
  -OEChem-04042323043D

 88 97  0     1  0  0  0  0  0999 V2000
  -22.4456  -11.7044   20.2374 C   0  0  0  0  0  0  0  0  0  0  0  0
  -22.3743  -12.5810   21.3154 C   0  0  0  0  0  0  0  0  0  0  0  0
  -31.5770  -23.0362   22.8172 C   0  0  0  0  0  0  0  0  0  0  0  0
  -22.1721  -29.7876   19.7768 C   0  0  0  0  0  0  0  0  0  0  0  0
  -22.5545  -28.7622   21.9308 C   0  0  0  0  0  0  0  0  0  0  0  0
  -23.5801  -11.6885   19.4271 C   0  0  0  0  0  0  0  0  0  0  0  0
  -23.4382  -13.4414   21.5844 C   0  0  0  0  0  0  0  0  0  0  0  0
  -24.8144  -19.9804   24.1658 C   0  0  0  0  0  0  0  0  0  0  0  0
  -31.5562  -23.3816   24.1684 C   0  0  0  0  0  0  0  0  0  0  0  0
  -30.8723  -23.8040   21.8901 C   0  0  0  0  0  0  0  0  0  0  0  0
  -20.8154  -29.4777   19.8701 C   0  0  0  0  0  0  0  0  0  0  0  0
  -21.1977  -28.4523   22.0241 C   0  0  0  0  0  0  0  0  0  0  0  0
  -25.6034  -20.6162   25.1234 C   0  0  0  0  0  0  0  0  0  0  0  0
  -18.3255  -30.0563   22.7976 C   0  0  0  0  0  0  0  0  0  0  0  0
  -17.6864  -30.3098   24.0112 C   0  0  0  0  0  0  0  0  0  0  0  0
  -27.4797  -20.5562   23.6084 C   0  0  0  0  0  0  0  0  0  0  0  0
  -17.1336  -27.9662   24.2095 C   0  0  0  0  0  0  0  0  0  0  0  0
  -23.0417  -29.4298   20.8072 C   0  0  0  0  0  0  0  0  0  0  0  0
  -25.0805  -30.9228   21.1569 C   0  0  0  0  0  0  0  0  0  0  0  0
  -24.6543  -12.5559   19.6806 C   0  0  0  0  0  0  0  0  0  0  0  0
  -25.3559  -19.6173   22.9244 C   0  0  0  0  0  0  0  0  0  0  0  0
  -24.5887  -13.4361   20.7775 C   0  0  0  0  0  0  0  0  0  0  0  0
  -26.6947  -19.9182   22.6358 C   0  0  0  0  0  0  0  0  0  0  0  0
  -30.1259  -25.2626   23.6655 C   0  0  0  0  0  0  0  0  0  0  0  0
  -30.8307  -24.4949   24.5926 C   0  0  0  0  0  0  0  0  0  0  0  0
  -30.1467  -24.9172   22.3142 C   0  0  0  0  0  0  0  0  0  0  0  0
  -20.3281  -28.8101   20.9938 C   0  0  0  0  0  0  0  0  0  0  0  0
  -26.9370  -20.9016   24.8458 C   0  0  0  0  0  0  0  0  0  0  0  0
  -18.3686  -28.7578   22.2899 C   0  0  0  0  0  0  0  0  0  0  0  0
  -17.0905  -29.2648   24.7172 C   0  0  0  0  0  0  0  0  0  0  0  0
  -17.7727  -27.7128   22.9958 C   0  0  0  0  0  0  0  0  0  0  0  0
  -24.4435  -29.7492   20.7111 C   0  0  0  0  0  0  0  0  0  0  0  0
  -26.4031  -30.7388   20.8356 C   0  0  0  0  0  0  0  0  0  0  0  0
  -29.9329  -24.3965   26.9603 C   0  0  0  0  0  0  0  0  0  0  0  0
  -31.7661  -25.7239   26.5365 C   0  0  0  0  0  0  0  0  0  0  0  0
  -29.0819  -23.3644   26.9005 C   0  0  0  0  0  0  0  0  0  0  0  0
  -24.5262  -32.0760   21.8038 C   0  0  0  0  0  0  0  0  0  0  0  0
  -25.8081  -16.8696   21.3915 C   0  0  0  0  0  0  0  0  0  0  0  0
  -26.7356  -18.8211   18.9721 C   0  0  0  0  0  0  0  0  0  0  0  0
  -27.9559  -21.8579   18.0050 C   0  0  0  0  0  0  0  0  0  0  0  0
  -29.7649  -25.8679   20.0127 C   0  0  0  0  0  0  0  0  0  0  0  0
  -25.8795  -12.4692   18.8052 C   0  0  0  0  0  0  0  0  0  0  0  0
  -24.4843  -18.9560   21.8922 C   0  0  0  0  0  0  0  0  0  0  0  0
  -27.3185  -19.5675   21.3106 C   0  0  0  0  0  0  0  0  0  0  0  0
  -30.1340  -25.2028   28.2059 C   0  0  0  0  0  0  0  0  0  0  0  0
  -31.5298  -25.7694   28.0262 C   0  0  0  0  0  0  0  0  0  0  0  0
  -26.8067  -13.6750   18.9341 C   0  0  0  0  0  0  0  0  0  0  0  0
  -29.2108  -28.4930   17.6721 C   0  0  0  0  0  0  0  0  0  0  0  0
  -27.0305  -14.0218   20.4026 C   0  0  0  0  0  0  0  0  0  0  0  0
  -27.9871  -29.2236   18.2297 C   0  0  0  0  0  0  0  0  0  0  0  0
  -29.1178  -26.9837   17.8888 C   0  0  0  0  0  0  0  0  0  0  0  0
  -27.6365  -27.3006   19.8316 C   0  0  0  0  0  0  0  0  0  0  0  0
  -25.7118  -14.4021   21.0868 C   0  0  1  0  0  0  0  0  0  0  0  0
  -25.2790  -18.1693   20.8544 C   0  0  1  0  0  0  0  0  0  0  0  0
  -27.7148  -28.8299   19.6947 C   0  0  2  0  0  0  0  0  0  0  0  0
  -29.3461  -26.4573   24.1210 C   0  0  0  0  0  0  0  0  0  0  0  0
  -28.6451  -23.1447   15.9638 C   0  0  0  0  0  0  0  0  0  0  0  0
  -29.3277  -17.2170   18.8390 C   0  0  0  0  0  0  0  0  0  0  0  0
  -30.3294  -19.0788   17.4979 C   0  0  0  0  0  0  0  0  0  0  0  0
  -28.3621  -17.8255   16.6138 C   0  0  0  0  0  0  0  0  0  0  0  0
  -25.9034  -23.9364   18.4801 C   0  0  0  0  0  0  0  0  0  0  0  0
  -28.0435  -19.4362   18.5363 C   0  0  1  0  0  0  0  0  0  0  0  0
  -27.5094  -22.8249   16.9233 C   0  0  2  0  0  0  0  0  0  0  0  0
  -29.0047  -18.3944   17.8975 C   0  0  0  0  0  0  0  0  0  0  0  0
  -25.2916  -28.8838   20.1492 N   0  0  0  0  0  0  0  0  0  0  0  0
  -26.4751  -29.5141   20.2397 N   0  0  0  0  0  0  0  0  0  0  0  0
  -30.8224  -24.8298   25.9849 N   0  0  0  0  0  0  0  0  0  0  0  0
  -26.4271  -18.9162   20.3365 N   0  0  0  0  0  0  0  0  0  0  0  0
  -28.8631  -26.6861   19.3000 N   0  0  0  0  0  0  0  0  0  0  0  0
  -27.4999  -31.5069   21.0073 N   0  0  0  0  0  0  0  0  0  0  0  0
  -23.1484  -32.1011   22.0595 N   0  0  0  0  0  0  0  0  0  0  0  0
  -29.4368  -25.6815   21.3552 N   0  0  0  0  0  0  0  0  0  0  0  0
  -25.3302  -15.7526   20.7333 N   0  0  0  0  0  0  0  0  0  0  0  0
  -27.6987  -20.5486   17.6575 N   0  0  0  0  0  0  0  0  0  0  0  0
  -27.0352  -24.0999   17.5319 N   0  3  0  0  0  0  0  0  0  0  0  0
  -32.6490  -26.3662   25.9843 O   0  0  0  0  0  0  0  0  0  0  0  0
  -25.2292  -33.0623   22.1302 O   0  0  0  0  0  0  0  0  0  0  0  0
  -26.5931  -16.8795   22.3325 O   0  0  0  0  0  0  0  0  0  0  0  0
  -26.0109  -18.2825   18.1316 O   0  0  0  0  0  0  0  0  0  0  0  0
  -28.4838  -22.2269   19.0518 O   0  0  0  0  0  0  0  0  0  0  0  0
  -30.7699  -25.3914   19.4789 O   0  0  0  0  0  0  0  0  0  0  0  0
  -28.5295  -23.4382   24.3731 O   0  0  0  0  0  0  0  0  0  0  0  0
  -30.1577  -21.7059   25.2341 O   0  0  0  0  0  0  0  0  0  0  0  0
  -19.0042  -28.5077   21.0852 O   0  0  0  0  0  0  0  0  0  0  0  0
  -27.7096  -21.5216   25.7789 O   0  0  0  0  0  0  0  0  0  1  0  0
  -16.4781  -29.5080   25.8834 F   0  0  0  0  0  0  0  0  0  0  0  0
  -17.8119  -26.4631   22.5137 F   0  0  0  0  0  0  0  0  0  0  0  0
  -28.9618  -22.5101   25.4011 S   0  0  0  0  0  0  0  0  0  1  0  0
  1  2  1  0  0  0  0
  1  6  2  0  0  0  0
  2  7  2  0  0  0  0
  3  9  2  0  0  0  0
  3 10  1  0  0  0  0
  4 11  2  0  0  0  0
  4 18  1  0  0  0  0
  5 12  1  0  0  0  0
  5 18  2  0  0  0  0
  6 20  1  0  0  0  0
  7 22  1  0  0  0  0
  8 13  2  0  0  0  0
  8 21  1  0  0  0  0
  9 25  1  0  0  0  0
 10 26  2  0  0  0  0
 11 27  1  0  0  0  0
 12 27  2  0  0  0  0
 13 28  1  0  0  0  0
 14 15  2  0  0  0  0
 14 29  1  0  0  0  0
 15 30  1  0  0  0  0
 16 23  1  0  0  0  0
 16 28  2  0  0  0  0
 17 30  2  0  0  0  0
 17 31  1  0  0  0  0
 18 32  1  0  0  0  0
 19 32  1  0  0  0  0
 19 33  2  0  0  0  0
 19 37  1  0  0  0  0
 20 22  2  0  0  0  0
 20 42  1  0  0  0  0
 21 23  2  0  0  0  0
 21 43  1  0  0  0  0
 22 53  1  0  0  0  0
 23 44  1  0  0  0  0
 24 25  2  0  0  0  0
 24 26  1  0  0  0  0
 24 56  1  0  0  0  0
 25 67  1  0  0  0  0
 26 72  1  0  0  0  0
 27 84  1  0  0  0  0
 28 85  1  0  0  0  0
 29 31  2  0  0  0  0
 29 84  1  0  0  0  0
 30 86  1  0  0  0  0
 31 87  1  0  0  0  0
 32 65  2  0  0  0  0
 33 66  1  0  0  0  0
 33 70  1  0  0  0  0
 34 36  2  0  0  0  0
 34 45  1  0  0  0  0
 34 67  1  0  0  0  0
 35 46  1  0  0  0  0
 35 67  1  0  0  0  0
 35 76  2  0  0  0  0
 36 88  1  0  0  0  0
 37 71  1  0  0  0  0
 37 77  2  0  0  0  0
 38 54  1  0  0  0  0
 38 73  1  0  0  0  0
 38 78  2  0  0  0  0
 39 62  1  0  0  0  0
 39 68  1  0  0  0  0
 39 79  2  0  0  0  0
 40 63  1  0  0  0  0
 40 74  1  0  0  0  0
 40 80  2  0  0  0  0
 41 69  1  0  0  0  0
 41 72  1  0  0  0  0
 41 81  2  0  0  0  0
 42 47  1  0  0  0  0
 43 54  1  0  0  0  0
 44 68  1  0  0  0  0
 45 46  1  0  0  0  0
 47 49  1  0  0  0  0
 48 50  1  0  0  0  0
 48 51  1  0  0  0  0
 49 53  1  0  0  0  0
 50 55  1  0  0  0  0
 51 69  1  0  0  0  0
 52 55  1  0  0  0  0
 52 69  1  0  0  0  0
 53 73  1  0  0  0  0
 54 68  1  0  0  0  0
 55 66  1  0  0  0  0
 57 63  1  0  0  0  0
 58 64  1  0  0  0  0
 59 64  1  0  0  0  0
 60 64  1  0  0  0  0
 61 75  1  0  0  0  0
 62 64  1  0  0  0  0
 62 74  1  0  0  0  0
 63 75  1  0  0  0  0
 65 66  1  0  0  0  0
 82 88  2  0  0  0  0
 83 88  2  0  0  0  0
 85 88  1  0  0  0  0
M  CHG  1  75   1
M  ISO  4  41 100  72 100  85 101  88 101
M  END
> <Batch ID>
0060

> <Smiles>
CNC(C)C(=O)NC(C(=O)N1Cc2cc([101O:1][101S:1](=O)(=O)C=C3CCC(=O)N3c3cccc([100NH:0][100C:0](=O)N4CCCC(n5nc(-c6ccc(Oc7ccc(F)cc7F)cc6)c(C(N)=O)c5N)C4)c3C)ccc2CC1C(=O)NC1CCCc2ccccc21)C(C)(C)C

> <Shape>
0.218

> <Color>
0.069

> <Negative vol penalty>
0.000

$$$$

  -OEChem-04042323043D

 86 94  0     1  0  0  0  0  0999 V2000
  -32.0235  -22.4577   38.4831 C   0  0  0  0  0  0  0  0  0  0  0  0
  -31.5441  -21.9906   37.2635 C   0  0  0  0  0  0  0  0  0  0  0  0
  -32.4220  -18.4664   21.9609 C   0  0  0  0  0  0  0  0  0  0  0  0
  -23.0004   -9.8946   19.9804 C   0  0  0  0  0  0  0  0  0  0  0  0
  -23.7259   -9.9444   22.2844 C   0  0  0  0  0  0  0  0  0  0  0  0
  -31.6568  -19.3265   22.7484 C   0  0  0  0  0  0  0  0  0  0  0  0
  -32.9166  -23.5278   38.5161 C   0  0  0  0  0  0  0  0  0  0  0  0
  -31.9569  -22.5940   36.0761 C   0  0  0  0  0  0  0  0  0  0  0  0
  -32.8838  -19.8497   30.6802 C   0  0  0  0  0  0  0  0  0  0  0  0
  -31.8918  -17.2453   21.5442 C   0  0  0  0  0  0  0  0  0  0  0  0
  -22.2337   -8.7602   20.2463 C   0  0  0  0  0  0  0  0  0  0  0  0
  -22.9591   -8.8100   22.5503 C   0  0  0  0  0  0  0  0  0  0  0  0
  -32.0917  -19.7332   29.5388 C   0  0  0  0  0  0  0  0  0  0  0  0
  -23.2026   -5.4712   22.0769 C   0  0  0  0  0  0  0  0  0  0  0  0
  -23.7900   -4.4535   22.8285 C   0  0  0  0  0  0  0  0  0  0  0  0
  -33.2264  -21.6263   28.5654 C   0  0  0  0  0  0  0  0  0  0  0  0
  -22.0663   -4.6961   24.5040 C   0  0  0  0  0  0  0  0  0  0  0  0
  -23.7466  -10.4867   20.9994 C   0  0  0  0  0  0  0  0  0  0  0  0
  -30.3615  -18.9656   23.1194 C   0  0  0  0  0  0  0  0  0  0  0  0
  -24.1325  -13.0023   20.8245 C   0  0  0  0  0  0  0  0  0  0  0  0
  -33.3481  -24.1384   37.3279 C   0  0  0  0  0  0  0  0  0  0  0  0
  -33.8473  -20.8639   30.7774 C   0  0  0  0  0  0  0  0  0  0  0  0
  -32.8557  -23.6741   36.0933 C   0  0  0  0  0  0  0  0  0  0  0  0
  -34.0312  -21.7520   29.7080 C   0  0  0  0  0  0  0  0  0  0  0  0
  -29.8314  -17.7445   22.7028 C   0  0  0  0  0  0  0  0  0  0  0  0
  -30.5966  -16.8843   21.9152 C   0  0  0  0  0  0  0  0  0  0  0  0
  -22.2130   -8.2179   21.5313 C   0  0  0  0  0  0  0  0  0  0  0  0
  -32.2609  -20.6233   28.4824 C   0  0  0  0  0  0  0  0  0  0  0  0
  -22.0471   -6.1014   22.5389 C   0  0  0  0  0  0  0  0  0  0  0  0
  -23.2218   -4.0659   24.0420 C   0  0  0  0  0  0  0  0  0  0  0  0
  -21.4790   -5.7138   23.7524 C   0  0  0  0  0  0  0  0  0  0  0  0
  -24.5393  -11.6582   20.7252 C   0  0  0  0  0  0  0  0  0  0  0  0
  -25.2424  -13.7248   20.4603 C   0  0  0  0  0  0  0  0  0  0  0  0
  -29.5716  -19.9038   23.9578 C   0  0  0  0  0  0  0  0  0  0  0  0
  -22.8647  -13.5488   21.2114 C   0  0  0  0  0  0  0  0  0  0  0  0
  -34.3050  -23.3454   32.7104 C   0  0  0  0  0  0  0  0  0  0  0  0
  -37.0816  -23.6243   31.0564 C   0  0  0  0  0  0  0  0  0  0  0  0
  -38.8217  -22.9940   28.1891 C   0  0  0  0  0  0  0  0  0  0  0  0
  -30.2913  -21.2473   27.4085 C   0  0  0  0  0  0  0  0  0  1  0  0
  -30.7221  -14.6845   20.6940 C   0  0  0  0  0  0  0  0  0  0  0  0
  -34.2778  -25.3226   37.4165 C   0  0  0  0  0  0  0  0  0  0  0  0
  -34.7121  -20.9596   32.0043 C   0  0  0  0  0  0  0  0  0  0  0  0
  -35.0657  -22.8457   29.7543 C   0  0  0  0  0  0  0  0  0  0  0  0
  -34.9562  -25.6647   36.0924 C   0  0  0  0  0  0  0  0  0  0  0  0
  -29.6030  -12.2329   18.3671 C   0  0  0  0  0  0  0  0  0  0  0  0
  -33.9381  -25.6696   34.9566 C   0  0  0  0  0  0  0  0  0  0  0  0
  -28.1524  -11.9754   18.7814 C   0  0  0  0  0  0  0  0  0  0  0  0
  -30.5037  -12.4755   19.5769 C   0  0  0  0  0  0  0  0  0  0  0  0
  -28.5887  -13.2643   20.9110 C   0  0  0  0  0  0  0  0  0  0  0  0
  -33.2992  -24.2865   34.7824 C   0  0  1  0  0  0  0  0  0  0  0  0
  -35.3101  -22.3484   32.2070 C   0  0  1  0  0  0  0  0  0  0  0  0
  -27.6308  -13.0787   19.7229 C   0  0  2  0  0  0  0  0  0  0  0  0
  -28.4411  -17.3581   23.1020 C   0  0  0  0  0  0  0  0  0  0  0  0
  -41.0579  -23.3782   27.1171 C   0  0  0  0  0  0  0  0  0  0  0  0
  -28.0977  -20.4965   26.5142 C   0  0  0  0  0  0  0  0  0  0  0  0
  -29.2819  -22.4699   25.4918 C   0  0  0  0  0  0  0  0  0  0  0  0
  -36.3160  -26.5259   30.5049 C   0  0  0  0  0  0  0  0  0  0  0  0
  -38.0460  -26.5655   28.6956 C   0  0  0  0  0  0  0  0  0  0  0  0
  -38.7280  -26.1713   31.0625 C   0  0  0  0  0  0  0  0  0  0  0  0
  -39.3506  -20.0896   27.9810 C   0  0  0  0  0  0  0  0  0  0  0  0
  -37.5113  -24.3477   29.8031 C   0  0  1  0  0  0  0  0  0  0  0  0
  -40.2134  -22.4335   27.9580 C   0  0  2  0  0  0  0  0  0  0  0  0
  -29.4551  -21.0919   26.1329 C   0  0  0  0  0  0  0  0  0  0  0  0
  -37.6294  -25.8833   30.0161 C   0  0  0  0  0  0  0  0  0  0  0  0
  -25.8085  -11.5316   20.3288 N   0  0  0  0  0  0  0  0  0  0  0  0
  -26.2088  -12.8054   20.1757 N   0  0  0  0  0  0  0  0  0  0  0  0
  -35.8823  -22.9022   30.9781 N   0  0  0  0  0  0  0  0  0  0  0  0
  -29.9490  -13.5363   20.4208 N   0  0  0  0  0  0  0  0  0  0  0  0
  -25.4761  -15.0505   20.3588 N   0  0  0  0  0  0  0  0  0  0  0  0
  -21.8327  -12.6648   21.5547 N   0  0  0  0  0  0  0  0  0  0  0  0
  -30.0781  -15.6395   21.4801 N   0  0  0  0  0  0  0  0  0  0  0  0
  -30.1170  -20.2120   25.1922 N   0  0  0  0  0  0  0  0  0  0  0  0
  -34.2038  -23.3958   34.0876 N   0  0  0  0  0  0  0  0  0  0  0  0
  -38.7477  -23.7082   29.3662 N   0  0  0  0  0  0  0  0  0  0  0  0
  -40.1334  -21.1222   27.2544 N   0  3  0  0  0  0  0  0  0  0  0  0
  -28.4993  -20.3285   23.5355 O   0  0  0  0  0  0  0  0  0  0  0  0
  -22.6483  -14.7842   21.2357 O   0  0  0  0  0  0  0  0  0  0  0  0
  -33.6696  -24.0201   31.9087 O   0  0  0  0  0  0  0  0  0  0  0  0
  -37.7877  -23.6913   32.0656 O   0  0  0  0  0  0  0  0  0  0  0  0
  -37.8940  -22.8191   27.4021 O   0  0  0  0  0  0  0  0  0  0  0  0
  -29.9414  -21.9422   28.3581 O   0  0  0  0  0  0  0  0  0  0  0  0
  -31.8607  -14.8233   20.2399 O   0  0  0  0  0  0  0  0  0  0  0  0
  -21.4647   -7.1110   21.7912 O   0  0  0  0  0  0  0  0  0  0  0  0
  -31.4886  -20.5122   27.3674 O   0  0  0  0  0  0  0  0  0  1  0  0
  -23.7851   -3.0876   24.7629 F   0  0  0  0  0  0  0  0  0  0  0  0
  -20.3683   -6.3147   24.2008 F   0  0  0  0  0  0  0  0  0  0  0  0
  1  2  1  0  0  0  0
  1  7  2  0  0  0  0
  2  8  2  0  0  0  0
  3  6  2  0  0  0  0
  3 10  1  0  0  0  0
  4 11  2  0  0  0  0
  4 18  1  0  0  0  0
  5 12  1  0  0  0  0
  5 18  2  0  0  0  0
  6 19  1  0  0  0  0
  7 21  1  0  0  0  0
  8 23  1  0  0  0  0
  9 13  2  0  0  0  0
  9 22  1  0  0  0  0
 10 26  2  0  0  0  0
 11 27  1  0  0  0  0
 12 27  2  0  0  0  0
 13 28  1  0  0  0  0
 14 15  2  0  0  0  0
 14 29  1  0  0  0  0
 15 30  1  0  0  0  0
 16 24  1  0  0  0  0
 16 28  2  0  0  0  0
 17 30  2  0  0  0  0
 17 31  1  0  0  0  0
 18 32  1  0  0  0  0
 19 25  2  0  0  0  0
 19 34  1  0  0  0  0
 20 32  1  0  0  0  0
 20 33  2  0  0  0  0
 20 35  1  0  0  0  0
 21 23  2  0  0  0  0
 21 41  1  0  0  0  0
 22 24  2  0  0  0  0
 22 42  1  0  0  0  0
 23 50  1  0  0  0  0
 24 43  1  0  0  0  0
 25 26  1  0  0  0  0
 25 53  1  0  0  0  0
 26 71  1  0  0  0  0
 27 83  1  0  0  0  0
 28 84  1  0  0  0  0
 29 31  2  0  0  0  0
 29 83  1  0  0  0  0
 30 85  1  0  0  0  0
 31 86  1  0  0  0  0
 32 65  2  0  0  0  0
 33 66  1  0  0  0  0
 33 69  1  0  0  0  0
 34 72  1  0  0  0  0
 34 76  2  0  0  0  0
 35 70  1  0  0  0  0
 35 77  2  0  0  0  0
 36 51  1  0  0  0  0
 36 73  1  0  0  0  0
 36 78  2  0  0  0  0
 37 61  1  0  0  0  0
 37 67  1  0  0  0  0
 37 79  2  0  0  0  0
 38 62  1  0  0  0  0
 38 74  1  0  0  0  0
 38 80  2  0  0  0  0
 39 63  1  0  0  0  0
 39 81  2  0  0  0  0
 39 84  1  0  0  0  0
 40 68  1  0  0  0  0
 40 71  1  0  0  0  0
 40 82  2  0  0  0  0
 41 44  1  0  0  0  0
 42 51  1  0  0  0  0
 43 67  1  0  0  0  0
 44 46  1  0  0  0  0
 45 47  1  0  0  0  0
 45 48  1  0  0  0  0
 46 50  1  0  0  0  0
 47 52  1  0  0  0  0
 48 68  1  0  0  0  0
 49 52  1  0  0  0  0
 49 68  1  0  0  0  0
 50 73  1  0  0  0  0
 51 67  1  0  0  0  0
 52 66  1  0  0  0  0
 54 62  1  0  0  0  0
 55 63  1  0  0  0  0
 56 63  1  0  0  0  0
 57 64  1  0  0  0  0
 58 64  1  0  0  0  0
 59 64  1  0  0  0  0
 60 75  1  0  0  0  0
 61 64  1  0  0  0  0
 61 74  1  0  0  0  0
 62 75  1  0  0  0  0
 63 72  1  0  0  0  0
 65 66  1  0  0  0  0
M  CHG  1  75   1
M  ISO  4  39 101  40 100  71 100  84 101
M  END
> <Batch ID>
0060

> <Smiles>
CNC(C)C(=O)NC(C(=O)N1Cc2cc([101O:1][101C:1](=O)C(C)(C)NC(=O)c3cccc([100NH:0][100C:0](=O)N4CCCC(n5nc(-c6ccc(Oc7ccc(F)cc7F)cc6)c(C(N)=O)c5N)C4)c3C)ccc2CC1C(=O)NC1CCCc2ccccc21)C(C)(C)C

> <Shape>
0.175

> <Color>
0.193

> <Negative vol penalty>
0.000

$$$$

  -OEChem-04042323043D

 83 91  0     1  0  0  0  0  0999 V2000
  -17.9933  -25.2503   21.8439 C   0  0  0  0  0  0  0  0  0  0  0  0
  -19.2625  -24.7817   22.1678 C   0  0  0  0  0  0  0  0  0  0  0  0
  -23.8215   -9.8878   21.6507 C   0  0  0  0  0  0  0  0  0  0  0  0
  -24.3997  -11.0310   23.6991 C   0  0  0  0  0  0  0  0  0  0  0  0
  -17.8437  -26.5069   21.2585 C   0  0  0  0  0  0  0  0  0  0  0  0
  -20.3831  -25.5690   21.9055 C   0  0  0  0  0  0  0  0  0  0  0  0
  -25.5029  -25.9157   25.2481 C   0  0  0  0  0  0  0  0  0  0  0  0
  -31.4184  -20.1023   21.3150 C   0  0  0  0  0  0  0  0  0  0  0  0
  -31.0814  -18.8158   20.8944 C   0  0  0  0  0  0  0  0  0  0  0  0
  -23.3059   -8.8235   22.3902 C   0  0  0  0  0  0  0  0  0  0  0  0
  -23.8840   -9.9666   24.4386 C   0  0  0  0  0  0  0  0  0  0  0  0
  -26.7520  -25.3106   25.1161 C   0  0  0  0  0  0  0  0  0  0  0  0
  -20.4791   -8.1221   24.1079 C   0  0  0  0  0  0  0  0  0  0  0  0
  -19.2454   -7.6002   23.7192 C   0  0  0  0  0  0  0  0  0  0  0  0
  -27.5764  -27.2735   23.9818 C   0  0  0  0  0  0  0  0  0  0  0  0
  -29.0742  -20.6462   21.5296 C   0  0  0  0  0  0  0  0  0  0  0  0
  -20.2728   -5.4444   23.3529 C   0  0  0  0  0  0  0  0  0  0  0  0
  -24.3686  -10.9916   22.3052 C   0  0  0  0  0  0  0  0  0  0  0  0
  -24.2093  -13.2341   21.0997 C   0  0  0  0  0  0  0  0  0  0  0  0
  -18.9623  -27.3140   20.9977 C   0  0  0  0  0  0  0  0  0  0  0  0
  -25.2777  -27.2021   24.7373 C   0  0  0  0  0  0  0  0  0  0  0  0
  -20.2485  -26.8370   21.3148 C   0  0  0  0  0  0  0  0  0  0  0  0
  -26.3242  -27.8937   24.1108 C   0  0  0  0  0  0  0  0  0  0  0  0
  -30.4148  -21.0175   21.6327 C   0  0  0  0  0  0  0  0  0  0  0  0
  -29.7408  -18.4445   20.7913 C   0  0  0  0  0  0  0  0  0  0  0  0
  -23.3371   -8.8629   23.7842 C   0  0  0  0  0  0  0  0  0  0  0  0
  -27.7882  -25.9884   24.4803 C   0  0  0  0  0  0  0  0  0  0  0  0
  -21.6097   -7.3052   24.1191 C   0  0  0  0  0  0  0  0  0  0  0  0
  -19.1422   -6.2614   23.3417 C   0  0  0  0  0  0  0  0  0  0  0  0
  -28.7372  -19.3597   21.1089 C   0  0  0  0  0  0  0  0  0  0  0  0
  -21.5065   -5.9664   23.7416 C   0  0  0  0  0  0  0  0  0  0  0  0
  -24.9019  -12.0911   21.5418 C   0  0  0  0  0  0  0  0  0  0  0  0
  -25.1537  -13.9681   20.4245 C   0  0  0  0  0  0  0  0  0  0  0  0
  -22.8351  -13.5998   21.2829 C   0  0  0  0  0  0  0  0  0  0  0  0
  -23.3525  -28.4330   22.5278 C   0  0  0  0  0  0  0  0  0  0  0  0
  -24.5538  -31.2463   23.6068 C   0  0  0  0  0  0  0  0  0  0  0  0
  -29.8906  -23.3543   22.4128 C   0  0  0  0  0  0  0  0  0  0  0  0
  -27.0962  -32.9018   25.1695 C   0  0  0  0  0  0  0  0  0  0  0  0
  -30.2765  -16.1102   20.0100 C   0  0  0  0  0  0  0  0  0  0  0  0
  -18.7547  -28.6454   20.3203 C   0  0  0  0  0  0  0  0  0  0  0  0
  -23.9322  -27.8515   24.9114 C   0  0  0  0  0  0  0  0  0  0  0  0
  -26.1397  -29.2846   23.5632 C   0  0  0  0  0  0  0  0  0  0  0  0
  -19.9625  -29.5737   20.4186 C   0  0  0  0  0  0  0  0  0  0  0  0
  -29.8355  -12.7429   18.9405 C   0  0  0  0  0  0  0  0  0  0  0  0
  -21.2445  -28.8194   20.0805 C   0  0  0  0  0  0  0  0  0  0  0  0
  -28.4556  -12.3671   19.4856 C   0  0  0  0  0  0  0  0  0  0  0  0
  -30.5990  -13.6485   19.9052 C   0  0  0  0  0  0  0  0  0  0  0  0
  -28.4927  -14.4743   20.8804 C   0  0  0  0  0  0  0  0  0  0  0  0
  -21.4864  -27.6719   21.0685 C   0  0  1  0  0  0  0  0  0  0  0  0
  -23.6688  -28.9613   23.8983 C   0  0  1  0  0  0  0  0  0  0  0  0
  -27.6601  -13.6156   19.9145 C   0  0  2  0  0  0  0  0  0  0  0  0
  -27.8105  -35.2026   25.8719 C   0  0  0  0  0  0  0  0  0  0  0  0
  -25.2836  -31.8992   20.7170 C   0  0  0  0  0  0  0  0  0  0  0  0
  -26.7980  -33.6970   21.5789 C   0  0  0  0  0  0  0  0  0  0  0  0
  -24.3450  -33.8196   22.0153 C   0  0  0  0  0  0  0  0  0  0  0  0
  -27.1536  -32.1375   28.0281 C   0  0  0  0  0  0  0  0  0  0  0  0
  -30.6769  -24.5979   22.8118 C   0  0  0  0  0  0  0  0  0  0  0  0
  -29.7869  -25.7651   23.2110 C   0  0  0  0  0  0  0  0  0  1  0  0
  -25.7395  -32.1097   23.2495 C   0  0  1  0  0  0  0  0  0  0  0  0
  -27.0925  -33.9282   26.2879 C   0  0  2  0  0  0  0  0  0  0  0  0
  -25.5448  -32.8544   21.8987 C   0  0  0  0  0  0  0  0  0  0  0  0
  -26.1871  -12.0940   21.1780 N   0  0  0  0  0  0  0  0  0  0  0  0
  -26.3095  -13.2479   20.5000 N   0  0  0  0  0  0  0  0  0  0  0  0
  -24.8042  -29.8745   23.7524 N   0  0  0  0  0  0  0  0  0  0  0  0
  -29.7853  -14.8121   20.2640 N   0  0  0  0  0  0  0  0  0  0  0  0
  -25.1000  -15.1527   19.7794 N   0  0  0  0  0  0  0  0  0  0  0  0
  -22.0027  -12.7311   22.0018 N   0  0  0  0  0  0  0  0  0  0  0  0
  -30.7565  -22.3230   22.0589 N   0  0  0  0  0  0  0  0  0  0  0  0
  -29.4016  -17.1371   20.3631 N   0  0  0  0  0  0  0  0  0  0  0  0
  -22.0099  -28.1823   22.3175 N   0  0  0  0  0  0  0  0  0  0  0  0
  -25.9617  -32.9907   24.3910 N   0  0  0  0  0  0  0  0  0  0  0  0
  -27.7706  -33.3799   27.4964 N   0  3  0  0  0  0  0  0  0  0  0  0
  -22.3555  -14.6575   20.8088 O   0  0  0  0  0  0  0  0  0  0  0  0
  -24.2591  -28.2665   21.7203 O   0  0  0  0  0  0  0  0  0  0  0  0
  -23.4476  -31.7708   23.7583 O   0  0  0  0  0  0  0  0  0  0  0  0
  -28.6644  -23.3265   22.4216 O   0  0  0  0  0  0  0  0  0  0  0  0
  -28.0155  -32.1037   25.0009 O   0  0  0  0  0  0  0  0  0  0  0  0
  -31.3799  -16.2964   19.4905 O   0  0  0  0  0  0  0  0  0  0  0  0
  -22.8337   -7.8246   24.5061 O   0  0  0  0  0  0  0  0  0  0  0  0
  -29.0082  -25.3998   24.3496 O   0  0  0  0  0  0  0  0  0  1  0  0
  -17.9571   -5.7600   22.9698 F   0  0  0  0  0  0  0  0  0  0  0  0
  -27.4453  -19.0144   21.0120 F   0  0  0  0  0  0  0  0  0  0  0  0
  -22.5890   -5.1764   23.7515 F   0  0  0  0  0  0  0  0  0  0  0  0
  1  2  1  0  0  0  0
  1  5  2  0  0  0  0
  2  6  2  0  0  0  0
  3 10  2  0  0  0  0
  3 18  1  0  0  0  0
  4 11  1  0  0  0  0
  4 18  2  0  0  0  0
  5 20  1  0  0  0  0
  6 22  1  0  0  0  0
  7 12  2  0  0  0  0
  7 21  1  0  0  0  0
  8  9  2  0  0  0  0
  8 24  1  0  0  0  0
  9 25  1  0  0  0  0
 10 26  1  0  0  0  0
 11 26  2  0  0  0  0
 12 27  1  0  0  0  0
 13 14  2  0  0  0  0
 13 28  1  0  0  0  0
 14 29  1  0  0  0  0
 15 23  1  0  0  0  0
 15 27  2  0  0  0  0
 16 24  2  0  0  0  0
 16 30  1  0  0  0  0
 17 29  2  0  0  0  0
 17 31  1  0  0  0  0
 18 32  1  0  0  0  0
 19 32  1  0  0  0  0
 19 33  2  0  0  0  0
 19 34  1  0  0  0  0
 20 22  2  0  0  0  0
 20 40  1  0  0  0  0
 21 23  2  0  0  0  0
 21 41  1  0  0  0  0
 22 49  1  0  0  0  0
 23 42  1  0  0  0  0
 24 68  1  0  0  0  0
 25 30  2  0  0  0  0
 25 69  1  0  0  0  0
 26 79  1  0  0  0  0
 27 80  1  0  0  0  0
 28 31  2  0  0  0  0
 28 79  1  0  0  0  0
 29 81  1  0  0  0  0
 30 82  1  0  0  0  0
 31 83  1  0  0  0  0
 32 62  2  0  0  0  0
 33 63  1  0  0  0  0
 33 66  1  0  0  0  0
 34 67  1  0  0  0  0
 34 73  2  0  0  0  0
 35 50  1  0  0  0  0
 35 70  1  0  0  0  0
 35 74  2  0  0  0  0
 36 59  1  0  0  0  0
 36 64  1  0  0  0  0
 36 75  2  0  0  0  0
 37 57  1  0  0  0  0
 37 68  1  0  0  0  0
 37 76  2  0  0  0  0
 38 60  1  0  0  0  0
 38 71  1  0  0  0  0
 38 77  2  0  0  0  0
 39 65  1  0  0  0  0
 39 69  1  0  0  0  0
 39 78  2  0  0  0  0
 40 43  1  0  0  0  0
 41 50  1  0  0  0  0
 42 64  1  0  0  0  0
 43 45  1  0  0  0  0
 44 46  1  0  0  0  0
 44 47  1  0  0  0  0
 45 49  1  0  0  0  0
 46 51  1  0  0  0  0
 47 65  1  0  0  0  0
 48 51  1  0  0  0  0
 48 65  1  0  0  0  0
 49 70  1  0  0  0  0
 50 64  1  0  0  0  0
 51 63  1  0  0  0  0
 52 60  1  0  0  0  0
 53 61  1  0  0  0  0
 54 61  1  0  0  0  0
 55 61  1  0  0  0  0
 56 72  1  0  0  0  0
 57 58  1  0  0  0  0
 58 80  1  0  0  0  0
 59 61  1  0  0  0  0
 59 71  1  0  0  0  0
 60 72  1  0  0  0  0
 62 63  1  0  0  0  0
M  CHG  1  72   1
M  ISO  4  39 100  58 101  69 100  80 101
M  END
> <Batch ID>
0060

> <Smiles>
CNC(C)C(=O)NC(C(=O)N1Cc2cc([101O:1][101CH2:1]CC(=O)Nc3ccc([100NH:0][100C:0](=O)N4CCCC(n5nc(-c6ccc(Oc7ccc(F)cc7F)cc6)c(C(N)=O)c5N)C4)c(F)c3)ccc2CC1C(=O)NC1CCCc2ccccc21)C(C)(C)C

> <Shape>
0.285

> <Color>
0.134

> <Negative vol penalty>
0.000

$$$$

  -OEChem-04042323043D

 86 94  0     1  0  0  0  0  0999 V2000
  -28.4137  -24.3065   14.6626 C   0  0  0  0  0  0  0  0  0  0  0  0
  -27.2322  -24.5766   15.3457 C   0  0  0  0  0  0  0  0  0  0  0  0
  -26.9144  -12.7950   20.4981 C   0  0  0  0  0  0  0  0  0  0  0  0
  -26.0532  -13.7165   18.4374 C   0  0  0  0  0  0  0  0  0  0  0  0
  -22.4649  -23.2569   17.6750 C   0  0  0  0  0  0  0  0  0  0  0  0
  -29.6232  -24.2619   15.3547 C   0  0  0  0  0  0  0  0  0  0  0  0
  -27.2595  -24.8012   16.7216 C   0  0  0  0  0  0  0  0  0  0  0  0
  -24.4298  -28.7686   18.0989 C   0  0  0  0  0  0  0  0  0  0  0  0
  -26.1786  -11.6295   20.2844 C   0  0  0  0  0  0  0  0  0  0  0  0
  -25.3174  -12.5509   18.2237 C   0  0  0  0  0  0  0  0  0  0  0  0
  -23.0507  -28.5748   18.1651 C   0  0  0  0  0  0  0  0  0  0  0  0
  -22.9774  -10.6047   20.6404 C   0  0  0  0  0  0  0  0  0  0  0  0
  -23.2671  -22.3234   17.0188 C   0  0  0  0  0  0  0  0  0  0  0  0
  -22.2728  -10.0765   21.7221 C   0  0  0  0  0  0  0  0  0  0  0  0
  -23.6017  -22.7741   19.7515 C   0  0  0  0  0  0  0  0  0  0  0  0
  -23.2069  -28.3253   20.5594 C   0  0  0  0  0  0  0  0  0  0  0  0
  -23.5396   -8.0267   21.5463 C   0  0  0  0  0  0  0  0  0  0  0  0
  -26.8516  -13.8386   19.5746 C   0  0  0  0  0  0  0  0  0  0  0  0
  -22.6323  -23.4823   19.0414 C   0  0  0  0  0  0  0  0  0  0  0  0
  -28.9247  -15.3105   19.3654 C   0  0  0  0  0  0  0  0  0  0  0  0
  -29.6666  -24.4956   16.7382 C   0  0  0  0  0  0  0  0  0  0  0  0
  -25.2105  -28.7314   19.2631 C   0  0  0  0  0  0  0  0  0  0  0  0
  -28.4706  -24.7584   17.4331 C   0  0  0  0  0  0  0  0  0  0  0  0
  -24.5953  -28.5215   20.5056 C   0  0  0  0  0  0  0  0  0  0  0  0
  -24.4038  -21.8405   19.0953 C   0  0  0  0  0  0  0  0  0  0  0  0
  -25.3801  -11.5074   19.1472 C   0  0  0  0  0  0  0  0  0  0  0  0
  -22.4395  -28.3502   19.3952 C   0  0  0  0  0  0  0  0  0  0  0  0
  -23.9631   -9.8439   20.0115 C   0  0  0  0  0  0  0  0  0  0  0  0
  -22.5539   -8.7875   22.1751 C   0  0  0  0  0  0  0  0  0  0  0  0
  -24.2365  -21.6151   17.7289 C   0  0  0  0  0  0  0  0  0  0  0  0
  -24.2442   -8.5550   20.4645 C   0  0  0  0  0  0  0  0  0  0  0  0
  -27.6110  -15.0431   19.7951 C   0  0  0  0  0  0  0  0  0  0  0  0
  -29.1842  -16.5791   19.8233 C   0  0  0  0  0  0  0  0  0  0  0  0
  -21.7779  -24.4769   19.7399 C   0  0  0  0  0  0  0  0  0  0  0  0
  -29.8294  -14.4859   18.6191 C   0  0  0  0  0  0  0  0  0  0  0  0
  -27.5904  -26.9030   20.3104 C   0  0  0  0  0  0  0  0  0  0  0  0
  -27.6544  -29.0523   22.7391 C   0  0  0  0  0  0  0  0  0  0  0  0
  -25.9874  -31.3902   24.5836 C   0  0  0  0  0  0  0  0  0  0  0  0
  -25.6807  -21.2263   21.1782 C   0  0  0  0  0  0  0  0  0  0  0  0
  -30.9915  -24.3902   17.4510 C   0  0  0  0  0  0  0  0  0  0  0  0
  -26.6933  -28.9690   19.1778 C   0  0  0  0  0  0  0  0  0  0  0  0
  -25.3860  -28.4924   21.7871 C   0  0  0  0  0  0  0  0  0  0  0  0
  -30.9835  -25.0097   18.8462 C   0  0  0  0  0  0  0  0  0  0  0  0
  -27.9999  -19.6063   23.3402 C   0  0  0  0  0  0  0  0  0  0  0  0
  -29.7459  -24.5665   19.6200 C   0  0  0  0  0  0  0  0  0  0  0  0
  -28.2876  -18.2792   22.6343 C   0  0  0  0  0  0  0  0  0  0  0  0
  -26.5410  -20.0298   23.1790 C   0  0  0  0  0  0  0  0  0  0  0  0
  -26.3432  -18.7426   21.0878 C   0  0  0  0  0  0  0  0  0  0  0  0
  -28.4625  -25.0319   18.9215 C   0  0  1  0  0  0  0  0  0  0  0  0
  -27.4593  -28.3987   20.3676 C   0  0  1  0  0  0  0  0  0  0  0  0
  -27.8155  -18.3073   21.1674 C   0  0  2  0  0  0  0  0  0  0  0  0
  -26.2911  -32.9500   26.5258 C   0  0  0  0  0  0  0  0  0  0  0  0
  -27.4271  -26.6959   24.6641 C   0  0  0  0  0  0  0  0  0  0  0  0
  -26.7853  -28.3161   26.4616 C   0  0  0  0  0  0  0  0  0  0  0  0
  -29.0280  -28.4783   25.3815 C   0  0  0  0  0  0  0  0  0  0  0  0
  -18.1964  -27.7409   19.4153 C   0  0  0  0  0  0  0  0  0  0  0  0
  -18.5578  -26.1883   17.4770 C   0  0  0  0  0  0  0  0  0  0  0  0
  -25.4584  -33.7694   22.9049 C   0  0  0  0  0  0  0  0  0  0  0  0
  -19.5930  -25.6526   19.7316 C   0  0  0  0  0  0  0  0  0  0  0  0
  -20.4650  -27.5599   18.3308 C   0  0  0  0  0  0  0  0  0  1  0  0
  -26.9730  -29.1697   24.0811 C   0  0  1  0  0  0  0  0  0  0  0  0
  -26.3715  -32.7940   25.0152 C   0  0  2  0  0  0  0  0  0  0  0  0
  -27.5384  -28.1636   25.1229 C   0  0  0  0  0  0  0  0  0  0  0  0
  -19.1971  -26.7788   18.7471 C   0  0  0  0  0  0  0  0  0  0  0  0
  -27.0735  -16.0601   20.4740 N   0  0  0  0  0  0  0  0  0  0  0  0
  -28.0543  -16.9788   20.4744 N   0  0  0  0  0  0  0  0  0  0  0  0
  -26.8335  -28.7237   21.6509 N   0  0  0  0  0  0  0  0  0  0  0  0
  -26.1659  -20.0376   21.7634 N   0  0  0  0  0  0  0  0  0  0  0  0
  -30.2663  -17.3806   19.7286 N   0  0  0  0  0  0  0  0  0  0  0  0
  -29.4022  -13.2096   18.2278 N   0  0  0  0  0  0  0  0  0  0  0  0
  -25.3875  -21.1217   19.8189 N   0  0  0  0  0  0  0  0  0  0  0  0
  -20.5243  -24.7025   19.1847 N   0  0  0  0  0  0  0  0  0  0  0  0
  -28.2291  -26.4371   19.1771 N   0  0  0  0  0  0  0  0  0  0  0  0
  -27.0899  -30.5690   24.4772 N   0  0  0  0  0  0  0  0  0  0  0  0
  -25.4616  -33.7952   24.3902 N   0  3  0  0  0  0  0  0  0  0  0  0
  -22.2153  -25.0509   20.7337 O   0  0  0  0  0  0  0  0  0  0  0  0
  -30.9884  -14.8630   18.3225 O   0  0  0  0  0  0  0  0  0  0  0  0
  -27.1463  -26.2221   21.2275 O   0  0  0  0  0  0  0  0  0  0  0  0
  -28.8689  -29.2521   22.6581 O   0  0  0  0  0  0  0  0  0  0  0  0
  -24.8251  -31.0546   24.3665 O   0  0  0  0  0  0  0  0  0  0  0  0
  -25.5618  -22.2680   21.8282 O   0  0  0  0  0  0  0  0  0  0  0  0
  -24.6622  -10.3701   18.9382 O   0  0  0  0  0  0  0  0  0  0  0  0
  -21.0937  -28.1600   19.4626 O   0  0  0  0  0  0  0  0  0  1  0  0
  -21.8783   -8.2810   23.2148 F   0  0  0  0  0  0  0  0  0  0  0  0
  -25.0018  -20.7206   17.0878 F   0  0  0  0  0  0  0  0  0  0  0  0
  -25.1908   -7.8198   19.8651 F   0  0  0  0  0  0  0  0  0  0  0  0
  1  2  1  0  0  0  0
  1  6  2  0  0  0  0
  2  7  2  0  0  0  0
  3  9  2  0  0  0  0
  3 18  1  0  0  0  0
  4 10  1  0  0  0  0
  4 18  2  0  0  0  0
  5 13  2  0  0  0  0
  5 19  1  0  0  0  0
  6 21  1  0  0  0  0
  7 23  1  0  0  0  0
  8 11  2  0  0  0  0
  8 22  1  0  0  0  0
  9 26  1  0  0  0  0
 10 26  2  0  0  0  0
 11 27  1  0  0  0  0
 12 14  2  0  0  0  0
 12 28  1  0  0  0  0
 13 30  1  0  0  0  0
 14 29  1  0  0  0  0
 15 19  2  0  0  0  0
 15 25  1  0  0  0  0
 16 24  1  0  0  0  0
 16 27  2  0  0  0  0
 17 29  2  0  0  0  0
 17 31  1  0  0  0  0
 18 32  1  0  0  0  0
 19 34  1  0  0  0  0
 20 32  1  0  0  0  0
 20 33  2  0  0  0  0
 20 35  1  0  0  0  0
 21 23  2  0  0  0  0
 21 40  1  0  0  0  0
 22 24  2  0  0  0  0
 22 41  1  0  0  0  0
 23 49  1  0  0  0  0
 24 42  1  0  0  0  0
 25 30  2  0  0  0  0
 25 71  1  0  0  0  0
 26 82  1  0  0  0  0
 27 83  1  0  0  0  0
 28 31  2  0  0  0  0
 28 82  1  0  0  0  0
 29 84  1  0  0  0  0
 30 85  1  0  0  0  0
 31 86  1  0  0  0  0
 32 65  2  0  0  0  0
 33 66  1  0  0  0  0
 33 69  1  0  0  0  0
 34 72  1  0  0  0  0
 34 76  2  0  0  0  0
 35 70  1  0  0  0  0
 35 77  2  0  0  0  0
 36 50  1  0  0  0  0
 36 73  1  0  0  0  0
 36 78  2  0  0  0  0
 37 61  1  0  0  0  0
 37 67  1  0  0  0  0
 37 79  2  0  0  0  0
 38 62  1  0  0  0  0
 38 74  1  0  0  0  0
 38 80  2  0  0  0  0
 39 68  1  0  0  0  0
 39 71  1  0  0  0  0
 39 81  2  0  0  0  0
 40 43  1  0  0  0  0
 41 50  1  0  0  0  0
 42 67  1  0  0  0  0
 43 45  1  0  0  0  0
 44 46  1  0  0  0  0
 44 47  1  0  0  0  0
 45 49  1  0  0  0  0
 46 51  1  0  0  0  0
 47 68  1  0  0  0  0
 48 51  1  0  0  0  0
 48 68  1  0  0  0  0
 49 73  1  0  0  0  0
 50 67  1  0  0  0  0
 51 66  1  0  0  0  0
 52 62  1  0  0  0  0
 53 63  1  0  0  0  0
 54 63  1  0  0  0  0
 55 63  1  0  0  0  0
 56 64  1  0  0  0  0
 57 64  1  0  0  0  0
 58 75  1  0  0  0  0
 59 64  1  0  0  0  0
 59 72  1  0  0  0  0
 60 64  1  0  0  0  0
 60 83  1  0  0  0  0
 61 63  1  0  0  0  0
 61 74  1  0  0  0  0
 62 75  1  0  0  0  0
 65 66  1  0  0  0  0
M  CHG  1  75   1
M  ISO  4  39 100  60 101  71 100  83 101
M  END
> <Batch ID>
0060

> <Smiles>
CNC(C)C(=O)NC(C(=O)N1Cc2cc([101O:1][101CH2:1]C(C)(C)CNC(=O)c3ccc(F)c([100NH:0][100C:0](=O)N4CCCC(n5nc(-c6ccc(Oc7ccc(F)cc7F)cc6)c(C(N)=O)c5N)C4)c3)ccc2CC1C(=O)NC1CCCc2ccccc21)C(C)(C)C

> <Shape>
0.216

> <Color>
0.071

> <Negative vol penalty>
0.000

$$$$

  -OEChem-04042323043D

 82 90  0     1  0  0  0  0  0999 V2000
  -17.1062  -30.2538   22.5694 C   0  0  0  0  0  0  0  0  0  0  0  0
  -18.3735  -29.7273   22.3407 C   0  0  0  0  0  0  0  0  0  0  0  0
  -32.6474  -18.2978   21.8081 C   0  0  0  0  0  0  0  0  0  0  0  0
  -23.0696   -9.9124   21.4599 C   0  0  0  0  0  0  0  0  0  0  0  0
  -23.8459  -10.7726   23.5800 C   0  0  0  0  0  0  0  0  0  0  0  0
  -16.4125  -29.9181   23.7312 C   0  0  0  0  0  0  0  0  0  0  0  0
  -18.9482  -28.8658   23.2744 C   0  0  0  0  0  0  0  0  0  0  0  0
  -22.6124  -24.0971   22.1167 C   0  0  0  0  0  0  0  0  0  0  0  0
  -31.8524  -19.3801   22.1850 C   0  0  0  0  0  0  0  0  0  0  0  0
  -32.0556  -17.1404   21.3021 C   0  0  0  0  0  0  0  0  0  0  0  0
  -22.3309   -8.9352   22.1269 C   0  0  0  0  0  0  0  0  0  0  0  0
  -23.1072   -9.7953   24.2470 C   0  0  0  0  0  0  0  0  0  0  0  0
  -23.9982  -23.9486   22.1527 C   0  0  0  0  0  0  0  0  0  0  0  0
  -22.9150   -5.9635   23.6276 C   0  0  0  0  0  0  0  0  0  0  0  0
  -22.9781   -4.6585   23.1392 C   0  0  0  0  0  0  0  0  0  0  0  0
  -23.8380  -23.0508   24.3859 C   0  0  0  0  0  0  0  0  0  0  0  0
  -29.8737  -18.1477   21.5500 C   0  0  0  0  0  0  0  0  0  0  0  0
  -20.5906   -4.6814   22.7695 C   0  0  0  0  0  0  0  0  0  0  0  0
  -23.8272  -10.8311   22.1865 C   0  0  0  0  0  0  0  0  0  0  0  0
  -24.1608  -13.1302   21.1325 C   0  0  0  0  0  0  0  0  0  0  0  0
  -16.9750  -29.0444   24.6750 C   0  0  0  0  0  0  0  0  0  0  0  0
  -21.8287  -23.7331   23.2211 C   0  0  0  0  0  0  0  0  0  0  0  0
  -18.2619  -28.5192   24.4506 C   0  0  0  0  0  0  0  0  0  0  0  0
  -22.4422  -23.1933   24.3605 C   0  0  0  0  0  0  0  0  0  0  0  0
  -30.4655  -19.3051   22.0560 C   0  0  0  0  0  0  0  0  0  0  0  0
  -30.6687  -17.0654   21.1731 C   0  0  0  0  0  0  0  0  0  0  0  0
  -22.3497   -8.8766   23.5204 C   0  0  0  0  0  0  0  0  0  0  0  0
  -24.6115  -23.4281   23.2885 C   0  0  0  0  0  0  0  0  0  0  0  0
  -21.6897   -6.6274   23.6871 C   0  0  0  0  0  0  0  0  0  0  0  0
  -21.8160   -4.0174   22.7101 C   0  0  0  0  0  0  0  0  0  0  0  0
  -20.5275   -5.9864   23.2580 C   0  0  0  0  0  0  0  0  0  0  0  0
  -24.5909  -11.8405   21.4981 C   0  0  0  0  0  0  0  0  0  0  0  0
  -25.2481  -13.6906   20.5080 C   0  0  0  0  0  0  0  0  0  0  0  0
  -27.8037  -21.8214   22.8732 C   0  0  0  0  0  0  0  0  0  0  0  0
  -26.4965  -22.1013   22.8922 C   0  0  0  0  0  0  0  0  0  1  0  0
  -22.8919  -13.7648   21.3392 C   0  0  0  0  0  0  0  0  0  0  0  0
  -28.2746  -20.4957   22.3764 C   0  0  0  0  0  0  0  0  0  0  0  0
  -19.8811  -25.2831   25.1981 C   0  0  0  0  0  0  0  0  0  0  0  0
  -19.2839  -22.3002   26.3242 C   0  0  0  0  0  0  0  0  0  0  0  0
  -20.3490  -19.0804   26.7059 C   0  0  0  0  0  0  0  0  0  0  0  0
  -30.7124  -14.7263   20.2387 C   0  0  0  0  0  0  0  0  0  0  0  0
  -16.2065  -28.7481   25.9385 C   0  0  0  0  0  0  0  0  0  0  0  0
  -20.3326  -23.8747   23.1564 C   0  0  0  0  0  0  0  0  0  0  0  0
  -21.6440  -22.7683   25.5650 C   0  0  0  0  0  0  0  0  0  0  0  0
  -16.7305  -27.5329   26.6993 C   0  0  0  0  0  0  0  0  0  0  0  0
  -29.5881  -11.6044   18.9477 C   0  0  0  0  0  0  0  0  0  0  0  0
  -18.2506  -27.5888   26.8128 C   0  0  0  0  0  0  0  0  0  0  0  0
  -28.1524  -11.4936   19.4661 C   0  0  0  0  0  0  0  0  0  0  0  0
  -30.5111  -12.2640   19.9708 C   0  0  0  0  0  0  0  0  0  0  0  0
  -28.6120  -13.4505   20.9978 C   0  0  0  0  0  0  0  0  0  0  0  0
  -18.9086  -27.5617   25.4280 C   0  0  1  0  0  0  0  0  0  0  0  0
  -19.6795  -23.9509   24.5330 C   0  0  1  0  0  0  0  0  0  0  0  0
  -27.6313  -12.8513   19.9767 C   0  0  2  0  0  0  0  0  0  0  0  0
  -19.6599  -16.8826   27.7020 C   0  0  0  0  0  0  0  0  0  0  0  0
  -19.9720  -23.3481   29.1060 C   0  0  0  0  0  0  0  0  0  0  0  0
  -20.1957  -20.9740   29.8688 C   0  0  0  0  0  0  0  0  0  0  0  0
  -18.0011  -21.8106   29.0284 C   0  0  0  0  0  0  0  0  0  0  0  0
  -20.3871  -17.7405   24.0673 C   0  0  0  0  0  0  0  0  0  0  0  0
  -19.8877  -21.4196   27.3914 C   0  0  1  0  0  0  0  0  0  0  0  0
  -19.6552  -17.7536   26.4554 C   0  0  2  0  0  0  0  0  0  0  0  0
  -19.5296  -21.8978   28.8269 C   0  0  0  0  0  0  0  0  0  0  0  0
  -25.8530  -11.5959   21.1357 N   0  0  0  0  0  0  0  0  0  0  0  0
  -26.2253  -12.7395   20.5360 N   0  0  0  0  0  0  0  0  0  0  0  0
  -20.1850  -22.9323   25.4556 N   0  0  0  0  0  0  0  0  0  0  0  0
  -29.9554  -13.5474   20.4057 N   0  0  0  0  0  0  0  0  0  0  0  0
  -25.4542  -14.8992   19.9430 N   0  0  0  0  0  0  0  0  0  0  0  0
  -21.8850  -13.0465   21.9984 N   0  0  0  0  0  0  0  0  0  0  0  0
  -29.6588  -20.4049   22.4385 N   0  0  0  0  0  0  0  0  0  0  0  0
  -30.0682  -15.8895   20.6590 N   0  0  0  0  0  0  0  0  0  0  0  0
  -18.9084  -26.2164   24.8945 N   0  0  0  0  0  0  0  0  0  0  0  0
  -19.4565  -20.0588   27.0900 N   0  0  0  0  0  0  0  0  0  0  0  0
  -20.3395  -17.0100   25.3600 N   0  3  0  0  0  0  0  0  0  0  0  0
  -22.6524  -14.9283   20.9362 O   0  0  0  0  0  0  0  0  0  0  0  0
  -27.4831  -19.6478   21.9811 O   0  0  0  0  0  0  0  0  0  0  0  0
  -20.8468  -25.4513   25.9335 O   0  0  0  0  0  0  0  0  0  0  0  0
  -18.0577  -22.4171   26.2590 O   0  0  0  0  0  0  0  0  0  0  0  0
  -21.5618  -19.2327   26.5775 O   0  0  0  0  0  0  0  0  0  0  0  0
  -31.8376  -14.7089   19.7332 O   0  0  0  0  0  0  0  0  0  0  0  0
  -21.6288   -7.9233   24.1716 O   0  0  0  0  0  0  0  0  0  0  0  0
  -25.9640  -23.2826   23.3264 O   0  0  0  0  0  0  0  0  0  1  0  0
  -21.8769   -2.7648   22.2396 F   0  0  0  0  0  0  0  0  0  0  0  0
  -19.3477   -6.6195   23.3116 F   0  0  0  0  0  0  0  0  0  0  0  0
  1  2  1  0  0  0  0
  1  6  2  0  0  0  0
  2  7  2  0  0  0  0
  3  9  2  0  0  0  0
  3 10  1  0  0  0  0
  4 11  2  0  0  0  0
  4 19  1  0  0  0  0
  5 12  1  0  0  0  0
  5 19  2  0  0  0  0
  6 21  1  0  0  0  0
  7 23  1  0  0  0  0
  8 13  2  0  0  0  0
  8 22  1  0  0  0  0
  9 25  1  0  0  0  0
 10 26  2  0  0  0  0
 11 27  1  0  0  0  0
 12 27  2  0  0  0  0
 13 28  1  0  0  0  0
 14 15  2  0  0  0  0
 14 29  1  0  0  0  0
 15 30  1  0  0  0  0
 16 24  1  0  0  0  0
 16 28  2  0  0  0  0
 17 25  2  0  0  0  0
 17 26  1  0  0  0  0
 18 30  2  0  0  0  0
 18 31  1  0  0  0  0
 19 32  1  0  0  0  0
 20 32  1  0  0  0  0
 20 33  2  0  0  0  0
 20 36  1  0  0  0  0
 21 23  2  0  0  0  0
 21 42  1  0  0  0  0
 22 24  2  0  0  0  0
 22 43  1  0  0  0  0
 23 51  1  0  0  0  0
 24 44  1  0  0  0  0
 25 68  1  0  0  0  0
 26 69  1  0  0  0  0
 27 79  1  0  0  0  0
 28 80  1  0  0  0  0
 29 31  2  0  0  0  0
 29 79  1  0  0  0  0
 30 81  1  0  0  0  0
 31 82  1  0  0  0  0
 32 62  2  0  0  0  0
 33 63  1  0  0  0  0
 33 66  1  0  0  0  0
 34 35  2  0  0  0  0
 34 37  1  0  0  0  0
 35 80  1  0  0  0  0
 36 67  1  0  0  0  0
 36 73  2  0  0  0  0
 37 68  1  0  0  0  0
 37 74  2  0  0  0  0
 38 52  1  0  0  0  0
 38 70  1  0  0  0  0
 38 75  2  0  0  0  0
 39 59  1  0  0  0  0
 39 64  1  0  0  0  0
 39 76  2  0  0  0  0
 40 60  1  0  0  0  0
 40 71  1  0  0  0  0
 40 77  2  0  0  0  0
 41 65  1  0  0  0  0
 41 69  1  0  0  0  0
 41 78  2  0  0  0  0
 42 45  1  0  0  0  0
 43 52  1  0  0  0  0
 44 64  1  0  0  0  0
 45 47  1  0  0  0  0
 46 48  1  0  0  0  0
 46 49  1  0  0  0  0
 47 51  1  0  0  0  0
 48 53  1  0  0  0  0
 49 65  1  0  0  0  0
 50 53  1  0  0  0  0
 50 65  1  0  0  0  0
 51 70  1  0  0  0  0
 52 64  1  0  0  0  0
 53 63  1  0  0  0  0
 54 60  1  0  0  0  0
 55 61  1  0  0  0  0
 56 61  1  0  0  0  0
 57 61  1  0  0  0  0
 58 72  1  0  0  0  0
 59 61  1  0  0  0  0
 59 71  1  0  0  0  0
 60 72  1  0  0  0  0
 62 63  1  0  0  0  0
M  CHG  1  72   1
M  ISO  4  35 101  41 100  69 100  80 101
M  END
> <Batch ID>
0060

> <Smiles>
CNC(C)C(=O)NC(C(=O)N1Cc2cc([101O:1][101CH:1]=CC(=O)Nc3cccc([100NH:0][100C:0](=O)N4CCCC(n5nc(-c6ccc(Oc7ccc(F)cc7F)cc6)c(C(N)=O)c5N)C4)c3)ccc2CC1C(=O)NC1CCCc2ccccc21)C(C)(C)C

> <Shape>
0.193

> <Color>
0.175

> <Negative vol penalty>
0.000

$$$$

  -OEChem-04042323043D

 81 89  0     1  0  0  0  0  0999 V2000
  -25.9127  -21.9482   33.1333 C   0  0  0  0  0  0  0  0  0  0  0  0
  -26.2275  -21.6464   31.8122 C   0  0  0  0  0  0  0  0  0  0  0  0
  -23.0000   -9.8942   19.9811 C   0  0  0  0  0  0  0  0  0  0  0  0
  -23.7250   -9.9451   22.2852 C   0  0  0  0  0  0  0  0  0  0  0  0
  -24.7027  -21.5181   33.6761 C   0  0  0  0  0  0  0  0  0  0  0  0
  -25.3328  -20.9132   31.0335 C   0  0  0  0  0  0  0  0  0  0  0  0
  -24.7471  -22.8595   26.3952 C   0  0  0  0  0  0  0  0  0  0  0  0
  -31.8889  -17.2650   21.5551 C   0  0  0  0  0  0  0  0  0  0  0  0
  -22.2332   -8.7599   20.2473 C   0  0  0  0  0  0  0  0  0  0  0  0
  -22.9581   -8.8108   22.5515 C   0  0  0  0  0  0  0  0  0  0  0  0
  -25.7543  -22.6040   25.4656 C   0  0  0  0  0  0  0  0  0  0  0  0
  -23.2016   -5.4718   22.0797 C   0  0  0  0  0  0  0  0  0  0  0  0
  -32.3996  -18.4906   21.9825 C   0  0  0  0  0  0  0  0  0  0  0  0
  -23.7888   -4.4544   22.8319 C   0  0  0  0  0  0  0  0  0  0  0  0
  -24.4084  -20.8515   24.4980 C   0  0  0  0  0  0  0  0  0  0  0  0
  -29.8136  -17.7299   22.7015 C   0  0  0  0  0  0  0  0  0  0  0  0
  -22.0648   -4.6978   24.5069 C   0  0  0  0  0  0  0  0  0  0  0  0
  -23.7460  -10.4868   21.0000 C   0  0  0  0  0  0  0  0  0  0  0  0
  -24.1320  -13.0023   20.8240 C   0  0  0  0  0  0  0  0  0  0  0  0
  -23.7884  -20.7876   32.9008 C   0  0  0  0  0  0  0  0  0  0  0  0
  -23.5655  -22.1043   26.3900 C   0  0  0  0  0  0  0  0  0  0  0  0
  -24.1100  -20.4718   31.5669 C   0  0  0  0  0  0  0  0  0  0  0  0
  -23.3867  -21.1011   25.4269 C   0  0  0  0  0  0  0  0  0  0  0  0
  -30.3243  -18.9555   23.1290 C   0  0  0  0  0  0  0  0  0  0  0  0
  -30.5959  -16.8847   21.9145 C   0  0  0  0  0  0  0  0  0  0  0  0
  -22.2122   -8.2182   21.5325 C   0  0  0  0  0  0  0  0  0  0  0  0
  -25.5863  -21.5979   24.5187 C   0  0  0  0  0  0  0  0  0  0  0  0
  -22.0460   -6.1022   22.5411 C   0  0  0  0  0  0  0  0  0  0  0  0
  -23.2204   -4.0674   24.0454 C   0  0  0  0  0  0  0  0  0  0  0  0
  -31.6173  -19.3358   22.7695 C   0  0  0  0  0  0  0  0  0  0  0  0
  -21.4776   -5.7152   23.7547 C   0  0  0  0  0  0  0  0  0  0  0  0
  -24.5388  -11.6582   20.7255 C   0  0  0  0  0  0  0  0  0  0  0  0
  -25.2419  -13.7246   20.4597 C   0  0  0  0  0  0  0  0  0  0  0  0
  -28.8021  -20.6544   23.2781 C   0  0  0  0  0  0  0  0  0  0  0  0
  -22.8641  -13.5490   21.2104 C   0  0  0  0  0  0  0  0  0  0  0  0
  -22.1406  -20.1544   28.4566 C   0  0  0  0  0  0  0  0  0  0  0  0
  -19.7661  -20.1804   26.2468 C   0  0  0  0  0  0  0  0  0  0  0  0
  -18.8386  -20.6490   22.9961 C   0  0  0  0  0  0  0  0  0  0  0  0
  -30.7216  -14.6843   20.6944 C   0  0  0  0  0  0  0  0  0  0  0  0
  -22.5138  -20.3036   33.5455 C   0  0  0  0  0  0  0  0  0  0  0  0
  -22.4775  -22.4102   27.3825 C   0  0  0  0  0  0  0  0  0  0  0  0
  -22.1284  -20.2755   25.3661 C   0  0  0  0  0  0  0  0  0  0  0  0
  -21.4561  -19.8534   32.5411 C   0  0  0  0  0  0  0  0  0  0  0  0
  -29.6030  -12.2316   18.3683 C   0  0  0  0  0  0  0  0  0  0  0  0
  -22.0779  -18.9524   31.4788 C   0  0  0  0  0  0  0  0  0  0  0  0
  -28.1523  -11.9744   18.7823 C   0  0  0  0  0  0  0  0  0  0  0  0
  -30.5034  -12.4748   19.5782 C   0  0  0  0  0  0  0  0  0  0  0  0
  -28.5881  -13.2642   20.9115 C   0  0  0  0  0  0  0  0  0  0  0  0
  -23.1546  -19.6999   30.6829 C   0  0  1  0  0  0  0  0  0  0  0  0
  -21.5303  -21.2364   27.6114 C   0  0  1  0  0  0  0  0  0  0  0  0
  -27.6306  -13.0781   19.7232 C   0  0  2  0  0  0  0  0  0  0  0  0
  -16.8355  -20.5623   21.4870 C   0  0  0  0  0  0  0  0  0  0  0  0
  -19.8935  -17.1319   26.2569 C   0  0  0  0  0  0  0  0  0  0  0  0
  -18.6016  -17.1402   24.1124 C   0  0  0  0  0  0  0  0  0  0  0  0
  -17.5800  -18.0791   26.1855 C   0  0  0  0  0  0  0  0  0  0  0  0
  -19.0875  -23.5168   22.3086 C   0  0  0  0  0  0  0  0  0  0  0  0
  -27.9109  -21.6075   24.0166 C   0  0  0  0  0  0  0  0  0  1  0  0
  -19.4307  -19.3549   25.0282 C   0  0  1  0  0  0  0  0  0  0  0  0
  -17.7006  -21.4406   22.3774 C   0  0  2  0  0  0  0  0  0  0  0  0
  -18.9011  -17.9406   25.3978 C   0  0  0  0  0  0  0  0  0  0  0  0
  -25.8081  -11.5313   20.3294 N   0  0  0  0  0  0  0  0  0  0  0  0
  -29.5348  -19.8056   23.9217 N   0  0  0  0  0  0  0  0  0  0  0  0
  -26.2084  -12.8050   20.1759 N   0  0  0  0  0  0  0  0  0  0  0  0
  -21.0963  -20.6083   26.3618 N   0  0  0  0  0  0  0  0  0  0  0  0
  -29.9486  -13.5359   20.4215 N   0  0  0  0  0  0  0  0  0  0  0  0
  -25.4758  -15.0502   20.3577 N   0  0  0  0  0  0  0  0  0  0  0  0
  -21.8320  -12.6651   21.5538 N   0  0  0  0  0  0  0  0  0  0  0  0
  -30.0775  -15.6396   21.4799 N   0  0  0  0  0  0  0  0  0  0  0  0
  -22.5440  -20.5785   29.7084 N   0  0  0  0  0  0  0  0  0  0  0  0
  -18.5003  -20.1536   24.2376 N   0  0  0  0  0  0  0  0  0  0  0  0
  -18.2368  -22.5610   21.5538 N   0  3  0  0  0  0  0  0  0  0  0  0
  -22.6477  -14.7844   21.2341 O   0  0  0  0  0  0  0  0  0  0  0  0
  -22.2369  -19.0185   28.0071 O   0  0  0  0  0  0  0  0  0  0  0  0
  -18.8789  -20.4421   27.0629 O   0  0  0  0  0  0  0  0  0  0  0  0
  -19.9183  -20.4833   22.4327 O   0  0  0  0  0  0  0  0  0  0  0  0
  -31.8604  -14.8229   20.2405 O   0  0  0  0  0  0  0  0  0  0  0  0
  -21.4638   -7.1115   21.7928 O   0  0  0  0  0  0  0  0  0  0  0  0
  -26.5680  -21.3461   23.6106 O   0  0  0  0  0  0  0  0  0  1  0  0
  -23.7835   -3.0894   24.7669 F   0  0  0  0  0  0  0  0  0  0  0  0
  -32.1169  -20.5112   23.1764 F   0  0  0  0  0  0  0  0  0  0  0  0
  -20.3668   -6.3163   24.2025 F   0  0  0  0  0  0  0  0  0  0  0  0
  1  2  1  0  0  0  0
  1  5  2  0  0  0  0
  2  6  2  0  0  0  0
  3  9  2  0  0  0  0
  3 18  1  0  0  0  0
  4 10  1  0  0  0  0
  4 18  2  0  0  0  0
  5 20  1  0  0  0  0
  6 22  1  0  0  0  0
  7 11  2  0  0  0  0
  7 21  1  0  0  0  0
  8 13  2  0  0  0  0
  8 25  1  0  0  0  0
  9 26  1  0  0  0  0
 10 26  2  0  0  0  0
 11 27  1  0  0  0  0
 12 14  2  0  0  0  0
 12 28  1  0  0  0  0
 13 30  1  0  0  0  0
 14 29  1  0  0  0  0
 15 23  1  0  0  0  0
 15 27  2  0  0  0  0
 16 24  1  0  0  0  0
 16 25  2  0  0  0  0
 17 29  2  0  0  0  0
 17 31  1  0  0  0  0
 18 32  1  0  0  0  0
 19 32  1  0  0  0  0
 19 33  2  0  0  0  0
 19 35  1  0  0  0  0
 20 22  2  0  0  0  0
 20 40  1  0  0  0  0
 21 23  2  0  0  0  0
 21 41  1  0  0  0  0
 22 49  1  0  0  0  0
 23 42  1  0  0  0  0
 24 30  2  0  0  0  0
 24 62  1  0  0  0  0
 25 68  1  0  0  0  0
 26 77  1  0  0  0  0
 27 78  1  0  0  0  0
 28 31  2  0  0  0  0
 28 77  1  0  0  0  0
 29 79  1  0  0  0  0
 30 80  1  0  0  0  0
 31 81  1  0  0  0  0
 32 61  2  0  0  0  0
 33 63  1  0  0  0  0
 33 66  1  0  0  0  0
 34 57  1  0  0  0  0
 34 62  2  0  0  0  0
 35 67  1  0  0  0  0
 35 72  2  0  0  0  0
 36 50  1  0  0  0  0
 36 69  1  0  0  0  0
 36 73  2  0  0  0  0
 37 58  1  0  0  0  0
 37 64  1  0  0  0  0
 37 74  2  0  0  0  0
 38 59  1  0  0  0  0
 38 70  1  0  0  0  0
 38 75  2  0  0  0  0
 39 65  1  0  0  0  0
 39 68  1  0  0  0  0
 39 76  2  0  0  0  0
 40 43  1  0  0  0  0
 41 50  1  0  0  0  0
 42 64  1  0  0  0  0
 43 45  1  0  0  0  0
 44 46  1  0  0  0  0
 44 47  1  0  0  0  0
 45 49  1  0  0  0  0
 46 51  1  0  0  0  0
 47 65  1  0  0  0  0
 48 51  1  0  0  0  0
 48 65  1  0  0  0  0
 49 69  1  0  0  0  0
 50 64  1  0  0  0  0
 51 63  1  0  0  0  0
 52 59  1  0  0  0  0
 53 60  1  0  0  0  0
 54 60  1  0  0  0  0
 55 60  1  0  0  0  0
 56 71  1  0  0  0  0
 57 78  1  0  0  0  0
 58 60  1  0  0  0  0
 58 70  1  0  0  0  0
 59 71  1  0  0  0  0
 61 63  1  0  0  0  0
M  CHG  1  71   1
M  ISO  4  39 100  57 101  68 100  78 101
M  END
> <Batch ID>
0060

> <Smiles>
CNC(C)C(=O)NC(C(=O)N1Cc2cc([101O:1][101CH:1]=CNc3cc([100NH:0][100C:0](=O)N4CCCC(n5nc(-c6ccc(Oc7ccc(F)cc7F)cc6)c(C(N)=O)c5N)C4)ccc3F)ccc2CC1C(=O)NC1CCCc2ccccc21)C(C)(C)C

> <Shape>
0.178

> <Color>
0.202

> <Negative vol penalty>
0.000

$$$$

  -OEChem-04042323043D

 89 98  0     1  0  0  0  0  0999 V2000
  -23.3771   -7.8862   22.4318 C   0  0  0  0  0  0  0  0  0  0  0  0
  -24.2502   -8.9632   22.3173 C   0  0  0  0  0  0  0  0  0  0  0  0
  -24.5626  -27.4810   22.2100 C   0  0  0  0  0  0  0  0  0  0  0  0
  -24.7895  -25.2194   23.0288 C   0  0  0  0  0  0  0  0  0  0  0  0
  -22.0662   -8.0008   21.9709 C   0  0  0  0  0  0  0  0  0  0  0  0
  -23.8131  -10.1553   21.7408 C   0  0  0  0  0  0  0  0  0  0  0  0
  -25.2633  -14.2320   24.3719 C   0  0  0  0  0  0  0  0  0  0  0  0
  -23.3128  -27.5772   22.8219 C   0  0  0  0  0  0  0  0  0  0  0  0
  -23.5398  -25.3155   23.6408 C   0  0  0  0  0  0  0  0  0  0  0  0
  -26.5843  -14.6511   24.2198 C   0  0  0  0  0  0  0  0  0  0  0  0
  -20.1507  -26.5579   22.2006 C   0  0  0  0  0  0  0  0  0  0  0  0
  -19.1092  -27.1181   21.4610 C   0  0  0  0  0  0  0  0  0  0  0  0
  -25.8583  -16.3606   22.6804 C   0  0  0  0  0  0  0  0  0  0  0  0
  -31.1867  -16.2857   17.9124 C   0  0  0  0  0  0  0  0  0  0  0  0
  -30.1340  -18.1892   18.9639 C   0  0  0  0  0  0  0  0  0  0  0  0
  -18.8611  -28.8527   23.1244 C   0  0  0  0  0  0  0  0  0  0  0  0
  -25.3009  -26.3021   22.3134 C   0  0  0  0  0  0  0  0  0  0  0  0
  -27.7229  -27.0033   21.9261 C   0  0  0  0  0  0  0  0  0  0  0  0
  -21.6101   -9.1981   21.3972 C   0  0  0  0  0  0  0  0  0  0  0  0
  -24.2294  -14.8680   23.6697 C   0  0  0  0  0  0  0  0  0  0  0  0
  -22.4953  -10.2856   21.2705 C   0  0  0  0  0  0  0  0  0  0  0  0
  -24.5248  -15.9493   22.8272 C   0  0  0  0  0  0  0  0  0  0  0  0
  -31.3364  -17.0187   16.7352 C   0  0  0  0  0  0  0  0  0  0  0  0
  -30.8849  -18.3370   16.6723 C   0  0  0  0  0  0  0  0  0  0  0  0
  -30.5854  -16.8709   19.0268 C   0  0  0  0  0  0  0  0  0  0  0  0
  -30.2837  -18.9223   17.7867 C   0  0  0  0  0  0  0  0  0  0  0  0
  -22.8014  -26.4945   23.5373 C   0  0  0  0  0  0  0  0  0  0  0  0
  -26.8823  -15.7137   23.3718 C   0  0  0  0  0  0  0  0  0  0  0  0
  -20.5474  -27.1450   23.4021 C   0  0  0  0  0  0  0  0  0  0  0  0
  -18.4644  -28.2655   21.9229 C   0  0  0  0  0  0  0  0  0  0  0  0
  -19.9026  -28.2924   23.8640 C   0  0  0  0  0  0  0  0  0  0  0  0
  -26.5917  -26.2019   21.6810 C   0  0  0  0  0  0  0  0  0  0  0  0
  -28.6839  -26.5092   21.0783 C   0  0  0  0  0  0  0  0  0  0  0  0
  -31.3464  -15.1006   20.5905 C   0  0  0  0  0  0  0  0  0  0  0  0
  -27.8900  -28.0965   22.8386 C   0  0  0  0  0  0  0  0  0  0  0  0
  -22.1051  -13.9534   21.4893 C   0  0  0  0  0  0  0  0  0  0  0  0
  -20.9443  -16.9503   21.9291 C   0  0  0  0  0  0  0  0  0  0  0  0
  -22.3041  -20.2660   22.3467 C   0  0  0  0  0  0  0  0  0  0  0  0
  -29.1969  -20.9817   18.7675 C   0  0  0  0  0  0  0  0  0  0  0  0
  -20.1982   -9.2589   20.8704 C   0  0  0  0  0  0  0  0  0  0  0  0
  -22.8066  -14.4211   23.8652 C   0  0  0  0  0  0  0  0  0  0  0  0
  -23.4489  -16.6788   22.0665 C   0  0  0  0  0  0  0  0  0  0  0  0
  -30.9303  -14.1605   21.7074 C   0  0  0  0  0  0  0  0  0  0  0  0
  -19.7049  -10.6804   20.6128 C   0  0  0  0  0  0  0  0  0  0  0  0
  -30.1258  -14.8192   22.8034 C   0  0  0  0  0  0  0  0  0  0  0  0
  -28.3321  -24.1889   16.8466 C   0  0  0  0  0  0  0  0  0  0  0  0
  -20.7592  -11.4825   19.8566 C   0  0  0  0  0  0  0  0  0  0  0  0
  -28.6102  -25.2205   17.9375 C   0  0  0  0  0  0  0  0  0  0  0  0
  -29.0890  -22.8869   17.0767 C   0  0  0  0  0  0  0  0  0  0  0  0
  -28.1746  -23.1625   19.3884 C   0  0  0  0  0  0  0  0  0  0  0  0
  -29.4070  -16.5695   21.2035 C   0  0  0  0  0  0  0  0  0  0  0  0
  -22.0514  -11.6034   20.6735 C   0  0  1  0  0  0  0  0  0  0  0  0
  -21.8938  -14.8092   22.7061 C   0  0  1  0  0  0  0  0  0  0  0  0
  -28.7229  -24.5973   19.3429 C   0  0  2  0  0  0  0  0  0  0  0  0
  -28.9296  -15.5101   22.1858 C   0  0  2  0  0  0  0  0  0  1  0  0
  -31.9842  -16.3684   15.5564 C   0  0  0  0  0  0  0  0  0  0  0  0
  -21.3646  -22.2798   23.5127 C   0  0  0  0  0  0  0  0  0  0  0  0
  -19.8934  -17.7009   19.1647 C   0  0  0  0  0  0  0  0  0  0  0  0
  -20.4278  -20.0904   19.6869 C   0  0  0  0  0  0  0  0  0  0  0  0
  -18.7518  -18.8592   21.0645 C   0  0  0  0  0  0  0  0  0  0  0  0
  -24.7071  -20.5439   24.0519 C   0  0  0  0  0  0  0  0  0  0  0  0
  -21.2057  -18.3002   21.3059 C   0  0  1  0  0  0  0  0  0  0  0  0
  -22.3089  -21.0926   23.6200 C   0  0  2  0  0  0  0  0  0  0  0  0
  -31.0482  -19.1191   15.4066 C   0  0  0  0  0  0  0  0  0  0  0  0
  -20.0899  -18.7177   20.3068 C   0  0  0  0  0  0  0  0  0  0  0  0
  -26.8121  -25.2697   20.7503 N   0  0  0  0  0  0  0  0  0  0  0  0
  -28.0929  -25.4822   20.4030 N   0  0  0  0  0  0  0  0  0  0  0  0
  -30.4291  -16.1101   20.2482 N   0  0  0  0  0  0  0  0  0  0  0  0
  -22.0739  -16.2004   22.2861 N   0  0  0  0  0  0  0  0  0  0  0  0
  -28.8473  -22.3056   18.4052 N   0  0  0  0  0  0  0  0  0  0  0  0
  -29.9684  -26.8574   20.8520 N   0  0  0  0  0  0  0  0  0  0  0  0
  -28.3353  -27.8198   24.1384 N   0  0  0  0  0  0  0  0  0  0  0  0
  -29.8168  -20.2598   17.7441 N   0  0  0  0  0  0  0  0  0  0  0  0
  -21.9032  -12.6041   21.7085 N   0  0  0  0  0  0  0  0  0  0  0  0
  -21.3953  -19.2312   22.4130 N   0  0  0  0  0  0  0  0  0  0  0  0
  -23.6798  -21.6061   23.8991 N   0  3  0  0  0  0  0  0  0  0  0  0
  -32.4212  -14.8865   20.0230 O   0  0  0  0  0  0  0  0  0  0  0  0
  -27.6358  -29.2818   22.5161 O   0  0  0  0  0  0  0  0  0  0  0  0
  -22.4260  -14.4786   20.4296 O   0  0  0  0  0  0  0  0  0  0  0  0
  -19.7807  -16.5781   22.0997 O   0  0  0  0  0  0  0  0  0  0  0  0
  -23.0311  -20.5158   21.3877 O   0  0  0  0  0  0  0  0  0  0  0  0
  -28.9736  -20.5385   19.8960 O   0  0  0  0  0  0  0  0  0  0  0  0
  -21.5821  -26.5880   24.1348 O   0  0  0  0  0  0  0  0  0  0  0  0
  -28.1709  -16.1244   23.2211 O   0  0  0  0  0  0  0  0  0  1  0  0
  -17.4653  -28.8043   21.2118 F   0  0  0  0  0  0  0  0  0  0  0  0
  -20.2801  -28.8616   25.0169 F   0  0  0  0  0  0  0  0  0  0  0  0
  -31.6522  -18.4139   14.4076 F   0  0  0  0  0  0  0  0  0  0  0  0
  -29.8663  -19.5502   14.8803 F   0  0  0  0  0  0  0  0  0  0  0  0
  -31.8064  -20.2380   15.5812 F   0  0  0  0  0  0  0  0  0  0  0  0
  1  2  1  0  0  0  0
  1  5  2  0  0  0  0
  2  6  2  0  0  0  0
  3  8  2  0  0  0  0
  3 17  1  0  0  0  0
  4  9  1  0  0  0  0
  4 17  2  0  0  0  0
  5 19  1  0  0  0  0
  6 21  1  0  0  0  0
  7 10  2  0  0  0  0
  7 20  1  0  0  0  0
  8 27  1  0  0  0  0
  9 27  2  0  0  0  0
 10 28  1  0  0  0  0
 11 12  2  0  0  0  0
 11 29  1  0  0  0  0
 12 30  1  0  0  0  0
 13 22  1  0  0  0  0
 13 28  2  0  0  0  0
 14 23  2  0  0  0  0
 14 25  1  0  0  0  0
 15 25  2  0  0  0  0
 15 26  1  0  0  0  0
 16 30  2  0  0  0  0
 16 31  1  0  0  0  0
 17 32  1  0  0  0  0
 18 32  1  0  0  0  0
 18 33  2  0  0  0  0
 18 35  1  0  0  0  0
 19 21  2  0  0  0  0
 19 40  1  0  0  0  0
 20 22  2  0  0  0  0
 20 41  1  0  0  0  0
 21 52  1  0  0  0  0
 22 42  1  0  0  0  0
 23 24  1  0  0  0  0
 23 56  1  0  0  0  0
 24 26  2  0  0  0  0
 24 64  1  0  0  0  0
 25 68  1  0  0  0  0
 26 73  1  0  0  0  0
 27 83  1  0  0  0  0
 28 84  1  0  0  0  0
 29 31  2  0  0  0  0
 29 83  1  0  0  0  0
 30 85  1  0  0  0  0
 31 86  1  0  0  0  0
 32 66  2  0  0  0  0
 33 67  1  0  0  0  0
 33 71  1  0  0  0  0
 34 43  1  0  0  0  0
 34 68  1  0  0  0  0
 34 77  2  0  0  0  0
 35 72  1  0  0  0  0
 35 78  2  0  0  0  0
 36 53  1  0  0  0  0
 36 74  1  0  0  0  0
 36 79  2  0  0  0  0
 37 62  1  0  0  0  0
 37 69  1  0  0  0  0
 37 80  2  0  0  0  0
 38 63  1  0  0  0  0
 38 75  1  0  0  0  0
 38 81  2  0  0  0  0
 39 70  1  0  0  0  0
 39 73  1  0  0  0  0
 39 82  2  0  0  0  0
 40 44  1  0  0  0  0
 41 53  1  0  0  0  0
 42 69  1  0  0  0  0
 43 45  1  0  0  0  0
 44 47  1  0  0  0  0
 45 55  1  0  0  0  0
 46 48  1  0  0  0  0
 46 49  1  0  0  0  0
 47 52  1  0  0  0  0
 48 54  1  0  0  0  0
 49 70  1  0  0  0  0
 50 54  1  0  0  0  0
 50 70  1  0  0  0  0
 51 55  1  0  0  0  0
 51 68  1  0  0  0  0
 52 74  1  0  0  0  0
 53 69  1  0  0  0  0
 54 67  1  0  0  0  0
 55 84  1  0  0  0  0
 57 63  1  0  0  0  0
 58 65  1  0  0  0  0
 59 65  1  0  0  0  0
 60 65  1  0  0  0  0
 61 76  1  0  0  0  0
 62 65  1  0  0  0  0
 62 75  1  0  0  0  0
 63 76  1  0  0  0  0
 64 87  1  0  0  0  0
 64 88  1  0  0  0  0
 64 89  1  0  0  0  0
 66 67  1  0  0  0  0
M  CHG  1  76   1
M  ISO  4  39 100  55 101  73 100  84 101
M  END
> <Batch ID>
0060

> <Smiles>
CNC(C)C(=O)NC(C(=O)N1Cc2cc([101O:1][101CH:1]3CCC(=O)N(c4cc(C)c(C(F)(F)F)c([100NH:0][100C:0](=O)N5CCCC(n6nc(-c7ccc(Oc8ccc(F)cc8F)cc7)c(C(N)=O)c6N)C5)c4)C3)ccc2CC1C(=O)NC1CCCc2ccccc21)C(C)(C)C

> <Shape>
0.183

> <Color>
0.096

> <Negative vol penalty>
0.000

$$$$

  -OEChem-04042323043D

 86 94  0     1  0  0  0  0  0999 V2000
  -16.5804  -29.3304   23.7138 C   0  0  0  0  0  0  0  0  0  0  0  0
  -17.2447  -28.6028   22.7316 C   0  0  0  0  0  0  0  0  0  0  0  0
  -25.4518  -11.9151   21.7158 C   0  0  0  0  0  0  0  0  0  0  0  0
  -25.0164  -13.6156   23.3758 C   0  0  0  0  0  0  0  0  0  0  0  0
  -17.1908  -30.4455   24.2864 C   0  0  0  0  0  0  0  0  0  0  0  0
  -18.5196  -28.9905   22.3207 C   0  0  0  0  0  0  0  0  0  0  0  0
  -24.7036  -26.2435   19.9694 C   0  0  0  0  0  0  0  0  0  0  0  0
  -26.6714  -22.5856   22.6049 C   0  0  0  0  0  0  0  0  0  0  0  0
  -26.2616  -21.5028   21.8271 C   0  0  0  0  0  0  0  0  0  0  0  0
  -25.9164  -11.0592   22.7144 C   0  0  0  0  0  0  0  0  0  0  0  0
  -25.4810  -12.7597   24.3744 C   0  0  0  0  0  0  0  0  0  0  0  0
  -25.6141  -26.3805   18.9225 C   0  0  0  0  0  0  0  0  0  0  0  0
  -24.5902   -9.0437   25.0833 C   0  0  0  0  0  0  0  0  0  0  0  0
  -24.1536   -7.7193   25.0567 C   0  0  0  0  0  0  0  0  0  0  0  0
  -27.9511  -22.0419   20.1864 C   0  0  0  0  0  0  0  0  0  0  0  0
  -26.6025  -28.2770   20.0385 C   0  0  0  0  0  0  0  0  0  0  0  0
  -26.4406   -6.9695   24.8459 C   0  0  0  0  0  0  0  0  0  0  0  0
  -25.0018  -13.1934   22.0465 C   0  0  0  0  0  0  0  0  0  0  0  0
  -28.3609  -23.1248   20.9642 C   0  0  0  0  0  0  0  0  0  0  0  0
  -23.2008  -14.1987   20.5455 C   0  0  0  0  0  0  0  0  0  0  0  0
  -18.4777  -30.8414   23.8891 C   0  0  0  0  0  0  0  0  0  0  0  0
  -24.7288  -27.1304   21.0553 C   0  0  0  0  0  0  0  0  0  0  0  0
  -19.1473  -30.1127   22.8876 C   0  0  0  0  0  0  0  0  0  0  0  0
  -25.6929  -28.1475   21.0991 C   0  0  0  0  0  0  0  0  0  0  0  0
  -27.7211  -23.3967   22.1735 C   0  0  0  0  0  0  0  0  0  0  0  0
  -26.9014  -21.2309   20.6178 C   0  0  0  0  0  0  0  0  0  0  0  0
  -25.9310  -11.4815   24.0437 C   0  0  0  0  0  0  0  0  0  0  0  0
  -26.5619  -27.3992   18.9555 C   0  0  0  0  0  0  0  0  0  0  0  0
  -25.9521   -9.3311   24.9911 C   0  0  0  0  0  0  0  0  0  0  0  0
  -25.0787   -6.6821   24.9381 C   0  0  0  0  0  0  0  0  0  0  0  0
  -26.8772   -8.2940   24.8725 C   0  0  0  0  0  0  0  0  0  0  0  0
  -24.5223  -14.0781   21.0153 C   0  0  0  0  0  0  0  0  0  0  0  0
  -23.2689  -15.1665   19.5732 C   0  0  0  0  0  0  0  0  0  0  0  0
  -29.4747  -23.9715   20.4897 C   0  0  0  0  0  0  0  0  0  0  0  0
  -22.0173  -13.4986   20.9517 C   0  0  0  0  0  0  0  0  0  0  0  0
  -22.6845  -29.2324   22.2826 C   0  0  0  0  0  0  0  0  0  0  0  0
  -24.9373  -29.4812   24.6032 C   0  0  0  0  0  0  0  0  0  0  0  0
  -30.3048  -25.4667   18.6866 C   0  0  0  0  0  0  0  0  0  0  0  0
  -28.2054  -29.1229   25.5188 C   0  0  0  0  0  0  0  0  0  0  0  0
  -27.0121  -19.7221   18.6035 C   0  0  0  0  0  0  0  0  0  0  0  0
  -19.0776  -32.0815   24.5031 C   0  0  0  0  0  0  0  0  0  0  0  0
  -23.7569  -26.9526   22.1895 C   0  0  0  0  0  0  0  0  0  0  0  0
  -25.7750  -29.1132   22.2520 C   0  0  0  0  0  0  0  0  0  0  0  0
  -20.5825  -32.2052   24.2791 C   0  0  0  0  0  0  0  0  0  0  0  0
  -26.2885  -17.0476   16.3673 C   0  0  0  0  0  0  0  0  0  0  0  0
  -20.9307  -31.9185   22.8219 C   0  0  0  0  0  0  0  0  0  0  0  0
  -25.6277  -15.9960   17.2615 C   0  0  0  0  0  0  0  0  0  0  0  0
  -27.4093  -17.7876   17.0951 C   0  0  0  0  0  0  0  0  0  0  0  0
  -26.3678  -17.3255   19.2794 C   0  0  0  0  0  0  0  0  0  0  0  0
  -20.5412  -30.4872   22.4329 C   0  0  1  0  0  0  0  0  0  0  0  0
  -23.5430  -28.2282   22.9984 C   0  0  1  0  0  0  0  0  0  0  0  0
  -25.1895  -16.5986   18.6108 C   0  0  2  0  0  0  0  0  0  0  0  0
  -28.1421  -24.5497   23.0245 C   0  0  0  0  0  0  0  0  0  0  0  0
  -30.2083  -29.0746   27.0300 C   0  0  0  0  0  0  0  0  0  0  0  0
  -24.9187  -32.4945   24.1239 C   0  0  0  0  0  0  0  0  0  0  0  0
  -27.0865  -32.6356   25.3685 C   0  0  0  0  0  0  0  0  0  0  0  0
  -25.0343  -31.8216   26.5298 C   0  0  0  0  0  0  0  0  0  0  0  0
  -27.7601  -26.2799   26.2102 C   0  0  0  0  0  0  0  0  0  0  0  0
  -29.8465  -25.9907   17.3456 C   0  0  0  0  0  0  0  0  0  0  0  0
  -29.7625  -27.5123   17.2896 C   0  0  0  0  0  0  0  0  0  0  0  0
  -28.7302  -28.0810   18.2561 C   0  0  0  0  0  0  0  0  0  1  0  0
  -26.1602  -30.3399   24.8184 C   0  0  1  0  0  0  0  0  0  0  0  0
  -28.8464  -28.4684   26.7293 C   0  0  2  0  0  0  0  0  0  0  0  0
  -25.7974  -31.8061   25.1873 C   0  0  0  0  0  0  0  0  0  0  0  0
  -25.3682  -14.9032   20.3927 N   0  0  0  0  0  0  0  0  0  0  0  0
  -24.5763  -15.5515   19.5216 N   0  0  0  0  0  0  0  0  0  0  0  0
  -24.7990  -28.9022   23.3338 N   0  0  0  0  0  0  0  0  0  0  0  0
  -26.9198  -18.3350   18.3623 N   0  0  0  0  0  0  0  0  0  0  0  0
  -22.3375  -15.7171   18.7660 N   0  0  0  0  0  0  0  0  0  0  0  0
  -22.1250  -12.5361   21.9648 N   0  0  0  0  0  0  0  0  0  0  0  0
  -26.4848  -20.1307   19.8280 N   0  0  0  0  0  0  0  0  0  0  0  0
  -29.3336  -24.6006   19.3147 N   0  0  0  0  0  0  0  0  0  0  0  0
  -21.5116  -29.5429   22.9439 N   0  0  0  0  0  0  0  0  0  0  0  0
  -26.9692  -29.6543   25.8203 N   0  0  0  0  0  0  0  0  0  0  0  0
  -30.5589  -24.0590   21.2596 N   0  3  0  0  0  0  0  0  0  0  0  0
  -29.0237  -27.0073   26.4949 N   0  3  0  0  0  0  0  0  0  0  0  0
  -20.9006  -13.7083   20.4202 O   0  0  0  0  0  0  0  0  0  0  0  0
  -23.0593  -29.6925   21.2105 O   0  0  0  0  0  0  0  0  0  0  0  0
  -24.1381  -29.3241   25.5296 O   0  0  0  0  0  0  0  0  0  0  0  0
  -31.3847  -25.7020   19.2090 O   0  0  0  0  0  0  0  0  0  0  0  0
  -28.7487  -29.1624   24.4171 O   0  0  0  0  0  0  0  0  0  0  0  0
  -27.4967  -20.4944   17.7725 O   0  0  0  0  0  0  0  0  0  0  0  0
  -26.3841  -10.6465   25.0184 O   0  0  0  0  0  0  0  0  0  0  0  0
  -27.4513  -27.5356   17.9347 O   0  0  0  0  0  0  0  0  0  1  0  0
  -24.6594   -5.4102   24.9142 F   0  0  0  0  0  0  0  0  0  0  0  0
  -28.1869   -8.5638   24.7847 F   0  0  0  0  0  0  0  0  0  0  0  0
  1  2  1  0  0  0  0
  1  5  2  0  0  0  0
  2  6  2  0  0  0  0
  3 10  2  0  0  0  0
  3 18  1  0  0  0  0
  4 11  1  0  0  0  0
  4 18  2  0  0  0  0
  5 21  1  0  0  0  0
  6 23  1  0  0  0  0
  7 12  2  0  0  0  0
  7 22  1  0  0  0  0
  8  9  2  0  0  0  0
  8 25  1  0  0  0  0
  9 26  1  0  0  0  0
 10 27  1  0  0  0  0
 11 27  2  0  0  0  0
 12 28  1  0  0  0  0
 13 14  2  0  0  0  0
 13 29  1  0  0  0  0
 14 30  1  0  0  0  0
 15 19  1  0  0  0  0
 15 26  2  0  0  0  0
 16 24  1  0  0  0  0
 16 28  2  0  0  0  0
 17 30  2  0  0  0  0
 17 31  1  0  0  0  0
 18 32  1  0  0  0  0
 19 25  2  0  0  0  0
 19 34  1  0  0  0  0
 20 32  1  0  0  0  0
 20 33  2  0  0  0  0
 20 35  1  0  0  0  0
 21 23  2  0  0  0  0
 21 41  1  0  0  0  0
 22 24  2  0  0  0  0
 22 42  1  0  0  0  0
 23 50  1  0  0  0  0
 24 43  1  0  0  0  0
 25 53  1  0  0  0  0
 26 71  1  0  0  0  0
 27 83  1  0  0  0  0
 28 84  1  0  0  0  0
 29 31  2  0  0  0  0
 29 83  1  0  0  0  0
 30 85  1  0  0  0  0
 31 86  1  0  0  0  0
 32 65  2  0  0  0  0
 33 66  1  0  0  0  0
 33 69  1  0  0  0  0
 34 72  1  0  0  0  0
 34 75  2  0  0  0  0
 35 70  1  0  0  0  0
 35 77  2  0  0  0  0
 36 51  1  0  0  0  0
 36 73  1  0  0  0  0
 36 78  2  0  0  0  0
 37 62  1  0  0  0  0
 37 67  1  0  0  0  0
 37 79  2  0  0  0  0
 38 59  1  0  0  0  0
 38 72  1  0  0  0  0
 38 80  2  0  0  0  0
 39 63  1  0  0  0  0
 39 74  1  0  0  0  0
 39 81  2  0  0  0  0
 40 68  1  0  0  0  0
 40 71  1  0  0  0  0
 40 82  2  0  0  0  0
 41 44  1  0  0  0  0
 42 51  1  0  0  0  0
 43 67  1  0  0  0  0
 44 46  1  0  0  0  0
 45 47  1  0  0  0  0
 45 48  1  0  0  0  0
 46 50  1  0  0  0  0
 47 52  1  0  0  0  0
 48 68  1  0  0  0  0
 49 52  1  0  0  0  0
 49 68  1  0  0  0  0
 50 73  1  0  0  0  0
 51 67  1  0  0  0  0
 52 66  1  0  0  0  0
 54 63  1  0  0  0  0
 55 64  1  0  0  0  0
 56 64  1  0  0  0  0
 57 64  1  0  0  0  0
 58 76  1  0  0  0  0
 59 60  1  0  0  0  0
 60 61  1  0  0  0  0
 61 84  1  0  0  0  0
 62 64  1  0  0  0  0
 62 74  1  0  0  0  0
 63 76  1  0  0  0  0
 65 66  1  0  0  0  0
M  CHG  2  75   1  76   1
M  ISO  4  40 100  61 101  71 100  84 101
M  END
> <Batch ID>
0060

> <Smiles>
CNC(C)C(=O)NC(C(=O)N1Cc2cc([101O:1][101CH2:1]CCC(=O)NC(=N)c3cc([100NH:0][100C:0](=O)N4CCCC(n5nc(-c6ccc(Oc7ccc(F)cc7F)cc6)c(C(N)=O)c5N)C4)ccc3C)ccc2CC1C(=O)NC1CCCc2ccccc21)C(C)(C)C

> <Shape>
0.231

> <Color>
0.088

> <Negative vol penalty>
0.000

$$$$

  -OEChem-04042323043D

 86 94  0     1  0  0  0  0  0999 V2000
  -30.8941  -24.7346   14.7397 C   0  0  0  0  0  0  0  0  0  0  0  0
  -29.5370  -24.7733   15.0433 C   0  0  0  0  0  0  0  0  0  0  0  0
  -24.2206  -12.4226   21.3888 C   0  0  0  0  0  0  0  0  0  0  0  0
  -25.0794  -14.3423   20.1997 C   0  0  0  0  0  0  0  0  0  0  0  0
  -17.2610  -23.0572   20.5930 C   0  0  0  0  0  0  0  0  0  0  0  0
  -31.8388  -24.8594   15.7575 C   0  0  0  0  0  0  0  0  0  0  0  0
  -29.1238  -24.9359   16.3651 C   0  0  0  0  0  0  0  0  0  0  0  0
  -24.1838  -27.9757   18.3305 C   0  0  0  0  0  0  0  0  0  0  0  0
  -17.3758  -21.6676   20.5580 C   0  0  0  0  0  0  0  0  0  0  0  0
  -25.2385  -11.6345   20.8518 C   0  0  0  0  0  0  0  0  0  0  0  0
  -26.0974  -13.5543   19.6626 C   0  0  0  0  0  0  0  0  0  0  0  0
  -22.9109  -27.5517   18.7093 C   0  0  0  0  0  0  0  0  0  0  0  0
  -29.0647  -12.2922   20.6738 C   0  0  0  0  0  0  0  0  0  0  0  0
  -30.3578  -12.8153   20.6779 C   0  0  0  0  0  0  0  0  0  0  0  0
  -23.6052  -27.5513   21.0196 C   0  0  0  0  0  0  0  0  0  0  0  0
  -19.1157  -21.7691   22.2311 C   0  0  0  0  0  0  0  0  0  0  0  0
  -30.4304  -12.6544   18.2683 C   0  0  0  0  0  0  0  0  0  0  0  0
  -24.1410  -13.7765   21.0628 C   0  0  0  0  0  0  0  0  0  0  0  0
  -18.0737  -23.8029   21.4470 C   0  0  0  0  0  0  0  0  0  0  0  0
  -23.1240  -15.3210   22.8199 C   0  0  0  0  0  0  0  0  0  0  0  0
  -31.4369  -25.0333   17.0913 C   0  0  0  0  0  0  0  0  0  0  0  0
  -25.1819  -28.1805   19.2939 C   0  0  0  0  0  0  0  0  0  0  0  0
  -30.0639  -25.0619   17.4019 C   0  0  0  0  0  0  0  0  0  0  0  0
  -24.8893  -27.9803   20.6506 C   0  0  0  0  0  0  0  0  0  0  0  0
  -19.0010  -23.1588   22.2661 C   0  0  0  0  0  0  0  0  0  0  0  0
  -18.3031  -21.0235   21.3771 C   0  0  0  0  0  0  0  0  0  0  0  0
  -26.1769  -12.2003   19.9887 C   0  0  0  0  0  0  0  0  0  0  0  0
  -22.6222  -27.3367   20.0538 C   0  0  0  0  0  0  0  0  0  0  0  0
  -28.4545  -11.9502   19.4670 C   0  0  0  0  0  0  0  0  0  0  0  0
  -31.0406  -12.9964   19.4751 C   0  0  0  0  0  0  0  0  0  0  0  0
  -29.1373  -12.1313   18.2643 C   0  0  0  0  0  0  0  0  0  0  0  0
  -23.0894  -14.5909   21.6168 C   0  0  0  0  0  0  0  0  0  0  0  0
  -21.8901  -15.9198   22.8937 C   0  0  0  0  0  0  0  0  0  0  0  0
  -17.9304  -25.2815   21.4630 C   0  0  0  0  0  0  0  0  0  0  0  0
  -24.1772  -15.4468   23.7845 C   0  0  0  0  0  0  0  0  0  0  0  0
  -28.0296  -26.8964   19.8816 C   0  0  0  0  0  0  0  0  0  0  0  0
  -28.1883  -29.2353   22.1236 C   0  0  0  0  0  0  0  0  0  0  0  0
  -26.5287  -31.4051   24.1693 C   0  0  0  0  0  0  0  0  0  0  0  0
  -20.4744  -27.9608   20.7014 C   0  0  0  0  0  0  0  0  0  1  0  0
  -17.6889  -18.7242   20.5510 C   0  0  0  0  0  0  0  0  0  0  0  0
  -32.4946  -25.1164   18.1632 C   0  0  0  0  0  0  0  0  0  0  0  0
  -26.5422  -28.6636   18.8714 C   0  0  0  0  0  0  0  0  0  0  0  0
  -25.9197  -28.2055   21.7257 C   0  0  0  0  0  0  0  0  0  0  0  0
  -31.9747  -25.6612   19.4910 C   0  0  0  0  0  0  0  0  0  0  0  0
  -17.7034  -15.1870   20.1448 C   0  0  0  0  0  0  0  0  0  0  0  0
  -30.6610  -24.9839   19.8683 C   0  0  0  0  0  0  0  0  0  0  0  0
  -19.1088  -14.7767   20.5905 C   0  0  0  0  0  0  0  0  0  0  0  0
  -17.7113  -16.5214   19.4011 C   0  0  0  0  0  0  0  0  0  0  0  0
  -19.7718  -17.2152   20.5597 C   0  0  0  0  0  0  0  0  0  0  0  0
  -29.5764  -25.2616   18.8205 C   0  0  1  0  0  0  0  0  0  0  0  0
  -27.6324  -28.3454   19.8901 C   0  0  1  0  0  0  0  0  0  0  0  0
  -19.8059  -15.9090   21.3698 C   0  0  2  0  0  0  0  0  0  0  0  0
  -19.8843  -23.9336   23.1888 C   0  0  0  0  0  0  0  0  0  0  0  0
  -26.9280  -33.1635   25.9145 C   0  0  0  0  0  0  0  0  0  0  0  0
  -18.7846  -27.9657   22.5234 C   0  0  0  0  0  0  0  0  0  0  0  0
  -18.0577  -27.9613   20.1123 C   0  0  0  0  0  0  0  0  0  0  0  0
  -28.8162  -27.0596   24.1686 C   0  0  0  0  0  0  0  0  0  0  0  0
  -28.2667  -28.6997   25.9787 C   0  0  0  0  0  0  0  0  0  0  0  0
  -30.1639  -29.1509   24.4232 C   0  0  0  0  0  0  0  0  0  0  0  0
  -25.2217  -33.4939   22.5299 C   0  0  0  0  0  0  0  0  0  0  0  0
  -27.7908  -29.3536   23.5751 C   0  0  1  0  0  0  0  0  0  0  0  0
  -26.7210  -32.8875   24.4333 C   0  0  2  0  0  0  0  0  0  0  0  0
  -19.0907  -27.4471   21.1164 C   0  0  0  0  0  0  0  0  0  0  0  0
  -28.7403  -28.5598   24.5162 C   0  0  0  0  0  0  0  0  0  0  0  0
  -21.9257  -14.7132   20.9727 N   0  0  0  0  0  0  0  0  0  0  0  0
  -21.2175  -15.5270   21.7741 N   0  0  0  0  0  0  0  0  0  0  0  0
  -27.2368  -28.6717   21.2617 N   0  0  0  0  0  0  0  0  0  0  0  0
  -18.3838  -17.5470   20.2016 N   0  0  0  0  0  0  0  0  0  0  0  0
  -21.3256  -16.7387   23.8065 N   0  0  0  0  0  0  0  0  0  0  0  0
  -25.3797  -14.7648   23.5535 N   0  0  0  0  0  0  0  0  0  0  0  0
  -18.4189  -19.6118   21.3409 N   0  0  0  0  0  0  0  0  0  0  0  0
  -19.0643  -25.9992   21.1232 N   0  0  0  0  0  0  0  0  0  0  0  0
  -29.0406  -26.5954   18.9890 N   0  0  0  0  0  0  0  0  0  0  0  0
  -27.7202  -30.7819   23.8640 N   0  0  0  0  0  0  0  0  0  0  0  0
  -25.5284  -33.6544   23.9746 N   0  3  0  0  0  0  0  0  0  0  0  0
  -16.8540  -25.7766   21.7866 O   0  0  0  0  0  0  0  0  0  0  0  0
  -24.0498  -16.1301   24.8287 O   0  0  0  0  0  0  0  0  0  0  0  0
  -27.4621  -26.1099   20.6306 O   0  0  0  0  0  0  0  0  0  0  0  0
  -29.2992  -29.6350   21.7663 O   0  0  0  0  0  0  0  0  0  0  0  0
  -25.4318  -30.8542   24.2315 O   0  0  0  0  0  0  0  0  0  0  0  0
  -20.7495  -29.1546   20.6221 O   0  0  0  0  0  0  0  0  0  0  0  0
  -16.5222  -18.9175   20.1998 O   0  0  0  0  0  0  0  0  0  0  0  0
  -27.1704  -11.4317   19.4647 O   0  0  0  0  0  0  0  0  0  0  0  0
  -21.3807  -26.9222   20.4263 O   0  0  0  0  0  0  0  0  0  1  0  0
  -32.2817  -13.5002   19.4790 F   0  0  0  0  0  0  0  0  0  0  0  0
  -28.5558  -11.8056   17.1017 F   0  0  0  0  0  0  0  0  0  0  0  0
  1  2  1  0  0  0  0
  1  6  2  0  0  0  0
  2  7  2  0  0  0  0
  3 10  2  0  0  0  0
  3 18  1  0  0  0  0
  4 11  1  0  0  0  0
  4 18  2  0  0  0  0
  5  9  2  0  0  0  0
  5 19  1  0  0  0  0
  6 21  1  0  0  0  0
  7 23  1  0  0  0  0
  8 12  2  0  0  0  0
  8 22  1  0  0  0  0
  9 26  1  0  0  0  0
 10 27  1  0  0  0  0
 11 27  2  0  0  0  0
 12 28  1  0  0  0  0
 13 14  2  0  0  0  0
 13 29  1  0  0  0  0
 14 30  1  0  0  0  0
 15 24  1  0  0  0  0
 15 28  2  0  0  0  0
 16 25  1  0  0  0  0
 16 26  2  0  0  0  0
 17 30  2  0  0  0  0
 17 31  1  0  0  0  0
 18 32  1  0  0  0  0
 19 25  2  0  0  0  0
 19 34  1  0  0  0  0
 20 32  1  0  0  0  0
 20 33  2  0  0  0  0
 20 35  1  0  0  0  0
 21 23  2  0  0  0  0
 21 41  1  0  0  0  0
 22 24  2  0  0  0  0
 22 42  1  0  0  0  0
 23 50  1  0  0  0  0
 24 43  1  0  0  0  0
 25 53  1  0  0  0  0
 26 71  1  0  0  0  0
 27 83  1  0  0  0  0
 28 84  1  0  0  0  0
 29 31  2  0  0  0  0
 29 83  1  0  0  0  0
 30 85  1  0  0  0  0
 31 86  1  0  0  0  0
 32 65  2  0  0  0  0
 33 66  1  0  0  0  0
 33 69  1  0  0  0  0
 34 72  1  0  0  0  0
 34 76  2  0  0  0  0
 35 70  1  0  0  0  0
 35 77  2  0  0  0  0
 36 51  1  0  0  0  0
 36 73  1  0  0  0  0
 36 78  2  0  0  0  0
 37 61  1  0  0  0  0
 37 67  1  0  0  0  0
 37 79  2  0  0  0  0
 38 62  1  0  0  0  0
 38 74  1  0  0  0  0
 38 80  2  0  0  0  0
 39 63  1  0  0  0  0
 39 81  2  0  0  0  0
 39 84  1  0  0  0  0
 40 68  1  0  0  0  0
 40 71  1  0  0  0  0
 40 82  2  0  0  0  0
 41 44  1  0  0  0  0
 42 51  1  0  0  0  0
 43 67  1  0  0  0  0
 44 46  1  0  0  0  0
 45 47  1  0  0  0  0
 45 48  1  0  0  0  0
 46 50  1  0  0  0  0
 47 52  1  0  0  0  0
 48 68  1  0  0  0  0
 49 52  1  0  0  0  0
 49 68  1  0  0  0  0
 50 73  1  0  0  0  0
 51 67  1  0  0  0  0
 52 66  1  0  0  0  0
 54 62  1  0  0  0  0
 55 63  1  0  0  0  0
 56 63  1  0  0  0  0
 57 64  1  0  0  0  0
 58 64  1  0  0  0  0
 59 64  1  0  0  0  0
 60 75  1  0  0  0  0
 61 64  1  0  0  0  0
 61 74  1  0  0  0  0
 62 75  1  0  0  0  0
 63 72  1  0  0  0  0
 65 66  1  0  0  0  0
M  CHG  1  75   1
M  ISO  4  39 101  40 100  71 100  84 101
M  END
> <Batch ID>
0060

> <Smiles>
CNC(C)C(=O)NC(C(=O)N1Cc2cc([101O:1][101C:1](=O)C(C)(C)NC(=O)c3ccc([100NH:0][100C:0](=O)N4CCCC(n5nc(-c6ccc(Oc7ccc(F)cc7F)cc6)c(C(N)=O)c5N)C4)cc3C)ccc2CC1C(=O)NC1CCCc2ccccc21)C(C)(C)C

> <Shape>
0.245

> <Color>
0.080

> <Negative vol penalty>
0.000

$$$$

  -OEChem-04042323043D

 85 94  0     1  0  0  0  0  0999 V2000
  -31.0059  -23.9176   14.3380 C   0  0  0  0  0  0  0  0  0  0  0  0
  -29.8802  -23.5741   15.0797 C   0  0  0  0  0  0  0  0  0  0  0  0
  -19.2684  -21.7124   24.0751 C   0  0  0  0  0  0  0  0  0  0  0  0
  -30.7738  -18.1223   21.6267 C   0  0  0  0  0  0  0  0  0  0  0  0
  -28.5475  -17.6997   20.7889 C   0  0  0  0  0  0  0  0  0  0  0  0
  -31.9089  -24.8552   14.8374 C   0  0  0  0  0  0  0  0  0  0  0  0
  -29.6574  -24.1672   16.3219 C   0  0  0  0  0  0  0  0  0  0  0  0
  -24.8528  -25.6455   16.9350 C   0  0  0  0  0  0  0  0  0  0  0  0
  -19.0370  -21.7576   22.7003 C   0  0  0  0  0  0  0  0  0  0  0  0
  -20.5361  -21.3885   24.5586 C   0  0  0  0  0  0  0  0  0  0  0  0
  -31.2443  -17.0022   20.9415 C   0  0  0  0  0  0  0  0  0  0  0  0
  -29.0180  -16.5796   20.1036 C   0  0  0  0  0  0  0  0  0  0  0  0
  -23.9180  -24.6592   17.2463 C   0  0  0  0  0  0  0  0  0  0  0  0
  -29.8388  -13.3802   20.8257 C   0  0  0  0  0  0  0  0  0  0  0  0
  -29.0854  -12.2090   20.9037 C   0  0  0  0  0  0  0  0  0  0  0  0
  -24.0235  -25.3009   19.5693 C   0  0  0  0  0  0  0  0  0  0  0  0
  -21.3408  -21.1550   22.2926 C   0  0  0  0  0  0  0  0  0  0  0  0
  -28.8071  -12.2282   18.5039 C   0  0  0  0  0  0  0  0  0  0  0  0
  -29.4254  -18.4710   21.5505 C   0  0  0  0  0  0  0  0  0  0  0  0
  -29.3555  -20.9623   22.0949 C   0  0  0  0  0  0  0  0  0  0  0  0
  -31.6920  -25.4673   16.0820 C   0  0  0  0  0  0  0  0  0  0  0  0
  -25.3891  -26.4611   17.9418 C   0  0  0  0  0  0  0  0  0  0  0  0
  -30.5590  -25.1129   16.8390 C   0  0  0  0  0  0  0  0  0  0  0  0
  -24.9631  -26.2986   19.2678 C   0  0  0  0  0  0  0  0  0  0  0  0
  -20.0731  -21.4789   21.8091 C   0  0  0  0  0  0  0  0  0  0  0  0
  -21.5723  -21.1098   23.6674 C   0  0  0  0  0  0  0  0  0  0  0  0
  -30.3664  -16.2308   20.1799 C   0  0  0  0  0  0  0  0  0  0  0  0
  -23.5053  -24.4848   18.5641 C   0  0  0  0  0  0  0  0  0  0  0  0
  -30.0764  -13.9756   19.5868 C   0  0  0  0  0  0  0  0  0  0  0  0
  -28.5695  -11.6330   19.7428 C   0  0  0  0  0  0  0  0  0  0  0  0
  -29.5605  -13.3995   18.4259 C   0  0  0  0  0  0  0  0  0  0  0  0
  -28.9386  -19.6277   22.2586 C   0  0  0  0  0  0  0  0  0  0  0  0
  -28.5951  -21.6720   22.9919 C   0  0  0  0  0  0  0  0  0  0  0  0
  -20.5494  -22.7934   18.5143 C   0  0  0  0  0  0  0  0  0  0  0  0
  -18.5653  -21.2280   19.8485 C   0  0  0  0  0  0  0  0  0  0  0  0
  -30.3418  -21.5115   21.2110 C   0  0  0  0  0  0  0  0  0  0  0  0
  -28.3037  -26.9638   19.1063 C   0  0  0  0  0  0  0  0  0  0  0  0
  -26.7997  -29.2767   20.8124 C   0  0  0  0  0  0  0  0  0  0  0  0
  -23.6828  -29.6279   22.5953 C   0  0  0  0  0  0  0  0  0  0  0  0
  -23.2574  -20.6923   25.4928 C   0  0  0  0  0  0  0  0  0  0  0  0
  -32.7207  -26.4401   16.6016 C   0  0  0  0  0  0  0  0  0  0  0  0
  -26.3767  -27.5383   17.5856 C   0  0  0  0  0  0  0  0  0  0  0  0
  -25.4933  -27.1616   20.3825 C   0  0  0  0  0  0  0  0  0  0  0  0
  -19.1568  -22.7476   17.9418 C   0  0  0  0  0  0  0  0  0  0  0  0
  -20.9596  -21.7049   19.4725 C   0  0  0  0  0  0  0  0  0  0  0  0
  -18.4764  -21.4506   18.3468 C   0  0  0  0  0  0  0  0  0  0  0  0
  -32.2166  -27.2998   17.7580 C   0  0  0  0  0  0  0  0  0  0  0  0
  -26.3447  -21.1986   27.1926 C   0  0  0  0  0  0  0  0  0  0  0  0
  -31.4983  -26.4372   18.7908 C   0  0  0  0  0  0  0  0  0  0  0  0
  -27.3980  -20.9807   26.1040 C   0  0  0  0  0  0  0  0  0  0  0  0
  -25.1579  -20.2503   27.0316 C   0  0  0  0  0  0  0  0  0  0  0  0
  -25.5855  -20.0410   24.6144 C   0  0  0  0  0  0  0  0  0  0  0  0
  -30.2698  -25.7528   18.1795 C   0  0  1  0  0  0  0  0  0  0  0  0
  -27.2412  -27.9703   18.7660 C   0  0  1  0  0  0  0  0  0  0  0  0
  -26.7700  -21.0175   24.6969 C   0  0  2  0  0  0  0  0  0  0  0  0
  -22.3111  -31.6686   23.0968 C   0  0  0  0  0  0  0  0  0  0  0  0
  -28.3403  -29.3102   23.4459 C   0  0  0  0  0  0  0  0  0  0  0  0
  -26.2303  -30.0208   24.5908 C   0  0  0  0  0  0  0  0  0  0  0  0
  -27.2529  -31.4809   22.8458 C   0  0  0  0  0  0  0  0  0  0  0  0
  -21.2675  -28.4517   21.3535 C   0  0  0  0  0  0  0  0  0  0  0  0
  -26.1063  -29.3371   22.1519 C   0  0  1  0  0  0  0  0  0  0  0  0
  -22.4882  -30.4678   22.1805 C   0  0  2  0  0  0  0  0  0  0  0  0
  -26.9833  -30.0133   23.2433 C   0  0  0  0  0  0  0  0  0  0  0  0
  -27.9874  -19.4947   23.1867 N   0  0  0  0  0  0  0  0  0  0  0  0
  -21.3799  -23.7298   18.1912 N   0  0  0  0  0  0  0  0  0  1  0  0
  -27.8002  -20.7550   23.6144 N   0  0  0  0  0  0  0  0  0  0  0  0
  -19.8338  -21.5262   20.3914 N   0  0  0  0  0  0  0  0  0  0  0  0
  -26.4616  -28.1968   19.9846 N   0  0  0  0  0  0  0  0  0  0  0  0
  -24.6121  -20.3427   25.6757 N   0  0  0  0  0  0  0  0  0  0  0  0
  -28.5356  -22.9847   23.3012 N   0  0  0  0  0  0  0  0  0  0  0  0
  -29.9370  -21.9316   19.9366 N   0  0  0  0  0  0  0  0  0  0  0  0
  -22.8598  -20.7809   24.1592 N   0  0  0  0  0  0  0  0  0  0  0  0
  -29.1726  -26.6899   18.0673 N   0  0  0  0  0  0  0  0  0  0  0  0
  -24.8265  -29.9978   21.9197 N   0  0  0  0  0  0  0  0  0  0  0  0
  -21.2411  -29.6532   22.2268 N   0  3  0  0  0  0  0  0  0  0  0  0
  -17.5929  -20.7827   20.4574 O   0  0  0  0  0  0  0  0  0  0  0  0
  -31.5494  -21.6111   21.5354 O   0  0  0  0  0  0  0  0  0  0  0  0
  -28.3339  -26.4733   20.2289 O   0  0  0  0  0  0  0  0  0  0  0  0
  -27.6062  -30.1593   20.5086 O   0  0  0  0  0  0  0  0  0  0  0  0
  -23.6095  -28.7356   23.4373 O   0  0  0  0  0  0  0  0  0  0  0  0
  -22.5125  -20.9246   26.4484 O   0  0  0  0  0  0  0  0  0  0  0  0
  -30.8253  -15.1379   19.5109 O   0  0  0  0  0  0  0  0  0  0  0  0
  -22.5934  -23.5224   18.8708 O   0  0  0  0  0  0  0  0  0  1  0  0
  -27.8473  -10.5074   19.8177 F   0  0  0  0  0  0  0  0  0  0  0  0
  -29.7864  -13.9662   17.2327 F   0  0  0  0  0  0  0  0  0  0  0  0
  1  2  1  0  0  0  0
  1  6  2  0  0  0  0
  2  7  2  0  0  0  0
  3  9  2  0  0  0  0
  3 10  1  0  0  0  0
  4 11  2  0  0  0  0
  4 19  1  0  0  0  0
  5 12  1  0  0  0  0
  5 19  2  0  0  0  0
  6 21  1  0  0  0  0
  7 23  1  0  0  0  0
  8 13  2  0  0  0  0
  8 22  1  0  0  0  0
  9 25  1  0  0  0  0
 10 26  2  0  0  0  0
 11 27  1  0  0  0  0
 12 27  2  0  0  0  0
 13 28  1  0  0  0  0
 14 15  2  0  0  0  0
 14 29  1  0  0  0  0
 15 30  1  0  0  0  0
 16 24  1  0  0  0  0
 16 28  2  0  0  0  0
 17 25  2  0  0  0  0
 17 26  1  0  0  0  0
 18 30  2  0  0  0  0
 18 31  1  0  0  0  0
 19 32  1  0  0  0  0
 20 32  1  0  0  0  0
 20 33  2  0  0  0  0
 20 36  1  0  0  0  0
 21 23  2  0  0  0  0
 21 41  1  0  0  0  0
 22 24  2  0  0  0  0
 22 42  1  0  0  0  0
 23 53  1  0  0  0  0
 24 43  1  0  0  0  0
 25 67  1  0  0  0  0
 26 72  1  0  0  0  0
 27 82  1  0  0  0  0
 28 83  1  0  0  0  0
 29 31  2  0  0  0  0
 29 82  1  0  0  0  0
 30 84  1  0  0  0  0
 31 85  1  0  0  0  0
 32 64  2  0  0  0  0
 33 66  1  0  0  0  0
 33 70  1  0  0  0  0
 34 44  1  0  0  0  0
 34 45  1  0  0  0  0
 34 65  2  0  0  0  0
 35 46  1  0  0  0  0
 35 67  1  0  0  0  0
 35 76  2  0  0  0  0
 36 71  1  0  0  0  0
 36 77  2  0  0  0  0
 37 54  1  0  0  0  0
 37 73  1  0  0  0  0
 37 78  2  0  0  0  0
 38 61  1  0  0  0  0
 38 68  1  0  0  0  0
 38 79  2  0  0  0  0
 39 62  1  0  0  0  0
 39 74  1  0  0  0  0
 39 80  2  0  0  0  0
 40 69  1  0  0  0  0
 40 72  1  0  0  0  0
 40 81  2  0  0  0  0
 41 47  1  0  0  0  0
 42 54  1  0  0  0  0
 43 68  1  0  0  0  0
 44 46  1  0  0  0  0
 45 67  1  0  0  0  0
 47 49  1  0  0  0  0
 48 50  1  0  0  0  0
 48 51  1  0  0  0  0
 49 53  1  0  0  0  0
 50 55  1  0  0  0  0
 51 69  1  0  0  0  0
 52 55  1  0  0  0  0
 52 69  1  0  0  0  0
 53 73  1  0  0  0  0
 54 68  1  0  0  0  0
 55 66  1  0  0  0  0
 56 62  1  0  0  0  0
 57 63  1  0  0  0  0
 58 63  1  0  0  0  0
 59 63  1  0  0  0  0
 60 75  1  0  0  0  0
 61 63  1  0  0  0  0
 61 74  1  0  0  0  0
 62 75  1  0  0  0  0
 64 66  1  0  0  0  0
 65 83  1  0  0  0  0
M  CHG  1  75   1
M  ISO  4  40 100  65 101  72 100  83 101
M  END
> <Batch ID>
0060

> <Smiles>
CNC(C)C(=O)NC(C(=O)N1Cc2cc([101O:1][101N:1]=C3CCC(=O)N(c4cccc([100NH:0][100C:0](=O)N5CCCC(n6nc(-c7ccc(Oc8ccc(F)cc8F)cc7)c(C(N)=O)c6N)C5)c4)C3)ccc2CC1C(=O)NC1CCCc2ccccc21)C(C)(C)C

> <Shape>
0.198

> <Color>
0.076

> <Negative vol penalty>
0.000

$$$$

  -OEChem-04042323043D

 85 93  0     1  0  0  0  0  0999 V2000
  -29.9511  -36.7214   20.9456 C   0  0  0  0  0  0  0  0  0  0  0  0
  -30.0962  -35.3588   21.1858 C   0  0  0  0  0  0  0  0  0  0  0  0
  -30.7960  -19.4159   20.0951 C   0  0  0  0  0  0  0  0  0  0  0  0
  -23.2505   -9.6062   20.0866 C   0  0  0  0  0  0  0  0  0  0  0  0
  -23.7837   -9.9895   22.4117 C   0  0  0  0  0  0  0  0  0  0  0  0
  -28.7661  -37.3674   21.2956 C   0  0  0  0  0  0  0  0  0  0  0  0
  -29.0568  -34.6416   21.7771 C   0  0  0  0  0  0  0  0  0  0  0  0
  -27.4854  -28.8309   20.6488 C   0  0  0  0  0  0  0  0  0  0  0  0
  -30.7034  -18.0379   20.2908 C   0  0  0  0  0  0  0  0  0  0  0  0
  -22.5630   -8.4439   20.4359 C   0  0  0  0  0  0  0  0  0  0  0  0
  -23.0961   -8.8272   22.7610 C   0  0  0  0  0  0  0  0  0  0  0  0
  -27.7652  -27.6377   21.3133 C   0  0  0  0  0  0  0  0  0  0  0  0
  -23.6558   -5.4932   22.7176 C   0  0  0  0  0  0  0  0  0  0  0  0
  -24.2648   -4.6283   23.6268 C   0  0  0  0  0  0  0  0  0  0  0  0
  -29.9415  -20.2771   20.7836 C   0  0  0  0  0  0  0  0  0  0  0  0
  -25.6536  -27.7933   22.4692 C   0  0  0  0  0  0  0  0  0  0  0  0
  -22.3992   -4.9022   25.1372 C   0  0  0  0  0  0  0  0  0  0  0  0
  -23.8610  -10.3789   21.0745 C   0  0  0  0  0  0  0  0  0  0  0  0
  -24.0471  -12.8822   20.6201 C   0  0  0  0  0  0  0  0  0  0  0  0
  -27.7080  -36.6558   21.8826 C   0  0  0  0  0  0  0  0  0  0  0  0
  -26.2905  -29.5212   20.8980 C   0  0  0  0  0  0  0  0  0  0  0  0
  -27.8570  -35.2790   22.1364 C   0  0  0  0  0  0  0  0  0  0  0  0
  -25.3599  -28.9938   21.8046 C   0  0  0  0  0  0  0  0  0  0  0  0
  -28.9017  -18.3823   21.8632 C   0  0  0  0  0  0  0  0  0  0  0  0
  -29.7563  -17.5211   21.1748 C   0  0  0  0  0  0  0  0  0  0  0  0
  -22.4857   -8.0545   21.7731 C   0  0  0  0  0  0  0  0  0  0  0  0
  -26.8505  -27.1202   22.2258 C   0  0  0  0  0  0  0  0  0  0  0  0
  -22.4184   -6.0627   23.0183 C   0  0  0  0  0  0  0  0  0  0  0  0
  -23.6365   -4.3328   24.8366 C   0  0  0  0  0  0  0  0  0  0  0  0
  -21.7901   -5.7672   24.2281 C   0  0  0  0  0  0  0  0  0  0  0  0
  -28.9944  -19.7602   21.6676 C   0  0  0  0  0  0  0  0  0  0  0  0
  -24.5719  -11.5793   20.7143 C   0  0  0  0  0  0  0  0  0  0  0  0
  -25.1179  -13.6576   20.2475 C   0  0  0  0  0  0  0  0  0  0  0  0
  -22.7112  -13.3498   20.8489 C   0  0  0  0  0  0  0  0  0  0  0  0
  -25.5562  -32.3889   22.0559 C   0  0  0  0  0  0  0  0  0  0  0  0
  -27.5900  -23.5913   22.6284 C   0  0  0  0  0  0  0  0  0  0  0  0
  -22.5405  -31.5158   21.2398 C   0  0  0  0  0  0  0  0  0  0  0  0
  -20.3216  -28.9991   20.6160 C   0  0  0  0  0  0  0  0  0  0  0  0
  -30.4618  -15.1423   20.7393 C   0  0  0  0  0  0  0  0  0  0  0  0
  -26.4641  -37.4069   22.2869 C   0  0  0  0  0  0  0  0  0  0  0  0
  -25.9917  -30.7933   20.1531 C   0  0  0  0  0  0  0  0  0  0  0  0
  -24.0535  -29.6858   22.0926 C   0  0  0  0  0  0  0  0  0  0  0  0
  -25.2687  -36.4997   22.5666 C   0  0  0  0  0  0  0  0  0  0  0  0
  -29.7409  -12.3445   18.6583 C   0  0  0  0  0  0  0  0  0  0  0  0
  -25.6838  -35.3261   23.4482 C   0  0  0  0  0  0  0  0  0  0  0  0
  -28.2887  -12.0032   19.0000 C   0  0  0  0  0  0  0  0  0  0  0  0
  -30.5190  -12.8082   19.8885 C   0  0  0  0  0  0  0  0  0  0  0  0
  -28.4445  -13.5649   20.9809 C   0  0  0  0  0  0  0  0  0  0  0  0
  -26.7428  -34.4616   22.7533 C   0  0  1  0  0  0  0  0  0  0  0  0
  -24.9744  -31.6785   20.8665 C   0  0  1  0  0  0  0  0  0  0  0  0
  -27.6032  -13.1549   19.7612 C   0  0  2  0  0  0  0  0  0  0  0  0
  -27.8858  -17.8232   22.8099 C   0  0  0  0  0  0  0  0  0  0  0  0
  -17.9199  -28.5955   20.0104 C   0  0  0  0  0  0  0  0  0  0  0  0
  -21.7119  -32.1641   24.1039 C   0  0  0  0  0  0  0  0  0  0  0  0
  -19.6029  -30.8731   23.7120 C   0  0  0  0  0  0  0  0  0  0  0  0
  -20.0877  -32.9087   22.3541 C   0  0  0  0  0  0  0  0  0  0  0  0
  -21.0651  -27.6382   18.0953 C   0  0  0  0  0  0  0  0  0  0  0  0
  -27.9316  -25.0021   22.1905 C   0  0  0  0  0  0  0  0  0  1  0  0
  -28.3974  -22.4942   21.9762 C   0  0  0  0  0  0  0  0  0  0  0  0
  -21.4109  -30.7954   21.9354 C   0  0  1  0  0  0  0  0  0  0  0  0
  -19.3338  -28.7848   19.4833 C   0  0  2  0  0  0  0  0  0  0  0  0
  -20.7287  -31.6731   23.0226 C   0  0  0  0  0  0  0  0  0  0  0  0
  -25.8747  -11.5260   20.4248 N   0  0  0  0  0  0  0  0  0  0  0  0
  -28.3210  -20.7654   24.0170 N   0  0  0  0  0  0  0  0  0  0  0  0
  -26.1776  -12.8051   20.1450 N   0  0  0  0  0  0  0  0  0  0  0  0
  -23.8100  -30.9298   21.3439 N   0  0  0  0  0  0  0  0  0  0  0  0
  -29.8119  -13.9034   20.5559 N   0  0  0  0  0  0  0  0  0  0  0  0
  -25.2469  -14.9785   20.0009 N   0  0  0  0  0  0  0  0  0  0  0  0
  -21.7330  -12.4195   21.2258 N   0  0  0  0  0  0  0  0  0  0  0  0
  -29.6795  -16.1179   21.3563 N   0  0  0  0  0  0  0  0  0  0  0  0
  -26.1270  -33.6114   21.7572 N   0  0  0  0  0  0  0  0  0  0  0  0
  -20.5089  -30.3387   20.8836 N   0  0  0  0  0  0  0  0  0  0  0  0
  -19.7063  -27.5777   18.6927 N   0  3  0  0  0  0  0  0  0  0  0  0
  -22.3906  -14.5542   20.7068 O   0  0  0  0  0  0  0  0  0  0  0  0
  -25.4907  -31.8673   23.1628 O   0  0  0  0  0  0  0  0  0  0  0  0
  -26.7121  -23.3687   23.4605 O   0  0  0  0  0  0  0  0  0  0  0  0
  -22.3040  -32.5562   20.6207 O   0  0  0  0  0  0  0  0  0  0  0  0
  -20.8691  -28.0709   21.2069 O   0  0  0  0  0  0  0  0  0  0  0  0
  -31.6172  -15.3327   20.3512 O   0  0  0  0  0  0  0  0  0  0  0  0
  -26.5878  -20.6680   21.9945 O   0  0  0  0  0  0  0  0  0  0  0  0
  -21.8146   -6.9205   22.1143 O   0  0  0  0  0  0  0  0  0  0  0  0
  -27.1214  -25.9559   22.8762 O   0  0  0  0  0  0  0  0  0  1  0  0
  -24.2208   -3.5010   25.7089 F   0  0  0  0  0  0  0  0  0  0  0  0
  -20.6008   -6.3103   24.5219 F   0  0  0  0  0  0  0  0  0  0  0  0
  -27.9261  -20.8896   22.5256 S   0  0  2  0  0  0  0  0  0  0  0  0
  1  2  1  0  0  0  0
  1  6  2  0  0  0  0
  2  7  2  0  0  0  0
  3  9  1  0  0  0  0
  3 15  2  0  0  0  0
  4 10  2  0  0  0  0
  4 18  1  0  0  0  0
  5 11  1  0  0  0  0
  5 18  2  0  0  0  0
  6 20  1  0  0  0  0
  7 22  1  0  0  0  0
  8 12  2  0  0  0  0
  8 21  1  0  0  0  0
  9 25  2  0  0  0  0
 10 26  1  0  0  0  0
 11 26  2  0  0  0  0
 12 27  1  0  0  0  0
 13 14  2  0  0  0  0
 13 28  1  0  0  0  0
 14 29  1  0  0  0  0
 15 31  1  0  0  0  0
 16 23  1  0  0  0  0
 16 27  2  0  0  0  0
 17 29  2  0  0  0  0
 17 30  1  0  0  0  0
 18 32  1  0  0  0  0
 19 32  1  0  0  0  0
 19 33  2  0  0  0  0
 19 34  1  0  0  0  0
 20 22  2  0  0  0  0
 20 40  1  0  0  0  0
 21 23  2  0  0  0  0
 21 41  1  0  0  0  0
 22 49  1  0  0  0  0
 23 42  1  0  0  0  0
 24 25  1  0  0  0  0
 24 31  2  0  0  0  0
 24 52  1  0  0  0  0
 25 70  1  0  0  0  0
 26 81  1  0  0  0  0
 27 82  1  0  0  0  0
 28 30  2  0  0  0  0
 28 81  1  0  0  0  0
 29 83  1  0  0  0  0
 30 84  1  0  0  0  0
 31 85  1  0  0  0  0
 32 63  2  0  0  0  0
 33 65  1  0  0  0  0
 33 68  1  0  0  0  0
 34 69  1  0  0  0  0
 34 74  2  0  0  0  0
 35 50  1  0  0  0  0
 35 71  1  0  0  0  0
 35 75  2  0  0  0  0
 36 58  1  0  0  0  0
 36 59  1  0  0  0  0
 36 76  2  0  0  0  0
 37 60  1  0  0  0  0
 37 66  1  0  0  0  0
 37 77  2  0  0  0  0
 38 61  1  0  0  0  0
 38 72  1  0  0  0  0
 38 78  2  0  0  0  0
 39 67  1  0  0  0  0
 39 70  1  0  0  0  0
 39 79  2  0  0  0  0
 40 43  1  0  0  0  0
 41 50  1  0  0  0  0
 42 66  1  0  0  0  0
 43 45  1  0  0  0  0
 44 46  1  0  0  0  0
 44 47  1  0  0  0  0
 45 49  1  0  0  0  0
 46 51  1  0  0  0  0
 47 67  1  0  0  0  0
 48 51  1  0  0  0  0
 48 67  1  0  0  0  0
 49 71  1  0  0  0  0
 50 66  1  0  0  0  0
 51 65  1  0  0  0  0
 53 61  1  0  0  0  0
 54 62  1  0  0  0  0
 55 62  1  0  0  0  0
 56 62  1  0  0  0  0
 57 73  1  0  0  0  0
 58 82  1  0  0  0  0
 59 85  1  0  0  0  0
 60 62  1  0  0  0  0
 60 72  1  0  0  0  0
 61 73  1  0  0  0  0
 63 65  1  0  0  0  0
 64 85  2  0  0  0  0
 80 85  2  0  0  0  0
M  CHG  1  73   1
M  ISO  4  39 100  58 101  70 100  82 101
M  END
> <Batch ID>
0060

> <Smiles>
CNC(C)C(=O)NC(C(=O)N1Cc2cc([101O:1][101CH2:1]C(=O)CS(=N)(=O)c3cccc([100NH:0][100C:0](=O)N4CCCC(n5nc(-c6ccc(Oc7ccc(F)cc7F)cc6)c(C(N)=O)c5N)C4)c3C)ccc2CC1C(=O)NC1CCCc2ccccc21)C(C)(C)C

> <Shape>
0.312

> <Color>
0.192

> <Negative vol penalty>
0.000

$$$$

  -OEChem-04042323043D

 87 96  0     1  0  0  0  0  0999 V2000
  -17.6804  -25.8031   23.0667 C   0  0  0  0  0  0  0  0  0  0  0  0
  -18.9622  -25.4016   22.7047 C   0  0  0  0  0  0  0  0  0  0  0  0
  -23.8362  -24.9307   19.9368 C   0  0  0  0  0  0  0  0  0  0  0  0
  -22.7981  -23.3474   21.4918 C   0  0  0  0  0  0  0  0  0  0  0  0
  -22.4471  -10.7586   19.6159 C   0  0  0  0  0  0  0  0  0  0  0  0
  -21.3776  -12.2453   18.0401 C   0  0  0  0  0  0  0  0  0  0  0  0
  -17.2946  -27.1326   22.9007 C   0  0  0  0  0  0  0  0  0  0  0  0
  -19.8587  -26.3292   22.1754 C   0  0  0  0  0  0  0  0  0  0  0  0
  -25.9250  -26.4730   23.0035 C   0  0  0  0  0  0  0  0  0  0  0  0
  -24.7109  -25.1892   18.8811 C   0  0  0  0  0  0  0  0  0  0  0  0
  -22.6492  -22.0448   21.9689 C   0  0  0  0  0  0  0  0  0  0  0  0
  -21.8058   -9.6703   19.0245 C   0  0  0  0  0  0  0  0  0  0  0  0
  -20.7364  -11.1569   17.4486 C   0  0  0  0  0  0  0  0  0  0  0  0
  -26.9894  -26.0297   22.2198 C   0  0  0  0  0  0  0  0  0  0  0  0
  -18.7378   -8.2533   19.0852 C   0  0  0  0  0  0  0  0  0  0  0  0
  -18.1535   -7.3092   19.9294 C   0  0  0  0  0  0  0  0  0  0  0  0
  -25.2851  -22.8465   18.7817 C   0  0  0  0  0  0  0  0  0  0  0  0
  -24.2468  -21.2631   20.3366 C   0  0  0  0  0  0  0  0  0  0  0  0
  -27.2428  -28.2525   21.3174 C   0  0  0  0  0  0  0  0  0  0  0  0
  -19.5838   -5.5962   19.0037 C   0  0  0  0  0  0  0  0  0  0  0  0
  -23.6739  -23.6258   20.4298 C   0  0  0  0  0  0  0  0  0  0  0  0
  -24.4092  -22.5681   19.8436 C   0  0  0  0  0  0  0  0  0  0  0  0
  -22.2330  -12.0461   19.1238 C   0  0  0  0  0  0  0  0  0  0  0  0
  -24.1492  -13.7088   19.3905 C   0  0  0  0  0  0  0  0  0  0  0  0
  -18.1900  -28.0790   22.3780 C   0  0  0  0  0  0  0  0  0  0  0  0
  -25.5037  -27.8091   22.9419 C   0  0  0  0  0  0  0  0  0  0  0  0
  -19.4841  -27.6724   22.0009 C   0  0  0  0  0  0  0  0  0  0  0  0
  -26.1744  -28.7108   22.1033 C   0  0  0  0  0  0  0  0  0  0  0  0
  -25.4339  -24.1491   18.3046 C   0  0  0  0  0  0  0  0  0  0  0  0
  -23.3722  -21.0047   21.3924 C   0  0  0  0  0  0  0  0  0  0  0  0
  -20.9505   -9.8694   17.9408 C   0  0  0  0  0  0  0  0  0  0  0  0
  -27.6467  -26.9188   21.3744 C   0  0  0  0  0  0  0  0  0  0  0  0
  -19.7451   -7.8689   18.2001 C   0  0  0  0  0  0  0  0  0  0  0  0
  -18.5765   -5.9806   19.8887 C   0  0  0  0  0  0  0  0  0  0  0  0
  -20.1681   -6.5403   18.1594 C   0  0  0  0  0  0  0  0  0  0  0  0
  -22.8947  -13.1709   19.7348 C   0  0  0  0  0  0  0  0  0  0  0  0
  -24.3235  -14.7575   20.2603 C   0  0  0  0  0  0  0  0  0  0  0  0
  -25.0743  -13.2975   18.3753 C   0  0  0  0  0  0  0  0  0  0  0  0
  -22.8115  -29.2758   22.1025 C   0  0  0  0  0  0  0  0  0  0  0  0
  -24.3724  -31.9110   23.1711 C   0  0  0  0  0  0  0  0  0  0  0  0
  -28.6276  -24.9799   18.0776 C   0  0  0  0  0  0  0  0  0  0  0  0
  -27.3473  -33.4474   23.8316 C   0  0  0  0  0  0  0  0  0  0  0  0
  -22.3940  -19.2542   22.9172 C   0  0  0  0  0  0  0  0  0  0  0  0
  -17.7120  -29.4947   22.1729 C   0  0  0  0  0  0  0  0  0  0  0  0
  -24.3711  -28.2777   23.8136 C   0  0  0  0  0  0  0  0  0  0  0  0
  -25.7741  -30.1601   22.0155 C   0  0  0  0  0  0  0  0  0  0  0  0
  -18.8448  -30.4944   21.9543 C   0  0  0  0  0  0  0  0  0  0  0  0
  -21.7088  -16.0841   24.3864 C   0  0  0  0  0  0  0  0  0  0  0  0
  -19.8484  -29.9510   20.9422 C   0  0  0  0  0  0  0  0  0  0  0  0
  -22.0594  -15.0879   23.2789 C   0  0  0  0  0  0  0  0  0  0  0  0
  -21.0734  -17.3552   23.8256 C   0  0  0  0  0  0  0  0  0  0  0  0
  -22.1931  -17.0212   21.6567 C   0  0  0  0  0  0  0  0  0  0  0  0
  -20.4933  -28.6543   21.4464 C   0  0  1  0  0  0  0  0  0  0  0  0
  -23.6958  -29.5408   23.2881 C   0  0  1  0  0  0  0  0  0  0  0  0
  -22.8951  -15.7522   22.1672 C   0  0  2  0  0  0  0  0  0  0  0  0
  -28.3040  -35.6136   24.6619 C   0  0  0  0  0  0  0  0  0  0  0  0
  -23.7707  -33.2071   20.4752 C   0  0  0  0  0  0  0  0  0  0  0  0
  -25.5153  -34.9271   20.9913 C   0  0  0  0  0  0  0  0  0  0  0  0
  -23.4988  -34.7232   22.4454 C   0  0  0  0  0  0  0  0  0  0  0  0
  -28.6434  -32.1242   26.1400 C   0  0  0  0  0  0  0  0  0  0  0  0
  -26.3741  -24.4285   17.1679 C   0  0  0  0  0  0  0  0  0  0  0  0
  -29.5137  -26.1807   18.3696 C   0  0  0  0  0  0  0  0  0  0  0  0
  -28.8907  -27.1515   19.3609 C   0  0  0  0  0  0  0  0  0  1  0  0
  -25.2864  -32.9383   22.5479 C   0  0  1  0  0  0  0  0  0  0  0  0
  -27.8352  -34.2185   25.0448 C   0  0  2  0  0  0  0  0  0  0  0  0
  -24.5243  -33.9212   21.6149 C   0  0  0  0  0  0  0  0  0  0  0  0
  -22.3132  -13.8237   20.7446 N   0  0  0  0  0  0  0  0  0  0  0  0
  -23.2064  -14.7827   21.0424 N   0  0  0  0  0  0  0  0  0  0  0  0
  -24.6567  -30.5686   22.8828 N   0  0  0  0  0  0  0  0  0  0  0  0
  -21.9227  -17.9313   22.7807 N   0  0  0  0  0  0  0  0  0  0  0  0
  -25.3218  -15.6512   20.4248 N   0  0  0  0  0  0  0  0  0  0  0  0
  -24.7383  -12.2008   17.5699 N   0  0  0  0  0  0  0  0  0  0  0  0
  -23.2194  -19.6824   21.8780 N   0  0  0  0  0  0  0  0  0  0  0  0
  -21.5109  -28.9464   22.4332 N   0  0  0  0  0  0  0  0  0  0  0  0
  -27.4085  -25.3668   17.5398 N   0  0  0  0  0  0  0  0  0  0  0  0
  -25.9871  -33.5846   23.6523 N   0  0  0  0  0  0  0  0  0  0  0  0
  -28.9707  -33.5022   25.6916 N   0  3  0  0  0  0  0  0  0  0  0  0
  -26.1739  -13.8748   18.1987 O   0  0  0  0  0  0  0  0  0  0  0  0
  -23.2746  -29.3652   20.9715 O   0  0  0  0  0  0  0  0  0  0  0  0
  -23.4449  -32.2854   23.8929 O   0  0  0  0  0  0  0  0  0  0  0  0
  -28.9691  -23.8212   18.2982 O   0  0  0  0  0  0  0  0  0  0  0  0
  -28.0984  -32.7920   23.1126 O   0  0  0  0  0  0  0  0  0  0  0  0
  -22.1100  -19.9463   23.8982 O   0  0  0  0  0  0  0  0  0  0  0  0
  -20.3248   -8.8076   17.3632 O   0  0  0  0  0  0  0  0  0  0  0  0
  -28.6855  -26.4886   20.6079 O   0  0  0  0  0  0  0  0  0  1  0  0
  -18.0163   -5.0743   20.7005 F   0  0  0  0  0  0  0  0  0  0  0  0
  -21.1362   -6.1653   17.3121 F   0  0  0  0  0  0  0  0  0  0  0  0
  1  2  1  0  0  0  0
  1  7  2  0  0  0  0
  2  8  2  0  0  0  0
  3 10  2  0  0  0  0
  3 21  1  0  0  0  0
  4 11  2  0  0  0  0
  4 21  1  0  0  0  0
  5 12  2  0  0  0  0
  5 23  1  0  0  0  0
  6 13  1  0  0  0  0
  6 23  2  0  0  0  0
  7 25  1  0  0  0  0
  8 27  1  0  0  0  0
  9 14  2  0  0  0  0
  9 26  1  0  0  0  0
 10 29  1  0  0  0  0
 11 30  1  0  0  0  0
 12 31  1  0  0  0  0
 13 31  2  0  0  0  0
 14 32  1  0  0  0  0
 15 16  2  0  0  0  0
 15 33  1  0  0  0  0
 16 34  1  0  0  0  0
 17 22  1  0  0  0  0
 17 29  2  0  0  0  0
 18 22  1  0  0  0  0
 18 30  2  0  0  0  0
 19 28  1  0  0  0  0
 19 32  2  0  0  0  0
 20 34  2  0  0  0  0
 20 35  1  0  0  0  0
 21 22  2  0  0  0  0
 23 36  1  0  0  0  0
 24 36  1  0  0  0  0
 24 37  2  0  0  0  0
 24 38  1  0  0  0  0
 25 27  2  0  0  0  0
 25 44  1  0  0  0  0
 26 28  2  0  0  0  0
 26 45  1  0  0  0  0
 27 53  1  0  0  0  0
 28 46  1  0  0  0  0
 29 61  1  0  0  0  0
 30 73  1  0  0  0  0
 31 84  1  0  0  0  0
 32 85  1  0  0  0  0
 33 35  2  0  0  0  0
 33 84  1  0  0  0  0
 34 86  1  0  0  0  0
 35 87  1  0  0  0  0
 36 67  2  0  0  0  0
 37 68  1  0  0  0  0
 37 71  1  0  0  0  0
 38 72  1  0  0  0  0
 38 78  2  0  0  0  0
 39 54  1  0  0  0  0
 39 74  1  0  0  0  0
 39 79  2  0  0  0  0
 40 64  1  0  0  0  0
 40 69  1  0  0  0  0
 40 80  2  0  0  0  0
 41 62  1  0  0  0  0
 41 75  1  0  0  0  0
 41 81  2  0  0  0  0
 42 65  1  0  0  0  0
 42 76  1  0  0  0  0
 42 82  2  0  0  0  0
 43 70  1  0  0  0  0
 43 73  1  0  0  0  0
 43 83  2  0  0  0  0
 44 47  1  0  0  0  0
 45 54  1  0  0  0  0
 46 69  1  0  0  0  0
 47 49  1  0  0  0  0
 48 50  1  0  0  0  0
 48 51  1  0  0  0  0
 49 53  1  0  0  0  0
 50 55  1  0  0  0  0
 51 70  1  0  0  0  0
 52 55  1  0  0  0  0
 52 70  1  0  0  0  0
 53 74  1  0  0  0  0
 54 69  1  0  0  0  0
 55 68  1  0  0  0  0
 56 65  1  0  0  0  0
 57 66  1  0  0  0  0
 58 66  1  0  0  0  0
 59 66  1  0  0  0  0
 60 77  1  0  0  0  0
 61 75  1  0  0  0  0
 62 63  1  0  0  0  0
 63 85  1  0  0  0  0
 64 66  1  0  0  0  0
 64 76  1  0  0  0  0
 65 77  1  0  0  0  0
 67 68  1  0  0  0  0
M  CHG  1  77   1
M  ISO  4  43 100  63 101  73 100  85 101
M  END
> <Batch ID>
0060

> <Smiles>
CNC(C)C(=O)NC(C(=O)N1Cc2cc([101O:1][101CH2:1]CC(=O)NCc3ccc4ccc([100NH:0][100C:0](=O)N5CCCC(n6nc(-c7ccc(Oc8ccc(F)cc8F)cc7)c(C(N)=O)c6N)C5)cc4c3)ccc2CC1C(=O)NC1CCCc2ccccc21)C(C)(C)C

> <Shape>
0.188

> <Color>
0.114

> <Negative vol penalty>
0.000

$$$$

  -OEChem-04042323043D

 87 96  0     1  0  0  0  0  0999 V2000
  -15.9809  -20.6926   19.3429 C   0  0  0  0  0  0  0  0  0  0  0  0
  -16.8691  -20.1017   18.4500 C   0  0  0  0  0  0  0  0  0  0  0  0
  -27.2346  -28.8319   19.8407 C   0  0  0  0  0  0  0  0  0  0  0  0
  -26.1365  -26.8419   20.6599 C   0  0  0  0  0  0  0  0  0  0  0  0
  -16.4521  -21.2313   20.5394 C   0  0  0  0  0  0  0  0  0  0  0  0
  -18.2293  -20.0501   18.7526 C   0  0  0  0  0  0  0  0  0  0  0  0
  -23.0289  -13.9012   19.1781 C   0  0  0  0  0  0  0  0  0  0  0  0
  -29.1970  -16.3466   19.9398 C   0  0  0  0  0  0  0  0  0  0  0  0
  -30.8848  -15.8090   18.2967 C   0  0  0  0  0  0  0  0  0  0  0  0
  -29.3806  -17.7054   19.6837 C   0  0  0  0  0  0  0  0  0  0  0  0
  -31.0683  -17.1678   18.0406 C   0  0  0  0  0  0  0  0  0  0  0  0
  -26.0026  -29.4817   19.7677 C   0  0  0  0  0  0  0  0  0  0  0  0
  -24.9044  -27.4918   20.5870 C   0  0  0  0  0  0  0  0  0  0  0  0
  -23.9390  -12.8764   19.4383 C   0  0  0  0  0  0  0  0  0  0  0  0
  -21.5116  -28.7443   20.9586 C   0  0  0  0  0  0  0  0  0  0  0  0
  -20.6411  -28.6090   22.0401 C   0  0  0  0  0  0  0  0  0  0  0  0
  -25.1380  -14.3151   20.9681 C   0  0  0  0  0  0  0  0  0  0  0  0
  -22.2921  -29.6080   23.4939 C   0  0  0  0  0  0  0  0  0  0  0  0
  -27.3016  -27.5119   20.2868 C   0  0  0  0  0  0  0  0  0  0  0  0
  -29.6919  -27.2195   21.1286 C   0  0  0  0  0  0  0  0  0  0  0  0
  -17.8175  -21.1777   20.8612 C   0  0  0  0  0  0  0  0  0  0  0  0
  -23.1611  -15.1333   19.8244 C   0  0  0  0  0  0  0  0  0  0  0  0
  -18.7194  -20.5898   19.9539 C   0  0  0  0  0  0  0  0  0  0  0  0
  -24.2221  -15.3412   20.7209 C   0  0  0  0  0  0  0  0  0  0  0  0
  -29.9492  -15.3984   19.2463 C   0  0  0  0  0  0  0  0  0  0  0  0
  -30.3162  -18.1160   18.7341 C   0  0  0  0  0  0  0  0  0  0  0  0
  -24.8375  -28.8117   20.1408 C   0  0  0  0  0  0  0  0  0  0  0  0
  -24.9910  -13.0830   20.3309 C   0  0  0  0  0  0  0  0  0  0  0  0
  -22.7724  -29.3113   21.1448 C   0  0  0  0  0  0  0  0  0  0  0  0
  -21.0313  -29.0409   23.3077 C   0  0  0  0  0  0  0  0  0  0  0  0
  -23.1626  -29.7432   22.4124 C   0  0  0  0  0  0  0  0  0  0  0  0
  -28.5739  -26.8399   20.3619 C   0  0  0  0  0  0  0  0  0  0  0  0
  -30.6377  -26.2621   20.8540 C   0  0  0  0  0  0  0  0  0  0  0  0
  -29.3595  -13.5362   20.7798 C   0  0  0  0  0  0  0  0  0  0  0  0
  -29.1110  -11.9504   18.3805 C   0  0  0  0  0  0  0  0  0  0  0  0
  -29.8603  -28.3374   22.0103 C   0  0  0  0  0  0  0  0  0  0  0  0
  -21.8071  -18.5955   20.3305 C   0  0  0  0  0  0  0  0  0  0  0  0
  -22.6903  -17.5727   23.0845 C   0  0  0  0  0  0  0  0  0  0  0  0
  -23.0537  -16.9392   26.4167 C   0  0  0  0  0  0  0  0  0  0  0  0
  -29.8434  -20.5755   19.0685 C   0  0  0  0  0  0  0  0  0  0  0  0
  -18.2863  -21.8156   22.1450 C   0  0  0  0  0  0  0  0  0  0  0  0
  -22.2401  -16.2856   19.5281 C   0  0  0  0  0  0  0  0  0  0  0  0
  -24.3452  -16.6943   21.3668 C   0  0  0  0  0  0  0  0  0  0  0  0
  -29.1520  -12.0378   20.8351 C   0  0  0  0  0  0  0  0  0  0  0  0
  -30.1881  -13.0075   18.5180 C   0  0  0  0  0  0  0  0  0  0  0  0
  -19.6909  -21.3862   22.5610 C   0  0  0  0  0  0  0  0  0  0  0  0
  -31.3059  -23.4423   16.9788 C   0  0  0  0  0  0  0  0  0  0  0  0
  -20.6428  -21.4493   21.3707 C   0  0  0  0  0  0  0  0  0  0  0  0
  -31.4585  -24.4993   18.0701 C   0  0  0  0  0  0  0  0  0  0  0  0
  -31.2814  -22.0278   17.5442 C   0  0  0  0  0  0  0  0  0  0  0  0
  -29.6317  -23.0532   19.1199 C   0  0  0  0  0  0  0  0  0  0  0  0
  -20.1987  -20.4925   20.2578 C   0  0  1  0  0  0  0  0  0  0  0  0
  -21.9592  -17.1656   20.7593 C   0  0  1  0  0  0  0  0  0  0  0  0
  -30.6698  -24.1623   19.3511 C   0  0  2  0  0  0  0  0  0  0  0  0
  -23.4141  -18.0966   28.6140 C   0  0  0  0  0  0  0  0  0  0  0  0
  -25.6240  -18.0063   22.3706 C   0  0  0  0  0  0  0  0  0  0  0  0
  -26.1098  -18.2461   24.8150 C   0  0  0  0  0  0  0  0  0  0  0  0
  -24.5840  -19.8633   23.6838 C   0  0  0  0  0  0  0  0  0  0  0  0
  -20.4988  -15.9172   27.5062 C   0  0  0  0  0  0  0  0  0  0  0  0
  -27.5108  -10.5704   19.6727 C   0  0  0  0  0  0  0  0  0  0  0  0
  -26.1122  -11.1439   19.5307 C   0  0  0  0  0  0  0  0  0  1  0  0
  -23.7885  -17.5025   24.1152 C   0  0  1  0  0  0  0  0  0  0  0  0
  -22.3862  -17.5480   27.6367 C   0  0  2  0  0  0  0  0  0  0  0  0
  -25.0141  -18.3810   23.7361 C   0  0  0  0  0  0  0  0  0  0  0  0
  -28.7881  -25.7281   19.6532 N   0  0  0  0  0  0  0  0  0  0  0  0
  -30.0517  -25.4010   19.9734 N   0  0  0  0  0  0  0  0  0  0  0  0
  -29.7603  -13.9970   19.5105 N   0  0  0  0  0  0  0  0  0  0  0  0
  -28.5288  -11.6045   19.5969 N   0  0  0  0  0  0  0  0  0  0  0  0
  -23.0183  -17.1750   21.7826 N   0  0  0  0  0  0  0  0  0  0  0  0
  -30.2610  -21.8399   18.5857 N   0  0  0  0  0  0  0  0  0  0  0  0
  -31.9051  -26.0813   21.2821 N   0  0  0  0  0  0  0  0  0  0  0  0
  -29.5244  -28.1790   23.3618 N   0  0  0  0  0  0  0  0  0  0  0  0
  -30.5030  -19.4966   18.4737 N   0  0  0  0  0  0  0  0  0  0  0  0
  -20.5594  -19.1305   20.5884 N   0  0  0  0  0  0  0  0  0  0  0  0
  -23.1739  -17.8529   25.3910 N   0  0  0  0  0  0  0  0  0  0  0  0
  -21.5656  -16.5241   28.3432 N   0  3  0  0  0  0  0  0  0  0  0  0
  -29.3082  -14.2005   21.8147 O   0  0  0  0  0  0  0  0  0  0  0  0
  -28.8841  -11.4046   17.3023 O   0  0  0  0  0  0  0  0  0  0  0  0
  -30.2803  -29.4490   21.6083 O   0  0  0  0  0  0  0  0  0  0  0  0
  -22.7521  -19.1726   19.8055 O   0  0  0  0  0  0  0  0  0  0  0  0
  -21.5727  -17.9743   23.4204 O   0  0  0  0  0  0  0  0  0  0  0  0
  -23.4340  -15.7712   26.3788 O   0  0  0  0  0  0  0  0  0  0  0  0
  -28.9827  -20.4686   19.9445 O   0  0  0  0  0  0  0  0  0  0  0  0
  -23.6351  -29.4456   20.0700 O   0  0  0  0  0  0  0  0  0  0  0  0
  -25.8733  -12.0768   20.5838 O   0  0  0  0  0  0  0  0  0  1  0  0
  -20.1947  -28.9123   24.3459 F   0  0  0  0  0  0  0  0  0  0  0  0
  -24.3721  -30.2898   22.5972 F   0  0  0  0  0  0  0  0  0  0  0  0
  1  2  1  0  0  0  0
  1  5  2  0  0  0  0
  2  6  2  0  0  0  0
  3 12  2  0  0  0  0
  3 19  1  0  0  0  0
  4 13  1  0  0  0  0
  4 19  2  0  0  0  0
  5 21  1  0  0  0  0
  6 23  1  0  0  0  0
  7 14  2  0  0  0  0
  7 22  1  0  0  0  0
  8 10  2  0  0  0  0
  8 25  1  0  0  0  0
  9 11  1  0  0  0  0
  9 25  2  0  0  0  0
 10 26  1  0  0  0  0
 11 26  2  0  0  0  0
 12 27  1  0  0  0  0
 13 27  2  0  0  0  0
 14 28  1  0  0  0  0
 15 16  2  0  0  0  0
 15 29  1  0  0  0  0
 16 30  1  0  0  0  0
 17 24  1  0  0  0  0
 17 28  2  0  0  0  0
 18 30  2  0  0  0  0
 18 31  1  0  0  0  0
 19 32  1  0  0  0  0
 20 32  1  0  0  0  0
 20 33  2  0  0  0  0
 20 36  1  0  0  0  0
 21 23  2  0  0  0  0
 21 41  1  0  0  0  0
 22 24  2  0  0  0  0
 22 42  1  0  0  0  0
 23 52  1  0  0  0  0
 24 43  1  0  0  0  0
 25 67  1  0  0  0  0
 26 73  1  0  0  0  0
 27 84  1  0  0  0  0
 28 85  1  0  0  0  0
 29 31  2  0  0  0  0
 29 84  1  0  0  0  0
 30 86  1  0  0  0  0
 31 87  1  0  0  0  0
 32 65  2  0  0  0  0
 33 66  1  0  0  0  0
 33 71  1  0  0  0  0
 34 44  1  0  0  0  0
 34 67  1  0  0  0  0
 34 77  2  0  0  0  0
 35 45  1  0  0  0  0
 35 68  1  0  0  0  0
 35 78  2  0  0  0  0
 36 72  1  0  0  0  0
 36 79  2  0  0  0  0
 37 53  1  0  0  0  0
 37 74  1  0  0  0  0
 37 80  2  0  0  0  0
 38 62  1  0  0  0  0
 38 69  1  0  0  0  0
 38 81  2  0  0  0  0
 39 63  1  0  0  0  0
 39 75  1  0  0  0  0
 39 82  2  0  0  0  0
 40 70  1  0  0  0  0
 40 73  1  0  0  0  0
 40 83  2  0  0  0  0
 41 46  1  0  0  0  0
 42 53  1  0  0  0  0
 43 69  1  0  0  0  0
 44 68  1  0  0  0  0
 45 67  1  0  0  0  0
 46 48  1  0  0  0  0
 47 49  1  0  0  0  0
 47 50  1  0  0  0  0
 48 52  1  0  0  0  0
 49 54  1  0  0  0  0
 50 70  1  0  0  0  0
 51 54  1  0  0  0  0
 51 70  1  0  0  0  0
 52 74  1  0  0  0  0
 53 69  1  0  0  0  0
 54 66  1  0  0  0  0
 55 63  1  0  0  0  0
 56 64  1  0  0  0  0
 57 64  1  0  0  0  0
 58 64  1  0  0  0  0
 59 76  1  0  0  0  0
 60 61  1  0  0  0  0
 60 68  1  0  0  0  0
 61 85  1  0  0  0  0
 62 64  1  0  0  0  0
 62 75  1  0  0  0  0
 63 76  1  0  0  0  0
 65 66  1  0  0  0  0
M  CHG  1  76   1
M  ISO  4  40 100  61 101  73 100  85 101
M  END
> <Batch ID>
0060

> <Smiles>
CNC(C)C(=O)NC(C(=O)N1Cc2cc([101O:1][101CH2:1]CN3CC(=O)N(c4ccc([100NH:0][100C:0](=O)N5CCCC(n6nc(-c7ccc(Oc8ccc(F)cc8F)cc7)c(C(N)=O)c6N)C5)cc4)CC3=O)ccc2CC1C(=O)NC1CCCc2ccccc21)C(C)(C)C

> <Shape>
0.238

> <Color>
0.074

> <Negative vol penalty>
0.000

$$$$

  -OEChem-04042323043D

 87 96  0     1  0  0  0  0  0999 V2000
  -27.8160  -33.5931   26.5407 C   0  0  0  0  0  0  0  0  0  0  0  0
  -28.0203  -32.4282   25.8082 C   0  0  0  0  0  0  0  0  0  0  0  0
  -23.9606  -13.2607   23.6078 C   0  0  0  0  0  0  0  0  0  0  0  0
  -25.9806  -13.8646   22.4281 C   0  0  0  0  0  0  0  0  0  0  0  0
  -26.5212  -33.9853   26.8776 C   0  0  0  0  0  0  0  0  0  0  0  0
  -26.9299  -31.6540   25.4132 C   0  0  0  0  0  0  0  0  0  0  0  0
  -27.2621  -30.1479   20.5897 C   0  0  0  0  0  0  0  0  0  0  0  0
  -23.6142  -12.3941   22.5712 C   0  0  0  0  0  0  0  0  0  0  0  0
  -25.6343  -12.9980   21.3914 C   0  0  0  0  0  0  0  0  0  0  0  0
  -28.1123  -29.0780   20.3138 C   0  0  0  0  0  0  0  0  0  0  0  0
  -24.4671   -9.2934   21.5266 C   0  0  0  0  0  0  0  0  0  0  0  0
  -24.0051   -8.0231   21.8706 C   0  0  0  0  0  0  0  0  0  0  0  0
  -26.2138  -27.5908   20.2606 C   0  0  0  0  0  0  0  0  0  0  0  0
  -29.9913  -21.8864   21.6827 C   0  0  0  0  0  0  0  0  0  0  0  0
  -30.0138  -19.6460   20.7789 C   0  0  0  0  0  0  0  0  0  0  0  0
  -21.9154   -8.4787   20.7471 C   0  0  0  0  0  0  0  0  0  0  0  0
  -25.1438  -13.9960   23.5363 C   0  0  0  0  0  0  0  0  0  0  0  0
  -25.7194  -14.5587   25.9569 C   0  0  0  0  0  0  0  0  0  0  0  0
  -25.4137  -33.2207   26.4783 C   0  0  0  0  0  0  0  0  0  0  0  0
  -25.8801  -29.9451   20.7141 C   0  0  0  0  0  0  0  0  0  0  0  0
  -25.6191  -32.0356   25.7463 C   0  0  0  0  0  0  0  0  0  0  0  0
  -25.3479  -28.6602   20.5356 C   0  0  0  0  0  0  0  0  0  0  0  0
  -31.3591  -21.3739   19.7584 C   0  0  0  0  0  0  0  0  0  0  0  0
  -30.8957  -22.2916   20.7012 C   0  0  0  0  0  0  0  0  0  0  0  0
  -29.5504  -20.5636   21.7216 C   0  0  0  0  0  0  0  0  0  0  0  0
  -24.4511  -12.2627   21.4630 C   0  0  0  0  0  0  0  0  0  0  0  0
  -27.5886  -27.7987   20.1521 C   0  0  0  0  0  0  0  0  0  0  0  0
  -23.6531  -10.1565   20.7928 C   0  0  0  0  0  0  0  0  0  0  0  0
  -22.7293   -7.6157   21.4809 C   0  0  0  0  0  0  0  0  0  0  0  0
  -30.9182  -20.0511   19.7972 C   0  0  0  0  0  0  0  0  0  0  0  0
  -22.3773   -9.7491   20.4031 C   0  0  0  0  0  0  0  0  0  0  0  0
  -25.5019  -14.8918   24.6065 C   0  0  0  0  0  0  0  0  0  0  0  0
  -26.0315  -15.7530   26.5591 C   0  0  0  0  0  0  0  0  0  0  0  0
  -32.7069  -23.9771   20.8174 C   0  0  0  0  0  0  0  0  0  0  0  0
  -25.6459  -13.2838   26.6087 C   0  0  0  0  0  0  0  0  0  0  0  0
  -23.7580  -30.3279   23.0494 C   0  0  0  0  0  0  0  0  0  0  0  0
  -21.6360  -29.5642   20.7179 C   0  0  0  0  0  0  0  0  0  0  0  0
  -21.0439  -28.0246   17.7303 C   0  0  0  0  0  0  0  0  0  0  0  0
  -28.0678  -20.9295   23.7336 C   0  0  0  0  0  0  0  0  0  0  0  0
  -24.0359  -33.6598   26.9067 C   0  0  0  0  0  0  0  0  0  0  0  0
  -24.9735  -31.1142   20.9854 C   0  0  0  0  0  0  0  0  0  0  0  0
  -23.8692  -28.3930   20.6390 C   0  0  0  0  0  0  0  0  0  0  0  0
  -22.9112  -32.9822   26.1283 C   0  0  0  0  0  0  0  0  0  0  0  0
  -25.0771  -20.4517   25.8517 C   0  0  0  0  0  0  0  0  0  0  0  0
  -23.1583  -31.4800   26.0319 C   0  0  0  0  0  0  0  0  0  0  0  0
  -24.9811  -18.9484   26.1166 C   0  0  0  0  0  0  0  0  0  0  0  0
  -26.5106  -20.9303   25.6678 C   0  0  0  0  0  0  0  0  0  0  0  0
  -30.3343  -24.7382   20.6436 C   0  0  0  0  0  0  0  0  0  0  0  0
  -26.8906  -18.7789   24.4440 C   0  0  0  0  0  0  0  0  0  0  0  0
  -32.0410  -26.0144   19.1847 C   0  0  0  0  0  0  0  0  0  0  0  0
  -24.4602  -31.1824   25.2783 C   0  0  1  0  0  0  0  0  0  0  0  0
  -23.6385  -30.7051   21.5999 C   0  0  1  0  0  0  0  0  0  0  0  0
  -30.5662  -25.7358   19.4925 C   0  0  2  0  0  0  0  0  0  0  0  0
  -26.2490  -18.1811   25.7059 C   0  0  2  0  0  0  0  0  0  0  0  0
  -32.3270  -21.7837   18.6960 C   0  0  0  0  0  0  0  0  0  0  0  0
  -19.2027  -27.5366   16.0965 C   0  0  0  0  0  0  0  0  0  0  0  0
  -20.5649  -27.3946   22.5768 C   0  0  0  0  0  0  0  0  0  0  0  0
  -19.4310  -26.3582   20.5999 C   0  0  0  0  0  0  0  0  0  0  0  0
  -18.8060  -28.6606   21.3286 C   0  0  0  0  0  0  0  0  0  0  0  0
  -22.4074  -29.5185   15.5697 C   0  0  0  0  0  0  0  0  0  0  0  0
  -29.8108  -27.0374   19.7807 C   0  0  0  0  0  0  0  0  0  1  0  0
  -21.0351  -28.2807   20.1978 C   0  0  1  0  0  0  0  0  0  0  0  0
  -20.3198  -28.4940   16.4813 C   0  0  2  0  0  0  0  0  0  0  0  0
  -19.9874  -27.6779   21.1757 C   0  0  0  0  0  0  0  0  0  0  0  0
  -25.6621  -16.1955   24.3647 N   0  0  0  0  0  0  0  0  0  0  0  0
  -25.9836  -16.6923   25.5714 N   0  0  0  0  0  0  0  0  0  0  0  0
  -31.3392  -23.6621   20.6777 N   0  0  0  0  0  0  0  0  0  0  0  0
  -23.0246  -29.5675   20.9119 N   0  0  0  0  0  0  0  0  0  0  0  0
  -27.1792  -20.2173   24.5755 N   0  0  0  0  0  0  0  0  0  0  0  0
  -26.3396  -16.0809   27.8319 N   0  0  0  0  0  0  0  0  0  0  0  0
  -26.8050  -12.4985   26.6731 N   0  0  0  0  0  0  0  0  0  0  0  0
  -28.6316  -20.1519   22.7190 N   0  0  0  0  0  0  0  0  0  0  0  0
  -24.2643  -31.3322   23.8522 N   0  0  0  0  0  0  0  0  0  0  0  0
  -20.5091  -28.5843   18.8713 N   0  0  0  0  0  0  0  0  0  0  0  0
  -21.2701  -28.5914   15.3374 N   0  3  0  0  0  0  0  0  0  0  0  0
  -33.6160  -23.1998   21.0874 O   0  0  0  0  0  0  0  0  0  0  0  0
  -24.5798  -12.8465   27.1045 O   0  0  0  0  0  0  0  0  0  0  0  0
  -23.4149  -29.2090   23.4129 O   0  0  0  0  0  0  0  0  0  0  0  0
  -20.9013  -30.5306   20.9370 O   0  0  0  0  0  0  0  0  0  0  0  0
  -21.9869  -27.2372   17.6973 O   0  0  0  0  0  0  0  0  0  0  0  0
  -28.2917  -22.1309   23.8970 O   0  0  0  0  0  0  0  0  0  0  0  0
  -24.1135  -11.4171   20.4513 O   0  0  0  0  0  0  0  0  0  0  0  0
  -28.4163  -26.7525   19.8835 O   0  0  0  0  0  0  0  0  0  1  0  0
  -22.2864   -6.3951   21.8100 F   0  0  0  0  0  0  0  0  0  0  0  0
  -31.3562  -19.1618   18.8950 F   0  0  0  0  0  0  0  0  0  0  0  0
  -21.5912  -10.5733   19.6970 F   0  0  0  0  0  0  0  0  0  0  0  0
  -33.1054  -25.6929   20.6130 S   0  0  0  0  0  0  0  0  0  0  0  0
  1  2  1  0  0  0  0
  1  5  2  0  0  0  0
  2  6  2  0  0  0  0
  3  8  2  0  0  0  0
  3 17  1  0  0  0  0
  4  9  1  0  0  0  0
  4 17  2  0  0  0  0
  5 19  1  0  0  0  0
  6 21  1  0  0  0  0
  7 10  2  0  0  0  0
  7 20  1  0  0  0  0
  8 26  1  0  0  0  0
  9 26  2  0  0  0  0
 10 27  1  0  0  0  0
 11 12  2  0  0  0  0
 11 28  1  0  0  0  0
 12 29  1  0  0  0  0
 13 22  1  0  0  0  0
 13 27  2  0  0  0  0
 14 24  1  0  0  0  0
 14 25  2  0  0  0  0
 15 25  1  0  0  0  0
 15 30  2  0  0  0  0
 16 29  2  0  0  0  0
 16 31  1  0  0  0  0
 17 32  1  0  0  0  0
 18 32  1  0  0  0  0
 18 33  2  0  0  0  0
 18 35  1  0  0  0  0
 19 21  2  0  0  0  0
 19 40  1  0  0  0  0
 20 22  2  0  0  0  0
 20 41  1  0  0  0  0
 21 51  1  0  0  0  0
 22 42  1  0  0  0  0
 23 24  2  0  0  0  0
 23 30  1  0  0  0  0
 23 55  1  0  0  0  0
 24 67  1  0  0  0  0
 25 72  1  0  0  0  0
 26 82  1  0  0  0  0
 27 83  1  0  0  0  0
 28 31  2  0  0  0  0
 28 82  1  0  0  0  0
 29 84  1  0  0  0  0
 30 85  1  0  0  0  0
 31 86  1  0  0  0  0
 32 65  2  0  0  0  0
 33 66  1  0  0  0  0
 33 70  1  0  0  0  0
 34 67  1  0  0  0  0
 34 76  2  0  0  0  0
 34 87  1  0  0  0  0
 35 71  1  0  0  0  0
 35 77  2  0  0  0  0
 36 52  1  0  0  0  0
 36 73  1  0  0  0  0
 36 78  2  0  0  0  0
 37 62  1  0  0  0  0
 37 68  1  0  0  0  0
 37 79  2  0  0  0  0
 38 63  1  0  0  0  0
 38 74  1  0  0  0  0
 38 80  2  0  0  0  0
 39 69  1  0  0  0  0
 39 72  1  0  0  0  0
 39 81  2  0  0  0  0
 40 43  1  0  0  0  0
 41 52  1  0  0  0  0
 42 68  1  0  0  0  0
 43 45  1  0  0  0  0
 44 46  1  0  0  0  0
 44 47  1  0  0  0  0
 45 51  1  0  0  0  0
 46 54  1  0  0  0  0
 47 69  1  0  0  0  0
 48 53  1  0  0  0  0
 48 67  1  0  0  0  0
 49 54  1  0  0  0  0
 49 69  1  0  0  0  0
 50 53  1  0  0  0  0
 50 87  1  0  0  0  0
 51 73  1  0  0  0  0
 52 68  1  0  0  0  0
 53 61  1  0  0  0  0
 54 66  1  0  0  0  0
 56 63  1  0  0  0  0
 57 64  1  0  0  0  0
 58 64  1  0  0  0  0
 59 64  1  0  0  0  0
 60 75  1  0  0  0  0
 61 83  1  0  0  0  0
 62 64  1  0  0  0  0
 62 74  1  0  0  0  0
 63 75  1  0  0  0  0
 65 66  1  0  0  0  0
M  CHG  1  75   1
M  ISO  4  39 100  61 101  72 100  83 101
M  END
> <Batch ID>
0060

> <Smiles>
CNC(C)C(=O)NC(C(=O)N1Cc2cc([101O:1][101CH2:1]C3CSC(=O)N(c4cc([100NH:0][100C:0](=O)N5CCCC(n6nc(-c7ccc(Oc8ccc(F)cc8F)cc7)c(C(N)=O)c6N)C5)cc(F)c4C)C3)ccc2CC1C(=O)NC1CCCc2ccccc21)C(C)(C)C

> <Shape>
0.245

> <Color>
0.077

> <Negative vol penalty>
0.000

$$$$

  -OEChem-04042323043D

 87 96  0     1  0  0  0  0  0999 V2000
  -17.7441  -24.9768   32.0815 C   0  0  0  0  0  0  0  0  0  0  0  0
  -18.8722  -24.8344   31.2799 C   0  0  0  0  0  0  0  0  0  0  0  0
  -23.0009   -9.8936   19.9807 C   0  0  0  0  0  0  0  0  0  0  0  0
  -23.7253   -9.9447   22.2849 C   0  0  0  0  0  0  0  0  0  0  0  0
  -17.0706  -23.8464   32.5424 C   0  0  0  0  0  0  0  0  0  0  0  0
  -19.3281  -23.5613   30.9396 C   0  0  0  0  0  0  0  0  0  0  0  0
  -21.9432  -21.8754   25.6647 C   0  0  0  0  0  0  0  0  0  0  0  0
  -22.2342   -8.7591   20.2468 C   0  0  0  0  0  0  0  0  0  0  0  0
  -22.9586   -8.8103   22.5511 C   0  0  0  0  0  0  0  0  0  0  0  0
  -23.2751  -21.6994   25.2923 C   0  0  0  0  0  0  0  0  0  0  0  0
  -23.2028   -5.4713   22.0796 C   0  0  0  0  0  0  0  0  0  0  0  0
  -23.7901   -4.4541   22.8320 C   0  0  0  0  0  0  0  0  0  0  0  0
  -23.0824  -19.3372   25.7414 C   0  0  0  0  0  0  0  0  0  0  0  0
  -28.4581  -21.4865   24.7691 C   0  0  0  0  0  0  0  0  0  0  0  0
  -29.5385  -17.8637   22.3152 C   0  0  0  0  0  0  0  0  0  0  0  0
  -31.1933  -17.6057   20.5739 C   0  0  0  0  0  0  0  0  0  0  0  0
  -22.0657   -4.6973   24.5066 C   0  0  0  0  0  0  0  0  0  0  0  0
  -23.7465  -10.4863   20.9997 C   0  0  0  0  0  0  0  0  0  0  0  0
  -24.1320  -13.0019   20.8236 C   0  0  0  0  0  0  0  0  0  0  0  0
  -17.5128  -22.5589   32.1996 C   0  0  0  0  0  0  0  0  0  0  0  0
  -21.1727  -20.7834   26.0894 C   0  0  0  0  0  0  0  0  0  0  0  0
  -18.6606  -22.4125   31.3975 C   0  0  0  0  0  0  0  0  0  0  0  0
  -21.7402  -19.5015   26.1163 C   0  0  0  0  0  0  0  0  0  0  0  0
  -27.2608  -21.0167   24.1751 C   0  0  0  0  0  0  0  0  0  0  0  0
  -30.6516  -19.8071   21.4091 C   0  0  0  0  0  0  0  0  0  0  0  0
  -29.7290  -19.2452   22.2916 C   0  0  0  0  0  0  0  0  0  0  0  0
  -30.2707  -17.0439   21.4564 C   0  0  0  0  0  0  0  0  0  0  0  0
  -22.2130   -8.2175   21.5321 C   0  0  0  0  0  0  0  0  0  0  0  0
  -23.8458  -20.4307   25.3334 C   0  0  0  0  0  0  0  0  0  0  0  0
  -22.0470   -6.1015   22.5408 C   0  0  0  0  0  0  0  0  0  0  0  0
  -23.2215   -4.0671   24.0455 C   0  0  0  0  0  0  0  0  0  0  0  0
  -21.4784   -5.7145   23.7542 C   0  0  0  0  0  0  0  0  0  0  0  0
  -31.3838  -18.9873   20.5502 C   0  0  0  0  0  0  0  0  0  0  0  0
  -24.5391  -11.6579   20.7252 C   0  0  0  0  0  0  0  0  0  0  0  0
  -25.2419  -13.7244   20.4595 C   0  0  0  0  0  0  0  0  0  0  0  0
  -29.5070  -20.8698   24.1236 C   0  0  0  0  0  0  0  0  0  0  0  0
  -27.6145  -20.1270   23.1847 C   0  0  0  0  0  0  0  0  0  0  0  0
  -22.8640  -13.5484   21.2096 C   0  0  0  0  0  0  0  0  0  0  0  0
  -19.6779  -20.0059   28.7848 C   0  0  0  0  0  0  0  0  0  0  0  0
  -18.5941  -17.5177   27.0080 C   0  0  0  0  0  0  0  0  0  0  0  0
  -19.0492  -15.4581   24.3252 C   0  0  0  0  0  0  0  0  0  0  0  0
  -30.7214  -14.6851   20.6951 C   0  0  0  0  0  0  0  0  0  0  0  0
  -16.7797  -21.3662   32.7607 C   0  0  0  0  0  0  0  0  0  0  0  0
  -19.7296  -20.9856   26.4624 C   0  0  0  0  0  0  0  0  0  0  0  0
  -20.9499  -18.2932   26.5453 C   0  0  0  0  0  0  0  0  0  0  0  0
  -17.1083  -20.0579   32.0461 C   0  0  0  0  0  0  0  0  0  0  0  0
  -29.6037  -12.2321   18.3690 C   0  0  0  0  0  0  0  0  0  0  0  0
  -18.6154  -19.9162   31.8581 C   0  0  0  0  0  0  0  0  0  0  0  0
  -28.1530  -11.9746   18.7828 C   0  0  0  0  0  0  0  0  0  0  0  0
  -30.5038  -12.4756   19.5791 C   0  0  0  0  0  0  0  0  0  0  0  0
  -28.5881  -13.2647   20.9119 C   0  0  0  0  0  0  0  0  0  0  0  0
  -19.1715  -21.0487   30.9864 C   0  0  1  0  0  0  0  0  0  0  0  0
  -19.1872  -19.8856   27.3697 C   0  0  1  0  0  0  0  0  0  0  0  0
  -27.6308  -13.0783   19.7234 C   0  0  2  0  0  0  0  0  0  0  0  0
  -30.8467  -21.2929   21.3939 C   0  0  0  0  0  0  0  0  0  0  0  0
  -18.0167  -13.4953   23.1511 C   0  0  0  0  0  0  0  0  0  0  0  0
  -19.6352  -15.6640   29.1966 C   0  0  0  0  0  0  0  0  0  0  0  0
  -19.4496  -13.7630   27.5779 C   0  0  0  0  0  0  0  0  0  0  0  0
  -17.4071  -15.0228   28.2590 C   0  0  0  0  0  0  0  0  0  0  0  0
  -18.6729  -17.0019   21.8284 C   0  0  0  0  0  0  0  0  0  0  0  0
  -25.8666  -21.4169   24.5590 C   0  0  0  0  0  0  0  0  0  1  0  0
  -19.0829  -16.1196   26.7160 C   0  0  1  0  0  0  0  0  0  0  0  0
  -18.1023  -15.0118   23.2259 C   0  0  2  0  0  0  0  0  0  0  0  0
  -18.9094  -15.1652   27.9311 C   0  0  0  0  0  0  0  0  0  0  0  0
  -25.8085  -11.5312   20.3294 N   0  0  0  0  0  0  0  0  0  0  0  0
  -28.9823  -20.0454   23.1626 N   0  0  0  0  0  0  0  0  0  0  0  0
  -26.2086  -12.8050   20.1758 N   0  0  0  0  0  0  0  0  0  0  0  0
  -19.5447  -18.5433   26.9064 N   0  0  0  0  0  0  0  0  0  0  0  0
  -29.9486  -13.5366   20.4221 N   0  0  0  0  0  0  0  0  0  0  0  0
  -25.4755  -15.0500   20.3573 N   0  0  0  0  0  0  0  0  0  0  0  0
  -21.8320  -12.6643   21.5529 N   0  0  0  0  0  0  0  0  0  0  0  0
  -30.0769  -15.6404   21.4804 N   0  0  0  0  0  0  0  0  0  0  0  0
  -18.8836  -20.7996   29.5901 N   0  0  0  0  0  0  0  0  0  0  0  0
  -18.3837  -15.6861   25.5111 N   0  0  0  0  0  0  0  0  0  0  0  0
  -18.5655  -15.5221   21.9045 N   0  3  0  0  0  0  0  0  0  0  0  0
  -22.6473  -14.7837   21.2332 O   0  0  0  0  0  0  0  0  0  0  0  0
  -20.7005  -19.4207   29.1214 O   0  0  0  0  0  0  0  0  0  0  0  0
  -17.4107  -17.6943   27.3081 O   0  0  0  0  0  0  0  0  0  0  0  0
  -20.2589  -15.5876   24.1505 O   0  0  0  0  0  0  0  0  0  0  0  0
  -31.8602  -14.8239   20.2414 O   0  0  0  0  0  0  0  0  0  0  0  0
  -30.8167  -20.9772   24.3126 O   0  0  0  0  0  0  0  0  0  0  0  0
  -26.8628  -19.4203   22.3482 O   0  0  0  0  0  0  0  0  0  0  0  0
  -21.4648   -7.1107   21.7922 O   0  0  0  0  0  0  0  0  0  0  0  0
  -25.1458  -20.2562   24.9710 O   0  0  0  0  0  0  0  0  0  1  0  0
  -23.7847   -3.0892   24.7672 F   0  0  0  0  0  0  0  0  0  0  0  0
  -20.3675   -6.3155   24.2019 F   0  0  0  0  0  0  0  0  0  0  0  0
  -32.6510  -19.6991   19.3303 Br  0  0  0  0  0  0  0  0  0  0  0  0
  1  2  1  0  0  0  0
  1  5  2  0  0  0  0
  2  6  2  0  0  0  0
  3  8  2  0  0  0  0
  3 18  1  0  0  0  0
  4  9  1  0  0  0  0
  4 18  2  0  0  0  0
  5 20  1  0  0  0  0
  6 22  1  0  0  0  0
  7 10  2  0  0  0  0
  7 21  1  0  0  0  0
  8 28  1  0  0  0  0
  9 28  2  0  0  0  0
 10 29  1  0  0  0  0
 11 12  2  0  0  0  0
 11 30  1  0  0  0  0
 12 31  1  0  0  0  0
 13 23  1  0  0  0  0
 13 29  2  0  0  0  0
 14 24  1  0  0  0  0
 14 36  2  0  0  0  0
 15 26  1  0  0  0  0
 15 27  2  0  0  0  0
 16 27  1  0  0  0  0
 16 33  2  0  0  0  0
 17 31  2  0  0  0  0
 17 32  1  0  0  0  0
 18 34  1  0  0  0  0
 19 34  1  0  0  0  0
 19 35  2  0  0  0  0
 19 38  1  0  0  0  0
 20 22  2  0  0  0  0
 20 43  1  0  0  0  0
 21 23  2  0  0  0  0
 21 44  1  0  0  0  0
 22 52  1  0  0  0  0
 23 45  1  0  0  0  0
 24 37  2  0  0  0  0
 24 61  1  0  0  0  0
 25 26  2  0  0  0  0
 25 33  1  0  0  0  0
 25 55  1  0  0  0  0
 26 66  1  0  0  0  0
 27 72  1  0  0  0  0
 28 83  1  0  0  0  0
 29 84  1  0  0  0  0
 30 32  2  0  0  0  0
 30 83  1  0  0  0  0
 31 85  1  0  0  0  0
 32 86  1  0  0  0  0
 33 87  1  0  0  0  0
 34 65  2  0  0  0  0
 35 67  1  0  0  0  0
 35 70  1  0  0  0  0
 36 66  1  0  0  0  0
 36 81  1  0  0  0  0
 37 66  1  0  0  0  0
 37 82  1  0  0  0  0
 38 71  1  0  0  0  0
 38 76  2  0  0  0  0
 39 53  1  0  0  0  0
 39 73  1  0  0  0  0
 39 77  2  0  0  0  0
 40 62  1  0  0  0  0
 40 68  1  0  0  0  0
 40 78  2  0  0  0  0
 41 63  1  0  0  0  0
 41 74  1  0  0  0  0
 41 79  2  0  0  0  0
 42 69  1  0  0  0  0
 42 72  1  0  0  0  0
 42 80  2  0  0  0  0
 43 46  1  0  0  0  0
 44 53  1  0  0  0  0
 45 68  1  0  0  0  0
 46 48  1  0  0  0  0
 47 49  1  0  0  0  0
 47 50  1  0  0  0  0
 48 52  1  0  0  0  0
 49 54  1  0  0  0  0
 50 69  1  0  0  0  0
 51 54  1  0  0  0  0
 51 69  1  0  0  0  0
 52 73  1  0  0  0  0
 53 68  1  0  0  0  0
 54 67  1  0  0  0  0
 56 63  1  0  0  0  0
 57 64  1  0  0  0  0
 58 64  1  0  0  0  0
 59 64  1  0  0  0  0
 60 75  1  0  0  0  0
 61 84  1  0  0  0  0
 62 64  1  0  0  0  0
 62 74  1  0  0  0  0
 63 75  1  0  0  0  0
 65 67  1  0  0  0  0
M  CHG  1  75   1
M  ISO  4  42 100  61 101  72 100  84 101
M  END
> <Batch ID>
0060

> <Smiles>
CNC(C)C(=O)NC(C(=O)N1Cc2cc([101O:1][101CH2:1]C3CC(=O)N(c4cc([100NH:0][100C:0](=O)N5CCCC(n6nc(-c7ccc(Oc8ccc(F)cc8F)cc7)c(C(N)=O)c6N)C5)cc(Br)c4C)C3=O)ccc2CC1C(=O)NC1CCCc2ccccc21)C(C)(C)C

> <Shape>
0.181

> <Color>
0.182

> <Negative vol penalty>
0.000

$$$$

  -OEChem-04042323043D

 83 91  0     1  0  0  0  0  0999 V2000
  -18.3859  -26.2751   25.3213 C   0  0  0  0  0  0  0  0  0  0  0  0
  -19.3082  -25.7805   24.4047 C   0  0  0  0  0  0  0  0  0  0  0  0
  -27.2714  -16.6746   15.5074 C   0  0  0  0  0  0  0  0  0  0  0  0
  -23.0173  -10.0717   19.9809 C   0  0  0  0  0  0  0  0  0  0  0  0
  -23.6903   -9.9574   22.2985 C   0  0  0  0  0  0  0  0  0  0  0  0
  -28.1793  -15.6821   15.8766 C   0  0  0  0  0  0  0  0  0  0  0  0
  -17.8753  -27.5634   25.1687 C   0  0  0  0  0  0  0  0  0  0  0  0
  -19.7196  -26.5737   23.3342 C   0  0  0  0  0  0  0  0  0  0  0  0
  -24.7301  -26.4206   22.6156 C   0  0  0  0  0  0  0  0  0  0  0  0
  -27.0123  -17.7390   16.3708 C   0  0  0  0  0  0  0  0  0  0  0  0
  -22.2096   -8.9487   20.1601 C   0  0  0  0  0  0  0  0  0  0  0  0
  -22.8825   -8.8344   22.4777 C   0  0  0  0  0  0  0  0  0  0  0  0
  -25.2470  -25.2969   21.9723 C   0  0  0  0  0  0  0  0  0  0  0  0
  -21.2771   -5.7237   23.4552 C   0  0  0  0  0  0  0  0  0  0  0  0
  -21.8132   -4.6448   24.1581 C   0  0  0  0  0  0  0  0  0  0  0  0
  -25.3613  -26.5390   19.9075 C   0  0  0  0  0  0  0  0  0  0  0  0
  -23.5691   -4.4441   22.5108 C   0  0  0  0  0  0  0  0  0  0  0  0
  -23.7578  -10.5760   21.0501 C   0  0  0  0  0  0  0  0  0  0  0  0
  -28.8281  -15.7540   17.1093 C   0  0  0  0  0  0  0  0  0  0  0  0
  -24.2260  -13.0836   21.0387 C   0  0  0  0  0  0  0  0  0  0  0  0
  -18.2879  -28.3763   24.1012 C   0  0  0  0  0  0  0  0  0  0  0  0
  -24.5143  -27.6107   21.9060 C   0  0  0  0  0  0  0  0  0  0  0  0
  -19.2130  -27.8737   23.1663 C   0  0  0  0  0  0  0  0  0  0  0  0
  -24.8439  -27.6772   20.5447 C   0  0  0  0  0  0  0  0  0  0  0  0
  -28.5689  -16.8183   17.9728 C   0  0  0  0  0  0  0  0  0  0  0  0
  -27.6610  -17.8109   17.6035 C   0  0  0  0  0  0  0  0  0  0  0  0
  -22.1421   -8.3301   21.4084 C   0  0  0  0  0  0  0  0  0  0  0  0
  -25.5600  -25.3551   20.6174 C   0  0  0  0  0  0  0  0  0  0  0  0
  -21.8869   -6.1628   22.2800 C   0  0  0  0  0  0  0  0  0  0  0  0
  -22.9593   -4.0050   23.6859 C   0  0  0  0  0  0  0  0  0  0  0  0
  -23.0329   -5.5230   21.8078 C   0  0  0  0  0  0  0  0  0  0  0  0
  -24.5928  -11.7356   20.8655 C   0  0  0  0  0  0  0  0  0  0  0  0
  -25.3660  -13.7904   20.7434 C   0  0  0  0  0  0  0  0  0  0  0  0
  -26.4984  -20.9024   19.3877 C   0  0  0  0  0  0  0  0  0  0  0  0
  -25.7193  -21.9926   19.3661 C   0  0  0  0  0  0  0  0  0  0  0  0
  -29.7788  -14.6941   17.4692 C   0  0  0  0  0  0  0  0  0  0  0  0
  -22.9672  -13.6466   21.4315 C   0  0  0  0  0  0  0  0  0  0  0  0
  -26.5096  -19.9555   18.2332 C   0  0  0  0  0  0  0  0  0  0  0  0
  -21.9649  -29.3782   21.2129 C   0  0  0  0  0  0  0  0  0  0  0  0
  -24.1853  -31.4041   19.9931 C   0  0  0  0  0  0  0  0  0  0  0  0
  -27.3119  -31.8346   18.6947 C   0  0  0  0  0  0  0  0  0  0  0  0
  -17.6723  -29.7450   23.9509 C   0  0  0  0  0  0  0  0  0  0  0  0
  -23.9811  -28.8220   22.6207 C   0  0  0  0  0  0  0  0  0  0  0  0
  -24.6500  -28.9370   19.7425 C   0  0  0  0  0  0  0  0  0  0  0  0
  -18.4425  -30.6582   23.0005 C   0  0  0  0  0  0  0  0  0  0  0  0
  -30.1278  -12.2397   20.0374 C   0  0  0  0  0  0  0  0  0  0  0  0
  -18.7963  -29.9154   21.7160 C   0  0  0  0  0  0  0  0  0  0  0  0
  -28.6875  -11.9837   20.4850 C   0  0  0  0  0  0  0  0  0  0  0  0
  -30.2125  -12.5074   18.5369 C   0  0  0  0  0  0  0  0  0  0  0  0
  -27.8854  -13.3369   18.5035 C   0  0  0  0  0  0  0  0  0  0  0  0
  -19.7024  -28.7127   22.0059 C   0  0  1  0  0  0  0  0  0  0  0  0
  -23.3200  -29.8267   21.6821 C   0  0  1  0  0  0  0  0  0  0  0  0
  -27.7495  -13.1128   20.0186 C   0  0  1  0  0  0  0  0  0  0  0  0
  -29.2662  -16.8951   19.2956 C   0  0  0  0  0  0  0  0  0  0  0  0
  -28.8282  -33.5986   17.7531 C   0  0  0  0  0  0  0  0  0  0  0  0
  -22.6018  -31.3698   17.3851 C   0  0  0  0  0  0  0  0  0  0  0  0
  -24.6061  -32.3352   16.2367 C   0  0  0  0  0  0  0  0  0  0  0  0
  -23.4702  -33.6192   18.0488 C   0  0  0  0  0  0  0  0  0  0  0  0
  -29.3249  -31.4036   20.8209 C   0  0  0  0  0  0  0  0  0  0  0  0
  -25.6652  -22.9830   20.4843 C   0  0  0  0  0  0  0  0  0  1  0  0
  -24.8443  -31.5830   18.6468 C   0  0  1  0  0  0  0  0  0  0  0  0
  -28.4004  -32.8465   19.0038 C   0  0  2  0  0  0  0  0  0  0  0  0
  -23.8826  -32.2023   17.5937 C   0  0  0  0  0  0  0  0  0  0  0  0
  -25.8663  -11.5920   20.4892 N   0  0  0  0  0  0  0  0  0  0  0  0
  -26.3096  -12.8590   20.4234 N   0  0  0  0  0  0  0  0  0  0  0  0
  -29.2916  -13.5752   18.1489 N   0  0  0  0  0  0  0  0  0  0  0  0
  -24.1200  -30.0927   20.4848 N   0  0  0  0  0  0  0  0  0  0  0  0
  -25.6434  -15.1115   20.7288 N   0  0  0  0  0  0  0  0  0  0  0  0
  -21.9005  -12.7774   21.6977 N   0  0  0  0  0  0  0  0  0  0  0  0
  -27.3829  -18.9007   18.4646 N   0  0  0  0  0  0  0  0  0  0  0  0
  -21.0633  -29.1488   22.2346 N   0  0  0  0  0  0  0  0  0  0  0  0
  -26.0531  -32.3644   18.8846 N   0  0  0  0  0  0  0  0  0  0  0  0
  -29.5961  -32.1634   19.5735 N   0  3  0  0  0  0  0  0  0  0  0  0
  -30.9512  -14.8840   17.1488 O   0  0  0  0  0  0  0  0  0  0  0  0
  -22.7890  -14.8846   21.5273 O   0  0  0  0  0  0  0  0  0  0  0  0
  -25.8124  -20.1493   17.2444 O   0  0  0  0  0  0  0  0  0  0  0  0
  -21.7526  -29.2511   20.0127 O   0  0  0  0  0  0  0  0  0  0  0  0
  -23.7510  -32.3925   20.5899 O   0  0  0  0  0  0  0  0  0  0  0  0
  -27.5540  -30.6899   18.3186 O   0  0  0  0  0  0  0  0  0  0  0  0
  -21.3538   -7.2345   21.5837 O   0  0  0  0  0  0  0  0  0  0  0  0
  -26.0641  -24.2596   19.9869 O   0  0  0  0  0  0  0  0  0  1  0  0
  -23.4749   -2.9700   24.3619 F   0  0  0  0  0  0  0  0  0  0  0  0
  -23.6239   -5.9411   20.6801 F   0  0  0  0  0  0  0  0  0  0  0  0
  1  2  1  0  0  0  0
  1  7  2  0  0  0  0
  2  8  2  0  0  0  0
  3  6  1  0  0  0  0
  3 10  2  0  0  0  0
  4 11  2  0  0  0  0
  4 18  1  0  0  0  0
  5 12  1  0  0  0  0
  5 18  2  0  0  0  0
  6 19  2  0  0  0  0
  7 21  1  0  0  0  0
  8 23  1  0  0  0  0
  9 13  2  0  0  0  0
  9 22  1  0  0  0  0
 10 26  1  0  0  0  0
 11 27  1  0  0  0  0
 12 27  2  0  0  0  0
 13 28  1  0  0  0  0
 14 15  2  0  0  0  0
 14 29  1  0  0  0  0
 15 30  1  0  0  0  0
 16 24  1  0  0  0  0
 16 28  2  0  0  0  0
 17 30  2  0  0  0  0
 17 31  1  0  0  0  0
 18 32  1  0  0  0  0
 19 25  1  0  0  0  0
 19 36  1  0  0  0  0
 20 32  1  0  0  0  0
 20 33  2  0  0  0  0
 20 37  1  0  0  0  0
 21 23  2  0  0  0  0
 21 42  1  0  0  0  0
 22 24  2  0  0  0  0
 22 43  1  0  0  0  0
 23 51  1  0  0  0  0
 24 44  1  0  0  0  0
 25 26  2  0  0  0  0
 25 54  1  0  0  0  0
 26 70  1  0  0  0  0
 27 80  1  0  0  0  0
 28 81  1  0  0  0  0
 29 31  2  0  0  0  0
 29 80  1  0  0  0  0
 30 82  1  0  0  0  0
 31 83  1  0  0  0  0
 32 64  2  0  0  0  0
 33 65  1  0  0  0  0
 33 68  1  0  0  0  0
 34 35  2  0  0  0  0
 34 38  1  0  0  0  0
 35 60  1  0  0  0  0
 36 66  1  0  0  0  0
 36 74  2  0  0  0  0
 37 69  1  0  0  0  0
 37 75  2  0  0  0  0
 38 70  1  0  0  0  0
 38 76  2  0  0  0  0
 39 52  1  0  0  0  0
 39 71  1  0  0  0  0
 39 77  2  0  0  0  0
 40 61  1  0  0  0  0
 40 67  1  0  0  0  0
 40 78  2  0  0  0  0
 41 62  1  0  0  0  0
 41 72  1  0  0  0  0
 41 79  2  0  0  0  0
 42 45  1  0  0  0  0
 43 52  1  0  0  0  0
 44 67  1  0  0  0  0
 45 47  1  0  0  0  0
 46 48  1  0  0  0  0
 46 49  1  0  0  0  0
 47 51  1  0  0  0  0
 48 53  1  0  0  0  0
 49 66  1  0  0  0  0
 50 53  1  0  0  0  0
 50 66  1  0  0  0  0
 51 71  1  0  0  0  0
 52 67  1  0  0  0  0
 53 65  1  0  0  0  0
 55 62  1  0  0  0  0
 56 63  1  0  0  0  0
 57 63  1  0  0  0  0
 58 63  1  0  0  0  0
 59 73  1  0  0  0  0
 60 81  1  0  0  0  0
 61 63  1  0  0  0  0
 61 72  1  0  0  0  0
 62 73  1  0  0  0  0
 64 65  1  0  0  0  0
M  CHG  1  73   1
M  ISO  4  19 100  36 100  60 101  81 101
M  END
> <Batch ID>
0060

> <Smiles>
CNC(C)C(=O)NC(C(=O)N1Cc2cc([101O:1][101CH2:1]C=CC(=O)Nc3ccc[100c:0]([100C:0](=O)N4CCCC(n5nc(-c6ccc(Oc7ccc(F)cc7F)cc6)c(C(N)=O)c5N)C4)c3C)ccc2CC1C(=O)NC1CCCc2ccccc21)C(C)(C)C

> <Shape>
0.262

> <Color>
0.204

> <Negative vol penalty>
0.000

$$$$

  -OEChem-04042323043D

 87 95  0     1  0  0  0  0  0999 V2000
  -27.0652  -37.5118   22.7284 C   0  0  0  0  0  0  0  0  0  0  0  0
  -27.6634  -36.3407   22.2744 C   0  0  0  0  0  0  0  0  0  0  0  0
  -26.4377  -10.9767   18.2694 C   0  0  0  0  0  0  0  0  0  0  0  0
  -27.8654  -11.6069   20.1137 C   0  0  0  0  0  0  0  0  0  0  0  0
  -25.9729  -37.4457   23.5924 C   0  0  0  0  0  0  0  0  0  0  0  0
  -27.1703  -35.1027   22.6851 C   0  0  0  0  0  0  0  0  0  0  0  0
  -26.9714  -29.9429   19.3924 C   0  0  0  0  0  0  0  0  0  0  0  0
  -28.0677  -19.7044   24.3761 C   0  0  0  0  0  0  0  0  0  0  0  0
  -27.1574  -18.8343   23.7762 C   0  0  0  0  0  0  0  0  0  0  0  0
  -27.5094  -10.3205   17.6640 C   0  0  0  0  0  0  0  0  0  0  0  0
  -28.9371  -10.9507   19.5084 C   0  0  0  0  0  0  0  0  0  0  0  0
  -27.8025  -28.8242   19.3506 C   0  0  0  0  0  0  0  0  0  0  0  0
  -30.2378  -11.1548   15.8518 C   0  0  0  0  0  0  0  0  0  0  0  0
  -30.4343  -11.3597   14.4862 C   0  0  0  0  0  0  0  0  0  0  0  0
  -26.3351  -27.6842   20.8888 C   0  0  0  0  0  0  0  0  0  0  0  0
  -26.2940  -20.6557   22.4443 C   0  0  0  0  0  0  0  0  0  0  0  0
  -30.1564   -8.9925   14.0910 C   0  0  0  0  0  0  0  0  0  0  0  0
  -26.6157  -11.6199   19.4943 C   0  0  0  0  0  0  0  0  0  0  0  0
  -24.5799  -11.7529   21.0258 C   0  0  0  0  0  0  0  0  0  0  0  0
  -25.4602  -36.2061   24.0063 C   0  0  0  0  0  0  0  0  0  0  0  0
  -25.8199  -29.9446   20.1925 C   0  0  0  0  0  0  0  0  0  0  0  0
  -26.0710  -35.0200   23.5566 C   0  0  0  0  0  0  0  0  0  0  0  0
  -25.4898  -28.8031   20.9370 C   0  0  0  0  0  0  0  0  0  0  0  0
  -28.0911  -21.0502   24.0101 C   0  0  0  0  0  0  0  0  0  0  0  0
  -26.2706  -19.3099   22.8103 C   0  0  0  0  0  0  0  0  0  0  0  0
  -28.7590  -10.3075   18.2835 C   0  0  0  0  0  0  0  0  0  0  0  0
  -27.4860  -27.6957   20.1011 C   0  0  0  0  0  0  0  0  0  0  0  0
  -30.0007   -9.8688   16.3371 C   0  0  0  0  0  0  0  0  0  0  0  0
  -30.3936  -10.2786   13.6058 C   0  0  0  0  0  0  0  0  0  0  0  0
  -29.9599   -8.7876   15.4567 C   0  0  0  0  0  0  0  0  0  0  0  0
  -27.2043  -21.5259   23.0442 C   0  0  0  0  0  0  0  0  0  0  0  0
  -25.5092  -12.2984   20.1199 C   0  0  0  0  0  0  0  0  0  0  0  0
  -23.7371  -12.7959   21.3229 C   0  0  0  0  0  0  0  0  0  0  0  0
  -24.4870  -10.4223   21.5518 C   0  0  0  0  0  0  0  0  0  0  0  0
  -24.8141  -31.6597   22.6726 C   0  0  0  0  0  0  0  0  0  0  0  0
  -22.0864  -29.9567   22.2465 C   0  0  0  0  0  0  0  0  0  0  0  0
  -20.5916  -27.1318   21.0495 C   0  0  0  0  0  0  0  0  0  0  0  0
  -24.3987  -18.7337   21.2258 C   0  0  0  0  0  0  0  0  0  0  0  0
  -24.3074  -36.1855   24.9786 C   0  0  0  0  0  0  0  0  0  0  0  0
  -24.9195  -31.1494   20.2059 C   0  0  0  0  0  0  0  0  0  0  0  0
  -24.2541  -28.7468   21.7963 C   0  0  0  0  0  0  0  0  0  0  0  0
  -23.6112  -34.8300   25.0692 C   0  0  0  0  0  0  0  0  0  0  0  0
  -21.9691  -16.8325   19.4483 C   0  0  0  0  0  0  0  0  0  0  0  0
  -24.6387  -33.7093   25.1925 C   0  0  0  0  0  0  0  0  0  0  0  0
  -22.5136  -15.4034   19.5065 C   0  0  0  0  0  0  0  0  0  0  0  0
  -23.0895  -17.8608   19.3026 C   0  0  0  0  0  0  0  0  0  0  0  0
  -24.7036  -16.3304   20.3618 C   0  0  0  0  0  0  0  0  0  0  0  0
  -25.5495  -33.6578   23.9600 C   0  0  1  0  0  0  0  0  0  0  0  0
  -24.0467  -31.2293   21.4546 C   0  0  1  0  0  0  0  0  0  0  0  0
  -23.6169  -15.2637   20.5736 C   0  0  2  0  0  0  0  0  0  0  0  0
  -29.0787  -21.9552   24.6712 C   0  0  0  0  0  0  0  0  0  0  0  0
  -30.7909  -25.6222   21.9046 C   0  0  0  0  0  0  0  0  0  0  0  0
  -18.3550  -26.0062   20.8826 C   0  0  0  0  0  0  0  0  0  0  0  0
  -22.2627  -29.1751   25.1906 C   0  0  0  0  0  0  0  0  0  0  0  0
  -20.6121  -27.3491   24.7328 C   0  0  0  0  0  0  0  0  0  0  0  0
  -19.9580  -29.7326   24.3955 C   0  0  0  0  0  0  0  0  0  0  0  0
  -28.6314  -23.5310   19.3985 C   0  0  0  0  0  0  0  0  0  0  0  0
  -20.6689  -27.1594   18.0911 C   0  0  0  0  0  0  0  0  0  0  0  0
  -30.3719  -24.8163   20.6795 C   0  0  0  0  0  0  0  0  0  0  0  0
  -27.9111  -25.4811   20.8566 C   0  0  0  0  0  0  0  0  0  1  0  0
  -21.5542  -28.6428   22.7656 C   0  0  1  0  0  0  0  0  0  0  0  0
  -19.3496  -26.9322   20.1998 C   0  0  2  0  0  0  0  0  0  0  0  0
  -21.1212  -28.7263   24.2565 C   0  0  0  0  0  0  0  0  0  0  0  0
  -28.9073  -24.3221   20.6862 C   0  0  1  0  0  0  0  0  0  0  0  0
  -25.2785  -13.5878   19.8585 N   0  0  0  0  0  0  0  0  0  0  0  0
  -24.1947  -13.8612   20.6046 N   0  0  0  0  0  0  0  0  0  0  0  0
  -23.4089  -29.9522   21.7810 N   0  0  0  0  0  0  0  0  0  0  0  0
  -24.0956  -17.6702   20.3496 N   0  0  0  0  0  0  0  0  0  0  0  0
  -22.6566  -12.8966   22.1259 N   0  0  0  0  0  0  0  0  0  0  0  0
  -25.4340   -9.4741   21.1417 N   0  0  0  0  0  0  0  0  0  0  0  0
  -25.3467  -18.4252   22.2009 N   0  0  0  0  0  0  0  0  0  0  0  0
  -24.8643  -33.0290   22.8511 N   0  0  0  0  0  0  0  0  0  0  0  0
  -20.4860  -28.2464   21.8544 N   0  0  0  0  0  0  0  0  0  0  0  0
  -28.7308  -23.3827   21.8348 N   0  0  0  0  0  0  0  0  0  0  0  0
  -19.7137  -26.3407   18.8813 N   0  3  0  0  0  0  0  0  0  0  0  0
  -23.5808  -10.0800   22.3488 O   0  0  0  0  0  0  0  0  0  0  0  0
  -25.3218  -30.8121   23.3976 O   0  0  0  0  0  0  0  0  0  0  0  0
  -21.3532  -30.9487   22.2472 O   0  0  0  0  0  0  0  0  0  0  0  0
  -21.5572  -26.3727   21.0065 O   0  0  0  0  0  0  0  0  0  0  0  0
  -23.8374  -19.8286   21.1361 O   0  0  0  0  0  0  0  0  0  0  0  0
  -26.1734  -23.4047   21.5550 O   0  0  0  0  0  0  0  0  0  0  0  0
  -27.1915  -24.0144   23.7723 O   0  0  0  0  0  0  0  0  0  0  0  0
  -29.8050   -9.6671   17.6931 O   0  0  0  0  0  0  0  0  0  0  0  0
  -28.2957  -26.6027   20.0626 O   0  0  0  0  0  0  0  0  0  1  0  0
  -30.5808  -10.4757   12.2942 F   0  0  0  0  0  0  0  0  0  0  0  0
  -29.7313   -7.5500   15.9169 F   0  0  0  0  0  0  0  0  0  0  0  0
  -27.2078  -23.2248   22.5558 S   0  0  0  0  0  0  0  0  0  0  0  0
  1  2  1  0  0  0  0
  1  5  2  0  0  0  0
  2  6  2  0  0  0  0
  3 10  2  0  0  0  0
  3 18  1  0  0  0  0
  4 11  1  0  0  0  0
  4 18  2  0  0  0  0
  5 20  1  0  0  0  0
  6 22  1  0  0  0  0
  7 12  2  0  0  0  0
  7 21  1  0  0  0  0
  8  9  2  0  0  0  0
  8 24  1  0  0  0  0
  9 25  1  0  0  0  0
 10 26  1  0  0  0  0
 11 26  2  0  0  0  0
 12 27  1  0  0  0  0
 13 14  2  0  0  0  0
 13 28  1  0  0  0  0
 14 29  1  0  0  0  0
 15 23  1  0  0  0  0
 15 27  2  0  0  0  0
 16 25  2  0  0  0  0
 16 31  1  0  0  0  0
 17 29  2  0  0  0  0
 17 30  1  0  0  0  0
 18 32  1  0  0  0  0
 19 32  1  0  0  0  0
 19 33  2  0  0  0  0
 19 34  1  0  0  0  0
 20 22  2  0  0  0  0
 20 39  1  0  0  0  0
 21 23  2  0  0  0  0
 21 40  1  0  0  0  0
 22 48  1  0  0  0  0
 23 41  1  0  0  0  0
 24 31  2  0  0  0  0
 24 51  1  0  0  0  0
 25 71  1  0  0  0  0
 26 83  1  0  0  0  0
 27 84  1  0  0  0  0
 28 30  2  0  0  0  0
 28 83  1  0  0  0  0
 29 85  1  0  0  0  0
 30 86  1  0  0  0  0
 31 87  1  0  0  0  0
 32 65  2  0  0  0  0
 33 66  1  0  0  0  0
 33 69  1  0  0  0  0
 34 70  1  0  0  0  0
 34 76  2  0  0  0  0
 35 49  1  0  0  0  0
 35 72  1  0  0  0  0
 35 77  2  0  0  0  0
 36 61  1  0  0  0  0
 36 67  1  0  0  0  0
 36 78  2  0  0  0  0
 37 62  1  0  0  0  0
 37 73  1  0  0  0  0
 37 79  2  0  0  0  0
 38 68  1  0  0  0  0
 38 71  1  0  0  0  0
 38 80  2  0  0  0  0
 39 42  1  0  0  0  0
 40 49  1  0  0  0  0
 41 67  1  0  0  0  0
 42 44  1  0  0  0  0
 43 45  1  0  0  0  0
 43 46  1  0  0  0  0
 44 48  1  0  0  0  0
 45 50  1  0  0  0  0
 46 68  1  0  0  0  0
 47 50  1  0  0  0  0
 47 68  1  0  0  0  0
 48 72  1  0  0  0  0
 49 67  1  0  0  0  0
 50 66  1  0  0  0  0
 52 59  1  0  0  0  0
 53 62  1  0  0  0  0
 54 63  1  0  0  0  0
 55 63  1  0  0  0  0
 56 63  1  0  0  0  0
 57 64  1  0  0  0  0
 58 75  1  0  0  0  0
 59 64  1  0  0  0  0
 60 64  1  0  0  0  0
 60 84  1  0  0  0  0
 61 63  1  0  0  0  0
 61 73  1  0  0  0  0
 62 75  1  0  0  0  0
 64 74  1  0  0  0  0
 65 66  1  0  0  0  0
 74 87  1  0  0  0  0
 81 87  2  0  0  0  0
 82 87  2  0  0  0  0
M  CHG  1  75   1
M  ISO  4  38 100  60 101  71 100  84 101
M  END
> <Batch ID>
0060

> <Smiles>
CCC(C)(NS(=O)(=O)c1cc([100NH:0][100C:0](=O)N2CCCC(n3nc(-c4ccc(Oc5ccc(F)cc5F)cc4)c(C(N)=O)c3N)C2)ccc1C)[101CH2:1][101O:1]c1ccc2c(c1)CN(C(=O)C(NC(=O)C(C)NC)C(C)(C)C)C(C(=O)NC1CCCc3ccccc31)C2

> <Shape>
0.256

> <Color>
0.075

> <Negative vol penalty>
0.000

$$$$

  -OEChem-04042323043D

 88 97  0     1  0  0  0  0  0999 V2000
  -21.1144  -31.2396   23.4999 C   0  0  0  0  0  0  0  0  0  0  0  0
  -22.2405  -30.4378   23.3438 C   0  0  0  0  0  0  0  0  0  0  0  0
  -31.5647  -19.3314   20.0229 C   0  0  0  0  0  0  0  0  0  0  0  0
  -23.0412   -9.9770   21.7840 C   0  0  0  0  0  0  0  0  0  0  0  0
  -24.5012  -10.7461   23.5486 C   0  0  0  0  0  0  0  0  0  0  0  0
  -19.8421  -30.6896   23.3495 C   0  0  0  0  0  0  0  0  0  0  0  0
  -22.0949  -29.0851   23.0383 C   0  0  0  0  0  0  0  0  0  0  0  0
  -25.2631  -27.5651   19.3918 C   0  0  0  0  0  0  0  0  0  0  0  0
  -30.5908  -20.3289   20.0677 C   0  0  0  0  0  0  0  0  0  0  0  0
  -31.1913  -17.9998   19.8407 C   0  0  0  0  0  0  0  0  0  0  0  0
  -22.4278   -9.0967   22.6752 C   0  0  0  0  0  0  0  0  0  0  0  0
  -23.8877   -9.8658   24.4399 C   0  0  0  0  0  0  0  0  0  0  0  0
  -26.5887  -27.3328   19.7561 C   0  0  0  0  0  0  0  0  0  0  0  0
  -23.0914   -6.0818   24.0517 C   0  0  0  0  0  0  0  0  0  0  0  0
  -22.8601   -4.7769   23.6166 C   0  0  0  0  0  0  0  0  0  0  0  0
  -26.1428  -24.9637   19.8446 C   0  0  0  0  0  0  0  0  0  0  0  0
  -20.4885   -5.0819   23.9626 C   0  0  0  0  0  0  0  0  0  0  0  0
  -24.0780  -10.8017   22.2206 C   0  0  0  0  0  0  0  0  0  0  0  0
  -24.1024  -12.7563   20.5816 C   0  0  0  0  0  0  0  0  0  0  0  0
  -19.6811  -29.3315   23.0325 C   0  0  0  0  0  0  0  0  0  0  0  0
  -24.3632  -26.4976   19.2616 C   0  0  0  0  0  0  0  0  0  0  0  0
  -20.8193  -28.5160   22.8849 C   0  0  0  0  0  0  0  0  0  0  0  0
  -24.8070  -25.1849   19.4760 C   0  0  0  0  0  0  0  0  0  0  0  0
  -29.2435  -19.9949   19.9303 C   0  0  0  0  0  0  0  0  0  0  0  0
  -28.8701  -18.6633   19.7481 C   0  0  0  0  0  0  0  0  0  0  0  0
  -29.8440  -17.6658   19.7033 C   0  0  0  0  0  0  0  0  0  0  0  0
  -22.8510   -9.0411   24.0032 C   0  0  0  0  0  0  0  0  0  0  0  0
  -27.0280  -26.0322   19.9854 C   0  0  0  0  0  0  0  0  0  0  0  0
  -22.0212   -6.8868   24.4423 C   0  0  0  0  0  0  0  0  0  0  0  0
  -21.5586   -4.2770   23.5721 C   0  0  0  0  0  0  0  0  0  0  0  0
  -20.7198   -6.3869   24.3977 C   0  0  0  0  0  0  0  0  0  0  0  0
  -24.7125  -11.7109   21.3003 C   0  0  0  0  0  0  0  0  0  0  0  0
  -25.1249  -13.3159   19.8551 C   0  0  0  0  0  0  0  0  0  0  0  0
  -28.9415  -21.9277   22.1769 C   0  0  0  0  0  0  0  0  0  0  0  0
  -28.7649  -23.4656   20.2406 C   0  0  0  0  0  0  0  0  0  0  0  0
  -28.3183  -20.9582   22.8716 C   0  0  0  0  0  0  0  0  0  0  0  0
  -22.7337  -13.1834   20.5715 C   0  0  0  0  0  0  0  0  0  0  0  0
  -21.6616  -25.6521   20.7073 C   0  0  0  0  0  0  0  0  0  0  0  0
  -21.6228  -23.3420   18.4304 C   0  0  0  0  0  0  0  0  0  0  0  0
  -23.3777  -21.4212   16.2219 C   0  0  0  0  0  0  0  0  0  0  0  0
  -30.3455  -15.2097   19.4531 C   0  0  0  0  0  0  0  0  0  0  0  0
  -18.2847  -28.7715   22.9264 C   0  0  0  0  0  0  0  0  0  0  0  0
  -22.9433  -26.7626   18.8419 C   0  0  0  0  0  0  0  0  0  0  0  0
  -23.8857  -24.0024   19.3297 C   0  0  0  0  0  0  0  0  0  0  0  0
  -30.1438  -22.6150   22.7877 C   0  0  0  0  0  0  0  0  0  0  0  0
  -18.2245  -27.4127   22.2333 C   0  0  0  0  0  0  0  0  0  0  0  0
  -29.9287  -24.0604   23.2057 C   0  0  0  0  0  0  0  0  0  0  0  0
  -29.8554  -11.7067   19.0461 C   0  0  0  0  0  0  0  0  0  0  0  0
  -19.3010  -26.4836   22.7854 C   0  0  0  0  0  0  0  0  0  0  0  0
  -29.7922  -24.9912   22.0124 C   0  0  0  0  0  0  0  0  0  0  0  0
  -28.4235  -11.4815   19.5372 C   0  0  0  0  0  0  0  0  0  0  0  0
  -30.5770  -12.7711   19.8708 C   0  0  0  0  0  0  0  0  0  0  0  0
  -28.4358  -13.8263   20.4800 C   0  0  0  0  0  0  0  0  0  0  0  0
  -20.7028  -27.0498   22.5290 C   0  0  1  0  0  0  0  0  0  0  0  0
  -28.5754  -24.6678   21.1664 C   0  0  1  0  0  0  0  0  0  1  0  0
  -21.9841  -25.6451   19.2398 C   0  0  1  0  0  0  0  0  0  0  0  0
  -27.6473  -12.8091   19.6389 C   0  0  2  0  0  0  0  0  0  0  0  0
  -27.4233  -18.3099   19.6011 C   0  0  0  0  0  0  0  0  0  0  0  0
  -23.0767  -19.5960   14.5262 C   0  0  0  0  0  0  0  0  0  0  0  0
  -21.3244  -21.3037   20.6812 C   0  0  0  0  0  0  0  0  0  0  0  0
  -21.9786  -19.5161   19.0549 C   0  0  0  0  0  0  0  0  0  0  0  0
  -19.9075  -20.8524   18.6704 C   0  0  0  0  0  0  0  0  0  0  0  0
  -24.3977  -23.1295   14.0309 C   0  0  0  0  0  0  0  0  0  0  0  0
  -28.2158  -21.0882   19.9822 C   0  0  0  0  0  0  0  0  0  0  0  0
  -22.1648  -21.9371   18.3236 C   0  0  1  0  0  0  0  0  0  0  0  0
  -23.1399  -21.0977   14.7579 C   0  0  2  0  0  0  0  0  0  0  0  0
  -21.3609  -20.9245   19.1872 C   0  0  0  0  0  0  0  0  0  0  0  0
  -26.0211  -11.6101   21.0528 N   0  0  0  0  0  0  0  0  0  0  0  0
  -26.2417  -12.5993   20.1704 N   0  0  0  0  0  0  0  0  0  0  0  0
  -28.6409  -22.2011   20.8387 N   0  0  0  0  0  0  0  0  0  0  0  0
  -22.5052  -24.3136   18.9236 N   0  0  0  0  0  0  0  0  0  0  0  0
  -29.7848  -14.0019   19.9195 N   0  0  0  0  0  0  0  0  0  0  0  0
  -25.1686  -14.3461   18.9837 N   0  0  0  0  0  0  0  0  0  0  0  0
  -21.8140  -12.4982   21.3771 N   0  0  0  0  0  0  0  0  0  0  0  0
  -29.4874  -16.3069   19.5186 N   0  0  0  0  0  0  0  0  0  0  0  0
  -21.0927  -26.8301   21.1527 N   0  0  0  0  0  0  0  0  0  0  0  0
  -22.1935  -21.6178   16.9003 N   0  0  0  0  0  0  0  0  0  0  0  0
  -24.2374  -21.6568   13.9189 N   0  3  0  0  0  0  0  0  0  0  0  0
  -28.8808  -23.6356   19.0233 O   0  0  0  0  0  0  0  0  0  0  0  0
  -22.3349  -14.1339   19.8566 O   0  0  0  0  0  0  0  0  0  0  0  0
  -21.9091  -24.6617   21.3852 O   0  0  0  0  0  0  0  0  0  0  0  0
  -20.4617  -23.5704   18.0823 O   0  0  0  0  0  0  0  0  0  0  0  0
  -24.5014  -21.4889   16.7151 O   0  0  0  0  0  0  0  0  0  0  0  0
  -31.4925  -15.2610   19.0017 O   0  0  0  0  0  0  0  0  0  0  0  0
  -22.2524   -8.1824   24.8732 O   0  0  0  0  0  0  0  0  0  0  0  0
  -28.3211  -25.8027   20.3417 O   0  0  0  0  0  0  0  0  0  1  0  0
  -21.3365   -3.0243   23.1529 F   0  0  0  0  0  0  0  0  0  0  0  0
  -19.6876   -7.1559   24.7706 F   0  0  0  0  0  0  0  0  0  0  0  0
  1  2  1  0  0  0  0
  1  6  2  0  0  0  0
  2  7  2  0  0  0  0
  3  9  2  0  0  0  0
  3 10  1  0  0  0  0
  4 11  2  0  0  0  0
  4 18  1  0  0  0  0
  5 12  1  0  0  0  0
  5 18  2  0  0  0  0
  6 20  1  0  0  0  0
  7 22  1  0  0  0  0
  8 13  2  0  0  0  0
  8 21  1  0  0  0  0
  9 24  1  0  0  0  0
 10 26  2  0  0  0  0
 11 27  1  0  0  0  0
 12 27  2  0  0  0  0
 13 28  1  0  0  0  0
 14 15  2  0  0  0  0
 14 29  1  0  0  0  0
 15 30  1  0  0  0  0
 16 23  1  0  0  0  0
 16 28  2  0  0  0  0
 17 30  2  0  0  0  0
 17 31  1  0  0  0  0
 18 32  1  0  0  0  0
 19 32  1  0  0  0  0
 19 33  2  0  0  0  0
 19 37  1  0  0  0  0
 20 22  2  0  0  0  0
 20 42  1  0  0  0  0
 21 23  2  0  0  0  0
 21 43  1  0  0  0  0
 22 54  1  0  0  0  0
 23 44  1  0  0  0  0
 24 25  2  0  0  0  0
 24 64  1  0  0  0  0
 25 26  1  0  0  0  0
 25 58  1  0  0  0  0
 26 75  1  0  0  0  0
 27 85  1  0  0  0  0
 28 86  1  0  0  0  0
 29 31  2  0  0  0  0
 29 85  1  0  0  0  0
 30 87  1  0  0  0  0
 31 88  1  0  0  0  0
 32 68  2  0  0  0  0
 33 69  1  0  0  0  0
 33 73  1  0  0  0  0
 34 36  2  0  0  0  0
 34 45  1  0  0  0  0
 34 70  1  0  0  0  0
 35 55  1  0  0  0  0
 35 70  1  0  0  0  0
 35 79  2  0  0  0  0
 37 74  1  0  0  0  0
 37 80  2  0  0  0  0
 38 56  1  0  0  0  0
 38 76  1  0  0  0  0
 38 81  2  0  0  0  0
 39 65  1  0  0  0  0
 39 71  1  0  0  0  0
 39 82  2  0  0  0  0
 40 66  1  0  0  0  0
 40 77  1  0  0  0  0
 40 83  2  0  0  0  0
 41 72  1  0  0  0  0
 41 75  1  0  0  0  0
 41 84  2  0  0  0  0
 42 46  1  0  0  0  0
 43 56  1  0  0  0  0
 44 71  1  0  0  0  0
 45 47  1  0  0  0  0
 46 49  1  0  0  0  0
 47 50  1  0  0  0  0
 48 51  1  0  0  0  0
 48 52  1  0  0  0  0
 49 54  1  0  0  0  0
 50 55  1  0  0  0  0
 51 57  1  0  0  0  0
 52 72  1  0  0  0  0
 53 57  1  0  0  0  0
 53 72  1  0  0  0  0
 54 76  1  0  0  0  0
 55 86  1  0  0  0  0
 56 71  1  0  0  0  0
 57 69  1  0  0  0  0
 59 66  1  0  0  0  0
 60 67  1  0  0  0  0
 61 67  1  0  0  0  0
 62 67  1  0  0  0  0
 63 78  1  0  0  0  0
 64 70  1  0  0  0  0
 65 67  1  0  0  0  0
 65 77  1  0  0  0  0
 66 78  1  0  0  0  0
 68 69  1  0  0  0  0
M  CHG  1  78   1
M  ISO  4  41 100  55 101  75 100  86 101
M  END
> <Batch ID>
0060

> <Smiles>
C=C1CCC[101CH:1]([101O:1]c2ccc3c(c2)CN(C(=O)C(NC(=O)C(C)NC)C(C)(C)C)C(C(=O)NC2CCCc4ccccc42)C3)C(=O)N1Cc1cccc([100NH:0][100C:0](=O)N2CCCC(n3nc(-c4ccc(Oc5ccc(F)cc5F)cc4)c(C(N)=O)c3N)C2)c1C

> <Shape>
0.284

> <Color>
0.136

> <Negative vol penalty>
0.000

$$$$

  -OEChem-04042323043D

 84 92  0     1  0  0  0  0  0999 V2000
  -24.0401  -38.1697   21.3285 C   0  0  0  0  0  0  0  0  0  0  0  0
  -24.9003  -37.3321   20.6256 C   0  0  0  0  0  0  0  0  0  0  0  0
  -23.6065   -9.9995   22.3328 C   0  0  0  0  0  0  0  0  0  0  0  0
  -23.2200   -9.8957   19.9502 C   0  0  0  0  0  0  0  0  0  0  0  0
  -23.4613  -37.7321   22.5190 C   0  0  0  0  0  0  0  0  0  0  0  0
  -25.1830  -36.0568   21.1135 C   0  0  0  0  0  0  0  0  0  0  0  0
  -26.6654  -29.4198   18.8620 C   0  0  0  0  0  0  0  0  0  0  0  0
  -30.6203  -18.5204   18.8391 C   0  0  0  0  0  0  0  0  0  0  0  0
  -30.6326  -19.8423   19.2840 C   0  0  0  0  0  0  0  0  0  0  0  0
  -22.7805   -8.8904   22.5151 C   0  0  0  0  0  0  0  0  0  0  0  0
  -22.3940   -8.7866   20.1325 C   0  0  0  0  0  0  0  0  0  0  0  0
  -27.6073  -28.4074   19.0396 C   0  0  0  0  0  0  0  0  0  0  0  0
  -23.0046   -5.5342   22.1707 C   0  0  0  0  0  0  0  0  0  0  0  0
  -23.4511   -4.5270   23.0261 C   0  0  0  0  0  0  0  0  0  0  0  0
  -26.4875  -27.7293   21.0658 C   0  0  0  0  0  0  0  0  0  0  0  0
  -28.4906  -20.2167   18.2311 C   0  0  0  0  0  0  0  0  0  0  0  0
  -21.5101   -4.8559   24.4265 C   0  0  0  0  0  0  0  0  0  0  0  0
  -23.8262  -10.5022   21.0503 C   0  0  0  0  0  0  0  0  0  0  0  0
  -26.0684  -11.6460   20.6359 C   0  0  0  0  0  0  0  0  0  0  0  0
  -23.7295  -36.4472   23.0168 C   0  0  0  0  0  0  0  0  0  0  0  0
  -25.6320  -29.6017   19.7923 C   0  0  0  0  0  0  0  0  0  0  0  0
  -24.6083  -35.6021   22.3126 C   0  0  0  0  0  0  0  0  0  0  0  0
  -25.5322  -28.7431   20.8963 C   0  0  0  0  0  0  0  0  0  0  0  0
  -29.5432  -18.0466   18.0900 C   0  0  0  0  0  0  0  0  0  0  0  0
  -28.4783  -18.8948   17.7861 C   0  0  0  0  0  0  0  0  0  0  0  0
  -29.5678  -20.6905   18.9801 C   0  0  0  0  0  0  0  0  0  0  0  0
  -22.1743   -8.2839   21.4150 C   0  0  0  0  0  0  0  0  0  0  0  0
  -27.5202  -27.5638   20.1432 C   0  0  0  0  0  0  0  0  0  0  0  0
  -21.8108   -6.2023   22.4432 C   0  0  0  0  0  0  0  0  0  0  0  0
  -22.7039   -4.1879   24.1540 C   0  0  0  0  0  0  0  0  0  0  0  0
  -21.0635   -5.8632   23.5711 C   0  0  0  0  0  0  0  0  0  0  0  0
  -24.6789  -11.6482   20.8614 C   0  0  0  0  0  0  0  0  0  0  0  0
  -26.4002  -12.9740   20.5234 C   0  0  0  0  0  0  0  0  0  0  0  0
  -28.9908  -24.2923   19.8628 C   0  0  0  0  0  0  0  0  0  0  0  0
  -28.1800  -25.3512   19.7693 C   0  0  0  0  0  0  0  0  0  1  0  0
  -26.9780  -10.5421   20.5369 C   0  0  0  0  0  0  0  0  0  0  0  0
  -28.6070  -23.0011   19.2212 C   0  0  0  0  0  0  0  0  0  0  0  0
  -24.7585  -31.9544   21.7432 C   0  0  0  0  0  0  0  0  0  0  0  0
  -22.2125  -30.0230   22.2998 C   0  0  0  0  0  0  0  0  0  0  0  0
  -20.9125  -26.8676   22.2885 C   0  0  0  0  0  0  0  0  0  0  0  0
  -25.3961  -18.0892   18.5303 C   0  0  0  0  0  0  0  0  0  0  0  0
  -23.1174  -36.0360   24.3324 C   0  0  0  0  0  0  0  0  0  0  0  0
  -24.6083  -30.6815   19.5722 C   0  0  0  0  0  0  0  0  0  0  0  0
  -24.4301  -28.8836   21.9132 C   0  0  0  0  0  0  0  0  0  0  0  0
  -23.1745  -34.5320   24.5872 C   0  0  0  0  0  0  0  0  0  0  0  0
  -23.7024  -17.1367   21.5137 C   0  0  0  0  0  0  0  0  0  0  0  0
  -24.5653  -33.9898   24.2733 C   0  0  0  0  0  0  0  0  0  0  0  0
  -23.9148  -15.6236   21.5877 C   0  0  0  0  0  0  0  0  0  0  0  0
  -23.5185  -17.6110   20.0738 C   0  0  0  0  0  0  0  0  0  0  0  0
  -24.8008  -15.6876   19.2193 C   0  0  0  0  0  0  0  0  0  0  0  0
  -24.9201  -34.2027   22.7967 C   0  0  1  0  0  0  0  0  0  0  0  0
  -23.8974  -31.1015   20.8550 C   0  0  1  0  0  0  0  0  0  0  0  0
  -25.0468  -15.1696   20.6466 C   0  0  2  0  0  0  0  0  0  0  0  0
  -29.5528  -16.6278   17.6240 C   0  0  0  0  0  0  0  0  0  0  0  0
  -18.8169  -25.5984   22.8319 C   0  0  0  0  0  0  0  0  0  0  0  0
  -22.8492  -30.2505   25.2752 C   0  0  0  0  0  0  0  0  0  0  0  0
  -21.3746  -28.2663   25.6713 C   0  0  0  0  0  0  0  0  0  0  0  0
  -20.4137  -30.3617   24.7180 C   0  0  0  0  0  0  0  0  0  0  0  0
  -20.6104  -25.9411   19.4939 C   0  0  0  0  0  0  0  0  0  0  0  0
  -27.3135  -18.4090   16.9874 C   0  0  0  0  0  0  0  0  0  0  0  0
  -21.9049  -28.9147   23.2777 C   0  0  1  0  0  0  0  0  0  0  0  0
  -19.6040  -26.3192   21.7485 C   0  0  2  0  0  0  0  0  0  0  0  0
  -21.6576  -29.4467   24.7176 C   0  0  0  0  0  0  0  0  0  0  0  0
  -24.1633  -12.8800   20.8909 N   0  0  0  0  0  0  0  0  0  0  0  0
  -25.2346  -13.6642   20.6825 N   0  0  0  0  0  0  0  0  0  0  0  0
  -23.4571  -29.9584   21.6573 N   0  0  0  0  0  0  0  0  0  0  0  0
  -24.6262  -17.1485   19.2340 N   0  0  0  0  0  0  0  0  0  0  0  0
  -27.5723  -13.6071   20.3050 N   0  0  0  0  0  0  0  0  0  0  0  0
  -26.4701   -9.2433   20.6766 N   0  0  0  0  0  0  0  0  0  0  0  0
  -29.5789  -22.0325   19.4335 N   0  0  0  0  0  0  0  0  0  0  0  0
  -24.2526  -33.2201   21.9699 N   0  0  0  0  0  0  0  0  0  0  0  0
  -20.7825  -28.1727   22.7138 N   0  0  0  0  0  0  0  0  0  0  0  0
  -26.4303  -17.5670   17.7631 N   0  0  0  0  0  0  0  0  0  0  0  0
  -19.8635  -25.3591   20.6386 N   0  3  0  0  0  0  0  0  0  0  0  0
  -28.2074  -10.7034   20.3470 O   0  0  0  0  0  0  0  0  0  0  0  0
  -27.5546  -22.8867   18.6039 O   0  0  0  0  0  0  0  0  0  0  0  0
  -25.8037  -31.4974   22.1909 O   0  0  0  0  0  0  0  0  0  0  0  0
  -21.3763  -30.9092   22.1075 O   0  0  0  0  0  0  0  0  0  0  0  0
  -21.9456  -26.2033   22.3323 O   0  0  0  0  0  0  0  0  0  0  0  0
  -25.1814  -19.3048   18.5860 O   0  0  0  0  0  0  0  0  0  0  0  0
  -21.3684   -7.2015   21.5925 O   0  0  0  0  0  0  0  0  0  0  0  0
  -28.4387  -26.5753   20.3193 O   0  0  0  0  0  0  0  0  0  1  0  0
  -23.1320   -3.2196   24.9746 F   0  0  0  0  0  0  0  0  0  0  0  0
  -19.9153   -6.5007   23.8375 F   0  0  0  0  0  0  0  0  0  0  0  0
  1  2  1  0  0  0  0
  1  5  2  0  0  0  0
  2  6  2  0  0  0  0
  3 10  2  0  0  0  0
  3 18  1  0  0  0  0
  4 11  1  0  0  0  0
  4 18  2  0  0  0  0
  5 20  1  0  0  0  0
  6 22  1  0  0  0  0
  7 12  2  0  0  0  0
  7 21  1  0  0  0  0
  8  9  2  0  0  0  0
  8 24  1  0  0  0  0
  9 26  1  0  0  0  0
 10 27  1  0  0  0  0
 11 27  2  0  0  0  0
 12 28  1  0  0  0  0
 13 14  2  0  0  0  0
 13 29  1  0  0  0  0
 14 30  1  0  0  0  0
 15 23  1  0  0  0  0
 15 28  2  0  0  0  0
 16 25  1  0  0  0  0
 16 26  2  0  0  0  0
 17 30  2  0  0  0  0
 17 31  1  0  0  0  0
 18 32  1  0  0  0  0
 19 32  1  0  0  0  0
 19 33  2  0  0  0  0
 19 36  1  0  0  0  0
 20 22  2  0  0  0  0
 20 42  1  0  0  0  0
 21 23  2  0  0  0  0
 21 43  1  0  0  0  0
 22 51  1  0  0  0  0
 23 44  1  0  0  0  0
 24 25  2  0  0  0  0
 24 54  1  0  0  0  0
 25 60  1  0  0  0  0
 26 70  1  0  0  0  0
 27 81  1  0  0  0  0
 28 82  1  0  0  0  0
 29 31  2  0  0  0  0
 29 81  1  0  0  0  0
 30 83  1  0  0  0  0
 31 84  1  0  0  0  0
 32 64  2  0  0  0  0
 33 65  1  0  0  0  0
 33 68  1  0  0  0  0
 34 35  2  0  0  0  0
 34 37  1  0  0  0  0
 35 82  1  0  0  0  0
 36 69  1  0  0  0  0
 36 75  2  0  0  0  0
 37 70  1  0  0  0  0
 37 76  2  0  0  0  0
 38 52  1  0  0  0  0
 38 71  1  0  0  0  0
 38 77  2  0  0  0  0
 39 61  1  0  0  0  0
 39 66  1  0  0  0  0
 39 78  2  0  0  0  0
 40 62  1  0  0  0  0
 40 72  1  0  0  0  0
 40 79  2  0  0  0  0
 41 67  1  0  0  0  0
 41 73  1  0  0  0  0
 41 80  2  0  0  0  0
 42 45  1  0  0  0  0
 43 52  1  0  0  0  0
 44 66  1  0  0  0  0
 45 47  1  0  0  0  0
 46 48  1  0  0  0  0
 46 49  1  0  0  0  0
 47 51  1  0  0  0  0
 48 53  1  0  0  0  0
 49 67  1  0  0  0  0
 50 53  1  0  0  0  0
 50 67  1  0  0  0  0
 51 71  1  0  0  0  0
 52 66  1  0  0  0  0
 53 65  1  0  0  0  0
 55 62  1  0  0  0  0
 56 63  1  0  0  0  0
 57 63  1  0  0  0  0
 58 63  1  0  0  0  0
 59 74  1  0  0  0  0
 60 73  1  0  0  0  0
 61 63  1  0  0  0  0
 61 72  1  0  0  0  0
 62 74  1  0  0  0  0
 64 65  1  0  0  0  0
M  CHG  1  74   1
M  ISO  4  35 101  41 100  73 100  82 101
M  END
> <Batch ID>
0060

> <Smiles>
CNC(C)C(=O)NC(C(=O)N1Cc2cc([101O:1][101CH:1]=CC(=O)Nc3ccc(C)c(C[100NH:0][100C:0](=O)N4CCCC(n5nc(-c6ccc(Oc7ccc(F)cc7F)cc6)c(C(N)=O)c5N)C4)c3)ccc2CC1C(=O)NC1CCCc2ccccc21)C(C)(C)C

> <Shape>
0.324

> <Color>
0.121

> <Negative vol penalty>
0.000

$$$$

  -OEChem-04042323043D

 89 98  0     1  0  0  0  0  0999 V2000
  -28.9766  -25.3002   16.5717 C   0  0  0  0  0  0  0  0  0  0  0  0
  -27.8193  -25.2853   17.3436 C   0  0  0  0  0  0  0  0  0  0  0  0
  -26.3929  -12.1830   21.0967 C   0  0  0  0  0  0  0  0  0  0  0  0
  -23.9807  -12.3091   21.0456 C   0  0  0  0  0  0  0  0  0  0  0  0
  -30.0932  -26.0137   17.0053 C   0  0  0  0  0  0  0  0  0  0  0  0
  -27.7783  -25.9830   18.5502 C   0  0  0  0  0  0  0  0  0  0  0  0
  -23.4972  -28.6272   19.1209 C   0  0  0  0  0  0  0  0  0  0  0  0
  -26.3192  -11.1546   22.0361 C   0  0  0  0  0  0  0  0  0  0  0  0
  -23.9071  -11.2806   21.9851 C   0  0  0  0  0  0  0  0  0  0  0  0
  -22.3574  -27.9194   19.4998 C   0  0  0  0  0  0  0  0  0  0  0  0
  -23.0763   -8.4430   24.1007 C   0  0  0  0  0  0  0  0  0  0  0  0
  -22.1526   -7.4226   23.8751 C   0  0  0  0  0  0  0  0  0  0  0  0
  -22.6727  -28.6435   21.7791 C   0  0  0  0  0  0  0  0  0  0  0  0
  -20.0979  -19.4187   20.3080 C   0  0  0  0  0  0  0  0  0  0  0  0
  -21.2381  -21.3780   21.1436 C   0  0  0  0  0  0  0  0  0  0  0  0
  -23.2508   -6.8893   21.7903 C   0  0  0  0  0  0  0  0  0  0  0  0
  -25.2236  -12.7603   20.6015 C   0  0  0  0  0  0  0  0  0  0  0  0
  -25.3218  -13.6946   18.2298 C   0  0  0  0  0  0  0  0  0  0  0  0
  -30.0626  -26.7284   18.2132 C   0  0  0  0  0  0  0  0  0  0  0  0
  -24.2408  -29.3408   20.0719 C   0  0  0  0  0  0  0  0  0  0  0  0
  -28.8960  -26.7056   19.0011 C   0  0  0  0  0  0  0  0  0  0  0  0
  -23.8201  -29.3617   21.4093 C   0  0  0  0  0  0  0  0  0  0  0  0
  -18.8892  -19.9130   20.7981 C   0  0  0  0  0  0  0  0  0  0  0  0
  -18.8549  -21.1398   21.4610 C   0  0  0  0  0  0  0  0  0  0  0  0
  -20.0293  -21.8723   21.6338 C   0  0  0  0  0  0  0  0  0  0  0  0
  -21.2724  -20.1511   20.4808 C   0  0  0  0  0  0  0  0  0  0  0  0
  -25.0764  -10.7034   22.4803 C   0  0  0  0  0  0  0  0  0  0  0  0
  -21.9466  -27.9251   20.8296 C   0  0  0  0  0  0  0  0  0  0  0  0
  -24.0873   -8.6867   23.1710 C   0  0  0  0  0  0  0  0  0  0  0  0
  -22.2398   -6.6457   22.7200 C   0  0  0  0  0  0  0  0  0  0  0  0
  -24.1745   -7.9098   22.0159 C   0  0  0  0  0  0  0  0  0  0  0  0
  -25.2990  -13.8231   19.6315 C   0  0  0  0  0  0  0  0  0  0  0  0
  -25.3982  -14.9858   17.7678 C   0  0  0  0  0  0  0  0  0  0  0  0
  -19.6110  -23.3637   23.6368 C   0  0  0  0  0  0  0  0  0  0  0  0
  -25.2776  -12.5137   17.4179 C   0  0  0  0  0  0  0  0  0  0  0  0
  -27.2171  -29.1765   21.1757 C   0  0  0  0  0  0  0  0  0  0  0  0
  -26.3658  -31.8789   22.7551 C   0  0  0  0  0  0  0  0  0  0  0  0
  -23.8708  -33.8117   24.0536 C   0  0  0  0  0  0  0  0  0  0  0  0
  -23.7561  -20.2493   20.0710 C   0  0  0  0  0  0  0  0  0  0  0  0
  -31.3102  -27.4463   18.6636 C   0  0  0  0  0  0  0  0  0  0  0  0
  -25.4528  -30.1210   19.6423 C   0  0  0  0  0  0  0  0  0  0  0  0
  -24.5719  -30.1287   22.4652 C   0  0  0  0  0  0  0  0  0  0  0  0
  -19.8690  -24.8227   23.9365 C   0  0  0  0  0  0  0  0  0  0  0  0
  -31.0597  -28.4663   19.7714 C   0  0  0  0  0  0  0  0  0  0  0  0
  -27.0236  -19.3165   19.0078 C   0  0  0  0  0  0  0  0  0  0  0  0
  -30.1774  -27.8652   20.8610 C   0  0  0  0  0  0  0  0  0  0  0  0
  -26.9525  -17.7907   18.9136 C   0  0  0  0  0  0  0  0  0  0  0  0
  -26.2064  -19.8510   20.1826 C   0  0  0  0  0  0  0  0  0  0  0  0
  -20.5182  -24.3424   21.6925 C   0  0  0  0  0  0  0  0  0  0  0  0
  -24.7387  -17.8730   20.1300 C   0  0  0  0  0  0  0  0  0  0  0  0
  -28.8044  -27.4704   20.3037 C   0  0  1  0  0  0  0  0  0  0  0  0
  -26.4250  -30.3925   20.7862 C   0  0  1  0  0  0  0  0  0  0  0  0
  -19.9564  -25.4605   22.5573 C   0  0  2  0  0  0  0  0  0  0  0  0
  -25.4938  -17.2929   18.9229 C   0  0  2  0  0  0  0  0  0  0  0  0
  -17.5550  -21.6656   21.9848 C   0  0  0  0  0  0  0  0  0  0  0  0
  -23.4871  -35.9443   25.3194 C   0  0  0  0  0  0  0  0  0  0  0  0
  -27.2801  -30.5144   25.3265 C   0  0  0  0  0  0  0  0  0  0  0  0
  -26.0224  -32.2543   26.6146 C   0  0  0  0  0  0  0  0  0  0  0  0
  -27.9197  -32.9250   25.1404 C   0  0  0  0  0  0  0  0  0  0  0  0
  -22.2785  -34.9720   21.8452 C   0  0  0  0  0  0  0  0  0  0  0  0
  -20.8056  -26.7195   22.5327 C   0  0  0  0  0  0  0  0  0  1  0  0
  -25.7407  -32.1819   24.0954 C   0  0  1  0  0  0  0  0  0  0  0  0
  -23.5895  -35.2995   23.9459 C   0  0  2  0  0  0  0  0  0  0  0  0
  -17.6458  -19.1089   20.5993 C   0  0  0  0  0  0  0  0  0  0  0  0
  -26.7274  -31.9528   25.2749 C   0  0  0  0  0  0  0  0  0  0  0  0
  -25.3566  -15.0954   20.0337 N   0  0  0  0  0  0  0  0  0  0  0  0
  -25.4163  -15.7783   18.8777 N   0  0  0  0  0  0  0  0  0  0  0  0
  -20.0172  -23.1288   22.3099 N   0  0  0  0  0  0  0  0  0  0  0  0
  -25.7540  -30.8707   21.9967 N   0  0  0  0  0  0  0  0  0  0  0  0
  -24.8347  -19.3412   20.1232 N   0  0  0  0  0  0  0  0  0  0  0  0
  -25.4512  -15.5093   16.5246 N   0  0  0  0  0  0  0  0  0  0  0  0
  -25.1998  -11.2676   18.0546 N   0  0  0  0  0  0  0  0  0  0  0  0
  -22.5005  -19.6488   19.9838 N   0  0  0  0  0  0  0  0  0  0  0  0
  -27.9673  -28.6404   20.1465 N   0  0  0  0  0  0  0  0  0  0  0  0
  -25.2223  -33.5427   24.0058 N   0  0  0  0  0  0  0  0  0  0  0  0
  -22.3089  -35.5333   23.2203 N   0  3  0  0  0  0  0  0  0  0  0  0
  -19.1807  -22.5876   24.4778 O   0  0  0  0  0  0  0  0  0  0  0  0
  -25.3230  -12.5612   16.1652 O   0  0  0  0  0  0  0  0  0  0  0  0
  -27.1535  -28.7567   22.3252 O   0  0  0  0  0  0  0  0  0  0  0  0
  -27.3560  -32.5183   22.3913 O   0  0  0  0  0  0  0  0  0  0  0  0
  -22.9808  -32.9724   24.1724 O   0  0  0  0  0  0  0  0  0  0  0  0
  -23.9347  -21.4699   20.0740 O   0  0  0  0  0  0  0  0  0  0  0  0
  -25.0041   -9.6997   23.3968 O   0  0  0  0  0  0  0  0  0  0  0  0
  -20.8347  -27.2345   21.2022 O   0  0  0  0  0  0  0  0  0  1  0  0
  -21.3536   -5.6647   22.5042 F   0  0  0  0  0  0  0  0  0  0  0  0
  -25.1443   -8.1384   21.1197 F   0  0  0  0  0  0  0  0  0  0  0  0
  -17.8557  -17.9367   19.9322 F   0  0  0  0  0  0  0  0  0  0  0  0
  -17.0358  -18.7524   21.7671 F   0  0  0  0  0  0  0  0  0  0  0  0
  -16.7004  -19.7782   19.8792 F   0  0  0  0  0  0  0  0  0  0  0  0
  1  2  1  0  0  0  0
  1  5  2  0  0  0  0
  2  6  2  0  0  0  0
  3  8  2  0  0  0  0
  3 17  1  0  0  0  0
  4  9  1  0  0  0  0
  4 17  2  0  0  0  0
  5 19  1  0  0  0  0
  6 21  1  0  0  0  0
  7 10  2  0  0  0  0
  7 20  1  0  0  0  0
  8 27  1  0  0  0  0
  9 27  2  0  0  0  0
 10 28  1  0  0  0  0
 11 12  2  0  0  0  0
 11 29  1  0  0  0  0
 12 30  1  0  0  0  0
 13 22  1  0  0  0  0
 13 28  2  0  0  0  0
 14 23  2  0  0  0  0
 14 26  1  0  0  0  0
 15 25  1  0  0  0  0
 15 26  2  0  0  0  0
 16 30  2  0  0  0  0
 16 31  1  0  0  0  0
 17 32  1  0  0  0  0
 18 32  1  0  0  0  0
 18 33  2  0  0  0  0
 18 35  1  0  0  0  0
 19 21  2  0  0  0  0
 19 40  1  0  0  0  0
 20 22  2  0  0  0  0
 20 41  1  0  0  0  0
 21 51  1  0  0  0  0
 22 42  1  0  0  0  0
 23 24  1  0  0  0  0
 23 64  1  0  0  0  0
 24 25  2  0  0  0  0
 24 55  1  0  0  0  0
 25 68  1  0  0  0  0
 26 73  1  0  0  0  0
 27 83  1  0  0  0  0
 28 84  1  0  0  0  0
 29 31  2  0  0  0  0
 29 83  1  0  0  0  0
 30 85  1  0  0  0  0
 31 86  1  0  0  0  0
 32 66  2  0  0  0  0
 33 67  1  0  0  0  0
 33 71  1  0  0  0  0
 34 43  1  0  0  0  0
 34 68  1  0  0  0  0
 34 77  2  0  0  0  0
 35 72  1  0  0  0  0
 35 78  2  0  0  0  0
 36 52  1  0  0  0  0
 36 74  1  0  0  0  0
 36 79  2  0  0  0  0
 37 62  1  0  0  0  0
 37 69  1  0  0  0  0
 37 80  2  0  0  0  0
 38 63  1  0  0  0  0
 38 75  1  0  0  0  0
 38 81  2  0  0  0  0
 39 70  1  0  0  0  0
 39 73  1  0  0  0  0
 39 82  2  0  0  0  0
 40 44  1  0  0  0  0
 41 52  1  0  0  0  0
 42 69  1  0  0  0  0
 43 53  1  0  0  0  0
 44 46  1  0  0  0  0
 45 47  1  0  0  0  0
 45 48  1  0  0  0  0
 46 51  1  0  0  0  0
 47 54  1  0  0  0  0
 48 70  1  0  0  0  0
 49 53  1  0  0  0  0
 49 68  1  0  0  0  0
 50 54  1  0  0  0  0
 50 70  1  0  0  0  0
 51 74  1  0  0  0  0
 52 69  1  0  0  0  0
 53 61  1  0  0  0  0
 54 67  1  0  0  0  0
 56 63  1  0  0  0  0
 57 65  1  0  0  0  0
 58 65  1  0  0  0  0
 59 65  1  0  0  0  0
 60 76  1  0  0  0  0
 61 84  1  0  0  0  0
 62 65  1  0  0  0  0
 62 75  1  0  0  0  0
 63 76  1  0  0  0  0
 64 87  1  0  0  0  0
 64 88  1  0  0  0  0
 64 89  1  0  0  0  0
 66 67  1  0  0  0  0
M  CHG  1  76   1
M  ISO  4  39 100  61 101  73 100  84 101
M  END
> <Batch ID>
0060

> <Smiles>
CNC(C)C(=O)NC(C(=O)N1Cc2cc([101O:1][101CH2:1]C3CC(=O)N(c4cc([100NH:0][100C:0](=O)N5CCCC(n6nc(-c7ccc(Oc8ccc(F)cc8F)cc7)c(C(N)=O)c6N)C5)cc(C(F)(F)F)c4C)C3)ccc2CC1C(=O)NC1CCCc2ccccc21)C(C)(C)C

> <Shape>
0.251

> <Color>
0.071

> <Negative vol penalty>
0.000

$$$$

  -OEChem-04042323043D

 88 97  0     1  0  0  0  0  0999 V2000
  -29.1183  -36.8070   20.9221 C   0  0  0  0  0  0  0  0  0  0  0  0
  -29.3844  -35.4679   20.6551 C   0  0  0  0  0  0  0  0  0  0  0  0
  -24.0293   -9.2368   21.4893 C   0  0  0  0  0  0  0  0  0  0  0  0
  -23.2536  -11.5248   21.4717 C   0  0  0  0  0  0  0  0  0  0  0  0
  -28.1606  -37.1496   21.8757 C   0  0  0  0  0  0  0  0  0  0  0  0
  -28.6937  -34.4704   21.3423 C   0  0  0  0  0  0  0  0  0  0  0  0
  -26.9541  -29.0212   19.1547 C   0  0  0  0  0  0  0  0  0  0  0  0
  -23.0353   -8.9069   22.4106 C   0  0  0  0  0  0  0  0  0  0  0  0
  -22.2596  -11.1949   22.3929 C   0  0  0  0  0  0  0  0  0  0  0  0
  -27.5109  -27.7473   19.2593 C   0  0  0  0  0  0  0  0  0  0  0  0
  -19.7177   -8.2550   22.3692 C   0  0  0  0  0  0  0  0  0  0  0  0
  -18.9900   -7.0860   22.1469 C   0  0  0  0  0  0  0  0  0  0  0  0
  -26.2284  -20.6849   18.9348 C   0  0  0  0  0  0  0  0  0  0  0  0
  -25.9409  -18.3394   18.4320 C   0  0  0  0  0  0  0  0  0  0  0  0
  -26.0466  -27.2662   21.1150 C   0  0  0  0  0  0  0  0  0  0  0  0
  -27.9775  -19.1096   19.4791 C   0  0  0  0  0  0  0  0  0  0  0  0
  -19.7444   -6.2127   24.2695 C   0  0  0  0  0  0  0  0  0  0  0  0
  -24.1385  -10.5458   21.0199 C   0  0  0  0  0  0  0  0  0  0  0  0
  -25.4538  -19.6463   18.4182 C   0  0  0  0  0  0  0  0  0  0  0  0
  -25.3458  -10.3463   18.7815 C   0  0  0  0  0  0  0  0  0  0  0  0
  -27.4509  -36.1558   22.5681 C   0  0  0  0  0  0  0  0  0  0  0  0
  -25.9453  -29.4317   20.0379 C   0  0  0  0  0  0  0  0  0  0  0  0
  -27.7265  -34.8000   22.3071 C   0  0  0  0  0  0  0  0  0  0  0  0
  -25.4768  -28.5449   21.0179 C   0  0  0  0  0  0  0  0  0  0  0  0
  -27.4903  -20.4165   19.4653 C   0  0  0  0  0  0  0  0  0  0  0  0
  -27.2028  -18.0710   18.9625 C   0  0  0  0  0  0  0  0  0  0  0  0
  -22.1504   -9.8859   22.8624 C   0  0  0  0  0  0  0  0  0  0  0  0
  -27.0592  -26.8706   20.2414 C   0  0  0  0  0  0  0  0  0  0  0  0
  -20.4589   -8.4028   23.5416 C   0  0  0  0  0  0  0  0  0  0  0  0
  -19.0033   -6.0649   23.0970 C   0  0  0  0  0  0  0  0  0  0  0  0
  -20.4722   -7.3817   24.4918 C   0  0  0  0  0  0  0  0  0  0  0  0
  -25.1654  -10.8873   20.0686 C   0  0  0  0  0  0  0  0  0  0  0  0
  -26.4497  -10.9971   18.2872 C   0  0  0  0  0  0  0  0  0  0  0  0
  -29.2034  -21.2604   21.0475 C   0  0  0  0  0  0  0  0  0  0  0  0
  -24.1381  -19.9261   17.8653 C   0  0  0  0  0  0  0  0  0  0  0  0
  -24.5836   -9.3451   18.0942 C   0  0  0  0  0  0  0  0  0  0  0  0
  -25.6682  -31.7328   22.2133 C   0  0  0  0  0  0  0  0  0  0  0  0
  -22.6051  -30.6772   22.3724 C   0  0  0  0  0  0  0  0  0  0  0  0
  -20.3913  -28.1252   21.8892 C   0  0  0  0  0  0  0  0  0  0  0  0
  -28.9275  -16.3052   19.4661 C   0  0  0  0  0  0  0  0  0  0  0  0
  -26.4586  -36.5746   23.6239 C   0  0  0  0  0  0  0  0  0  0  0  0
  -25.3364  -30.7997   19.8948 C   0  0  0  0  0  0  0  0  0  0  0  0
  -24.3818  -28.9300   21.9776 C   0  0  0  0  0  0  0  0  0  0  0  0
  -30.2104  -22.3607   21.3242 C   0  0  0  0  0  0  0  0  0  0  0  0
  -25.5039  -35.4583   24.0396 C   0  0  0  0  0  0  0  0  0  0  0  0
  -29.6781  -23.7614   21.1152 C   0  0  0  0  0  0  0  0  0  0  0  0
  -30.4978  -13.1195   19.7164 C   0  0  0  0  0  0  0  0  0  0  0  0
  -26.2720  -34.1641   24.2884 C   0  0  0  0  0  0  0  0  0  0  0  0
  -29.3253  -12.1359   19.7119 C   0  0  0  0  0  0  0  0  0  0  0  0
  -30.1609  -14.4001   20.4782 C   0  0  0  0  0  0  0  0  0  0  0  0
  -27.9711  -22.8629   19.5589 C   0  0  0  0  0  0  0  0  0  0  0  0
  -27.7561  -14.0892   20.0430 C   0  0  0  0  0  0  0  0  0  0  0  0
  -26.9804  -33.6892   23.0140 C   0  0  1  0  0  0  0  0  0  0  0  0
  -24.6729  -31.2954   21.1761 C   0  0  1  0  0  0  0  0  0  0  0  0
  -29.1130  -23.8671   19.7084 C   0  0  1  0  0  0  0  0  0  0  0  0
  -28.0254  -12.8110   19.2322 C   0  0  2  0  0  0  0  0  0  0  0  0
  -23.3755  -21.0836   18.4417 C   0  0  0  0  0  0  0  0  0  0  0  0
  -17.9622  -27.5497   22.1448 C   0  0  0  0  0  0  0  0  0  0  0  0
  -22.9928  -30.3893   25.3852 C   0  0  0  0  0  0  0  0  0  0  0  0
  -20.9412  -28.9555   25.4419 C   0  0  0  0  0  0  0  0  0  0  0  0
  -20.7793  -31.3328   24.7037 C   0  0  0  0  0  0  0  0  0  0  0  0
  -20.0840  -27.6294   18.9877 C   0  0  0  0  0  0  0  0  0  0  0  0
  -28.6294  -25.2861   19.4169 C   0  0  0  0  0  0  0  0  0  1  0  0
  -21.8743  -29.6348   23.1839 C   0  0  1  0  0  0  0  0  0  0  0  0
  -19.0351  -28.0836   21.2086 C   0  0  2  0  0  0  0  0  0  0  0  0
  -21.6689  -30.0712   24.6620 C   0  0  0  0  0  0  0  0  0  0  0  0
  -26.0814  -11.8105   20.3729 N   0  0  0  0  0  0  0  0  0  0  0  0
  -26.8481  -11.8546   19.2701 N   0  0  0  0  0  0  0  0  0  0  0  0
  -28.2942  -21.4942   20.0014 N   0  0  0  0  0  0  0  0  0  0  0  0
  -23.8226  -30.2805   21.8015 N   0  0  0  0  0  0  0  0  0  0  0  0
  -28.9200  -14.9860   19.9666 N   0  0  0  0  0  0  0  0  0  0  0  0
  -27.1088  -10.9136   17.1120 N   0  0  0  0  0  0  0  0  0  0  0  0
  -23.4799   -8.7800   18.7475 N   0  0  0  0  0  0  0  0  0  0  0  0
  -27.6973  -16.7432   18.9769 N   0  0  0  0  0  0  0  0  0  0  0  0
  -26.0361  -33.0611   22.1150 N   0  0  0  0  0  0  0  0  0  0  0  0
  -20.6356  -29.3534   22.4663 N   0  0  0  0  0  0  0  0  0  0  0  0
  -19.0865  -27.2071   20.0044 N   0  3  0  0  0  0  0  0  0  0  0  0
  -29.2835  -20.2215   21.7086 O   0  0  0  0  0  0  0  0  0  0  0  0
  -23.5995  -19.2821   16.9626 O   0  0  0  0  0  0  0  0  0  0  0  0
  -24.8825   -8.9512   16.9414 O   0  0  0  0  0  0  0  0  0  0  0  0
  -26.0713  -30.9254   23.0423 O   0  0  0  0  0  0  0  0  0  0  0  0
  -22.1103  -31.7998   22.2438 O   0  0  0  0  0  0  0  0  0  0  0  0
  -21.1559  -27.1631   21.9103 O   0  0  0  0  0  0  0  0  0  0  0  0
  -29.9562  -16.9858   19.4461 O   0  0  0  0  0  0  0  0  0  0  0  0
  -21.1803   -9.5643   23.7612 O   0  0  0  0  0  0  0  0  0  0  0  0
  -27.6014  -25.6269   20.3461 O   0  0  0  0  0  0  0  0  0  1  0  0
  -18.3031   -4.9430   22.8841 F   0  0  0  0  0  0  0  0  0  0  0  0
  -21.1813   -7.5185   25.6206 F   0  0  0  0  0  0  0  0  0  0  0  0
  1  2  1  0  0  0  0
  1  5  2  0  0  0  0
  2  6  2  0  0  0  0
  3  8  2  0  0  0  0
  3 18  1  0  0  0  0
  4  9  1  0  0  0  0
  4 18  2  0  0  0  0
  5 21  1  0  0  0  0
  6 23  1  0  0  0  0
  7 10  2  0  0  0  0
  7 22  1  0  0  0  0
  8 27  1  0  0  0  0
  9 27  2  0  0  0  0
 10 28  1  0  0  0  0
 11 12  2  0  0  0  0
 11 29  1  0  0  0  0
 12 30  1  0  0  0  0
 13 19  1  0  0  0  0
 13 25  2  0  0  0  0
 14 19  2  0  0  0  0
 14 26  1  0  0  0  0
 15 24  1  0  0  0  0
 15 28  2  0  0  0  0
 16 25  1  0  0  0  0
 16 26  2  0  0  0  0
 17 30  2  0  0  0  0
 17 31  1  0  0  0  0
 18 32  1  0  0  0  0
 19 35  1  0  0  0  0
 20 32  1  0  0  0  0
 20 33  2  0  0  0  0
 20 36  1  0  0  0  0
 21 23  2  0  0  0  0
 21 41  1  0  0  0  0
 22 24  2  0  0  0  0
 22 42  1  0  0  0  0
 23 53  1  0  0  0  0
 24 43  1  0  0  0  0
 25 69  1  0  0  0  0
 26 74  1  0  0  0  0
 27 85  1  0  0  0  0
 28 86  1  0  0  0  0
 29 31  2  0  0  0  0
 29 85  1  0  0  0  0
 30 87  1  0  0  0  0
 31 88  1  0  0  0  0
 32 67  2  0  0  0  0
 33 68  1  0  0  0  0
 33 72  1  0  0  0  0
 34 44  1  0  0  0  0
 34 69  1  0  0  0  0
 34 78  2  0  0  0  0
 35 57  1  0  0  0  0
 35 79  2  0  0  0  0
 36 73  1  0  0  0  0
 36 80  2  0  0  0  0
 37 54  1  0  0  0  0
 37 75  1  0  0  0  0
 37 81  2  0  0  0  0
 38 64  1  0  0  0  0
 38 70  1  0  0  0  0
 38 82  2  0  0  0  0
 39 65  1  0  0  0  0
 39 76  1  0  0  0  0
 39 83  2  0  0  0  0
 40 71  1  0  0  0  0
 40 74  1  0  0  0  0
 40 84  2  0  0  0  0
 41 45  1  0  0  0  0
 42 54  1  0  0  0  0
 43 70  1  0  0  0  0
 44 46  1  0  0  0  0
 45 48  1  0  0  0  0
 46 55  1  0  0  0  0
 47 49  1  0  0  0  0
 47 50  1  0  0  0  0
 48 53  1  0  0  0  0
 49 56  1  0  0  0  0
 50 71  1  0  0  0  0
 51 55  1  0  0  0  0
 51 69  1  0  0  0  0
 52 56  1  0  0  0  0
 52 71  1  0  0  0  0
 53 75  1  0  0  0  0
 54 70  1  0  0  0  0
 55 63  1  0  0  0  0
 56 68  1  0  0  0  0
 58 65  1  0  0  0  0
 59 66  1  0  0  0  0
 60 66  1  0  0  0  0
 61 66  1  0  0  0  0
 62 77  1  0  0  0  0
 63 86  1  0  0  0  0
 64 66  1  0  0  0  0
 64 76  1  0  0  0  0
 65 77  1  0  0  0  0
 67 68  1  0  0  0  0
M  CHG  1  77   1
M  ISO  4  40 100  63 101  74 100  86 101
M  END
> <Batch ID>
0060

> <Smiles>
CNC(C)C(=O)NC(C(=O)N1Cc2cc([101O:1][101CH2:1]C3CCC(=O)N(c4cc([100NH:0][100C:0](=O)N5CCCC(n6nc(-c7ccc(Oc8ccc(F)cc8F)cc7)c(C(N)=O)c6N)C5)cc(C(C)=O)c4)C3)ccc2CC1C(=O)NC1CCCc2ccccc21)C(C)(C)C

> <Shape>
0.300

> <Color>
0.085

> <Negative vol penalty>
0.000

$$$$

  -OEChem-04042323043D

 82 90  0     1  0  0  0  0  0999 V2000
  -31.4204  -23.7561   19.6806 C   0  0  0  0  0  0  0  0  0  0  0  0
  -30.1237  -23.7739   20.1841 C   0  0  0  0  0  0  0  0  0  0  0  0
  -24.2099  -23.5616   27.0775 C   0  0  0  0  0  0  0  0  0  0  0  0
  -28.3317  -14.6822   20.8472 C   0  0  0  0  0  0  0  0  0  0  0  0
  -26.1458  -15.6846   20.6149 C   0  0  0  0  0  0  0  0  0  0  0  0
  -23.0272  -23.5839   26.3384 C   0  0  0  0  0  0  0  0  0  0  0  0
  -32.3540  -24.6896   20.1289 C   0  0  0  0  0  0  0  0  0  0  0  0
  -29.7600  -24.7248   21.1370 C   0  0  0  0  0  0  0  0  0  0  0  0
  -25.2737  -26.8534   20.1435 C   0  0  0  0  0  0  0  0  0  0  0  0
  -25.3796  -23.0597   26.5068 C   0  0  0  0  0  0  0  0  0  0  0  0
  -27.7523  -13.4136   20.8254 C   0  0  0  0  0  0  0  0  0  0  0  0
  -25.5664  -14.4159   20.5931 C   0  0  0  0  0  0  0  0  0  0  0  0
  -24.1344  -26.1136   20.4574 C   0  0  0  0  0  0  0  0  0  0  0  0
  -24.7255  -12.0224   22.8280 C   0  0  0  0  0  0  0  0  0  0  0  0
  -23.5850  -11.8174   23.6044 C   0  0  0  0  0  0  0  0  0  0  0  0
  -23.8736  -27.3884   22.4887 C   0  0  0  0  0  0  0  0  0  0  0  0
  -22.3349  -11.2464   21.6174 C   0  0  0  0  0  0  0  0  0  0  0  0
  -27.5285  -15.8177   20.7420 C   0  0  0  0  0  0  0  0  0  0  0  0
  -23.0140  -23.1044   25.0287 C   0  0  0  0  0  0  0  0  0  0  0  0
  -28.5848  -17.8732   19.6618 C   0  0  0  0  0  0  0  0  0  0  0  0
  -31.9988  -25.6585   21.0806 C   0  0  0  0  0  0  0  0  0  0  0  0
  -25.7284  -27.8607   21.0067 C   0  0  0  0  0  0  0  0  0  0  0  0
  -30.6900  -25.6713   21.5994 C   0  0  0  0  0  0  0  0  0  0  0  0
  -25.0174  -28.1413   22.1822 C   0  0  0  0  0  0  0  0  0  0  0  0
  -24.1837  -22.6024   24.4580 C   0  0  0  0  0  0  0  0  0  0  0  0
  -25.3664  -22.5801   25.1971 C   0  0  0  0  0  0  0  0  0  0  0  0
  -26.3697  -13.2804   20.6983 C   0  0  0  0  0  0  0  0  0  0  0  0
  -23.4358  -26.3791   21.6316 C   0  0  0  0  0  0  0  0  0  0  0  0
  -24.6707  -11.8395   21.4462 C   0  0  0  0  0  0  0  0  0  0  0  0
  -22.3897  -11.4293   22.9992 C   0  0  0  0  0  0  0  0  0  0  0  0
  -23.4754  -11.4514   20.8409 C   0  0  0  0  0  0  0  0  0  0  0  0
  -28.1263  -17.1285   20.7650 C   0  0  0  0  0  0  0  0  0  0  0  0
  -29.0607  -19.0397   20.2089 C   0  0  0  0  0  0  0  0  0  0  0  0
  -21.7529  -23.1430   24.2810 C   0  0  0  0  0  0  0  0  0  0  0  0
  -28.5809  -17.5403   18.2672 C   0  0  0  0  0  0  0  0  0  0  0  0
  -21.3167  -24.1605   23.5132 C   0  0  0  0  0  0  0  0  0  0  0  0
  -28.3839  -28.3466   22.6847 C   0  0  0  0  0  0  0  0  0  0  0  0
  -26.9983  -31.2117   23.3123 C   0  0  0  0  0  0  0  0  0  0  0  0
  -24.1370  -33.0570   23.5456 C   0  0  0  0  0  0  0  0  0  0  0  0
  -27.8144  -21.9882   25.2545 C   0  0  0  0  0  0  0  0  0  0  0  0
  -33.0555  -26.6171   21.5697 C   0  0  0  0  0  0  0  0  0  0  0  0
  -26.9438  -28.6677   20.6405 C   0  0  0  0  0  0  0  0  0  0  0  0
  -25.4526  -29.2258   23.1324 C   0  0  0  0  0  0  0  0  0  0  0  0
  -32.4862  -27.8280   22.3044 C   0  0  0  0  0  0  0  0  0  0  0  0
  -31.0001  -20.7717   24.2305 C   0  0  0  0  0  0  0  0  0  0  0  0
  -31.4293  -27.3916   23.3140 C   0  0  0  0  0  0  0  0  0  0  0  0
  -30.6668  -19.7716   23.1210 C   0  0  0  0  0  0  0  0  0  0  0  0
  -29.9623  -20.7423   25.3511 C   0  0  0  0  0  0  0  0  0  0  0  0
  -28.2372  -19.9071   23.8034 C   0  0  0  0  0  0  0  0  0  0  0  0
  -30.2505  -26.7028   22.6158 C   0  0  1  0  0  0  0  0  0  0  0  0
  -27.6105  -29.3240   21.8455 C   0  0  1  0  0  0  0  0  0  0  0  0
  -29.2193  -19.9462   22.6212 C   0  0  2  0  0  0  0  0  0  0  0  0
  -24.1772  -22.0856   23.0515 C   0  0  0  0  0  0  0  0  0  0  0  0
  -19.9981  -24.0484   22.7926 C   0  0  0  0  0  0  0  0  0  0  0  0
  -23.3191  -35.3597   24.1164 C   0  0  0  0  0  0  0  0  0  0  0  0
  -27.4110  -30.6207   26.2771 C   0  0  0  0  0  0  0  0  0  0  0  0
  -25.7685  -32.4375   26.7965 C   0  0  0  0  0  0  0  0  0  0  0  0
  -27.8927  -32.9815   25.6071 C   0  0  0  0  0  0  0  0  0  0  0  0
  -22.9995  -33.4491   20.8417 C   0  0  0  0  0  0  0  0  0  0  0  0
  -22.0351  -25.4714   23.3256 C   0  0  0  0  0  0  0  0  0  1  0  0
  -26.0668  -31.7383   24.3771 C   0  0  1  0  0  0  0  0  0  0  0  0
  -23.7760  -34.4285   23.0042 C   0  0  2  0  0  0  0  0  0  0  0  0
  -26.7774  -31.9227   25.7477 C   0  0  0  0  0  0  0  0  0  0  0  0
  -28.2958  -17.7681   21.9252 N   0  0  0  0  0  0  0  0  0  0  0  0
  -28.8661  -18.9270   21.5541 N   0  0  0  0  0  0  0  0  0  0  0  0
  -26.6505  -29.9830   22.7334 N   0  0  0  0  0  0  0  0  0  0  0  0
  -28.6155  -20.9179   24.8033 N   0  0  0  0  0  0  0  0  0  0  0  0
  -29.6224  -20.1405   19.6657 N   0  0  0  0  0  0  0  0  0  0  0  0
  -28.0548  -16.3010   17.8776 N   0  0  0  0  0  0  0  0  0  0  0  0
  -26.5663  -22.0737   24.6387 N   0  0  0  0  0  0  0  0  0  0  0  0
  -29.3846  -27.6848   21.9990 N   0  0  0  0  0  0  0  0  0  0  0  0
  -25.4810  -32.9611   23.8385 N   0  0  0  0  0  0  0  0  0  0  0  0
  -22.6775  -34.3175   22.0032 N   0  3  0  0  0  0  0  0  0  0  0  0
  -29.0455  -18.3118   17.3941 O   0  0  0  0  0  0  0  0  0  0  0  0
  -28.0952  -28.2046   23.8672 O   0  0  0  0  0  0  0  0  0  0  0  0
  -27.9940  -31.8697   23.0004 O   0  0  0  0  0  0  0  0  0  0  0  0
  -23.3089  -32.1615   23.6972 O   0  0  0  0  0  0  0  0  0  0  0  0
  -28.2174  -22.7873   26.1037 O   0  0  0  0  0  0  0  0  0  0  0  0
  -25.8040  -12.0426   20.6768 O   0  0  0  0  0  0  0  0  0  0  0  0
  -22.3239  -25.6580   21.9407 O   0  0  0  0  0  0  0  0  0  1  0  0
  -21.2950  -11.2310   23.7451 F   0  0  0  0  0  0  0  0  0  0  0  0
  -23.4169  -11.2730   19.5141 F   0  0  0  0  0  0  0  0  0  0  0  0
  1  2  1  0  0  0  0
  1  7  2  0  0  0  0
  2  8  2  0  0  0  0
  3  6  2  0  0  0  0
  3 10  1  0  0  0  0
  4 11  2  0  0  0  0
  4 18  1  0  0  0  0
  5 12  1  0  0  0  0
  5 18  2  0  0  0  0
  6 19  1  0  0  0  0
  7 21  1  0  0  0  0
  8 23  1  0  0  0  0
  9 13  2  0  0  0  0
  9 22  1  0  0  0  0
 10 26  2  0  0  0  0
 11 27  1  0  0  0  0
 12 27  2  0  0  0  0
 13 28  1  0  0  0  0
 14 15  2  0  0  0  0
 14 29  1  0  0  0  0
 15 30  1  0  0  0  0
 16 24  1  0  0  0  0
 16 28  2  0  0  0  0
 17 30  2  0  0  0  0
 17 31  1  0  0  0  0
 18 32  1  0  0  0  0
 19 25  2  0  0  0  0
 19 34  1  0  0  0  0
 20 32  1  0  0  0  0
 20 33  2  0  0  0  0
 20 35  1  0  0  0  0
 21 23  2  0  0  0  0
 21 41  1  0  0  0  0
 22 24  2  0  0  0  0
 22 42  1  0  0  0  0
 23 50  1  0  0  0  0
 24 43  1  0  0  0  0
 25 26  1  0  0  0  0
 25 53  1  0  0  0  0
 26 70  1  0  0  0  0
 27 79  1  0  0  0  0
 28 80  1  0  0  0  0
 29 31  2  0  0  0  0
 29 79  1  0  0  0  0
 30 81  1  0  0  0  0
 31 82  1  0  0  0  0
 32 64  2  0  0  0  0
 33 65  1  0  0  0  0
 33 68  1  0  0  0  0
 34 36  2  0  0  0  0
 35 69  1  0  0  0  0
 35 74  2  0  0  0  0
 36 54  1  0  0  0  0
 36 60  1  0  0  0  0
 37 51  1  0  0  0  0
 37 71  1  0  0  0  0
 37 75  2  0  0  0  0
 38 61  1  0  0  0  0
 38 66  1  0  0  0  0
 38 76  2  0  0  0  0
 39 62  1  0  0  0  0
 39 72  1  0  0  0  0
 39 77  2  0  0  0  0
 40 67  1  0  0  0  0
 40 70  1  0  0  0  0
 40 78  2  0  0  0  0
 41 44  1  0  0  0  0
 42 51  1  0  0  0  0
 43 66  1  0  0  0  0
 44 46  1  0  0  0  0
 45 47  1  0  0  0  0
 45 48  1  0  0  0  0
 46 50  1  0  0  0  0
 47 52  1  0  0  0  0
 48 67  1  0  0  0  0
 49 52  1  0  0  0  0
 49 67  1  0  0  0  0
 50 71  1  0  0  0  0
 51 66  1  0  0  0  0
 52 65  1  0  0  0  0
 55 62  1  0  0  0  0
 56 63  1  0  0  0  0
 57 63  1  0  0  0  0
 58 63  1  0  0  0  0
 59 73  1  0  0  0  0
 60 80  1  0  0  0  0
 61 63  1  0  0  0  0
 61 72  1  0  0  0  0
 62 73  1  0  0  0  0
 64 65  1  0  0  0  0
M  CHG  1  73   1
M  ISO  4  40 100  60 101  70 100  80 101
M  END
> <Batch ID>
0060

> <Smiles>
CNC(C)C(=O)NC(C(=O)N1Cc2cc([101O:1][101CH2:1]C(C)=Cc3cccc([100NH:0][100C:0](=O)N4CCCC(n5nc(-c6ccc(Oc7ccc(F)cc7F)cc6)c(C(N)=O)c5N)C4)c3C)ccc2CC1C(=O)NC1CCCc2ccccc21)C(C)(C)C

> <Shape>
0.212

> <Color>
0.066

> <Negative vol penalty>
0.000

$$$$

  -OEChem-04042323043D

 84 92  0     1  0  0  0  0  0999 V2000
  -17.0697  -25.4241   24.2122 C   0  0  0  0  0  0  0  0  0  0  0  0
  -18.2480  -24.8863   24.7196 C   0  0  0  0  0  0  0  0  0  0  0  0
  -32.4484  -17.7955   23.3646 C   0  0  0  0  0  0  0  0  0  0  0  0
  -23.0449   -9.8824   20.0457 C   0  0  0  0  0  0  0  0  0  0  0  0
  -23.7153  -10.0554   22.3603 C   0  0  0  0  0  0  0  0  0  0  0  0
  -17.1224  -26.4329   23.2512 C   0  0  0  0  0  0  0  0  0  0  0  0
  -19.4799  -25.3562   24.2656 C   0  0  0  0  0  0  0  0  0  0  0  0
  -24.6315  -25.9277   27.5275 C   0  0  0  0  0  0  0  0  0  0  0  0
  -31.6346  -18.7123   24.0299 C   0  0  0  0  0  0  0  0  0  0  0  0
  -31.8812  -16.8548   22.5049 C   0  0  0  0  0  0  0  0  0  0  0  0
  -22.2997   -8.7424   20.3467 C   0  0  0  0  0  0  0  0  0  0  0  0
  -22.9701   -8.9154   22.6614 C   0  0  0  0  0  0  0  0  0  0  0  0
  -25.7612  -25.1193   27.6460 C   0  0  0  0  0  0  0  0  0  0  0  0
  -23.3048   -5.5657   22.3482 C   0  0  0  0  0  0  0  0  0  0  0  0
  -23.8989   -4.5985   23.1588 C   0  0  0  0  0  0  0  0  0  0  0  0
  -26.8837  -26.4541   25.9794 C   0  0  0  0  0  0  0  0  0  0  0  0
  -22.1316   -4.8739   24.7829 C   0  0  0  0  0  0  0  0  0  0  0  0
  -23.7528  -10.5389   21.0524 C   0  0  0  0  0  0  0  0  0  0  0  0
  -24.0819  -13.0528   20.7700 C   0  0  0  0  0  0  0  0  0  0  0  0
  -18.3555  -26.9222   22.7922 C   0  0  0  0  0  0  0  0  0  0  0  0
  -24.6155  -27.0005   26.6246 C   0  0  0  0  0  0  0  0  0  0  0  0
  -19.5491  -26.3716   23.2966 C   0  0  0  0  0  0  0  0  0  0  0  0
  -25.7535  -27.2761   25.8532 C   0  0  0  0  0  0  0  0  0  0  0  0
  -29.6863  -17.7478   22.9759 C   0  0  0  0  0  0  0  0  0  0  0  0
  -30.2535  -18.6885   23.8356 C   0  0  0  0  0  0  0  0  0  0  0  0
  -30.5001  -16.8309   22.3106 C   0  0  0  0  0  0  0  0  0  0  0  0
  -22.2623   -8.2589   21.6546 C   0  0  0  0  0  0  0  0  0  0  0  0
  -26.8865  -25.3807   26.8698 C   0  0  0  0  0  0  0  0  0  0  0  0
  -22.1241   -6.1871   22.7550 C   0  0  0  0  0  0  0  0  0  0  0  0
  -23.3123   -4.2525   24.3761 C   0  0  0  0  0  0  0  0  0  0  0  0
  -21.5374   -5.8412   23.9723 C   0  0  0  0  0  0  0  0  0  0  0  0
  -24.5232  -11.7162   20.7419 C   0  0  0  0  0  0  0  0  0  0  0  0
  -25.1823  -13.7855   20.3974 C   0  0  0  0  0  0  0  0  0  0  0  0
  -28.7072  -21.4017   25.9188 C   0  0  0  0  0  0  0  0  0  0  0  0
  -28.8967  -22.4058   26.7859 C   0  0  0  0  0  0  0  0  0  0  0  0
  -22.7928  -13.5844   21.1032 C   0  0  0  0  0  0  0  0  0  0  0  0
  -29.8674  -20.6149   25.4045 C   0  0  0  0  0  0  0  0  0  0  0  0
  -22.8908  -27.7501   24.0620 C   0  0  0  0  0  0  0  0  0  0  0  0
  -24.5561  -30.5284   24.2355 C   0  0  0  0  0  0  0  0  0  0  0  0
  -27.3586  -32.1654   25.2904 C   0  0  0  0  0  0  0  0  0  0  0  0
  -30.6304  -14.8921   20.7073 C   0  0  0  0  0  0  0  0  0  0  0  0
  -18.3621  -27.9807   21.7178 C   0  0  0  0  0  0  0  0  0  0  0  0
  -23.3986  -27.8793   26.5280 C   0  0  0  0  0  0  0  0  0  0  0  0
  -25.7945  -28.4281   24.8838 C   0  0  0  0  0  0  0  0  0  0  0  0
  -19.7082  -28.6839   21.5639 C   0  0  0  0  0  0  0  0  0  0  0  0
  -29.6249  -12.3096   18.4721 C   0  0  0  0  0  0  0  0  0  0  0  0
  -20.8428  -27.6648   21.5360 C   0  0  0  0  0  0  0  0  0  0  0  0
  -28.1717  -12.0349   18.8657 C   0  0  0  0  0  0  0  0  0  0  0  0
  -30.4912  -12.6297   19.6889 C   0  0  0  0  0  0  0  0  0  0  0  0
  -28.5273  -13.4302   20.9426 C   0  0  0  0  0  0  0  0  0  0  0  0
  -20.9047  -26.8722   22.8473 C   0  0  1  0  0  0  0  0  0  0  0  0
  -23.3089  -28.6322   25.2042 C   0  0  1  0  0  0  0  0  0  0  0  0
  -27.6020  -13.1666   19.7434 C   0  0  2  0  0  0  0  0  0  0  0  0
  -28.2034  -17.7216   22.7679 C   0  0  0  0  0  0  0  0  0  0  0  0
  -28.4536  -34.4230   25.2509 C   0  0  0  0  0  0  0  0  0  0  0  0
  -25.3445  -30.0924   21.3203 C   0  0  0  0  0  0  0  0  0  0  0  0
  -27.1473  -31.8028   21.6247 C   0  0  0  0  0  0  0  0  0  0  0  0
  -24.7547  -32.4526   21.8996 C   0  0  0  0  0  0  0  0  0  0  0  0
  -27.3276  -32.3606   28.2434 C   0  0  0  0  0  0  0  0  0  0  0  0
  -27.7801  -23.2282   27.3436 C   0  0  0  0  0  0  0  0  0  1  0  0
  -25.8634  -31.0283   23.6699 C   0  0  1  0  0  0  0  0  0  0  0  0
  -27.5402  -33.4830   26.0221 C   0  0  2  0  0  0  0  0  0  0  0  0
  -25.7763  -31.3211   22.1454 C   0  0  0  0  0  0  0  0  0  0  0  0
  -25.8039  -11.6035   20.3799 N   0  0  0  0  0  0  0  0  0  0  0  0
  -26.1769  -12.8786   20.1770 N   0  0  0  0  0  0  0  0  0  0  0  0
  -24.5777  -29.2546   24.8208 N   0  0  0  0  0  0  0  0  0  0  0  0
  -29.8917  -13.7136   20.4704 N   0  0  0  0  0  0  0  0  0  0  0  0
  -25.3864  -15.1106   20.2399 N   0  0  0  0  0  0  0  0  0  0  0  0
  -21.7747  -12.6913   21.4641 N   0  0  0  0  0  0  0  0  0  0  0  0
  -29.4463  -19.6281   24.5227 N   0  0  0  0  0  0  0  0  0  0  0  0
  -29.9456  -15.8655   21.4340 N   0  0  0  0  0  0  0  0  0  0  0  0
  -21.5225  -27.6651   23.8885 N   0  0  0  0  0  0  0  0  0  0  0  0
  -26.2439  -32.1812   24.4789 N   0  0  0  0  0  0  0  0  0  0  0  0
  -28.1345  -33.2500   27.3688 N   0  3  0  0  0  0  0  0  0  0  0  0
  -22.5462  -14.8137   21.0657 O   0  0  0  0  0  0  0  0  0  0  0  0
  -31.0132  -20.8651   25.7592 O   0  0  0  0  0  0  0  0  0  0  0  0
  -23.7462  -27.1894   23.3871 O   0  0  0  0  0  0  0  0  0  0  0  0
  -23.5542  -31.2449   24.1670 O   0  0  0  0  0  0  0  0  0  0  0  0
  -28.1307  -31.2182   25.4224 O   0  0  0  0  0  0  0  0  0  0  0  0
  -31.7756  -15.0387   20.2725 O   0  0  0  0  0  0  0  0  0  0  0  0
  -21.5350   -7.1467   21.9488 O   0  0  0  0  0  0  0  0  0  0  0  0
  -27.9903  -24.5928   26.9830 O   0  0  0  0  0  0  0  0  0  1  0  0
  -23.8821   -3.3226   25.1537 F   0  0  0  0  0  0  0  0  0  0  0  0
  -20.4025   -6.4339   24.3679 F   0  0  0  0  0  0  0  0  0  0  0  0
  1  2  1  0  0  0  0
  1  6  2  0  0  0  0
  2  7  2  0  0  0  0
  3  9  2  0  0  0  0
  3 10  1  0  0  0  0
  4 11  2  0  0  0  0
  4 18  1  0  0  0  0
  5 12  1  0  0  0  0
  5 18  2  0  0  0  0
  6 20  1  0  0  0  0
  7 22  1  0  0  0  0
  8 13  2  0  0  0  0
  8 21  1  0  0  0  0
  9 25  1  0  0  0  0
 10 26  2  0  0  0  0
 11 27  1  0  0  0  0
 12 27  2  0  0  0  0
 13 28  1  0  0  0  0
 14 15  2  0  0  0  0
 14 29  1  0  0  0  0
 15 30  1  0  0  0  0
 16 23  1  0  0  0  0
 16 28  2  0  0  0  0
 17 30  2  0  0  0  0
 17 31  1  0  0  0  0
 18 32  1  0  0  0  0
 19 32  1  0  0  0  0
 19 33  2  0  0  0  0
 19 36  1  0  0  0  0
 20 22  2  0  0  0  0
 20 42  1  0  0  0  0
 21 23  2  0  0  0  0
 21 43  1  0  0  0  0
 22 51  1  0  0  0  0
 23 44  1  0  0  0  0
 24 25  2  0  0  0  0
 24 26  1  0  0  0  0
 24 54  1  0  0  0  0
 25 70  1  0  0  0  0
 26 71  1  0  0  0  0
 27 81  1  0  0  0  0
 28 82  1  0  0  0  0
 29 31  2  0  0  0  0
 29 81  1  0  0  0  0
 30 83  1  0  0  0  0
 31 84  1  0  0  0  0
 32 64  2  0  0  0  0
 33 65  1  0  0  0  0
 33 68  1  0  0  0  0
 34 35  2  0  0  0  0
 34 37  1  0  0  0  0
 35 60  1  0  0  0  0
 36 69  1  0  0  0  0
 36 75  2  0  0  0  0
 37 70  1  0  0  0  0
 37 76  2  0  0  0  0
 38 52  1  0  0  0  0
 38 72  1  0  0  0  0
 38 77  2  0  0  0  0
 39 61  1  0  0  0  0
 39 66  1  0  0  0  0
 39 78  2  0  0  0  0
 40 62  1  0  0  0  0
 40 73  1  0  0  0  0
 40 79  2  0  0  0  0
 41 67  1  0  0  0  0
 41 71  1  0  0  0  0
 41 80  2  0  0  0  0
 42 45  1  0  0  0  0
 43 52  1  0  0  0  0
 44 66  1  0  0  0  0
 45 47  1  0  0  0  0
 46 48  1  0  0  0  0
 46 49  1  0  0  0  0
 47 51  1  0  0  0  0
 48 53  1  0  0  0  0
 49 67  1  0  0  0  0
 50 53  1  0  0  0  0
 50 67  1  0  0  0  0
 51 72  1  0  0  0  0
 52 66  1  0  0  0  0
 53 65  1  0  0  0  0
 55 62  1  0  0  0  0
 56 63  1  0  0  0  0
 57 63  1  0  0  0  0
 58 63  1  0  0  0  0
 59 74  1  0  0  0  0
 60 82  1  0  0  0  0
 61 63  1  0  0  0  0
 61 73  1  0  0  0  0
 62 74  1  0  0  0  0
 64 65  1  0  0  0  0
M  CHG  1  74   1
M  ISO  4  41 100  60 101  71 100  82 101
M  END
> <Batch ID>
0060

> <Smiles>
CNC(C)C(=O)NC(C(=O)N1Cc2cc([101O:1][101CH2:1]C=CC(=O)Nc3cccc([100NH:0][100C:0](=O)N4CCCC(n5nc(-c6ccc(Oc7ccc(F)cc7F)cc6)c(C(N)=O)c5N)C4)c3C)ccc2CC1C(=O)NC1CCCc2ccccc21)C(C)(C)C

> <Shape>
0.310

> <Color>
0.227

> <Negative vol penalty>
0.000

$$$$

  -OEChem-04042323043D

 88 96  0     1  0  0  0  0  0999 V2000
  -18.6370  -25.1577   21.0709 C   0  0  0  0  0  0  0  0  0  0  0  0
  -19.9539  -24.9609   21.4740 C   0  0  0  0  0  0  0  0  0  0  0  0
  -23.3701   -9.6411   19.9985 C   0  0  0  0  0  0  0  0  0  0  0  0
  -23.9024   -9.9220   22.3384 C   0  0  0  0  0  0  0  0  0  0  0  0
  -18.2372  -26.4006   20.5818 C   0  0  0  0  0  0  0  0  0  0  0  0
  -20.8721  -26.0067   21.3870 C   0  0  0  0  0  0  0  0  0  0  0  0
  -23.7300  -26.4337   25.5457 C   0  0  0  0  0  0  0  0  0  0  0  0
  -31.3145  -17.5403   22.7384 C   0  0  0  0  0  0  0  0  0  0  0  0
  -22.7301   -8.4362   20.2887 C   0  0  0  0  0  0  0  0  0  0  0  0
  -23.2623   -8.7171   22.6286 C   0  0  0  0  0  0  0  0  0  0  0  0
  -24.7826  -25.5311   25.6904 C   0  0  0  0  0  0  0  0  0  0  0  0
  -20.0923   -7.6142   23.0219 C   0  0  0  0  0  0  0  0  0  0  0  0
  -31.7177  -18.5564   23.6047 C   0  0  0  0  0  0  0  0  0  0  0  0
  -19.2351   -7.5860   24.1220 C   0  0  0  0  0  0  0  0  0  0  0  0
  -29.0077  -18.1843   23.0567 C   0  0  0  0  0  0  0  0  0  0  0  0
  -26.3244  -27.2128   24.9069 C   0  0  0  0  0  0  0  0  0  0  0  0
  -20.5957   -5.8673   25.1380 C   0  0  0  0  0  0  0  0  0  0  0  0
  -23.9563  -10.3840   21.0233 C   0  0  0  0  0  0  0  0  0  0  0  0
  -29.4109  -19.2004   23.9231 C   0  0  0  0  0  0  0  0  0  0  0  0
  -24.0428  -12.9130   20.7009 C   0  0  0  0  0  0  0  0  0  0  0  0
  -19.1487  -27.4650   20.4978 C   0  0  0  0  0  0  0  0  0  0  0  0
  -23.9655  -27.7314   25.0694 C   0  0  0  0  0  0  0  0  0  0  0  0
  -20.4845  -27.2646   20.8949 C   0  0  0  0  0  0  0  0  0  0  0  0
  -25.2734  -28.1308   24.7595 C   0  0  0  0  0  0  0  0  0  0  0  0
  -29.9594  -17.3543   22.4643 C   0  0  0  0  0  0  0  0  0  0  0  0
  -22.6762   -7.9742   21.6037 C   0  0  0  0  0  0  0  0  0  0  0  0
  -26.0797  -25.9196   25.3682 C   0  0  0  0  0  0  0  0  0  0  0  0
  -21.2011   -6.7689   22.9798 C   0  0  0  0  0  0  0  0  0  0  0  0
  -19.4869   -6.7126   25.1800 C   0  0  0  0  0  0  0  0  0  0  0  0
  -30.7659  -19.3864   24.1971 C   0  0  0  0  0  0  0  0  0  0  0  0
  -21.4528   -5.8955   24.0379 C   0  0  0  0  0  0  0  0  0  0  0  0
  -24.6181  -11.6284   20.7241 C   0  0  0  0  0  0  0  0  0  0  0  0
  -25.0805  -13.7480   20.3655 C   0  0  0  0  0  0  0  0  0  0  0  0
  -28.3949  -20.0827   24.5526 C   0  0  0  0  0  0  0  0  0  0  0  0
  -22.6913  -13.3157   20.9596 C   0  0  0  0  0  0  0  0  0  0  0  0
  -23.0247  -29.3934   22.5285 C   0  0  0  0  0  0  0  0  0  0  0  0
  -28.0319  -22.8706   26.0622 C   0  0  0  0  0  0  0  0  0  0  0  0
  -24.5715  -31.8187   24.0279 C   0  0  0  0  0  0  0  0  0  0  0  0
  -26.9654  -32.7878   26.2587 C   0  0  0  0  0  0  0  0  0  0  0  0
  -30.3660  -15.4115   20.9130 C   0  0  0  0  0  0  0  0  0  0  0  0
  -18.6816  -28.7766   19.9180 C   0  0  0  0  0  0  0  0  0  0  0  0
  -22.8230  -28.7017   24.9444 C   0  0  0  0  0  0  0  0  0  0  0  0
  -25.5821  -29.5190   24.2635 C   0  0  0  0  0  0  0  0  0  0  0  0
  -19.6246  -29.9413   20.2089 C   0  0  0  0  0  0  0  0  0  0  0  0
  -29.7410  -12.7012   18.6902 C   0  0  0  0  0  0  0  0  0  0  0  0
  -21.0700  -29.5399   19.9324 C   0  0  0  0  0  0  0  0  0  0  0  0
  -28.3051  -12.2862   19.0193 C   0  0  0  0  0  0  0  0  0  0  0  0
  -30.5081  -13.1294   19.9400 C   0  0  0  0  0  0  0  0  0  0  0  0
  -28.4127  -13.7463   21.0793 C   0  0  0  0  0  0  0  0  0  0  0  0
  -21.5039  -28.3817   20.8390 C   0  0  1  0  0  0  0  0  0  0  0  0
  -23.1058  -29.8345   23.9626 C   0  0  1  0  0  0  0  0  0  0  0  0
  -27.5804  -13.3686   19.8431 C   0  0  2  0  0  0  0  0  0  0  0  0
  -28.0248  -34.8378   27.2449 C   0  0  0  0  0  0  0  0  0  0  0  0
  -29.3693  -21.7706   28.5789 C   0  0  0  0  0  0  0  0  0  0  0  0
  -27.7183  -19.8857   28.5462 C   0  0  0  0  0  0  0  0  0  0  0  0
  -26.1438  -32.2442   21.4478 C   0  0  0  0  0  0  0  0  0  0  0  0
  -27.7875  -33.6062   22.7562 C   0  0  0  0  0  0  0  0  0  0  0  0
  -25.4125  -34.3492   22.5830 C   0  0  0  0  0  0  0  0  0  0  0  0
  -26.1100  -32.0549   28.9956 C   0  0  0  0  0  0  0  0  0  0  0  0
  -26.7880  -23.7360   25.9896 C   0  0  0  0  0  0  0  0  0  1  0  0
  -27.8288  -21.4392   26.5515 C   0  0  2  0  0  0  0  0  0  0  0  0
  -25.9842  -32.3509   24.0225 C   0  0  1  0  0  0  0  0  0  0  0  0
  -26.9335  -33.7899   27.3986 C   0  0  2  0  0  0  0  0  0  0  0  0
  -27.9940  -21.3180   28.0779 C   0  0  0  0  0  0  0  0  0  0  0  0
  -26.3262  -33.1108   22.7098 C   0  0  0  0  0  0  0  0  0  0  0  0
  -25.9202  -11.6411   20.4269 N   0  0  0  0  0  0  0  0  0  0  0  0
  -26.1717  -12.9439   20.2137 N   0  0  0  0  0  0  0  0  0  0  0  0
  -24.4304  -30.4293   24.1521 N   0  0  0  0  0  0  0  0  0  0  0  0
  -29.7634  -14.1596   20.6672 N   0  0  0  0  0  0  0  0  0  0  0  0
  -25.1569  -15.0841   20.1885 N   0  0  0  0  0  0  0  0  0  0  0  0
  -21.7521  -12.3295   21.2909 N   0  0  0  0  0  0  0  0  0  0  0  0
  -29.5504  -16.3222   21.5839 N   0  0  0  0  0  0  0  0  0  0  0  0
  -28.7196  -20.5899   25.8037 N   0  0  0  0  0  0  0  0  0  0  0  0
  -21.7989  -28.8655   22.1707 N   0  0  0  0  0  0  0  0  0  0  0  0
  -26.1219  -33.1553   25.2318 N   0  0  0  0  0  0  0  0  0  0  0  0
  -27.1280  -33.0966   28.7034 N   0  3  0  0  0  0  0  0  0  0  0  0
  -27.3392  -20.2980   23.9629 O   0  0  0  0  0  0  0  0  0  0  0  0
  -22.3236  -14.5125   20.8827 O   0  0  0  0  0  0  0  0  0  0  0  0
  -24.0015  -29.5239   21.8001 O   0  0  0  0  0  0  0  0  0  0  0  0
  -29.1433  -23.3131   25.7706 O   0  0  0  0  0  0  0  0  0  0  0  0
  -23.6278  -32.6073   23.9327 O   0  0  0  0  0  0  0  0  0  0  0  0
  -27.6710  -31.7816   26.2759 O   0  0  0  0  0  0  0  0  0  0  0  0
  -31.5108  -15.6669   20.5308 O   0  0  0  0  0  0  0  0  0  0  0  0
  -22.0515   -6.7987   21.8873 O   0  0  0  0  0  0  0  0  0  0  0  0
  -27.1089  -25.0403   25.5078 O   0  0  0  0  0  0  0  0  0  1  0  0
  -18.6646   -6.6867   26.2371 F   0  0  0  0  0  0  0  0  0  0  0  0
  -31.1645  -20.3598   25.0280 F   0  0  0  0  0  0  0  0  0  0  0  0
  -22.5171   -5.0820   24.0036 F   0  0  0  0  0  0  0  0  0  0  0  0
  1  2  1  0  0  0  0
  1  5  2  0  0  0  0
  2  6  2  0  0  0  0
  3  9  2  0  0  0  0
  3 18  1  0  0  0  0
  4 10  1  0  0  0  0
  4 18  2  0  0  0  0
  5 21  1  0  0  0  0
  6 23  1  0  0  0  0
  7 11  2  0  0  0  0
  7 22  1  0  0  0  0
  8 13  2  0  0  0  0
  8 25  1  0  0  0  0
  9 26  1  0  0  0  0
 10 26  2  0  0  0  0
 11 27  1  0  0  0  0
 12 14  2  0  0  0  0
 12 28  1  0  0  0  0
 13 30  1  0  0  0  0
 14 29  1  0  0  0  0
 15 19  1  0  0  0  0
 15 25  2  0  0  0  0
 16 24  1  0  0  0  0
 16 27  2  0  0  0  0
 17 29  2  0  0  0  0
 17 31  1  0  0  0  0
 18 32  1  0  0  0  0
 19 30  2  0  0  0  0
 19 34  1  0  0  0  0
 20 32  1  0  0  0  0
 20 33  2  0  0  0  0
 20 35  1  0  0  0  0
 21 23  2  0  0  0  0
 21 41  1  0  0  0  0
 22 24  2  0  0  0  0
 22 42  1  0  0  0  0
 23 50  1  0  0  0  0
 24 43  1  0  0  0  0
 25 72  1  0  0  0  0
 26 84  1  0  0  0  0
 27 85  1  0  0  0  0
 28 31  2  0  0  0  0
 28 84  1  0  0  0  0
 29 86  1  0  0  0  0
 30 87  1  0  0  0  0
 31 88  1  0  0  0  0
 32 66  2  0  0  0  0
 33 67  1  0  0  0  0
 33 70  1  0  0  0  0
 34 73  1  0  0  0  0
 34 77  2  0  0  0  0
 35 71  1  0  0  0  0
 35 78  2  0  0  0  0
 36 51  1  0  0  0  0
 36 74  1  0  0  0  0
 36 79  2  0  0  0  0
 37 60  1  0  0  0  0
 37 61  1  0  0  0  0
 37 80  2  0  0  0  0
 38 62  1  0  0  0  0
 38 68  1  0  0  0  0
 38 81  2  0  0  0  0
 39 63  1  0  0  0  0
 39 75  1  0  0  0  0
 39 82  2  0  0  0  0
 40 69  1  0  0  0  0
 40 72  1  0  0  0  0
 40 83  2  0  0  0  0
 41 44  1  0  0  0  0
 42 51  1  0  0  0  0
 43 68  1  0  0  0  0
 44 46  1  0  0  0  0
 45 47  1  0  0  0  0
 45 48  1  0  0  0  0
 46 50  1  0  0  0  0
 47 52  1  0  0  0  0
 48 69  1  0  0  0  0
 49 52  1  0  0  0  0
 49 69  1  0  0  0  0
 50 74  1  0  0  0  0
 51 68  1  0  0  0  0
 52 67  1  0  0  0  0
 53 63  1  0  0  0  0
 54 64  1  0  0  0  0
 55 64  1  0  0  0  0
 56 65  1  0  0  0  0
 57 65  1  0  0  0  0
 58 65  1  0  0  0  0
 59 76  1  0  0  0  0
 60 85  1  0  0  0  0
 61 64  1  0  0  0  0
 61 73  1  0  0  0  0
 62 65  1  0  0  0  0
 62 75  1  0  0  0  0
 63 76  1  0  0  0  0
 66 67  1  0  0  0  0
M  CHG  1  76   1
M  ISO  4  40 100  60 101  72 100  85 101
M  END
> <Batch ID>
0060

> <Smiles>
CNC(C)C(=O)NC(C(=O)N1Cc2cc([101O:1][101CH2:1]C(=O)C(NC(=O)c3cc([100NH:0][100C:0](=O)N4CCCC(n5nc(-c6ccc(Oc7ccc(F)cc7F)cc6)c(C(N)=O)c5N)C4)ccc3F)C(C)C)ccc2CC1C(=O)NC1CCCc2ccccc21)C(C)(C)C

> <Shape>
0.290

> <Color>
0.194

> <Negative vol penalty>
0.000

$$$$

  -OEChem-04042323043D

 84 93  0     1  0  0  0  0  0999 V2000
  -21.1899  -37.6562   19.3420 C   0  0  0  0  0  0  0  0  0  0  0  0
  -22.1149  -36.9401   18.5889 C   0  0  0  0  0  0  0  0  0  0  0  0
  -24.4794   -9.1434   21.5398 C   0  0  0  0  0  0  0  0  0  0  0  0
  -24.4302  -10.5341   23.5148 C   0  0  0  0  0  0  0  0  0  0  0  0
  -21.3092  -37.7022   20.7303 C   0  0  0  0  0  0  0  0  0  0  0  0
  -23.1604  -36.2706   19.2237 C   0  0  0  0  0  0  0  0  0  0  0  0
  -25.1970  -28.7354   18.9087 C   0  0  0  0  0  0  0  0  0  0  0  0
  -28.9541  -21.0561   21.0529 C   0  0  0  0  0  0  0  0  0  0  0  0
  -29.0472  -19.7026   20.7291 C   0  0  0  0  0  0  0  0  0  0  0  0
  -24.1767   -8.0266   22.3187 C   0  0  0  0  0  0  0  0  0  0  0  0
  -24.1275   -9.4172   24.2937 C   0  0  0  0  0  0  0  0  0  0  0  0
  -25.5591  -27.3964   19.0575 C   0  0  0  0  0  0  0  0  0  0  0  0
  -21.4388   -6.6622   23.7592 C   0  0  0  0  0  0  0  0  0  0  0  0
  -20.4621   -5.7866   23.2850 C   0  0  0  0  0  0  0  0  0  0  0  0
  -26.4671  -27.8742   21.2473 C   0  0  0  0  0  0  0  0  0  0  0  0
  -26.6379  -19.5648   20.6127 C   0  0  0  0  0  0  0  0  0  0  0  0
  -22.0812   -3.9936   23.2610 C   0  0  0  0  0  0  0  0  0  0  0  0
  -24.6062  -10.3972   22.1379 C   0  0  0  0  0  0  0  0  0  0  0  0
  -24.0091  -12.4186   20.7008 C   0  0  0  0  0  0  0  0  0  0  0  0
  -22.3511  -37.0249   21.3833 C   0  0  0  0  0  0  0  0  0  0  0  0
  -25.4551  -29.6469   19.9362 C   0  0  0  0  0  0  0  0  0  0  0  0
  -23.2945  -36.3088   20.6220 C   0  0  0  0  0  0  0  0  0  0  0  0
  -26.0955  -29.2142   21.1090 C   0  0  0  0  0  0  0  0  0  0  0  0
  -26.5448  -20.9183   20.9366 C   0  0  0  0  0  0  0  0  0  0  0  0
  -27.7029  -21.6640   21.1567 C   0  0  0  0  0  0  0  0  0  0  0  0
  -27.8891  -18.9569   20.5090 C   0  0  0  0  0  0  0  0  0  0  0  0
  -24.0007   -8.1635   23.6956 C   0  0  0  0  0  0  0  0  0  0  0  0
  -26.1927  -26.9669   20.2238 C   0  0  0  0  0  0  0  0  0  0  0  0
  -22.7368   -6.2035   23.9843 C   0  0  0  0  0  0  0  0  0  0  0  0
  -20.7833   -4.4523   23.0359 C   0  0  0  0  0  0  0  0  0  0  0  0
  -23.0579   -4.8692   23.7352 C   0  0  0  0  0  0  0  0  0  0  0  0
  -24.9194  -11.5512   21.3340 C   0  0  0  0  0  0  0  0  0  0  0  0
  -24.8012  -13.3457   20.0688 C   0  0  0  0  0  0  0  0  0  0  0  0
  -26.9890  -23.6099   22.6102 C   0  0  0  0  0  0  0  0  0  0  0  0
  -22.5757  -12.3889   20.6854 C   0  0  0  0  0  0  0  0  0  0  0  0
  -25.1896  -33.1830   21.1617 C   0  0  0  0  0  0  0  0  0  0  0  0
  -24.5693  -31.3627   23.5517 C   0  0  0  0  0  0  0  0  0  0  0  0
  -23.5374  -29.0270   25.8137 C   0  0  0  0  0  0  0  0  0  0  0  0
  -29.1472  -16.8262   20.0360 C   0  0  0  0  0  0  0  0  0  0  0  0
  -22.4664  -37.1428   22.8824 C   0  0  0  0  0  0  0  0  0  0  0  0
  -25.1381  -31.1108   19.7941 C   0  0  0  0  0  0  0  0  0  0  0  0
  -26.3843  -30.2369   22.1737 C   0  0  0  0  0  0  0  0  0  0  0  0
  -27.2623  -25.0977   22.5949 C   0  0  0  0  0  0  0  0  0  0  0  0
  -23.3864  -36.0969   23.5067 C   0  0  0  0  0  0  0  0  0  0  0  0
  -29.7991  -13.4108   19.2698 C   0  0  0  0  0  0  0  0  0  0  0  0
  -24.6892  -35.9942   22.7201 C   0  0  0  0  0  0  0  0  0  0  0  0
  -28.5128  -12.6939   19.6864 C   0  0  0  0  0  0  0  0  0  0  0  0
  -30.1428  -14.5569   20.2196 C   0  0  0  0  0  0  0  0  0  0  0  0
  -27.7761  -14.8101   20.8551 C   0  0  0  0  0  0  0  0  0  0  0  0
  -28.3034  -24.0685   20.7020 C   0  0  0  0  0  0  0  0  0  0  0  0
  -24.4282  -35.5490   21.2761 C   0  0  1  0  0  0  0  0  0  0  0  0
  -24.7011  -31.7649   21.1171 C   0  0  1  0  0  0  0  0  0  0  0  0
  -27.3540  -13.6892   19.8913 C   0  0  2  0  0  0  0  0  0  0  0  0
  -27.6835  -25.3731   21.1630 C   0  0  1  0  0  0  0  0  0  1  0  0
  -25.1917  -21.5436   21.0415 C   0  0  0  0  0  0  0  0  0  0  0  0
  -22.7075  -28.7997   28.1711 C   0  0  0  0  0  0  0  0  0  0  0  0
  -27.4058  -31.7925   24.5878 C   0  0  0  0  0  0  0  0  0  0  0  0
  -26.7282  -30.6488   26.7093 C   0  0  0  0  0  0  0  0  0  0  0  0
  -25.6097  -32.7714   26.0266 C   0  0  0  0  0  0  0  0  0  0  0  0
  -20.9676  -27.8626   24.9198 C   0  0  0  0  0  0  0  0  0  0  0  0
  -25.1017  -30.6409   24.7637 C   0  0  1  0  0  0  0  0  0  0  0  0
  -22.3146  -28.9649   26.7112 C   0  0  2  0  0  0  0  0  0  0  0  0
  -26.2085  -31.4503   25.4968 C   0  0  0  0  0  0  0  0  0  0  0  0
  -26.1923  -11.8964   21.1233 N   0  0  0  0  0  0  0  0  0  0  0  0
  -26.0876  -12.9909   20.3505 N   0  0  0  0  0  0  0  0  0  0  0  0
  -27.6292  -23.0504   21.4892 N   0  0  0  0  0  0  0  0  0  0  0  0
  -25.2278  -31.1315   22.3379 N   0  0  0  0  0  0  0  0  0  0  0  0
  -28.9997  -15.4613   20.3617 N   0  0  0  0  0  0  0  0  0  0  0  0
  -24.5158  -14.4216   19.3050 N   0  0  0  0  0  0  0  0  0  0  0  0
  -21.9210  -11.3677   21.3873 N   0  0  0  0  0  0  0  0  0  0  0  0
  -27.9842  -17.5821   20.1793 N   0  0  0  0  0  0  0  0  0  0  0  0
  -24.1798  -34.1242   21.2236 N   0  0  0  0  0  0  0  0  0  0  0  0
  -23.9433  -30.3261   25.5928 N   0  0  0  0  0  0  0  0  0  0  0  0
  -21.4466  -27.8165   26.3253 N   0  3  0  0  0  0  0  0  0  0  0  0
  -26.3635  -23.0688   23.5107 O   0  0  0  0  0  0  0  0  0  0  0  0
  -21.8960  -13.2332   20.0540 O   0  0  0  0  0  0  0  0  0  0  0  0
  -26.3941  -33.4080   21.1429 O   0  0  0  0  0  0  0  0  0  0  0  0
  -23.5996  -32.1161   23.6760 O   0  0  0  0  0  0  0  0  0  0  0  0
  -24.0805  -28.0233   25.3575 O   0  0  0  0  0  0  0  0  0  0  0  0
  -30.2188  -17.2849   19.6318 O   0  0  0  0  0  0  0  0  0  0  0  0
  -23.7051   -7.0739   24.4559 O   0  0  0  0  0  0  0  0  0  0  0  0
  -26.5394  -25.6574   20.3644 O   0  0  0  0  0  0  0  0  0  1  0  0
  -19.8448   -3.6112   22.5819 F   0  0  0  0  0  0  0  0  0  0  0  0
  -24.3029   -4.4225   23.9506 F   0  0  0  0  0  0  0  0  0  0  0  0
  1  2  1  0  0  0  0
  1  5  2  0  0  0  0
  2  6  2  0  0  0  0
  3 10  2  0  0  0  0
  3 18  1  0  0  0  0
  4 11  1  0  0  0  0
  4 18  2  0  0  0  0
  5 20  1  0  0  0  0
  6 22  1  0  0  0  0
  7 12  2  0  0  0  0
  7 21  1  0  0  0  0
  8  9  2  0  0  0  0
  8 25  1  0  0  0  0
  9 26  1  0  0  0  0
 10 27  1  0  0  0  0
 11 27  2  0  0  0  0
 12 28  1  0  0  0  0
 13 14  2  0  0  0  0
 13 29  1  0  0  0  0
 14 30  1  0  0  0  0
 15 23  1  0  0  0  0
 15 28  2  0  0  0  0
 16 24  1  0  0  0  0
 16 26  2  0  0  0  0
 17 30  2  0  0  0  0
 17 31  1  0  0  0  0
 18 32  1  0  0  0  0
 19 32  1  0  0  0  0
 19 33  2  0  0  0  0
 19 35  1  0  0  0  0
 20 22  2  0  0  0  0
 20 40  1  0  0  0  0
 21 23  2  0  0  0  0
 21 41  1  0  0  0  0
 22 51  1  0  0  0  0
 23 42  1  0  0  0  0
 24 25  2  0  0  0  0
 24 55  1  0  0  0  0
 25 66  1  0  0  0  0
 26 71  1  0  0  0  0
 27 81  1  0  0  0  0
 28 82  1  0  0  0  0
 29 31  2  0  0  0  0
 29 81  1  0  0  0  0
 30 83  1  0  0  0  0
 31 84  1  0  0  0  0
 32 64  2  0  0  0  0
 33 65  1  0  0  0  0
 33 69  1  0  0  0  0
 34 43  1  0  0  0  0
 34 66  1  0  0  0  0
 34 75  2  0  0  0  0
 35 70  1  0  0  0  0
 35 76  2  0  0  0  0
 36 52  1  0  0  0  0
 36 72  1  0  0  0  0
 36 77  2  0  0  0  0
 37 61  1  0  0  0  0
 37 67  1  0  0  0  0
 37 78  2  0  0  0  0
 38 62  1  0  0  0  0
 38 73  1  0  0  0  0
 38 79  2  0  0  0  0
 39 68  1  0  0  0  0
 39 71  1  0  0  0  0
 39 80  2  0  0  0  0
 40 44  1  0  0  0  0
 41 52  1  0  0  0  0
 42 67  1  0  0  0  0
 43 54  1  0  0  0  0
 44 46  1  0  0  0  0
 45 47  1  0  0  0  0
 45 48  1  0  0  0  0
 46 51  1  0  0  0  0
 47 53  1  0  0  0  0
 48 68  1  0  0  0  0
 49 53  1  0  0  0  0
 49 68  1  0  0  0  0
 50 54  1  0  0  0  0
 50 66  1  0  0  0  0
 51 72  1  0  0  0  0
 52 67  1  0  0  0  0
 53 65  1  0  0  0  0
 54 82  1  0  0  0  0
 56 62  1  0  0  0  0
 57 63  1  0  0  0  0
 58 63  1  0  0  0  0
 59 63  1  0  0  0  0
 60 74  1  0  0  0  0
 61 63  1  0  0  0  0
 61 73  1  0  0  0  0
 62 74  1  0  0  0  0
 64 65  1  0  0  0  0
M  CHG  1  74   1
M  ISO  4  39 100  54 101  71 100  82 101
M  END
> <Batch ID>
0060

> <Smiles>
CNC(C)C(=O)NC(C(=O)N1Cc2cc([101O:1][101CH:1]3CC(=O)N(c4ccc([100NH:0][100C:0](=O)N5CCCC(n6nc(-c7ccc(Oc8ccc(F)cc8F)cc7)c(C(N)=O)c6N)C5)cc4C)C3)ccc2CC1C(=O)NC1CCCc2ccccc21)C(C)(C)C

> <Shape>
0.289

> <Color>
0.145

> <Negative vol penalty>
0.000

$$$$

  -OEChem-04042323043D

 84 92  0     1  0  0  0  0  0999 V2000
  -21.9304  -11.4599   20.0279 C   0  0  0  0  0  0  0  0  0  0  0  0
  -21.6504  -12.7938   20.3066 C   0  0  0  0  0  0  0  0  0  0  0  0
  -18.1961  -28.0673   23.4188 C   0  0  0  0  0  0  0  0  0  0  0  0
  -30.2034  -28.2057   21.2631 C   0  0  0  0  0  0  0  0  0  0  0  0
  -28.5093  -26.7751   22.2225 C   0  0  0  0  0  0  0  0  0  0  0  0
  -23.2370  -10.9855   20.1370 C   0  0  0  0  0  0  0  0  0  0  0  0
  -22.6767  -13.6540   20.6955 C   0  0  0  0  0  0  0  0  0  0  0  0
  -22.4717  -18.1219   18.3206 C   0  0  0  0  0  0  0  0  0  0  0  0
  -19.3994  -28.7705   23.3624 C   0  0  0  0  0  0  0  0  0  0  0  0
  -31.1936  -27.4684   21.9122 C   0  0  0  0  0  0  0  0  0  0  0  0
  -29.4996  -26.0377   22.8716 C   0  0  0  0  0  0  0  0  0  0  0  0
  -21.5335  -19.0450   18.7805 C   0  0  0  0  0  0  0  0  0  0  0  0
  -34.1915  -25.7414   23.0282 C   0  0  0  0  0  0  0  0  0  0  0  0
  -35.3222  -25.3859   22.2930 C   0  0  0  0  0  0  0  0  0  0  0  0
  -17.9838  -26.9794   22.5720 C   0  0  0  0  0  0  0  0  0  0  0  0
  -23.2693  -20.1915   20.0020 C   0  0  0  0  0  0  0  0  0  0  0  0
  -33.9291  -24.1681   20.7395 C   0  0  0  0  0  0  0  0  0  0  0  0
  -28.8612  -27.8590   21.4183 C   0  0  0  0  0  0  0  0  0  0  0  0
  -27.6908  -28.8116   19.3615 C   0  0  0  0  0  0  0  0  0  0  0  0
  -24.2814  -11.8426   20.5182 C   0  0  0  0  0  0  0  0  0  0  0  0
  -23.8160  -18.2205   18.7074 C   0  0  0  0  0  0  0  0  0  0  0  0
  -23.9982  -13.1903   20.8111 C   0  0  0  0  0  0  0  0  0  0  0  0
  -24.2230  -19.2699   19.5436 C   0  0  0  0  0  0  0  0  0  0  0  0
  -20.1781  -27.2980   21.6124 C   0  0  0  0  0  0  0  0  0  0  0  0
  -20.3904  -28.3859   22.4593 C   0  0  0  0  0  0  0  0  0  0  0  0
  -30.8418  -26.3844   22.7165 C   0  0  0  0  0  0  0  0  0  0  0  0
  -21.9317  -20.0783   19.6236 C   0  0  0  0  0  0  0  0  0  0  0  0
  -32.9296  -25.3102   22.6192 C   0  0  0  0  0  0  0  0  0  0  0  0
  -35.1911  -24.5993   21.1486 C   0  0  0  0  0  0  0  0  0  0  0  0
  -32.7984  -24.5235   21.4748 C   0  0  0  0  0  0  0  0  0  0  0  0
  -18.9748  -26.5947   21.6688 C   0  0  0  0  0  0  0  0  0  0  0  0
  -27.8377  -28.6206   20.7485 C   0  0  0  0  0  0  0  0  0  0  0  0
  -26.5749  -29.6032   19.2402 C   0  0  0  0  0  0  0  0  0  0  0  0
  -20.3884  -23.2856   20.1017 C   0  0  0  0  0  0  0  0  0  0  0  0
  -19.9299  -24.1180   21.0431 C   0  0  0  0  0  0  0  0  0  0  0  0
  -28.4913  -28.3175   18.2795 C   0  0  0  0  0  0  0  0  0  0  0  0
  -25.8273  -16.3635   20.3230 C   0  0  0  0  0  0  0  0  0  0  0  0
  -27.9912  -18.6204   19.4593 C   0  0  0  0  0  0  0  0  0  0  0  0
  -28.5943  -21.8409   18.5045 C   0  0  0  0  0  0  0  0  0  0  0  0
  -21.7867  -30.4679   22.7087 C   0  0  0  0  0  0  0  0  0  0  0  0
  -25.6698  -11.2730   20.6681 C   0  0  0  0  0  0  0  0  0  0  0  0
  -24.8206  -17.2324   18.1811 C   0  0  0  0  0  0  0  0  0  0  0  0
  -25.6579  -19.4318   19.9718 C   0  0  0  0  0  0  0  0  0  0  0  0
  -26.7623  -12.3377   20.7234 C   0  0  0  0  0  0  0  0  0  0  0  0
  -24.0835  -32.9490   21.5925 C   0  0  0  0  0  0  0  0  0  0  0  0
  -26.3683  -13.4576   21.6813 C   0  0  0  0  0  0  0  0  0  0  0  0
  -25.2911  -32.1376   21.1175 C   0  0  0  0  0  0  0  0  0  0  0  0
  -23.4318  -32.3266   22.8260 C   0  0  0  0  0  0  0  0  0  0  0  0
  -24.2838  -30.0969   22.2164 C   0  0  0  0  0  0  0  0  0  0  0  0
  -25.0886  -14.1602   21.2120 C   0  0  1  0  0  0  0  0  0  0  0  0
  -26.0687  -17.1279   19.0521 C   0  0  1  0  0  0  0  0  0  0  0  0
  -24.9344  -30.6490   20.9375 C   0  0  2  0  0  0  0  0  0  0  0  0
  -21.2437  -26.8895   20.6437 C   0  0  0  0  0  0  0  0  0  0  0  0
  -30.4672  -23.4004   17.9065 C   0  0  0  0  0  0  0  0  0  0  0  0
  -28.7244  -18.8678   22.4108 C   0  0  0  0  0  0  0  0  0  0  0  0
  -29.8586  -21.0347   21.8757 C   0  0  0  0  0  0  0  0  0  0  0  0
  -30.6733  -18.9145   20.8443 C   0  0  0  0  0  0  0  0  0  0  0  0
  -27.5188  -22.2745   15.7816 C   0  0  0  0  0  0  0  0  0  0  0  0
  -21.4870  -22.3008   20.3438 C   0  0  0  0  0  0  0  0  0  1  0  0
  -28.4863  -19.9130   20.0620 C   0  0  1  0  0  0  0  0  0  0  0  0
  -29.4339  -22.4173   17.3787 C   0  0  2  0  0  0  0  0  0  0  0  0
  -29.4082  -19.6786   21.2919 C   0  0  0  0  0  0  0  0  0  0  0  0
  -26.8910  -29.2411   21.4576 N   0  0  0  0  0  0  0  0  0  0  0  0
  -18.7771  -25.8171   19.1778 N   0  0  0  0  0  0  0  0  0  0  0  0
  -26.1385  -29.8297   20.5124 N   0  0  0  0  0  0  0  0  0  0  0  0
  -26.6014  -18.4368   19.4358 N   0  0  0  0  0  0  0  0  0  0  0  0
  -23.1179  -30.9173   22.5804 N   0  0  0  0  0  0  0  0  0  0  0  0
  -25.9343  -30.1208   18.1706 N   0  0  0  0  0  0  0  0  0  0  0  0
  -28.1569  -27.0806   17.7116 N   0  0  0  0  0  0  0  0  0  0  0  0
  -21.6040  -29.1161   22.4187 N   0  0  0  0  0  0  0  0  0  0  0  0
  -25.3811  -15.0707   20.1258 N   0  0  0  0  0  0  0  0  0  0  0  0
  -29.1167  -20.6549   18.9755 N   0  0  0  0  0  0  0  0  0  0  0  0
  -28.5665  -23.1288   16.3977 N   0  3  0  0  0  0  0  0  0  0  0  0
  -29.4839  -28.9464   17.8404 O   0  0  0  0  0  0  0  0  0  0  0  0
  -26.0321  -16.9060   21.4026 O   0  0  0  0  0  0  0  0  0  0  0  0
  -28.8073  -17.8069   19.0190 O   0  0  0  0  0  0  0  0  0  0  0  0
  -27.5789  -22.3899   18.9265 O   0  0  0  0  0  0  0  0  0  0  0  0
  -20.8712  -31.2323   23.0241 O   0  0  0  0  0  0  0  0  0  0  0  0
  -17.4257  -24.6023   21.1008 O   0  0  0  0  0  0  0  0  0  0  0  0
  -31.8078  -25.6646   23.3498 O   0  0  0  0  0  0  0  0  0  0  0  0
  -21.0179  -20.9803   20.0745 O   0  0  0  0  0  0  0  0  0  1  0  0
  -36.2768  -24.2592   20.4417 F   0  0  0  0  0  0  0  0  0  0  0  0
  -31.5886  -24.1072   21.0763 F   0  0  0  0  0  0  0  0  0  0  0  0
  -18.6644  -25.1950   20.6021 S   0  0  2  0  0  0  0  0  0  0  0  0
  1  2  1  0  0  0  0
  1  6  2  0  0  0  0
  2  7  2  0  0  0  0
  3  9  1  0  0  0  0
  3 15  2  0  0  0  0
  4 10  2  0  0  0  0
  4 18  1  0  0  0  0
  5 11  1  0  0  0  0
  5 18  2  0  0  0  0
  6 20  1  0  0  0  0
  7 22  1  0  0  0  0
  8 12  2  0  0  0  0
  8 21  1  0  0  0  0
  9 25  2  0  0  0  0
 10 26  1  0  0  0  0
 11 26  2  0  0  0  0
 12 27  1  0  0  0  0
 13 14  2  0  0  0  0
 13 28  1  0  0  0  0
 14 29  1  0  0  0  0
 15 31  1  0  0  0  0
 16 23  1  0  0  0  0
 16 27  2  0  0  0  0
 17 29  2  0  0  0  0
 17 30  1  0  0  0  0
 18 32  1  0  0  0  0
 19 32  1  0  0  0  0
 19 33  2  0  0  0  0
 19 36  1  0  0  0  0
 20 22  2  0  0  0  0
 20 41  1  0  0  0  0
 21 23  2  0  0  0  0
 21 42  1  0  0  0  0
 22 50  1  0  0  0  0
 23 43  1  0  0  0  0
 24 25  1  0  0  0  0
 24 31  2  0  0  0  0
 24 53  1  0  0  0  0
 25 70  1  0  0  0  0
 26 80  1  0  0  0  0
 27 81  1  0  0  0  0
 28 30  2  0  0  0  0
 28 80  1  0  0  0  0
 29 82  1  0  0  0  0
 30 83  1  0  0  0  0
 31 84  1  0  0  0  0
 32 63  2  0  0  0  0
 33 65  1  0  0  0  0
 33 68  1  0  0  0  0
 34 35  2  0  0  0  0
 34 59  1  0  0  0  0
 35 84  1  0  0  0  0
 36 69  1  0  0  0  0
 36 74  2  0  0  0  0
 37 51  1  0  0  0  0
 37 71  1  0  0  0  0
 37 75  2  0  0  0  0
 38 60  1  0  0  0  0
 38 66  1  0  0  0  0
 38 76  2  0  0  0  0
 39 61  1  0  0  0  0
 39 72  1  0  0  0  0
 39 77  2  0  0  0  0
 40 67  1  0  0  0  0
 40 70  1  0  0  0  0
 40 78  2  0  0  0  0
 41 44  1  0  0  0  0
 42 51  1  0  0  0  0
 43 66  1  0  0  0  0
 44 46  1  0  0  0  0
 45 47  1  0  0  0  0
 45 48  1  0  0  0  0
 46 50  1  0  0  0  0
 47 52  1  0  0  0  0
 48 67  1  0  0  0  0
 49 52  1  0  0  0  0
 49 67  1  0  0  0  0
 50 71  1  0  0  0  0
 51 66  1  0  0  0  0
 52 65  1  0  0  0  0
 54 61  1  0  0  0  0
 55 62  1  0  0  0  0
 56 62  1  0  0  0  0
 57 62  1  0  0  0  0
 58 73  1  0  0  0  0
 59 81  1  0  0  0  0
 60 62  1  0  0  0  0
 60 72  1  0  0  0  0
 61 73  1  0  0  0  0
 63 65  1  0  0  0  0
 64 84  2  0  0  0  0
 79 84  2  0  0  0  0
M  CHG  1  73   1
M  ISO  4  40 100  59 101  70 100  81 101
M  END
> <Batch ID>
0060

> <Smiles>
CNC(C)C(=O)NC(C(=O)N1Cc2cc([101O:1][101CH2:1]C=CS(=N)(=O)c3cccc([100NH:0][100C:0](=O)N4CCCC(n5nc(-c6ccc(Oc7ccc(F)cc7F)cc6)c(C(N)=O)c5N)C4)c3C)ccc2CC1C(=O)NC1CCCc2ccccc21)C(C)(C)C

> <Shape>
0.238

> <Color>
0.080

> <Negative vol penalty>
0.000

$$$$

  -OEChem-04042323043D

 84 92  0     1  0  0  0  0  0999 V2000
  -26.0278  -29.4985   27.9494 C   0  0  0  0  0  0  0  0  0  0  0  0
  -25.6299  -28.6201   26.9466 C   0  0  0  0  0  0  0  0  0  0  0  0
  -25.6696  -18.9882   16.3110 C   0  0  0  0  0  0  0  0  0  0  0  0
  -23.0621  -10.1939   19.8825 C   0  0  0  0  0  0  0  0  0  0  0  0
  -23.8730   -9.7722   22.1189 C   0  0  0  0  0  0  0  0  0  0  0  0
  -26.7885  -18.1588   16.3865 C   0  0  0  0  0  0  0  0  0  0  0  0
  -25.6239  -30.8323   27.9069 C   0  0  0  0  0  0  0  0  0  0  0  0
  -24.8269  -29.0748   25.9012 C   0  0  0  0  0  0  0  0  0  0  0  0
  -26.4034  -27.4243   21.3807 C   0  0  0  0  0  0  0  0  0  0  0  0
  -25.5931  -20.1305   17.1079 C   0  0  0  0  0  0  0  0  0  0  0  0
  -22.2685   -9.0491   19.9543 C   0  0  0  0  0  0  0  0  0  0  0  0
  -23.0793   -8.6274   22.1908 C   0  0  0  0  0  0  0  0  0  0  0  0
  -26.0913  -26.1092   21.0388 C   0  0  0  0  0  0  0  0  0  0  0  0
  -19.8304   -7.8819   22.7467 C   0  0  0  0  0  0  0  0  0  0  0  0
  -19.0990   -7.6746   23.9162 C   0  0  0  0  0  0  0  0  0  0  0  0
  -24.2513  -26.9016   19.6950 C   0  0  0  0  0  0  0  0  0  0  0  0
  -20.2602   -5.5861   24.2723 C   0  0  0  0  0  0  0  0  0  0  0  0
  -23.8644  -10.5554   20.9647 C   0  0  0  0  0  0  0  0  0  0  0  0
  -27.8310  -18.4717   17.2589 C   0  0  0  0  0  0  0  0  0  0  0  0
  -24.3268  -13.0458   21.2676 C   0  0  0  0  0  0  0  0  0  0  0  0
  -24.8234  -31.3058   26.8554 C   0  0  0  0  0  0  0  0  0  0  0  0
  -25.6337  -28.4890   20.8903 C   0  0  0  0  0  0  0  0  0  0  0  0
  -24.4107  -30.4159   25.8454 C   0  0  0  0  0  0  0  0  0  0  0  0
  -24.5572  -28.2294   20.0302 C   0  0  0  0  0  0  0  0  0  0  0  0
  -27.7545  -19.6140   18.0558 C   0  0  0  0  0  0  0  0  0  0  0  0
  -26.6355  -20.4433   17.9803 C   0  0  0  0  0  0  0  0  0  0  0  0
  -22.2770   -8.2659   21.1085 C   0  0  0  0  0  0  0  0  0  0  0  0
  -25.0134  -25.8475   20.1981 C   0  0  0  0  0  0  0  0  0  0  0  0
  -20.7767   -6.9412   22.3400 C   0  0  0  0  0  0  0  0  0  0  0  0
  -19.3139   -6.5268   24.6790 C   0  0  0  0  0  0  0  0  0  0  0  0
  -20.9916   -5.7934   23.1028 C   0  0  0  0  0  0  0  0  0  0  0  0
  -24.6849  -11.7375   20.8909 C   0  0  0  0  0  0  0  0  0  0  0  0
  -25.4459  -13.7974   21.0045 C   0  0  0  0  0  0  0  0  0  0  0  0
  -29.0095  -17.5690   17.3154 C   0  0  0  0  0  0  0  0  0  0  0  0
  -23.0929  -13.5377   21.8073 C   0  0  0  0  0  0  0  0  0  0  0  0
  -23.8285  -30.7471   22.2116 C   0  0  0  0  0  0  0  0  0  0  0  0
  -23.6520  -31.8430   19.1637 C   0  0  0  0  0  0  0  0  0  0  0  0
  -25.4923  -22.5247   18.8139 C   0  0  0  0  0  0  0  0  0  0  0  0
  -23.8570  -31.1661   15.8250 C   0  0  0  0  0  0  0  0  0  0  0  0
  -29.7001  -15.2345   17.7589 C   0  0  0  0  0  0  0  0  0  0  0  0
  -24.3727  -32.7449   26.8775 C   0  0  0  0  0  0  0  0  0  0  0  0
  -25.9997  -29.9037   21.2471 C   0  0  0  0  0  0  0  0  0  0  0  0
  -23.7120  -29.3383   19.4606 C   0  0  0  0  0  0  0  0  0  0  0  0
  -23.8321  -33.2345   25.5364 C   0  0  0  0  0  0  0  0  0  0  0  0
  -30.1582  -12.3844   19.7995 C   0  0  0  0  0  0  0  0  0  0  0  0
  -22.8610  -32.2157   24.9483 C   0  0  0  0  0  0  0  0  0  0  0  0
  -28.7471  -12.0716   20.3049 C   0  0  0  0  0  0  0  0  0  0  0  0
  -30.1475  -12.8690   18.3504 C   0  0  0  0  0  0  0  0  0  0  0  0
  -27.8323  -13.6730   18.5778 C   0  0  0  0  0  0  0  0  0  0  0  0
  -23.5601  -30.8772   24.6818 C   0  0  1  0  0  0  0  0  0  0  0  0
  -24.8339  -30.8770   21.1026 C   0  0  1  0  0  0  0  0  0  0  0  0
  -27.7827  -13.2483   20.0544 C   0  0  1  0  0  0  0  0  0  0  0  0
  -28.8740  -19.9484   18.9920 C   0  0  0  0  0  0  0  0  0  0  0  0
  -23.6270  -32.2560   13.5763 C   0  0  0  0  0  0  0  0  0  0  0  0
  -20.6153  -31.8043   19.4582 C   0  0  0  0  0  0  0  0  0  0  0  0
  -20.4413  -31.9688   16.9660 C   0  0  0  0  0  0  0  0  0  0  0  0
  -21.5220  -33.8052   18.2630 C   0  0  0  0  0  0  0  0  0  0  0  0
  -26.6669  -30.5642   15.1169 C   0  0  0  0  0  0  0  0  0  0  0  0
  -25.7845  -23.6314   19.8101 C   0  0  0  0  0  0  0  0  0  1  0  0
  -22.7310  -31.6013   17.9923 C   0  0  1  0  0  0  0  0  0  0  0  0
  -24.5830  -31.8754   14.6961 C   0  0  2  0  0  0  0  0  0  0  0  0
  -21.3419  -32.2737   18.1820 C   0  0  0  0  0  0  0  0  0  0  0  0
  -25.9338  -11.6591   20.4238 N   0  0  0  0  0  0  0  0  0  0  0  0
  -26.3702  -12.9276   20.5053 N   0  0  0  0  0  0  0  0  0  0  0  0
  -24.1059  -30.7041   19.8439 N   0  0  0  0  0  0  0  0  0  0  0  0
  -29.2177  -13.9896   18.1992 N   0  0  0  0  0  0  0  0  0  0  0  0
  -25.7196  -15.1109   21.1537 N   0  0  0  0  0  0  0  0  0  0  0  0
  -22.0455  -12.6299   22.0150 N   0  0  0  0  0  0  0  0  0  0  0  0
  -26.5370  -21.6074   18.7788 N   0  0  0  0  0  0  0  0  0  0  0  0
  -28.7416  -16.2516   17.6882 N   0  0  0  0  0  0  0  0  0  0  0  0
  -24.3529  -30.9527   23.4734 N   0  0  0  0  0  0  0  0  0  0  0  0
  -23.4536  -32.0472   16.8060 N   0  0  0  0  0  0  0  0  0  0  0  0
  -25.6443  -30.9959   14.1295 N   0  3  0  0  0  0  0  0  0  0  0  0
  -30.1134  -18.0065   17.0026 O   0  0  0  0  0  0  0  0  0  0  0  0
  -22.9186  -14.7493   22.0813 O   0  0  0  0  0  0  0  0  0  0  0  0
  -22.6629  -30.4814   21.9424 O   0  0  0  0  0  0  0  0  0  0  0  0
  -23.9632  -32.9994   19.4597 O   0  0  0  0  0  0  0  0  0  0  0  0
  -24.4539  -22.5054   18.1613 O   0  0  0  0  0  0  0  0  0  0  0  0
  -23.6636  -29.9524   15.8338 O   0  0  0  0  0  0  0  0  0  0  0  0
  -30.8886  -15.4339   17.4888 O   0  0  0  0  0  0  0  0  0  0  0  0
  -21.5025   -7.1488   21.1791 O   0  0  0  0  0  0  0  0  0  0  0  0
  -24.7063  -24.5647   19.8633 O   0  0  0  0  0  0  0  0  0  1  0  0
  -18.6126   -6.3286   25.8029 F   0  0  0  0  0  0  0  0  0  0  0  0
  -21.9002   -4.8868   22.7177 F   0  0  0  0  0  0  0  0  0  0  0  0
  1  2  1  0  0  0  0
  1  7  2  0  0  0  0
  2  8  2  0  0  0  0
  3  6  1  0  0  0  0
  3 10  2  0  0  0  0
  4 11  2  0  0  0  0
  4 18  1  0  0  0  0
  5 12  1  0  0  0  0
  5 18  2  0  0  0  0
  6 19  2  0  0  0  0
  7 21  1  0  0  0  0
  8 23  1  0  0  0  0
  9 13  2  0  0  0  0
  9 22  1  0  0  0  0
 10 26  1  0  0  0  0
 11 27  1  0  0  0  0
 12 27  2  0  0  0  0
 13 28  1  0  0  0  0
 14 15  2  0  0  0  0
 14 29  1  0  0  0  0
 15 30  1  0  0  0  0
 16 24  1  0  0  0  0
 16 28  2  0  0  0  0
 17 30  2  0  0  0  0
 17 31  1  0  0  0  0
 18 32  1  0  0  0  0
 19 25  1  0  0  0  0
 19 34  1  0  0  0  0
 20 32  1  0  0  0  0
 20 33  2  0  0  0  0
 20 35  1  0  0  0  0
 21 23  2  0  0  0  0
 21 41  1  0  0  0  0
 22 24  2  0  0  0  0
 22 42  1  0  0  0  0
 23 50  1  0  0  0  0
 24 43  1  0  0  0  0
 25 26  2  0  0  0  0
 25 53  1  0  0  0  0
 26 69  1  0  0  0  0
 27 81  1  0  0  0  0
 28 82  1  0  0  0  0
 29 31  2  0  0  0  0
 29 81  1  0  0  0  0
 30 83  1  0  0  0  0
 31 84  1  0  0  0  0
 32 63  2  0  0  0  0
 33 64  1  0  0  0  0
 33 67  1  0  0  0  0
 34 70  1  0  0  0  0
 34 74  2  0  0  0  0
 35 68  1  0  0  0  0
 35 75  2  0  0  0  0
 36 51  1  0  0  0  0
 36 71  1  0  0  0  0
 36 76  2  0  0  0  0
 37 60  1  0  0  0  0
 37 65  1  0  0  0  0
 37 77  2  0  0  0  0
 38 59  1  0  0  0  0
 38 69  1  0  0  0  0
 38 78  2  0  0  0  0
 39 61  1  0  0  0  0
 39 72  1  0  0  0  0
 39 79  2  0  0  0  0
 40 66  1  0  0  0  0
 40 70  1  0  0  0  0
 40 80  2  0  0  0  0
 41 44  1  0  0  0  0
 42 51  1  0  0  0  0
 43 65  1  0  0  0  0
 44 46  1  0  0  0  0
 45 47  1  0  0  0  0
 45 48  1  0  0  0  0
 46 50  1  0  0  0  0
 47 52  1  0  0  0  0
 48 66  1  0  0  0  0
 49 52  1  0  0  0  0
 49 66  1  0  0  0  0
 50 71  1  0  0  0  0
 51 65  1  0  0  0  0
 52 64  1  0  0  0  0
 54 61  1  0  0  0  0
 55 62  1  0  0  0  0
 56 62  1  0  0  0  0
 57 62  1  0  0  0  0
 58 73  1  0  0  0  0
 59 82  1  0  0  0  0
 60 62  1  0  0  0  0
 60 72  1  0  0  0  0
 61 73  1  0  0  0  0
 63 64  1  0  0  0  0
M  CHG  1  73   1
M  ISO  4  40 100  59 101  70 100  82 101
M  END
> <Batch ID>
0060

> <Smiles>
CNC(C)C(=O)NC(C(=O)N1Cc2cc([101O:1][101CH2:1]C(=O)Nc3cccc(C(=O)[100NH:0][100C:0](=O)N4CCCC(n5nc(-c6ccc(Oc7ccc(F)cc7F)cc6)c(C(N)=O)c5N)C4)c3C)ccc2CC1C(=O)NC1CCCc2ccccc21)C(C)(C)C

> <Shape>
0.246

> <Color>
0.149

> <Negative vol penalty>
0.000

$$$$

  -OEChem-04042323043D

 84 92  0     1  0  0  0  0  0999 V2000
  -20.7207  -33.9255   15.3727 C   0  0  0  0  0  0  0  0  0  0  0  0
  -21.5434  -32.8087   15.4789 C   0  0  0  0  0  0  0  0  0  0  0  0
  -22.9241  -11.6112   21.5097 C   0  0  0  0  0  0  0  0  0  0  0  0
  -22.9174  -14.0074   21.2018 C   0  0  0  0  0  0  0  0  0  0  0  0
  -20.9309  -35.0262   16.2022 C   0  0  0  0  0  0  0  0  0  0  0  0
  -22.5777  -32.7925   16.4141 C   0  0  0  0  0  0  0  0  0  0  0  0
  -24.6178  -27.9523   19.5632 C   0  0  0  0  0  0  0  0  0  0  0  0
  -21.9054  -11.7298   22.4550 C   0  0  0  0  0  0  0  0  0  0  0  0
  -21.8986  -14.1261   22.1471 C   0  0  0  0  0  0  0  0  0  0  0  0
  -25.7035  -27.0988   19.3720 C   0  0  0  0  0  0  0  0  0  0  0  0
  -18.5506  -13.6829   22.2674 C   0  0  0  0  0  0  0  0  0  0  0  0
  -17.4786  -14.5210   21.9609 C   0  0  0  0  0  0  0  0  0  0  0  0
  -27.0065  -28.4211   20.9125 C   0  0  0  0  0  0  0  0  0  0  0  0
  -31.4583  -19.6095   20.9096 C   0  0  0  0  0  0  0  0  0  0  0  0
  -31.8236  -17.2224   20.8402 C   0  0  0  0  0  0  0  0  0  0  0  0
  -29.7931  -18.1607   19.9271 C   0  0  0  0  0  0  0  0  0  0  0  0
  -17.9733  -15.8652   23.9066 C   0  0  0  0  0  0  0  0  0  0  0  0
  -23.4302  -12.7500   20.8831 C   0  0  0  0  0  0  0  0  0  0  0  0
  -24.3379  -12.4495   18.5181 C   0  0  0  0  0  0  0  0  0  0  0  0
  -21.9621  -35.0196   17.1547 C   0  0  0  0  0  0  0  0  0  0  0  0
  -24.7219  -29.0548   20.4235 C   0  0  0  0  0  0  0  0  0  0  0  0
  -22.8027  -33.8947   17.2563 C   0  0  0  0  0  0  0  0  0  0  0  0
  -25.9198  -29.2856   21.1148 C   0  0  0  0  0  0  0  0  0  0  0  0
  -32.2569  -18.5010   21.1908 C   0  0  0  0  0  0  0  0  0  0  0  0
  -30.2264  -19.4394   20.2778 C   0  0  0  0  0  0  0  0  0  0  0  0
  -30.5917  -17.0522   20.2083 C   0  0  0  0  0  0  0  0  0  0  0  0
  -21.3926  -12.9872   22.7737 C   0  0  0  0  0  0  0  0  0  0  0  0
  -26.8990  -27.3347   20.0445 C   0  0  0  0  0  0  0  0  0  0  0  0
  -19.3339  -13.9359   23.3935 C   0  0  0  0  0  0  0  0  0  0  0  0
  -17.1899  -15.6122   22.7805 C   0  0  0  0  0  0  0  0  0  0  0  0
  -19.0453  -15.0270   24.2131 C   0  0  0  0  0  0  0  0  0  0  0  0
  -24.4829  -12.6282   19.9069 C   0  0  0  0  0  0  0  0  0  0  0  0
  -25.6253  -12.3929   18.0429 C   0  0  0  0  0  0  0  0  0  0  0  0
  -23.1460  -12.3443   17.7281 C   0  0  0  0  0  0  0  0  0  0  0  0
  -24.5042  -32.2059   20.0680 C   0  0  0  0  0  0  0  0  0  0  0  0
  -24.7490  -32.1961   23.3025 C   0  0  0  0  0  0  0  0  0  0  0  0
  -29.6916  -21.9004   20.2709 C   0  0  0  0  0  0  0  0  0  0  0  0
  -25.7908  -30.5840   26.1243 C   0  0  0  0  0  0  0  0  0  0  0  0
  -30.8202  -14.5477   20.0615 C   0  0  0  0  0  0  0  0  0  0  0  0
  -22.1804  -36.2516   17.9968 C   0  0  0  0  0  0  0  0  0  0  0  0
  -23.5331  -29.9506   20.6393 C   0  0  0  0  0  0  0  0  0  0  0  0
  -26.0766  -30.4436   22.0650 C   0  0  0  0  0  0  0  0  0  0  0  0
  -23.0626  -36.0061   19.2182 C   0  0  0  0  0  0  0  0  0  0  0  0
  -30.0540  -11.1407   19.3669 C   0  0  0  0  0  0  0  0  0  0  0  0
  -24.3024  -35.2071   18.8292 C   0  0  0  0  0  0  0  0  0  0  0  0
  -28.5255  -11.1204   19.2941 C   0  0  0  0  0  0  0  0  0  0  0  0
  -30.5580  -12.1056   20.4387 C   0  0  0  0  0  0  0  0  0  0  0  0
  -28.5022  -13.4524   20.2681 C   0  0  0  0  0  0  0  0  0  0  0  0
  -23.9195  -33.8294   18.2754 C   0  0  1  0  0  0  0  0  0  0  0  0
  -23.9148  -31.3387   21.1442 C   0  0  1  0  0  0  0  0  0  0  0  0
  -27.9488  -12.5433   19.1585 C   0  0  2  0  0  0  0  0  0  0  0  0
  -33.5735  -18.6833   21.8677 C   0  0  0  0  0  0  0  0  0  0  0  0
  -25.8867  -30.8418   28.6187 C   0  0  0  0  0  0  0  0  0  0  0  0
  -27.0668  -34.1585   23.0081 C   0  0  0  0  0  0  0  0  0  0  0  0
  -27.7126  -33.6423   25.3713 C   0  0  0  0  0  0  0  0  0  0  0  0
  -25.4947  -34.6746   24.8834 C   0  0  0  0  0  0  0  0  0  0  0  0
  -24.1202  -28.1790   26.5535 C   0  0  0  0  0  0  0  0  0  0  0  0
  -28.5510  -22.7901   19.7963 C   0  0  0  0  0  0  0  0  0  0  0  0
  -28.8025  -24.2675   20.0774 C   0  0  0  0  0  0  0  0  0  0  0  0
  -27.6720  -25.1402   19.5521 C   0  0  0  0  0  0  0  0  0  1  0  0
  -25.8909  -32.2495   24.2884 C   0  0  1  0  0  0  0  0  0  0  0  0
  -25.0894  -30.3031   27.4410 C   0  0  2  0  0  0  0  0  0  0  0  0
  -26.5393  -33.6604   24.3685 C   0  0  0  0  0  0  0  0  0  0  0  0
  -25.7616  -12.6813   20.2892 N   0  0  0  0  0  0  0  0  0  0  0  0
  -26.4318  -12.5352   19.1335 N   0  0  0  0  0  0  0  0  0  0  0  0
  -24.8877  -31.2947   22.2377 N   0  0  0  0  0  0  0  0  0  0  0  0
  -29.9733  -13.4341   20.2441 N   0  0  0  0  0  0  0  0  0  0  0  0
  -26.1349  -12.2357   16.8027 N   0  0  0  0  0  0  0  0  0  0  0  0
  -21.9058  -12.4233   18.3762 N   0  0  0  0  0  0  0  0  0  0  0  0
  -29.4165  -20.5644   19.9929 N   0  0  0  0  0  0  0  0  0  0  0  0
  -30.1509  -15.7532   19.8533 N   0  0  0  0  0  0  0  0  0  0  0  0
  -23.5689  -32.9306   19.3541 N   0  0  0  0  0  0  0  0  0  0  0  0
  -25.3582  -31.7639   25.5568 N   0  0  0  0  0  0  0  0  0  0  0  0
  -24.9078  -28.8358   27.6284 N   0  3  0  0  0  0  0  0  0  0  0  0
  -23.1798  -12.1684   16.4866 O   0  0  0  0  0  0  0  0  0  0  0  0
  -25.7179  -32.2180   19.8988 O   0  0  0  0  0  0  0  0  0  0  0  0
  -23.7667  -32.9222   23.4750 O   0  0  0  0  0  0  0  0  0  0  0  0
  -30.6901  -22.3575   20.8171 O   0  0  0  0  0  0  0  0  0  0  0  0
  -26.6403  -29.8338   25.6488 O   0  0  0  0  0  0  0  0  0  0  0  0
  -32.0488  -14.4354   20.0606 O   0  0  0  0  0  0  0  0  0  0  0  0
  -20.3983  -13.1033   23.6960 O   0  0  0  0  0  0  0  0  0  0  0  0
  -27.9605  -26.5036   19.8593 O   0  0  0  0  0  0  0  0  0  1  0  0
  -16.1614  -16.4178   22.4852 F   0  0  0  0  0  0  0  0  0  0  0  0
  -19.7950  -15.2758   25.2956 F   0  0  0  0  0  0  0  0  0  0  0  0
  1  2  1  0  0  0  0
  1  5  2  0  0  0  0
  2  6  2  0  0  0  0
  3  8  2  0  0  0  0
  3 18  1  0  0  0  0
  4  9  1  0  0  0  0
  4 18  2  0  0  0  0
  5 20  1  0  0  0  0
  6 22  1  0  0  0  0
  7 10  2  0  0  0  0
  7 21  1  0  0  0  0
  8 27  1  0  0  0  0
  9 27  2  0  0  0  0
 10 28  1  0  0  0  0
 11 12  2  0  0  0  0
 11 29  1  0  0  0  0
 12 30  1  0  0  0  0
 13 23  1  0  0  0  0
 13 28  2  0  0  0  0
 14 24  2  0  0  0  0
 14 25  1  0  0  0  0
 15 24  1  0  0  0  0
 15 26  2  0  0  0  0
 16 25  2  0  0  0  0
 16 26  1  0  0  0  0
 17 30  2  0  0  0  0
 17 31  1  0  0  0  0
 18 32  1  0  0  0  0
 19 32  1  0  0  0  0
 19 33  2  0  0  0  0
 19 34  1  0  0  0  0
 20 22  2  0  0  0  0
 20 40  1  0  0  0  0
 21 23  2  0  0  0  0
 21 41  1  0  0  0  0
 22 49  1  0  0  0  0
 23 42  1  0  0  0  0
 24 52  1  0  0  0  0
 25 70  1  0  0  0  0
 26 71  1  0  0  0  0
 27 81  1  0  0  0  0
 28 82  1  0  0  0  0
 29 31  2  0  0  0  0
 29 81  1  0  0  0  0
 30 83  1  0  0  0  0
 31 84  1  0  0  0  0
 32 64  2  0  0  0  0
 33 65  1  0  0  0  0
 33 68  1  0  0  0  0
 34 69  1  0  0  0  0
 34 75  2  0  0  0  0
 35 50  1  0  0  0  0
 35 72  1  0  0  0  0
 35 76  2  0  0  0  0
 36 61  1  0  0  0  0
 36 66  1  0  0  0  0
 36 77  2  0  0  0  0
 37 58  1  0  0  0  0
 37 70  1  0  0  0  0
 37 78  2  0  0  0  0
 38 62  1  0  0  0  0
 38 73  1  0  0  0  0
 38 79  2  0  0  0  0
 39 67  1  0  0  0  0
 39 71  1  0  0  0  0
 39 80  2  0  0  0  0
 40 43  1  0  0  0  0
 41 50  1  0  0  0  0
 42 66  1  0  0  0  0
 43 45  1  0  0  0  0
 44 46  1  0  0  0  0
 44 47  1  0  0  0  0
 45 49  1  0  0  0  0
 46 51  1  0  0  0  0
 47 67  1  0  0  0  0
 48 51  1  0  0  0  0
 48 67  1  0  0  0  0
 49 72  1  0  0  0  0
 50 66  1  0  0  0  0
 51 65  1  0  0  0  0
 53 62  1  0  0  0  0
 54 63  1  0  0  0  0
 55 63  1  0  0  0  0
 56 63  1  0  0  0  0
 57 74  1  0  0  0  0
 58 59  1  0  0  0  0
 59 60  1  0  0  0  0
 60 82  1  0  0  0  0
 61 63  1  0  0  0  0
 61 73  1  0  0  0  0
 62 74  1  0  0  0  0
 64 65  1  0  0  0  0
M  CHG  1  74   1
M  ISO  4  39 100  60 101  71 100  82 101
M  END
> <Batch ID>
0060

> <Smiles>
CNC(C)C(=O)NC(C(=O)N1Cc2cc([101O:1][101CH2:1]CCC(=O)Nc3cc(C)cc([100NH:0][100C:0](=O)N4CCCC(n5nc(-c6ccc(Oc7ccc(F)cc7F)cc6)c(C(N)=O)c5N)C4)c3)ccc2CC1C(=O)NC1CCCc2ccccc21)C(C)(C)C

> <Shape>
0.273

> <Color>
0.101

> <Negative vol penalty>
0.000

$$$$

  -OEChem-04042323043D

 85 93  0     1  0  0  0  0  0999 V2000
  -21.5815  -35.2556   23.1191 C   0  0  0  0  0  0  0  0  0  0  0  0
  -22.7315  -34.6131   22.6717 C   0  0  0  0  0  0  0  0  0  0  0  0
  -26.0128  -13.8462   21.5375 C   0  0  0  0  0  0  0  0  0  0  0  0
  -25.7746  -15.6722   19.9736 C   0  0  0  0  0  0  0  0  0  0  0  0
  -20.6259  -34.5464   23.8456 C   0  0  0  0  0  0  0  0  0  0  0  0
  -22.9270  -33.2611   22.9515 C   0  0  0  0  0  0  0  0  0  0  0  0
  -25.6709  -29.1198   19.3702 C   0  0  0  0  0  0  0  0  0  0  0  0
  -33.4562  -23.1091   20.8638 C   0  0  0  0  0  0  0  0  0  0  0  0
  -32.8274  -22.1776   21.6898 C   0  0  0  0  0  0  0  0  0  0  0  0
  -24.6401  -13.6082   21.4688 C   0  0  0  0  0  0  0  0  0  0  0  0
  -24.4019  -15.4342   19.9048 C   0  0  0  0  0  0  0  0  0  0  0  0
  -26.9631  -28.5963   19.3615 C   0  0  0  0  0  0  0  0  0  0  0  0
  -22.4756  -12.1045   19.3506 C   0  0  0  0  0  0  0  0  0  0  0  0
  -22.0529  -10.7819   19.2176 C   0  0  0  0  0  0  0  0  0  0  0  0
  -26.1998  -26.7066   20.6521 C   0  0  0  0  0  0  0  0  0  0  0  0
  -20.8291  -10.9645   21.2928 C   0  0  0  0  0  0  0  0  0  0  0  0
  -26.5800  -14.8782   20.7899 C   0  0  0  0  0  0  0  0  0  0  0  0
  -29.0005  -14.5609   20.0495 C   0  0  0  0  0  0  0  0  0  0  0  0
  -20.8053  -33.1827   24.1262 C   0  0  0  0  0  0  0  0  0  0  0  0
  -24.6340  -28.4449   20.0303 C   0  0  0  0  0  0  0  0  0  0  0  0
  -21.9736  -32.5333   23.6836 C   0  0  0  0  0  0  0  0  0  0  0  0
  -24.8948  -27.2223   20.6655 C   0  0  0  0  0  0  0  0  0  0  0  0
  -32.8248  -23.5476   19.6998 C   0  0  0  0  0  0  0  0  0  0  0  0
  -31.5672  -21.6843   21.3518 C   0  0  0  0  0  0  0  0  0  0  0  0
  -31.5647  -23.0543   19.3618 C   0  0  0  0  0  0  0  0  0  0  0  0
  -23.8347  -14.4022   20.6525 C   0  0  0  0  0  0  0  0  0  0  0  0
  -27.2283  -27.3911   20.0050 C   0  0  0  0  0  0  0  0  0  0  0  0
  -22.0752  -12.8570   20.4548 C   0  0  0  0  0  0  0  0  0  0  0  0
  -21.2296  -10.2119   20.1887 C   0  0  0  0  0  0  0  0  0  0  0  0
  -21.2520  -12.2870   21.4258 C   0  0  0  0  0  0  0  0  0  0  0  0
  -30.9358  -22.1227   20.1878 C   0  0  0  0  0  0  0  0  0  0  0  0
  -27.9979  -15.1248   20.8609 C   0  0  0  0  0  0  0  0  0  0  0  0
  -30.1692  -15.1127   20.5144 C   0  0  0  0  0  0  0  0  0  0  0  0
  -28.8857  -13.6223   18.9717 C   0  0  0  0  0  0  0  0  0  0  0  0
  -22.7130  -29.1223   22.4705 C   0  0  0  0  0  0  0  0  0  0  0  0
  -21.3065  -26.3212   21.6352 C   0  0  0  0  0  0  0  0  0  0  0  0
  -21.5868  -23.2789   20.1146 C   0  0  0  0  0  0  0  0  0  0  0  0
  -31.4224  -20.2021   23.3837 C   0  0  0  0  0  0  0  0  0  0  0  0
  -19.7670  -32.4695   24.9556 C   0  0  0  0  0  0  0  0  0  0  0  0
  -23.2400  -29.0094   20.0077 C   0  0  0  0  0  0  0  0  0  0  0  0
  -23.8124  -26.4485   21.3712 C   0  0  0  0  0  0  0  0  0  0  0  0
  -19.8731  -30.9481   24.8878 C   0  0  0  0  0  0  0  0  0  0  0  0
  -32.1437  -16.8975   24.4956 C   0  0  0  0  0  0  0  0  0  0  0  0
  -21.3221  -30.5056   25.0655 C   0  0  0  0  0  0  0  0  0  0  0  0
  -31.2582  -16.0162   23.6118 C   0  0  0  0  0  0  0  0  0  0  0  0
  -31.4506  -18.2076   24.8657 C   0  0  0  0  0  0  0  0  0  0  0  0
  -30.0464  -18.0970   22.8445 C   0  0  0  0  0  0  0  0  0  0  0  0
  -22.2101  -31.0617   23.9459 C   0  0  1  0  0  0  0  0  0  0  0  0
  -22.3685  -28.4951   21.1494 C   0  0  1  0  0  0  0  0  0  0  0  0
  -30.7267  -16.7946   22.3923 C   0  0  2  0  0  0  0  0  0  0  0  0
  -33.5207  -24.5453   18.8324 C   0  0  0  0  0  0  0  0  0  0  0  0
  -20.2799  -21.1930   19.6260 C   0  0  0  0  0  0  0  0  0  0  0  0
  -21.6580  -25.4256   24.5308 C   0  0  0  0  0  0  0  0  0  0  0  0
  -21.2346  -23.0744   23.7818 C   0  0  0  0  0  0  0  0  0  0  0  0
  -19.4616  -24.8075   23.5069 C   0  0  0  0  0  0  0  0  0  0  0  0
  -21.8443  -23.6632   17.1915 C   0  0  0  0  0  0  0  0  0  0  0  0
  -29.3069  -27.1795   18.8688 C   0  0  0  0  0  0  0  0  0  1  0  0
  -30.3165  -26.0677   18.6667 C   0  0  0  0  0  0  0  0  0  0  0  0
  -21.5007  -24.8728   22.0137 C   0  0  1  0  0  0  0  0  0  0  0  0
  -20.6926  -22.5653   19.1168 C   0  0  2  0  0  0  0  0  0  0  0  0
  -20.9847  -24.5604   23.4467 C   0  0  0  0  0  0  0  0  0  0  0  0
  -28.4869  -15.9699   21.7724 N   0  0  0  0  0  0  0  0  0  0  0  0
  -29.8096  -15.9410   21.5365 N   0  0  0  0  0  0  0  0  0  0  0  0
  -22.4671  -27.0449   21.3266 N   0  0  0  0  0  0  0  0  0  0  0  0
  -30.9775  -18.8920   23.6604 N   0  0  0  0  0  0  0  0  0  0  0  0
  -31.4591  -14.9652   20.1446 N   0  0  0  0  0  0  0  0  0  0  0  0
  -27.6102  -13.1570   18.6240 N   0  0  0  0  0  0  0  0  0  0  0  0
  -30.9314  -20.7384   22.1938 N   0  0  0  0  0  0  0  0  0  0  0  0
  -30.8992  -23.4968   18.1654 N   0  0  0  0  0  0  0  0  0  0  0  0
  -22.0311  -30.2956   22.7312 N   0  0  0  0  0  0  0  0  0  0  0  0
  -20.8611  -24.0873   20.9638 N   0  0  0  0  0  0  0  0  0  0  0  0
  -21.4020  -22.3908   17.8178 N   0  3  0  0  0  0  0  0  0  0  0  0
  -29.8862  -13.1959   18.3467 O   0  0  0  0  0  0  0  0  0  0  0  0
  -23.5355  -28.5811   23.2001 O   0  0  0  0  0  0  0  0  0  0  0  0
  -20.1664  -26.7913   21.6073 O   0  0  0  0  0  0  0  0  0  0  0  0
  -22.8066  -23.1308   20.1408 O   0  0  0  0  0  0  0  0  0  0  0  0
  -32.2045  -20.7936   24.1323 O   0  0  0  0  0  0  0  0  0  0  0  0
  -28.8820  -24.6264   17.0442 O   0  0  0  0  0  0  0  0  0  0  0  0
  -28.7530  -24.1480   19.5140 O   0  0  0  0  0  0  0  0  0  0  0  0
  -22.4952  -14.1702   20.5850 O   0  0  0  0  0  0  0  0  0  0  0  0
  -28.4888  -26.8783   19.9986 O   0  0  0  0  0  0  0  0  0  1  0  0
  -20.8224   -8.9423   20.0600 F   0  0  0  0  0  0  0  0  0  0  0  0
  -20.8630  -13.0054   22.4881 F   0  0  0  0  0  0  0  0  0  0  0  0
  -29.7237  -21.6474   19.8630 F   0  0  0  0  0  0  0  0  0  0  0  0
  -29.5290  -24.5199   18.3428 S   0  0  0  0  0  0  0  0  0  0  0  0
  1  2  1  0  0  0  0
  1  5  2  0  0  0  0
  2  6  2  0  0  0  0
  3 10  2  0  0  0  0
  3 17  1  0  0  0  0
  4 11  1  0  0  0  0
  4 17  2  0  0  0  0
  5 19  1  0  0  0  0
  6 21  1  0  0  0  0
  7 12  2  0  0  0  0
  7 20  1  0  0  0  0
  8  9  1  0  0  0  0
  8 23  2  0  0  0  0
  9 24  2  0  0  0  0
 10 26  1  0  0  0  0
 11 26  2  0  0  0  0
 12 27  1  0  0  0  0
 13 14  2  0  0  0  0
 13 28  1  0  0  0  0
 14 29  1  0  0  0  0
 15 22  1  0  0  0  0
 15 27  2  0  0  0  0
 16 29  2  0  0  0  0
 16 30  1  0  0  0  0
 17 32  1  0  0  0  0
 18 32  1  0  0  0  0
 18 33  2  0  0  0  0
 18 34  1  0  0  0  0
 19 21  2  0  0  0  0
 19 39  1  0  0  0  0
 20 22  2  0  0  0  0
 20 40  1  0  0  0  0
 21 48  1  0  0  0  0
 22 41  1  0  0  0  0
 23 25  1  0  0  0  0
 23 51  1  0  0  0  0
 24 31  1  0  0  0  0
 24 68  1  0  0  0  0
 25 31  2  0  0  0  0
 25 69  1  0  0  0  0
 26 80  1  0  0  0  0
 27 81  1  0  0  0  0
 28 30  2  0  0  0  0
 28 80  1  0  0  0  0
 29 82  1  0  0  0  0
 30 83  1  0  0  0  0
 31 84  1  0  0  0  0
 32 62  2  0  0  0  0
 33 63  1  0  0  0  0
 33 66  1  0  0  0  0
 34 67  1  0  0  0  0
 34 73  2  0  0  0  0
 35 49  1  0  0  0  0
 35 70  1  0  0  0  0
 35 74  2  0  0  0  0
 36 59  1  0  0  0  0
 36 64  1  0  0  0  0
 36 75  2  0  0  0  0
 37 60  1  0  0  0  0
 37 71  1  0  0  0  0
 37 76  2  0  0  0  0
 38 65  1  0  0  0  0
 38 68  1  0  0  0  0
 38 77  2  0  0  0  0
 39 42  1  0  0  0  0
 40 49  1  0  0  0  0
 41 64  1  0  0  0  0
 42 44  1  0  0  0  0
 43 45  1  0  0  0  0
 43 46  1  0  0  0  0
 44 48  1  0  0  0  0
 45 50  1  0  0  0  0
 46 65  1  0  0  0  0
 47 50  1  0  0  0  0
 47 65  1  0  0  0  0
 48 70  1  0  0  0  0
 49 64  1  0  0  0  0
 50 63  1  0  0  0  0
 52 60  1  0  0  0  0
 53 61  1  0  0  0  0
 54 61  1  0  0  0  0
 55 61  1  0  0  0  0
 56 72  1  0  0  0  0
 57 58  1  0  0  0  0
 57 81  1  0  0  0  0
 58 85  1  0  0  0  0
 59 61  1  0  0  0  0
 59 71  1  0  0  0  0
 60 72  1  0  0  0  0
 62 63  1  0  0  0  0
 69 85  1  0  0  0  0
 78 85  2  0  0  0  0
 79 85  2  0  0  0  0
M  CHG  1  72   1
M  ISO  4  38 100  57 101  68 100  81 101
M  END
> <Batch ID>
0060

> <Smiles>
CNC(C)C(=O)NC(C(=O)N1Cc2cc([101O:1][101CH2:1]CS(=O)(=O)Nc3c(C)ccc([100NH:0][100C:0](=O)N4CCCC(n5nc(-c6ccc(Oc7ccc(F)cc7F)cc6)c(C(N)=O)c5N)C4)c3F)ccc2CC1C(=O)NC1CCCc2ccccc21)C(C)(C)C

> <Shape>
0.237

> <Color>
0.093

> <Negative vol penalty>
0.000

$$$$

  -OEChem-04042323043D

 88 96  0     1  0  0  0  0  0999 V2000
  -27.6053  -33.1037   27.8030 C   0  0  0  0  0  0  0  0  0  0  0  0
  -27.9237  -32.0885   26.9066 C   0  0  0  0  0  0  0  0  0  0  0  0
  -24.3380   -8.3331   20.4767 C   0  0  0  0  0  0  0  0  0  0  0  0
  -23.1021  -10.2797   21.1981 C   0  0  0  0  0  0  0  0  0  0  0  0
  -30.1492  -19.6361   21.2229 C   0  0  0  0  0  0  0  0  0  0  0  0
  -26.2724  -33.4567   28.0099 C   0  0  0  0  0  0  0  0  0  0  0  0
  -26.9092  -31.4251   26.2173 C   0  0  0  0  0  0  0  0  0  0  0  0
  -27.1598  -29.2444   20.5000 C   0  0  0  0  0  0  0  0  0  0  0  0
  -30.1258  -18.2536   21.4064 C   0  0  0  0  0  0  0  0  0  0  0  0
  -23.2933   -7.5123   20.9013 C   0  0  0  0  0  0  0  0  0  0  0  0
  -22.0572   -9.4589   21.6227 C   0  0  0  0  0  0  0  0  0  0  0  0
  -27.3955  -27.9674   19.9927 C   0  0  0  0  0  0  0  0  0  0  0  0
  -21.1029   -4.8799   22.1246 C   0  0  0  0  0  0  0  0  0  0  0  0
  -21.4299   -3.7345   22.8503 C   0  0  0  0  0  0  0  0  0  0  0  0
  -28.8006  -19.3948   19.2329 C   0  0  0  0  0  0  0  0  0  0  0  0
  -25.0169  -27.5975   19.8354 C   0  0  0  0  0  0  0  0  0  0  0  0
  -22.4690   -5.1057   24.5465 C   0  0  0  0  0  0  0  0  0  0  0  0
  -24.2425   -9.7168   20.6251 C   0  0  0  0  0  0  0  0  0  0  0  0
  -29.4865  -20.2067   20.1361 C   0  0  0  0  0  0  0  0  0  0  0  0
  -25.4864  -11.1420   18.9137 C   0  0  0  0  0  0  0  0  0  0  0  0
  -25.2418  -32.8037   27.3156 C   0  0  0  0  0  0  0  0  0  0  0  0
  -25.8487  -29.7043   20.6894 C   0  0  0  0  0  0  0  0  0  0  0  0
  -25.5613  -31.7688   26.4161 C   0  0  0  0  0  0  0  0  0  0  0  0
  -24.7673  -28.8818   20.3429 C   0  0  0  0  0  0  0  0  0  0  0  0
  -28.7772  -18.0122   19.4164 C   0  0  0  0  0  0  0  0  0  0  0  0
  -29.4398  -17.4416   20.5032 C   0  0  0  0  0  0  0  0  0  0  0  0
  -22.1529   -8.0752   21.4743 C   0  0  0  0  0  0  0  0  0  0  0  0
  -26.3239  -27.1426   19.6630 C   0  0  0  0  0  0  0  0  0  0  0  0
  -21.4591   -6.1383   22.6098 C   0  0  0  0  0  0  0  0  0  0  0  0
  -22.1129   -3.8474   24.0613 C   0  0  0  0  0  0  0  0  0  0  0  0
  -22.1421   -6.2512   23.8208 C   0  0  0  0  0  0  0  0  0  0  0  0
  -25.3216  -10.5652   20.1872 C   0  0  0  0  0  0  0  0  0  0  0  0
  -26.6582  -11.8524   19.0075 C   0  0  0  0  0  0  0  0  0  0  0  0
  -29.5127  -21.6791   19.9404 C   0  0  0  0  0  0  0  0  0  0  0  0
  -24.6545  -11.0446   17.7500 C   0  0  0  0  0  0  0  0  0  0  0  0
  -24.1367  -30.6277   23.2034 C   0  0  0  0  0  0  0  0  0  0  0  0
  -27.9975  -24.0783   18.4805 C   0  0  0  0  0  0  0  0  0  0  0  0
  -21.9441  -31.3924   20.9384 C   0  0  0  0  0  0  0  0  0  0  0  0
  -20.7301  -30.8779   17.7907 C   0  0  0  0  0  0  0  0  0  0  0  0
  -30.0403  -15.3306   21.7399 C   0  0  0  0  0  0  0  0  0  0  0  0
  -23.8129  -33.1880   27.6077 C   0  0  0  0  0  0  0  0  0  0  0  0
  -25.6114  -31.0944   21.2126 C   0  0  0  0  0  0  0  0  0  0  0  0
  -23.3407  -29.3358   20.5083 C   0  0  0  0  0  0  0  0  0  0  0  0
  -22.8218  -32.6905   26.5586 C   0  0  0  0  0  0  0  0  0  0  0  0
  -30.2122  -11.8827   22.6116 C   0  0  0  0  0  0  0  0  0  0  0  0
  -23.0885  -31.2263   26.2241 C   0  0  0  0  0  0  0  0  0  0  0  0
  -28.9688  -11.2801   21.9538 C   0  0  0  0  0  0  0  0  0  0  0  0
  -29.9446  -13.2870   23.1504 C   0  0  0  0  0  0  0  0  0  0  0  0
  -28.1288  -13.6238   21.5199 C   0  0  0  0  0  0  0  0  0  0  0  0
  -24.4906  -31.0425   25.6311 C   0  0  1  0  0  0  0  0  0  0  0  0
  -24.2349  -31.2671   21.8472 C   0  0  1  0  0  0  0  0  0  0  0  0
  -28.3673  -12.2353   20.9044 C   0  0  2  0  0  0  0  0  0  0  0  0
  -28.0349  -17.1663   18.4333 C   0  0  0  0  0  0  0  0  0  0  0  0
  -18.9056  -31.6226   16.2369 C   0  0  0  0  0  0  0  0  0  0  0  0
  -29.0554  -23.1912   15.7554 C   0  0  0  0  0  0  0  0  0  0  0  0
  -31.3719  -23.2726   16.7078 C   0  0  0  0  0  0  0  0  0  0  0  0
  -19.9344  -29.7015   22.4916 C   0  0  0  0  0  0  0  0  0  0  0  0
  -18.4718  -29.6985   20.4596 C   0  0  0  0  0  0  0  0  0  0  0  0
  -19.0192  -31.8501   21.5970 C   0  0  0  0  0  0  0  0  0  0  0  0
  -22.6760  -31.9011   15.8095 C   0  0  0  0  0  0  0  0  0  0  0  0
  -27.9123  -25.4965   19.0126 C   0  0  0  0  0  0  0  0  0  1  0  0
  -29.4028  -23.5181   18.2784 C   0  0  2  0  0  0  0  0  0  0  0  0
  -20.8083  -30.6643   20.2610 C   0  0  1  0  0  0  0  0  0  0  0  0
  -20.3395  -31.8484   16.6906 C   0  0  2  0  0  0  0  0  0  0  0  0
  -29.9364  -23.7859   16.8587 C   0  0  0  0  0  0  0  0  0  0  0  0
  -19.5852  -30.4690   21.2009 C   0  0  0  0  0  0  0  0  0  0  0  0
  -26.3098  -10.8815   21.0283 N   0  0  0  0  0  0  0  0  0  0  0  0
  -27.1068  -11.6648   20.2817 N   0  0  0  0  0  0  0  0  0  0  0  0
  -23.1603  -30.7008   21.0294 N   0  0  0  0  0  0  0  0  0  0  0  0
  -29.3798  -14.1369   22.0999 N   0  0  0  0  0  0  0  0  0  0  0  0
  -27.3383  -12.6128   18.1234 N   0  0  0  0  0  0  0  0  0  0  0  0
  -23.4865  -10.2737   17.8263 N   0  0  0  0  0  0  0  0  0  0  0  0
  -29.4279  -16.0394   20.7069 N   0  0  0  0  0  0  0  0  0  0  0  0
  -29.3733  -22.1224   18.6319 N   0  0  0  0  0  0  0  0  0  0  0  0
  -24.5110  -31.4559   24.2443 N   0  0  0  0  0  0  0  0  0  0  0  0
  -20.5129  -31.4116   19.0434 N   0  0  0  0  0  0  0  0  0  0  0  0
  -21.2368  -31.6840   15.5122 N   0  3  0  0  0  0  0  0  0  0  0  0
  -29.6723  -22.4111   20.9137 O   0  0  0  0  0  0  0  0  0  0  0  0
  -24.9470  -11.6106   16.6694 O   0  0  0  0  0  0  0  0  0  0  0  0
  -23.7486  -29.4693   23.2985 O   0  0  0  0  0  0  0  0  0  0  0  0
  -26.9871  -23.4326   18.2009 O   0  0  0  0  0  0  0  0  0  0  0  0
  -21.7609  -32.5354   21.3647 O   0  0  0  0  0  0  0  0  0  0  0  0
  -21.1791  -29.7571   17.5616 O   0  0  0  0  0  0  0  0  0  0  0  0
  -31.0879  -15.6832   22.2877 O   0  0  0  0  0  0  0  0  0  0  0  0
  -21.1331   -7.2746   21.8886 O   0  0  0  0  0  0  0  0  0  0  0  0
  -26.5511  -25.8954   19.1683 O   0  0  0  0  0  0  0  0  0  1  0  0
  -22.4255   -2.7474   24.7588 F   0  0  0  0  0  0  0  0  0  0  0  0
  -22.4858   -7.4574   24.2926 F   0  0  0  0  0  0  0  0  0  0  0  0
  1  2  1  0  0  0  0
  1  6  2  0  0  0  0
  2  7  2  0  0  0  0
  3 10  2  0  0  0  0
  3 18  1  0  0  0  0
  4 11  1  0  0  0  0
  4 18  2  0  0  0  0
  5  9  2  0  0  0  0
  5 19  1  0  0  0  0
  6 21  1  0  0  0  0
  7 23  1  0  0  0  0
  8 12  2  0  0  0  0
  8 22  1  0  0  0  0
  9 26  1  0  0  0  0
 10 27  1  0  0  0  0
 11 27  2  0  0  0  0
 12 28  1  0  0  0  0
 13 14  2  0  0  0  0
 13 29  1  0  0  0  0
 14 30  1  0  0  0  0
 15 19  2  0  0  0  0
 15 25  1  0  0  0  0
 16 24  1  0  0  0  0
 16 28  2  0  0  0  0
 17 30  2  0  0  0  0
 17 31  1  0  0  0  0
 18 32  1  0  0  0  0
 19 34  1  0  0  0  0
 20 32  1  0  0  0  0
 20 33  2  0  0  0  0
 20 35  1  0  0  0  0
 21 23  2  0  0  0  0
 21 41  1  0  0  0  0
 22 24  2  0  0  0  0
 22 42  1  0  0  0  0
 23 50  1  0  0  0  0
 24 43  1  0  0  0  0
 25 26  2  0  0  0  0
 25 53  1  0  0  0  0
 26 73  1  0  0  0  0
 27 85  1  0  0  0  0
 28 86  1  0  0  0  0
 29 31  2  0  0  0  0
 29 85  1  0  0  0  0
 30 87  1  0  0  0  0
 31 88  1  0  0  0  0
 32 67  2  0  0  0  0
 33 68  1  0  0  0  0
 33 71  1  0  0  0  0
 34 74  1  0  0  0  0
 34 78  2  0  0  0  0
 35 72  1  0  0  0  0
 35 79  2  0  0  0  0
 36 51  1  0  0  0  0
 36 75  1  0  0  0  0
 36 80  2  0  0  0  0
 37 61  1  0  0  0  0
 37 62  1  0  0  0  0
 37 81  2  0  0  0  0
 38 63  1  0  0  0  0
 38 69  1  0  0  0  0
 38 82  2  0  0  0  0
 39 64  1  0  0  0  0
 39 76  1  0  0  0  0
 39 83  2  0  0  0  0
 40 70  1  0  0  0  0
 40 73  1  0  0  0  0
 40 84  2  0  0  0  0
 41 44  1  0  0  0  0
 42 51  1  0  0  0  0
 43 69  1  0  0  0  0
 44 46  1  0  0  0  0
 45 47  1  0  0  0  0
 45 48  1  0  0  0  0
 46 50  1  0  0  0  0
 47 52  1  0  0  0  0
 48 70  1  0  0  0  0
 49 52  1  0  0  0  0
 49 70  1  0  0  0  0
 50 75  1  0  0  0  0
 51 69  1  0  0  0  0
 52 68  1  0  0  0  0
 54 64  1  0  0  0  0
 55 65  1  0  0  0  0
 56 65  1  0  0  0  0
 57 66  1  0  0  0  0
 58 66  1  0  0  0  0
 59 66  1  0  0  0  0
 60 77  1  0  0  0  0
 61 86  1  0  0  0  0
 62 65  1  0  0  0  0
 62 74  1  0  0  0  0
 63 66  1  0  0  0  0
 63 76  1  0  0  0  0
 64 77  1  0  0  0  0
 67 68  1  0  0  0  0
M  CHG  1  77   1
M  ISO  4  40 100  61 101  73 100  86 101
M  END
> <Batch ID>
0060

> <Smiles>
CNC(C)C(=O)NC(C(=O)N1Cc2cc([101O:1][101CH2:1]C(=O)C(NC(=O)c3ccc([100NH:0][100C:0](=O)N4CCCC(n5nc(-c6ccc(Oc7ccc(F)cc7F)cc6)c(C(N)=O)c5N)C4)c(C)c3)C(C)C)ccc2CC1C(=O)NC1CCCc2ccccc21)C(C)(C)C

> <Shape>
0.330

> <Color>
0.099

> <Negative vol penalty>
0.000

$$$$

  -OEChem-04042323043D

 86 94  0     1  0  0  0  0  0999 V2000
  -20.2084  -24.6655   24.2896 C   0  0  0  0  0  0  0  0  0  0  0  0
  -21.3319  -25.4248   24.5966 C   0  0  0  0  0  0  0  0  0  0  0  0
  -24.9377  -12.8449   19.4398 C   0  0  0  0  0  0  0  0  0  0  0  0
  -25.1586  -13.7599   21.6649 C   0  0  0  0  0  0  0  0  0  0  0  0
  -19.4394  -24.9858   23.1728 C   0  0  0  0  0  0  0  0  0  0  0  0
  -21.6799  -26.5117   23.7939 C   0  0  0  0  0  0  0  0  0  0  0  0
  -25.3726  -29.3580   25.3642 C   0  0  0  0  0  0  0  0  0  0  0  0
  -24.8516  -24.6572   21.3675 C   0  0  0  0  0  0  0  0  0  0  0  0
  -25.0800  -23.4503   20.7067 C   0  0  0  0  0  0  0  0  0  0  0  0
  -25.0239  -11.5544   19.9620 C   0  0  0  0  0  0  0  0  0  0  0  0
  -25.2448  -12.4694   22.1871 C   0  0  0  0  0  0  0  0  0  0  0  0
  -26.7038  -28.9441   25.3455 C   0  0  0  0  0  0  0  0  0  0  0  0
  -27.5857  -10.0459   22.4658 C   0  0  0  0  0  0  0  0  0  0  0  0
  -28.5748   -9.7965   23.4171 C   0  0  0  0  0  0  0  0  0  0  0  0
  -27.3860  -24.0793   20.3546 C   0  0  0  0  0  0  0  0  0  0  0  0
  -27.0961  -30.3141   23.3992 C   0  0  0  0  0  0  0  0  0  0  0  0
  -26.8768   -9.1752   25.0196 C   0  0  0  0  0  0  0  0  0  0  0  0
  -25.0051  -13.9477   20.2913 C   0  0  0  0  0  0  0  0  0  0  0  0
  -27.1576  -25.2864   21.0154 C   0  0  0  0  0  0  0  0  0  0  0  0
  -23.7491  -16.0426   19.5554 C   0  0  0  0  0  0  0  0  0  0  0  0
  -19.7860  -26.0698   22.3494 C   0  0  0  0  0  0  0  0  0  0  0  0
  -24.8896  -30.2462   24.3924 C   0  0  0  0  0  0  0  0  0  0  0  0
  -20.9028  -26.8655   22.6761 C   0  0  0  0  0  0  0  0  0  0  0  0
  -25.7591  -30.7398   23.4093 C   0  0  0  0  0  0  0  0  0  0  0  0
  -25.8904  -25.5753   21.5218 C   0  0  0  0  0  0  0  0  0  0  0  0
  -26.3471  -23.1613   20.2003 C   0  0  0  0  0  0  0  0  0  0  0  0
  -25.1775  -11.3666   21.3356 C   0  0  0  0  0  0  0  0  0  0  0  0
  -27.5651  -29.4198   24.3612 C   0  0  0  0  0  0  0  0  0  0  0  0
  -26.2422   -9.8601   22.7913 C   0  0  0  0  0  0  0  0  0  0  0  0
  -28.2204   -9.3611   24.6940 C   0  0  0  0  0  0  0  0  0  0  0  0
  -25.8877   -9.4247   24.0682 C   0  0  0  0  0  0  0  0  0  0  0  0
  -24.9166  -15.2811   19.7525 C   0  0  0  0  0  0  0  0  0  0  0  0
  -24.1975  -17.2274   19.0246 C   0  0  0  0  0  0  0  0  0  0  0  0
  -32.0725  -26.9775   20.9862 C   0  0  0  0  0  0  0  0  0  0  0  0
  -31.3850  -26.3819   21.9677 C   0  0  0  0  0  0  0  0  0  0  0  0
  -28.2818  -26.2458   21.1664 C   0  0  0  0  0  0  0  0  0  0  0  0
  -22.3816  -15.7090   19.8279 C   0  0  0  0  0  0  0  0  0  0  0  0
  -22.6651  -30.0990   22.1267 C   0  0  0  0  0  0  0  0  0  0  0  0
  -23.3791  -33.2427   21.7662 C   0  0  0  0  0  0  0  0  0  0  0  0
  -25.6465  -35.7625   22.1614 C   0  0  0  0  0  0  0  0  0  0  0  0
  -27.7751  -21.4936   18.9650 C   0  0  0  0  0  0  0  0  0  0  0  0
  -18.9139  -26.3767   21.1576 C   0  0  0  0  0  0  0  0  0  0  0  0
  -23.4577  -30.7038   24.4423 C   0  0  0  0  0  0  0  0  0  0  0  0
  -25.2951  -31.7106   22.3554 C   0  0  0  0  0  0  0  0  0  0  0  0
  -19.6069  -27.2606   20.1257 C   0  0  0  0  0  0  0  0  0  0  0  0
  -28.7591  -18.5281   17.2577 C   0  0  0  0  0  0  0  0  0  0  0  0
  -20.2298  -28.4681   20.8102 C   0  0  0  0  0  0  0  0  0  0  0  0
  -27.7511  -17.4816   17.7384 C   0  0  0  0  0  0  0  0  0  0  0  0
  -29.1388  -19.5030   18.3709 C   0  0  0  0  0  0  0  0  0  0  0  0
  -26.9969  -19.1060   19.5215 C   0  0  0  0  0  0  0  0  0  0  0  0
  -21.3181  -28.0336   21.8000 C   0  0  1  0  0  0  0  0  0  0  0  0
  -22.9453  -31.2109   23.0978 C   0  0  1  0  0  0  0  0  0  0  0  0
  -26.5347  -18.1410   18.4175 C   0  0  2  0  0  0  0  0  0  0  0  0
  -25.6185  -26.8604   22.2337 C   0  0  0  0  0  0  0  0  0  0  0  0
  -25.9584  -38.2162   21.7379 C   0  0  0  0  0  0  0  0  0  0  0  0
  -23.8341  -32.6710   18.8038 C   0  0  0  0  0  0  0  0  0  0  0  0
  -25.0319  -34.8632   18.6362 C   0  0  0  0  0  0  0  0  0  0  0  0
  -22.6225  -34.8063   19.2801 C   0  0  0  0  0  0  0  0  0  0  0  0
  -25.9832  -36.3358   25.0454 C   0  0  0  0  0  0  0  0  0  0  0  0
  -30.3640  -27.1290   24.1284 C   0  0  0  0  0  0  0  0  0  0  0  0
  -29.1486  -27.7128   24.8454 C   0  0  0  0  0  0  0  0  0  1  0  0
  -30.1621  -26.9733   22.6124 C   0  0  2  0  0  0  0  0  0  0  0  0
  -24.3667  -34.0263   20.9358 C   0  0  1  0  0  0  0  0  0  0  0  0
  -25.5085  -37.1608   22.7361 C   0  0  2  0  0  0  0  0  0  0  0  0
  -23.9724  -34.0719   19.4326 C   0  0  0  0  0  0  0  0  0  0  0  0
  -26.0235  -15.9277   19.3772 N   0  0  0  0  0  0  0  0  0  0  0  0
  -25.5534  -17.1080   18.9389 N   0  0  0  0  0  0  0  0  0  0  0  0
  -23.8846  -32.1234   22.4426 N   0  0  0  0  0  0  0  0  0  0  0  0
  -27.9366  -20.0919   18.9647 N   0  0  0  0  0  0  0  0  0  0  0  0
  -23.5602  -18.3492   18.6273 N   0  0  0  0  0  0  0  0  0  0  0  0
  -22.0971  -14.4496   20.3733 N   0  0  0  0  0  0  0  0  0  0  0  0
  -26.5782  -21.9360   19.5273 N   0  0  0  0  0  0  0  0  0  0  0  0
  -29.0511  -26.1028   22.3115 N   0  0  0  0  0  0  0  0  0  0  0  0
  -21.7355  -29.1806   22.5760 N   0  0  0  0  0  0  0  0  0  0  0  0
  -24.4783  -35.3381   21.5644 N   0  0  0  0  0  0  0  0  0  0  0  0
  -26.3341  -37.2979   23.9692 N   0  3  0  0  0  0  0  0  0  0  0  0
  -28.4568  -27.1051   20.3065 O   0  0  0  0  0  0  0  0  0  0  0  0
  -21.4384  -16.4977   19.5795 O   0  0  0  0  0  0  0  0  0  0  0  0
  -23.2479  -30.0770   21.0490 O   0  0  0  0  0  0  0  0  0  0  0  0
  -22.2040  -33.6143   21.8187 O   0  0  0  0  0  0  0  0  0  0  0  0
  -26.6877  -35.1133   22.2317 O   0  0  0  0  0  0  0  0  0  0  0  0
  -28.6230  -22.2446   18.4761 O   0  0  0  0  0  0  0  0  0  0  0  0
  -25.2614  -10.1074   21.8455 O   0  0  0  0  0  0  0  0  0  0  0  0
  -28.8647  -29.0169   24.3402 O   0  0  0  0  0  0  0  0  0  1  0  0
  -29.1704   -9.1201   25.6070 F   0  0  0  0  0  0  0  0  0  0  0  0
  -24.5987   -9.2433   24.3865 F   0  0  0  0  0  0  0  0  0  0  0  0
  1  2  1  0  0  0  0
  1  5  2  0  0  0  0
  2  6  2  0  0  0  0
  3 10  2  0  0  0  0
  3 18  1  0  0  0  0
  4 11  1  0  0  0  0
  4 18  2  0  0  0  0
  5 21  1  0  0  0  0
  6 23  1  0  0  0  0
  7 12  2  0  0  0  0
  7 22  1  0  0  0  0
  8  9  2  0  0  0  0
  8 25  1  0  0  0  0
  9 26  1  0  0  0  0
 10 27  1  0  0  0  0
 11 27  2  0  0  0  0
 12 28  1  0  0  0  0
 13 14  2  0  0  0  0
 13 29  1  0  0  0  0
 14 30  1  0  0  0  0
 15 19  1  0  0  0  0
 15 26  2  0  0  0  0
 16 24  1  0  0  0  0
 16 28  2  0  0  0  0
 17 30  2  0  0  0  0
 17 31  1  0  0  0  0
 18 32  1  0  0  0  0
 19 25  2  0  0  0  0
 19 36  1  0  0  0  0
 20 32  1  0  0  0  0
 20 33  2  0  0  0  0
 20 37  1  0  0  0  0
 21 23  2  0  0  0  0
 21 42  1  0  0  0  0
 22 24  2  0  0  0  0
 22 43  1  0  0  0  0
 23 51  1  0  0  0  0
 24 44  1  0  0  0  0
 25 54  1  0  0  0  0
 26 72  1  0  0  0  0
 27 83  1  0  0  0  0
 28 84  1  0  0  0  0
 29 31  2  0  0  0  0
 29 83  1  0  0  0  0
 30 85  1  0  0  0  0
 31 86  1  0  0  0  0
 32 66  2  0  0  0  0
 33 67  1  0  0  0  0
 33 70  1  0  0  0  0
 34 35  2  0  0  0  0
 35 62  1  0  0  0  0
 36 73  1  0  0  0  0
 36 77  2  0  0  0  0
 37 71  1  0  0  0  0
 37 78  2  0  0  0  0
 38 52  1  0  0  0  0
 38 74  1  0  0  0  0
 38 79  2  0  0  0  0
 39 63  1  0  0  0  0
 39 68  1  0  0  0  0
 39 80  2  0  0  0  0
 40 64  1  0  0  0  0
 40 75  1  0  0  0  0
 40 81  2  0  0  0  0
 41 69  1  0  0  0  0
 41 72  1  0  0  0  0
 41 82  2  0  0  0  0
 42 45  1  0  0  0  0
 43 52  1  0  0  0  0
 44 68  1  0  0  0  0
 45 47  1  0  0  0  0
 46 48  1  0  0  0  0
 46 49  1  0  0  0  0
 47 51  1  0  0  0  0
 48 53  1  0  0  0  0
 49 69  1  0  0  0  0
 50 53  1  0  0  0  0
 50 69  1  0  0  0  0
 51 74  1  0  0  0  0
 52 68  1  0  0  0  0
 53 67  1  0  0  0  0
 55 64  1  0  0  0  0
 56 65  1  0  0  0  0
 57 65  1  0  0  0  0
 58 65  1  0  0  0  0
 59 76  1  0  0  0  0
 60 61  1  0  0  0  0
 60 62  1  0  0  0  0
 61 84  1  0  0  0  0
 62 73  1  0  0  0  0
 63 65  1  0  0  0  0
 63 75  1  0  0  0  0
 64 76  1  0  0  0  0
 66 67  1  0  0  0  0
M  CHG  1  76   1
M  ISO  4  41 100  61 101  72 100  84 101
M  END
> <Batch ID>
0060

> <Smiles>
C=CC(C[101CH2:1][101O:1]c1ccc2c(c1)CN(C(=O)C(NC(=O)C(C)NC)C(C)(C)C)C(C(=O)NC1CCCc3ccccc31)C2)NC(=O)c1cc([100NH:0][100C:0](=O)N2CCCC(n3nc(-c4ccc(Oc5ccc(F)cc5F)cc4)c(C(N)=O)c3N)C2)ccc1C

> <Shape>
0.219

> <Color>
0.121

> <Negative vol penalty>
0.000

$$$$

  -OEChem-04042323043D

 84 92  0     1  0  0  0  0  0999 V2000
  -20.7207  -33.9255   15.3727 C   0  0  0  0  0  0  0  0  0  0  0  0
  -21.5434  -32.8087   15.4789 C   0  0  0  0  0  0  0  0  0  0  0  0
  -22.9241  -11.6112   21.5097 C   0  0  0  0  0  0  0  0  0  0  0  0
  -22.9174  -14.0074   21.2018 C   0  0  0  0  0  0  0  0  0  0  0  0
  -20.9309  -35.0262   16.2022 C   0  0  0  0  0  0  0  0  0  0  0  0
  -22.5777  -32.7925   16.4141 C   0  0  0  0  0  0  0  0  0  0  0  0
  -24.6178  -27.9523   19.5632 C   0  0  0  0  0  0  0  0  0  0  0  0
  -21.9054  -11.7298   22.4550 C   0  0  0  0  0  0  0  0  0  0  0  0
  -21.8986  -14.1261   22.1471 C   0  0  0  0  0  0  0  0  0  0  0  0
  -25.7035  -27.0988   19.3720 C   0  0  0  0  0  0  0  0  0  0  0  0
  -18.5506  -13.6829   22.2674 C   0  0  0  0  0  0  0  0  0  0  0  0
  -17.4786  -14.5210   21.9609 C   0  0  0  0  0  0  0  0  0  0  0  0
  -27.0065  -28.4211   20.9125 C   0  0  0  0  0  0  0  0  0  0  0  0
  -31.4583  -19.6095   20.9096 C   0  0  0  0  0  0  0  0  0  0  0  0
  -31.8236  -17.2224   20.8402 C   0  0  0  0  0  0  0  0  0  0  0  0
  -29.7931  -18.1607   19.9271 C   0  0  0  0  0  0  0  0  0  0  0  0
  -17.9733  -15.8652   23.9066 C   0  0  0  0  0  0  0  0  0  0  0  0
  -23.4302  -12.7500   20.8831 C   0  0  0  0  0  0  0  0  0  0  0  0
  -24.3379  -12.4495   18.5181 C   0  0  0  0  0  0  0  0  0  0  0  0
  -21.9621  -35.0196   17.1547 C   0  0  0  0  0  0  0  0  0  0  0  0
  -24.7219  -29.0548   20.4235 C   0  0  0  0  0  0  0  0  0  0  0  0
  -22.8027  -33.8947   17.2563 C   0  0  0  0  0  0  0  0  0  0  0  0
  -25.9198  -29.2856   21.1148 C   0  0  0  0  0  0  0  0  0  0  0  0
  -32.2569  -18.5010   21.1908 C   0  0  0  0  0  0  0  0  0  0  0  0
  -30.2264  -19.4394   20.2778 C   0  0  0  0  0  0  0  0  0  0  0  0
  -30.5917  -17.0522   20.2083 C   0  0  0  0  0  0  0  0  0  0  0  0
  -21.3926  -12.9872   22.7737 C   0  0  0  0  0  0  0  0  0  0  0  0
  -26.8990  -27.3347   20.0445 C   0  0  0  0  0  0  0  0  0  0  0  0
  -19.3339  -13.9359   23.3935 C   0  0  0  0  0  0  0  0  0  0  0  0
  -17.1899  -15.6122   22.7805 C   0  0  0  0  0  0  0  0  0  0  0  0
  -19.0453  -15.0270   24.2131 C   0  0  0  0  0  0  0  0  0  0  0  0
  -24.4829  -12.6282   19.9069 C   0  0  0  0  0  0  0  0  0  0  0  0
  -25.6253  -12.3929   18.0429 C   0  0  0  0  0  0  0  0  0  0  0  0
  -23.1460  -12.3443   17.7281 C   0  0  0  0  0  0  0  0  0  0  0  0
  -24.5042  -32.2059   20.0680 C   0  0  0  0  0  0  0  0  0  0  0  0
  -24.7490  -32.1961   23.3025 C   0  0  0  0  0  0  0  0  0  0  0  0
  -29.6916  -21.9004   20.2709 C   0  0  0  0  0  0  0  0  0  0  0  0
  -25.7908  -30.5840   26.1243 C   0  0  0  0  0  0  0  0  0  0  0  0
  -30.8202  -14.5477   20.0615 C   0  0  0  0  0  0  0  0  0  0  0  0
  -22.1804  -36.2516   17.9968 C   0  0  0  0  0  0  0  0  0  0  0  0
  -23.5331  -29.9506   20.6393 C   0  0  0  0  0  0  0  0  0  0  0  0
  -26.0766  -30.4436   22.0650 C   0  0  0  0  0  0  0  0  0  0  0  0
  -23.0626  -36.0061   19.2182 C   0  0  0  0  0  0  0  0  0  0  0  0
  -30.0540  -11.1407   19.3669 C   0  0  0  0  0  0  0  0  0  0  0  0
  -24.3024  -35.2071   18.8292 C   0  0  0  0  0  0  0  0  0  0  0  0
  -28.5255  -11.1204   19.2941 C   0  0  0  0  0  0  0  0  0  0  0  0
  -30.5580  -12.1056   20.4387 C   0  0  0  0  0  0  0  0  0  0  0  0
  -28.5022  -13.4524   20.2681 C   0  0  0  0  0  0  0  0  0  0  0  0
  -23.9195  -33.8294   18.2754 C   0  0  1  0  0  0  0  0  0  0  0  0
  -23.9148  -31.3387   21.1442 C   0  0  1  0  0  0  0  0  0  0  0  0
  -27.9488  -12.5433   19.1585 C   0  0  2  0  0  0  0  0  0  0  0  0
  -33.5735  -18.6833   21.8677 C   0  0  0  0  0  0  0  0  0  0  0  0
  -25.8867  -30.8418   28.6187 C   0  0  0  0  0  0  0  0  0  0  0  0
  -27.0668  -34.1585   23.0081 C   0  0  0  0  0  0  0  0  0  0  0  0
  -27.7126  -33.6423   25.3713 C   0  0  0  0  0  0  0  0  0  0  0  0
  -25.4947  -34.6746   24.8834 C   0  0  0  0  0  0  0  0  0  0  0  0
  -24.1202  -28.1790   26.5535 C   0  0  0  0  0  0  0  0  0  0  0  0
  -28.5510  -22.7901   19.7963 C   0  0  0  0  0  0  0  0  0  0  0  0
  -28.8025  -24.2675   20.0774 C   0  0  0  0  0  0  0  0  0  0  0  0
  -27.6720  -25.1402   19.5521 C   0  0  0  0  0  0  0  0  0  1  0  0
  -25.8909  -32.2495   24.2884 C   0  0  1  0  0  0  0  0  0  0  0  0
  -25.0894  -30.3031   27.4410 C   0  0  2  0  0  0  0  0  0  0  0  0
  -26.5393  -33.6604   24.3685 C   0  0  0  0  0  0  0  0  0  0  0  0
  -25.7616  -12.6813   20.2892 N   0  0  0  0  0  0  0  0  0  0  0  0
  -26.4318  -12.5352   19.1335 N   0  0  0  0  0  0  0  0  0  0  0  0
  -24.8877  -31.2947   22.2377 N   0  0  0  0  0  0  0  0  0  0  0  0
  -29.9733  -13.4341   20.2441 N   0  0  0  0  0  0  0  0  0  0  0  0
  -26.1349  -12.2357   16.8027 N   0  0  0  0  0  0  0  0  0  0  0  0
  -21.9058  -12.4233   18.3762 N   0  0  0  0  0  0  0  0  0  0  0  0
  -29.4165  -20.5644   19.9929 N   0  0  0  0  0  0  0  0  0  0  0  0
  -30.1509  -15.7532   19.8533 N   0  0  0  0  0  0  0  0  0  0  0  0
  -23.5689  -32.9306   19.3541 N   0  0  0  0  0  0  0  0  0  0  0  0
  -25.3582  -31.7639   25.5568 N   0  0  0  0  0  0  0  0  0  0  0  0
  -24.9078  -28.8358   27.6284 N   0  3  0  0  0  0  0  0  0  0  0  0
  -23.1798  -12.1684   16.4866 O   0  0  0  0  0  0  0  0  0  0  0  0
  -25.7179  -32.2180   19.8988 O   0  0  0  0  0  0  0  0  0  0  0  0
  -23.7667  -32.9222   23.4750 O   0  0  0  0  0  0  0  0  0  0  0  0
  -30.6901  -22.3575   20.8171 O   0  0  0  0  0  0  0  0  0  0  0  0
  -26.6403  -29.8338   25.6488 O   0  0  0  0  0  0  0  0  0  0  0  0
  -32.0488  -14.4354   20.0606 O   0  0  0  0  0  0  0  0  0  0  0  0
  -20.3983  -13.1033   23.6960 O   0  0  0  0  0  0  0  0  0  0  0  0
  -27.9605  -26.5036   19.8593 O   0  0  0  0  0  0  0  0  0  1  0  0
  -16.1614  -16.4178   22.4852 F   0  0  0  0  0  0  0  0  0  0  0  0
  -19.7950  -15.2758   25.2956 F   0  0  0  0  0  0  0  0  0  0  0  0
  1  2  1  0  0  0  0
  1  5  2  0  0  0  0
  2  6  2  0  0  0  0
  3  8  2  0  0  0  0
  3 18  1  0  0  0  0
  4  9  1  0  0  0  0
  4 18  2  0  0  0  0
  5 20  1  0  0  0  0
  6 22  1  0  0  0  0
  7 10  2  0  0  0  0
  7 21  1  0  0  0  0
  8 27  1  0  0  0  0
  9 27  2  0  0  0  0
 10 28  1  0  0  0  0
 11 12  2  0  0  0  0
 11 29  1  0  0  0  0
 12 30  1  0  0  0  0
 13 23  1  0  0  0  0
 13 28  2  0  0  0  0
 14 24  2  0  0  0  0
 14 25  1  0  0  0  0
 15 24  1  0  0  0  0
 15 26  2  0  0  0  0
 16 25  2  0  0  0  0
 16 26  1  0  0  0  0
 17 30  2  0  0  0  0
 17 31  1  0  0  0  0
 18 32  1  0  0  0  0
 19 32  1  0  0  0  0
 19 33  2  0  0  0  0
 19 34  1  0  0  0  0
 20 22  2  0  0  0  0
 20 40  1  0  0  0  0
 21 23  2  0  0  0  0
 21 41  1  0  0  0  0
 22 49  1  0  0  0  0
 23 42  1  0  0  0  0
 24 52  1  0  0  0  0
 25 70  1  0  0  0  0
 26 71  1  0  0  0  0
 27 81  1  0  0  0  0
 28 82  1  0  0  0  0
 29 31  2  0  0  0  0
 29 81  1  0  0  0  0
 30 83  1  0  0  0  0
 31 84  1  0  0  0  0
 32 64  2  0  0  0  0
 33 65  1  0  0  0  0
 33 68  1  0  0  0  0
 34 69  1  0  0  0  0
 34 75  2  0  0  0  0
 35 50  1  0  0  0  0
 35 72  1  0  0  0  0
 35 76  2  0  0  0  0
 36 61  1  0  0  0  0
 36 66  1  0  0  0  0
 36 77  2  0  0  0  0
 37 58  1  0  0  0  0
 37 70  1  0  0  0  0
 37 78  2  0  0  0  0
 38 62  1  0  0  0  0
 38 73  1  0  0  0  0
 38 79  2  0  0  0  0
 39 67  1  0  0  0  0
 39 71  1  0  0  0  0
 39 80  2  0  0  0  0
 40 43  1  0  0  0  0
 41 50  1  0  0  0  0
 42 66  1  0  0  0  0
 43 45  1  0  0  0  0
 44 46  1  0  0  0  0
 44 47  1  0  0  0  0
 45 49  1  0  0  0  0
 46 51  1  0  0  0  0
 47 67  1  0  0  0  0
 48 51  1  0  0  0  0
 48 67  1  0  0  0  0
 49 72  1  0  0  0  0
 50 66  1  0  0  0  0
 51 65  1  0  0  0  0
 53 62  1  0  0  0  0
 54 63  1  0  0  0  0
 55 63  1  0  0  0  0
 56 63  1  0  0  0  0
 57 74  1  0  0  0  0
 58 59  1  0  0  0  0
 59 60  1  0  0  0  0
 60 82  1  0  0  0  0
 61 63  1  0  0  0  0
 61 73  1  0  0  0  0
 62 74  1  0  0  0  0
 64 65  1  0  0  0  0
M  CHG  1  74   1
M  ISO  4  39 100  60 101  71 100  82 101
M  END
> <Batch ID>
0060

> <Smiles>
CNC(C)C(=O)NC(C(=O)N1Cc2cc([101O:1][101CH2:1]CCC(=O)Nc3cc(C)cc([100NH:0][100C:0](=O)N4CCCC(n5nc(-c6ccc(Oc7ccc(F)cc7F)cc6)c(C(N)=O)c5N)C4)c3)ccc2CC1C(=O)NC1CCCc2ccccc21)C(C)(C)C

> <Shape>
0.273

> <Color>
0.101

> <Negative vol penalty>
0.000

$$$$

  -OEChem-04042323043D

 85 93  0     1  0  0  0  0  0999 V2000
  -26.4504  -10.8205   21.3363 C   0  0  0  0  0  0  0  0  0  0  0  0
  -27.3052  -11.8400   20.9297 C   0  0  0  0  0  0  0  0  0  0  0  0
  -33.1209  -26.4853   17.0376 C   0  0  0  0  0  0  0  0  0  0  0  0
  -22.5167  -29.0542   20.7180 C   0  0  0  0  0  0  0  0  0  0  0  0
  -23.8428  -30.1575   22.4095 C   0  0  0  0  0  0  0  0  0  0  0  0
  -33.6059  -25.2250   16.6883 C   0  0  0  0  0  0  0  0  0  0  0  0
  -25.0729  -10.9605   21.1723 C   0  0  0  0  0  0  0  0  0  0  0  0
  -26.7831  -12.9997   20.3579 C   0  0  0  0  0  0  0  0  0  0  0  0
  -28.9511  -18.6962   20.9538 C   0  0  0  0  0  0  0  0  0  0  0  0
  -32.8378  -26.7785   18.3716 C   0  0  0  0  0  0  0  0  0  0  0  0
  -21.3557  -29.5781   21.2865 C   0  0  0  0  0  0  0  0  0  0  0  0
  -22.6818  -30.6815   22.9780 C   0  0  0  0  0  0  0  0  0  0  0  0
  -29.7599  -19.4825   20.1344 C   0  0  0  0  0  0  0  0  0  0  0  0
  -19.3557  -28.9100   23.9281 C   0  0  0  0  0  0  0  0  0  0  0  0
  -18.2706  -28.0493   24.0934 C   0  0  0  0  0  0  0  0  0  0  0  0
  -33.5245  -24.5510   19.0070 C   0  0  0  0  0  0  0  0  0  0  0  0
  -27.7935  -20.5231   19.2020 C   0  0  0  0  0  0  0  0  0  0  0  0
  -16.9281  -29.4691   22.6725 C   0  0  0  0  0  0  0  0  0  0  0  0
  -23.7603  -29.3439   21.2796 C   0  0  0  0  0  0  0  0  0  0  0  0
  -33.8077  -24.2578   17.6729 C   0  0  0  0  0  0  0  0  0  0  0  0
  -25.7542  -29.3878   19.6890 C   0  0  0  0  0  0  0  0  0  0  0  0
  -24.5330  -12.1265   20.6071 C   0  0  0  0  0  0  0  0  0  0  0  0
  -27.5546  -18.8100   20.8954 C   0  0  0  0  0  0  0  0  0  0  0  0
  -25.3972  -13.1548   20.1850 C   0  0  0  0  0  0  0  0  0  0  0  0
  -26.9692  -19.7390   20.0235 C   0  0  0  0  0  0  0  0  0  0  0  0
  -33.0396  -25.8114   19.3563 C   0  0  0  0  0  0  0  0  0  0  0  0
  -21.4382  -30.3917   22.4165 C   0  0  0  0  0  0  0  0  0  0  0  0
  -29.1811  -20.3941   19.2563 C   0  0  0  0  0  0  0  0  0  0  0  0
  -19.2271  -30.0503   23.1351 C   0  0  0  0  0  0  0  0  0  0  0  0
  -17.0568  -28.3289   23.4656 C   0  0  0  0  0  0  0  0  0  0  0  0
  -18.0133  -30.3298   22.5072 C   0  0  0  0  0  0  0  0  0  0  0  0
  -24.9599  -28.8025   20.6931 C   0  0  0  0  0  0  0  0  0  0  0  0
  -26.7686  -28.4849   19.4837 C   0  0  0  0  0  0  0  0  0  0  0  0
  -34.3220  -22.9231   17.3026 C   0  0  0  0  0  0  0  0  0  0  0  0
  -25.5897  -30.6361   19.0031 C   0  0  0  0  0  0  0  0  0  0  0  0
  -25.1732  -16.8428   20.1450 C   0  0  0  0  0  0  0  0  0  0  0  0
  -23.3311  -19.3251   21.1285 C   0  0  0  0  0  0  0  0  0  0  0  0
  -32.1095  -21.9050   17.6010 C   0  0  0  0  0  0  0  0  0  0  0  0
  -23.0389  -22.6833   21.6610 C   0  0  0  0  0  0  0  0  0  0  0  0
  -30.6393  -24.9821   21.4570 C   0  0  0  0  0  0  0  0  0  0  0  0
  -23.0406  -12.2124   20.4069 C   0  0  0  0  0  0  0  0  0  0  0  0
  -26.6969  -17.9736   21.8050 C   0  0  0  0  0  0  0  0  0  0  0  0
  -25.4758  -19.9139   19.9372 C   0  0  0  0  0  0  0  0  0  0  0  0
  -22.5429  -13.6298   20.1359 C   0  0  0  0  0  0  0  0  0  0  0  0
  -27.3239  -23.7296   21.1163 C   0  0  0  0  0  0  0  0  0  0  0  0
  -23.4201  -14.3131   19.0917 C   0  0  0  0  0  0  0  0  0  0  0  0
  -26.4788  -24.9860   20.8994 C   0  0  0  0  0  0  0  0  0  0  0  0
  -28.4663  -23.9805   22.0981 C   0  0  0  0  0  0  0  0  0  0  0  0
  -28.4876  -26.3817   21.5439 C   0  0  0  0  0  0  0  0  0  0  0  0
  -24.8673  -14.4383   19.5833 C   0  0  1  0  0  0  0  0  0  0  0  0
  -25.2694  -17.8067   21.2936 C   0  0  1  0  0  0  0  0  0  0  0  0
  -27.3565  -26.1934   20.5185 C   0  0  2  0  0  0  0  0  0  0  0  0
  -22.0022  -24.8391   22.4195 C   0  0  0  0  0  0  0  0  0  0  0  0
  -21.8886  -19.1547   18.4451 C   0  0  0  0  0  0  0  0  0  0  0  0
  -20.9599  -21.4391   18.8783 C   0  0  0  0  0  0  0  0  0  0  0  0
  -20.3934  -19.5533   20.4099 C   0  0  0  0  0  0  0  0  0  0  0  0
  -34.1480  -20.5055   17.8949 C   0  0  0  0  0  0  0  0  0  0  0  0
  -24.1792  -22.4101   24.3783 C   0  0  0  0  0  0  0  0  0  0  0  0
  -32.7367  -26.1248   20.7828 C   0  0  0  0  0  0  0  0  0  0  0  0
  -31.3795  -20.9824   18.5659 C   0  0  0  0  0  0  0  0  0  1  0  0
  -22.7228  -20.5350   20.4614 C   0  0  1  0  0  0  0  0  0  0  0  0
  -22.5166  -23.4734   22.8474 C   0  0  2  0  0  0  0  0  0  0  0  0
  -21.5193  -20.1661   19.5487 C   0  0  0  0  0  0  0  0  0  0  0  0
  -25.4293  -27.6193   21.0976 N   0  0  0  0  0  0  0  0  0  0  0  0
  -26.5295  -27.4537   20.3437 N   0  0  0  0  0  0  0  0  0  0  0  0
  -24.6795  -19.0688   20.8424 N   0  0  0  0  0  0  0  0  0  0  0  0
  -29.2610  -25.1374   21.6786 N   0  0  0  0  0  0  0  0  0  0  0  0
  -27.8330  -28.4804   18.6533 N   0  0  0  0  0  0  0  0  0  0  0  0
  -24.4927  -31.4421   19.3364 N   0  0  0  0  0  0  0  0  0  0  0  0
  -24.9876  -15.5281   20.5279 N   0  0  0  0  0  0  0  0  0  0  0  0
  -22.3959  -21.4704   21.5322 N   0  0  0  0  0  0  0  0  0  0  0  0
  -31.3167  -26.1270   21.0555 N   0  0  0  0  0  0  0  0  0  0  0  0
  -33.5207  -21.7933   17.5959 N   0  0  0  0  0  0  0  0  0  0  0  0
  -23.5978  -23.6724   23.8536 N   0  3  0  0  0  0  0  0  0  0  0  0
  -35.4299  -22.8816   16.7678 O   0  0  0  0  0  0  0  0  0  0  0  0
  -26.3828  -31.0176   18.1092 O   0  0  0  0  0  0  0  0  0  0  0  0
  -25.2595  -17.2610   18.9964 O   0  0  0  0  0  0  0  0  0  0  0  0
  -22.6374  -18.6369   21.8814 O   0  0  0  0  0  0  0  0  0  0  0  0
  -31.4700  -22.6929   16.9004 O   0  0  0  0  0  0  0  0  0  0  0  0
  -23.9258  -23.1020   20.9203 O   0  0  0  0  0  0  0  0  0  0  0  0
  -31.2220  -23.9020   21.6007 O   0  0  0  0  0  0  0  0  0  0  0  0
  -20.3055  -30.9033   22.9713 O   0  0  0  0  0  0  0  0  0  0  0  0
  -29.9682  -21.1623   18.4550 O   0  0  0  0  0  0  0  0  0  1  0  0
  -16.0153  -27.5015   23.6231 F   0  0  0  0  0  0  0  0  0  0  0  0
  -17.8839  -31.4231   21.7432 F   0  0  0  0  0  0  0  0  0  0  0  0
  1  2  1  0  0  0  0
  1  7  2  0  0  0  0
  2  8  2  0  0  0  0
  3  6  2  0  0  0  0
  3 10  1  0  0  0  0
  4 11  2  0  0  0  0
  4 19  1  0  0  0  0
  5 12  1  0  0  0  0
  5 19  2  0  0  0  0
  6 20  1  0  0  0  0
  7 22  1  0  0  0  0
  8 24  1  0  0  0  0
  9 13  2  0  0  0  0
  9 23  1  0  0  0  0
 10 26  2  0  0  0  0
 11 27  1  0  0  0  0
 12 27  2  0  0  0  0
 13 28  1  0  0  0  0
 14 15  2  0  0  0  0
 14 29  1  0  0  0  0
 15 30  1  0  0  0  0
 16 20  2  0  0  0  0
 16 26  1  0  0  0  0
 17 25  1  0  0  0  0
 17 28  2  0  0  0  0
 18 30  2  0  0  0  0
 18 31  1  0  0  0  0
 19 32  1  0  0  0  0
 20 34  1  0  0  0  0
 21 32  1  0  0  0  0
 21 33  2  0  0  0  0
 21 35  1  0  0  0  0
 22 24  2  0  0  0  0
 22 41  1  0  0  0  0
 23 25  2  0  0  0  0
 23 42  1  0  0  0  0
 24 50  1  0  0  0  0
 25 43  1  0  0  0  0
 26 59  1  0  0  0  0
 27 82  1  0  0  0  0
 28 83  1  0  0  0  0
 29 31  2  0  0  0  0
 29 82  1  0  0  0  0
 30 84  1  0  0  0  0
 31 85  1  0  0  0  0
 32 64  2  0  0  0  0
 33 65  1  0  0  0  0
 33 68  1  0  0  0  0
 34 73  1  0  0  0  0
 34 75  2  0  0  0  0
 35 69  1  0  0  0  0
 35 76  2  0  0  0  0
 36 51  1  0  0  0  0
 36 70  1  0  0  0  0
 36 77  2  0  0  0  0
 37 61  1  0  0  0  0
 37 66  1  0  0  0  0
 37 78  2  0  0  0  0
 38 60  1  0  0  0  0
 38 73  1  0  0  0  0
 38 79  2  0  0  0  0
 39 62  1  0  0  0  0
 39 71  1  0  0  0  0
 39 80  2  0  0  0  0
 40 67  1  0  0  0  0
 40 72  1  0  0  0  0
 40 81  2  0  0  0  0
 41 44  1  0  0  0  0
 42 51  1  0  0  0  0
 43 66  1  0  0  0  0
 44 46  1  0  0  0  0
 45 47  1  0  0  0  0
 45 48  1  0  0  0  0
 46 50  1  0  0  0  0
 47 52  1  0  0  0  0
 48 67  1  0  0  0  0
 49 52  1  0  0  0  0
 49 67  1  0  0  0  0
 50 70  1  0  0  0  0
 51 66  1  0  0  0  0
 52 65  1  0  0  0  0
 53 62  1  0  0  0  0
 54 63  1  0  0  0  0
 55 63  1  0  0  0  0
 56 63  1  0  0  0  0
 57 73  1  0  0  0  0
 58 74  1  0  0  0  0
 59 72  1  0  0  0  0
 60 83  1  0  0  0  0
 61 63  1  0  0  0  0
 61 71  1  0  0  0  0
 62 74  1  0  0  0  0
 64 65  1  0  0  0  0
M  CHG  1  74   1
M  ISO  4  40 100  60 101  72 100  83 101
M  END
> <Batch ID>
0060

> <Smiles>
CNC(C)C(=O)NC(C(=O)N1Cc2cc([101O:1][101CH2:1]C(=O)N(C)C(=O)c3cccc(C[100NH:0][100C:0](=O)N4CCCC(n5nc(-c6ccc(Oc7ccc(F)cc7F)cc6)c(C(N)=O)c5N)C4)c3)ccc2CC1C(=O)NC1CCCc2ccccc21)C(C)(C)C

> <Shape>
0.193

> <Color>
0.059

> <Negative vol penalty>
0.000

$$$$

  -OEChem-04042323043D

 88 96  0     1  0  0  0  0  0999 V2000
  -29.2746  -33.8362   24.9291 C   0  0  0  0  0  0  0  0  0  0  0  0
  -29.0510  -32.4815   24.7051 C   0  0  0  0  0  0  0  0  0  0  0  0
  -24.7927   -8.8694   21.7152 C   0  0  0  0  0  0  0  0  0  0  0  0
  -23.2442  -10.0169   20.2583 C   0  0  0  0  0  0  0  0  0  0  0  0
  -28.2002  -34.7244   24.9523 C   0  0  0  0  0  0  0  0  0  0  0  0
  -27.7526  -32.0140   24.5053 C   0  0  0  0  0  0  0  0  0  0  0  0
  -27.4348  -28.7514   20.6453 C   0  0  0  0  0  0  0  0  0  0  0  0
  -23.7246   -8.3945   22.4763 C   0  0  0  0  0  0  0  0  0  0  0  0
  -22.1761   -9.5419   21.0193 C   0  0  0  0  0  0  0  0  0  0  0  0
  -27.8614  -27.4449   20.8792 C   0  0  0  0  0  0  0  0  0  0  0  0
  -21.4094   -5.9397   22.2605 C   0  0  0  0  0  0  0  0  0  0  0  0
  -21.4247   -4.5950   22.6308 C   0  0  0  0  0  0  0  0  0  0  0  0
  -25.5683  -26.7542   21.1684 C   0  0  0  0  0  0  0  0  0  0  0  0
  -24.9736  -17.3071   17.0930 C   0  0  0  0  0  0  0  0  0  0  0  0
  -26.4749  -18.7185   18.3543 C   0  0  0  0  0  0  0  0  0  0  0  0
  -21.4007   -5.2362   24.9601 C   0  0  0  0  0  0  0  0  0  0  0  0
  -24.5525   -9.6807   20.6062 C   0  0  0  0  0  0  0  0  0  0  0  0
  -26.2462   -9.5515   18.7030 C   0  0  0  0  0  0  0  0  0  0  0  0
  -26.8889  -34.2690   24.7431 C   0  0  0  0  0  0  0  0  0  0  0  0
  -26.0701  -29.0718   20.6821 C   0  0  0  0  0  0  0  0  0  0  0  0
  -26.6594  -32.8968   24.5271 C   0  0  0  0  0  0  0  0  0  0  0  0
  -25.1267  -28.0650   20.9322 C   0  0  0  0  0  0  0  0  0  0  0  0
  -24.2033  -18.4220   16.7623 C   0  0  0  0  0  0  0  0  0  0  0  0
  -26.1094  -17.4554   17.8891 C   0  0  0  0  0  0  0  0  0  0  0  0
  -25.7048  -19.8334   18.0235 C   0  0  0  0  0  0  0  0  0  0  0  0
  -22.4163   -8.7307   22.1283 C   0  0  0  0  0  0  0  0  0  0  0  0
  -26.9284  -26.4466   21.1437 C   0  0  0  0  0  0  0  0  0  0  0  0
  -21.3898   -6.9327   23.2399 C   0  0  0  0  0  0  0  0  0  0  0  0
  -21.4203   -4.2432   23.9806 C   0  0  0  0  0  0  0  0  0  0  0  0
  -21.3855   -6.5809   24.5897 C   0  0  0  0  0  0  0  0  0  0  0  0
  -24.5689  -19.6851   17.2274 C   0  0  0  0  0  0  0  0  0  0  0  0
  -25.6554  -10.1721   19.8199 C   0  0  0  0  0  0  0  0  0  0  0  0
  -27.2445  -10.4134   18.3194 C   0  0  0  0  0  0  0  0  0  0  0  0
  -25.9216   -8.3073   18.0687 C   0  0  0  0  0  0  0  0  0  0  0  0
  -24.2629  -30.9877   22.4618 C   0  0  0  0  0  0  0  0  0  0  0  0
  -21.9526  -30.1198   20.3568 C   0  0  0  0  0  0  0  0  0  0  0  0
  -27.2119  -21.3882   19.3094 C   0  0  0  0  0  0  0  0  0  0  0  0
  -20.7988  -27.8331   18.1013 C   0  0  0  0  0  0  0  0  0  0  0  0
  -28.0468  -16.2948   19.0052 C   0  0  0  0  0  0  0  0  0  0  0  0
  -25.7547  -35.2598   24.8244 C   0  0  0  0  0  0  0  0  0  0  0  0
  -25.6242  -30.4806   20.4013 C   0  0  0  0  0  0  0  0  0  0  0  0
  -23.6487  -28.3530   20.9627 C   0  0  0  0  0  0  0  0  0  0  0  0
  -24.4478  -34.7396   24.2313 C   0  0  0  0  0  0  0  0  0  0  0  0
  -30.2357  -13.7059   20.0932 C   0  0  0  0  0  0  0  0  0  0  0  0
  -24.1644  -33.3239   24.7234 C   0  0  0  0  0  0  0  0  0  0  0  0
  -29.3650  -12.4485   20.0391 C   0  0  0  0  0  0  0  0  0  0  0  0
  -29.4388  -14.9285   20.5449 C   0  0  0  0  0  0  0  0  0  0  0  0
  -27.3409  -13.9291   19.7269 C   0  0  0  0  0  0  0  0  0  0  0  0
  -25.2679  -32.3550   24.2815 C   0  0  1  0  0  0  0  0  0  0  0  0
  -24.2448  -30.7958   20.9717 C   0  0  1  0  0  0  0  0  0  0  0  0
  -28.0844  -12.6847   19.2146 C   0  0  2  0  0  0  0  0  0  0  0  0
  -18.8632  -27.3804   16.5698 C   0  0  0  0  0  0  0  0  0  0  0  0
  -20.2494  -29.3055   22.7539 C   0  0  0  0  0  0  0  0  0  0  0  0
  -18.7827  -28.0177   21.1860 C   0  0  0  0  0  0  0  0  0  0  0  0
  -18.9996  -30.4906   20.9406 C   0  0  0  0  0  0  0  0  0  0  0  0
  -22.5387  -27.8526   15.7073 C   0  0  0  0  0  0  0  0  0  0  0  0
  -27.2778  -22.8795   19.6088 C   0  0  0  0  0  0  0  0  0  0  0  0
  -28.4721  -23.2513   20.4807 C   0  0  0  0  0  0  0  0  0  0  0  0
  -28.5434  -24.7514   20.7266 C   0  0  0  0  0  0  0  0  0  1  0  0
  -20.9371  -29.0052   20.2835 C   0  0  1  0  0  0  0  0  0  0  0  0
  -20.2491  -27.9938   16.6955 C   0  0  2  0  0  0  0  0  0  0  0  0
  -22.9946  -18.2148   15.9071 C   0  0  0  0  0  0  0  0  0  0  0  0
  -19.7701  -29.1994   21.2924 C   0  0  0  0  0  0  0  0  0  0  0  0
  -26.2305  -11.3381   20.1262 N   0  0  0  0  0  0  0  0  0  0  0  0
  -27.1932  -11.4570   19.1960 N   0  0  0  0  0  0  0  0  0  0  0  0
  -23.2629  -29.7471   20.6882 N   0  0  0  0  0  0  0  0  0  0  0  0
  -28.2425  -15.0918   19.7161 N   0  0  0  0  0  0  0  0  0  0  0  0
  -28.1525  -10.3727   17.3212 N   0  0  0  0  0  0  0  0  0  0  0  0
  -24.8670   -7.5462   18.5912 N   0  0  0  0  0  0  0  0  0  0  0  0
  -26.1078  -21.0988   18.5125 N   0  0  0  0  0  0  0  0  0  0  0  0
  -26.8910  -16.3224   18.2256 N   0  0  0  0  0  0  0  0  0  0  0  0
  -25.1009  -32.0003   22.8884 N   0  0  0  0  0  0  0  0  0  0  0  0
  -20.5149  -28.9286   18.8891 N   0  0  0  0  0  0  0  0  0  0  0  0
  -21.1478  -27.3306   15.7089 N   0  3  0  0  0  0  0  0  0  0  0  0
  -26.5587   -7.8752   17.0784 O   0  0  0  0  0  0  0  0  0  0  0  0
  -23.5670  -30.2713   23.1718 O   0  0  0  0  0  0  0  0  0  0  0  0
  -21.5978  -31.2775   20.1214 O   0  0  0  0  0  0  0  0  0  0  0  0
  -28.0470  -20.6000   19.7404 O   0  0  0  0  0  0  0  0  0  0  0  0
  -21.4150  -26.8340   18.4655 O   0  0  0  0  0  0  0  0  0  0  0  0
  -28.8597  -17.2211   19.0610 O   0  0  0  0  0  0  0  0  0  0  0  0
  -21.3739   -8.2672   22.8706 O   0  0  0  0  0  0  0  0  0  0  0  0
  -27.3422  -25.1706   21.3730 O   0  0  0  0  0  0  0  0  0  1  0  0
  -21.4334   -2.9519   24.3361 F   0  0  0  0  0  0  0  0  0  0  0  0
  -21.3655   -7.5304   25.5352 F   0  0  0  0  0  0  0  0  0  0  0  0
  -22.7977  -16.9127   15.5500 F   0  0  0  0  0  0  0  0  0  0  0  0
  -21.8320  -18.6025   16.5070 F   0  0  0  0  0  0  0  0  0  0  0  0
  -23.0574  -18.9129   14.7376 F   0  0  0  0  0  0  0  0  0  0  0  0
  -23.6087  -21.0674   16.8116 Cl  0  0  0  0  0  0  0  0  0  0  0  0
  1  2  1  0  0  0  0
  1  5  2  0  0  0  0
  2  6  2  0  0  0  0
  3  8  2  0  0  0  0
  3 17  1  0  0  0  0
  4  9  1  0  0  0  0
  4 17  2  0  0  0  0
  5 19  1  0  0  0  0
  6 21  1  0  0  0  0
  7 10  2  0  0  0  0
  7 20  1  0  0  0  0
  8 26  1  0  0  0  0
  9 26  2  0  0  0  0
 10 27  1  0  0  0  0
 11 12  2  0  0  0  0
 11 28  1  0  0  0  0
 12 29  1  0  0  0  0
 13 22  1  0  0  0  0
 13 27  2  0  0  0  0
 14 23  2  0  0  0  0
 14 24  1  0  0  0  0
 15 24  2  0  0  0  0
 15 25  1  0  0  0  0
 16 29  2  0  0  0  0
 16 30  1  0  0  0  0
 17 32  1  0  0  0  0
 18 32  1  0  0  0  0
 18 33  2  0  0  0  0
 18 34  1  0  0  0  0
 19 21  2  0  0  0  0
 19 40  1  0  0  0  0
 20 22  2  0  0  0  0
 20 41  1  0  0  0  0
 21 49  1  0  0  0  0
 22 42  1  0  0  0  0
 23 31  1  0  0  0  0
 23 62  1  0  0  0  0
 24 71  1  0  0  0  0
 25 31  2  0  0  0  0
 25 70  1  0  0  0  0
 26 81  1  0  0  0  0
 27 82  1  0  0  0  0
 28 30  2  0  0  0  0
 28 81  1  0  0  0  0
 29 83  1  0  0  0  0
 30 84  1  0  0  0  0
 31 88  1  0  0  0  0
 32 64  2  0  0  0  0
 33 65  1  0  0  0  0
 33 68  1  0  0  0  0
 34 69  1  0  0  0  0
 34 75  2  0  0  0  0
 35 50  1  0  0  0  0
 35 72  1  0  0  0  0
 35 76  2  0  0  0  0
 36 60  1  0  0  0  0
 36 66  1  0  0  0  0
 36 77  2  0  0  0  0
 37 57  1  0  0  0  0
 37 70  1  0  0  0  0
 37 78  2  0  0  0  0
 38 61  1  0  0  0  0
 38 73  1  0  0  0  0
 38 79  2  0  0  0  0
 39 67  1  0  0  0  0
 39 71  1  0  0  0  0
 39 80  2  0  0  0  0
 40 43  1  0  0  0  0
 41 50  1  0  0  0  0
 42 66  1  0  0  0  0
 43 45  1  0  0  0  0
 44 46  1  0  0  0  0
 44 47  1  0  0  0  0
 45 49  1  0  0  0  0
 46 51  1  0  0  0  0
 47 67  1  0  0  0  0
 48 51  1  0  0  0  0
 48 67  1  0  0  0  0
 49 72  1  0  0  0  0
 50 66  1  0  0  0  0
 51 65  1  0  0  0  0
 52 61  1  0  0  0  0
 53 63  1  0  0  0  0
 54 63  1  0  0  0  0
 55 63  1  0  0  0  0
 56 74  1  0  0  0  0
 57 58  1  0  0  0  0
 58 59  1  0  0  0  0
 59 82  1  0  0  0  0
 60 63  1  0  0  0  0
 60 73  1  0  0  0  0
 61 74  1  0  0  0  0
 62 85  1  0  0  0  0
 62 86  1  0  0  0  0
 62 87  1  0  0  0  0
 64 65  1  0  0  0  0
M  CHG  1  74   1
M  ISO  4  39 100  59 101  71 100  82 101
M  END
> <Batch ID>
0060

> <Smiles>
CNC(C)C(=O)NC(C(=O)N1Cc2cc([101O:1][101CH2:1]CCC(=O)Nc3cc([100NH:0][100C:0](=O)N4CCCC(n5nc(-c6ccc(Oc7ccc(F)cc7F)cc6)c(C(N)=O)c5N)C4)cc(C(F)(F)F)c3Cl)ccc2CC1C(=O)NC1CCCc2ccccc21)C(C)(C)C

> <Shape>
0.279

> <Color>
0.076

> <Negative vol penalty>
0.000

$$$$

  -OEChem-04042323043D

 89 98  0     1  0  0  0  0  0999 V2000
  -22.9162   -6.0658   25.3189 C   0  0  0  0  0  0  0  0  0  0  0  0
  -23.1527   -6.2810   23.9649 C   0  0  0  0  0  0  0  0  0  0  0  0
  -22.9305  -28.6587   22.9949 C   0  0  0  0  0  0  0  0  0  0  0  0
  -23.0668  -29.5761   20.7640 C   0  0  0  0  0  0  0  0  0  0  0  0
  -22.2649   -7.0395   26.0749 C   0  0  0  0  0  0  0  0  0  0  0  0
  -22.7369   -7.4696   23.3659 C   0  0  0  0  0  0  0  0  0  0  0  0
  -27.4581  -11.8359   20.1199 C   0  0  0  0  0  0  0  0  0  0  0  0
  -21.5808  -28.3700   22.7937 C   0  0  0  0  0  0  0  0  0  0  0  0
  -21.7171  -29.2873   20.5628 C   0  0  0  0  0  0  0  0  0  0  0  0
  -28.2673  -12.6196   19.2970 C   0  0  0  0  0  0  0  0  0  0  0  0
  -18.6450  -30.0448   22.8195 C   0  0  0  0  0  0  0  0  0  0  0  0
  -17.7544  -30.3677   23.8432 C   0  0  0  0  0  0  0  0  0  0  0  0
  -26.4218  -14.1322   18.9047 C   0  0  0  0  0  0  0  0  0  0  0  0
  -30.2821  -22.9928   19.4886 C   0  0  0  0  0  0  0  0  0  0  0  0
  -28.1139  -21.4243   20.2771 C   0  0  0  0  0  0  0  0  0  0  0  0
  -17.1175  -28.0440   24.0220 C   0  0  0  0  0  0  0  0  0  0  0  0
  -23.6735  -29.2619   21.9800 C   0  0  0  0  0  0  0  0  0  0  0  0
  -25.6194  -30.4007   23.1735 C   0  0  0  0  0  0  0  0  0  0  0  0
  -21.8495   -8.2447   25.4871 C   0  0  0  0  0  0  0  0  0  0  0  0
  -26.1304  -12.2064   20.3509 C   0  0  0  0  0  0  0  0  0  0  0  0
  -22.0781   -8.4597   24.1145 C   0  0  0  0  0  0  0  0  0  0  0  0
  -25.6100  -13.3580   19.7380 C   0  0  0  0  0  0  0  0  0  0  0  0
  -30.3403  -21.6054   19.3565 C   0  0  0  0  0  0  0  0  0  0  0  0
  -29.2563  -20.8212   19.7507 C   0  0  0  0  0  0  0  0  0  0  0  0
  -29.1398  -23.5959   20.0151 C   0  0  0  0  0  0  0  0  0  0  0  0
  -20.9741  -28.6843   21.5777 C   0  0  0  0  0  0  0  0  0  0  0  0
  -27.7503  -13.7648   18.6908 C   0  0  0  0  0  0  0  0  0  0  0  0
  -18.7719  -28.7215   22.3969 C   0  0  0  0  0  0  0  0  0  0  0  0
  -16.9906  -29.3673   24.4445 C   0  0  0  0  0  0  0  0  0  0  0  0
  -28.0557  -22.8116   20.4093 C   0  0  0  0  0  0  0  0  0  0  0  0
  -18.0081  -27.7211   22.9982 C   0  0  0  0  0  0  0  0  0  0  0  0
  -25.0677  -29.5609   22.1875 C   0  0  0  0  0  0  0  0  0  0  0  0
  -26.9735  -30.3507   22.9486 C   0  0  0  0  0  0  0  0  0  0  0  0
  -30.2733  -18.6196   20.2857 C   0  0  0  0  0  0  0  0  0  0  0  0
  -28.7564  -17.6369   18.0349 C   0  0  0  0  0  0  0  0  0  0  0  0
  -24.9664  -31.1581   24.2009 C   0  0  0  0  0  0  0  0  0  0  0  0
  -22.8922  -11.4362   22.0822 C   0  0  0  0  0  0  0  0  0  0  0  0
  -23.2883  -14.4739   22.2433 C   0  0  0  0  0  0  0  0  0  0  0  0
  -23.2920  -17.7659   23.1376 C   0  0  0  0  0  0  0  0  0  0  0  0
  -30.0675  -25.9361   19.8079 C   0  0  0  0  0  0  0  0  0  0  0  0
  -21.1070   -9.2476   26.3342 C   0  0  0  0  0  0  0  0  0  0  0  0
  -25.2048  -11.3587   21.1807 C   0  0  0  0  0  0  0  0  0  0  0  0
  -24.1662  -13.6989   19.9874 C   0  0  0  0  0  0  0  0  0  0  0  0
  -30.1874  -17.1417   19.9693 C   0  0  0  0  0  0  0  0  0  0  0  0
  -28.1892  -18.6872   18.9689 C   0  0  0  0  0  0  0  0  0  0  0  0
  -21.0321  -10.6375   25.7076 C   0  0  0  0  0  0  0  0  0  0  0  0
  -29.9298  -29.5767   19.1870 C   0  0  0  0  0  0  0  0  0  0  0  0
  -20.6286  -10.5403   24.2398 C   0  0  0  0  0  0  0  0  0  0  0  0
  -28.8802  -30.1317   20.1511 C   0  0  0  0  0  0  0  0  0  0  0  0
  -30.6462  -28.3496   19.7338 C   0  0  0  0  0  0  0  0  0  0  0  0
  -28.4241  -27.6849   20.6778 C   0  0  0  0  0  0  0  0  0  0  0  0
  -21.6643   -9.7466   23.4343 C   0  0  1  0  0  0  0  0  0  0  0  0
  -24.1880  -12.1867   21.9867 C   0  0  1  0  0  0  0  0  0  0  0  0
  -28.4545  -29.1195   21.2277 C   0  0  2  0  0  0  0  0  0  0  0  0
  -31.5766  -20.9861   18.7896 C   0  0  0  0  0  0  0  0  0  0  0  0
  -21.7424  -19.6427   23.7491 C   0  0  0  0  0  0  0  0  0  0  0  0
  -22.5190  -14.7898   19.3087 C   0  0  0  0  0  0  0  0  0  0  0  0
  -21.8012  -17.1327   19.8225 C   0  0  0  0  0  0  0  0  0  0  0  0
  -20.6584  -15.2096   20.9263 C   0  0  0  0  0  0  0  0  0  0  0  0
  -24.5113  -18.0537   25.8189 C   0  0  0  0  0  0  0  0  0  0  0  0
  -30.5164  -15.9059   17.8332 C   0  0  0  0  0  0  0  0  0  0  0  0
  -29.9410  -14.5488   18.1971 C   0  0  0  0  0  0  0  0  0  1  0  0
  -23.0104  -15.8204   21.6244 C   0  0  1  0  0  0  0  0  0  0  0  0
  -22.6025  -18.5026   24.2718 C   0  0  2  0  0  0  0  0  0  0  0  0
  -22.0238  -15.7295   20.4261 C   0  0  0  0  0  0  0  0  0  0  0  0
  -25.9954  -29.0174   21.3950 N   0  0  0  0  0  0  0  0  0  0  0  0
  -27.1438  -29.5168   21.8828 N   0  0  0  0  0  0  0  0  0  0  0  0
  -29.2966  -19.3889   19.6236 N   0  0  0  0  0  0  0  0  0  0  0  0
  -29.8658  -16.9815   18.5621 N   0  0  0  0  0  0  0  0  0  0  0  0
  -23.8401  -13.4954   21.4076 N   0  0  0  0  0  0  0  0  0  0  0  0
  -29.7014  -27.2795   20.0663 N   0  0  0  0  0  0  0  0  0  0  0  0
  -28.0231  -30.9392   23.5604 N   0  0  0  0  0  0  0  0  0  0  0  0
  -24.5702  -32.4713   23.9133 N   0  0  0  0  0  0  0  0  0  0  0  0
  -29.0827  -25.0055   20.1489 N   0  0  0  0  0  0  0  0  0  0  0  0
  -22.8232  -10.5669   23.1540 N   0  0  0  0  0  0  0  0  0  0  0  0
  -22.5546  -16.6823   22.7096 N   0  0  0  0  0  0  0  0  0  0  0  0
  -23.6117  -19.0679   25.2114 N   0  3  0  0  0  0  0  0  0  0  0  0
  -31.0485  -19.0162   21.1555 O   0  0  0  0  0  0  0  0  0  0  0  0
  -28.1970  -17.3513   16.9777 O   0  0  0  0  0  0  0  0  0  0  0  0
  -24.7557  -30.6899   25.3454 O   0  0  0  0  0  0  0  0  0  0  0  0
  -22.0178  -11.6318   21.2462 O   0  0  0  0  0  0  0  0  0  0  0  0
  -23.0192  -14.2902   23.4337 O   0  0  0  0  0  0  0  0  0  0  0  0
  -24.3745  -18.1189   22.6750 O   0  0  0  0  0  0  0  0  0  0  0  0
  -31.1583  -25.6461   19.3118 O   0  0  0  0  0  0  0  0  0  0  0  0
  -19.6571  -28.4024   21.3809 O   0  0  0  0  0  0  0  0  0  0  0  0
  -28.5471  -14.5278   17.8922 O   0  0  0  0  0  0  0  0  0  1  0  0
  -16.1365  -29.6773   25.4286 F   0  0  0  0  0  0  0  0  0  0  0  0
  -26.9529  -23.3815   20.9158 F   0  0  0  0  0  0  0  0  0  0  0  0
  -18.1265  -26.4479   22.5973 F   0  0  0  0  0  0  0  0  0  0  0  0
  1  2  1  0  0  0  0
  1  5  2  0  0  0  0
  2  6  2  0  0  0  0
  3  8  2  0  0  0  0
  3 17  1  0  0  0  0
  4  9  1  0  0  0  0
  4 17  2  0  0  0  0
  5 19  1  0  0  0  0
  6 21  1  0  0  0  0
  7 10  2  0  0  0  0
  7 20  1  0  0  0  0
  8 26  1  0  0  0  0
  9 26  2  0  0  0  0
 10 27  1  0  0  0  0
 11 12  2  0  0  0  0
 11 28  1  0  0  0  0
 12 29  1  0  0  0  0
 13 22  1  0  0  0  0
 13 27  2  0  0  0  0
 14 23  1  0  0  0  0
 14 25  2  0  0  0  0
 15 24  1  0  0  0  0
 15 30  2  0  0  0  0
 16 29  2  0  0  0  0
 16 31  1  0  0  0  0
 17 32  1  0  0  0  0
 18 32  1  0  0  0  0
 18 33  2  0  0  0  0
 18 36  1  0  0  0  0
 19 21  2  0  0  0  0
 19 41  1  0  0  0  0
 20 22  2  0  0  0  0
 20 42  1  0  0  0  0
 21 52  1  0  0  0  0
 22 43  1  0  0  0  0
 23 24  2  0  0  0  0
 23 55  1  0  0  0  0
 24 68  1  0  0  0  0
 25 30  1  0  0  0  0
 25 74  1  0  0  0  0
 26 85  1  0  0  0  0
 27 86  1  0  0  0  0
 28 31  2  0  0  0  0
 28 85  1  0  0  0  0
 29 87  1  0  0  0  0
 30 88  1  0  0  0  0
 31 89  1  0  0  0  0
 32 66  2  0  0  0  0
 33 67  1  0  0  0  0
 33 72  1  0  0  0  0
 34 44  1  0  0  0  0
 34 68  1  0  0  0  0
 34 78  2  0  0  0  0
 35 45  1  0  0  0  0
 35 69  1  0  0  0  0
 35 79  2  0  0  0  0
 36 73  1  0  0  0  0
 36 80  2  0  0  0  0
 37 53  1  0  0  0  0
 37 75  1  0  0  0  0
 37 81  2  0  0  0  0
 38 63  1  0  0  0  0
 38 70  1  0  0  0  0
 38 82  2  0  0  0  0
 39 64  1  0  0  0  0
 39 76  1  0  0  0  0
 39 83  2  0  0  0  0
 40 71  1  0  0  0  0
 40 74  1  0  0  0  0
 40 84  2  0  0  0  0
 41 46  1  0  0  0  0
 42 53  1  0  0  0  0
 43 70  1  0  0  0  0
 44 69  1  0  0  0  0
 45 68  1  0  0  0  0
 46 48  1  0  0  0  0
 47 49  1  0  0  0  0
 47 50  1  0  0  0  0
 48 52  1  0  0  0  0
 49 54  1  0  0  0  0
 50 71  1  0  0  0  0
 51 54  1  0  0  0  0
 51 71  1  0  0  0  0
 52 75  1  0  0  0  0
 53 70  1  0  0  0  0
 54 67  1  0  0  0  0
 56 64  1  0  0  0  0
 57 65  1  0  0  0  0
 58 65  1  0  0  0  0
 59 65  1  0  0  0  0
 60 77  1  0  0  0  0
 61 62  1  0  0  0  0
 61 69  1  0  0  0  0
 62 86  1  0  0  0  0
 63 65  1  0  0  0  0
 63 76  1  0  0  0  0
 64 77  1  0  0  0  0
 66 67  1  0  0  0  0
M  CHG  1  77   1
M  ISO  4  40 100  62 101  74 100  86 101
M  END
> <Batch ID>
0060

> <Smiles>
CNC(C)C(=O)NC(C(=O)N1Cc2cc([101O:1][101CH2:1]CN3CC(=O)N(c4cc(F)c([100NH:0][100C:0](=O)N5CCCC(n6nc(-c7ccc(Oc8ccc(F)cc8F)cc7)c(C(N)=O)c6N)C5)cc4C)CC3=O)ccc2CC1C(=O)NC1CCCc2ccccc21)C(C)(C)C

> <Shape>
0.318

> <Color>
0.048

> <Negative vol penalty>
0.000

$$$$

  -OEChem-04042323043D

 87 95  0     1  0  0  0  0  0999 V2000
  -29.0930  -24.5719   17.0130 C   0  0  0  0  0  0  0  0  0  0  0  0
  -27.8300  -24.7340   17.5733 C   0  0  0  0  0  0  0  0  0  0  0  0
  -16.0425  -21.2001   17.1439 C   0  0  0  0  0  0  0  0  0  0  0  0
  -24.5491  -13.4212   22.5479 C   0  0  0  0  0  0  0  0  0  0  0  0
  -25.2953  -15.2025   21.0963 C   0  0  0  0  0  0  0  0  0  0  0  0
  -16.3748  -22.3231   17.9014 C   0  0  0  0  0  0  0  0  0  0  0  0
  -30.2114  -25.1063   17.6514 C   0  0  0  0  0  0  0  0  0  0  0  0
  -27.6848  -25.4299   18.7730 C   0  0  0  0  0  0  0  0  0  0  0  0
  -23.8173  -28.6973   18.6677 C   0  0  0  0  0  0  0  0  0  0  0  0
  -16.4652  -19.9345   17.5506 C   0  0  0  0  0  0  0  0  0  0  0  0
  -25.8236  -12.8558   22.5094 C   0  0  0  0  0  0  0  0  0  0  0  0
  -26.5699  -14.6371   21.0578 C   0  0  0  0  0  0  0  0  0  0  0  0
  -22.5355  -28.1721   18.8256 C   0  0  0  0  0  0  0  0  0  0  0  0
  -28.1167  -12.0861   19.4669 C   0  0  0  0  0  0  0  0  0  0  0  0
  -28.7475  -11.9938   18.2263 C   0  0  0  0  0  0  0  0  0  0  0  0
  -22.5540  -28.8396   21.1436 C   0  0  0  0  0  0  0  0  0  0  0  0
  -30.5549  -13.3737   19.0425 C   0  0  0  0  0  0  0  0  0  0  0  0
  -24.2849  -14.5945   21.8413 C   0  0  0  0  0  0  0  0  0  0  0  0
  -17.1298  -22.1807   19.0656 C   0  0  0  0  0  0  0  0  0  0  0  0
  -22.4872  -16.1299   22.7998 C   0  0  0  0  0  0  0  0  0  0  0  0
  -30.0787  -25.8174   18.8545 C   0  0  0  0  0  0  0  0  0  0  0  0
  -24.4825  -29.2889   19.7512 C   0  0  0  0  0  0  0  0  0  0  0  0
  -28.8026  -25.9732   19.4287 C   0  0  0  0  0  0  0  0  0  0  0  0
  -23.8431  -29.3739   20.9962 C   0  0  0  0  0  0  0  0  0  0  0  0
  -17.5525  -20.9152   19.4723 C   0  0  0  0  0  0  0  0  0  0  0  0
  -17.2202  -19.7920   18.7147 C   0  0  0  0  0  0  0  0  0  0  0  0
  -26.8340  -13.4638   21.7644 C   0  0  0  0  0  0  0  0  0  0  0  0
  -21.9048  -28.2406   20.0644 C   0  0  0  0  0  0  0  0  0  0  0  0
  -28.7050  -12.8224   20.4954 C   0  0  0  0  0  0  0  0  0  0  0  0
  -29.9666  -12.6375   18.0141 C   0  0  0  0  0  0  0  0  0  0  0  0
  -29.9241  -13.4661   20.2832 C   0  0  0  0  0  0  0  0  0  0  0  0
  -22.9683  -15.1787   21.8803 C   0  0  0  0  0  0  0  0  0  0  0  0
  -21.1898  -16.3577   22.4110 C   0  0  0  0  0  0  0  0  0  0  0  0
  -17.4665  -23.3960   19.8510 C   0  0  0  0  0  0  0  0  0  0  0  0
  -23.1536  -16.7520   23.9065 C   0  0  0  0  0  0  0  0  0  0  0  0
  -27.1616  -28.6717   21.3465 C   0  0  0  0  0  0  0  0  0  0  0  0
  -19.5580  -27.1504   22.2899 C   0  0  0  0  0  0  0  0  0  0  0  0
  -26.4647  -31.4726   22.8270 C   0  0  0  0  0  0  0  0  0  0  0  0
  -24.1013  -33.7641   23.7272 C   0  0  0  0  0  0  0  0  0  0  0  0
  -17.3824  -17.2913   18.4569 C   0  0  0  0  0  0  0  0  0  0  0  0
  -31.3222  -26.3361   19.5321 C   0  0  0  0  0  0  0  0  0  0  0  0
  -25.8543  -29.8748   19.5578 C   0  0  0  0  0  0  0  0  0  0  0  0
  -24.5061  -30.0171   22.1859 C   0  0  0  0  0  0  0  0  0  0  0  0
  -31.0388  -27.3825   20.6069 C   0  0  0  0  0  0  0  0  0  0  0  0
  -18.2673  -13.9007   19.0878 C   0  0  0  0  0  0  0  0  0  0  0  0
  -29.8999  -26.9233   21.5117 C   0  0  0  0  0  0  0  0  0  0  0  0
  -19.5296  -14.0092   19.9461 C   0  0  0  0  0  0  0  0  0  0  0  0
  -18.2130  -14.9907   18.0187 C   0  0  0  0  0  0  0  0  0  0  0  0
  -19.6385  -16.4695   19.3788 C   0  0  0  0  0  0  0  0  0  0  0  0
  -28.6015  -26.7430   20.7160 C   0  0  1  0  0  0  0  0  0  0  0  0
  -26.6418  -29.9945   20.8589 C   0  0  1  0  0  0  0  0  0  0  0  0
  -19.7061  -15.4322   20.5115 C   0  0  2  0  0  0  0  0  0  0  0  0
  -18.3632  -20.7637   20.7219 C   0  0  0  0  0  0  0  0  0  0  0  0
  -19.3261  -26.2037   23.4395 C   0  0  0  0  0  0  0  0  0  0  0  0
  -23.8283  -35.9303   24.9641 C   0  0  0  0  0  0  0  0  0  0  0  0
  -26.7008  -29.9845   25.4802 C   0  0  0  0  0  0  0  0  0  0  0  0
  -25.5143  -31.8962   26.5782 C   0  0  0  0  0  0  0  0  0  0  0  0
  -27.7184  -32.2690   25.4712 C   0  0  0  0  0  0  0  0  0  0  0  0
  -23.1114  -35.1540   21.3091 C   0  0  0  0  0  0  0  0  0  0  0  0
  -19.9980  -25.4217   20.4769 C   0  0  0  0  0  0  0  0  0  0  0  0
  -18.6287  -25.5878   19.8195 C   0  0  0  0  0  0  0  0  0  0  0  0
  -20.4955  -26.6844   21.1816 C   0  0  1  0  0  0  0  0  0  1  0  0
  -25.6683  -31.8676   24.0471 C   0  0  1  0  0  0  0  0  0  0  0  0
  -24.0702  -35.2774   23.6121 C   0  0  2  0  0  0  0  0  0  0  0  0
  -26.3885  -31.4904   25.3725 C   0  0  0  0  0  0  0  0  0  0  0  0
  -22.0511  -14.8263   20.9755 N   0  0  0  0  0  0  0  0  0  0  0  0
  -20.9806  -15.5599   21.3247 N   0  0  0  0  0  0  0  0  0  0  0  0
  -25.8498  -30.5697   21.9480 N   0  0  0  0  0  0  0  0  0  0  0  0
  -18.3830  -16.3114   18.6283 N   0  0  0  0  0  0  0  0  0  0  0  0
  -20.2188  -17.1605   22.8958 N   0  0  0  0  0  0  0  0  0  0  0  0
  -24.4863  -16.4037   24.1654 N   0  0  0  0  0  0  0  0  0  0  0  0
  -17.6383  -18.4969   19.1093 N   0  0  0  0  0  0  0  0  0  0  0  0
  -18.2054  -24.3680   19.1871 N   0  0  0  0  0  0  0  0  0  0  0  0
  -27.9904  -28.0272   20.4480 N   0  0  0  0  0  0  0  0  0  0  0  0
  -25.3843  -33.2916   23.9057 N   0  0  0  0  0  0  0  0  0  0  0  0
  -22.9858  -35.7042   22.6833 N   0  3  0  0  0  0  0  0  0  0  0  0
  -17.1045  -23.4729   21.0221 O   0  0  0  0  0  0  0  0  0  0  0  0
  -22.5790  -17.5795   24.6538 O   0  0  0  0  0  0  0  0  0  0  0  0
  -26.8362  -28.2666   22.4563 O   0  0  0  0  0  0  0  0  0  0  0  0
  -19.0124  -28.2540   22.2623 O   0  0  0  0  0  0  0  0  0  0  0  0
  -27.5879  -31.9531   22.6563 O   0  0  0  0  0  0  0  0  0  0  0  0
  -23.0882  -33.0707   23.6685 O   0  0  0  0  0  0  0  0  0  0  0  0
  -16.3600  -17.0676   17.8037 O   0  0  0  0  0  0  0  0  0  0  0  0
  -28.0779  -12.9125   21.7267 O   0  0  0  0  0  0  0  0  0  0  0  0
  -20.6540  -27.7281   20.2214 O   0  0  0  0  0  0  0  0  0  1  0  0
  -30.5730  -12.5474   16.8231 F   0  0  0  0  0  0  0  0  0  0  0  0
  -30.4947  -14.1739   21.2677 F   0  0  0  0  0  0  0  0  0  0  0  0
  1  2  1  0  0  0  0
  1  7  2  0  0  0  0
  2  8  2  0  0  0  0
  3  6  2  0  0  0  0
  3 10  1  0  0  0  0
  4 11  2  0  0  0  0
  4 18  1  0  0  0  0
  5 12  1  0  0  0  0
  5 18  2  0  0  0  0
  6 19  1  0  0  0  0
  7 21  1  0  0  0  0
  8 23  1  0  0  0  0
  9 13  2  0  0  0  0
  9 22  1  0  0  0  0
 10 26  2  0  0  0  0
 11 27  1  0  0  0  0
 12 27  2  0  0  0  0
 13 28  1  0  0  0  0
 14 15  2  0  0  0  0
 14 29  1  0  0  0  0
 15 30  1  0  0  0  0
 16 24  1  0  0  0  0
 16 28  2  0  0  0  0
 17 30  2  0  0  0  0
 17 31  1  0  0  0  0
 18 32  1  0  0  0  0
 19 25  2  0  0  0  0
 19 34  1  0  0  0  0
 20 32  1  0  0  0  0
 20 33  2  0  0  0  0
 20 35  1  0  0  0  0
 21 23  2  0  0  0  0
 21 41  1  0  0  0  0
 22 24  2  0  0  0  0
 22 42  1  0  0  0  0
 23 50  1  0  0  0  0
 24 43  1  0  0  0  0
 25 26  1  0  0  0  0
 25 53  1  0  0  0  0
 26 72  1  0  0  0  0
 27 84  1  0  0  0  0
 28 85  1  0  0  0  0
 29 31  2  0  0  0  0
 29 84  1  0  0  0  0
 30 86  1  0  0  0  0
 31 87  1  0  0  0  0
 32 66  2  0  0  0  0
 33 67  1  0  0  0  0
 33 70  1  0  0  0  0
 34 73  1  0  0  0  0
 34 77  2  0  0  0  0
 35 71  1  0  0  0  0
 35 78  2  0  0  0  0
 36 51  1  0  0  0  0
 36 74  1  0  0  0  0
 36 79  2  0  0  0  0
 37 54  1  0  0  0  0
 37 62  1  0  0  0  0
 37 80  2  0  0  0  0
 38 63  1  0  0  0  0
 38 68  1  0  0  0  0
 38 81  2  0  0  0  0
 39 64  1  0  0  0  0
 39 75  1  0  0  0  0
 39 82  2  0  0  0  0
 40 69  1  0  0  0  0
 40 72  1  0  0  0  0
 40 83  2  0  0  0  0
 41 44  1  0  0  0  0
 42 51  1  0  0  0  0
 43 68  1  0  0  0  0
 44 46  1  0  0  0  0
 45 47  1  0  0  0  0
 45 48  1  0  0  0  0
 46 50  1  0  0  0  0
 47 52  1  0  0  0  0
 48 69  1  0  0  0  0
 49 52  1  0  0  0  0
 49 69  1  0  0  0  0
 50 74  1  0  0  0  0
 51 68  1  0  0  0  0
 52 67  1  0  0  0  0
 55 64  1  0  0  0  0
 56 65  1  0  0  0  0
 57 65  1  0  0  0  0
 58 65  1  0  0  0  0
 59 76  1  0  0  0  0
 60 61  1  0  0  0  0
 60 62  1  0  0  0  0
 61 73  1  0  0  0  0
 62 85  1  0  0  0  0
 63 65  1  0  0  0  0
 63 75  1  0  0  0  0
 64 76  1  0  0  0  0
 66 67  1  0  0  0  0
M  CHG  1  76   1
M  ISO  4  40 100  62 101  72 100  85 101
M  END
> <Batch ID>
0060

> <Smiles>
CNC(C)C(=O)NC(C(=O)N1Cc2cc([101O:1][101CH:1](CCNC(=O)c3cccc([100NH:0][100C:0](=O)N4CCCC(n5nc(-c6ccc(Oc7ccc(F)cc7F)cc6)c(C(N)=O)c5N)C4)c3C)C(C)=O)ccc2CC1C(=O)NC1CCCc2ccccc21)C(C)(C)C

> <Shape>
0.281

> <Color>
0.080

> <Negative vol penalty>
0.000

$$$$

  -OEChem-04042323043D

 84 92  0     1  0  0  0  0  0999 V2000
  -24.7787  -38.4238   21.2433 C   0  0  0  0  0  0  0  0  0  0  0  0
  -25.5442  -37.5292   20.5023 C   0  0  0  0  0  0  0  0  0  0  0  0
  -28.2678  -10.8887   22.4848 C   0  0  0  0  0  0  0  0  0  0  0  0
  -26.8180  -11.7281   20.7440 C   0  0  0  0  0  0  0  0  0  0  0  0
  -24.2415  -38.0315   22.4686 C   0  0  0  0  0  0  0  0  0  0  0  0
  -25.7737  -36.2419   20.9868 C   0  0  0  0  0  0  0  0  0  0  0  0
  -26.7105  -29.5099   18.7243 C   0  0  0  0  0  0  0  0  0  0  0  0
  -27.3882   -9.8291   22.7065 C   0  0  0  0  0  0  0  0  0  0  0  0
  -25.9383  -10.6685   20.9656 C   0  0  0  0  0  0  0  0  0  0  0  0
  -27.5960  -28.4415   18.8596 C   0  0  0  0  0  0  0  0  0  0  0  0
  -25.7394   -7.3903   20.1691 C   0  0  0  0  0  0  0  0  0  0  0  0
  -25.2381   -6.7218   19.0523 C   0  0  0  0  0  0  0  0  0  0  0  0
  -26.5516  -27.8487   20.9517 C   0  0  0  0  0  0  0  0  0  0  0  0
  -30.5548  -22.1599   16.5369 C   0  0  0  0  0  0  0  0  0  0  0  0
  -30.0366  -21.6772   18.8468 C   0  0  0  0  0  0  0  0  0  0  0  0
  -22.9893   -7.3148   19.7068 C   0  0  0  0  0  0  0  0  0  0  0  0
  -27.9827  -11.8383   21.5036 C   0  0  0  0  0  0  0  0  0  0  0  0
  -29.9789  -12.9628   20.3821 C   0  0  0  0  0  0  0  0  0  0  0  0
  -24.4565  -36.7357   22.9638 C   0  0  0  0  0  0  0  0  0  0  0  0
  -25.7443  -29.7626   19.7087 C   0  0  0  0  0  0  0  0  0  0  0  0
  -25.2400  -35.8323   22.2205 C   0  0  0  0  0  0  0  0  0  0  0  0
  -25.6534  -28.9194   20.8253 C   0  0  0  0  0  0  0  0  0  0  0  0
  -30.9642  -20.8393   16.3527 C   0  0  0  0  0  0  0  0  0  0  0  0
  -30.9097  -19.9376   17.4155 C   0  0  0  0  0  0  0  0  0  0  0  0
  -30.0911  -22.5789   17.7840 C   0  0  0  0  0  0  0  0  0  0  0  0
  -30.4459  -20.3565   18.6626 C   0  0  0  0  0  0  0  0  0  0  0  0
  -26.2235   -9.7190   21.9469 C   0  0  0  0  0  0  0  0  0  0  0  0
  -27.5185  -27.6125   19.9748 C   0  0  0  0  0  0  0  0  0  0  0  0
  -24.8657   -8.0210   21.0548 C   0  0  0  0  0  0  0  0  0  0  0  0
  -23.8630   -6.6840   18.8211 C   0  0  0  0  0  0  0  0  0  0  0  0
  -23.4907   -7.9833   20.8236 C   0  0  0  0  0  0  0  0  0  0  0  0
  -28.8906  -12.9334   21.2745 C   0  0  0  0  0  0  0  0  0  0  0  0
  -30.5168  -14.2170   20.5378 C   0  0  0  0  0  0  0  0  0  0  0  0
  -30.4606  -11.9474   19.4919 C   0  0  0  0  0  0  0  0  0  0  0  0
  -25.1302  -32.1786   21.6810 C   0  0  0  0  0  0  0  0  0  0  0  0
  -22.5040  -30.4148   22.3980 C   0  0  0  0  0  0  0  0  0  0  0  0
  -29.1923  -24.5005   19.1381 C   0  0  0  0  0  0  0  0  0  0  0  0
  -21.0110  -27.3473   22.4913 C   0  0  0  0  0  0  0  0  0  0  0  0
  -29.9467  -19.7319   21.0515 C   0  0  0  0  0  0  0  0  0  0  0  0
  -23.8948  -36.3726   24.3156 C   0  0  0  0  0  0  0  0  0  0  0  0
  -24.7792  -30.9031   19.5348 C   0  0  0  0  0  0  0  0  0  0  0  0
  -24.6210  -29.1357   21.9004 C   0  0  0  0  0  0  0  0  0  0  0  0
  -23.8723  -34.8697   24.5822 C   0  0  0  0  0  0  0  0  0  0  0  0
  -29.6057  -17.7837   24.0121 C   0  0  0  0  0  0  0  0  0  0  0  0
  -25.2067  -34.2392   24.1970 C   0  0  0  0  0  0  0  0  0  0  0  0
  -29.4788  -16.3505   23.4904 C   0  0  0  0  0  0  0  0  0  0  0  0
  -28.9019  -18.7846   23.0975 C   0  0  0  0  0  0  0  0  0  0  0  0
  -29.1673  -17.2833   21.1623 C   0  0  0  0  0  0  0  0  0  0  0  0
  -25.4906  -34.4193   22.7008 C   0  0  1  0  0  0  0  0  0  0  0  0
  -24.1691  -31.3755   20.8509 C   0  0  1  0  0  0  0  0  0  0  0  0
  -29.9159  -16.2468   22.0160 C   0  0  2  0  0  0  0  0  0  0  0  0
  -31.4561  -20.4162   15.0070 C   0  0  0  0  0  0  0  0  0  0  0  0
  -32.7329  -18.2594   17.7979 C   0  0  0  0  0  0  0  0  0  0  0  0
  -18.8742  -26.2161   23.1634 C   0  0  0  0  0  0  0  0  0  0  0  0
  -23.3196  -30.6219   25.3309 C   0  0  0  0  0  0  0  0  0  0  0  0
  -21.7487  -28.7370   25.8287 C   0  0  0  0  0  0  0  0  0  0  0  0
  -20.8684  -30.8822   24.9089 C   0  0  0  0  0  0  0  0  0  0  0  0
  -20.4954  -26.4229   19.7275 C   0  0  0  0  0  0  0  0  0  0  0  0
  -31.3500  -18.5215   17.2123 C   0  0  0  0  0  0  0  0  0  0  0  0
  -28.8613  -25.9636   18.9098 C   0  0  0  0  0  0  0  0  0  1  0  0
  -22.1832  -29.3347   23.4028 C   0  0  1  0  0  0  0  0  0  0  0  0
  -19.6427  -26.8786   22.0305 C   0  0  2  0  0  0  0  0  0  0  0  0
  -22.0508  -29.8908   24.8487 C   0  0  0  0  0  0  0  0  0  0  0  0
  -28.7444  -14.0778   21.9475 N   0  0  0  0  0  0  0  0  0  0  0  0
  -29.7480  -14.8382   21.4777 N   0  0  0  0  0  0  0  0  0  0  0  0
  -23.7040  -30.2678   21.6881 N   0  0  0  0  0  0  0  0  0  0  0  0
  -29.3692  -18.6306   21.7181 N   0  0  0  0  0  0  0  0  0  0  0  0
  -31.5676  -14.8381   19.9611 N   0  0  0  0  0  0  0  0  0  0  0  0
  -29.7909  -10.7167   19.4572 N   0  0  0  0  0  0  0  0  0  0  0  0
  -29.6766  -23.9189   17.9714 N   0  0  0  0  0  0  0  0  0  0  0  0
  -30.3835  -19.4574   19.7560 N   0  0  0  0  0  0  0  0  0  0  0  0
  -24.7178  -33.4751   21.9225 N   0  0  0  0  0  0  0  0  0  0  0  0
  -20.9868  -28.6609   22.9098 N   0  0  0  0  0  0  0  0  0  0  0  0
  -19.7790  -25.8967   20.9178 N   0  3  0  0  0  0  0  0  0  0  0  0
  -31.4654  -12.1203   18.7611 O   0  0  0  0  0  0  0  0  0  0  0  0
  -26.1683  -31.6598   22.0745 O   0  0  0  0  0  0  0  0  0  0  0  0
  -21.7152  -31.3506   22.2435 O   0  0  0  0  0  0  0  0  0  0  0  0
  -29.0293  -23.9678   20.2309 O   0  0  0  0  0  0  0  0  0  0  0  0
  -22.0015  -26.6197   22.4844 O   0  0  0  0  0  0  0  0  0  0  0  0
  -30.0711  -20.8300   21.5999 O   0  0  0  0  0  0  0  0  0  0  0  0
  -25.3650   -8.6850   22.1627 O   0  0  0  0  0  0  0  0  0  0  0  0
  -28.3820  -26.5694   20.1097 O   0  0  0  0  0  0  0  0  0  1  0  0
  -23.3818   -6.0433   17.7477 F   0  0  0  0  0  0  0  0  0  0  0  0
  -22.6464   -8.5884   21.6704 F   0  0  0  0  0  0  0  0  0  0  0  0
  1  2  1  0  0  0  0
  1  5  2  0  0  0  0
  2  6  2  0  0  0  0
  3  8  2  0  0  0  0
  3 17  1  0  0  0  0
  4  9  1  0  0  0  0
  4 17  2  0  0  0  0
  5 19  1  0  0  0  0
  6 21  1  0  0  0  0
  7 10  2  0  0  0  0
  7 20  1  0  0  0  0
  8 27  1  0  0  0  0
  9 27  2  0  0  0  0
 10 28  1  0  0  0  0
 11 12  2  0  0  0  0
 11 29  1  0  0  0  0
 12 30  1  0  0  0  0
 13 22  1  0  0  0  0
 13 28  2  0  0  0  0
 14 23  2  0  0  0  0
 14 25  1  0  0  0  0
 15 25  2  0  0  0  0
 15 26  1  0  0  0  0
 16 30  2  0  0  0  0
 16 31  1  0  0  0  0
 17 32  1  0  0  0  0
 18 32  1  0  0  0  0
 18 33  2  0  0  0  0
 18 34  1  0  0  0  0
 19 21  2  0  0  0  0
 19 40  1  0  0  0  0
 20 22  2  0  0  0  0
 20 41  1  0  0  0  0
 21 49  1  0  0  0  0
 22 42  1  0  0  0  0
 23 24  1  0  0  0  0
 23 52  1  0  0  0  0
 24 26  2  0  0  0  0
 24 59  1  0  0  0  0
 25 70  1  0  0  0  0
 26 71  1  0  0  0  0
 27 81  1  0  0  0  0
 28 82  1  0  0  0  0
 29 31  2  0  0  0  0
 29 81  1  0  0  0  0
 30 83  1  0  0  0  0
 31 84  1  0  0  0  0
 32 64  2  0  0  0  0
 33 65  1  0  0  0  0
 33 68  1  0  0  0  0
 34 69  1  0  0  0  0
 34 75  2  0  0  0  0
 35 50  1  0  0  0  0
 35 72  1  0  0  0  0
 35 76  2  0  0  0  0
 36 61  1  0  0  0  0
 36 66  1  0  0  0  0
 36 77  2  0  0  0  0
 37 60  1  0  0  0  0
 37 70  1  0  0  0  0
 37 78  2  0  0  0  0
 38 62  1  0  0  0  0
 38 73  1  0  0  0  0
 38 79  2  0  0  0  0
 39 67  1  0  0  0  0
 39 71  1  0  0  0  0
 39 80  2  0  0  0  0
 40 43  1  0  0  0  0
 41 50  1  0  0  0  0
 42 66  1  0  0  0  0
 43 45  1  0  0  0  0
 44 46  1  0  0  0  0
 44 47  1  0  0  0  0
 45 49  1  0  0  0  0
 46 51  1  0  0  0  0
 47 67  1  0  0  0  0
 48 51  1  0  0  0  0
 48 67  1  0  0  0  0
 49 72  1  0  0  0  0
 50 66  1  0  0  0  0
 51 65  1  0  0  0  0
 53 59  1  0  0  0  0
 54 62  1  0  0  0  0
 55 63  1  0  0  0  0
 56 63  1  0  0  0  0
 57 63  1  0  0  0  0
 58 74  1  0  0  0  0
 60 82  1  0  0  0  0
 61 63  1  0  0  0  0
 61 73  1  0  0  0  0
 62 74  1  0  0  0  0
 64 65  1  0  0  0  0
M  CHG  1  74   1
M  ISO  4  39 100  60 101  71 100  82 101
M  END
> <Batch ID>
0060

> <Smiles>
CCc1c(C)cc(NC(=O)[101CH2:1][101O:1]c2ccc3c(c2)CN(C(=O)C(NC(=O)C(C)NC)C(C)(C)C)C(C(=O)NC2CCCc4ccccc42)C3)cc1[100NH:0][100C:0](=O)N1CCCC(n2nc(-c3ccc(Oc4ccc(F)cc4F)cc3)c(C(N)=O)c2N)C1

> <Shape>
0.306

> <Color>
0.073

> <Negative vol penalty>
0.000

$$$$

  -OEChem-04042323043D

 87 95  0     1  0  0  0  0  0999 V2000
  -27.6903  -31.9959   27.6941 C   0  0  0  0  0  0  0  0  0  0  0  0
  -27.9218  -31.0287   26.7213 C   0  0  0  0  0  0  0  0  0  0  0  0
  -24.8731   -9.2599   20.6110 C   0  0  0  0  0  0  0  0  0  0  0  0
  -24.4882  -10.2676   22.7729 C   0  0  0  0  0  0  0  0  0  0  0  0
  -26.3834  -32.3521   28.0242 C   0  0  0  0  0  0  0  0  0  0  0  0
  -26.8464  -30.4163   26.0788 C   0  0  0  0  0  0  0  0  0  0  0  0
  -27.5131  -30.0761   21.0703 C   0  0  0  0  0  0  0  0  0  0  0  0
  -24.6715   -7.9955   21.1644 C   0  0  0  0  0  0  0  0  0  0  0  0
  -24.2865   -9.0032   23.3263 C   0  0  0  0  0  0  0  0  0  0  0  0
  -28.3555  -29.0663   20.6073 C   0  0  0  0  0  0  0  0  0  0  0  0
  -23.3146   -6.0649   25.2342 C   0  0  0  0  0  0  0  0  0  0  0  0
  -22.2298   -5.8985   26.0951 C   0  0  0  0  0  0  0  0  0  0  0  0
  -26.4306  -27.7151   20.0703 C   0  0  0  0  0  0  0  0  0  0  0  0
  -27.9874  -20.2796   21.9757 C   0  0  0  0  0  0  0  0  0  0  0  0
  -25.3339  -21.1243   22.1428 C   0  0  0  0  0  0  0  0  0  0  0  0
  -20.7223   -6.5411   24.3199 C   0  0  0  0  0  0  0  0  0  0  0  0
  -24.7815  -10.3960   21.4153 C   0  0  0  0  0  0  0  0  0  0  0  0
  -24.0177  -12.5476   20.2774 C   0  0  0  0  0  0  0  0  0  0  0  0
  -25.2916  -31.7506   27.3787 C   0  0  0  0  0  0  0  0  0  0  0  0
  -26.1210  -29.9083   21.0469 C   0  0  0  0  0  0  0  0  0  0  0  0
  -25.5236  -30.7637   26.4016 C   0  0  0  0  0  0  0  0  0  0  0  0
  -25.5726  -28.7253   20.5313 C   0  0  0  0  0  0  0  0  0  0  0  0
  -27.6869  -21.5337   22.5072 C   0  0  0  0  0  0  0  0  0  0  0  0
  -26.3602  -21.9560   22.5908 C   0  0  0  0  0  0  0  0  0  0  0  0
  -26.9612  -19.4478   21.5277 C   0  0  0  0  0  0  0  0  0  0  0  0
  -24.3782   -7.8671   22.5220 C   0  0  0  0  0  0  0  0  0  0  0  0
  -27.8144  -27.8844   20.1098 C   0  0  0  0  0  0  0  0  0  0  0  0
  -23.1032   -6.4695   23.9161 C   0  0  0  0  0  0  0  0  0  0  0  0
  -20.9337   -6.1365   25.6380 C   0  0  0  0  0  0  0  0  0  0  0  0
  -25.6344  -19.8702   21.6113 C   0  0  0  0  0  0  0  0  0  0  0  0
  -21.8071   -6.7076   23.4589 C   0  0  0  0  0  0  0  0  0  0  0  0
  -24.9903  -11.7023   20.8443 C   0  0  0  0  0  0  0  0  0  0  0  0
  -24.7182  -13.6615   19.8838 C   0  0  0  0  0  0  0  0  0  0  0  0
  -22.6071  -12.3440   20.1206 C   0  0  0  0  0  0  0  0  0  0  0  0
  -23.8349  -29.8196   23.2536 C   0  0  0  0  0  0  0  0  0  0  0  0
  -29.1389  -23.5449   22.0202 C   0  0  0  0  0  0  0  0  0  0  0  0
  -29.3247  -24.5996   19.9698 C   0  0  0  0  0  0  0  0  0  0  0  0
  -21.8812  -29.7170   20.6662 C   0  0  0  0  0  0  0  0  0  0  0  0
  -21.4839  -28.9510   17.3644 C   0  0  0  0  0  0  0  0  0  0  0  0
  -28.5326  -17.6046   20.8352 C   0  0  0  0  0  0  0  0  0  0  0  0
  -23.8960  -32.1343   27.8029 C   0  0  0  0  0  0  0  0  0  0  0  0
  -25.2253  -31.0179   21.5254 C   0  0  0  0  0  0  0  0  0  0  0  0
  -24.0843  -28.5040   20.4655 C   0  0  0  0  0  0  0  0  0  0  0  0
  -22.8184  -31.7073   26.8096 C   0  0  0  0  0  0  0  0  0  0  0  0
  -29.7041  -14.4826   19.5871 C   0  0  0  0  0  0  0  0  0  0  0  0
  -23.0351  -30.2611   26.3757 C   0  0  0  0  0  0  0  0  0  0  0  0
  -28.5022  -13.5505   19.7563 C   0  0  0  0  0  0  0  0  0  0  0  0
  -29.8159  -15.4788   20.7398 C   0  0  0  0  0  0  0  0  0  0  0  0
  -27.3969  -15.3227   21.1792 C   0  0  0  0  0  0  0  0  0  0  0  0
  -24.3836  -30.0945   25.6649 C   0  0  1  0  0  0  0  0  0  0  0  0
  -23.8371  -30.5323   21.9309 C   0  0  1  0  0  0  0  0  0  0  0  0
  -27.2051  -14.3437   20.0094 C   0  0  2  0  0  0  0  0  0  0  0  0
  -26.0138  -23.2944   23.1559 C   0  0  0  0  0  0  0  0  0  0  0  0
  -31.2170  -24.7507   22.6847 C   0  0  0  0  0  0  0  0  0  0  0  0
  -19.7630  -28.9398   15.5380 C   0  0  0  0  0  0  0  0  0  0  0  0
  -20.6165  -27.2179   21.8765 C   0  0  0  0  0  0  0  0  0  0  0  0
  -19.6135  -26.7252   19.6361 C   0  0  0  0  0  0  0  0  0  0  0  0
  -18.9911  -28.8155   20.8469 C   0  0  0  0  0  0  0  0  0  0  0  0
  -23.0468  -30.8528   15.7213 C   0  0  0  0  0  0  0  0  0  0  0  0
  -28.8127  -22.4153   22.9846 C   0  0  0  0  0  0  0  0  0  0  0  0
  -29.7033  -24.8254   22.6111 C   0  0  0  0  0  0  0  0  0  0  0  0
  -28.1646  -25.5551   19.7817 C   0  0  0  0  0  0  0  0  0  1  0  0
  -21.2909  -28.6187   19.8152 C   0  0  1  0  0  0  0  0  0  0  0  0
  -20.8704  -29.7316   16.2160 C   0  0  2  0  0  0  0  0  0  0  0  0
  -20.1561  -27.8474   20.5466 C   0  0  0  0  0  0  0  0  0  0  0  0
  -26.2153  -12.2337   20.8153 N   0  0  0  0  0  0  0  0  0  0  0  0
  -28.9905  -23.5050   20.7296 N   0  0  0  0  0  0  0  0  0  0  0  0
  -26.0172  -13.4248   20.2253 N   0  0  0  0  0  0  0  0  0  0  0  0
  -23.2503  -29.6158   20.9511 N   0  0  0  0  0  0  0  0  0  0  0  0
  -28.5516  -16.1962   20.9179 N   0  0  0  0  0  0  0  0  0  0  0  0
  -24.3435  -14.8106   19.2824 N   0  0  0  0  0  0  0  0  0  0  0  0
  -22.0502  -11.1429   20.5804 N   0  0  0  0  0  0  0  0  0  0  0  0
  -27.2690  -18.1742   20.9884 N   0  0  0  0  0  0  0  0  0  0  0  0
  -24.3023  -30.5842   24.3055 N   0  0  0  0  0  0  0  0  0  0  0  0
  -20.8766  -29.2482   18.5660 N   0  0  0  0  0  0  0  0  0  0  0  0
  -21.9083  -30.0554   15.1968 N   0  3  0  0  0  0  0  0  0  0  0  0
  -21.8653  -13.1950   19.5737 O   0  0  0  0  0  0  0  0  0  0  0  0
  -23.4373  -28.6621   23.3156 O   0  0  0  0  0  0  0  0  0  0  0  0
  -30.4440  -24.8339   19.5218 O   0  0  0  0  0  0  0  0  0  0  0  0
  -21.1559  -30.6348   21.0576 O   0  0  0  0  0  0  0  0  0  0  0  0
  -22.4070  -28.1544   17.2102 O   0  0  0  0  0  0  0  0  0  0  0  0
  -29.5572  -18.2557   20.6155 O   0  0  0  0  0  0  0  0  0  0  0  0
  -24.1811   -6.6335   23.0624 O   0  0  0  0  0  0  0  0  0  0  0  0
  -28.6343  -26.8969   19.6578 O   0  0  0  0  0  0  0  0  0  1  0  0
  -19.8920   -5.9752   26.4644 F   0  0  0  0  0  0  0  0  0  0  0  0
  -24.6399  -19.0790   21.1840 F   0  0  0  0  0  0  0  0  0  0  0  0
  -21.5976   -7.0953   22.1934 F   0  0  0  0  0  0  0  0  0  0  0  0
  1  2  1  0  0  0  0
  1  5  2  0  0  0  0
  2  6  2  0  0  0  0
  3  8  2  0  0  0  0
  3 17  1  0  0  0  0
  4  9  1  0  0  0  0
  4 17  2  0  0  0  0
  5 19  1  0  0  0  0
  6 21  1  0  0  0  0
  7 10  2  0  0  0  0
  7 20  1  0  0  0  0
  8 26  1  0  0  0  0
  9 26  2  0  0  0  0
 10 27  1  0  0  0  0
 11 12  2  0  0  0  0
 11 28  1  0  0  0  0
 12 29  1  0  0  0  0
 13 22  1  0  0  0  0
 13 27  2  0  0  0  0
 14 23  1  0  0  0  0
 14 25  2  0  0  0  0
 15 24  1  0  0  0  0
 15 30  2  0  0  0  0
 16 29  2  0  0  0  0
 16 31  1  0  0  0  0
 17 32  1  0  0  0  0
 18 32  1  0  0  0  0
 18 33  2  0  0  0  0
 18 34  1  0  0  0  0
 19 21  2  0  0  0  0
 19 41  1  0  0  0  0
 20 22  2  0  0  0  0
 20 42  1  0  0  0  0
 21 50  1  0  0  0  0
 22 43  1  0  0  0  0
 23 24  2  0  0  0  0
 23 60  1  0  0  0  0
 24 53  1  0  0  0  0
 25 30  1  0  0  0  0
 25 73  1  0  0  0  0
 26 83  1  0  0  0  0
 27 84  1  0  0  0  0
 28 31  2  0  0  0  0
 28 83  1  0  0  0  0
 29 85  1  0  0  0  0
 30 86  1  0  0  0  0
 31 87  1  0  0  0  0
 32 66  2  0  0  0  0
 33 68  1  0  0  0  0
 33 71  1  0  0  0  0
 34 72  1  0  0  0  0
 34 77  2  0  0  0  0
 35 51  1  0  0  0  0
 35 74  1  0  0  0  0
 35 78  2  0  0  0  0
 36 60  1  0  0  0  0
 36 61  1  0  0  0  0
 36 67  2  0  0  0  0
 37 62  1  0  0  0  0
 37 67  1  0  0  0  0
 37 79  2  0  0  0  0
 38 63  1  0  0  0  0
 38 69  1  0  0  0  0
 38 80  2  0  0  0  0
 39 64  1  0  0  0  0
 39 75  1  0  0  0  0
 39 81  2  0  0  0  0
 40 70  1  0  0  0  0
 40 73  1  0  0  0  0
 40 82  2  0  0  0  0
 41 44  1  0  0  0  0
 42 51  1  0  0  0  0
 43 69  1  0  0  0  0
 44 46  1  0  0  0  0
 45 47  1  0  0  0  0
 45 48  1  0  0  0  0
 46 50  1  0  0  0  0
 47 52  1  0  0  0  0
 48 70  1  0  0  0  0
 49 52  1  0  0  0  0
 49 70  1  0  0  0  0
 50 74  1  0  0  0  0
 51 69  1  0  0  0  0
 52 68  1  0  0  0  0
 54 61  1  0  0  0  0
 55 64  1  0  0  0  0
 56 65  1  0  0  0  0
 57 65  1  0  0  0  0
 58 65  1  0  0  0  0
 59 76  1  0  0  0  0
 62 84  1  0  0  0  0
 63 65  1  0  0  0  0
 63 75  1  0  0  0  0
 64 76  1  0  0  0  0
 66 68  1  0  0  0  0
M  CHG  1  76   1
M  ISO  4  40 100  62 101  73 100  84 101
M  END
> <Batch ID>
0060

> <Smiles>
CCC(=Cc1cc([100NH:0][100C:0](=O)N2CCCC(n3nc(-c4ccc(Oc5ccc(F)cc5F)cc4)c(C(N)=O)c3N)C2)c(F)cc1C)NC(=O)[101CH2:1][101O:1]c1ccc2c(c1)CN(C(=O)C(NC(=O)C(C)NC)C(C)(C)C)C(C(=O)NC1CCCc3ccccc31)C2

> <Shape>
0.291

> <Color>
0.110

> <Negative vol penalty>
0.000

$$$$

  -OEChem-04042323043D

 84 92  0     1  0  0  0  0  0999 V2000
  -21.8258  -11.2991   20.7710 C   0  0  0  0  0  0  0  0  0  0  0  0
  -21.6322  -12.5936   21.2426 C   0  0  0  0  0  0  0  0  0  0  0  0
  -18.0164  -26.7247   22.7996 C   0  0  0  0  0  0  0  0  0  0  0  0
  -29.6044  -28.2647   20.5653 C   0  0  0  0  0  0  0  0  0  0  0  0
  -28.4517  -26.1524   20.3493 C   0  0  0  0  0  0  0  0  0  0  0  0
  -18.0610  -25.4311   22.2800 C   0  0  0  0  0  0  0  0  0  0  0  0
  -23.1115  -10.8547   20.4657 C   0  0  0  0  0  0  0  0  0  0  0  0
  -22.7245  -13.4440   21.4102 C   0  0  0  0  0  0  0  0  0  0  0  0
  -21.8525  -18.1017   19.6242 C   0  0  0  0  0  0  0  0  0  0  0  0
  -19.1992  -27.3796   23.1430 C   0  0  0  0  0  0  0  0  0  0  0  0
  -30.8051  -27.5877   20.7783 C   0  0  0  0  0  0  0  0  0  0  0  0
  -29.6524  -25.4754   20.5624 C   0  0  0  0  0  0  0  0  0  0  0  0
  -21.0788  -18.9517   20.4133 C   0  0  0  0  0  0  0  0  0  0  0  0
  -32.4045  -24.6659   18.7759 C   0  0  0  0  0  0  0  0  0  0  0  0
  -32.6992  -23.5921   17.9359 C   0  0  0  0  0  0  0  0  0  0  0  0
  -23.0849  -20.0318   21.2059 C   0  0  0  0  0  0  0  0  0  0  0  0
  -32.7729  -22.1167   19.8476 C   0  0  0  0  0  0  0  0  0  0  0  0
  -28.4276  -27.5471   20.3508 C   0  0  0  0  0  0  0  0  0  0  0  0
  -19.2884  -24.7922   22.1038 C   0  0  0  0  0  0  0  0  0  0  0  0
  -26.6530  -28.6631   18.8972 C   0  0  0  0  0  0  0  0  0  0  0  0
  -24.2191  -11.7032   20.6205 C   0  0  0  0  0  0  0  0  0  0  0  0
  -23.2511  -18.2033   19.6283 C   0  0  0  0  0  0  0  0  0  0  0  0
  -24.0265  -13.0100   21.1080 C   0  0  0  0  0  0  0  0  0  0  0  0
  -23.8739  -19.1836   20.4140 C   0  0  0  0  0  0  0  0  0  0  0  0
  -20.4712  -25.4470   22.4472 C   0  0  0  0  0  0  0  0  0  0  0  0
  -20.4266  -26.7407   22.9669 C   0  0  0  0  0  0  0  0  0  0  0  0
  -30.8292  -26.1930   20.7769 C   0  0  0  0  0  0  0  0  0  0  0  0
  -21.6952  -19.9151   21.2065 C   0  0  0  0  0  0  0  0  0  0  0  0
  -32.2941  -24.4651   20.1519 C   0  0  0  0  0  0  0  0  0  0  0  0
  -32.8833  -22.3175   18.4717 C   0  0  0  0  0  0  0  0  0  0  0  0
  -32.4783  -23.1905   20.6877 C   0  0  0  0  0  0  0  0  0  0  0  0
  -27.1868  -28.2459   20.1312 C   0  0  0  0  0  0  0  0  0  0  0  0
  -25.4680  -29.2753   19.2251 C   0  0  0  0  0  0  0  0  0  0  0  0
  -19.3026  -23.4148   21.5472 C   0  0  0  0  0  0  0  0  0  0  0  0
  -27.1811  -28.5108   17.5729 C   0  0  0  0  0  0  0  0  0  0  0  0
  -25.6385  -16.2658   20.4342 C   0  0  0  0  0  0  0  0  0  0  0  0
  -27.4688  -18.6533   19.2209 C   0  0  0  0  0  0  0  0  0  0  0  0
  -27.7732  -21.9633   18.4475 C   0  0  0  0  0  0  0  0  0  0  0  0
  -21.7245  -28.7117   23.8482 C   0  0  0  0  0  0  0  0  0  0  0  0
  -25.5951  -11.1625   20.3223 C   0  0  0  0  0  0  0  0  0  0  0  0
  -24.0700  -17.2966   18.7511 C   0  0  0  0  0  0  0  0  0  0  0  0
  -25.3709  -19.3471   20.4386 C   0  0  0  0  0  0  0  0  0  0  0  0
  -26.6570  -12.2488   20.1721 C   0  0  0  0  0  0  0  0  0  0  0  0
  -23.3594  -31.6898   22.7829 C   0  0  0  0  0  0  0  0  0  0  0  0
  -26.5448  -13.2651   21.3041 C   0  0  0  0  0  0  0  0  0  0  0  0
  -24.4741  -31.1830   21.8649 C   0  0  0  0  0  0  0  0  0  0  0  0
  -23.1333  -30.7551   23.9699 C   0  0  0  0  0  0  0  0  0  0  0  0
  -24.0222  -28.8407   22.6994 C   0  0  0  0  0  0  0  0  0  0  0  0
  -25.1834  -13.9703   21.2795 C   0  0  1  0  0  0  0  0  0  0  0  0
  -25.5125  -17.1492   19.2254 C   0  0  1  0  0  0  0  0  0  0  0  0
  -24.2425  -29.7155   21.4545 C   0  0  2  0  0  0  0  0  0  0  0  0
  -21.7879  -24.7599   22.2579 C   0  0  0  0  0  0  0  0  0  0  0  0
  -28.8031  -24.0497   17.5076 C   0  0  0  0  0  0  0  0  0  0  0  0
  -19.7169  -20.2110   23.9850 C   0  0  0  0  0  0  0  0  0  0  0  0
  -28.9994  -18.6521   21.8604 C   0  0  0  0  0  0  0  0  0  0  0  0
  -29.9335  -20.8904   21.2396 C   0  0  0  0  0  0  0  0  0  0  0  0
  -30.4310  -18.8972   19.8245 C   0  0  0  0  0  0  0  0  0  0  0  0
  -26.5394  -21.5163   15.7948 C   0  0  0  0  0  0  0  0  0  0  0  0
  -18.5616  -21.0710   21.8840 C   0  0  0  0  0  0  0  0  0  0  0  0
  -28.1102  -19.8993   19.7821 C   0  0  1  0  0  0  0  0  0  0  0  0
  -28.2623  -22.6637   17.1926 C   0  0  2  0  0  0  0  0  0  0  0  0
  -19.7010  -20.2348   22.4623 C   0  0  1  0  0  0  0  0  0  1  0  0
  -29.3404  -19.5807   20.6779 C   0  0  0  0  0  0  0  0  0  0  0  0
  -26.4052  -28.5661   21.1658 N   0  0  0  0  0  0  0  0  0  0  0  0
  -25.3682  -29.1911   20.5827 N   0  0  0  0  0  0  0  0  0  0  0  0
  -26.1285  -18.4326   19.5684 N   0  0  0  0  0  0  0  0  0  0  0  0
  -22.9167  -29.3835   23.5045 N   0  0  0  0  0  0  0  0  0  0  0  0
  -24.5122  -29.8721   18.4816 N   0  0  0  0  0  0  0  0  0  0  0  0
  -28.4106  -27.8568   17.4150 N   0  0  0  0  0  0  0  0  0  0  0  0
  -21.6155  -27.4249   23.3219 N   0  0  0  0  0  0  0  0  0  0  0  0
  -18.6186  -22.4531   22.2801 N   0  0  0  0  0  0  0  0  0  0  0  0
  -25.1578  -14.9839   20.2468 N   0  0  0  0  0  0  0  0  0  0  0  0
  -28.4091  -20.7549   18.6388 N   0  0  0  0  0  0  0  0  0  0  0  0
  -27.1496  -22.8051   16.2113 N   0  3  0  0  0  0  0  0  0  0  0  0
  -19.9176  -23.1943   20.5072 O   0  0  0  0  0  0  0  0  0  0  0  0
  -26.5883  -28.9564   16.5612 O   0  0  0  0  0  0  0  0  0  0  0  0
  -26.1366  -16.7135   21.4605 O   0  0  0  0  0  0  0  0  0  0  0  0
  -28.1304  -17.9070   18.4949 O   0  0  0  0  0  0  0  0  0  0  0  0
  -26.9156  -22.4421   19.1863 O   0  0  0  0  0  0  0  0  0  0  0  0
  -20.8516  -29.2491   24.5347 O   0  0  0  0  0  0  0  0  0  0  0  0
  -32.0007  -25.5320   20.9845 O   0  0  0  0  0  0  0  0  0  0  0  0
  -20.9424  -20.7456   21.9782 O   0  0  0  0  0  0  0  0  0  1  0  0
  -33.1648  -21.2862   17.6646 F   0  0  0  0  0  0  0  0  0  0  0  0
  -32.3723  -22.9912   22.0086 F   0  0  0  0  0  0  0  0  0  0  0  0
  1  2  1  0  0  0  0
  1  7  2  0  0  0  0
  2  8  2  0  0  0  0
  3  6  2  0  0  0  0
  3 10  1  0  0  0  0
  4 11  2  0  0  0  0
  4 18  1  0  0  0  0
  5 12  1  0  0  0  0
  5 18  2  0  0  0  0
  6 19  1  0  0  0  0
  7 21  1  0  0  0  0
  8 23  1  0  0  0  0
  9 13  2  0  0  0  0
  9 22  1  0  0  0  0
 10 26  2  0  0  0  0
 11 27  1  0  0  0  0
 12 27  2  0  0  0  0
 13 28  1  0  0  0  0
 14 15  2  0  0  0  0
 14 29  1  0  0  0  0
 15 30  1  0  0  0  0
 16 24  1  0  0  0  0
 16 28  2  0  0  0  0
 17 30  2  0  0  0  0
 17 31  1  0  0  0  0
 18 32  1  0  0  0  0
 19 25  2  0  0  0  0
 19 34  1  0  0  0  0
 20 32  1  0  0  0  0
 20 33  2  0  0  0  0
 20 35  1  0  0  0  0
 21 23  2  0  0  0  0
 21 40  1  0  0  0  0
 22 24  2  0  0  0  0
 22 41  1  0  0  0  0
 23 49  1  0  0  0  0
 24 42  1  0  0  0  0
 25 26  1  0  0  0  0
 25 52  1  0  0  0  0
 26 70  1  0  0  0  0
 27 81  1  0  0  0  0
 28 82  1  0  0  0  0
 29 31  2  0  0  0  0
 29 81  1  0  0  0  0
 30 83  1  0  0  0  0
 31 84  1  0  0  0  0
 32 64  2  0  0  0  0
 33 65  1  0  0  0  0
 33 68  1  0  0  0  0
 34 71  1  0  0  0  0
 34 75  2  0  0  0  0
 35 69  1  0  0  0  0
 35 76  2  0  0  0  0
 36 50  1  0  0  0  0
 36 72  1  0  0  0  0
 36 77  2  0  0  0  0
 37 60  1  0  0  0  0
 37 66  1  0  0  0  0
 37 78  2  0  0  0  0
 38 61  1  0  0  0  0
 38 73  1  0  0  0  0
 38 79  2  0  0  0  0
 39 67  1  0  0  0  0
 39 70  1  0  0  0  0
 39 80  2  0  0  0  0
 40 43  1  0  0  0  0
 41 50  1  0  0  0  0
 42 66  1  0  0  0  0
 43 45  1  0  0  0  0
 44 46  1  0  0  0  0
 44 47  1  0  0  0  0
 45 49  1  0  0  0  0
 46 51  1  0  0  0  0
 47 67  1  0  0  0  0
 48 51  1  0  0  0  0
 48 67  1  0  0  0  0
 49 72  1  0  0  0  0
 50 66  1  0  0  0  0
 51 65  1  0  0  0  0
 53 61  1  0  0  0  0
 54 62  1  0  0  0  0
 55 63  1  0  0  0  0
 56 63  1  0  0  0  0
 57 63  1  0  0  0  0
 58 74  1  0  0  0  0
 59 62  1  0  0  0  0
 59 71  1  0  0  0  0
 60 63  1  0  0  0  0
 60 73  1  0  0  0  0
 61 74  1  0  0  0  0
 62 82  1  0  0  0  0
 64 65  1  0  0  0  0
M  CHG  1  74   1
M  ISO  4  39 100  62 101  70 100  82 101
M  END
> <Batch ID>
0060

> <Smiles>
CNC(C)C(=O)NC(C(=O)N1Cc2cc([101O:1][101CH:1](C)CNC(=O)c3cccc([100NH:0][100C:0](=O)N4CCCC(n5nc(-c6ccc(Oc7ccc(F)cc7F)cc6)c(C(N)=O)c5N)C4)c3C)ccc2CC1C(=O)NC1CCCc2ccccc21)C(C)(C)C

> <Shape>
0.239

> <Color>
0.051

> <Negative vol penalty>
0.000

$$$$

  -OEChem-04042323043D

 85 93  0     1  0  0  0  0  0999 V2000
  -26.7230  -35.5043   25.8834 C   0  0  0  0  0  0  0  0  0  0  0  0
  -26.9644  -34.1379   25.7820 C   0  0  0  0  0  0  0  0  0  0  0  0
  -23.1076   -9.9139   21.5742 C   0  0  0  0  0  0  0  0  0  0  0  0
  -23.7654  -11.0368   23.6096 C   0  0  0  0  0  0  0  0  0  0  0  0
  -25.4584  -36.0114   25.5872 C   0  0  0  0  0  0  0  0  0  0  0  0
  -25.9411  -33.2777   25.3855 C   0  0  0  0  0  0  0  0  0  0  0  0
  -27.4761  -29.8838   21.9548 C   0  0  0  0  0  0  0  0  0  0  0  0
  -22.3649   -8.9981   22.3194 C   0  0  0  0  0  0  0  0  0  0  0  0
  -23.0227  -10.1210   24.3549 C   0  0  0  0  0  0  0  0  0  0  0  0
  -28.2041  -28.7905   22.4222 C   0  0  0  0  0  0  0  0  0  0  0  0
  -22.9569   -6.2392   24.1802 C   0  0  0  0  0  0  0  0  0  0  0  0
  -23.0754   -4.8890   23.8507 C   0  0  0  0  0  0  0  0  0  0  0  0
  -26.2124  -27.4327   22.3305 C   0  0  0  0  0  0  0  0  0  0  0  0
  -31.6447  -19.6478   21.5548 C   0  0  0  0  0  0  0  0  0  0  0  0
  -31.9059  -17.3256   20.9416 C   0  0  0  0  0  0  0  0  0  0  0  0
  -20.7072   -4.7957   23.3816 C   0  0  0  0  0  0  0  0  0  0  0  0
  -23.8079  -10.9332   22.2193 C   0  0  0  0  0  0  0  0  0  0  0  0
  -24.1294  -13.1041   20.9187 C   0  0  0  0  0  0  0  0  0  0  0  0
  -24.4217  -35.1581   25.1775 C   0  0  0  0  0  0  0  0  0  0  0  0
  -26.1060  -29.7623   21.6816 C   0  0  0  0  0  0  0  0  0  0  0  0
  -24.6611  -33.7738   25.0849 C   0  0  0  0  0  0  0  0  0  0  0  0
  -25.4698  -28.5252   21.8573 C   0  0  0  0  0  0  0  0  0  0  0  0
  -29.7054  -18.3218   20.9913 C   0  0  0  0  0  0  0  0  0  0  0  0
  -30.2648  -19.5378   21.3835 C   0  0  0  0  0  0  0  0  0  0  0  0
  -30.5259  -17.2156   20.7703 C   0  0  0  0  0  0  0  0  0  0  0  0
  -22.3225   -9.1016   23.7097 C   0  0  0  0  0  0  0  0  0  0  0  0
  -27.5717  -27.5655   22.6129 C   0  0  0  0  0  0  0  0  0  0  0  0
  -21.7135   -6.8676   24.1105 C   0  0  0  0  0  0  0  0  0  0  0  0
  -21.9505   -4.1673   23.4514 C   0  0  0  0  0  0  0  0  0  0  0  0
  -32.4652  -18.5417   21.3338 C   0  0  0  0  0  0  0  0  0  0  0  0
  -20.5887   -6.1459   23.7112 C   0  0  0  0  0  0  0  0  0  0  0  0
  -24.5757  -11.8792   21.4501 C   0  0  0  0  0  0  0  0  0  0  0  0
  -25.2290  -13.6217   20.2788 C   0  0  0  0  0  0  0  0  0  0  0  0
  -22.8366  -13.7191   20.9967 C   0  0  0  0  0  0  0  0  0  0  0  0
  -23.4627  -31.1059   22.8267 C   0  0  0  0  0  0  0  0  0  0  0  0
  -22.0468  -29.4502   20.4233 C   0  0  0  0  0  0  0  0  0  0  0  0
  -29.8605  -21.9443   22.0064 C   0  0  0  0  0  0  0  0  0  0  0  0
  -22.1566  -26.8034   18.2718 C   0  0  0  0  0  0  0  0  0  0  0  0
  -30.6715  -14.7866   20.1183 C   0  0  0  0  0  0  0  0  0  0  0  0
  -23.0585  -35.7469   24.9137 C   0  0  0  0  0  0  0  0  0  0  0  0
  -25.3407  -30.9442   21.1525 C   0  0  0  0  0  0  0  0  0  0  0  0
  -24.0054  -28.3372   21.5594 C   0  0  0  0  0  0  0  0  0  0  0  0
  -22.1315  -34.8136   24.1391 C   0  0  0  0  0  0  0  0  0  0  0  0
  -29.6868  -11.5033   19.1553 C   0  0  0  0  0  0  0  0  0  0  0  0
  -22.1740  -33.4079   24.7299 C   0  0  0  0  0  0  0  0  0  0  0  0
  -28.2326  -11.4091   19.6227 C   0  0  0  0  0  0  0  0  0  0  0  0
  -30.5457  -12.3049   20.1318 C   0  0  0  0  0  0  0  0  0  0  0  0
  -28.5725  -13.5433   20.9331 C   0  0  0  0  0  0  0  0  0  0  0  0
  -23.5835  -32.8116   24.6341 C   0  0  1  0  0  0  0  0  0  0  0  0
  -23.8383  -30.8408   21.3962 C   0  0  1  0  0  0  0  0  0  0  0  0
  -27.6544  -12.8001   19.9490 C   0  0  2  0  0  0  0  0  0  0  0  0
  -28.2240  -18.2037   20.8082 C   0  0  0  0  0  0  0  0  0  0  0  0
  -20.8373  -25.6885   16.4513 C   0  0  0  0  0  0  0  0  0  0  0  0
  -20.1643  -28.2693   22.5142 C   0  0  0  0  0  0  0  0  0  0  0  0
  -19.5344  -26.5074   20.8506 C   0  0  0  0  0  0  0  0  0  0  0  0
  -19.0635  -28.9077   20.3612 C   0  0  0  0  0  0  0  0  0  0  0  0
  -24.3064  -27.2422   16.2857 C   0  0  0  0  0  0  0  0  0  0  0  0
  -28.6617  -22.8730   22.1403 C   0  0  0  0  0  0  0  0  0  0  0  0
  -29.0553  -24.2822   22.5695 C   0  0  0  0  0  0  0  0  0  0  0  0
  -27.8468  -25.2035   22.6502 C   0  0  0  0  0  0  0  0  0  1  0  0
  -21.4482  -28.0714   20.2829 C   0  0  1  0  0  0  0  0  0  0  0  0
  -21.9156  -26.7106   16.7759 C   0  0  2  0  0  0  0  0  0  0  0  0
  -20.0798  -27.9427   21.0098 C   0  0  0  0  0  0  0  0  0  0  0  0
  -25.8586  -11.6332   21.1717 N   0  0  0  0  0  0  0  0  0  0  0  0
  -26.2280  -12.7107   20.4584 N   0  0  0  0  0  0  0  0  0  0  0  0
  -23.2988  -29.5242   21.0501 N   0  0  0  0  0  0  0  0  0  0  0  0
  -29.9383  -13.6122   20.3902 N   0  0  0  0  0  0  0  0  0  0  0  0
  -25.4292  -14.7626   19.5855 N   0  0  0  0  0  0  0  0  0  0  0  0
  -21.8199  -13.0513   21.6929 N   0  0  0  0  0  0  0  0  0  0  0  0
  -29.4516  -20.6729   21.6138 N   0  0  0  0  0  0  0  0  0  0  0  0
  -29.9794  -15.9702   20.3725 N   0  0  0  0  0  0  0  0  0  0  0  0
  -23.8468  -32.3506   23.2878 N   0  0  0  0  0  0  0  0  0  0  0  0
  -21.3929  -27.7943   18.8516 N   0  0  0  0  0  0  0  0  0  0  0  0
  -23.1679  -26.3118   16.0732 N   0  3  0  0  0  0  0  0  0  0  0  0
  -22.5858  -14.8203   20.4509 O   0  0  0  0  0  0  0  0  0  0  0  0
  -22.8671  -30.2455   23.4644 O   0  0  0  0  0  0  0  0  0  0  0  0
  -21.4297  -30.4248   19.9864 O   0  0  0  0  0  0  0  0  0  0  0  0
  -31.0057  -22.3232   22.2284 O   0  0  0  0  0  0  0  0  0  0  0  0
  -22.9408  -26.0677   18.8670 O   0  0  0  0  0  0  0  0  0  0  0  0
  -31.8184  -14.7454   19.6656 O   0  0  0  0  0  0  0  0  0  0  0  0
  -21.5977   -8.2083   24.4372 O   0  0  0  0  0  0  0  0  0  0  0  0
  -28.2798  -26.4969   23.0697 O   0  0  0  0  0  0  0  0  0  1  0  0
  -22.0647   -2.8711   23.1335 F   0  0  0  0  0  0  0  0  0  0  0  0
  -33.7904  -18.6478   21.4982 F   0  0  0  0  0  0  0  0  0  0  0  0
  -19.3918   -6.7445   23.6412 F   0  0  0  0  0  0  0  0  0  0  0  0
  1  2  1  0  0  0  0
  1  5  2  0  0  0  0
  2  6  2  0  0  0  0
  3  8  2  0  0  0  0
  3 17  1  0  0  0  0
  4  9  1  0  0  0  0
  4 17  2  0  0  0  0
  5 19  1  0  0  0  0
  6 21  1  0  0  0  0
  7 10  2  0  0  0  0
  7 20  1  0  0  0  0
  8 26  1  0  0  0  0
  9 26  2  0  0  0  0
 10 27  1  0  0  0  0
 11 12  2  0  0  0  0
 11 28  1  0  0  0  0
 12 29  1  0  0  0  0
 13 22  1  0  0  0  0
 13 27  2  0  0  0  0
 14 24  1  0  0  0  0
 14 30  2  0  0  0  0
 15 25  2  0  0  0  0
 15 30  1  0  0  0  0
 16 29  2  0  0  0  0
 16 31  1  0  0  0  0
 17 32  1  0  0  0  0
 18 32  1  0  0  0  0
 18 33  2  0  0  0  0
 18 34  1  0  0  0  0
 19 21  2  0  0  0  0
 19 40  1  0  0  0  0
 20 22  2  0  0  0  0
 20 41  1  0  0  0  0
 21 49  1  0  0  0  0
 22 42  1  0  0  0  0
 23 24  2  0  0  0  0
 23 25  1  0  0  0  0
 23 52  1  0  0  0  0
 24 70  1  0  0  0  0
 25 71  1  0  0  0  0
 26 81  1  0  0  0  0
 27 82  1  0  0  0  0
 28 31  2  0  0  0  0
 28 81  1  0  0  0  0
 29 83  1  0  0  0  0
 30 84  1  0  0  0  0
 31 85  1  0  0  0  0
 32 64  2  0  0  0  0
 33 65  1  0  0  0  0
 33 68  1  0  0  0  0
 34 69  1  0  0  0  0
 34 75  2  0  0  0  0
 35 50  1  0  0  0  0
 35 72  1  0  0  0  0
 35 76  2  0  0  0  0
 36 61  1  0  0  0  0
 36 66  1  0  0  0  0
 36 77  2  0  0  0  0
 37 58  1  0  0  0  0
 37 70  1  0  0  0  0
 37 78  2  0  0  0  0
 38 62  1  0  0  0  0
 38 73  1  0  0  0  0
 38 79  2  0  0  0  0
 39 67  1  0  0  0  0
 39 71  1  0  0  0  0
 39 80  2  0  0  0  0
 40 43  1  0  0  0  0
 41 50  1  0  0  0  0
 42 66  1  0  0  0  0
 43 45  1  0  0  0  0
 44 46  1  0  0  0  0
 44 47  1  0  0  0  0
 45 49  1  0  0  0  0
 46 51  1  0  0  0  0
 47 67  1  0  0  0  0
 48 51  1  0  0  0  0
 48 67  1  0  0  0  0
 49 72  1  0  0  0  0
 50 66  1  0  0  0  0
 51 65  1  0  0  0  0
 53 62  1  0  0  0  0
 54 63  1  0  0  0  0
 55 63  1  0  0  0  0
 56 63  1  0  0  0  0
 57 74  1  0  0  0  0
 58 59  1  0  0  0  0
 59 60  1  0  0  0  0
 60 82  1  0  0  0  0
 61 63  1  0  0  0  0
 61 73  1  0  0  0  0
 62 74  1  0  0  0  0
 64 65  1  0  0  0  0
M  CHG  1  74   1
M  ISO  4  39 100  60 101  71 100  82 101
M  END
> <Batch ID>
0060

> <Smiles>
CNC(C)C(=O)NC(C(=O)N1Cc2cc([101O:1][101CH2:1]CCC(=O)Nc3cc(F)cc([100NH:0][100C:0](=O)N4CCCC(n5nc(-c6ccc(Oc7ccc(F)cc7F)cc6)c(C(N)=O)c5N)C4)c3C)ccc2CC1C(=O)NC1CCCc2ccccc21)C(C)(C)C

> <Shape>
0.301

> <Color>
0.154

> <Negative vol penalty>
0.000

$$$$

  -OEChem-04042323043D

 85 94  0     1  0  0  0  0  0999 V2000
  -28.6438  -33.7583   25.8457 C   0  0  0  0  0  0  0  0  0  0  0  0
  -28.6631  -32.5079   25.2360 C   0  0  0  0  0  0  0  0  0  0  0  0
  -28.6206  -20.8166   23.3664 C   0  0  0  0  0  0  0  0  0  0  0  0
  -24.7014   -9.7652   22.8784 C   0  0  0  0  0  0  0  0  0  0  0  0
  -26.6255   -9.2126   21.5258 C   0  0  0  0  0  0  0  0  0  0  0  0
  -27.4284  -34.3366   26.2093 C   0  0  0  0  0  0  0  0  0  0  0  0
  -27.4669  -31.8347   24.9906 C   0  0  0  0  0  0  0  0  0  0  0  0
  -27.2932  -29.8105   20.3519 C   0  0  0  0  0  0  0  0  0  0  0  0
  -29.2818  -21.8588   22.7166 C   0  0  0  0  0  0  0  0  0  0  0  0
  -28.3760  -19.6191   22.6940 C   0  0  0  0  0  0  0  0  0  0  0  0
  -24.9726   -8.6777   23.7086 C   0  0  0  0  0  0  0  0  0  0  0  0
  -26.8968   -8.1250   22.3561 C   0  0  0  0  0  0  0  0  0  0  0  0
  -27.9949  -28.6230   20.1487 C   0  0  0  0  0  0  0  0  0  0  0  0
  -24.5290   -5.3274   23.6488 C   0  0  0  0  0  0  0  0  0  0  0  0
  -23.4590   -4.5128   24.0188 C   0  0  0  0  0  0  0  0  0  0  0  0
  -25.9399  -27.3785   20.3665 C   0  0  0  0  0  0  0  0  0  0  0  0
  -29.4537  -20.5063   20.7221 C   0  0  0  0  0  0  0  0  0  0  0  0
  -23.8783   -5.0179   26.3439 C   0  0  0  0  0  0  0  0  0  0  0  0
  -25.5278  -10.0327   21.7870 C   0  0  0  0  0  0  0  0  0  0  0  0
  -24.0795  -11.3799   20.1761 C   0  0  0  0  0  0  0  0  0  0  0  0
  -26.2161  -33.6743   25.9595 C   0  0  0  0  0  0  0  0  0  0  0  0
  -25.9089  -29.7900   20.5752 C   0  0  0  0  0  0  0  0  0  0  0  0
  -26.2342  -32.4041   25.3525 C   0  0  0  0  0  0  0  0  0  0  0  0
  -25.2226  -28.5673   20.5697 C   0  0  0  0  0  0  0  0  0  0  0  0
  -29.6983  -21.7037   21.3945 C   0  0  0  0  0  0  0  0  0  0  0  0
  -28.7926  -19.4640   21.3718 C   0  0  0  0  0  0  0  0  0  0  0  0
  -26.0703   -7.8576   23.4475 C   0  0  0  0  0  0  0  0  0  0  0  0
  -27.3187  -27.4066   20.1588 C   0  0  0  0  0  0  0  0  0  0  0  0
  -25.2738   -5.9873   24.6264 C   0  0  0  0  0  0  0  0  0  0  0  0
  -23.1336   -4.3580   25.3663 C   0  0  0  0  0  0  0  0  0  0  0  0
  -24.9484   -5.8325   25.9739 C   0  0  0  0  0  0  0  0  0  0  0  0
  -25.2479  -11.1557   20.9287 C   0  0  0  0  0  0  0  0  0  0  0  0
  -24.3065  -12.5745   19.5375 C   0  0  0  0  0  0  0  0  0  0  0  0
  -31.6738  -22.6502   20.2118 C   0  0  0  0  0  0  0  0  0  0  0  0
  -32.6193  -21.7874   20.6327 C   0  0  0  0  0  0  0  0  0  0  0  0
  -22.8949  -10.5800   20.0645 C   0  0  0  0  0  0  0  0  0  0  0  0
  -24.0097  -30.6649   22.9692 C   0  0  0  0  0  0  0  0  0  0  0  0
  -21.6594  -29.9270   20.8588 C   0  0  0  0  0  0  0  0  0  0  0  0
  -20.6918  -28.1707   18.0973 C   0  0  0  0  0  0  0  0  0  0  0  0
  -27.8985  -17.1086   21.1791 C   0  0  0  0  0  0  0  0  0  0  0  0
  -24.9301  -34.3184   26.4134 C   0  0  0  0  0  0  0  0  0  0  0  0
  -25.1624  -31.0818   20.7661 C   0  0  0  0  0  0  0  0  0  0  0  0
  -23.7337  -28.4927   20.7847 C   0  0  0  0  0  0  0  0  0  0  0  0
  -32.0435  -23.6073   19.0967 C   0  0  0  0  0  0  0  0  0  0  0  0
  -23.6846  -33.7051   25.7787 C   0  0  0  0  0  0  0  0  0  0  0  0
  -31.4953  -25.0106   19.3248 C   0  0  0  0  0  0  0  0  0  0  0  0
  -28.4113  -14.7551   18.1921 C   0  0  0  0  0  0  0  0  0  0  0  0
  -23.7515  -32.1822   25.8351 C   0  0  0  0  0  0  0  0  0  0  0  0
  -27.0631  -14.0382   18.1998 C   0  0  0  0  0  0  0  0  0  0  0  0
  -28.3456  -16.1161   18.8735 C   0  0  0  0  0  0  0  0  0  0  0  0
  -29.6804  -24.0701   20.7873 C   0  0  0  0  0  0  0  0  0  0  0  0
  -27.1660  -14.7939   20.6388 C   0  0  0  0  0  0  0  0  0  0  0  0
  -24.9562  -31.6534   25.0472 C   0  0  1  0  0  0  0  0  0  0  0  0
  -23.8348  -30.9024   21.4959 C   0  0  1  0  0  0  0  0  0  0  0  0
  -29.9875  -24.9461   19.5657 C   0  0  1  0  0  0  0  0  0  0  0  0
  -26.2800  -14.2398   19.5122 C   0  0  2  0  0  0  0  0  0  0  0  0
  -18.6992  -27.7429   16.6332 C   0  0  0  0  0  0  0  0  0  0  0  0
  -20.4779  -28.1059   23.0030 C   0  0  0  0  0  0  0  0  0  0  0  0
  -19.1001  -27.0159   21.2193 C   0  0  0  0  0  0  0  0  0  0  0  0
  -18.7934  -29.4396   21.7231 C   0  0  0  0  0  0  0  0  0  0  0  0
  -22.0654  -29.2583   15.7121 C   0  0  0  0  0  0  0  0  0  0  0  0
  -29.4088  -26.3482   19.7499 C   0  0  0  0  0  0  0  0  0  1  0  0
  -20.8817  -28.6788   20.5181 C   0  0  1  0  0  0  0  0  0  0  0  0
  -19.9420  -28.5929   16.8467 C   0  0  2  0  0  0  0  0  0  0  0  0
  -19.8417  -28.3109   21.6137 C   0  0  0  0  0  0  0  0  0  0  0  0
  -26.1502  -12.1295   20.7826 N   0  0  0  0  0  0  0  0  0  0  0  0
  -25.5488  -12.9773   19.9307 N   0  0  0  0  0  0  0  0  0  0  0  0
  -30.3741  -22.7680   20.7314 N   0  0  0  0  0  0  0  0  0  0  0  0
  -23.0493  -29.7825   20.9732 N   0  0  0  0  0  0  0  0  0  0  0  0
  -27.8071  -16.0522   20.2400 N   0  0  0  0  0  0  0  0  0  0  0  0
  -23.5626  -13.3091   18.6834 N   0  0  0  0  0  0  0  0  0  0  0  0
  -22.8402   -9.6036   19.0604 N   0  0  0  0  0  0  0  0  0  0  0  0
  -28.5427  -18.2476   20.6887 N   0  0  0  0  0  0  0  0  0  0  0  0
  -24.6812  -31.6781   23.6265 N   0  0  0  0  0  0  0  0  0  0  0  0
  -20.3040  -28.9054   19.1978 N   0  0  0  0  0  0  0  0  0  0  0  0
  -20.8164  -28.4564   15.6476 N   0  3  0  0  0  0  0  0  0  0  0  0
  -21.9074  -10.7378   20.8218 O   0  0  0  0  0  0  0  0  0  0  0  0
  -23.5670  -29.6391   23.4726 O   0  0  0  0  0  0  0  0  0  0  0  0
  -21.0566  -30.9925   21.0106 O   0  0  0  0  0  0  0  0  0  0  0  0
  -21.5344  -27.2759   18.0987 O   0  0  0  0  0  0  0  0  0  0  0  0
  -27.4308  -17.0077   22.3152 O   0  0  0  0  0  0  0  0  0  0  0  0
  -26.3354   -6.7964   24.2575 O   0  0  0  0  0  0  0  0  0  0  0  0
  -28.0013  -26.2460   19.9614 O   0  0  0  0  0  0  0  0  0  1  0  0
  -22.1050   -3.5768   25.7213 F   0  0  0  0  0  0  0  0  0  0  0  0
  -25.6594   -6.4648   26.9176 F   0  0  0  0  0  0  0  0  0  0  0  0
  1  2  1  0  0  0  0
  1  6  2  0  0  0  0
  2  7  2  0  0  0  0
  3  9  2  0  0  0  0
  3 10  1  0  0  0  0
  4 11  2  0  0  0  0
  4 19  1  0  0  0  0
  5 12  1  0  0  0  0
  5 19  2  0  0  0  0
  6 21  1  0  0  0  0
  7 23  1  0  0  0  0
  8 13  2  0  0  0  0
  8 22  1  0  0  0  0
  9 25  1  0  0  0  0
 10 26  2  0  0  0  0
 11 27  1  0  0  0  0
 12 27  2  0  0  0  0
 13 28  1  0  0  0  0
 14 15  2  0  0  0  0
 14 29  1  0  0  0  0
 15 30  1  0  0  0  0
 16 24  1  0  0  0  0
 16 28  2  0  0  0  0
 17 25  2  0  0  0  0
 17 26  1  0  0  0  0
 18 30  2  0  0  0  0
 18 31  1  0  0  0  0
 19 32  1  0  0  0  0
 20 32  1  0  0  0  0
 20 33  2  0  0  0  0
 20 36  1  0  0  0  0
 21 23  2  0  0  0  0
 21 41  1  0  0  0  0
 22 24  2  0  0  0  0
 22 42  1  0  0  0  0
 23 53  1  0  0  0  0
 24 43  1  0  0  0  0
 25 68  1  0  0  0  0
 26 73  1  0  0  0  0
 27 82  1  0  0  0  0
 28 83  1  0  0  0  0
 29 31  2  0  0  0  0
 29 82  1  0  0  0  0
 30 84  1  0  0  0  0
 31 85  1  0  0  0  0
 32 66  2  0  0  0  0
 33 67  1  0  0  0  0
 33 71  1  0  0  0  0
 34 35  2  0  0  0  0
 34 44  1  0  0  0  0
 34 68  1  0  0  0  0
 36 72  1  0  0  0  0
 36 77  2  0  0  0  0
 37 54  1  0  0  0  0
 37 74  1  0  0  0  0
 37 78  2  0  0  0  0
 38 63  1  0  0  0  0
 38 69  1  0  0  0  0
 38 79  2  0  0  0  0
 39 64  1  0  0  0  0
 39 75  1  0  0  0  0
 39 80  2  0  0  0  0
 40 70  1  0  0  0  0
 40 73  1  0  0  0  0
 40 81  2  0  0  0  0
 41 45  1  0  0  0  0
 42 54  1  0  0  0  0
 43 69  1  0  0  0  0
 44 46  1  0  0  0  0
 45 48  1  0  0  0  0
 46 55  1  0  0  0  0
 47 49  1  0  0  0  0
 47 50  1  0  0  0  0
 48 53  1  0  0  0  0
 49 56  1  0  0  0  0
 50 70  1  0  0  0  0
 51 55  1  0  0  0  0
 51 68  1  0  0  0  0
 52 56  1  0  0  0  0
 52 70  1  0  0  0  0
 53 74  1  0  0  0  0
 54 69  1  0  0  0  0
 55 62  1  0  0  0  0
 56 67  1  0  0  0  0
 57 64  1  0  0  0  0
 58 65  1  0  0  0  0
 59 65  1  0  0  0  0
 60 65  1  0  0  0  0
 61 76  1  0  0  0  0
 62 83  1  0  0  0  0
 63 65  1  0  0  0  0
 63 75  1  0  0  0  0
 64 76  1  0  0  0  0
 66 67  1  0  0  0  0
M  CHG  1  76   1
M  ISO  4  40 100  62 101  73 100  83 101
M  END
> <Batch ID>
0060

> <Smiles>
C=C1CCC([101CH2:1][101O:1]c2ccc3c(c2)CN(C(=O)C(NC(=O)C(C)NC)C(C)(C)C)C(C(=O)NC2CCCc4ccccc42)C3)CN1c1cccc([100NH:0][100C:0](=O)N2CCCC(n3nc(-c4ccc(Oc5ccc(F)cc5F)cc4)c(C(N)=O)c3N)C2)c1

> <Shape>
0.279

> <Color>
0.077

> <Negative vol penalty>
0.000

$$$$

  -OEChem-04042323043D

 84 92  0     1  0  0  0  0  0999 V2000
  -31.5854  -27.0764   14.7401 C   0  0  0  0  0  0  0  0  0  0  0  0
  -31.1925  -26.4956   15.9416 C   0  0  0  0  0  0  0  0  0  0  0  0
  -32.8273  -17.7477   22.5824 C   0  0  0  0  0  0  0  0  0  0  0  0
  -22.9846   -9.9174   20.6131 C   0  0  0  0  0  0  0  0  0  0  0  0
  -23.7142  -10.3947   22.8663 C   0  0  0  0  0  0  0  0  0  0  0  0
  -32.0731  -18.7929   23.1157 C   0  0  0  0  0  0  0  0  0  0  0  0
  -31.5038  -28.4585   14.5756 C   0  0  0  0  0  0  0  0  0  0  0  0
  -30.7188  -27.2969   16.9799 C   0  0  0  0  0  0  0  0  0  0  0  0
  -26.5615  -25.3961   19.1590 C   0  0  0  0  0  0  0  0  0  0  0  0
  -32.1969  -16.7200   21.8809 C   0  0  0  0  0  0  0  0  0  0  0  0
  -22.1927   -8.8732   21.0906 C   0  0  0  0  0  0  0  0  0  0  0  0
  -22.9222   -9.3504   23.3439 C   0  0  0  0  0  0  0  0  0  0  0  0
  -26.7378  -24.3462   20.0592 C   0  0  0  0  0  0  0  0  0  0  0  0
  -19.6576   -8.8179   24.0359 C   0  0  0  0  0  0  0  0  0  0  0  0
  -18.8844   -9.0599   25.1713 C   0  0  0  0  0  0  0  0  0  0  0  0
  -26.5430  -25.8970   21.8967 C   0  0  0  0  0  0  0  0  0  0  0  0
  -20.0388   -7.2854   26.3356 C   0  0  0  0  0  0  0  0  0  0  0  0
  -23.7454  -10.6781   21.5009 C   0  0  0  0  0  0  0  0  0  0  0  0
  -30.6885  -18.8102   22.9477 C   0  0  0  0  0  0  0  0  0  0  0  0
  -24.1880  -13.1033   20.8449 C   0  0  0  0  0  0  0  0  0  0  0  0
  -31.0198  -29.2761   15.6090 C   0  0  0  0  0  0  0  0  0  0  0  0
  -26.3852  -26.7081   19.6214 C   0  0  0  0  0  0  0  0  0  0  0  0
  -30.6319  -28.6913   16.8296 C   0  0  0  0  0  0  0  0  0  0  0  0
  -26.3621  -26.9614   21.0003 C   0  0  0  0  0  0  0  0  0  0  0  0
  -30.0581  -17.7825   22.2463 C   0  0  0  0  0  0  0  0  0  0  0  0
  -30.8123  -16.7374   21.7129 C   0  0  0  0  0  0  0  0  0  0  0  0
  -22.1615   -8.5897   22.4560 C   0  0  0  0  0  0  0  0  0  0  0  0
  -26.7314  -24.5970   21.4282 C   0  0  0  0  0  0  0  0  0  0  0  0
  -20.6213   -7.8095   24.0502 C   0  0  0  0  0  0  0  0  0  0  0  0
  -19.0751   -8.2937   26.3212 C   0  0  0  0  0  0  0  0  0  0  0  0
  -20.8120   -7.0433   25.2001 C   0  0  0  0  0  0  0  0  0  0  0  0
  -24.5641  -11.7566   21.0082 C   0  0  0  0  0  0  0  0  0  0  0  0
  -25.3135  -13.7167   20.3515 C   0  0  0  0  0  0  0  0  0  0  0  0
  -29.9114  -19.9278   23.5219 C   0  0  0  0  0  0  0  0  0  0  0  0
  -22.9335  -13.7426   21.1153 C   0  0  0  0  0  0  0  0  0  0  0  0
  -27.9935  -29.4319   19.3082 C   0  0  0  0  0  0  0  0  0  0  0  0
  -25.4343  -30.6696   20.8705 C   0  0  0  0  0  0  0  0  0  0  0  0
  -28.3833  -21.8298   23.0551 C   0  0  0  0  0  0  0  0  0  0  0  0
  -22.7946  -30.1531   22.9710 C   0  0  0  0  0  0  0  0  0  0  0  0
  -30.8139  -14.5799   20.4122 C   0  0  0  0  0  0  0  0  0  0  0  0
  -30.9944  -30.7698   15.4014 C   0  0  0  0  0  0  0  0  0  0  0  0
  -26.1696  -27.8256   18.6379 C   0  0  0  0  0  0  0  0  0  0  0  0
  -26.1563  -28.3491   21.5483 C   0  0  0  0  0  0  0  0  0  0  0  0
  -30.1289  -31.5112   16.4171 C   0  0  0  0  0  0  0  0  0  0  0  0
  -29.6363  -11.7511   18.5989 C   0  0  0  0  0  0  0  0  0  0  0  0
  -30.4204  -31.0153   17.8298 C   0  0  0  0  0  0  0  0  0  0  0  0
  -28.1808  -11.6111   19.0506 C   0  0  0  0  0  0  0  0  0  0  0  0
  -30.5439  -12.2024   19.7418 C   0  0  0  0  0  0  0  0  0  0  0  0
  -28.6491  -13.2767   20.8928 C   0  0  0  0  0  0  0  0  0  0  0  0
  -30.0894  -29.5246   17.9705 C   0  0  1  0  0  0  0  0  0  0  0  0
  -26.5126  -29.1983   19.2086 C   0  0  1  0  0  0  0  0  0  0  0  0
  -27.6857  -12.8868   19.7599 C   0  0  2  0  0  0  0  0  0  0  0  0
  -28.5717  -17.8030   22.0705 C   0  0  0  0  0  0  0  0  0  0  0  0
  -20.9047  -31.3633   24.0941 C   0  0  0  0  0  0  0  0  0  0  0  0
  -27.3962  -31.8654   22.8782 C   0  0  0  0  0  0  0  0  0  0  0  0
  -25.4722  -32.2238   24.4395 C   0  0  0  0  0  0  0  0  0  0  0  0
  -25.5147  -33.3798   22.2294 C   0  0  0  0  0  0  0  0  0  0  0  0
  -20.7638  -28.4902   21.6038 C   0  0  0  0  0  0  0  0  0  0  0  0
  -27.7009  -22.4722   21.8768 C   0  0  0  0  0  0  0  0  0  1  0  0
  -25.0711  -30.8924   22.3188 C   0  0  1  0  0  0  0  0  0  0  0  0
  -21.3360  -30.5626   22.8752 C   0  0  2  0  0  0  0  0  0  0  0  0
  -25.8694  -32.0644   22.9564 C   0  0  0  0  0  0  0  0  0  0  0  0
  -25.8296  -11.5273   20.6475 N   0  0  0  0  0  0  0  0  0  0  0  0
  -26.2584  -12.7382   20.2527 N   0  0  0  0  0  0  0  0  0  0  0  0
  -25.9561  -29.4092   20.5465 N   0  0  0  0  0  0  0  0  0  0  0  0
  -30.0146  -13.4182   20.3634 N   0  0  0  0  0  0  0  0  0  0  0  0
  -25.5771  -14.9923   19.9967 N   0  0  0  0  0  0  0  0  0  0  0  0
  -21.8822  -12.9649   21.6196 N   0  0  0  0  0  0  0  0  0  0  0  0
  -30.1928  -15.6829   20.9972 N   0  0  0  0  0  0  0  0  0  0  0  0
  -29.1930  -20.6921   22.6878 N   0  0  0  0  0  0  0  0  0  0  0  0
  -28.6608  -29.3342   18.1021 N   0  0  0  0  0  0  0  0  0  0  0  0
  -23.6231  -31.0667   22.3543 N   0  0  0  0  0  0  0  0  0  0  0  0
  -29.9685  -20.1096   24.8409 N   0  3  0  0  0  0  0  0  0  0  0  0
  -20.4653  -29.3574   22.7724 N   0  3  0  0  0  0  0  0  0  0  0  0
  -22.7452  -14.9640   20.9000 O   0  0  0  0  0  0  0  0  0  0  0  0
  -28.4935  -29.6837   20.3982 O   0  0  0  0  0  0  0  0  0  0  0  0
  -25.2547  -31.5779   20.0554 O   0  0  0  0  0  0  0  0  0  0  0  0
  -28.2849  -22.2037   24.2149 O   0  0  0  0  0  0  0  0  0  0  0  0
  -23.1626  -29.1275   23.5395 O   0  0  0  0  0  0  0  0  0  0  0  0
  -31.9548  -14.6028   19.9433 O   0  0  0  0  0  0  0  0  0  0  0  0
  -21.3887   -7.5710   22.9224 O   0  0  0  0  0  0  0  0  0  0  0  0
  -26.9039  -23.5742   22.3091 O   0  0  0  0  0  0  0  0  0  1  0  0
  -18.3336   -8.5272   27.4120 F   0  0  0  0  0  0  0  0  0  0  0  0
  -21.7371   -6.0740   25.2203 F   0  0  0  0  0  0  0  0  0  0  0  0
  1  2  1  0  0  0  0
  1  7  2  0  0  0  0
  2  8  2  0  0  0  0
  3  6  2  0  0  0  0
  3 10  1  0  0  0  0
  4 11  2  0  0  0  0
  4 18  1  0  0  0  0
  5 12  1  0  0  0  0
  5 18  2  0  0  0  0
  6 19  1  0  0  0  0
  7 21  1  0  0  0  0
  8 23  1  0  0  0  0
  9 13  2  0  0  0  0
  9 22  1  0  0  0  0
 10 26  2  0  0  0  0
 11 27  1  0  0  0  0
 12 27  2  0  0  0  0
 13 28  1  0  0  0  0
 14 15  2  0  0  0  0
 14 29  1  0  0  0  0
 15 30  1  0  0  0  0
 16 24  1  0  0  0  0
 16 28  2  0  0  0  0
 17 30  2  0  0  0  0
 17 31  1  0  0  0  0
 18 32  1  0  0  0  0
 19 25  2  0  0  0  0
 19 34  1  0  0  0  0
 20 32  1  0  0  0  0
 20 33  2  0  0  0  0
 20 35  1  0  0  0  0
 21 23  2  0  0  0  0
 21 41  1  0  0  0  0
 22 24  2  0  0  0  0
 22 42  1  0  0  0  0
 23 50  1  0  0  0  0
 24 43  1  0  0  0  0
 25 26  1  0  0  0  0
 25 53  1  0  0  0  0
 26 69  1  0  0  0  0
 27 81  1  0  0  0  0
 28 82  1  0  0  0  0
 29 31  2  0  0  0  0
 29 81  1  0  0  0  0
 30 83  1  0  0  0  0
 31 84  1  0  0  0  0
 32 63  2  0  0  0  0
 33 64  1  0  0  0  0
 33 67  1  0  0  0  0
 34 70  1  0  0  0  0
 34 73  2  0  0  0  0
 35 68  1  0  0  0  0
 35 75  2  0  0  0  0
 36 51  1  0  0  0  0
 36 71  1  0  0  0  0
 36 76  2  0  0  0  0
 37 60  1  0  0  0  0
 37 65  1  0  0  0  0
 37 77  2  0  0  0  0
 38 59  1  0  0  0  0
 38 70  1  0  0  0  0
 38 78  2  0  0  0  0
 39 61  1  0  0  0  0
 39 72  1  0  0  0  0
 39 79  2  0  0  0  0
 40 66  1  0  0  0  0
 40 69  1  0  0  0  0
 40 80  2  0  0  0  0
 41 44  1  0  0  0  0
 42 51  1  0  0  0  0
 43 65  1  0  0  0  0
 44 46  1  0  0  0  0
 45 47  1  0  0  0  0
 45 48  1  0  0  0  0
 46 50  1  0  0  0  0
 47 52  1  0  0  0  0
 48 66  1  0  0  0  0
 49 52  1  0  0  0  0
 49 66  1  0  0  0  0
 50 71  1  0  0  0  0
 51 65  1  0  0  0  0
 52 64  1  0  0  0  0
 54 61  1  0  0  0  0
 55 62  1  0  0  0  0
 56 62  1  0  0  0  0
 57 62  1  0  0  0  0
 58 74  1  0  0  0  0
 59 82  1  0  0  0  0
 60 62  1  0  0  0  0
 60 72  1  0  0  0  0
 61 74  1  0  0  0  0
 63 64  1  0  0  0  0
M  CHG  2  73   1  74   1
M  ISO  4  40 100  59 101  69 100  82 101
M  END
> <Batch ID>
0060

> <Smiles>
CNC(C)C(=O)NC(C(=O)N1Cc2cc([101O:1][101CH2:1]C(=O)NC(=N)c3cccc([100NH:0][100C:0](=O)N4CCCC(n5nc(-c6ccc(Oc7ccc(F)cc7F)cc6)c(C(N)=O)c5N)C4)c3C)ccc2CC1C(=O)NC1CCCc2ccccc21)C(C)(C)C

> <Shape>
0.284

> <Color>
0.200

> <Negative vol penalty>
0.000

$$$$

  -OEChem-04042323043D

 83 91  0     1  0  0  0  0  0999 V2000
  -19.4159  -30.1893   20.6421 C   0  0  0  0  0  0  0  0  0  0  0  0
  -20.4990  -29.4337   21.0796 C   0  0  0  0  0  0  0  0  0  0  0  0
  -23.0580   -9.9437   21.5063 C   0  0  0  0  0  0  0  0  0  0  0  0
  -23.7736  -10.8940   23.6091 C   0  0  0  0  0  0  0  0  0  0  0  0
  -18.2084  -30.1424   21.3375 C   0  0  0  0  0  0  0  0  0  0  0  0
  -20.3754  -28.6314   22.2134 C   0  0  0  0  0  0  0  0  0  0  0  0
  -22.3691  -24.0225   21.5587 C   0  0  0  0  0  0  0  0  0  0  0  0
  -32.5349  -18.4462   21.7558 C   0  0  0  0  0  0  0  0  0  0  0  0
  -31.9679  -17.2635   21.2811 C   0  0  0  0  0  0  0  0  0  0  0  0
  -22.3138   -8.9845   22.1930 C   0  0  0  0  0  0  0  0  0  0  0  0
  -23.0293   -9.9348   24.2958 C   0  0  0  0  0  0  0  0  0  0  0  0
  -23.7565  -23.9115   21.6402 C   0  0  0  0  0  0  0  0  0  0  0  0
  -22.8928   -6.0799   23.8216 C   0  0  0  0  0  0  0  0  0  0  0  0
  -22.9816   -4.7578   23.3859 C   0  0  0  0  0  0  0  0  0  0  0  0
  -23.5524  -23.0972   23.9017 C   0  0  0  0  0  0  0  0  0  0  0  0
  -29.7699  -18.2542   21.4380 C   0  0  0  0  0  0  0  0  0  0  0  0
  -20.6036   -4.7389   22.9590 C   0  0  0  0  0  0  0  0  0  0  0  0
  -23.7879  -10.8985   22.2143 C   0  0  0  0  0  0  0  0  0  0  0  0
  -24.1225  -13.1588   21.0800 C   0  0  0  0  0  0  0  0  0  0  0  0
  -18.0670  -29.3317   22.4748 C   0  0  0  0  0  0  0  0  0  0  0  0
  -21.5622  -23.6815   22.6537 C   0  0  0  0  0  0  0  0  0  0  0  0
  -19.1652  -28.5746   22.9254 C   0  0  0  0  0  0  0  0  0  0  0  0
  -22.1549  -23.2023   23.8307 C   0  0  0  0  0  0  0  0  0  0  0  0
  -31.7193  -19.5329   22.0716 C   0  0  0  0  0  0  0  0  0  0  0  0
  -30.5855  -17.1675   21.1222 C   0  0  0  0  0  0  0  0  0  0  0  0
  -30.3369  -19.4369   21.9127 C   0  0  0  0  0  0  0  0  0  0  0  0
  -22.2994   -8.9800   23.5877 C   0  0  0  0  0  0  0  0  0  0  0  0
  -24.3485  -23.4515   22.8128 C   0  0  0  0  0  0  0  0  0  0  0  0
  -21.6595   -6.7314   23.8261 C   0  0  0  0  0  0  0  0  0  0  0  0
  -21.8370   -4.0873   22.9546 C   0  0  0  0  0  0  0  0  0  0  0  0
  -20.5149   -6.0609   23.3947 C   0  0  0  0  0  0  0  0  0  0  0  0
  -24.5573  -11.8893   21.5055 C   0  0  0  0  0  0  0  0  0  0  0  0
  -25.2186  -13.7072   20.4602 C   0  0  0  0  0  0  0  0  0  0  0  0
  -27.5904  -21.9133   22.5530 C   0  0  0  0  0  0  0  0  0  0  0  0
  -26.2768  -22.1597   22.5235 C   0  0  0  0  0  0  0  0  0  1  0  0
  -22.8423  -13.7862   21.2316 C   0  0  0  0  0  0  0  0  0  0  0  0
  -28.1086  -20.5819   22.1228 C   0  0  0  0  0  0  0  0  0  0  0  0
  -19.5191  -25.2560   24.5112 C   0  0  0  0  0  0  0  0  0  0  0  0
  -18.9629  -22.3046   25.7368 C   0  0  0  0  0  0  0  0  0  0  0  0
  -20.0956  -19.1308   26.2759 C   0  0  0  0  0  0  0  0  0  0  0  0
  -30.6765  -14.7947   20.2807 C   0  0  0  0  0  0  0  0  0  0  0  0
  -16.7564  -29.3500   23.2210 C   0  0  0  0  0  0  0  0  0  0  0  0
  -20.0657  -23.7816   22.5406 C   0  0  0  0  0  0  0  0  0  0  0  0
  -21.3321  -22.8039   25.0276 C   0  0  0  0  0  0  0  0  0  0  0  0
  -16.5941  -28.1862   24.1954 C   0  0  0  0  0  0  0  0  0  0  0  0
  -29.6169  -11.6125   19.0858 C   0  0  0  0  0  0  0  0  0  0  0  0
  -17.8598  -28.0060   25.0274 C   0  0  0  0  0  0  0  0  0  0  0  0
  -28.1704  -11.5052   19.5738 C   0  0  0  0  0  0  0  0  0  0  0  0
  -30.5079  -12.3218   20.1040 C   0  0  0  0  0  0  0  0  0  0  0  0
  -28.5720  -13.5250   21.0387 C   0  0  0  0  0  0  0  0  0  0  0  0
  -19.0628  -27.6731   24.1366 C   0  0  1  0  0  0  0  0  0  0  0  0
  -19.3704  -23.8942   23.8939 C   0  0  1  0  0  0  0  0  0  0  0  0
  -27.6227  -12.8755   20.0187 C   0  0  2  0  0  0  0  0  0  0  0  0
  -32.3541  -20.7873   22.5780 C   0  0  0  0  0  0  0  0  0  0  0  0
  -19.4320  -16.9562   27.3381 C   0  0  0  0  0  0  0  0  0  0  0  0
  -19.5420  -23.4772   28.4935 C   0  0  0  0  0  0  0  0  0  0  0  0
  -19.8018  -21.1411   29.3558 C   0  0  0  0  0  0  0  0  0  0  0  0
  -17.6129  -21.8873   28.4204 C   0  0  0  0  0  0  0  0  0  0  0  0
  -20.2451  -17.6909   23.6946 C   0  0  0  0  0  0  0  0  0  0  0  0
  -19.5564  -21.4820   26.8549 C   0  0  1  0  0  0  0  0  0  0  0  0
  -19.4427  -17.7777   26.0584 C   0  0  2  0  0  0  0  0  0  0  0  0
  -19.1442  -22.0062   28.2595 C   0  0  0  0  0  0  0  0  0  0  0  0
  -25.8304  -11.6454   21.1831 N   0  0  0  0  0  0  0  0  0  0  0  0
  -26.2049  -12.7692   20.5483 N   0  0  0  0  0  0  0  0  0  0  0  0
  -19.8734  -22.9256   24.8701 N   0  0  0  0  0  0  0  0  0  0  0  0
  -29.9283  -13.6144   20.4754 N   0  0  0  0  0  0  0  0  0  0  0  0
  -25.4254  -14.8954   19.8537 N   0  0  0  0  0  0  0  0  0  0  0  0
  -21.8275  -13.0823   21.8942 N   0  0  0  0  0  0  0  0  0  0  0  0
  -29.4922  -20.5294   22.2281 N   0  0  0  0  0  0  0  0  0  0  0  0
  -30.0100  -15.9657   20.6400 N   0  0  0  0  0  0  0  0  0  0  0  0
  -19.0232  -26.2840   23.7323 N   0  0  0  0  0  0  0  0  0  0  0  0
  -19.1682  -20.0999   26.5953 N   0  0  0  0  0  0  0  0  0  0  0  0
  -20.1773  -17.0101   25.0133 N   0  3  0  0  0  0  0  0  0  0  0  0
  -22.6004  -14.9305   20.7781 O   0  0  0  0  0  0  0  0  0  0  0  0
  -27.3504  -19.6991   21.7388 O   0  0  0  0  0  0  0  0  0  0  0  0
  -20.0435  -25.3658   25.6133 O   0  0  0  0  0  0  0  0  0  0  0  0
  -17.7366  -22.3870   25.6319 O   0  0  0  0  0  0  0  0  0  0  0  0
  -21.3075  -19.3093   26.1765 O   0  0  0  0  0  0  0  0  0  0  0  0
  -31.8137  -14.7708   19.8031 O   0  0  0  0  0  0  0  0  0  0  0  0
  -21.5731   -8.0443   24.2582 O   0  0  0  0  0  0  0  0  0  0  0  0
  -25.7025  -23.3428   22.8952 O   0  0  0  0  0  0  0  0  0  1  0  0
  -21.9227   -2.8182   22.5348 F   0  0  0  0  0  0  0  0  0  0  0  0
  -19.3274   -6.6821   23.3956 F   0  0  0  0  0  0  0  0  0  0  0  0
  1  2  1  0  0  0  0
  1  5  2  0  0  0  0
  2  6  2  0  0  0  0
  3 10  2  0  0  0  0
  3 18  1  0  0  0  0
  4 11  1  0  0  0  0
  4 18  2  0  0  0  0
  5 20  1  0  0  0  0
  6 22  1  0  0  0  0
  7 12  2  0  0  0  0
  7 21  1  0  0  0  0
  8  9  2  0  0  0  0
  8 24  1  0  0  0  0
  9 25  1  0  0  0  0
 10 27  1  0  0  0  0
 11 27  2  0  0  0  0
 12 28  1  0  0  0  0
 13 14  2  0  0  0  0
 13 29  1  0  0  0  0
 14 30  1  0  0  0  0
 15 23  1  0  0  0  0
 15 28  2  0  0  0  0
 16 25  2  0  0  0  0
 16 26  1  0  0  0  0
 17 30  2  0  0  0  0
 17 31  1  0  0  0  0
 18 32  1  0  0  0  0
 19 32  1  0  0  0  0
 19 33  2  0  0  0  0
 19 36  1  0  0  0  0
 20 22  2  0  0  0  0
 20 42  1  0  0  0  0
 21 23  2  0  0  0  0
 21 43  1  0  0  0  0
 22 51  1  0  0  0  0
 23 44  1  0  0  0  0
 24 26  2  0  0  0  0
 24 54  1  0  0  0  0
 25 70  1  0  0  0  0
 26 69  1  0  0  0  0
 27 80  1  0  0  0  0
 28 81  1  0  0  0  0
 29 31  2  0  0  0  0
 29 80  1  0  0  0  0
 30 82  1  0  0  0  0
 31 83  1  0  0  0  0
 32 63  2  0  0  0  0
 33 64  1  0  0  0  0
 33 67  1  0  0  0  0
 34 35  2  0  0  0  0
 34 37  1  0  0  0  0
 35 81  1  0  0  0  0
 36 68  1  0  0  0  0
 36 74  2  0  0  0  0
 37 69  1  0  0  0  0
 37 75  2  0  0  0  0
 38 52  1  0  0  0  0
 38 71  1  0  0  0  0
 38 76  2  0  0  0  0
 39 60  1  0  0  0  0
 39 65  1  0  0  0  0
 39 77  2  0  0  0  0
 40 61  1  0  0  0  0
 40 72  1  0  0  0  0
 40 78  2  0  0  0  0
 41 66  1  0  0  0  0
 41 70  1  0  0  0  0
 41 79  2  0  0  0  0
 42 45  1  0  0  0  0
 43 52  1  0  0  0  0
 44 65  1  0  0  0  0
 45 47  1  0  0  0  0
 46 48  1  0  0  0  0
 46 49  1  0  0  0  0
 47 51  1  0  0  0  0
 48 53  1  0  0  0  0
 49 66  1  0  0  0  0
 50 53  1  0  0  0  0
 50 66  1  0  0  0  0
 51 71  1  0  0  0  0
 52 65  1  0  0  0  0
 53 64  1  0  0  0  0
 55 61  1  0  0  0  0
 56 62  1  0  0  0  0
 57 62  1  0  0  0  0
 58 62  1  0  0  0  0
 59 73  1  0  0  0  0
 60 62  1  0  0  0  0
 60 72  1  0  0  0  0
 61 73  1  0  0  0  0
 63 64  1  0  0  0  0
M  CHG  1  73   1
M  ISO  4  35 101  41 100  70 100  81 101
M  END
> <Batch ID>
0060

> <Smiles>
CNC(C)C(=O)NC(C(=O)N1Cc2cc([101O:1][101CH:1]=CC(=O)Nc3cc([100NH:0][100C:0](=O)N4CCCC(n5nc(-c6ccc(Oc7ccc(F)cc7F)cc6)c(C(N)=O)c5N)C4)ccc3C)ccc2CC1C(=O)NC1CCCc2ccccc21)C(C)(C)C

> <Shape>
0.207

> <Color>
0.161

> <Negative vol penalty>
0.000

$$$$

  -OEChem-04042323043D

 89 97  0     1  0  0  0  0  0999 V2000
  -25.6935  -27.0506   30.3913 C   0  0  0  0  0  0  0  0  0  0  0  0
  -26.9098  -27.1132   29.7190 C   0  0  0  0  0  0  0  0  0  0  0  0
  -23.2726   -9.7244   19.8918 C   0  0  0  0  0  0  0  0  0  0  0  0
  -23.9769   -9.7810   22.2022 C   0  0  0  0  0  0  0  0  0  0  0  0
  -24.5867  -26.4684   29.7749 C   0  0  0  0  0  0  0  0  0  0  0  0
  -27.0203  -26.5926   28.4301 C   0  0  0  0  0  0  0  0  0  0  0  0
  -30.4645  -27.6845   22.2445 C   0  0  0  0  0  0  0  0  0  0  0  0
  -22.6442   -8.4990   20.1134 C   0  0  0  0  0  0  0  0  0  0  0  0
  -23.3485   -8.5556   22.4238 C   0  0  0  0  0  0  0  0  0  0  0  0
  -31.2443  -27.0031   21.3110 C   0  0  0  0  0  0  0  0  0  0  0  0
  -20.2054   -7.4281   22.9435 C   0  0  0  0  0  0  0  0  0  0  0  0
  -19.4307   -7.2978   24.0961 C   0  0  0  0  0  0  0  0  0  0  0  0
  -30.4947  -18.3237   20.8109 C   0  0  0  0  0  0  0  0  0  0  0  0
  -29.2450  -26.0918   20.3152 C   0  0  0  0  0  0  0  0  0  0  0  0
  -28.8141  -18.3238   22.5466 C   0  0  0  0  0  0  0  0  0  0  0  0
  -20.8456   -5.4874   24.8426 C   0  0  0  0  0  0  0  0  0  0  0  0
  -23.9390  -10.3654   20.9362 C   0  0  0  0  0  0  0  0  0  0  0  0
  -30.5206  -19.7181   20.8359 C   0  0  0  0  0  0  0  0  0  0  0  0
  -24.0255  -12.9134   20.8483 C   0  0  0  0  0  0  0  0  0  0  0  0
  -24.6812  -25.9491   28.4741 C   0  0  0  0  0  0  0  0  0  0  0  0
  -29.0673  -27.5659   22.2271 C   0  0  0  0  0  0  0  0  0  0  0  0
  -25.9141  -26.0017   27.7962 C   0  0  0  0  0  0  0  0  0  0  0  0
  -28.4496  -26.7749   21.2479 C   0  0  0  0  0  0  0  0  0  0  0  0
  -29.6414  -17.6265   21.6662 C   0  0  0  0  0  0  0  0  0  0  0  0
  -29.6932  -20.4153   21.7162 C   0  0  0  0  0  0  0  0  0  0  0  0
  -22.6821   -7.9146   21.3794 C   0  0  0  0  0  0  0  0  0  0  0  0
  -30.6347  -26.2043   20.3480 C   0  0  0  0  0  0  0  0  0  0  0  0
  -21.3002   -6.5879   22.7404 C   0  0  0  0  0  0  0  0  0  0  0  0
  -19.7508   -6.3275   25.0457 C   0  0  0  0  0  0  0  0  0  0  0  0
  -28.8399  -19.7182   22.5715 C   0  0  0  0  0  0  0  0  0  0  0  0
  -21.6203   -5.6176   23.6900 C   0  0  0  0  0  0  0  0  0  0  0  0
  -24.5888  -11.6309   20.7078 C   0  0  0  0  0  0  0  0  0  0  0  0
  -25.0438  -13.7738   20.5177 C   0  0  0  0  0  0  0  0  0  0  0  0
  -31.4403  -20.4315   19.9127 C   0  0  0  0  0  0  0  0  0  0  0  0
  -22.7003  -13.2930   21.2426 C   0  0  0  0  0  0  0  0  0  0  0  0
  -26.8834  -26.4736   24.2619 C   0  0  0  0  0  0  0  0  0  0  0  0
  -24.8102  -27.6327   22.0526 C   0  0  0  0  0  0  0  0  0  0  0  0
  -24.2318  -28.5251   18.8098 C   0  0  0  0  0  0  0  0  0  0  0  0
  -30.3705  -15.3651   20.8292 C   0  0  0  0  0  0  0  0  0  0  0  0
  -23.4698  -25.2868   27.8670 C   0  0  0  0  0  0  0  0  0  0  0  0
  -28.2390  -28.3287   23.2243 C   0  0  0  0  0  0  0  0  0  0  0  0
  -26.9523  -26.6303   21.1737 C   0  0  0  0  0  0  0  0  0  0  0  0
  -23.5734  -25.0951   26.3561 C   0  0  0  0  0  0  0  0  0  0  0  0
  -29.5593  -12.8792   18.4127 C   0  0  0  0  0  0  0  0  0  0  0  0
  -24.9353  -24.5181   25.9833 C   0  0  0  0  0  0  0  0  0  0  0  0
  -28.1476  -12.4383   18.8060 C   0  0  0  0  0  0  0  0  0  0  0  0
  -30.4197  -13.1851   19.6374 C   0  0  0  0  0  0  0  0  0  0  0  0
  -28.4190  -13.6964   20.9809 C   0  0  0  0  0  0  0  0  0  0  0  0
  -26.0673  -25.4703   26.3876 C   0  0  1  0  0  0  0  0  0  0  0  0
  -26.8528  -27.7272   23.4341 C   0  0  1  0  0  0  0  0  0  0  0  0
  -27.4951  -13.4396   19.7792 C   0  0  2  0  0  0  0  0  0  0  0  0
  -22.4296  -29.4016   17.2994 C   0  0  0  0  0  0  0  0  0  0  0  0
  -23.5050  -24.8750   22.0137 C   0  0  0  0  0  0  0  0  0  0  0  0
  -22.3814  -25.5139   19.8694 C   0  0  0  0  0  0  0  0  0  0  0  0
  -21.8982  -26.7906   21.9573 C   0  0  0  0  0  0  0  0  0  0  0  0
  -25.7912  -30.9573   18.1686 C   0  0  0  0  0  0  0  0  0  0  0  0
  -32.1202  -22.4653   22.7521 C   0  0  0  0  0  0  0  0  0  0  0  0
  -32.0451  -23.4006   18.5602 C   0  0  0  0  0  0  0  0  0  0  0  0
  -31.5981  -22.0436   18.0333 C   0  0  0  0  0  0  0  0  0  0  0  0
  -30.8774  -24.3030   18.9401 C   0  0  0  0  0  0  0  0  0  1  0  0
  -24.1386  -27.0754   20.8208 C   0  0  1  0  0  0  0  0  0  0  0  0
  -23.5973  -29.7639   18.2038 C   0  0  2  0  0  0  0  0  0  0  0  0
  -23.0091  -26.0647   21.1677 C   0  0  0  0  0  0  0  0  0  0  0  0
  -25.8658  -11.6686   20.3181 N   0  0  0  0  0  0  0  0  0  0  0  0
  -26.1133  -12.9851   20.2108 N   0  0  0  0  0  0  0  0  0  0  0  0
  -26.1859  -27.3909   22.1746 N   0  0  0  0  0  0  0  0  0  0  0  0
  -29.7398  -14.1436   20.5114 N   0  0  0  0  0  0  0  0  0  0  0  0
  -25.1196  -15.1205   20.4623 N   0  0  0  0  0  0  0  0  0  0  0  0
  -21.7786  -12.2821   21.5475 N   0  0  0  0  0  0  0  0  0  0  0  0
  -29.6147  -16.2101   21.6412 N   0  0  0  0  0  0  0  0  0  0  0  0
  -29.7047  -21.8452   21.7569 N   0  0  0  0  0  0  0  0  0  0  0  0
  -30.8449  -21.3007   19.0054 N   0  0  0  0  0  0  0  0  0  0  0  0
  -26.1712  -26.5617   25.4429 N   0  0  0  0  0  0  0  0  0  0  0  0
  -23.6924  -28.2263   20.0432 N   0  0  0  0  0  0  0  0  0  0  0  0
  -24.5993  -30.5178   17.3985 N   0  3  0  0  0  0  0  0  0  0  0  0
  -32.6468  -20.2109   19.9786 O   0  0  0  0  0  0  0  0  0  0  0  0
  -22.3392  -14.4926   21.3062 O   0  0  0  0  0  0  0  0  0  0  0  0
  -27.5057  -25.4981   23.8584 O   0  0  0  0  0  0  0  0  0  0  0  0
  -24.1404  -28.2655   22.8727 O   0  0  0  0  0  0  0  0  0  0  0  0
  -25.1147  -27.8842   18.2439 O   0  0  0  0  0  0  0  0  0  0  0  0
  -31.4867  -15.6527   20.3896 O   0  0  0  0  0  0  0  0  0  0  0  0
  -30.0645  -24.0249   23.0829 O   0  0  0  0  0  0  0  0  0  0  0  0
  -30.1347  -21.8425   24.3388 O   0  0  0  0  0  0  0  0  0  0  0  0
  -22.0688   -6.7190   21.5960 O   0  0  0  0  0  0  0  0  0  0  0  0
  -31.3935  -25.5375   19.4361 O   0  0  0  0  0  0  0  0  0  1  0  0
  -19.0077   -6.2036   26.1532 F   0  0  0  0  0  0  0  0  0  0  0  0
  -28.0402  -20.3778   23.4217 F   0  0  0  0  0  0  0  0  0  0  0  0
  -22.6716   -4.8083   23.5009 F   0  0  0  0  0  0  0  0  0  0  0  0
  -30.3896  -22.6117   23.1371 S   0  0  0  0  0  0  0  0  0  0  0  0
  1  2  1  0  0  0  0
  1  5  2  0  0  0  0
  2  6  2  0  0  0  0
  3  8  2  0  0  0  0
  3 17  1  0  0  0  0
  4  9  1  0  0  0  0
  4 17  2  0  0  0  0
  5 20  1  0  0  0  0
  6 22  1  0  0  0  0
  7 10  2  0  0  0  0
  7 21  1  0  0  0  0
  8 26  1  0  0  0  0
  9 26  2  0  0  0  0
 10 27  1  0  0  0  0
 11 12  2  0  0  0  0
 11 28  1  0  0  0  0
 12 29  1  0  0  0  0
 13 18  1  0  0  0  0
 13 24  2  0  0  0  0
 14 23  1  0  0  0  0
 14 27  2  0  0  0  0
 15 24  1  0  0  0  0
 15 30  2  0  0  0  0
 16 29  2  0  0  0  0
 16 31  1  0  0  0  0
 17 32  1  0  0  0  0
 18 25  2  0  0  0  0
 18 34  1  0  0  0  0
 19 32  1  0  0  0  0
 19 33  2  0  0  0  0
 19 35  1  0  0  0  0
 20 22  2  0  0  0  0
 20 40  1  0  0  0  0
 21 23  2  0  0  0  0
 21 41  1  0  0  0  0
 22 49  1  0  0  0  0
 23 42  1  0  0  0  0
 24 70  1  0  0  0  0
 25 30  1  0  0  0  0
 25 71  1  0  0  0  0
 26 84  1  0  0  0  0
 27 85  1  0  0  0  0
 28 31  2  0  0  0  0
 28 84  1  0  0  0  0
 29 86  1  0  0  0  0
 30 87  1  0  0  0  0
 31 88  1  0  0  0  0
 32 64  2  0  0  0  0
 33 65  1  0  0  0  0
 33 68  1  0  0  0  0
 34 72  1  0  0  0  0
 34 76  2  0  0  0  0
 35 69  1  0  0  0  0
 35 77  2  0  0  0  0
 36 50  1  0  0  0  0
 36 73  1  0  0  0  0
 36 78  2  0  0  0  0
 37 61  1  0  0  0  0
 37 66  1  0  0  0  0
 37 79  2  0  0  0  0
 38 62  1  0  0  0  0
 38 74  1  0  0  0  0
 38 80  2  0  0  0  0
 39 67  1  0  0  0  0
 39 70  1  0  0  0  0
 39 81  2  0  0  0  0
 40 43  1  0  0  0  0
 41 50  1  0  0  0  0
 42 66  1  0  0  0  0
 43 45  1  0  0  0  0
 44 46  1  0  0  0  0
 44 47  1  0  0  0  0
 45 49  1  0  0  0  0
 46 51  1  0  0  0  0
 47 67  1  0  0  0  0
 48 51  1  0  0  0  0
 48 67  1  0  0  0  0
 49 73  1  0  0  0  0
 50 66  1  0  0  0  0
 51 65  1  0  0  0  0
 52 62  1  0  0  0  0
 53 63  1  0  0  0  0
 54 63  1  0  0  0  0
 55 63  1  0  0  0  0
 56 75  1  0  0  0  0
 57 89  1  0  0  0  0
 58 59  1  0  0  0  0
 58 60  1  0  0  0  0
 59 72  1  0  0  0  0
 60 85  1  0  0  0  0
 61 63  1  0  0  0  0
 61 74  1  0  0  0  0
 62 75  1  0  0  0  0
 64 65  1  0  0  0  0
 71 89  1  0  0  0  0
 82 89  2  0  0  0  0
 83 89  2  0  0  0  0
M  CHG  1  75   1
M  ISO  4  39 100  60 101  70 100  85 101
M  END
> <Batch ID>
0060

> <Smiles>
CNC(C)C(=O)NC(C(=O)N1Cc2cc([101O:1][101CH2:1]CCNC(=O)c3cc([100NH:0][100C:0](=O)N4CCCC(n5nc(-c6ccc(Oc7ccc(F)cc7F)cc6)c(C(N)=O)c5N)C4)cc(F)c3NS(C)(=O)=O)ccc2CC1C(=O)NC1CCCc2ccccc21)C(C)(C)C

> <Shape>
0.262

> <Color>
0.176

> <Negative vol penalty>
0.000

$$$$

  -OEChem-04042323043D

 88 96  0     1  0  0  0  0  0999 V2000
  -21.9441  -12.3001   18.9361 C   0  0  0  0  0  0  0  0  0  0  0  0
  -21.8590  -13.6343   19.3210 C   0  0  0  0  0  0  0  0  0  0  0  0
  -17.9319  -28.8281   22.2987 C   0  0  0  0  0  0  0  0  0  0  0  0
  -29.8577  -27.7686   19.5446 C   0  0  0  0  0  0  0  0  0  0  0  0
  -29.0174  -26.3449   21.3063 C   0  0  0  0  0  0  0  0  0  0  0  0
  -17.7318  -27.4624   22.4990 C   0  0  0  0  0  0  0  0  0  0  0  0
  -23.0835  -11.5581   19.2446 C   0  0  0  0  0  0  0  0  0  0  0  0
  -22.9128  -14.2269   20.0158 C   0  0  0  0  0  0  0  0  0  0  0  0
  -24.0669  -18.8271   18.2406 C   0  0  0  0  0  0  0  0  0  0  0  0
  -19.2173  -29.3639   22.3792 C   0  0  0  0  0  0  0  0  0  0  0  0
  -31.1653  -27.4452   19.9069 C   0  0  0  0  0  0  0  0  0  0  0  0
  -30.3249  -26.0214   21.6686 C   0  0  0  0  0  0  0  0  0  0  0  0
  -23.2357  -19.8815   18.6162 C   0  0  0  0  0  0  0  0  0  0  0  0
  -32.8518  -27.4419   23.4087 C   0  0  0  0  0  0  0  0  0  0  0  0
  -33.1700  -27.4545   24.7667 C   0  0  0  0  0  0  0  0  0  0  0  0
  -24.8357  -20.5352   20.2991 C   0  0  0  0  0  0  0  0  0  0  0  0
  -33.7652  -25.1159   24.6490 C   0  0  0  0  0  0  0  0  0  0  0  0
  -28.7837  -27.2185   20.2443 C   0  0  0  0  0  0  0  0  0  0  0  0
  -18.8170  -26.6323   22.7800 C   0  0  0  0  0  0  0  0  0  0  0  0
  -26.6174  -26.8817   18.9400 C   0  0  0  0  0  0  0  0  0  0  0  0
  -24.1558  -12.1447   19.9351 C   0  0  0  0  0  0  0  0  0  0  0  0
  -25.2857  -18.6119   18.8998 C   0  0  0  0  0  0  0  0  0  0  0  0
  -24.0670  -13.4917   20.3351 C   0  0  0  0  0  0  0  0  0  0  0  0
  -25.6817  -19.4788   19.9282 C   0  0  0  0  0  0  0  0  0  0  0  0
  -20.1024  -27.1680   22.8606 C   0  0  0  0  0  0  0  0  0  0  0  0
  -20.3025  -28.5338   22.6602 C   0  0  0  0  0  0  0  0  0  0  0  0
  -31.3989  -26.5716   20.9688 C   0  0  0  0  0  0  0  0  0  0  0  0
  -23.6187  -20.7340   19.6476 C   0  0  0  0  0  0  0  0  0  0  0  0
  -32.9902  -26.2663   22.6708 C   0  0  0  0  0  0  0  0  0  0  0  0
  -33.6267  -26.2916   25.3868 C   0  0  0  0  0  0  0  0  0  0  0  0
  -33.4470  -25.1033   23.2909 C   0  0  0  0  0  0  0  0  0  0  0  0
  -27.4328  -27.5527   19.8709 C   0  0  0  0  0  0  0  0  0  0  0  0
  -25.4378  -27.5851   18.9469 C   0  0  0  0  0  0  0  0  0  0  0  0
  -18.5712  -25.1819   22.9874 C   0  0  0  0  0  0  0  0  0  0  0  0
  -26.9010  -25.7258   18.1405 C   0  0  0  0  0  0  0  0  0  0  0  0
  -26.5098  -16.2476   20.6362 C   0  0  0  0  0  0  0  0  0  0  0  0
  -29.1887  -18.0733   20.5229 C   0  0  0  0  0  0  0  0  0  0  0  0
  -16.8932  -22.7524   21.7379 C   0  0  0  0  0  0  0  0  0  0  0  0
  -30.5705  -21.1688   20.1297 C   0  0  0  0  0  0  0  0  0  0  0  0
  -21.9492  -30.4377   22.5598 C   0  0  0  0  0  0  0  0  0  0  0  0
  -25.3470  -11.2893   20.2876 C   0  0  0  0  0  0  0  0  0  0  0  0
  -26.1833  -17.4860   18.4647 C   0  0  0  0  0  0  0  0  0  0  0  0
  -26.9896  -19.3030   20.6540 C   0  0  0  0  0  0  0  0  0  0  0  0
  -26.5761  -12.0962   20.6980 C   0  0  0  0  0  0  0  0  0  0  0  0
  -24.1122  -32.1530   20.3111 C   0  0  0  0  0  0  0  0  0  0  0  0
  -26.1910  -13.1872   21.6921 C   0  0  0  0  0  0  0  0  0  0  0  0
  -25.1100  -31.0772   19.8762 C   0  0  0  0  0  0  0  0  0  0  0  0
  -23.7169  -31.9999   21.7787 C   0  0  0  0  0  0  0  0  0  0  0  0
  -24.2279  -29.5906   21.7199 C   0  0  0  0  0  0  0  0  0  0  0  0
  -25.1996  -14.1769   21.0684 C   0  0  1  0  0  0  0  0  0  0  0  0
  -27.1647  -17.0513   19.5487 C   0  0  1  0  0  0  0  0  0  0  0  0
  -24.6062  -29.6645   20.2316 C   0  0  2  0  0  0  0  0  0  0  0  0
  -21.2663  -26.2760   23.1626 C   0  0  0  0  0  0  0  0  0  0  0  0
  -32.7834  -22.3523   20.1264 C   0  0  0  0  0  0  0  0  0  0  0  0
  -29.2779  -17.9100   23.5684 C   0  0  0  0  0  0  0  0  0  0  0  0
  -30.8811  -19.8330   23.5550 C   0  0  0  0  0  0  0  0  0  0  0  0
  -31.5016  -17.6863   22.4462 C   0  0  0  0  0  0  0  0  0  0  0  0
  -30.2277  -22.0470   17.3244 C   0  0  0  0  0  0  0  0  0  0  0  0
  -20.6687  -22.3682   20.9184 C   0  0  0  0  0  0  0  0  0  0  0  0
  -19.1520  -22.2267   20.7806 C   0  0  0  0  0  0  0  0  0  0  0  0
  -21.4045  -21.5795   19.8438 C   0  0  0  0  0  0  0  0  0  1  0  0
  -29.7657  -19.1790   21.3735 C   0  0  1  0  0  0  0  0  0  0  0  0
  -18.3929  -22.9655   21.8866 C   0  0  1  0  0  0  0  0  0  0  0  0
  -31.7312  -21.6533   19.2797 C   0  0  2  0  0  0  0  0  0  0  0  0
  -30.3309  -18.6545   22.7236 C   0  0  0  0  0  0  0  0  0  0  0  0
  -26.8228  -28.6020   20.4286 N   0  0  0  0  0  0  0  0  0  0  0  0
  -25.6116  -28.5956   19.8463 N   0  0  0  0  0  0  0  0  0  0  0  0
  -27.8296  -18.1839   20.1963 N   0  0  0  0  0  0  0  0  0  0  0  0
  -23.2457  -30.6381   22.0403 N   0  0  0  0  0  0  0  0  0  0  0  0
  -24.2792  -27.4318   18.2713 N   0  0  0  0  0  0  0  0  0  0  0  0
  -28.1625  -25.1262   18.2566 N   0  0  0  0  0  0  0  0  0  0  0  0
  -16.4399  -21.6419   22.4182 N   0  0  0  0  0  0  0  0  0  0  0  0
  -21.5995  -29.0994   22.7366 N   0  0  0  0  0  0  0  0  0  0  0  0
  -18.6321  -24.3852   21.8518 N   0  0  0  0  0  0  0  0  0  0  0  0
  -25.8892  -15.0967   20.1892 N   0  0  0  0  0  0  0  0  0  0  0  0
  -30.7477  -19.8646   20.5405 N   0  0  0  0  0  0  0  0  0  0  0  0
  -31.2503  -22.6101   18.2432 N   0  3  0  0  0  0  0  0  0  0  0  0
  -18.3133  -24.7724   24.1163 O   0  0  0  0  0  0  0  0  0  0  0  0
  -26.0664  -25.2488   17.3345 O   0  0  0  0  0  0  0  0  0  0  0  0
  -26.5648  -16.6415   21.7953 O   0  0  0  0  0  0  0  0  0  0  0  0
  -29.9187  -17.1492   20.1556 O   0  0  0  0  0  0  0  0  0  0  0  0
  -16.1678  -23.4658   21.0488 O   0  0  0  0  0  0  0  0  0  0  0  0
  -29.6051  -21.8779   20.4052 O   0  0  0  0  0  0  0  0  0  0  0  0
  -21.1941  -31.3826   22.8024 O   0  0  0  0  0  0  0  0  0  0  0  0
  -32.6747  -26.2556   21.3225 O   0  0  0  0  0  0  0  0  0  0  0  0
  -22.8090  -21.7636   20.0167 O   0  0  0  0  0  0  0  0  0  1  0  0
  -33.9337  -26.3042   26.6906 F   0  0  0  0  0  0  0  0  0  0  0  0
  -33.5831  -23.9712   22.5870 F   0  0  0  0  0  0  0  0  0  0  0  0
  1  2  1  0  0  0  0
  1  7  2  0  0  0  0
  2  8  2  0  0  0  0
  3  6  2  0  0  0  0
  3 10  1  0  0  0  0
  4 11  2  0  0  0  0
  4 18  1  0  0  0  0
  5 12  1  0  0  0  0
  5 18  2  0  0  0  0
  6 19  1  0  0  0  0
  7 21  1  0  0  0  0
  8 23  1  0  0  0  0
  9 13  2  0  0  0  0
  9 22  1  0  0  0  0
 10 26  2  0  0  0  0
 11 27  1  0  0  0  0
 12 27  2  0  0  0  0
 13 28  1  0  0  0  0
 14 15  2  0  0  0  0
 14 29  1  0  0  0  0
 15 30  1  0  0  0  0
 16 24  1  0  0  0  0
 16 28  2  0  0  0  0
 17 30  2  0  0  0  0
 17 31  1  0  0  0  0
 18 32  1  0  0  0  0
 19 25  2  0  0  0  0
 19 34  1  0  0  0  0
 20 32  1  0  0  0  0
 20 33  2  0  0  0  0
 20 35  1  0  0  0  0
 21 23  2  0  0  0  0
 21 41  1  0  0  0  0
 22 24  2  0  0  0  0
 22 42  1  0  0  0  0
 23 50  1  0  0  0  0
 24 43  1  0  0  0  0
 25 26  1  0  0  0  0
 25 53  1  0  0  0  0
 26 73  1  0  0  0  0
 27 85  1  0  0  0  0
 28 86  1  0  0  0  0
 29 31  2  0  0  0  0
 29 85  1  0  0  0  0
 30 87  1  0  0  0  0
 31 88  1  0  0  0  0
 32 66  2  0  0  0  0
 33 67  1  0  0  0  0
 33 70  1  0  0  0  0
 34 74  1  0  0  0  0
 34 78  2  0  0  0  0
 35 71  1  0  0  0  0
 35 79  2  0  0  0  0
 36 51  1  0  0  0  0
 36 75  1  0  0  0  0
 36 80  2  0  0  0  0
 37 62  1  0  0  0  0
 37 68  1  0  0  0  0
 37 81  2  0  0  0  0
 38 63  1  0  0  0  0
 38 72  1  0  0  0  0
 38 82  2  0  0  0  0
 39 64  1  0  0  0  0
 39 76  1  0  0  0  0
 39 83  2  0  0  0  0
 40 69  1  0  0  0  0
 40 73  1  0  0  0  0
 40 84  2  0  0  0  0
 41 44  1  0  0  0  0
 42 51  1  0  0  0  0
 43 68  1  0  0  0  0
 44 46  1  0  0  0  0
 45 47  1  0  0  0  0
 45 48  1  0  0  0  0
 46 50  1  0  0  0  0
 47 52  1  0  0  0  0
 48 69  1  0  0  0  0
 49 52  1  0  0  0  0
 49 69  1  0  0  0  0
 50 75  1  0  0  0  0
 51 68  1  0  0  0  0
 52 67  1  0  0  0  0
 54 64  1  0  0  0  0
 55 65  1  0  0  0  0
 56 65  1  0  0  0  0
 57 65  1  0  0  0  0
 58 77  1  0  0  0  0
 59 60  1  0  0  0  0
 59 61  1  0  0  0  0
 60 63  1  0  0  0  0
 61 86  1  0  0  0  0
 62 65  1  0  0  0  0
 62 76  1  0  0  0  0
 63 74  1  0  0  0  0
 64 77  1  0  0  0  0
 66 67  1  0  0  0  0
M  CHG  1  77   1
M  ISO  4  40 100  61 101  73 100  86 101
M  END
> <Batch ID>
0060

> <Smiles>
CNC(C)C(=O)NC(C(=O)N1Cc2cc([101O:1][101CH2:1]CCC(NC(=O)c3cccc([100NH:0][100C:0](=O)N4CCCC(n5nc(-c6ccc(Oc7ccc(F)cc7F)cc6)c(C(N)=O)c5N)C4)c3C)C(N)=O)ccc2CC1C(=O)NC1CCCc2ccccc21)C(C)(C)C

> <Shape>
0.246

> <Color>
0.096

> <Negative vol penalty>
0.000

$$$$

  -OEChem-04042323043D

 92101  0     1  0  0  0  0  0999 V2000
  -25.4446  -34.8009   24.1677 C   0  0  0  0  0  0  0  0  0  0  0  0
  -26.0971  -33.6553   23.7237 C   0  0  0  0  0  0  0  0  0  0  0  0
  -24.0809  -14.2827   21.6635 C   0  0  0  0  0  0  0  0  0  0  0  0
  -26.2222  -14.2948   20.5446 C   0  0  0  0  0  0  0  0  0  0  0  0
  -24.1742  -34.7031   24.7337 C   0  0  0  0  0  0  0  0  0  0  0  0
  -25.4799  -32.4109   23.8463 C   0  0  0  0  0  0  0  0  0  0  0  0
  -25.9099  -29.6072   19.6512 C   0  0  0  0  0  0  0  0  0  0  0  0
  -33.5660  -20.0293   19.9881 C   0  0  0  0  0  0  0  0  0  0  0  0
  -32.1987  -19.7943   20.1328 C   0  0  0  0  0  0  0  0  0  0  0  0
  -23.7665  -13.0708   21.0489 C   0  0  0  0  0  0  0  0  0  0  0  0
  -25.9078  -13.0828   19.9300 C   0  0  0  0  0  0  0  0  0  0  0  0
  -27.1314  -28.9717   19.4326 C   0  0  0  0  0  0  0  0  0  0  0  0
  -22.5476   -9.7934   20.0547 C   0  0  0  0  0  0  0  0  0  0  0  0
  -21.9794   -8.7939   20.8444 C   0  0  0  0  0  0  0  0  0  0  0  0
  -26.2018  -26.9095   20.2707 C   0  0  0  0  0  0  0  0  0  0  0  0
  -31.7364  -22.0665   19.4543 C   0  0  0  0  0  0  0  0  0  0  0  0
  -23.9382   -8.7979   22.2587 C   0  0  0  0  0  0  0  0  0  0  0  0
  -25.3088  -14.8948   21.4114 C   0  0  0  0  0  0  0  0  0  0  0  0
  -25.7216  -16.4027   23.4272 C   0  0  0  0  0  0  0  0  0  0  0  0
  -23.5370  -33.4581   24.8545 C   0  0  0  0  0  0  0  0  0  0  0  0
  -24.8266  -28.9001   20.1924 C   0  0  0  0  0  0  0  0  0  0  0  0
  -24.2003  -32.2962   24.4156 C   0  0  0  0  0  0  0  0  0  0  0  0
  -24.9668  -27.5377   20.4929 C   0  0  0  0  0  0  0  0  0  0  0  0
  -34.0185  -21.2829   19.5766 C   0  0  0  0  0  0  0  0  0  0  0  0
  -33.1038  -22.3015   19.3096 C   0  0  0  0  0  0  0  0  0  0  0  0
  -31.2839  -20.8129   19.8658 C   0  0  0  0  0  0  0  0  0  0  0  0
  -24.6800  -12.4708   20.1821 C   0  0  0  0  0  0  0  0  0  0  0  0
  -27.2784  -27.6234   19.7450 C   0  0  0  0  0  0  0  0  0  0  0  0
  -23.8112  -10.2951   20.3669 C   0  0  0  0  0  0  0  0  0  0  0  0
  -22.6747   -8.2962   21.9465 C   0  0  0  0  0  0  0  0  0  0  0  0
  -24.5065   -9.7974   21.4689 C   0  0  0  0  0  0  0  0  0  0  0  0
  -25.6339  -16.1471   22.0456 C   0  0  0  0  0  0  0  0  0  0  0  0
  -26.0568  -17.7321   23.5098 C   0  0  0  0  0  0  0  0  0  0  0  0
  -32.3851  -25.4105   20.1287 C   0  0  0  0  0  0  0  0  0  0  0  0
  -25.5183  -15.5176   24.5367 C   0  0  0  0  0  0  0  0  0  0  0  0
  -23.0878  -29.1436   22.8421 C   0  0  0  0  0  0  0  0  0  0  0  0
  -21.3360  -26.7996   21.4422 C   0  0  0  0  0  0  0  0  0  0  0  0
  -37.0733  -19.6854   18.8360 C   0  0  0  0  0  0  0  0  0  0  0  0
  -21.2055  -24.2195   19.2122 C   0  0  0  0  0  0  0  0  0  0  0  0
  -28.8547  -21.4754   19.7863 C   0  0  0  0  0  0  0  0  0  0  0  0
  -22.1831  -33.3966   25.5162 C   0  0  0  0  0  0  0  0  0  0  0  0
  -23.5076  -29.5935   20.3973 C   0  0  0  0  0  0  0  0  0  0  0  0
  -23.8284  -26.7288   21.0570 C   0  0  0  0  0  0  0  0  0  0  0  0
  -31.2171  -26.3764   20.1942 C   0  0  0  0  0  0  0  0  0  0  0  0
  -21.4426  -32.0851   25.2675 C   0  0  0  0  0  0  0  0  0  0  0  0
  -25.5852  -21.8672   21.1406 C   0  0  0  0  0  0  0  0  0  0  0  0
  -22.3732  -30.8966   25.4875 C   0  0  0  0  0  0  0  0  0  0  0  0
  -25.2371  -20.4694   21.6576 C   0  0  0  0  0  0  0  0  0  0  0  0
  -30.5108  -25.7418   17.9120 C   0  0  0  0  0  0  0  0  0  0  0  0
  -26.3928  -21.8079   19.8452 C   0  0  0  0  0  0  0  0  0  0  0  0
  -31.7910  -24.9470   17.7253 C   0  0  0  0  0  0  0  0  0  0  0  0
  -27.2474  -19.5695   20.4183 C   0  0  0  0  0  0  0  0  0  0  0  0
  -23.5532  -30.9314   24.5088 C   0  0  1  0  0  0  0  0  0  0  0  0
  -22.6247  -28.9041   21.4329 C   0  0  1  0  0  0  0  0  0  0  0  0
  -30.7723  -26.9189   18.8423 C   0  0  1  0  0  0  0  0  0  0  0  0
  -26.4897  -19.5768   21.7561 C   0  0  2  0  0  0  0  0  0  0  0  0
  -37.6059  -18.8177   17.7233 C   0  0  0  0  0  0  0  0  0  0  0  0
  -19.6485  -22.4677   18.3154 C   0  0  0  0  0  0  0  0  0  0  0  0
  -21.6869  -25.1798   24.0040 C   0  0  0  0  0  0  0  0  0  0  0  0
  -20.9664  -23.1460   22.7341 C   0  0  0  0  0  0  0  0  0  0  0  0
  -19.3977  -25.0667   23.0035 C   0  0  0  0  0  0  0  0  0  0  0  0
  -35.6025  -20.7379   17.0912 C   0  0  0  0  0  0  0  0  0  0  0  0
  -21.3988  -25.2909   16.4601 C   0  0  0  0  0  0  0  0  0  0  0  0
  -33.5674  -23.6580   18.8635 C   0  0  0  0  0  0  0  0  0  0  0  0
  -35.4872  -21.5109   19.4296 C   0  0  0  0  0  0  0  0  0  0  0  0
  -29.5268  -27.7894   18.9882 C   0  0  0  0  0  0  0  0  0  1  0  0
  -21.3746  -25.2905   21.4435 C   0  0  1  0  0  0  0  0  0  0  0  0
  -20.1987  -23.8733   18.1301 C   0  0  2  0  0  0  0  0  0  0  0  0
  -20.8786  -24.6862   22.7875 C   0  0  0  0  0  0  0  0  0  0  0  0
  -25.8924  -17.2274   21.3039 N   0  0  0  0  0  0  0  0  0  0  0  0
  -26.1457  -18.1747   22.2228 N   0  0  0  0  0  0  0  0  0  0  0  0
  -32.5107  -24.6558   18.9644 N   0  0  0  0  0  0  0  0  0  0  0  0
  -22.5607  -27.4533   21.2452 N   0  0  0  0  0  0  0  0  0  0  0  0
  -27.5662  -20.9481   20.0150 N   0  0  0  0  0  0  0  0  0  0  0  0
  -26.2812  -18.5539   24.5570 N   0  0  0  0  0  0  0  0  0  0  0  0
  -26.6183  -14.8052   25.0334 N   0  0  0  0  0  0  0  0  0  0  0  0
  -29.8948  -20.5741   20.0108 N   0  0  0  0  0  0  0  0  0  0  0  0
  -23.1371  -30.4776   23.1991 N   0  0  0  0  0  0  0  0  0  0  0  0
  -20.6101  -24.8616   20.2773 N   0  0  0  0  0  0  0  0  0  0  0  0
  -36.0848  -20.6180   18.4707 N   0  0  0  0  0  0  0  0  0  0  0  0
  -20.8350  -23.9554   16.7850 N   0  3  0  0  0  0  0  0  0  0  0  0
  -33.1094  -25.2802   21.1194 O   0  0  0  0  0  0  0  0  0  0  0  0
  -24.3911  -15.3506   25.0613 O   0  0  0  0  0  0  0  0  0  0  0  0
  -23.3774  -28.1886   23.5534 O   0  0  0  0  0  0  0  0  0  0  0  0
  -20.2579  -27.3772   21.6026 O   0  0  0  0  0  0  0  0  0  0  0  0
  -37.5171  -19.5395   19.9780 O   0  0  0  0  0  0  0  0  0  0  0  0
  -22.4001  -23.9444   19.1232 O   0  0  0  0  0  0  0  0  0  0  0  0
  -29.0246  -22.6487   19.4449 O   0  0  0  0  0  0  0  0  0  0  0  0
  -24.3736  -11.2880   19.5823 O   0  0  0  0  0  0  0  0  0  0  0  0
  -28.4698  -27.0008   19.5332 O   0  0  0  0  0  0  0  0  0  1  0  0
  -22.1283   -7.3374   22.7057 F   0  0  0  0  0  0  0  0  0  0  0  0
  -25.7202  -10.2763   21.7745 F   0  0  0  0  0  0  0  0  0  0  0  0
  1  2  1  0  0  0  0
  1  5  2  0  0  0  0
  2  6  2  0  0  0  0
  3 10  2  0  0  0  0
  3 18  1  0  0  0  0
  4 11  1  0  0  0  0
  4 18  2  0  0  0  0
  5 20  1  0  0  0  0
  6 22  1  0  0  0  0
  7 12  2  0  0  0  0
  7 21  1  0  0  0  0
  8  9  2  0  0  0  0
  8 24  1  0  0  0  0
  9 26  1  0  0  0  0
 10 27  1  0  0  0  0
 11 27  2  0  0  0  0
 12 28  1  0  0  0  0
 13 14  2  0  0  0  0
 13 29  1  0  0  0  0
 14 30  1  0  0  0  0
 15 23  1  0  0  0  0
 15 28  2  0  0  0  0
 16 25  1  0  0  0  0
 16 26  2  0  0  0  0
 17 30  2  0  0  0  0
 17 31  1  0  0  0  0
 18 32  1  0  0  0  0
 19 32  1  0  0  0  0
 19 33  2  0  0  0  0
 19 35  1  0  0  0  0
 20 22  2  0  0  0  0
 20 41  1  0  0  0  0
 21 23  2  0  0  0  0
 21 42  1  0  0  0  0
 22 53  1  0  0  0  0
 23 43  1  0  0  0  0
 24 25  2  0  0  0  0
 24 65  1  0  0  0  0
 25 64  1  0  0  0  0
 26 77  1  0  0  0  0
 27 89  1  0  0  0  0
 28 90  1  0  0  0  0
 29 31  2  0  0  0  0
 29 89  1  0  0  0  0
 30 91  1  0  0  0  0
 31 92  1  0  0  0  0
 32 70  2  0  0  0  0
 33 71  1  0  0  0  0
 33 75  1  0  0  0  0
 34 44  1  0  0  0  0
 34 72  1  0  0  0  0
 34 82  2  0  0  0  0
 35 76  1  0  0  0  0
 35 83  2  0  0  0  0
 36 54  1  0  0  0  0
 36 78  1  0  0  0  0
 36 84  2  0  0  0  0
 37 67  1  0  0  0  0
 37 73  1  0  0  0  0
 37 85  2  0  0  0  0
 38 57  1  0  0  0  0
 38 80  1  0  0  0  0
 38 86  2  0  0  0  0
 39 68  1  0  0  0  0
 39 79  1  0  0  0  0
 39 87  2  0  0  0  0
 40 74  1  0  0  0  0
 40 77  1  0  0  0  0
 40 88  2  0  0  0  0
 41 45  1  0  0  0  0
 42 54  1  0  0  0  0
 43 73  1  0  0  0  0
 44 55  1  0  0  0  0
 45 47  1  0  0  0  0
 46 48  1  0  0  0  0
 46 50  1  0  0  0  0
 47 53  1  0  0  0  0
 48 56  1  0  0  0  0
 49 51  1  0  0  0  0
 49 55  1  0  0  0  0
 50 74  1  0  0  0  0
 51 72  1  0  0  0  0
 52 56  1  0  0  0  0
 52 74  1  0  0  0  0
 53 78  1  0  0  0  0
 54 73  1  0  0  0  0
 55 66  1  0  0  0  0
 56 71  1  0  0  0  0
 58 68  1  0  0  0  0
 59 69  1  0  0  0  0
 60 69  1  0  0  0  0
 61 69  1  0  0  0  0
 62 80  1  0  0  0  0
 63 81  1  0  0  0  0
 64 72  1  0  0  0  0
 65 80  1  0  0  0  0
 66 90  1  0  0  0  0
 67 69  1  0  0  0  0
 67 79  1  0  0  0  0
 68 81  1  0  0  0  0
 70 71  1  0  0  0  0
M  CHG  1  81   1
M  ISO  4  40 100  66 101  77 100  90 101
M  END
> <Batch ID>
0060

> <Smiles>
CNC(C)C(=O)NC(C(=O)N1Cc2cc([101O:1][101CH2:1]C3CCN(Cc4cc([100NH:0][100C:0](=O)N5CCCC(n6nc(-c7ccc(Oc8ccc(F)cc8F)cc7)c(C(N)=O)c6N)C5)ccc4CN(C)C(C)=O)C(=O)C3)ccc2CC1C(=O)NC1CCCc2ccccc21)C(C)(C)C

> <Shape>
0.242

> <Color>
0.082

> <Negative vol penalty>
0.000

$$$$

  -OEChem-04042323043D

 87 96  0     1  0  0  0  0  0999 V2000
  -20.0151  -30.9596   21.2369 C   0  0  0  0  0  0  0  0  0  0  0  0
  -21.3085  -30.4744   21.4017 C   0  0  0  0  0  0  0  0  0  0  0  0
  -26.5833  -12.8093   21.5928 C   0  0  0  0  0  0  0  0  0  0  0  0
  -25.9569  -13.8429   19.5008 C   0  0  0  0  0  0  0  0  0  0  0  0
  -18.9235  -30.1240   21.4694 C   0  0  0  0  0  0  0  0  0  0  0  0
  -21.5110  -29.1536   21.8002 C   0  0  0  0  0  0  0  0  0  0  0  0
  -25.1288  -26.8460   19.1111 C   0  0  0  0  0  0  0  0  0  0  0  0
  -25.3145  -12.2383   21.6906 C   0  0  0  0  0  0  0  0  0  0  0  0
  -24.6880  -13.2719   19.5986 C   0  0  0  0  0  0  0  0  0  0  0  0
  -26.4515  -27.1401   19.4391 C   0  0  0  0  0  0  0  0  0  0  0  0
  -23.6597   -9.6035   20.3668 C   0  0  0  0  0  0  0  0  0  0  0  0
  -23.5799   -8.2602   20.7338 C   0  0  0  0  0  0  0  0  0  0  0  0
  -26.5906  -25.0855   20.6955 C   0  0  0  0  0  0  0  0  0  0  0  0
  -29.5234  -23.5129   16.6069 C   0  0  0  0  0  0  0  0  0  0  0  0
  -28.9825  -21.2586   17.2868 C   0  0  0  0  0  0  0  0  0  0  0  0
  -30.1701  -22.7236   18.7968 C   0  0  0  0  0  0  0  0  0  0  0  0
  -22.2788   -8.8683   22.6766 C   0  0  0  0  0  0  0  0  0  0  0  0
  -26.9046  -13.6116   20.4979 C   0  0  0  0  0  0  0  0  0  0  0  0
  -29.3525  -13.6464   19.7810 C   0  0  0  0  0  0  0  0  0  0  0  0
  -19.1129  -28.7894   21.8617 C   0  0  0  0  0  0  0  0  0  0  0  0
  -24.5226  -25.6727   19.5826 C   0  0  0  0  0  0  0  0  0  0  0  0
  -20.4209  -28.2997   22.0395 C   0  0  0  0  0  0  0  0  0  0  0  0
  -25.2608  -24.7775   20.3699 C   0  0  0  0  0  0  0  0  0  0  0  0
  -28.9473  -22.2732   16.3302 C   0  0  0  0  0  0  0  0  0  0  0  0
  -30.1349  -23.7382   17.8402 C   0  0  0  0  0  0  0  0  0  0  0  0
  -29.5939  -21.4838   18.5201 C   0  0  0  0  0  0  0  0  0  0  0  0
  -24.3668  -12.4696   20.6936 C   0  0  0  0  0  0  0  0  0  0  0  0
  -27.1817  -26.2613   20.2338 C   0  0  0  0  0  0  0  0  0  0  0  0
  -23.0492  -10.5793   21.1547 C   0  0  0  0  0  0  0  0  0  0  0  0
  -22.8895   -7.8926   21.8887 C   0  0  0  0  0  0  0  0  0  0  0  0
  -22.3587  -10.2117   22.3096 C   0  0  0  0  0  0  0  0  0  0  0  0
  -28.2149  -14.2022   20.3965 C   0  0  0  0  0  0  0  0  0  0  0  0
  -30.3331  -14.5925   19.9539 C   0  0  0  0  0  0  0  0  0  0  0  0
  -31.8217  -27.1394   17.5442 C   0  0  0  0  0  0  0  0  0  0  0  0
  -31.5663  -27.7089   18.7367 C   0  0  0  0  0  0  0  0  0  0  0  0
  -31.2767  -25.8194   17.1136 C   0  0  0  0  0  0  0  0  0  0  0  0
  -29.5089  -12.3876   19.1128 C   0  0  0  0  0  0  0  0  0  0  0  0
  -22.0395  -25.0291   21.4598 C   0  0  0  0  0  0  0  0  0  0  0  0
  -22.6749  -21.9684   20.5935 C   0  0  0  0  0  0  0  0  0  0  0  0
  -24.9501  -19.6908   19.4607 C   0  0  0  0  0  0  0  0  0  0  0  0
  -30.1978  -20.5111   20.7641 C   0  0  0  0  0  0  0  0  0  0  0  0
  -17.9013  -27.9378   22.1472 C   0  0  0  0  0  0  0  0  0  0  0  0
  -23.1033  -25.3568   19.1977 C   0  0  0  0  0  0  0  0  0  0  0  0
  -24.6627  -23.4947   20.8846 C   0  0  0  0  0  0  0  0  0  0  0  0
  -18.2070  -26.4433   22.2040 C   0  0  0  0  0  0  0  0  0  0  0  0
  -31.6712  -18.0987   22.9289 C   0  0  0  0  0  0  0  0  0  0  0  0
  -19.4484  -26.1842   23.0517 C   0  0  0  0  0  0  0  0  0  0  0  0
  -31.0602  -16.7743   22.4652 C   0  0  0  0  0  0  0  0  0  0  0  0
  -30.6650  -19.2455   22.8510 C   0  0  0  0  0  0  0  0  0  0  0  0
  -30.9019  -25.4192   19.5257 C   0  0  0  0  0  0  0  0  0  0  0  0
  -29.4008  -18.0865   21.0825 C   0  0  0  0  0  0  0  0  0  0  0  0
  -20.6817  -26.8657   22.4467 C   0  0  1  0  0  0  0  0  0  0  0  0
  -30.7086  -26.9301   19.7286 C   0  0  2  0  0  0  0  0  0  0  0  0
  -22.4258  -24.3846   20.1586 C   0  0  1  0  0  0  0  0  0  0  0  0
  -30.3956  -16.9142   21.0816 C   0  0  2  0  0  0  0  0  0  0  0  0
  -28.2947  -22.0323   15.0106 C   0  0  0  0  0  0  0  0  0  0  0  0
  -25.8251  -17.4950   18.6181 C   0  0  0  0  0  0  0  0  0  0  0  0
  -22.7702  -21.2794   23.5644 C   0  0  0  0  0  0  0  0  0  0  0  0
  -23.9180  -19.1381   22.9597 C   0  0  0  0  0  0  0  0  0  0  0  0
  -21.6060  -19.5871   22.1378 C   0  0  0  0  0  0  0  0  0  0  0  0
  -24.3420  -20.3946   16.6511 C   0  0  0  0  0  0  0  0  0  0  0  0
  -29.2234  -27.3120   19.6143 C   0  0  0  0  0  0  0  0  0  1  0  0
  -23.5464  -20.8623   21.1376 C   0  0  1  0  0  0  0  0  0  0  0  0
  -24.8703  -18.6499   18.3587 C   0  0  2  0  0  0  0  0  0  0  0  0
  -22.9711  -20.2417   22.4420 C   0  0  0  0  0  0  0  0  0  0  0  0
  -28.4497  -15.4078   20.9213 N   0  0  0  0  0  0  0  0  0  0  0  0
  -29.7462  -15.6173   20.6361 N   0  0  0  0  0  0  0  0  0  0  0  0
  -30.7301  -25.0193   18.1255 N   0  0  0  0  0  0  0  0  0  0  0  0
  -23.2696  -23.2336   20.4862 N   0  0  0  0  0  0  0  0  0  0  0  0
  -30.0795  -19.3197   21.5106 N   0  0  0  0  0  0  0  0  0  0  0  0
  -31.6316  -14.6394   19.5874 N   0  0  0  0  0  0  0  0  0  0  0  0
  -28.3995  -11.5355   19.0248 N   0  0  0  0  0  0  0  0  0  0  0  0
  -29.6309  -20.4528   19.4914 N   0  0  0  0  0  0  0  0  0  0  0  0
  -21.1804  -26.1027   21.3226 N   0  0  0  0  0  0  0  0  0  0  0  0
  -23.7217  -19.9076   20.0485 N   0  0  0  0  0  0  0  0  0  0  0  0
  -25.2168  -19.2599   17.0439 N   0  3  0  0  0  0  0  0  0  0  0  0
  -31.9510  -28.8176   19.2022 O   0  5  0  0  0  0  0  0  0  0  0  0
  -31.3912  -25.5255   15.9241 O   0  0  0  0  0  0  0  0  0  0  0  0
  -30.6042  -12.0219   18.6229 O   0  0  0  0  0  0  0  0  0  0  0  0
  -22.4865  -24.5843   22.5105 O   0  0  0  0  0  0  0  0  0  0  0  0
  -21.5116  -21.7174   20.2688 O   0  0  0  0  0  0  0  0  0  0  0  0
  -25.9980  -20.2525   19.7718 O   0  0  0  0  0  0  0  0  0  0  0  0
  -30.7844  -21.5007   21.2098 O   0  0  0  0  0  0  0  0  0  0  0  0
  -23.1287  -11.9124   20.7886 O   0  0  0  0  0  0  0  0  0  0  0  0
  -28.4728  -26.5463   20.5560 O   0  0  0  0  0  0  0  0  0  1  0  0
  -22.8116   -6.6024   22.2402 F   0  0  0  0  0  0  0  0  0  0  0  0
  -21.7691  -11.1445   23.0699 F   0  0  0  0  0  0  0  0  0  0  0  0
  1  2  1  0  0  0  0
  1  5  2  0  0  0  0
  2  6  2  0  0  0  0
  3  8  2  0  0  0  0
  3 18  1  0  0  0  0
  4  9  1  0  0  0  0
  4 18  2  0  0  0  0
  5 20  1  0  0  0  0
  6 22  1  0  0  0  0
  7 10  2  0  0  0  0
  7 21  1  0  0  0  0
  8 27  1  0  0  0  0
  9 27  2  0  0  0  0
 10 28  1  0  0  0  0
 11 12  2  0  0  0  0
 11 29  1  0  0  0  0
 12 30  1  0  0  0  0
 13 23  1  0  0  0  0
 13 28  2  0  0  0  0
 14 24  2  0  0  0  0
 14 25  1  0  0  0  0
 15 24  1  0  0  0  0
 15 26  2  0  0  0  0
 16 25  2  0  0  0  0
 16 26  1  0  0  0  0
 17 30  2  0  0  0  0
 17 31  1  0  0  0  0
 18 32  1  0  0  0  0
 19 32  1  0  0  0  0
 19 33  2  0  0  0  0
 19 37  1  0  0  0  0
 20 22  2  0  0  0  0
 20 42  1  0  0  0  0
 21 23  2  0  0  0  0
 21 43  1  0  0  0  0
 22 52  1  0  0  0  0
 23 44  1  0  0  0  0
 24 56  1  0  0  0  0
 25 68  1  0  0  0  0
 26 73  1  0  0  0  0
 27 84  1  0  0  0  0
 28 85  1  0  0  0  0
 29 31  2  0  0  0  0
 29 84  1  0  0  0  0
 30 86  1  0  0  0  0
 31 87  1  0  0  0  0
 32 66  2  0  0  0  0
 33 67  1  0  0  0  0
 33 71  1  0  0  0  0
 34 35  2  0  0  0  0
 34 36  1  0  0  0  0
 35 53  1  0  0  0  0
 35 77  1  0  0  0  0
 36 68  1  0  0  0  0
 36 78  2  0  0  0  0
 37 72  1  0  0  0  0
 37 79  2  0  0  0  0
 38 54  1  0  0  0  0
 38 74  1  0  0  0  0
 38 80  2  0  0  0  0
 39 63  1  0  0  0  0
 39 69  1  0  0  0  0
 39 81  2  0  0  0  0
 40 64  1  0  0  0  0
 40 75  1  0  0  0  0
 40 82  2  0  0  0  0
 41 70  1  0  0  0  0
 41 73  1  0  0  0  0
 41 83  2  0  0  0  0
 42 45  1  0  0  0  0
 43 54  1  0  0  0  0
 44 69  1  0  0  0  0
 45 47  1  0  0  0  0
 46 48  1  0  0  0  0
 46 49  1  0  0  0  0
 47 52  1  0  0  0  0
 48 55  1  0  0  0  0
 49 70  1  0  0  0  0
 50 53  1  0  0  0  0
 50 68  1  0  0  0  0
 51 55  1  0  0  0  0
 51 70  1  0  0  0  0
 52 74  1  0  0  0  0
 53 62  1  0  0  0  0
 54 69  1  0  0  0  0
 55 67  1  0  0  0  0
 57 64  1  0  0  0  0
 58 65  1  0  0  0  0
 59 65  1  0  0  0  0
 60 65  1  0  0  0  0
 61 76  1  0  0  0  0
 62 85  1  0  0  0  0
 63 65  1  0  0  0  0
 63 75  1  0  0  0  0
 64 76  1  0  0  0  0
 66 67  1  0  0  0  0
M  CHG  2  76   1  77  -1
M  ISO  4  41 100  62 101  73 100  85 101
M  END
> <Batch ID>
0060

> <Smiles>
CNC(C)C(=O)NC(C(=O)N1Cc2cc([101O:1][101CH2:1]C3CN(c4cc(C)cc([100NH:0][100C:0](=O)N5CCCC(n6nc(-c7ccc(Oc8ccc(F)cc8F)cc7)c(C(N)=O)c6N)C5)c4)C(=O)CC3=O)ccc2CC1C(=O)NC1CCCc2ccccc21)C(C)(C)C

> <Shape>
0.282

> <Color>
0.077

> <Negative vol penalty>
0.000

$$$$

  -OEChem-04042323043D

 85 94  0     1  0  0  0  0  0999 V2000
  -31.2316  -12.0067   20.6348 C   0  0  0  0  0  0  0  0  0  0  0  0
  -30.9186  -13.3121   20.2698 C   0  0  0  0  0  0  0  0  0  0  0  0
  -32.7452  -26.6828   19.3527 C   0  0  0  0  0  0  0  0  0  0  0  0
  -20.1222  -28.5270   23.3097 C   0  0  0  0  0  0  0  0  0  0  0  0
  -21.2397  -26.4375   22.8383 C   0  0  0  0  0  0  0  0  0  0  0  0
  -30.2928  -10.9909   20.4596 C   0  0  0  0  0  0  0  0  0  0  0  0
  -29.6668  -13.6024   19.7283 C   0  0  0  0  0  0  0  0  0  0  0  0
  -27.6024  -17.7700   21.7318 C   0  0  0  0  0  0  0  0  0  0  0  0
  -33.3352  -25.4308   19.1604 C   0  0  0  0  0  0  0  0  0  0  0  0
  -18.9406  -28.0163   22.7724 C   0  0  0  0  0  0  0  0  0  0  0  0
  -20.0581  -25.9268   22.3011 C   0  0  0  0  0  0  0  0  0  0  0  0
  -28.0771  -18.9986   21.2746 C   0  0  0  0  0  0  0  0  0  0  0  0
  -17.2407  -23.9473   21.1338 C   0  0  0  0  0  0  0  0  0  0  0  0
  -16.8667  -22.6544   21.4999 C   0  0  0  0  0  0  0  0  0  0  0  0
  -30.6289  -27.9379   20.1619 C   0  0  0  0  0  0  0  0  0  0  0  0
  -26.1590  -19.1932   19.8246 C   0  0  0  0  0  0  0  0  0  0  0  0
  -16.7810  -23.3351   23.8164 C   0  0  0  0  0  0  0  0  0  0  0  0
  -31.4346  -26.7842   19.8788 C   0  0  0  0  0  0  0  0  0  0  0  0
  -21.2718  -27.7376   23.3426 C   0  0  0  0  0  0  0  0  0  0  0  0
  -22.9198  -28.1908   25.2364 C   0  0  0  0  0  0  0  0  0  0  0  0
  -29.0254  -11.2705   19.9246 C   0  0  0  0  0  0  0  0  0  0  0  0
  -26.4060  -17.2378   21.2299 C   0  0  0  0  0  0  0  0  0  0  0  0
  -28.7106  -12.5892   19.5445 C   0  0  0  0  0  0  0  0  0  0  0  0
  -25.6700  -17.9589   20.2789 C   0  0  0  0  0  0  0  0  0  0  0  0
  -32.6422  -24.2727   19.4831 C   0  0  0  0  0  0  0  0  0  0  0  0
  -31.3484  -24.3395   20.0037 C   0  0  0  0  0  0  0  0  0  0  0  0
  -18.9086  -26.7162   22.2681 C   0  0  0  0  0  0  0  0  0  0  0  0
  -27.3569  -19.7091   20.3187 C   0  0  0  0  0  0  0  0  0  0  0  0
  -17.3850  -24.9341   22.1091 C   0  0  0  0  0  0  0  0  0  0  0  0
  -16.6368  -22.3483   22.8411 C   0  0  0  0  0  0  0  0  0  0  0  0
  -17.1551  -24.6280   23.4504 C   0  0  0  0  0  0  0  0  0  0  0  0
  -30.7565  -25.6033   20.1964 C   0  0  0  0  0  0  0  0  0  0  0  0
  -22.4928  -28.2648   23.8970 C   0  0  0  0  0  0  0  0  0  0  0  0
  -24.1322  -28.8360   25.2464 C   0  0  0  0  0  0  0  0  0  0  0  0
  -29.3941  -27.6158   20.6728 C   0  0  0  0  0  0  0  0  0  0  0  0
  -22.2778  -27.5923   26.3701 C   0  0  0  0  0  0  0  0  0  0  0  0
  -25.6209  -14.6143   19.6161 C   0  0  0  0  0  0  0  0  0  0  0  0
  -22.5991  -15.6854   20.1097 C   0  0  0  0  0  0  0  0  0  0  0  0
  -29.4455  -22.7049   19.8014 C   0  0  0  0  0  0  0  0  0  0  0  0
  -20.5269  -18.3226   20.7408 C   0  0  0  0  0  0  0  0  0  0  0  0
  -28.2598  -29.8346   21.0426 C   0  0  0  0  0  0  0  0  0  0  0  0
  -28.0606  -10.1314   19.7100 C   0  0  0  0  0  0  0  0  0  0  0  0
  -25.8939  -15.9238   21.7531 C   0  0  0  0  0  0  0  0  0  0  0  0
  -24.3696  -17.4408   19.7233 C   0  0  0  0  0  0  0  0  0  0  0  0
  -26.6223  -10.5869   19.4774 C   0  0  0  0  0  0  0  0  0  0  0  0
  -26.5557  -32.2887   22.9793 C   0  0  0  0  0  0  0  0  0  0  0  0
  -26.5806  -11.7271   18.4650 C   0  0  0  0  0  0  0  0  0  0  0  0
  -25.3626  -31.5270   23.5612 C   0  0  0  0  0  0  0  0  0  0  0  0
  -26.8787  -31.8354   21.5566 C   0  0  0  0  0  0  0  0  0  0  0  0
  -25.8718  -29.6263   21.9753 C   0  0  0  0  0  0  0  0  0  0  0  0
  -27.3545  -12.9480   18.9768 C   0  0  1  0  0  0  0  0  0  0  0  0
  -24.9266  -15.2355   20.7950 C   0  0  1  0  0  0  0  0  0  0  0  0
  -25.5492  -30.0027   23.4306 C   0  0  2  0  0  0  0  0  0  0  0  0
  -33.3123  -22.9542   19.2601 C   0  0  0  0  0  0  0  0  0  0  0  0
  -18.1029  -18.8926   21.0523 C   0  0  0  0  0  0  0  0  0  0  0  0
  -22.1624  -15.4641   17.0980 C   0  0  0  0  0  0  0  0  0  0  0  0
  -20.1324  -16.9064   17.3567 C   0  0  0  0  0  0  0  0  0  0  0  0
  -20.2363  -14.6873   18.4912 C   0  0  0  0  0  0  0  0  0  0  0  0
  -20.9905  -19.2968   23.4967 C   0  0  0  0  0  0  0  0  0  0  0  0
  -29.0472  -21.3788   20.4221 C   0  0  0  0  0  0  0  0  0  1  0  0
  -21.6510  -16.5926   19.3632 C   0  0  1  0  0  0  0  0  0  0  0  0
  -19.4003  -18.5012   21.7425 C   0  0  2  0  0  0  0  0  0  0  0  0
  -21.0710  -15.9217   18.0861 C   0  0  0  0  0  0  0  0  0  0  0  0
  -23.3632  -28.9065   23.1130 N   0  0  0  0  0  0  0  0  0  0  0  0
  -24.3492  -29.2417   23.9624 N   0  0  0  0  0  0  0  0  0  0  0  0
  -23.9137  -16.1486   20.2616 N   0  0  0  0  0  0  0  0  0  0  0  0
  -27.0461  -30.3812   21.5106 N   0  0  0  0  0  0  0  0  0  0  0  0
  -25.0233  -29.0903   26.2281 N   0  0  0  0  0  0  0  0  0  0  0  0
  -21.0355  -26.9708   26.1836 N   0  0  0  0  0  0  0  0  0  0  0  0
  -30.6529  -23.1507   20.3283 N   0  0  0  0  0  0  0  0  0  0  0  0
  -28.3153  -28.4416   21.0754 N   0  0  0  0  0  0  0  0  0  0  0  0
  -26.5702  -13.6695   19.9560 N   0  0  0  0  0  0  0  0  0  0  0  0
  -20.6412  -17.0116   20.3292 N   0  0  0  0  0  0  0  0  0  0  0  0
  -19.7473  -19.5636   22.7283 N   0  3  0  0  0  0  0  0  0  0  0  0
  -22.7830  -27.6224   27.5179 O   0  0  0  0  0  0  0  0  0  0  0  0
  -25.3167  -14.9651   18.4821 O   0  0  0  0  0  0  0  0  0  0  0  0
  -22.1865  -14.6089   20.5484 O   0  0  0  0  0  0  0  0  0  0  0  0
  -28.7479  -23.2531   18.9544 O   0  0  0  0  0  0  0  0  0  0  0  0
  -21.2323  -19.2537   20.3587 O   0  0  0  0  0  0  0  0  0  0  0  0
  -29.1920  -30.5503   20.6678 O   0  0  0  0  0  0  0  0  0  0  0  0
  -17.7557  -26.2175   21.7440 O   0  0  0  0  0  0  0  0  0  0  0  0
  -27.8183  -20.9082   19.8703 O   0  0  0  0  0  0  0  0  0  1  0  0
  -16.2760  -21.1070   23.1924 F   0  0  0  0  0  0  0  0  0  0  0  0
  -17.2910  -25.5721   24.3916 F   0  0  0  0  0  0  0  0  0  0  0  0
  -29.1829  -25.9309   20.8205 S   0  0  0  0  0  0  0  0  0  0  0  0
  1  2  1  0  0  0  0
  1  6  2  0  0  0  0
  2  7  2  0  0  0  0
  3  9  1  0  0  0  0
  3 18  2  0  0  0  0
  4 10  2  0  0  0  0
  4 19  1  0  0  0  0
  5 11  1  0  0  0  0
  5 19  2  0  0  0  0
  6 21  1  0  0  0  0
  7 23  1  0  0  0  0
  8 12  2  0  0  0  0
  8 22  1  0  0  0  0
  9 25  2  0  0  0  0
 10 27  1  0  0  0  0
 11 27  2  0  0  0  0
 12 28  1  0  0  0  0
 13 14  2  0  0  0  0
 13 29  1  0  0  0  0
 14 30  1  0  0  0  0
 15 18  1  0  0  0  0
 15 35  2  0  0  0  0
 16 24  1  0  0  0  0
 16 28  2  0  0  0  0
 17 30  2  0  0  0  0
 17 31  1  0  0  0  0
 18 32  1  0  0  0  0
 19 33  1  0  0  0  0
 20 33  1  0  0  0  0
 20 34  2  0  0  0  0
 20 36  1  0  0  0  0
 21 23  2  0  0  0  0
 21 42  1  0  0  0  0
 22 24  2  0  0  0  0
 22 43  1  0  0  0  0
 23 51  1  0  0  0  0
 24 44  1  0  0  0  0
 25 26  1  0  0  0  0
 25 54  1  0  0  0  0
 26 32  2  0  0  0  0
 26 70  1  0  0  0  0
 27 81  1  0  0  0  0
 28 82  1  0  0  0  0
 29 31  2  0  0  0  0
 29 81  1  0  0  0  0
 30 83  1  0  0  0  0
 31 84  1  0  0  0  0
 32 85  1  0  0  0  0
 33 64  2  0  0  0  0
 34 65  1  0  0  0  0
 34 68  1  0  0  0  0
 35 71  1  0  0  0  0
 35 85  1  0  0  0  0
 36 69  1  0  0  0  0
 36 75  2  0  0  0  0
 37 52  1  0  0  0  0
 37 72  1  0  0  0  0
 37 76  2  0  0  0  0
 38 61  1  0  0  0  0
 38 66  1  0  0  0  0
 38 77  2  0  0  0  0
 39 60  1  0  0  0  0
 39 70  1  0  0  0  0
 39 78  2  0  0  0  0
 40 62  1  0  0  0  0
 40 73  1  0  0  0  0
 40 79  2  0  0  0  0
 41 67  1  0  0  0  0
 41 71  1  0  0  0  0
 41 80  2  0  0  0  0
 42 45  1  0  0  0  0
 43 52  1  0  0  0  0
 44 66  1  0  0  0  0
 45 47  1  0  0  0  0
 46 48  1  0  0  0  0
 46 49  1  0  0  0  0
 47 51  1  0  0  0  0
 48 53  1  0  0  0  0
 49 67  1  0  0  0  0
 50 53  1  0  0  0  0
 50 67  1  0  0  0  0
 51 72  1  0  0  0  0
 52 66  1  0  0  0  0
 53 65  1  0  0  0  0
 55 62  1  0  0  0  0
 56 63  1  0  0  0  0
 57 63  1  0  0  0  0
 58 63  1  0  0  0  0
 59 74  1  0  0  0  0
 60 82  1  0  0  0  0
 61 63  1  0  0  0  0
 61 73  1  0  0  0  0
 62 74  1  0  0  0  0
 64 65  1  0  0  0  0
M  CHG  1  74   1
M  ISO  4  41 100  60 101  71 100  82 101
M  END
> <Batch ID>
0060

> <Smiles>
CNC(C)C(=O)NC(C(=O)N1Cc2cc([101O:1][101CH2:1]C(=O)Nc3c(C)ccc4cc([100NH:0][100C:0](=O)N5CCCC(n6nc(-c7ccc(Oc8ccc(F)cc8F)cc7)c(C(N)=O)c6N)C5)sc34)ccc2CC1C(=O)NC1CCCc2ccccc21)C(C)(C)C

> <Shape>
0.243

> <Color>
0.069

> <Negative vol penalty>
0.000

$$$$

  -OEChem-04042323043D

 85 94  0     1  0  0  0  0  0999 V2000
  -19.9190  -27.3796   25.9308 C   0  0  0  0  0  0  0  0  0  0  0  0
  -21.2634  -27.0248   25.9790 C   0  0  0  0  0  0  0  0  0  0  0  0
  -23.1759   -9.8181   21.4044 C   0  0  0  0  0  0  0  0  0  0  0  0
  -23.8423  -10.7970   23.5103 C   0  0  0  0  0  0  0  0  0  0  0  0
  -19.2636  -27.4580   24.7027 C   0  0  0  0  0  0  0  0  0  0  0  0
  -21.9528  -26.7472   24.7992 C   0  0  0  0  0  0  0  0  0  0  0  0
  -28.4678  -27.3129   21.8749 C   0  0  0  0  0  0  0  0  0  0  0  0
  -29.4326  -19.6527   19.9230 C   0  0  0  0  0  0  0  0  0  0  0  0
  -29.3020  -18.3814   20.4818 C   0  0  0  0  0  0  0  0  0  0  0  0
  -22.4533   -8.8400   22.0878 C   0  0  0  0  0  0  0  0  0  0  0  0
  -23.1197   -9.8190   24.1936 C   0  0  0  0  0  0  0  0  0  0  0  0
  -29.4273  -26.5384   21.2244 C   0  0  0  0  0  0  0  0  0  0  0  0
  -19.8922   -9.2084   24.9876 C   0  0  0  0  0  0  0  0  0  0  0  0
  -19.0900   -9.6220   26.0511 C   0  0  0  0  0  0  0  0  0  0  0  0
  -28.2128  -26.7830   19.1545 C   0  0  0  0  0  0  0  0  0  0  0  0
  -31.0076  -17.5490   18.9868 C   0  0  0  0  0  0  0  0  0  0  0  0
  -20.3516   -8.2100   27.5518 C   0  0  0  0  0  0  0  0  0  0  0  0
  -23.8704  -10.7965   22.1157 C   0  0  0  0  0  0  0  0  0  0  0  0
  -24.1499  -13.0613   20.9754 C   0  0  0  0  0  0  0  0  0  0  0  0
  -19.9478  -27.1906   23.5065 C   0  0  0  0  0  0  0  0  0  0  0  0
  -27.3659  -27.8200   21.1712 C   0  0  0  0  0  0  0  0  0  0  0  0
  -21.3056  -26.8208   23.5541 C   0  0  0  0  0  0  0  0  0  0  0  0
  -27.2420  -27.5658   19.7978 C   0  0  0  0  0  0  0  0  0  0  0  0
  -30.3506  -19.8721   18.8959 C   0  0  0  0  0  0  0  0  0  0  0  0
  -30.0895  -17.3295   20.0138 C   0  0  0  0  0  0  0  0  0  0  0  0
  -22.4252   -8.8405   23.4823 C   0  0  0  0  0  0  0  0  0  0  0  0
  -29.2984  -26.2709   19.8646 C   0  0  0  0  0  0  0  0  0  0  0  0
  -20.9240   -8.2955   25.2062 C   0  0  0  0  0  0  0  0  0  0  0  0
  -19.3197   -9.1229   27.3332 C   0  0  0  0  0  0  0  0  0  0  0  0
  -31.1381  -18.8203   18.4279 C   0  0  0  0  0  0  0  0  0  0  0  0
  -21.1537   -7.7964   26.4883 C   0  0  0  0  0  0  0  0  0  0  0  0
  -24.6175  -11.8068   21.4104 C   0  0  0  0  0  0  0  0  0  0  0  0
  -25.2356  -13.6393   20.3641 C   0  0  0  0  0  0  0  0  0  0  0  0
  -30.2649  -22.4049   18.9787 C   0  0  0  0  0  0  0  0  0  0  0  0
  -22.8504  -13.6515   21.1118 C   0  0  0  0  0  0  0  0  0  0  0  0
  -24.2154  -27.4450   21.3640 C   0  0  0  0  0  0  0  0  0  0  0  0
  -24.1922  -29.7647   19.0968 C   0  0  0  0  0  0  0  0  0  0  0  0
  -25.8490  -31.3823   16.5897 C   0  0  0  0  0  0  0  0  0  0  0  0
  -30.6607  -14.8858   20.2338 C   0  0  0  0  0  0  0  0  0  0  0  0
  -19.1848  -27.2423   22.2066 C   0  0  0  0  0  0  0  0  0  0  0  0
  -26.3537  -28.6761   21.8818 C   0  0  0  0  0  0  0  0  0  0  0  0
  -26.0885  -28.1039   18.9926 C   0  0  0  0  0  0  0  0  0  0  0  0
  -20.0840  -27.2975   20.9743 C   0  0  0  0  0  0  0  0  0  0  0  0
  -29.7069  -11.6693   19.0417 C   0  0  0  0  0  0  0  0  0  0  0  0
  -21.1986  -26.2615   21.0799 C   0  0  0  0  0  0  0  0  0  0  0  0
  -28.2593  -11.5215   19.5159 C   0  0  0  0  0  0  0  0  0  0  0  0
  -30.5420  -22.8086   16.6497 C   0  0  0  0  0  0  0  0  0  0  0  0
  -30.5665  -12.4084   20.0657 C   0  0  0  0  0  0  0  0  0  0  0  0
  -30.9272  -21.3760   16.9597 C   0  0  0  0  0  0  0  0  0  0  0  0
  -28.5869  -13.5579   20.9763 C   0  0  0  0  0  0  0  0  0  0  0  0
  -22.0940  -26.5363   22.2941 C   0  0  1  0  0  0  0  0  0  0  0  0
  -30.6597  -23.4994   18.0005 C   0  0  1  0  0  0  0  0  0  0  0  0
  -25.0012  -28.7119   21.1768 C   0  0  1  0  0  0  0  0  0  0  0  0
  -27.6672  -12.8768   19.9497 C   0  0  2  0  0  0  0  0  0  0  0  0
  -25.5579  -33.2101   14.8951 C   0  0  0  0  0  0  0  0  0  0  0  0
  -22.4732  -27.9074   17.3923 C   0  0  0  0  0  0  0  0  0  0  0  0
  -23.0086  -29.3429   15.4122 C   0  0  0  0  0  0  0  0  0  0  0  0
  -21.7717  -30.3075   17.3518 C   0  0  0  0  0  0  0  0  0  0  0  0
  -28.0698  -32.9631   17.7421 C   0  0  0  0  0  0  0  0  0  0  0  0
  -29.7920  -24.7387   18.1140 C   0  0  0  0  0  0  0  0  0  1  0  0
  -24.2341  -29.7853   17.5879 C   0  0  1  0  0  0  0  0  0  0  0  0
  -26.0362  -32.8597   16.2955 C   0  0  2  0  0  0  0  0  0  0  0  0
  -22.8927  -29.3239   16.9514 C   0  0  0  0  0  0  0  0  0  0  0  0
  -25.9003  -11.5992   21.1015 N   0  0  0  0  0  0  0  0  0  0  0  0
  -26.2480  -12.7310   20.4658 N   0  0  0  0  0  0  0  0  0  0  0  0
  -30.4820  -21.1739   18.3259 N   0  0  0  0  0  0  0  0  0  0  0  0
  -25.1216  -28.9304   19.7339 N   0  0  0  0  0  0  0  0  0  0  0  0
  -29.9455  -13.6849   20.4260 N   0  0  0  0  0  0  0  0  0  0  0  0
  -25.4135  -14.8307   19.7547 N   0  0  0  0  0  0  0  0  0  0  0  0
  -21.8501  -12.9207   21.7673 N   0  0  0  0  0  0  0  0  0  0  0  0
  -29.9567  -16.0382   20.5817 N   0  0  0  0  0  0  0  0  0  0  0  0
  -23.0081  -27.6224   22.0125 N   0  0  0  0  0  0  0  0  0  0  0  0
  -24.6425  -31.1338   17.2092 N   0  0  0  0  0  0  0  0  0  0  0  0
  -27.4749  -33.2320   16.4076 N   0  3  0  0  0  0  0  0  0  0  0  0
  -29.8980  -22.6300   20.1229 O   0  0  0  0  0  0  0  0  0  0  0  0
  -22.5795  -14.7864   20.6512 O   0  0  0  0  0  0  0  0  0  0  0  0
  -24.6700  -26.3852   20.9495 O   0  0  0  0  0  0  0  0  0  0  0  0
  -23.3700  -30.4686   19.6885 O   0  0  0  0  0  0  0  0  0  0  0  0
  -26.6875  -30.5331   16.2958 O   0  0  0  0  0  0  0  0  0  0  0  0
  -31.8029  -14.8934   19.7675 O   0  0  0  0  0  0  0  0  0  0  0  0
  -21.7200   -7.8864   24.1495 O   0  0  0  0  0  0  0  0  0  0  0  0
  -30.2332  -25.5147   19.2274 O   0  0  0  0  0  0  0  0  0  1  0  0
  -18.5503   -9.5213   28.3547 F   0  0  0  0  0  0  0  0  0  0  0  0
  -32.0234  -19.0194   17.4407 F   0  0  0  0  0  0  0  0  0  0  0  0
  -22.1442   -6.9201   26.7046 F   0  0  0  0  0  0  0  0  0  0  0  0
  1  2  1  0  0  0  0
  1  5  2  0  0  0  0
  2  6  2  0  0  0  0
  3 10  2  0  0  0  0
  3 18  1  0  0  0  0
  4 11  1  0  0  0  0
  4 18  2  0  0  0  0
  5 20  1  0  0  0  0
  6 22  1  0  0  0  0
  7 12  2  0  0  0  0
  7 21  1  0  0  0  0
  8  9  2  0  0  0  0
  8 24  1  0  0  0  0
  9 25  1  0  0  0  0
 10 26  1  0  0  0  0
 11 26  2  0  0  0  0
 12 27  1  0  0  0  0
 13 14  2  0  0  0  0
 13 28  1  0  0  0  0
 14 29  1  0  0  0  0
 15 23  1  0  0  0  0
 15 27  2  0  0  0  0
 16 25  2  0  0  0  0
 16 30  1  0  0  0  0
 17 29  2  0  0  0  0
 17 31  1  0  0  0  0
 18 32  1  0  0  0  0
 19 32  1  0  0  0  0
 19 33  2  0  0  0  0
 19 35  1  0  0  0  0
 20 22  2  0  0  0  0
 20 40  1  0  0  0  0
 21 23  2  0  0  0  0
 21 41  1  0  0  0  0
 22 51  1  0  0  0  0
 23 42  1  0  0  0  0
 24 30  2  0  0  0  0
 24 66  1  0  0  0  0
 25 71  1  0  0  0  0
 26 81  1  0  0  0  0
 27 82  1  0  0  0  0
 28 31  2  0  0  0  0
 28 81  1  0  0  0  0
 29 83  1  0  0  0  0
 30 84  1  0  0  0  0
 31 85  1  0  0  0  0
 32 64  2  0  0  0  0
 33 65  1  0  0  0  0
 33 69  1  0  0  0  0
 34 52  1  0  0  0  0
 34 66  1  0  0  0  0
 34 75  2  0  0  0  0
 35 70  1  0  0  0  0
 35 76  2  0  0  0  0
 36 53  1  0  0  0  0
 36 72  1  0  0  0  0
 36 77  2  0  0  0  0
 37 61  1  0  0  0  0
 37 67  1  0  0  0  0
 37 78  2  0  0  0  0
 38 62  1  0  0  0  0
 38 73  1  0  0  0  0
 38 79  2  0  0  0  0
 39 68  1  0  0  0  0
 39 71  1  0  0  0  0
 39 80  2  0  0  0  0
 40 43  1  0  0  0  0
 41 53  1  0  0  0  0
 42 67  1  0  0  0  0
 43 45  1  0  0  0  0
 44 46  1  0  0  0  0
 44 48  1  0  0  0  0
 45 51  1  0  0  0  0
 46 54  1  0  0  0  0
 47 49  1  0  0  0  0
 47 52  1  0  0  0  0
 48 68  1  0  0  0  0
 49 66  1  0  0  0  0
 50 54  1  0  0  0  0
 50 68  1  0  0  0  0
 51 72  1  0  0  0  0
 52 60  1  0  0  0  0
 53 67  1  0  0  0  0
 54 65  1  0  0  0  0
 55 62  1  0  0  0  0
 56 63  1  0  0  0  0
 57 63  1  0  0  0  0
 58 63  1  0  0  0  0
 59 74  1  0  0  0  0
 60 82  1  0  0  0  0
 61 63  1  0  0  0  0
 61 73  1  0  0  0  0
 62 74  1  0  0  0  0
 64 65  1  0  0  0  0
M  CHG  1  74   1
M  ISO  4  39 100  60 101  71 100  82 101
M  END
> <Batch ID>
0060

> <Smiles>
CNC(C)C(=O)NC(C(=O)N1Cc2cc([101O:1][101CH2:1]C3CCN(c4ccc([100NH:0][100C:0](=O)N5CCCC(n6nc(-c7ccc(Oc8ccc(F)cc8F)cc7)c(C(N)=O)c6N)C5)cc4F)C3=O)ccc2CC1C(=O)NC1CCCc2ccccc21)C(C)(C)C

> <Shape>
0.287

> <Color>
0.171

> <Negative vol penalty>
0.000

$$$$

  -OEChem-04042323043D

 85 93  0     1  0  0  0  0  0999 V2000
  -27.3063  -37.8838   21.9719 C   0  0  0  0  0  0  0  0  0  0  0  0
  -27.8001  -36.8439   21.1906 C   0  0  0  0  0  0  0  0  0  0  0  0
  -24.7934   -8.6799   21.6214 C   0  0  0  0  0  0  0  0  0  0  0  0
  -23.2452  -10.0182   20.3374 C   0  0  0  0  0  0  0  0  0  0  0  0
  -26.6383  -37.6028   23.1629 C   0  0  0  0  0  0  0  0  0  0  0  0
  -27.6270  -35.5224   21.6007 C   0  0  0  0  0  0  0  0  0  0  0  0
  -26.6255  -28.9415   18.9540 C   0  0  0  0  0  0  0  0  0  0  0  0
  -23.7430   -8.2342   22.4236 C   0  0  0  0  0  0  0  0  0  0  0  0
  -22.1947   -9.5726   21.1396 C   0  0  0  0  0  0  0  0  0  0  0  0
  -27.1546  -27.6544   19.0388 C   0  0  0  0  0  0  0  0  0  0  0  0
  -21.2463   -5.9628   22.2236 C   0  0  0  0  0  0  0  0  0  0  0  0
  -21.1866   -4.6002   22.5157 C   0  0  0  0  0  0  0  0  0  0  0  0
  -25.0801  -19.7396   17.7778 C   0  0  0  0  0  0  0  0  0  0  0  0
  -25.3005  -17.3521   17.4811 C   0  0  0  0  0  0  0  0  0  0  0  0
  -25.9150  -27.2856   21.0752 C   0  0  0  0  0  0  0  0  0  0  0  0
  -26.9766  -18.5755   18.7184 C   0  0  0  0  0  0  0  0  0  0  0  0
  -21.3542   -5.0983   24.8739 C   0  0  0  0  0  0  0  0  0  0  0  0
  -24.5445   -9.5719   20.5783 C   0  0  0  0  0  0  0  0  0  0  0  0
  -24.5948  -18.5360   17.2665 C   0  0  0  0  0  0  0  0  0  0  0  0
  -26.1028   -9.4425   18.5627 C   0  0  0  0  0  0  0  0  0  0  0  0
  -26.4484  -36.2768   23.5829 C   0  0  0  0  0  0  0  0  0  0  0  0
  -25.7441  -29.4150   19.9366 C   0  0  0  0  0  0  0  0  0  0  0  0
  -26.9569  -35.2235   22.7992 C   0  0  0  0  0  0  0  0  0  0  0  0
  -25.3741  -28.5782   20.9991 C   0  0  0  0  0  0  0  0  0  0  0  0
  -26.2710  -19.7594   18.5038 C   0  0  0  0  0  0  0  0  0  0  0  0
  -26.4914  -17.3718   18.2071 C   0  0  0  0  0  0  0  0  0  0  0  0
  -22.4436   -8.6806   22.1828 C   0  0  0  0  0  0  0  0  0  0  0  0
  -26.8016  -26.8273   20.1011 C   0  0  0  0  0  0  0  0  0  0  0  0
  -21.3600   -6.8932   23.2567 C   0  0  0  0  0  0  0  0  0  0  0  0
  -21.2406   -4.1679   23.8408 C   0  0  0  0  0  0  0  0  0  0  0  0
  -21.4139   -6.4609   24.5818 C   0  0  0  0  0  0  0  0  0  0  0  0
  -25.6293  -10.0331   19.7497 C   0  0  0  0  0  0  0  0  0  0  0  0
  -27.1354  -10.2552   18.1631 C   0  0  0  0  0  0  0  0  0  0  0  0
  -23.3527  -18.5162   16.5096 C   0  0  0  0  0  0  0  0  0  0  0  0
  -27.0195  -23.2724   19.5917 C   0  0  0  0  0  0  0  0  0  0  0  0
  -22.3905  -19.4659   16.5409 C   0  0  0  0  0  0  0  0  0  0  0  0
  -26.6314  -24.5518   19.5875 C   0  0  0  0  0  0  0  0  0  1  0  0
  -25.6497   -8.2647   17.8822 C   0  0  0  0  0  0  0  0  0  0  0  0
  -26.1909  -22.2402   18.9031 C   0  0  0  0  0  0  0  0  0  0  0  0
  -25.8002  -31.7973   22.0401 C   0  0  0  0  0  0  0  0  0  0  0  0
  -22.7509  -30.8486   22.6092 C   0  0  0  0  0  0  0  0  0  0  0  0
  -20.4233  -28.3553   22.4953 C   0  0  0  0  0  0  0  0  0  0  0  0
  -28.4048  -16.0144   19.1249 C   0  0  0  0  0  0  0  0  0  0  0  0
  -25.7614  -36.0244   24.9016 C   0  0  0  0  0  0  0  0  0  0  0  0
  -25.1612  -30.7963   19.8162 C   0  0  0  0  0  0  0  0  0  0  0  0
  -24.4158  -29.0316   22.0690 C   0  0  0  0  0  0  0  0  0  0  0  0
  -25.2913  -34.5827   25.0773 C   0  0  0  0  0  0  0  0  0  0  0  0
  -30.4628  -13.2191   19.9176 C   0  0  0  0  0  0  0  0  0  0  0  0
  -26.3946  -33.6088   24.6759 C   0  0  0  0  0  0  0  0  0  0  0  0
  -29.5012  -12.0304   19.8505 C   0  0  0  0  0  0  0  0  0  0  0  0
  -29.7866  -14.4639   20.4894 C   0  0  0  0  0  0  0  0  0  0  0  0
  -27.5748  -13.6635   19.7572 C   0  0  0  0  0  0  0  0  0  0  0  0
  -26.7672  -33.7760   23.1979 C   0  0  1  0  0  0  0  0  0  0  0  0
  -24.6737  -31.3573   21.1485 C   0  0  1  0  0  0  0  0  0  0  0  0
  -28.1925  -12.4043   19.1274 C   0  0  2  0  0  0  0  0  0  0  0  0
  -21.1236  -19.3989   15.7514 C   0  0  0  0  0  0  0  0  0  0  0  0
  -18.0283  -27.8687   23.0650 C   0  0  0  0  0  0  0  0  0  0  0  0
  -23.4956  -30.6519   25.5616 C   0  0  0  0  0  0  0  0  0  0  0  0
  -21.4266  -29.2888   25.9210 C   0  0  0  0  0  0  0  0  0  0  0  0
  -21.2430  -31.6433   25.1178 C   0  0  0  0  0  0  0  0  0  0  0  0
  -19.7498  -27.7703   19.6734 C   0  0  0  0  0  0  0  0  0  0  0  0
  -22.0955  -29.8592   23.5423 C   0  0  1  0  0  0  0  0  0  0  0  0
  -18.9934  -28.3346   21.9860 C   0  0  2  0  0  0  0  0  0  0  0  0
  -22.0848  -30.3527   25.0167 C   0  0  0  0  0  0  0  0  0  0  0  0
  -26.3057  -11.1357   20.0824 N   0  0  0  0  0  0  0  0  0  0  0  0
  -27.2148  -11.2444   19.0987 N   0  0  0  0  0  0  0  0  0  0  0  0
  -23.8778  -30.3928   21.9105 N   0  0  0  0  0  0  0  0  0  0  0  0
  -28.5562  -14.7597   19.7523 N   0  0  0  0  0  0  0  0  0  0  0  0
  -27.9742  -10.2129   17.1062 N   0  0  0  0  0  0  0  0  0  0  0  0
  -24.5771   -7.5477   18.4297 N   0  0  0  0  0  0  0  0  0  0  0  0
  -26.7644  -20.9813   19.0235 N   0  0  0  0  0  0  0  0  0  0  0  0
  -27.2078  -16.1692   18.4265 N   0  0  0  0  0  0  0  0  0  0  0  0
  -25.7777  -33.1432   22.3524 N   0  0  0  0  0  0  0  0  0  0  0  0
  -20.7710  -29.5940   22.9913 N   0  0  0  0  0  0  0  0  0  0  0  0
  -18.8725  -27.4160   20.8187 N   0  3  0  0  0  0  0  0  0  0  0  0
  -26.1909   -7.8508   16.8290 O   0  0  0  0  0  0  0  0  0  0  0  0
  -25.1517  -22.5404   18.3274 O   0  0  0  0  0  0  0  0  0  0  0  0
  -26.6277  -30.9762   22.4180 O   0  0  0  0  0  0  0  0  0  0  0  0
  -22.2760  -31.9817   22.4987 O   0  0  0  0  0  0  0  0  0  0  0  0
  -21.1572  -27.3700   22.4602 O   0  0  0  0  0  0  0  0  0  0  0  0
  -29.2849  -16.8773   19.1789 O   0  0  0  0  0  0  0  0  0  0  0  0
  -21.4183   -8.2457   22.9652 O   0  0  0  0  0  0  0  0  0  0  0  0
  -27.3172  -25.5708   20.1867 O   0  0  0  0  0  0  0  0  0  1  0  0
  -21.1817   -2.8595   24.1211 F   0  0  0  0  0  0  0  0  0  0  0  0
  -21.5219   -7.3501   25.5786 F   0  0  0  0  0  0  0  0  0  0  0  0
  1  2  1  0  0  0  0
  1  5  2  0  0  0  0
  2  6  2  0  0  0  0
  3  8  2  0  0  0  0
  3 18  1  0  0  0  0
  4  9  1  0  0  0  0
  4 18  2  0  0  0  0
  5 21  1  0  0  0  0
  6 23  1  0  0  0  0
  7 10  2  0  0  0  0
  7 22  1  0  0  0  0
  8 27  1  0  0  0  0
  9 27  2  0  0  0  0
 10 28  1  0  0  0  0
 11 12  2  0  0  0  0
 11 29  1  0  0  0  0
 12 30  1  0  0  0  0
 13 19  1  0  0  0  0
 13 25  2  0  0  0  0
 14 19  2  0  0  0  0
 14 26  1  0  0  0  0
 15 24  1  0  0  0  0
 15 28  2  0  0  0  0
 16 25  1  0  0  0  0
 16 26  2  0  0  0  0
 17 30  2  0  0  0  0
 17 31  1  0  0  0  0
 18 32  1  0  0  0  0
 19 34  1  0  0  0  0
 20 32  1  0  0  0  0
 20 33  2  0  0  0  0
 20 38  1  0  0  0  0
 21 23  2  0  0  0  0
 21 44  1  0  0  0  0
 22 24  2  0  0  0  0
 22 45  1  0  0  0  0
 23 53  1  0  0  0  0
 24 46  1  0  0  0  0
 25 71  1  0  0  0  0
 26 72  1  0  0  0  0
 27 82  1  0  0  0  0
 28 83  1  0  0  0  0
 29 31  2  0  0  0  0
 29 82  1  0  0  0  0
 30 84  1  0  0  0  0
 31 85  1  0  0  0  0
 32 65  2  0  0  0  0
 33 66  1  0  0  0  0
 33 69  1  0  0  0  0
 34 36  2  0  0  0  0
 35 37  2  0  0  0  0
 35 39  1  0  0  0  0
 36 56  1  0  0  0  0
 37 83  1  0  0  0  0
 38 70  1  0  0  0  0
 38 76  2  0  0  0  0
 39 71  1  0  0  0  0
 39 77  2  0  0  0  0
 40 54  1  0  0  0  0
 40 73  1  0  0  0  0
 40 78  2  0  0  0  0
 41 62  1  0  0  0  0
 41 67  1  0  0  0  0
 41 79  2  0  0  0  0
 42 63  1  0  0  0  0
 42 74  1  0  0  0  0
 42 80  2  0  0  0  0
 43 68  1  0  0  0  0
 43 72  1  0  0  0  0
 43 81  2  0  0  0  0
 44 47  1  0  0  0  0
 45 54  1  0  0  0  0
 46 67  1  0  0  0  0
 47 49  1  0  0  0  0
 48 50  1  0  0  0  0
 48 51  1  0  0  0  0
 49 53  1  0  0  0  0
 50 55  1  0  0  0  0
 51 68  1  0  0  0  0
 52 55  1  0  0  0  0
 52 68  1  0  0  0  0
 53 73  1  0  0  0  0
 54 67  1  0  0  0  0
 55 66  1  0  0  0  0
 57 63  1  0  0  0  0
 58 64  1  0  0  0  0
 59 64  1  0  0  0  0
 60 64  1  0  0  0  0
 61 75  1  0  0  0  0
 62 64  1  0  0  0  0
 62 74  1  0  0  0  0
 63 75  1  0  0  0  0
 65 66  1  0  0  0  0
M  CHG  1  75   1
M  ISO  4  37 101  43 100  72 100  83 101
M  END
> <Batch ID>
0060

> <Smiles>
CC=Cc1cc(NC(=O)C=[101CH:1][101O:1]c2ccc3c(c2)CN(C(=O)C(NC(=O)C(C)NC)C(C)(C)C)C(C(=O)NC2CCCc4ccccc42)C3)cc([100NH:0][100C:0](=O)N2CCCC(n3nc(-c4ccc(Oc5ccc(F)cc5F)cc4)c(C(N)=O)c3N)C2)c1

> <Shape>
0.295

> <Color>
0.103

> <Negative vol penalty>
0.000

$$$$

  -OEChem-04042323043D

 87 95  0     1  0  0  0  0  0999 V2000
  -18.9276  -24.1138   23.9698 C   0  0  0  0  0  0  0  0  0  0  0  0
  -20.1637  -23.9847   23.3447 C   0  0  0  0  0  0  0  0  0  0  0  0
  -21.1361  -15.1047   22.3762 C   0  0  0  0  0  0  0  0  0  0  0  0
  -21.1940  -15.9764   20.1237 C   0  0  0  0  0  0  0  0  0  0  0  0
  -18.2676  -25.3419   23.9599 C   0  0  0  0  0  0  0  0  0  0  0  0
  -20.7400  -25.0834   22.7083 C   0  0  0  0  0  0  0  0  0  0  0  0
  -26.7054  -26.4245   22.3599 C   0  0  0  0  0  0  0  0  0  0  0  0
  -28.2708  -20.0698   16.0059 C   0  0  0  0  0  0  0  0  0  0  0  0
  -28.0089  -19.0435   16.9136 C   0  0  0  0  0  0  0  0  0  0  0  0
  -19.8502  -15.6190   22.5422 C   0  0  0  0  0  0  0  0  0  0  0  0
  -19.9081  -16.4907   20.2897 C   0  0  0  0  0  0  0  0  0  0  0  0
  -27.6562  -26.2191   21.3611 C   0  0  0  0  0  0  0  0  0  0  0  0
  -18.4675  -19.1682   21.7684 C   0  0  0  0  0  0  0  0  0  0  0  0
  -18.2292  -20.4710   21.3310 C   0  0  0  0  0  0  0  0  0  0  0  0
  -29.6107  -19.9952   18.4517 C   0  0  0  0  0  0  0  0  0  0  0  0
  -27.2905  -28.4648   20.5596 C   0  0  0  0  0  0  0  0  0  0  0  0
  -16.5440  -19.6509   19.8062 C   0  0  0  0  0  0  0  0  0  0  0  0
  -21.8080  -15.2834   21.1670 C   0  0  0  0  0  0  0  0  0  0  0  0
  -29.8726  -21.0214   17.5440 C   0  0  0  0  0  0  0  0  0  0  0  0
  -23.4869  -13.4783   20.5107 C   0  0  0  0  0  0  0  0  0  0  0  0
  -18.8406  -26.4587   23.3314 C   0  0  0  0  0  0  0  0  0  0  0  0
  -26.0310  -27.6499   22.4594 C   0  0  0  0  0  0  0  0  0  0  0  0
  -20.0865  -26.3273   22.6888 C   0  0  0  0  0  0  0  0  0  0  0  0
  -26.3334  -28.6841   21.5621 C   0  0  0  0  0  0  0  0  0  0  0  0
  -29.2027  -21.0587   16.3211 C   0  0  0  0  0  0  0  0  0  0  0  0
  -28.6788  -19.0063   18.1365 C   0  0  0  0  0  0  0  0  0  0  0  0
  -19.2362  -16.3120   21.4990 C   0  0  0  0  0  0  0  0  0  0  0  0
  -27.9468  -27.2383   20.4590 C   0  0  0  0  0  0  0  0  0  0  0  0
  -17.7441  -18.1066   21.2247 C   0  0  0  0  0  0  0  0  0  0  0  0
  -17.2674  -20.7124   20.3499 C   0  0  0  0  0  0  0  0  0  0  0  0
  -16.7824  -18.3480   20.2436 C   0  0  0  0  0  0  0  0  0  0  0  0
  -23.1366  -14.7528   20.9951 C   0  0  0  0  0  0  0  0  0  0  0  0
  -24.8600  -13.4653   20.5401 C   0  0  0  0  0  0  0  0  0  0  0  0
  -30.8625  -22.0588   17.8967 C   0  0  0  0  0  0  0  0  0  0  0  0
  -22.6462  -12.4024   20.0732 C   0  0  0  0  0  0  0  0  0  0  0  0
  -22.9941  -28.5631   22.2422 C   0  0  0  0  0  0  0  0  0  0  0  0
  -29.9172  -26.0257   16.9560 C   0  0  0  0  0  0  0  0  0  0  0  0
  -24.2000  -31.4363   23.1438 C   0  0  0  0  0  0  0  0  0  0  0  0
  -26.8940  -33.5249   23.3087 C   0  0  0  0  0  0  0  0  0  0  0  0
  -28.9890  -17.7787   20.3144 C   0  0  0  0  0  0  0  0  0  0  0  0
  -18.0676  -27.7535   23.3060 C   0  0  0  0  0  0  0  0  0  0  0  0
  -25.0274  -27.8647   23.5590 C   0  0  0  0  0  0  0  0  0  0  0  0
  -25.6521  -30.0251   21.6388 C   0  0  0  0  0  0  0  0  0  0  0  0
  -18.9193  -28.9641   22.9328 C   0  0  0  0  0  0  0  0  0  0  0  0
  -28.5734  -15.3618   22.8956 C   0  0  0  0  0  0  0  0  0  0  0  0
  -19.7852  -28.6529   21.7161 C   0  0  0  0  0  0  0  0  0  0  0  0
  -27.1662  -14.8110   22.6534 C   0  0  0  0  0  0  0  0  0  0  0  0
  -28.6558  -16.8579   22.5982 C   0  0  0  0  0  0  0  0  0  0  0  0
  -26.7639  -16.7038   21.0278 C   0  0  0  0  0  0  0  0  0  0  0  0
  -20.7555  -27.5023   22.0093 C   0  0  1  0  0  0  0  0  0  0  0  0
  -24.0301  -28.9767   23.2489 C   0  0  1  0  0  0  0  0  0  0  0  0
  -26.6473  -15.1872   21.2517 C   0  0  2  0  0  0  0  0  0  0  0  0
  -29.4651  -22.1476   15.3330 C   0  0  0  0  0  0  0  0  0  0  0  0
  -30.8483  -26.1113   15.7724 C   0  0  0  0  0  0  0  0  0  0  0  0
  -27.5620  -35.8223   24.0655 C   0  0  0  0  0  0  0  0  0  0  0  0
  -22.8319  -32.6380   20.6955 C   0  0  0  0  0  0  0  0  0  0  0  0
  -24.2798  -34.6624   20.9666 C   0  0  0  0  0  0  0  0  0  0  0  0
  -22.6735  -34.0298   22.7672 C   0  0  0  0  0  0  0  0  0  0  0  0
  -28.8566  -32.4436   25.2421 C   0  0  0  0  0  0  0  0  0  0  0  0
  -31.3433  -24.4486   18.2899 C   0  0  0  0  0  0  0  0  0  0  0  0
  -29.5107  -25.7639   19.4410 C   0  0  0  0  0  0  0  0  0  1  0  0
  -30.5562  -25.7573   18.3215 C   0  0  2  0  0  0  0  0  0  0  0  0
  -24.7551  -32.6381   22.4181 C   0  0  1  0  0  0  0  0  0  0  0  0
  -27.4572  -34.3543   24.4485 C   0  0  2  0  0  0  0  0  0  0  0  0
  -23.6467  -33.4663   21.7089 C   0  0  0  0  0  0  0  0  0  0  0  0
  -24.2013  -15.4955   21.3094 N   0  0  0  0  0  0  0  0  0  0  0  0
  -25.2341  -14.6852   21.0219 N   0  0  0  0  0  0  0  0  0  0  0  0
  -24.6739  -30.1842   22.7275 N   0  0  0  0  0  0  0  0  0  0  0  0
  -28.1515  -17.1386   21.2522 N   0  0  0  0  0  0  0  0  0  0  0  0
  -25.7718  -12.5294   20.2006 N   0  0  0  0  0  0  0  0  0  0  0  0
  -32.1151  -21.6743   18.1419 N   0  0  0  0  0  0  0  0  0  0  0  0
  -21.2569  -12.5833   20.1083 N   0  0  0  0  0  0  0  0  0  0  0  0
  -28.4124  -17.9636   19.0582 N   0  0  0  0  0  0  0  0  0  0  0  0
  -21.8745  -27.9731   22.7971 N   0  0  0  0  0  0  0  0  0  0  0  0
  -25.5250  -33.3900   23.4031 N   0  0  0  0  0  0  0  0  0  0  0  0
  -30.4551  -23.3321   17.9553 N   0  3  0  0  0  0  0  0  0  0  0  0
  -28.8156  -33.8677   24.8212 N   0  3  0  0  0  0  0  0  0  0  0  0
  -23.1129  -11.3069   19.6788 O   0  0  0  0  0  0  0  0  0  0  0  0
  -23.1950  -28.7656   21.0505 O   0  0  0  0  0  0  0  0  0  0  0  0
  -28.7007  -26.1417   16.8068 O   0  0  0  0  0  0  0  0  0  0  0  0
  -23.3815  -31.6029   24.0516 O   0  0  0  0  0  0  0  0  0  0  0  0
  -27.5976  -33.0476   22.4211 O   0  0  0  0  0  0  0  0  0  0  0  0
  -30.1429  -18.1119   20.5960 O   0  0  0  0  0  0  0  0  0  0  0  0
  -17.9813  -16.8138   21.6605 O   0  0  0  0  0  0  0  0  0  0  0  0
  -28.8739  -27.0403   19.4827 O   0  0  0  0  0  0  0  0  0  1  0  0
  -17.0376  -21.9638   19.9311 F   0  0  0  0  0  0  0  0  0  0  0  0
  -16.0835  -17.3324   19.7184 F   0  0  0  0  0  0  0  0  0  0  0  0
  1  2  1  0  0  0  0
  1  5  2  0  0  0  0
  2  6  2  0  0  0  0
  3 10  2  0  0  0  0
  3 18  1  0  0  0  0
  4 11  1  0  0  0  0
  4 18  2  0  0  0  0
  5 21  1  0  0  0  0
  6 23  1  0  0  0  0
  7 12  2  0  0  0  0
  7 22  1  0  0  0  0
  8  9  2  0  0  0  0
  8 25  1  0  0  0  0
  9 26  1  0  0  0  0
 10 27  1  0  0  0  0
 11 27  2  0  0  0  0
 12 28  1  0  0  0  0
 13 14  2  0  0  0  0
 13 29  1  0  0  0  0
 14 30  1  0  0  0  0
 15 19  1  0  0  0  0
 15 26  2  0  0  0  0
 16 24  1  0  0  0  0
 16 28  2  0  0  0  0
 17 30  2  0  0  0  0
 17 31  1  0  0  0  0
 18 32  1  0  0  0  0
 19 25  2  0  0  0  0
 19 34  1  0  0  0  0
 20 32  1  0  0  0  0
 20 33  2  0  0  0  0
 20 35  1  0  0  0  0
 21 23  2  0  0  0  0
 21 41  1  0  0  0  0
 22 24  2  0  0  0  0
 22 42  1  0  0  0  0
 23 50  1  0  0  0  0
 24 43  1  0  0  0  0
 25 53  1  0  0  0  0
 26 73  1  0  0  0  0
 27 84  1  0  0  0  0
 28 85  1  0  0  0  0
 29 31  2  0  0  0  0
 29 84  1  0  0  0  0
 30 86  1  0  0  0  0
 31 87  1  0  0  0  0
 32 66  2  0  0  0  0
 33 67  1  0  0  0  0
 33 70  1  0  0  0  0
 34 71  1  0  0  0  0
 34 76  2  0  0  0  0
 35 72  1  0  0  0  0
 35 78  2  0  0  0  0
 36 51  1  0  0  0  0
 36 74  1  0  0  0  0
 36 79  2  0  0  0  0
 37 54  1  0  0  0  0
 37 62  1  0  0  0  0
 37 80  2  0  0  0  0
 38 63  1  0  0  0  0
 38 68  1  0  0  0  0
 38 81  2  0  0  0  0
 39 64  1  0  0  0  0
 39 75  1  0  0  0  0
 39 82  2  0  0  0  0
 40 69  1  0  0  0  0
 40 73  1  0  0  0  0
 40 83  2  0  0  0  0
 41 44  1  0  0  0  0
 42 51  1  0  0  0  0
 43 68  1  0  0  0  0
 44 46  1  0  0  0  0
 45 47  1  0  0  0  0
 45 48  1  0  0  0  0
 46 50  1  0  0  0  0
 47 52  1  0  0  0  0
 48 69  1  0  0  0  0
 49 52  1  0  0  0  0
 49 69  1  0  0  0  0
 50 74  1  0  0  0  0
 51 68  1  0  0  0  0
 52 67  1  0  0  0  0
 55 64  1  0  0  0  0
 56 65  1  0  0  0  0
 57 65  1  0  0  0  0
 58 65  1  0  0  0  0
 59 77  1  0  0  0  0
 60 62  1  0  0  0  0
 60 76  1  0  0  0  0
 61 62  1  0  0  0  0
 61 85  1  0  0  0  0
 63 65  1  0  0  0  0
 63 75  1  0  0  0  0
 64 77  1  0  0  0  0
 66 67  1  0  0  0  0
M  CHG  2  76   1  77   1
M  ISO  4  40 100  61 101  73 100  85 101
M  END
> <Batch ID>
0060

> <Smiles>
CNC(C)C(=O)NC(C(=O)N1Cc2cc([101O:1][101CH2:1]C(CNC(=N)c3cc([100NH:0][100C:0](=O)N4CCCC(n5nc(-c6ccc(Oc7ccc(F)cc7F)cc6)c(C(N)=O)c5N)C4)ccc3C)C(C)=O)ccc2CC1C(=O)NC1CCCc2ccccc21)C(C)(C)C

> <Shape>
0.246

> <Color>
0.072

> <Negative vol penalty>
0.000

$$$$

  -OEChem-04042323043D

 86 95  0     1  0  0  0  0  0999 V2000
  -20.5782  -24.8878   25.2605 C   0  0  0  0  0  0  0  0  0  0  0  0
  -21.6552  -24.8461   24.3809 C   0  0  0  0  0  0  0  0  0  0  0  0
  -23.7554   -9.6731   19.9947 C   0  0  0  0  0  0  0  0  0  0  0  0
  -23.2539  -10.8335   22.0536 C   0  0  0  0  0  0  0  0  0  0  0  0
  -19.4972  -25.7283   24.9979 C   0  0  0  0  0  0  0  0  0  0  0  0
  -21.6513  -25.6442   23.2374 C   0  0  0  0  0  0  0  0  0  0  0  0
  -26.0879  -27.9624   22.4710 C   0  0  0  0  0  0  0  0  0  0  0  0
  -27.5767  -20.7836   19.8507 C   0  0  0  0  0  0  0  0  0  0  0  0
  -27.5309  -19.5337   20.4680 C   0  0  0  0  0  0  0  0  0  0  0  0
  -23.0679   -8.5519   20.4592 C   0  0  0  0  0  0  0  0  0  0  0  0
  -22.5664   -9.7123   22.5181 C   0  0  0  0  0  0  0  0  0  0  0  0
  -27.1194  -27.1991   21.9260 C   0  0  0  0  0  0  0  0  0  0  0  0
  -19.5377   -8.2840   22.0624 C   0  0  0  0  0  0  0  0  0  0  0  0
  -18.2988   -8.4906   22.6689 C   0  0  0  0  0  0  0  0  0  0  0  0
  -26.6681  -28.1501   19.7555 C   0  0  0  0  0  0  0  0  0  0  0  0
  -29.8415  -19.1549   19.8722 C   0  0  0  0  0  0  0  0  0  0  0  0
  -19.1295   -7.4920   24.7060 C   0  0  0  0  0  0  0  0  0  0  0  0
  -23.8485  -10.8140   20.7919 C   0  0  0  0  0  0  0  0  0  0  0  0
  -24.0303  -13.0498   19.5772 C   0  0  0  0  0  0  0  0  0  0  0  0
  -19.4844  -26.5442   23.8556 C   0  0  0  0  0  0  0  0  0  0  0  0
  -25.3303  -28.8186   21.6590 C   0  0  0  0  0  0  0  0  0  0  0  0
  -20.5685  -26.4954   22.9585 C   0  0  0  0  0  0  0  0  0  0  0  0
  -25.6292  -28.9251   20.2931 C   0  0  0  0  0  0  0  0  0  0  0  0
  -29.8872  -20.4049   19.2549 C   0  0  0  0  0  0  0  0  0  0  0  0
  -28.7548  -21.2192   19.2441 C   0  0  0  0  0  0  0  0  0  0  0  0
  -28.6633  -18.7193   20.4788 C   0  0  0  0  0  0  0  0  0  0  0  0
  -22.4734   -8.5714   21.7208 C   0  0  0  0  0  0  0  0  0  0  0  0
  -27.4077  -27.2906   20.5675 C   0  0  0  0  0  0  0  0  0  0  0  0
  -20.5726   -7.6813   22.7776 C   0  0  0  0  0  0  0  0  0  0  0  0
  -18.0947   -8.0946   23.9907 C   0  0  0  0  0  0  0  0  0  0  0  0
  -20.3685   -7.2853   24.0994 C   0  0  0  0  0  0  0  0  0  0  0  0
  -24.5590  -11.9723   20.3129 C   0  0  0  0  0  0  0  0  0  0  0  0
  -25.1024  -13.8829   19.3698 C   0  0  0  0  0  0  0  0  0  0  0  0
  -29.0528  -22.7697   17.2608 C   0  0  0  0  0  0  0  0  0  0  0  0
  -22.6899  -13.2773   19.1219 C   0  0  0  0  0  0  0  0  0  0  0  0
  -22.2644  -29.0039   20.8409 C   0  0  0  0  0  0  0  0  0  0  0  0
  -23.2142  -31.7574   19.4133 C   0  0  0  0  0  0  0  0  0  0  0  0
  -25.7489  -33.5846   18.0408 C   0  0  0  0  0  0  0  0  0  0  0  0
  -29.6498  -16.5187   21.2073 C   0  0  0  0  0  0  0  0  0  0  0  0
  -18.2724  -27.4015   23.5894 C   0  0  0  0  0  0  0  0  0  0  0  0
  -24.2384  -29.6553   22.2673 C   0  0  0  0  0  0  0  0  0  0  0  0
  -24.8589  -29.8445   19.3822 C   0  0  0  0  0  0  0  0  0  0  0  0
  -18.5148  -28.4929   22.5501 C   0  0  0  0  0  0  0  0  0  0  0  0
  -30.0486  -13.1423   20.1499 C   0  0  0  0  0  0  0  0  0  0  0  0
  -19.2367  -27.9212   21.3340 C   0  0  0  0  0  0  0  0  0  0  0  0
  -28.6125  -12.6256   20.0375 C   0  0  0  0  0  0  0  0  0  0  0  0
  -30.2156  -14.1020   21.3267 C   0  0  0  0  0  0  0  0  0  0  0  0
  -28.4549  -23.7183   19.3387 C   0  0  0  0  0  0  0  0  0  0  0  0
  -27.8280  -14.7034   21.2435 C   0  0  0  0  0  0  0  0  0  0  0  0
  -20.6122  -27.3644   21.7204 C   0  0  1  0  0  0  0  0  0  0  0  0
  -28.8344  -24.2607   17.0487 C   0  0  1  0  0  0  0  0  0  0  0  0
  -23.1963  -30.1093   21.2498 C   0  0  1  0  0  0  0  0  0  0  0  0
  -29.0012  -24.8331   18.4571 C   0  0  1  0  0  0  0  0  0  0  0  0
  -27.5955  -13.7838   20.0336 C   0  0  2  0  0  0  0  0  0  0  0  0
  -31.1622  -20.8461   18.6124 C   0  0  0  0  0  0  0  0  0  0  0  0
  -29.8008  -24.8519   16.0364 C   0  0  0  0  0  0  0  0  0  0  0  0
  -26.2109  -35.7834   16.9232 C   0  0  0  0  0  0  0  0  0  0  0  0
  -21.9512  -30.7121   16.8400 C   0  0  0  0  0  0  0  0  0  0  0  0
  -23.2421  -32.4502   15.5826 C   0  0  0  0  0  0  0  0  0  0  0  0
  -21.5545  -33.1409   17.2849 C   0  0  0  0  0  0  0  0  0  0  0  0
  -27.6329  -34.4035   20.1713 C   0  0  0  0  0  0  0  0  0  0  0  0
  -28.2757  -26.1529   18.6680 C   0  0  0  0  0  0  0  0  0  1  0  0
  -23.7413  -32.1271   18.0479 C   0  0  1  0  0  0  0  0  0  0  0  0
  -26.1739  -35.0279   18.2425 C   0  0  2  0  0  0  0  0  0  0  0  0
  -22.6357  -32.0887   16.9554 C   0  0  0  0  0  0  0  0  0  0  0  0
  -25.8655  -12.1060   20.5564 N   0  0  0  0  0  0  0  0  0  0  0  0
  -26.1667  -13.2772   19.9702 N   0  0  0  0  0  0  0  0  0  0  0  0
  -28.7809  -22.5016   18.6178 N   0  0  0  0  0  0  0  0  0  0  0  0
  -23.7967  -30.6373   20.0230 N   0  0  0  0  0  0  0  0  0  0  0  0
  -29.2216  -15.1751   21.2543 N   0  0  0  0  0  0  0  0  0  0  0  0
  -25.2292  -15.0670   18.7341 N   0  0  0  0  0  0  0  0  0  0  0  0
  -21.7109  -12.3203   19.4220 N   0  0  0  0  0  0  0  0  0  0  0  0
  -28.6167  -17.4499   21.1067 N   0  0  0  0  0  0  0  0  0  0  0  0
  -21.5638  -28.4414   21.8908 N   0  0  0  0  0  0  0  0  0  0  0  0
  -24.3882  -33.4261   18.1980 N   0  0  0  0  0  0  0  0  0  0  0  0
  -27.5305  -35.0874   18.8565 N   0  3  0  0  0  0  0  0  0  0  0  0
  -29.3469  -22.0015   16.3563 O   0  0  0  0  0  0  0  0  0  0  0  0
  -22.3732  -14.2910   18.4543 O   0  0  0  0  0  0  0  0  0  0  0  0
  -22.1856  -28.6858   19.6601 O   0  0  0  0  0  0  0  0  0  0  0  0
  -22.3235  -32.4417   19.9233 O   0  0  0  0  0  0  0  0  0  0  0  0
  -26.5439  -32.6881   17.7673 O   0  0  0  0  0  0  0  0  0  0  0  0
  -30.8461  -16.8196   21.2255 O   0  0  0  0  0  0  0  0  0  0  0  0
  -21.8023   -7.4776   22.1743 O   0  0  0  0  0  0  0  0  0  0  0  0
  -28.4136  -26.5462   20.0328 O   0  0  0  0  0  0  0  0  0  1  0  0
  -16.9053   -8.2945   24.5735 F   0  0  0  0  0  0  0  0  0  0  0  0
  -21.3592   -6.7069   24.7920 F   0  0  0  0  0  0  0  0  0  0  0  0
  1  2  1  0  0  0  0
  1  5  2  0  0  0  0
  2  6  2  0  0  0  0
  3 10  2  0  0  0  0
  3 18  1  0  0  0  0
  4 11  1  0  0  0  0
  4 18  2  0  0  0  0
  5 20  1  0  0  0  0
  6 22  1  0  0  0  0
  7 12  2  0  0  0  0
  7 21  1  0  0  0  0
  8  9  2  0  0  0  0
  8 25  1  0  0  0  0
  9 26  1  0  0  0  0
 10 27  1  0  0  0  0
 11 27  2  0  0  0  0
 12 28  1  0  0  0  0
 13 14  2  0  0  0  0
 13 29  1  0  0  0  0
 14 30  1  0  0  0  0
 15 23  1  0  0  0  0
 15 28  2  0  0  0  0
 16 24  1  0  0  0  0
 16 26  2  0  0  0  0
 17 30  2  0  0  0  0
 17 31  1  0  0  0  0
 18 32  1  0  0  0  0
 19 32  1  0  0  0  0
 19 33  2  0  0  0  0
 19 35  1  0  0  0  0
 20 22  2  0  0  0  0
 20 40  1  0  0  0  0
 21 23  2  0  0  0  0
 21 41  1  0  0  0  0
 22 50  1  0  0  0  0
 23 42  1  0  0  0  0
 24 25  2  0  0  0  0
 24 55  1  0  0  0  0
 25 68  1  0  0  0  0
 26 73  1  0  0  0  0
 27 83  1  0  0  0  0
 28 84  1  0  0  0  0
 29 31  2  0  0  0  0
 29 83  1  0  0  0  0
 30 85  1  0  0  0  0
 31 86  1  0  0  0  0
 32 66  2  0  0  0  0
 33 67  1  0  0  0  0
 33 71  1  0  0  0  0
 34 51  1  0  0  0  0
 34 68  1  0  0  0  0
 34 77  2  0  0  0  0
 35 72  1  0  0  0  0
 35 78  2  0  0  0  0
 36 52  1  0  0  0  0
 36 74  1  0  0  0  0
 36 79  2  0  0  0  0
 37 63  1  0  0  0  0
 37 69  1  0  0  0  0
 37 80  2  0  0  0  0
 38 64  1  0  0  0  0
 38 75  1  0  0  0  0
 38 81  2  0  0  0  0
 39 70  1  0  0  0  0
 39 73  1  0  0  0  0
 39 82  2  0  0  0  0
 40 43  1  0  0  0  0
 41 52  1  0  0  0  0
 42 69  1  0  0  0  0
 43 45  1  0  0  0  0
 44 46  1  0  0  0  0
 44 47  1  0  0  0  0
 45 50  1  0  0  0  0
 46 54  1  0  0  0  0
 47 70  1  0  0  0  0
 48 53  1  0  0  0  0
 48 68  1  0  0  0  0
 49 54  1  0  0  0  0
 49 70  1  0  0  0  0
 50 74  1  0  0  0  0
 51 53  1  0  0  0  0
 51 56  1  0  0  0  0
 52 69  1  0  0  0  0
 53 62  1  0  0  0  0
 54 67  1  0  0  0  0
 57 64  1  0  0  0  0
 58 65  1  0  0  0  0
 59 65  1  0  0  0  0
 60 65  1  0  0  0  0
 61 76  1  0  0  0  0
 62 84  1  0  0  0  0
 63 65  1  0  0  0  0
 63 75  1  0  0  0  0
 64 76  1  0  0  0  0
 66 67  1  0  0  0  0
M  CHG  1  76   1
M  ISO  4  39 100  62 101  73 100  84 101
M  END
> <Batch ID>
0060

> <Smiles>
CNC(C)C(=O)NC(C(=O)N1Cc2cc([101O:1][101CH2:1]C3CN(c4ccc([100NH:0][100C:0](=O)N5CCCC(n6nc(-c7ccc(Oc8ccc(F)cc8F)cc7)c(C(N)=O)c6N)C5)cc4C)C(=O)C3C)ccc2CC1C(=O)NC1CCCc2ccccc21)C(C)(C)C

> <Shape>
0.285

> <Color>
0.124

> <Negative vol penalty>
0.000

$$$$

  -OEChem-04042323043D

 88 96  0     1  0  0  0  0  0999 V2000
  -36.2902  -28.9369   25.1152 C   0  0  0  0  0  0  0  0  0  0  0  0
  -35.1995  -28.3869   24.4496 C   0  0  0  0  0  0  0  0  0  0  0  0
  -24.2582   -8.7308   20.5198 C   0  0  0  0  0  0  0  0  0  0  0  0
  -22.8035  -10.5744   21.0872 C   0  0  0  0  0  0  0  0  0  0  0  0
  -36.0871  -29.7638   26.2192 C   0  0  0  0  0  0  0  0  0  0  0  0
  -33.9049  -28.6626   24.8883 C   0  0  0  0  0  0  0  0  0  0  0  0
  -30.7585  -29.7749   21.0793 C   0  0  0  0  0  0  0  0  0  0  0  0
  -28.8744  -20.5894   20.8534 C   0  0  0  0  0  0  0  0  0  0  0  0
  -28.9753  -19.2211   21.1047 C   0  0  0  0  0  0  0  0  0  0  0  0
  -23.2852   -7.8299   20.9524 C   0  0  0  0  0  0  0  0  0  0  0  0
  -21.8304   -9.6735   21.5197 C   0  0  0  0  0  0  0  0  0  0  0  0
  -30.2685  -28.7088   20.3262 C   0  0  0  0  0  0  0  0  0  0  0  0
  -21.3237   -5.0529   22.2426 C   0  0  0  0  0  0  0  0  0  0  0  0
  -21.7346   -3.9865   23.0422 C   0  0  0  0  0  0  0  0  0  0  0  0
  -28.2016  -28.7899   21.5674 C   0  0  0  0  0  0  0  0  0  0  0  0
  -22.5597   -5.5438   24.6949 C   0  0  0  0  0  0  0  0  0  0  0  0
  -24.0174  -10.1031   20.5872 C   0  0  0  0  0  0  0  0  0  0  0  0
  -25.1800  -11.5580   18.8439 C   0  0  0  0  0  0  0  0  0  0  0  0
  -34.7891  -30.0576   26.6658 C   0  0  0  0  0  0  0  0  0  0  0  0
  -29.9766  -30.3504   22.0911 C   0  0  0  0  0  0  0  0  0  0  0  0
  -33.6842  -29.4931   26.0001 C   0  0  0  0  0  0  0  0  0  0  0  0
  -28.6830  -29.8648   22.3302 C   0  0  0  0  0  0  0  0  0  0  0  0
  -27.6401  -20.1266   18.8287 C   0  0  0  0  0  0  0  0  0  0  0  0
  -28.2067  -21.0422   19.7154 C   0  0  0  0  0  0  0  0  0  0  0  0
  -28.4087  -18.3055   20.2180 C   0  0  0  0  0  0  0  0  0  0  0  0
  -22.0713   -8.3012   21.4523 C   0  0  0  0  0  0  0  0  0  0  0  0
  -28.9910  -28.2143   20.5721 C   0  0  0  0  0  0  0  0  0  0  0  0
  -21.5307   -6.3648   22.6690 C   0  0  0  0  0  0  0  0  0  0  0  0
  -22.3526   -4.2320   24.2684 C   0  0  0  0  0  0  0  0  0  0  0  0
  -22.1487   -6.6102   23.8952 C   0  0  0  0  0  0  0  0  0  0  0  0
  -27.7411  -18.7582   19.0800 C   0  0  0  0  0  0  0  0  0  0  0  0
  -25.0224  -11.0342   20.1411 C   0  0  0  0  0  0  0  0  0  0  0  0
  -26.2693  -12.3892   18.9393 C   0  0  0  0  0  0  0  0  0  0  0  0
  -27.2299  -17.7518   15.3274 C   0  0  0  0  0  0  0  0  0  0  0  0
  -28.3256  -24.7931   19.6793 C   0  0  0  0  0  0  0  0  0  0  0  0
  -28.7383  -25.9055   20.2955 C   0  0  0  0  0  0  0  0  0  1  0  0
  -27.8774  -17.9624   16.4749 C   0  0  0  0  0  0  0  0  0  0  0  0
  -24.4106  -11.3150   17.6588 C   0  0  0  0  0  0  0  0  0  0  0  0
  -28.6310  -23.4573   20.2697 C   0  0  0  0  0  0  0  0  0  0  0  0
  -30.2664  -30.6737   25.2400 C   0  0  0  0  0  0  0  0  0  0  0  0
  -27.5807  -32.4629   24.9116 C   0  0  0  0  0  0  0  0  0  0  0  0
  -24.7870  -33.1876   23.0904 C   0  0  0  0  0  0  0  0  0  0  0  0
  -29.1682  -16.3348   21.5911 C   0  0  0  0  0  0  0  0  0  0  0  0
  -34.6209  -30.9187   27.8925 C   0  0  0  0  0  0  0  0  0  0  0  0
  -30.5095  -31.5171   22.8766 C   0  0  0  0  0  0  0  0  0  0  0  0
  -27.7958  -30.4608   23.3914 C   0  0  0  0  0  0  0  0  0  0  0  0
  -33.2052  -31.4630   28.0653 C   0  0  0  0  0  0  0  0  0  0  0  0
  -29.6516  -12.9730   22.6597 C   0  0  0  0  0  0  0  0  0  0  0  0
  -32.1779  -30.3556   27.8529 C   0  0  0  0  0  0  0  0  0  0  0  0
  -28.5033  -12.2120   21.9930 C   0  0  0  0  0  0  0  0  0  0  0  0
  -29.2217  -14.3682   23.1093 C   0  0  0  0  0  0  0  0  0  0  0  0
  -27.4494  -14.4309   21.3993 C   0  0  0  0  0  0  0  0  0  0  0  0
  -32.2639  -29.7887   26.4307 C   0  0  1  0  0  0  0  0  0  0  0  0
  -29.8227  -31.6915   24.2277 C   0  0  1  0  0  0  0  0  0  0  0  0
  -27.8519  -13.0443   20.8712 C   0  0  2  0  0  0  0  0  0  0  0  0
  -26.9255  -20.6226   17.6096 C   0  0  0  0  0  0  0  0  0  0  0  0
  -22.7630  -34.6711   23.0942 C   0  0  0  0  0  0  0  0  0  0  0  0
  -26.2970  -30.7020   27.0473 C   0  0  0  0  0  0  0  0  0  0  0  0
  -24.0651  -31.5843   26.3342 C   0  0  0  0  0  0  0  0  0  0  0  0
  -25.7823  -33.1403   27.2579 C   0  0  0  0  0  0  0  0  0  0  0  0
  -25.5810  -34.4730   20.5456 C   0  0  0  0  0  0  0  0  0  0  0  0
  -26.0979  -32.1806   24.9402 C   0  0  1  0  0  0  0  0  0  0  0  0
  -24.2012  -34.5093   22.6273 C   0  0  2  0  0  0  0  0  0  0  0  0
  -25.5778  -31.8891   26.3761 C   0  0  0  0  0  0  0  0  0  0  0  0
  -25.9383  -11.4940   20.9976 N   0  0  0  0  0  0  0  0  0  0  0  0
  -25.5198  -17.9784   17.9367 N   0  0  0  0  0  0  0  0  0  0  0  0
  -26.6820  -12.3154   20.2371 N   0  0  0  0  0  0  0  0  0  0  0  0
  -28.3644  -31.5959   24.1369 N   0  0  0  0  0  0  0  0  0  0  0  0
  -28.6175  -15.0997   21.9937 N   0  0  0  0  0  0  0  0  0  0  0  0
  -26.9048  -13.1687   18.0388 N   0  0  0  0  0  0  0  0  0  0  0  0
  -23.3242  -10.4329   17.7367 N   0  0  0  0  0  0  0  0  0  0  0  0
  -28.1178  -22.4364   19.4809 N   0  0  0  0  0  0  0  0  0  0  0  0
  -28.5301  -16.9221   20.4991 N   0  0  0  0  0  0  0  0  0  0  0  0
  -31.6254  -30.6843   25.4901 N   0  0  0  0  0  0  0  0  0  0  0  0
  -25.4535  -33.3169   24.2905 N   0  0  0  0  0  0  0  0  0  0  0  0
  -24.2247  -34.5933   21.1396 N   0  3  0  0  0  0  0  0  0  0  0  0
  -24.6884  -11.8512   16.5593 O   0  0  0  0  0  0  0  0  0  0  0  0
  -29.2580  -23.3543   21.3175 O   0  0  0  0  0  0  0  0  0  0  0  0
  -29.4370  -29.9344   25.7570 O   0  0  0  0  0  0  0  0  0  0  0  0
  -28.0262  -33.4216   25.5471 O   0  0  0  0  0  0  0  0  0  0  0  0
  -24.6622  -32.1440   22.4533 O   0  0  0  0  0  0  0  0  0  0  0  0
  -30.1516  -16.8214   22.1552 O   0  0  0  0  0  0  0  0  0  0  0  0
  -27.5074  -16.2844   18.3606 O   0  0  0  0  0  0  0  0  0  0  0  0
  -21.1214   -7.4224   21.8743 O   0  0  0  0  0  0  0  0  0  0  0  0
  -28.5105  -27.1733   19.8390 O   0  0  0  0  0  0  0  0  0  1  0  0
  -22.7459   -3.2078   25.0370 F   0  0  0  0  0  0  0  0  0  0  0  0
  -22.3493   -7.8684   24.3107 F   0  0  0  0  0  0  0  0  0  0  0  0
  -27.0295  -17.6067   17.9603 S   0  0  2  0  0  0  0  0  0  0  0  0
  1  2  1  0  0  0  0
  1  5  2  0  0  0  0
  2  6  2  0  0  0  0
  3 10  2  0  0  0  0
  3 17  1  0  0  0  0
  4 11  1  0  0  0  0
  4 17  2  0  0  0  0
  5 19  1  0  0  0  0
  6 21  1  0  0  0  0
  7 12  2  0  0  0  0
  7 20  1  0  0  0  0
  8  9  1  0  0  0  0
  8 24  2  0  0  0  0
  9 25  2  0  0  0  0
 10 26  1  0  0  0  0
 11 26  2  0  0  0  0
 12 27  1  0  0  0  0
 13 14  2  0  0  0  0
 13 28  1  0  0  0  0
 14 29  1  0  0  0  0
 15 22  1  0  0  0  0
 15 27  2  0  0  0  0
 16 29  2  0  0  0  0
 16 30  1  0  0  0  0
 17 32  1  0  0  0  0
 18 32  1  0  0  0  0
 18 33  2  0  0  0  0
 18 38  1  0  0  0  0
 19 21  2  0  0  0  0
 19 44  1  0  0  0  0
 20 22  2  0  0  0  0
 20 45  1  0  0  0  0
 21 53  1  0  0  0  0
 22 46  1  0  0  0  0
 23 24  1  0  0  0  0
 23 31  2  0  0  0  0
 23 56  1  0  0  0  0
 24 72  1  0  0  0  0
 25 31  1  0  0  0  0
 25 73  1  0  0  0  0
 26 84  1  0  0  0  0
 27 85  1  0  0  0  0
 28 30  2  0  0  0  0
 28 84  1  0  0  0  0
 29 86  1  0  0  0  0
 30 87  1  0  0  0  0
 31 88  1  0  0  0  0
 32 65  2  0  0  0  0
 33 67  1  0  0  0  0
 33 70  1  0  0  0  0
 34 37  2  0  0  0  0
 35 36  2  0  0  0  0
 35 39  1  0  0  0  0
 36 85  1  0  0  0  0
 37 88  1  0  0  0  0
 38 71  1  0  0  0  0
 38 77  2  0  0  0  0
 39 72  1  0  0  0  0
 39 78  2  0  0  0  0
 40 54  1  0  0  0  0
 40 74  1  0  0  0  0
 40 79  2  0  0  0  0
 41 62  1  0  0  0  0
 41 68  1  0  0  0  0
 41 80  2  0  0  0  0
 42 63  1  0  0  0  0
 42 75  1  0  0  0  0
 42 81  2  0  0  0  0
 43 69  1  0  0  0  0
 43 73  1  0  0  0  0
 43 82  2  0  0  0  0
 44 47  1  0  0  0  0
 45 54  1  0  0  0  0
 46 68  1  0  0  0  0
 47 49  1  0  0  0  0
 48 50  1  0  0  0  0
 48 51  1  0  0  0  0
 49 53  1  0  0  0  0
 50 55  1  0  0  0  0
 51 69  1  0  0  0  0
 52 55  1  0  0  0  0
 52 69  1  0  0  0  0
 53 74  1  0  0  0  0
 54 68  1  0  0  0  0
 55 67  1  0  0  0  0
 57 63  1  0  0  0  0
 58 64  1  0  0  0  0
 59 64  1  0  0  0  0
 60 64  1  0  0  0  0
 61 76  1  0  0  0  0
 62 64  1  0  0  0  0
 62 75  1  0  0  0  0
 63 76  1  0  0  0  0
 65 67  1  0  0  0  0
 66 88  2  0  0  0  0
 83 88  2  0  0  0  0
M  CHG  1  76   1
M  ISO  4  36 101  43 100  73 100  85 101
M  END
> <Batch ID>
0060

> <Smiles>
C=CS(=N)(=O)c1c([100NH:0][100C:0](=O)N2CCCC(n3nc(-c4ccc(Oc5ccc(F)cc5F)cc4)c(C(N)=O)c3N)C2)ccc(NC(=O)C=[101CH:1][101O:1]c2ccc3c(c2)CN(C(=O)C(NC(=O)C(C)NC)C(C)(C)C)C(C(=O)NC2CCCc4ccccc42)C3)c1C

> <Shape>
0.269

> <Color>
0.094

> <Negative vol penalty>
0.000

$$$$

  -OEChem-04042323043D

 90 99  0     1  0  0  0  0  0999 V2000
  -23.7960  -35.4108   21.7403 C   0  0  0  0  0  0  0  0  0  0  0  0
  -24.7137  -34.3687   21.6559 C   0  0  0  0  0  0  0  0  0  0  0  0
  -26.4335  -11.7211   21.0760 C   0  0  0  0  0  0  0  0  0  0  0  0
  -25.0905  -13.4946   20.1336 C   0  0  0  0  0  0  0  0  0  0  0  0
  -22.5772  -35.2141   22.3882 C   0  0  0  0  0  0  0  0  0  0  0  0
  -24.4136  -33.1295   22.2204 C   0  0  0  0  0  0  0  0  0  0  0  0
  -25.5817  -29.2669   19.1609 C   0  0  0  0  0  0  0  0  0  0  0  0
  -27.4103  -21.3332   15.7086 C   0  0  0  0  0  0  0  0  0  0  0  0
  -27.3160  -20.5845   16.8817 C   0  0  0  0  0  0  0  0  0  0  0  0
  -25.2744  -11.0199   21.4082 C   0  0  0  0  0  0  0  0  0  0  0  0
  -23.9314  -12.7934   20.4657 C   0  0  0  0  0  0  0  0  0  0  0  0
  -26.9242  -28.8987   19.0843 C   0  0  0  0  0  0  0  0  0  0  0  0
  -23.0032   -9.0729   19.8321 C   0  0  0  0  0  0  0  0  0  0  0  0
  -22.9678   -7.7077   19.5484 C   0  0  0  0  0  0  0  0  0  0  0  0
  -26.5062  -27.0792   20.6120 C   0  0  0  0  0  0  0  0  0  0  0  0
  -29.1906  -21.7964   17.8058 C   0  0  0  0  0  0  0  0  0  0  0  0
  -22.6408   -7.2288   21.8938 C   0  0  0  0  0  0  0  0  0  0  0  0
  -26.3416  -12.9586   20.4388 C   0  0  0  0  0  0  0  0  0  0  0  0
  -28.5780  -13.2563   19.2482 C   0  0  0  0  0  0  0  0  0  0  0  0
  -22.2579  -33.9690   22.9525 C   0  0  0  0  0  0  0  0  0  0  0  0
  -24.6921  -28.5493   19.9734 C   0  0  0  0  0  0  0  0  0  0  0  0
  -23.1899  -32.9163   22.8777 C   0  0  0  0  0  0  0  0  0  0  0  0
  -25.1523  -27.4387   20.6951 C   0  0  0  0  0  0  0  0  0  0  0  0
  -28.3948  -22.3134   15.5841 C   0  0  0  0  0  0  0  0  0  0  0  0
  -29.2850  -22.5451   16.6327 C   0  0  0  0  0  0  0  0  0  0  0  0
  -28.2061  -20.8161   17.9303 C   0  0  0  0  0  0  0  0  0  0  0  0
  -24.0234  -11.5560   21.1030 C   0  0  0  0  0  0  0  0  0  0  0  0
  -27.3873  -27.8065   19.8122 C   0  0  0  0  0  0  0  0  0  0  0  0
  -22.8575   -9.5161   21.1467 C   0  0  0  0  0  0  0  0  0  0  0  0
  -22.7866   -6.7856   20.5792 C   0  0  0  0  0  0  0  0  0  0  0  0
  -22.6763   -8.5940   22.1775 C   0  0  0  0  0  0  0  0  0  0  0  0
  -27.5386  -13.6837   20.0960 C   0  0  0  0  0  0  0  0  0  0  0  0
  -29.4736  -14.2976   19.2511 C   0  0  0  0  0  0  0  0  0  0  0  0
  -31.4785  -26.7690   19.4980 C   0  0  0  0  0  0  0  0  0  0  0  0
  -31.7124  -23.6359   18.5779 C   0  0  0  0  0  0  0  0  0  0  0  0
  -28.7211  -12.0278   18.5229 C   0  0  0  0  0  0  0  0  0  0  0  0
  -22.9002  -29.2518   22.5031 C   0  0  0  0  0  0  0  0  0  0  0  0
  -21.7917  -26.2345   22.0679 C   0  0  0  0  0  0  0  0  0  0  0  0
  -23.1866  -23.0089   21.2510 C   0  0  0  0  0  0  0  0  0  0  0  0
  -28.9132  -20.1609   20.2578 C   0  0  0  0  0  0  0  0  0  0  0  0
  -20.9477  -33.8181   23.6841 C   0  0  0  0  0  0  0  0  0  0  0  0
  -23.2413  -28.9429   20.0243 C   0  0  0  0  0  0  0  0  0  0  0  0
  -24.2336  -26.6230   21.5663 C   0  0  0  0  0  0  0  0  0  0  0  0
  -32.5800  -25.7344   19.6104 C   0  0  0  0  0  0  0  0  0  0  0  0
  -32.0216  -24.3486   19.8781 C   0  0  0  0  0  0  0  0  0  0  0  0
  -20.5507  -32.3645   23.9288 C   0  0  0  0  0  0  0  0  0  0  0  0
  -31.0278  -17.8925   22.0071 C   0  0  0  0  0  0  0  0  0  0  0  0
  -21.7370  -31.5703   24.4661 C   0  0  0  0  0  0  0  0  0  0  0  0
  -30.4714  -16.5167   21.6335 C   0  0  0  0  0  0  0  0  0  0  0  0
  -29.9170  -18.9289   22.1681 C   0  0  0  0  0  0  0  0  0  0  0  0
  -28.4438  -17.6630   20.6527 C   0  0  0  0  0  0  0  0  0  0  0  0
  -29.8195  -25.2785   18.2776 C   0  0  0  0  0  0  0  0  0  0  0  0
  -22.8905  -31.5503   23.4559 C   0  0  1  0  0  0  0  0  0  0  0  0
  -22.5333  -28.4537   21.2840 C   0  0  1  0  0  0  0  0  0  0  0  0
  -29.5301  -16.6011   20.4160 C   0  0  2  0  0  0  0  0  0  0  0  0
  -30.4941  -26.6687   18.3164 C   0  0  2  0  0  0  0  0  0  0  0  0
  -28.4767  -23.1017   14.3182 C   0  0  0  0  0  0  0  0  0  0  0  0
  -31.2289  -27.0024   17.0105 C   0  0  0  0  0  0  0  0  0  0  0  0
  -22.1495  -21.0208   20.1244 C   0  0  0  0  0  0  0  0  0  0  0  0
  -21.2087  -25.2919   24.9107 C   0  0  0  0  0  0  0  0  0  0  0  0
  -21.7398  -22.9595   24.1718 C   0  0  0  0  0  0  0  0  0  0  0  0
  -19.8283  -24.1875   23.1417 C   0  0  0  0  0  0  0  0  0  0  0  0
  -25.3048  -22.9285   19.1857 C   0  0  0  0  0  0  0  0  0  0  0  0
  -30.3513  -23.5962   16.5221 C   0  0  0  0  0  0  0  0  0  0  0  0
  -29.3799  -27.7194   18.5169 C   0  0  0  0  0  0  0  0  0  1  0  0
  -22.1939  -24.8660   22.5625 C   0  0  1  0  0  0  0  0  0  0  0  0
  -23.0233  -22.2525   19.9450 C   0  0  2  0  0  0  0  0  0  0  0  0
  -21.2618  -24.3471   23.6935 C   0  0  0  0  0  0  0  0  0  0  0  0
  -27.7528  -14.9016   20.6008 N   0  0  0  0  0  0  0  0  0  0  0  0
  -28.9372  -15.2483   20.0688 N   0  0  0  0  0  0  0  0  0  0  0  0
  -30.6781  -24.1802   17.8171 N   0  0  0  0  0  0  0  0  0  0  0  0
  -22.8252  -27.0514   21.5880 N   0  0  0  0  0  0  0  0  0  0  0  0
  -29.0682  -18.9558   20.9750 N   0  0  0  0  0  0  0  0  0  0  0  0
  -30.6597  -14.4837   18.6339 N   0  0  0  0  0  0  0  0  0  0  0  0
  -28.2077  -11.9570   17.2207 N   0  0  0  0  0  0  0  0  0  0  0  0
  -28.1094  -20.0572   19.1230 N   0  0  0  0  0  0  0  0  0  0  0  0
  -22.6193  -30.6007   22.3980 N   0  0  0  0  0  0  0  0  0  0  0  0
  -22.2425  -24.0048   21.3860 N   0  0  0  0  0  0  0  0  0  0  0  0
  -24.3517  -21.8154   19.4300 N   0  3  0  0  0  0  0  0  0  0  0  0
  -31.4175  -27.6839   20.3232 O   0  0  0  0  0  0  0  0  0  0  0  0
  -32.3728  -22.6474   18.2507 O   0  0  0  0  0  0  0  0  0  0  0  0
  -29.2730  -11.0174   19.0210 O   0  0  0  0  0  0  0  0  0  0  0  0
  -23.3996  -28.6855   23.4682 O   0  0  0  0  0  0  0  0  0  0  0  0
  -20.6033  -26.5637   22.0994 O   0  0  0  0  0  0  0  0  0  0  0  0
  -24.0616  -22.7405   22.0713 O   0  0  0  0  0  0  0  0  0  0  0  0
  -29.4758  -21.2015   20.6081 O   0  0  0  0  0  0  0  0  0  0  0  0
  -22.8921  -10.8718   21.4267 O   0  0  0  0  0  0  0  0  0  0  0  0
  -28.6974  -27.4455   19.7398 O   0  0  0  0  0  0  0  0  0  1  0  0
  -22.7510   -5.4747   20.3064 F   0  0  0  0  0  0  0  0  0  0  0  0
  -22.5345   -9.0138   23.4422 F   0  0  0  0  0  0  0  0  0  0  0  0
  1  2  1  0  0  0  0
  1  5  2  0  0  0  0
  2  6  2  0  0  0  0
  3 10  2  0  0  0  0
  3 18  1  0  0  0  0
  4 11  1  0  0  0  0
  4 18  2  0  0  0  0
  5 20  1  0  0  0  0
  6 22  1  0  0  0  0
  7 12  2  0  0  0  0
  7 21  1  0  0  0  0
  8  9  2  0  0  0  0
  8 24  1  0  0  0  0
  9 26  1  0  0  0  0
 10 27  1  0  0  0  0
 11 27  2  0  0  0  0
 12 28  1  0  0  0  0
 13 14  2  0  0  0  0
 13 29  1  0  0  0  0
 14 30  1  0  0  0  0
 15 23  1  0  0  0  0
 15 28  2  0  0  0  0
 16 25  1  0  0  0  0
 16 26  2  0  0  0  0
 17 30  2  0  0  0  0
 17 31  1  0  0  0  0
 18 32  1  0  0  0  0
 19 32  1  0  0  0  0
 19 33  2  0  0  0  0
 19 36  1  0  0  0  0
 20 22  2  0  0  0  0
 20 41  1  0  0  0  0
 21 23  2  0  0  0  0
 21 42  1  0  0  0  0
 22 53  1  0  0  0  0
 23 43  1  0  0  0  0
 24 25  2  0  0  0  0
 24 57  1  0  0  0  0
 25 64  1  0  0  0  0
 26 76  1  0  0  0  0
 27 87  1  0  0  0  0
 28 88  1  0  0  0  0
 29 31  2  0  0  0  0
 29 87  1  0  0  0  0
 30 89  1  0  0  0  0
 31 90  1  0  0  0  0
 32 69  2  0  0  0  0
 33 70  1  0  0  0  0
 33 74  1  0  0  0  0
 34 44  1  0  0  0  0
 34 56  1  0  0  0  0
 34 80  2  0  0  0  0
 35 45  1  0  0  0  0
 35 71  1  0  0  0  0
 35 81  2  0  0  0  0
 36 75  1  0  0  0  0
 36 82  2  0  0  0  0
 37 54  1  0  0  0  0
 37 77  1  0  0  0  0
 37 83  2  0  0  0  0
 38 66  1  0  0  0  0
 38 72  1  0  0  0  0
 38 84  2  0  0  0  0
 39 67  1  0  0  0  0
 39 78  1  0  0  0  0
 39 85  2  0  0  0  0
 40 73  1  0  0  0  0
 40 76  1  0  0  0  0
 40 86  2  0  0  0  0
 41 46  1  0  0  0  0
 42 54  1  0  0  0  0
 43 72  1  0  0  0  0
 44 45  1  0  0  0  0
 46 48  1  0  0  0  0
 47 49  1  0  0  0  0
 47 50  1  0  0  0  0
 48 53  1  0  0  0  0
 49 55  1  0  0  0  0
 50 73  1  0  0  0  0
 51 55  1  0  0  0  0
 51 73  1  0  0  0  0
 52 56  1  0  0  0  0
 52 71  1  0  0  0  0
 53 77  1  0  0  0  0
 54 72  1  0  0  0  0
 55 70  1  0  0  0  0
 56 58  1  0  0  0  0
 56 65  1  0  0  0  0
 59 67  1  0  0  0  0
 60 68  1  0  0  0  0
 61 68  1  0  0  0  0
 62 68  1  0  0  0  0
 63 79  1  0  0  0  0
 64 71  1  0  0  0  0
 65 88  1  0  0  0  0
 66 68  1  0  0  0  0
 66 78  1  0  0  0  0
 67 79  1  0  0  0  0
 69 70  1  0  0  0  0
M  CHG  1  79   1
M  ISO  4  40 100  65 101  76 100  88 101
M  END
> <Batch ID>
0060

> <Smiles>
CNC(C)C(=O)NC(C(=O)N1Cc2cc([101O:1][101CH2:1]C3(C)CN(Cc4cc([100NH:0][100C:0](=O)N5CCCC(n6nc(-c7ccc(Oc8ccc(F)cc8F)cc7)c(C(N)=O)c6N)C5)ccc4C)C(=O)CCC3=O)ccc2CC1C(=O)NC1CCCc2ccccc21)C(C)(C)C

> <Shape>
0.291

> <Color>
0.076

> <Negative vol penalty>
0.000

$$$$

  -OEChem-04042323043D

 89 98  0     1  0  0  0  0  0999 V2000
  -21.8379  -24.3917   19.2726 C   0  0  0  0  0  0  0  0  0  0  0  0
  -21.5992  -12.7066   19.4843 C   0  0  0  0  0  0  0  0  0  0  0  0
  -21.6551  -14.0892   19.6278 C   0  0  0  0  0  0  0  0  0  0  0  0
  -30.0096  -26.9194   23.7148 C   0  0  0  0  0  0  0  0  0  0  0  0
  -30.7366  -28.5363   22.0734 C   0  0  0  0  0  0  0  0  0  0  0  0
  -22.6735  -11.9200   19.8979 C   0  0  0  0  0  0  0  0  0  0  0  0
  -22.7849  -14.6860   20.1862 C   0  0  0  0  0  0  0  0  0  0  0  0
  -24.3048  -18.7664   17.6007 C   0  0  0  0  0  0  0  0  0  0  0  0
  -18.2160  -28.4002   23.0320 C   0  0  0  0  0  0  0  0  0  0  0  0
  -19.4149  -28.9253   22.5499 C   0  0  0  0  0  0  0  0  0  0  0  0
  -31.2582  -26.9857   24.3331 C   0  0  0  0  0  0  0  0  0  0  0  0
  -31.9852  -28.6026   22.6917 C   0  0  0  0  0  0  0  0  0  0  0  0
  -23.5917  -19.9479   17.7989 C   0  0  0  0  0  0  0  0  0  0  0  0
  -34.3750  -26.4606   26.1312 C   0  0  0  0  0  0  0  0  0  0  0  0
  -34.9808  -25.2604   26.5029 C   0  0  0  0  0  0  0  0  0  0  0  0
  -25.3066  -20.7227   19.3082 C   0  0  0  0  0  0  0  0  0  0  0  0
  -20.2938  -26.6888   22.2998 C   0  0  0  0  0  0  0  0  0  0  0  0
  -34.9669  -24.5392   24.1971 C   0  0  0  0  0  0  0  0  0  0  0  0
  -29.7488  -27.6947   22.5849 C   0  0  0  0  0  0  0  0  0  0  0  0
  -27.8498  -26.4898   21.3809 C   0  0  0  0  0  0  0  0  0  0  0  0
  -23.8210  -12.5082   20.4527 C   0  0  0  0  0  0  0  0  0  0  0  0
  -25.5209  -18.5492   18.2643 C   0  0  0  0  0  0  0  0  0  0  0  0
  -23.8750  -13.9064   20.6088 C   0  0  0  0  0  0  0  0  0  0  0  0
  -26.0345  -19.5387   19.1147 C   0  0  0  0  0  0  0  0  0  0  0  0
  -18.0560  -27.0194   23.1482 C   0  0  0  0  0  0  0  0  0  0  0  0
  -19.0949  -26.1637   22.7820 C   0  0  0  0  0  0  0  0  0  0  0  0
  -20.4538  -28.0696   22.1837 C   0  0  0  0  0  0  0  0  0  0  0  0
  -32.2459  -27.8273   23.8216 C   0  0  0  0  0  0  0  0  0  0  0  0
  -24.0911  -20.9250   18.6550 C   0  0  0  0  0  0  0  0  0  0  0  0
  -34.0650  -26.7000   24.7924 C   0  0  0  0  0  0  0  0  0  0  0  0
  -35.2768  -24.2997   25.5359 C   0  0  0  0  0  0  0  0  0  0  0  0
  -34.3610  -25.7394   23.8254 C   0  0  0  0  0  0  0  0  0  0  0  0
  -28.4595  -27.6262   21.9454 C   0  0  0  0  0  0  0  0  0  0  0  0
  -26.6443  -26.9467   20.9069 C   0  0  0  0  0  0  0  0  0  0  0  0
  -21.0226  -23.5616   22.1840 C   0  0  0  0  0  0  0  0  0  0  0  0
  -28.3301  -25.1417   21.2931 C   0  0  0  0  0  0  0  0  0  0  0  0
  -26.5776  -16.4147   20.3693 C   0  0  0  0  0  0  0  0  0  0  0  0
  -29.4117  -17.9159   19.8825 C   0  0  0  0  0  0  0  0  0  0  0  0
  -30.5606  -21.3153   19.5074 C   0  0  0  0  0  0  0  0  0  0  0  0
  -21.9933  -29.9473   21.5127 C   0  0  0  0  0  0  0  0  0  0  0  0
  -24.9377  -11.6131   20.9287 C   0  0  0  0  0  0  0  0  0  0  0  0
  -26.2912  -17.2808   18.0190 C   0  0  0  0  0  0  0  0  0  0  0  0
  -27.3454  -19.3629   19.8351 C   0  0  0  0  0  0  0  0  0  0  0  0
  -21.7486  -22.7532   21.1219 C   0  0  0  0  0  0  0  0  0  0  0  0
  -26.2520  -12.3525   21.1658 C   0  0  0  0  0  0  0  0  0  0  0  0
  -24.8929  -31.6646   20.3635 C   0  0  0  0  0  0  0  0  0  0  0  0
  -26.0086  -13.6334   21.9576 C   0  0  0  0  0  0  0  0  0  0  0  0
  -26.0291  -30.6736   20.6262 C   0  0  0  0  0  0  0  0  0  0  0  0
  -19.8221  -22.9781   19.5792 C   0  0  0  0  0  0  0  0  0  0  0  0
  -23.8332  -31.6169   21.4628 C   0  0  0  0  0  0  0  0  0  0  0  0
  -19.1459  -23.9383   20.5466 C   0  0  0  0  0  0  0  0  0  0  0  0
  -24.4298  -29.2901   22.0100 C   0  0  0  0  0  0  0  0  0  0  0  0
  -25.0935  -14.5928   21.1871 C   0  0  1  0  0  0  0  0  0  0  0  0
  -27.2658  -16.9466   19.1441 C   0  0  1  0  0  0  0  0  0  0  0  0
  -25.4889  -29.2555   20.8962 C   0  0  2  0  0  0  0  0  0  0  0  0
  -21.3482  -23.0543   19.6761 C   0  0  1  0  0  0  0  0  0  0  0  0
  -16.7635  -26.4807   23.6677 C   0  0  0  0  0  0  0  0  0  0  0  0
  -32.5605  -22.2382   18.3048 C   0  0  0  0  0  0  0  0  0  0  0  0
  -30.7740  -17.7281   22.6063 C   0  0  0  0  0  0  0  0  0  0  0  0
  -31.9309  -19.8896   22.0989 C   0  0  0  0  0  0  0  0  0  0  0  0
  -32.3418  -17.8904   20.6647 C   0  0  0  0  0  0  0  0  0  0  0  0
  -28.8886  -23.1436   17.8885 C   0  0  0  0  0  0  0  0  0  0  0  0
  -18.9447  -24.6742   22.8964 C   0  0  0  0  0  0  0  0  0  0  0  0
  -21.9758  -22.0085   18.7402 C   0  0  0  0  0  0  0  0  0  1  0  0
  -30.1215  -19.0900   20.5121 C   0  0  1  0  0  0  0  0  0  0  0  0
  -31.0655  -21.9686   18.2335 C   0  0  2  0  0  0  0  0  0  0  0  0
  -31.2637  -18.6479   21.4700 C   0  0  0  0  0  0  0  0  0  0  0  0
  -22.2217  -25.4399   18.9562 N   0  0  0  0  0  0  0  0  0  0  0  0
  -27.7038  -28.7226   21.8404 N   0  0  0  0  0  0  0  0  0  0  0  0
  -26.6069  -28.2772   21.2043 N   0  0  0  0  0  0  0  0  0  0  0  0
  -19.7247  -23.9685   21.8880 N   0  0  0  0  0  0  0  0  0  0  0  0
  -28.0583  -18.1028   19.5675 N   0  0  0  0  0  0  0  0  0  0  0  0
  -23.3650  -30.2433   21.6601 N   0  0  0  0  0  0  0  0  0  0  0  0
  -25.6234  -26.3360   20.2687 N   0  0  0  0  0  0  0  0  0  0  0  0
  -28.0296  -24.2560   22.3369 N   0  0  0  0  0  0  0  0  0  0  0  0
  -21.6712  -28.6025   21.6920 N   0  0  0  0  0  0  0  0  0  0  0  0
  -25.8347  -15.2712   20.1456 N   0  0  0  0  0  0  0  0  0  0  0  0
  -30.5608  -19.9399   19.4107 N   0  0  0  0  0  0  0  0  0  0  0  0
  -30.3649  -23.2635   18.0026 N   0  3  0  0  0  0  0  0  0  0  0  0
  -21.5742  -23.7482   23.2724 O   0  0  0  0  0  0  0  0  0  0  0  0
  -29.0196  -24.7391   20.3256 O   0  0  0  0  0  0  0  0  0  0  0  0
  -26.7119  -16.9978   21.4387 O   0  0  0  0  0  0  0  0  0  0  0  0
  -30.0369  -16.8737   19.6713 O   0  0  0  0  0  0  0  0  0  0  0  0
  -30.2054  -21.9606   20.4912 O   0  0  0  0  0  0  0  0  0  0  0  0
  -21.1694  -30.8177   21.2202 O   0  0  0  0  0  0  0  0  0  0  0  0
  -33.4643  -27.8924   24.4248 O   0  0  0  0  0  0  0  0  0  0  0  0
  -23.3967  -22.0789   18.8509 O   0  0  0  0  0  0  0  0  0  1  0  0
  -35.8600  -23.1479   25.8929 F   0  0  0  0  0  0  0  0  0  0  0  0
  -34.0667  -25.9642   22.5375 F   0  0  0  0  0  0  0  0  0  0  0  0
  1 56  1  0  0  0  0
  1 68  3  0  0  0  0
  2  3  1  0  0  0  0
  2  6  2  0  0  0  0
  3  7  2  0  0  0  0
  4 11  2  0  0  0  0
  4 19  1  0  0  0  0
  5 12  1  0  0  0  0
  5 19  2  0  0  0  0
  6 21  1  0  0  0  0
  7 23  1  0  0  0  0
  8 13  2  0  0  0  0
  8 22  1  0  0  0  0
  9 10  2  0  0  0  0
  9 25  1  0  0  0  0
 10 27  1  0  0  0  0
 11 28  1  0  0  0  0
 12 28  2  0  0  0  0
 13 29  1  0  0  0  0
 14 15  2  0  0  0  0
 14 30  1  0  0  0  0
 15 31  1  0  0  0  0
 16 24  1  0  0  0  0
 16 29  2  0  0  0  0
 17 26  1  0  0  0  0
 17 27  2  0  0  0  0
 18 31  2  0  0  0  0
 18 32  1  0  0  0  0
 19 33  1  0  0  0  0
 20 33  1  0  0  0  0
 20 34  2  0  0  0  0
 20 36  1  0  0  0  0
 21 23  2  0  0  0  0
 21 41  1  0  0  0  0
 22 24  2  0  0  0  0
 22 42  1  0  0  0  0
 23 53  1  0  0  0  0
 24 43  1  0  0  0  0
 25 26  2  0  0  0  0
 25 57  1  0  0  0  0
 26 63  1  0  0  0  0
 27 76  1  0  0  0  0
 28 86  1  0  0  0  0
 29 87  1  0  0  0  0
 30 32  2  0  0  0  0
 30 86  1  0  0  0  0
 31 88  1  0  0  0  0
 32 89  1  0  0  0  0
 33 69  2  0  0  0  0
 34 70  1  0  0  0  0
 34 74  1  0  0  0  0
 35 44  1  0  0  0  0
 35 71  1  0  0  0  0
 35 80  2  0  0  0  0
 36 75  1  0  0  0  0
 36 81  2  0  0  0  0
 37 54  1  0  0  0  0
 37 77  1  0  0  0  0
 37 82  2  0  0  0  0
 38 65  1  0  0  0  0
 38 72  1  0  0  0  0
 38 83  2  0  0  0  0
 39 66  1  0  0  0  0
 39 78  1  0  0  0  0
 39 84  2  0  0  0  0
 40 73  1  0  0  0  0
 40 76  1  0  0  0  0
 40 85  2  0  0  0  0
 41 45  1  0  0  0  0
 42 54  1  0  0  0  0
 43 72  1  0  0  0  0
 44 56  1  0  0  0  0
 45 47  1  0  0  0  0
 46 48  1  0  0  0  0
 46 50  1  0  0  0  0
 47 53  1  0  0  0  0
 48 55  1  0  0  0  0
 49 51  1  0  0  0  0
 49 56  1  0  0  0  0
 50 73  1  0  0  0  0
 51 71  1  0  0  0  0
 52 55  1  0  0  0  0
 52 73  1  0  0  0  0
 53 77  1  0  0  0  0
 54 72  1  0  0  0  0
 55 70  1  0  0  0  0
 56 64  1  0  0  0  0
 58 66  1  0  0  0  0
 59 67  1  0  0  0  0
 60 67  1  0  0  0  0
 61 67  1  0  0  0  0
 62 79  1  0  0  0  0
 63 71  1  0  0  0  0
 64 87  1  0  0  0  0
 65 67  1  0  0  0  0
 65 78  1  0  0  0  0
 66 79  1  0  0  0  0
 69 70  1  0  0  0  0
M  CHG  1  79   1
M  ISO  4  40 100  64 101  76 100  87 101
M  END
> <Batch ID>
0060

> <Smiles>
CNC(C)C(=O)NC(C(=O)N1Cc2cc([101O:1][101CH2:1]C3(C#N)CCN(Cc4cc([100NH:0][100C:0](=O)N5CCCC(n6nc(-c7ccc(Oc8ccc(F)cc8F)cc7)c(C(N)=O)c6N)C5)ccc4C)C(=O)C3)ccc2CC1C(=O)NC1CCCc2ccccc21)C(C)(C)C

> <Shape>
0.218

> <Color>
0.078

> <Negative vol penalty>
0.000

$$$$

  -OEChem-04042323043D

 86 95  0     1  0  0  0  0  0999 V2000
  -28.6061  -33.4671   24.1074 C   0  0  0  0  0  0  0  0  0  0  0  0
  -28.5418  -32.0858   23.9542 C   0  0  0  0  0  0  0  0  0  0  0  0
  -24.7040   -8.4938   21.4770 C   0  0  0  0  0  0  0  0  0  0  0  0
  -23.2021  -10.1119   20.4956 C   0  0  0  0  0  0  0  0  0  0  0  0
  -27.4351  -34.2028   24.2849 C   0  0  0  0  0  0  0  0  0  0  0  0
  -27.3066  -31.4394   23.9795 C   0  0  0  0  0  0  0  0  0  0  0  0
  -26.8425  -27.9918   20.2993 C   0  0  0  0  0  0  0  0  0  0  0  0
  -25.3046  -18.6421   17.8329 C   0  0  0  0  0  0  0  0  0  0  0  0
  -26.0199  -19.7197   18.3551 C   0  0  0  0  0  0  0  0  0  0  0  0
  -23.7097   -8.1189   22.3805 C   0  0  0  0  0  0  0  0  0  0  0  0
  -22.2077   -9.7370   21.3991 C   0  0  0  0  0  0  0  0  0  0  0  0
  -27.4795  -26.7665   20.4907 C   0  0  0  0  0  0  0  0  0  0  0  0
  -20.9275   -6.1973   22.3670 C   0  0  0  0  0  0  0  0  0  0  0  0
  -20.7234   -4.8336   22.5772 C   0  0  0  0  0  0  0  0  0  0  0  0
  -25.3806  -25.7875   21.1654 C   0  0  0  0  0  0  0  0  0  0  0  0
  -27.8276  -18.2313   18.9501 C   0  0  0  0  0  0  0  0  0  0  0  0
  -21.2428   -5.1169   24.9197 C   0  0  0  0  0  0  0  0  0  0  0  0
  -24.4502   -9.4903   20.5345 C   0  0  0  0  0  0  0  0  0  0  0  0
  -25.7191   -9.3306   18.3273 C   0  0  0  0  0  0  0  0  0  0  0  0
  -26.1841  -33.5662   24.3027 C   0  0  0  0  0  0  0  0  0  0  0  0
  -25.4696  -28.1271   20.5504 C   0  0  0  0  0  0  0  0  0  0  0  0
  -26.1179  -32.1672   24.1587 C   0  0  0  0  0  0  0  0  0  0  0  0
  -24.7280  -27.0150   20.9740 C   0  0  0  0  0  0  0  0  0  0  0  0
  -25.8507  -17.3590   17.8693 C   0  0  0  0  0  0  0  0  0  0  0  0
  -27.2814  -19.5143   18.9137 C   0  0  0  0  0  0  0  0  0  0  0  0
  -27.1123  -17.1537   18.4279 C   0  0  0  0  0  0  0  0  0  0  0  0
  -22.4615   -8.7404   22.3416 C   0  0  0  0  0  0  0  0  0  0  0  0
  -26.7492  -25.6649   20.9266 C   0  0  0  0  0  0  0  0  0  0  0  0
  -21.2894   -7.0209   23.4331 C   0  0  0  0  0  0  0  0  0  0  0  0
  -20.8810   -4.2934   23.8535 C   0  0  0  0  0  0  0  0  0  0  0  0
  -21.4470   -6.4807   24.7094 C   0  0  0  0  0  0  0  0  0  0  0  0
  -25.4771   -9.8784   19.6013 C   0  0  0  0  0  0  0  0  0  0  0  0
  -26.7939  -10.0386   17.8476 C   0  0  0  0  0  0  0  0  0  0  0  0
  -28.6328  -22.7181   20.1017 C   0  0  0  0  0  0  0  0  0  0  0  0
  -29.6163  -21.8672   20.4188 C   0  0  0  0  0  0  0  0  0  0  0  0
  -27.5587  -21.9184   19.4581 C   0  0  0  0  0  0  0  0  0  0  0  0
  -25.0336   -8.2761   17.6389 C   0  0  0  0  0  0  0  0  0  0  0  0
  -23.7163  -29.8614   22.5560 C   0  0  0  0  0  0  0  0  0  0  0  0
  -21.2468  -28.5959   20.8760 C   0  0  0  0  0  0  0  0  0  0  0  0
  -20.0827  -26.0748   18.8921 C   0  0  0  0  0  0  0  0  0  0  0  0
  -28.9259  -15.5008   18.9979 C   0  0  0  0  0  0  0  0  0  0  0  0
  -24.9496  -34.3981   24.5446 C   0  0  0  0  0  0  0  0  0  0  0  0
  -24.7921  -29.4490   20.3135 C   0  0  0  0  0  0  0  0  0  0  0  0
  -23.2479  -27.1027   21.2382 C   0  0  0  0  0  0  0  0  0  0  0  0
  -29.3045  -20.4606   20.0301 C   0  0  0  0  0  0  0  0  0  0  0  0
  -23.6513  -33.6805   24.1845 C   0  0  0  0  0  0  0  0  0  0  0  0
  -30.6752  -12.4179   19.3337 C   0  0  0  0  0  0  0  0  0  0  0  0
  -23.6504  -32.2633   24.7488 C   0  0  0  0  0  0  0  0  0  0  0  0
  -29.5632  -11.3666   19.3183 C   0  0  0  0  0  0  0  0  0  0  0  0
  -30.2457  -13.6871   20.0674 C   0  0  0  0  0  0  0  0  0  0  0  0
  -27.8742  -13.2278   19.5833 C   0  0  0  0  0  0  0  0  0  0  0  0
  -24.7948  -31.4326   24.1556 C   0  0  1  0  0  0  0  0  0  0  0  0
  -23.4898  -29.6013   21.0935 C   0  0  1  0  0  0  0  0  0  0  0  0
  -28.2373  -11.9563   18.7990 C   0  0  2  0  0  0  0  0  0  0  0  0
  -25.0619  -16.2235   17.3026 C   0  0  0  0  0  0  0  0  0  0  0  0
  -30.9156  -22.1653   21.0829 C   0  0  0  0  0  0  0  0  0  0  0  0
  -18.0119  -25.2969   17.7071 C   0  0  0  0  0  0  0  0  0  0  0  0
  -20.0751  -27.6696   23.5367 C   0  0  0  0  0  0  0  0  0  0  0  0
  -18.5739  -26.1264   22.2588 C   0  0  0  0  0  0  0  0  0  0  0  0
  -18.4008  -28.5923   21.9243 C   0  0  0  0  0  0  0  0  0  0  0  0
  -21.4020  -26.2194   16.2468 C   0  0  0  0  0  0  0  0  0  0  0  0
  -28.4992  -24.1851   20.2913 C   0  0  0  0  0  0  0  0  0  1  0  0
  -20.3987  -27.3527   20.9949 C   0  0  1  0  0  0  0  0  0  0  0  0
  -19.3005  -26.0961   17.5912 C   0  0  2  0  0  0  0  0  0  0  0  0
  -19.3904  -27.4338   22.1756 C   0  0  0  0  0  0  0  0  0  0  0  0
  -26.3297  -10.8587   19.9115 N   0  0  0  0  0  0  0  0  0  0  0  0
  -27.1180  -10.9323   18.8256 N   0  0  0  0  0  0  0  0  0  0  0  0
  -27.9936  -20.5881   19.4338 N   0  0  0  0  0  0  0  0  0  0  0  0
  -22.6322  -28.4183   20.9981 N   0  0  0  0  0  0  0  0  0  0  0  0
  -28.9846  -14.1909   19.5189 N   0  0  0  0  0  0  0  0  0  0  0  0
  -27.4841   -9.9774   16.6890 N   0  0  0  0  0  0  0  0  0  0  0  0
  -23.9502   -7.6560   18.2762 N   0  0  0  0  0  0  0  0  0  0  0  0
  -27.6838  -15.8580   18.4743 N   0  0  0  0  0  0  0  0  0  0  0  0
  -24.4610  -30.9957   22.8169 N   0  0  0  0  0  0  0  0  0  0  0  0
  -19.7763  -27.1568   19.6900 N   0  0  0  0  0  0  0  0  0  0  0  0
  -20.1159  -25.5157   16.4870 N   0  3  0  0  0  0  0  0  0  0  0  0
  -26.5088  -22.3835   19.0435 O   0  0  0  0  0  0  0  0  0  0  0  0
  -25.3820   -7.8840   16.4995 O   0  0  0  0  0  0  0  0  0  0  0  0
  -23.2487  -29.0909   23.3862 O   0  0  0  0  0  0  0  0  0  0  0  0
  -20.7006  -29.6835   20.6749 O   0  0  0  0  0  0  0  0  0  0  0  0
  -20.8825  -25.1852   19.1739 O   0  0  0  0  0  0  0  0  0  0  0  0
  -29.9129  -16.2410   18.9903 O   0  0  0  0  0  0  0  0  0  0  0  0
  -21.4910   -8.3747   23.2229 O   0  0  0  0  0  0  0  0  0  0  0  0
  -27.3686  -24.4679   21.1148 O   0  0  0  0  0  0  0  0  0  1  0  0
  -20.6834   -2.9841   24.0556 F   0  0  0  0  0  0  0  0  0  0  0  0
  -21.7934   -7.2670   25.7378 F   0  0  0  0  0  0  0  0  0  0  0  0
  1  2  1  0  0  0  0
  1  5  2  0  0  0  0
  2  6  2  0  0  0  0
  3 10  2  0  0  0  0
  3 18  1  0  0  0  0
  4 11  1  0  0  0  0
  4 18  2  0  0  0  0
  5 20  1  0  0  0  0
  6 22  1  0  0  0  0
  7 12  2  0  0  0  0
  7 21  1  0  0  0  0
  8  9  2  0  0  0  0
  8 24  1  0  0  0  0
  9 25  1  0  0  0  0
 10 27  1  0  0  0  0
 11 27  2  0  0  0  0
 12 28  1  0  0  0  0
 13 14  2  0  0  0  0
 13 29  1  0  0  0  0
 14 30  1  0  0  0  0
 15 23  1  0  0  0  0
 15 28  2  0  0  0  0
 16 25  2  0  0  0  0
 16 26  1  0  0  0  0
 17 30  2  0  0  0  0
 17 31  1  0  0  0  0
 18 32  1  0  0  0  0
 19 32  1  0  0  0  0
 19 33  2  0  0  0  0
 19 37  1  0  0  0  0
 20 22  2  0  0  0  0
 20 42  1  0  0  0  0
 21 23  2  0  0  0  0
 21 43  1  0  0  0  0
 22 52  1  0  0  0  0
 23 44  1  0  0  0  0
 24 26  2  0  0  0  0
 24 55  1  0  0  0  0
 25 68  1  0  0  0  0
 26 73  1  0  0  0  0
 27 83  1  0  0  0  0
 28 84  1  0  0  0  0
 29 31  2  0  0  0  0
 29 83  1  0  0  0  0
 30 85  1  0  0  0  0
 31 86  1  0  0  0  0
 32 66  2  0  0  0  0
 33 67  1  0  0  0  0
 33 71  1  0  0  0  0
 34 35  2  0  0  0  0
 34 36  1  0  0  0  0
 34 62  1  0  0  0  0
 35 45  1  0  0  0  0
 35 56  1  0  0  0  0
 36 68  1  0  0  0  0
 36 77  2  0  0  0  0
 37 72  1  0  0  0  0
 37 78  2  0  0  0  0
 38 53  1  0  0  0  0
 38 74  1  0  0  0  0
 38 79  2  0  0  0  0
 39 63  1  0  0  0  0
 39 69  1  0  0  0  0
 39 80  2  0  0  0  0
 40 64  1  0  0  0  0
 40 75  1  0  0  0  0
 40 81  2  0  0  0  0
 41 70  1  0  0  0  0
 41 73  1  0  0  0  0
 41 82  2  0  0  0  0
 42 46  1  0  0  0  0
 43 53  1  0  0  0  0
 44 69  1  0  0  0  0
 45 68  1  0  0  0  0
 46 48  1  0  0  0  0
 47 49  1  0  0  0  0
 47 50  1  0  0  0  0
 48 52  1  0  0  0  0
 49 54  1  0  0  0  0
 50 70  1  0  0  0  0
 51 54  1  0  0  0  0
 51 70  1  0  0  0  0
 52 74  1  0  0  0  0
 53 69  1  0  0  0  0
 54 67  1  0  0  0  0
 57 64  1  0  0  0  0
 58 65  1  0  0  0  0
 59 65  1  0  0  0  0
 60 65  1  0  0  0  0
 61 76  1  0  0  0  0
 62 84  1  0  0  0  0
 63 65  1  0  0  0  0
 63 75  1  0  0  0  0
 64 76  1  0  0  0  0
 66 67  1  0  0  0  0
M  CHG  1  76   1
M  ISO  4  41 100  62 101  73 100  84 101
M  END
> <Batch ID>
0060

> <Smiles>
C=C1CN(c2ccc(C)c([100NH:0][100C:0](=O)N3CCCC(n4nc(-c5ccc(Oc6ccc(F)cc6F)cc5)c(C(N)=O)c4N)C3)c2)C(=O)C1[101CH2:1][101O:1]c1ccc2c(c1)CN(C(=O)C(NC(=O)C(C)NC)C(C)(C)C)C(C(=O)NC1CCCc3ccccc31)C2

> <Shape>
0.304

> <Color>
0.072

> <Negative vol penalty>
0.000

$$$$

  -OEChem-04042323043D

 85 93  0     1  0  0  0  0  0999 V2000
  -30.3386  -18.3511   16.0137 C   0  0  0  0  0  0  0  0  0  0  0  0
  -29.9567  -18.7092   17.3026 C   0  0  0  0  0  0  0  0  0  0  0  0
  -23.0741   -9.8641   19.9477 C   0  0  0  0  0  0  0  0  0  0  0  0
  -23.8314   -9.8812   22.2419 C   0  0  0  0  0  0  0  0  0  0  0  0
  -31.6139  -18.6730   15.5510 C   0  0  0  0  0  0  0  0  0  0  0  0
  -30.8504  -19.3884   18.1300 C   0  0  0  0  0  0  0  0  0  0  0  0
  -28.6817  -23.2621   20.5664 C   0  0  0  0  0  0  0  0  0  0  0  0
  -22.3294   -8.7125   20.2020 C   0  0  0  0  0  0  0  0  0  0  0  0
  -23.0866   -8.7295   22.4962 C   0  0  0  0  0  0  0  0  0  0  0  0
  -27.8968  -22.9564   21.6773 C   0  0  0  0  0  0  0  0  0  0  0  0
  -19.3791   -7.9239   21.6535 C   0  0  0  0  0  0  0  0  0  0  0  0
  -18.0728   -7.8761   21.1670 C   0  0  0  0  0  0  0  0  0  0  0  0
  -29.7296  -23.5513   23.1286 C   0  0  0  0  0  0  0  0  0  0  0  0
  -29.8771  -17.4651   23.1184 C   0  0  0  0  0  0  0  0  0  0  0  0
  -32.0616  -16.6133   22.5360 C   0  0  0  0  0  0  0  0  0  0  0  0
  -18.6330   -5.9268   19.8542 C   0  0  0  0  0  0  0  0  0  0  0  0
  -23.8252  -10.4484   20.9676 C   0  0  0  0  0  0  0  0  0  0  0  0
  -24.1684  -12.9729   20.8364 C   0  0  0  0  0  0  0  0  0  0  0  0
  -32.5202  -19.3650   16.3697 C   0  0  0  0  0  0  0  0  0  0  0  0
  -30.0023  -23.7051   20.7282 C   0  0  0  0  0  0  0  0  0  0  0  0
  -32.1394  -19.7186   17.6783 C   0  0  0  0  0  0  0  0  0  0  0  0
  -30.5283  -23.8645   22.0182 C   0  0  0  0  0  0  0  0  0  0  0  0
  -31.8493  -18.3715   24.1794 C   0  0  0  0  0  0  0  0  0  0  0  0
  -30.6760  -16.5951   22.3765 C   0  0  0  0  0  0  0  0  0  0  0  0
  -30.4637  -18.3533   24.0198 C   0  0  0  0  0  0  0  0  0  0  0  0
  -22.3356   -8.1452   21.4763 C   0  0  0  0  0  0  0  0  0  0  0  0
  -28.4216  -23.0982   22.9586 C   0  0  0  0  0  0  0  0  0  0  0  0
  -20.3125   -6.9732   21.2404 C   0  0  0  0  0  0  0  0  0  0  0  0
  -17.6997   -6.8776   20.2673 C   0  0  0  0  0  0  0  0  0  0  0  0
  -32.6483  -17.5015   23.4375 C   0  0  0  0  0  0  0  0  0  0  0  0
  -19.9394   -5.9746   20.3408 C   0  0  0  0  0  0  0  0  0  0  0  0
  -24.5952  -11.6378   20.7053 C   0  0  0  0  0  0  0  0  0  0  0  0
  -25.2613  -13.7201   20.4710 C   0  0  0  0  0  0  0  0  0  0  0  0
  -22.8977  -13.4912   21.2515 C   0  0  0  0  0  0  0  0  0  0  0  0
  -32.8584  -22.6046   19.8707 C   0  0  0  0  0  0  0  0  0  0  0  0
  -33.8783  -25.4437   21.0631 C   0  0  0  0  0  0  0  0  0  0  0  0
  -28.2489  -19.3293   24.7160 C   0  0  0  0  0  0  0  0  0  0  0  0
  -33.3129  -28.0765   23.1596 C   0  0  0  0  0  0  0  0  0  0  0  0
  -30.7278  -14.7639   20.6473 C   0  0  0  0  0  0  0  0  0  0  0  0
  -33.9042  -19.6492   15.8421 C   0  0  0  0  0  0  0  0  0  0  0  0
  -30.8272  -24.0564   19.5205 C   0  0  0  0  0  0  0  0  0  0  0  0
  -31.9336  -24.3559   22.2465 C   0  0  0  0  0  0  0  0  0  0  0  0
  -34.6603  -20.7003   16.6507 C   0  0  0  0  0  0  0  0  0  0  0  0
  -29.6150  -12.3398   18.2887 C   0  0  0  0  0  0  0  0  0  0  0  0
  -34.5356  -20.4164   18.1442 C   0  0  0  0  0  0  0  0  0  0  0  0
  -28.1747  -12.0509   18.7180 C   0  0  0  0  0  0  0  0  0  0  0  0
  -30.5288  -12.5737   19.4904 C   0  0  0  0  0  0  0  0  0  0  0  0
  -28.6206  -13.3053   20.8661 C   0  0  0  0  0  0  0  0  0  0  0  0
  -33.0718  -20.4778   18.5971 C   0  0  1  0  0  0  0  0  0  0  0  0
  -32.3284  -24.0082   19.7877 C   0  0  1  0  0  0  0  0  0  0  0  0
  -27.6491  -13.1272   19.6880 C   0  0  2  0  0  0  0  0  0  0  0  0
  -32.5016  -19.3126   25.1397 C   0  0  0  0  0  0  0  0  0  0  0  0
  -34.3436  -30.2252   23.9459 C   0  0  0  0  0  0  0  0  0  0  0  0
  -35.8214  -23.8692   22.8109 C   0  0  0  0  0  0  0  0  0  0  0  0
  -36.1203  -25.9246   24.2090 C   0  0  0  0  0  0  0  0  0  0  0  0
  -36.7759  -25.9492   21.8023 C   0  0  0  0  0  0  0  0  0  0  0  0
  -31.0421  -29.6752   22.1364 C   0  0  0  0  0  0  0  0  0  0  0  0
  -27.7585  -20.4007   25.6800 C   0  0  0  0  0  0  0  0  0  0  0  0
  -26.4717  -21.0697   25.2094 C   0  0  0  0  0  0  0  0  0  0  0  0
  -26.6645  -21.7882   23.8819 C   0  0  0  0  0  0  0  0  0  1  0  0
  -34.3241  -25.9357   22.4189 C   0  0  1  0  0  0  0  0  0  0  0  0
  -33.4046  -29.5760   22.9411 C   0  0  2  0  0  0  0  0  0  0  0  0
  -35.7345  -25.4085   22.8063 C   0  0  0  0  0  0  0  0  0  0  0  0
  -25.8604  -11.5394   20.2889 N   0  0  0  0  0  0  0  0  0  0  0  0
  -26.2381  -12.8222   20.1552 N   0  0  0  0  0  0  0  0  0  0  0  0
  -32.7026  -24.6803   21.0336 N   0  0  0  0  0  0  0  0  0  0  0  0
  -29.9693  -13.6088   20.3624 N   0  0  0  0  0  0  0  0  0  0  0  0
  -25.4725  -15.0512   20.3922 N   0  0  0  0  0  0  0  0  0  0  0  0
  -21.8849  -12.5841   21.5918 N   0  0  0  0  0  0  0  0  0  0  0  0
  -29.6365  -19.2284   24.7632 N   0  0  0  0  0  0  0  0  0  0  0  0
  -30.0800  -15.6930   21.4607 N   0  0  0  0  0  0  0  0  0  0  0  0
  -32.6417  -21.8531   18.7315 N   0  0  0  0  0  0  0  0  0  0  0  0
  -34.2197  -27.3903   22.3799 N   0  0  0  0  0  0  0  0  0  0  0  0
  -32.0600  -30.2031   23.0811 N   0  3  0  0  0  0  0  0  0  0  0  0
  -22.6620  -14.7222   21.3030 O   0  0  0  0  0  0  0  0  0  0  0  0
  -33.4235  -22.2316   20.8921 O   0  0  0  0  0  0  0  0  0  0  0  0
  -34.5446  -25.7324   20.0659 O   0  0  0  0  0  0  0  0  0  0  0  0
  -27.4778  -18.6779   24.0193 O   0  0  0  0  0  0  0  0  0  0  0  0
  -32.5189  -27.5654   23.9463 O   0  0  0  0  0  0  0  0  0  0  0  0
  -31.8575  -14.9299   20.1802 O   0  0  0  0  0  0  0  0  0  0  0  0
  -21.6088   -7.0216   21.7249 O   0  0  0  0  0  0  0  0  0  0  0  0
  -27.6578  -22.7998   24.0446 O   0  0  0  0  0  0  0  0  0  1  0  0
  -16.4448   -6.8308   19.8014 F   0  0  0  0  0  0  0  0  0  0  0  0
  -33.9806  -17.5098   23.5845 F   0  0  0  0  0  0  0  0  0  0  0  0
  -20.8314   -5.0578   19.9411 F   0  0  0  0  0  0  0  0  0  0  0  0
  1  2  1  0  0  0  0
  1  5  2  0  0  0  0
  2  6  2  0  0  0  0
  3  8  2  0  0  0  0
  3 17  1  0  0  0  0
  4  9  1  0  0  0  0
  4 17  2  0  0  0  0
  5 19  1  0  0  0  0
  6 21  1  0  0  0  0
  7 10  2  0  0  0  0
  7 20  1  0  0  0  0
  8 26  1  0  0  0  0
  9 26  2  0  0  0  0
 10 27  1  0  0  0  0
 11 12  2  0  0  0  0
 11 28  1  0  0  0  0
 12 29  1  0  0  0  0
 13 22  1  0  0  0  0
 13 27  2  0  0  0  0
 14 24  2  0  0  0  0
 14 25  1  0  0  0  0
 15 24  1  0  0  0  0
 15 30  2  0  0  0  0
 16 29  2  0  0  0  0
 16 31  1  0  0  0  0
 17 32  1  0  0  0  0
 18 32  1  0  0  0  0
 18 33  2  0  0  0  0
 18 34  1  0  0  0  0
 19 21  2  0  0  0  0
 19 40  1  0  0  0  0
 20 22  2  0  0  0  0
 20 41  1  0  0  0  0
 21 49  1  0  0  0  0
 22 42  1  0  0  0  0
 23 25  2  0  0  0  0
 23 30  1  0  0  0  0
 23 52  1  0  0  0  0
 24 71  1  0  0  0  0
 25 70  1  0  0  0  0
 26 81  1  0  0  0  0
 27 82  1  0  0  0  0
 28 31  2  0  0  0  0
 28 81  1  0  0  0  0
 29 83  1  0  0  0  0
 30 84  1  0  0  0  0
 31 85  1  0  0  0  0
 32 64  2  0  0  0  0
 33 65  1  0  0  0  0
 33 68  1  0  0  0  0
 34 69  1  0  0  0  0
 34 75  2  0  0  0  0
 35 50  1  0  0  0  0
 35 72  1  0  0  0  0
 35 76  2  0  0  0  0
 36 61  1  0  0  0  0
 36 66  1  0  0  0  0
 36 77  2  0  0  0  0
 37 58  1  0  0  0  0
 37 70  1  0  0  0  0
 37 78  2  0  0  0  0
 38 62  1  0  0  0  0
 38 73  1  0  0  0  0
 38 79  2  0  0  0  0
 39 67  1  0  0  0  0
 39 71  1  0  0  0  0
 39 80  2  0  0  0  0
 40 43  1  0  0  0  0
 41 50  1  0  0  0  0
 42 66  1  0  0  0  0
 43 45  1  0  0  0  0
 44 46  1  0  0  0  0
 44 47  1  0  0  0  0
 45 49  1  0  0  0  0
 46 51  1  0  0  0  0
 47 67  1  0  0  0  0
 48 51  1  0  0  0  0
 48 67  1  0  0  0  0
 49 72  1  0  0  0  0
 50 66  1  0  0  0  0
 51 65  1  0  0  0  0
 53 62  1  0  0  0  0
 54 63  1  0  0  0  0
 55 63  1  0  0  0  0
 56 63  1  0  0  0  0
 57 74  1  0  0  0  0
 58 59  1  0  0  0  0
 59 60  1  0  0  0  0
 60 82  1  0  0  0  0
 61 63  1  0  0  0  0
 61 73  1  0  0  0  0
 62 74  1  0  0  0  0
 64 65  1  0  0  0  0
M  CHG  1  74   1
M  ISO  4  39 100  60 101  71 100  82 101
M  END
> <Batch ID>
0060

> <Smiles>
CNC(C)C(=O)NC(C(=O)N1Cc2cc([101O:1][101CH2:1]CCC(=O)Nc3cc([100NH:0][100C:0](=O)N4CCCC(n5nc(-c6ccc(Oc7ccc(F)cc7F)cc6)c(C(N)=O)c5N)C4)cc(F)c3C)ccc2CC1C(=O)NC1CCCc2ccccc21)C(C)(C)C

> <Shape>
0.175

> <Color>
0.191

> <Negative vol penalty>
0.000

$$$$

  -OEChem-04042323043D

 84 92  0     1  0  0  0  0  0999 V2000
  -30.3784  -32.4532   25.2926 C   0  0  0  0  0  0  0  0  0  0  0  0
  -29.9303  -31.2715   24.7112 C   0  0  0  0  0  0  0  0  0  0  0  0
  -25.0945   -7.9172   21.3830 C   0  0  0  0  0  0  0  0  0  0  0  0
  -23.9155  -10.0246   21.4587 C   0  0  0  0  0  0  0  0  0  0  0  0
  -27.6068  -18.3929   21.0654 C   0  0  0  0  0  0  0  0  0  0  0  0
  -29.9302  -18.4617   21.7244 C   0  0  0  0  0  0  0  0  0  0  0  0
  -29.4593  -33.3776   25.7873 C   0  0  0  0  0  0  0  0  0  0  0  0
  -28.5627  -31.0129   24.6251 C   0  0  0  0  0  0  0  0  0  0  0  0
  -27.2048  -29.2304   20.0838 C   0  0  0  0  0  0  0  0  0  0  0  0
  -27.7940  -17.1151   20.5385 C   0  0  0  0  0  0  0  0  0  0  0  0
  -30.1174  -17.1838   21.1976 C   0  0  0  0  0  0  0  0  0  0  0  0
  -24.2602   -7.4145   22.3815 C   0  0  0  0  0  0  0  0  0  0  0  0
  -23.0811   -9.5219   22.4571 C   0  0  0  0  0  0  0  0  0  0  0  0
  -27.4680  -27.8864   19.8226 C   0  0  0  0  0  0  0  0  0  0  0  0
  -22.2092   -5.4561   24.6558 C   0  0  0  0  0  0  0  0  0  0  0  0
  -21.6936   -4.1714   24.4843 C   0  0  0  0  0  0  0  0  0  0  0  0
  -25.1680  -27.3473   20.3111 C   0  0  0  0  0  0  0  0  0  0  0  0
  -20.6112   -4.8785   22.4433 C   0  0  0  0  0  0  0  0  0  0  0  0
  -24.9222   -9.2222   20.9217 C   0  0  0  0  0  0  0  0  0  0  0  0
  -28.6749  -19.0662   21.6583 C   0  0  0  0  0  0  0  0  0  0  0  0
  -25.5798   -9.6780   18.4994 C   0  0  0  0  0  0  0  0  0  0  0  0
  -28.0795  -33.1347   25.6985 C   0  0  0  0  0  0  0  0  0  0  0  0
  -25.9217  -29.6421   20.4718 C   0  0  0  0  0  0  0  0  0  0  0  0
  -27.6244  -31.9344   25.1202 C   0  0  0  0  0  0  0  0  0  0  0  0
  -24.8905  -28.6975   20.5741 C   0  0  0  0  0  0  0  0  0  0  0  0
  -29.0493  -16.5105   20.6046 C   0  0  0  0  0  0  0  0  0  0  0  0
  -23.2535   -8.2169   22.9185 C   0  0  0  0  0  0  0  0  0  0  0  0
  -26.4502  -26.9442   19.9390 C   0  0  0  0  0  0  0  0  0  0  0  0
  -21.9257   -6.4520   23.7212 C   0  0  0  0  0  0  0  0  0  0  0  0
  -20.8947   -3.8826   23.3780 C   0  0  0  0  0  0  0  0  0  0  0  0
  -21.1268   -6.1631   22.6149 C   0  0  0  0  0  0  0  0  0  0  0  0
  -25.7842   -9.7422   19.8908 C   0  0  0  0  0  0  0  0  0  0  0  0
  -26.6742  -10.3106   17.9621 C   0  0  0  0  0  0  0  0  0  0  0  0
  -27.3873  -23.5450   20.5792 C   0  0  0  0  0  0  0  0  0  0  0  0
  -27.1130  -24.8430   20.7240 C   0  0  0  0  0  0  0  0  0  1  0  0
  -28.4768  -20.4198   22.2163 C   0  0  0  0  0  0  0  0  0  0  0  0
  -24.4974   -9.0986   17.7589 C   0  0  0  0  0  0  0  0  0  0  0  0
  -27.8240  -22.7646   21.7537 C   0  0  0  0  0  0  0  0  0  0  0  0
  -24.6963  -31.0261   23.0576 C   0  0  0  0  0  0  0  0  0  0  0  0
  -21.9971  -31.1029   21.2602 C   0  0  0  0  0  0  0  0  0  0  0  0
  -20.2017  -29.7901   18.6718 C   0  0  0  0  0  0  0  0  0  0  0  0
  -30.4200  -14.4700   20.0531 C   0  0  0  0  0  0  0  0  0  0  0  0
  -27.1255  -34.1421   26.2899 C   0  0  0  0  0  0  0  0  0  0  0  0
  -25.6475  -31.0993   20.7240 C   0  0  0  0  0  0  0  0  0  0  0  0
  -23.4909  -29.0908   20.9677 C   0  0  0  0  0  0  0  0  0  0  0  0
  -25.6835  -33.9630   25.8221 C   0  0  0  0  0  0  0  0  0  0  0  0
  -31.2871  -11.2277   18.8646 C   0  0  0  0  0  0  0  0  0  0  0  0
  -25.2748  -32.4955   25.9016 C   0  0  0  0  0  0  0  0  0  0  0  0
  -29.9547  -10.4748   18.8605 C   0  0  0  0  0  0  0  0  0  0  0  0
  -31.3944  -12.1841   20.0510 C   0  0  0  0  0  0  0  0  0  0  0  0
  -28.9418  -12.3697   20.1910 C   0  0  0  0  0  0  0  0  0  0  0  0
  -26.1482  -31.6292   24.9861 C   0  0  1  0  0  0  0  0  0  0  0  0
  -24.4288  -31.3332   21.6113 C   0  0  1  0  0  0  0  0  0  0  0  0
  -28.7605  -11.4420   18.9785 C   0  0  2  0  0  0  0  0  0  0  0  0
  -18.0145  -30.0369   17.4664 C   0  0  0  0  0  0  0  0  0  0  0  0
  -20.5704  -29.7070   23.5680 C   0  0  0  0  0  0  0  0  0  0  0  0
  -18.7157  -29.1378   21.9854 C   0  0  0  0  0  0  0  0  0  0  0  0
  -19.2491  -31.5256   22.4720 C   0  0  0  0  0  0  0  0  0  0  0  0
  -21.5497  -30.4337   16.1169 C   0  0  0  0  0  0  0  0  0  0  0  0
  -20.8315  -30.1688   21.0412 C   0  0  1  0  0  0  0  0  0  0  0  0
  -19.4777  -30.4491   17.5116 C   0  0  2  0  0  0  0  0  0  0  0  0
  -19.8684  -30.1268   22.2611 C   0  0  0  0  0  0  0  0  0  0  0  0
  -26.9192  -10.3661   20.2170 N   0  0  0  0  0  0  0  0  0  0  0  0
  -27.4380  -10.6997   19.0229 N   0  0  0  0  0  0  0  0  0  0  0  0
  -23.2743  -30.5267   21.2100 N   0  0  0  0  0  0  0  0  0  0  0  0
  -30.2310  -13.0725   20.0964 N   0  0  0  0  0  0  0  0  0  0  0  0
  -27.0481  -10.5662   16.6903 N   0  0  0  0  0  0  0  0  0  0  0  0
  -23.4538   -8.4884   18.4680 N   0  0  0  0  0  0  0  0  0  0  0  0
  -29.2396  -15.2123   20.0694 N   0  0  0  0  0  0  0  0  0  0  0  0
  -28.0683  -21.3919   21.3880 N   0  0  0  0  0  0  0  0  0  0  0  0
  -25.7260  -31.7648   23.6085 N   0  0  0  0  0  0  0  0  0  0  0  0
  -20.1998  -30.5894   19.7953 N   0  0  0  0  0  0  0  0  0  0  0  0
  -28.7190  -20.5966   23.5149 N   0  3  0  0  0  0  0  0  0  0  0  0
  -20.1139  -30.0664   16.2194 N   0  3  0  0  0  0  0  0  0  0  0  0
  -24.4650   -9.1067   16.5049 O   0  0  0  0  0  0  0  0  0  0  0  0
  -27.9703  -23.1867   22.8885 O   0  0  0  0  0  0  0  0  0  0  0  0
  -24.0176  -30.1826   23.6317 O   0  0  0  0  0  0  0  0  0  0  0  0
  -21.7825  -32.3009   21.4610 O   0  0  0  0  0  0  0  0  0  0  0  0
  -20.7141  -28.6759   18.5907 O   0  0  0  0  0  0  0  0  0  0  0  0
  -31.5450  -14.9707   19.9775 O   0  0  0  0  0  0  0  0  0  0  0  0
  -22.4390   -7.7267   23.8925 O   0  0  0  0  0  0  0  0  0  0  0  0
  -26.7046  -25.6317   19.6853 O   0  0  0  0  0  0  0  0  0  1  0  0
  -20.4009   -2.6485   23.2125 F   0  0  0  0  0  0  0  0  0  0  0  0
  -20.8520   -7.1154   21.7130 F   0  0  0  0  0  0  0  0  0  0  0  0
  1  2  1  0  0  0  0
  1  7  2  0  0  0  0
  2  8  2  0  0  0  0
  3 12  2  0  0  0  0
  3 19  1  0  0  0  0
  4 13  1  0  0  0  0
  4 19  2  0  0  0  0
  5 10  2  0  0  0  0
  5 20  1  0  0  0  0
  6 11  1  0  0  0  0
  6 20  2  0  0  0  0
  7 22  1  0  0  0  0
  8 24  1  0  0  0  0
  9 14  2  0  0  0  0
  9 23  1  0  0  0  0
 10 26  1  0  0  0  0
 11 26  2  0  0  0  0
 12 27  1  0  0  0  0
 13 27  2  0  0  0  0
 14 28  1  0  0  0  0
 15 16  2  0  0  0  0
 15 29  1  0  0  0  0
 16 30  1  0  0  0  0
 17 25  1  0  0  0  0
 17 28  2  0  0  0  0
 18 30  2  0  0  0  0
 18 31  1  0  0  0  0
 19 32  1  0  0  0  0
 20 36  1  0  0  0  0
 21 32  1  0  0  0  0
 21 33  2  0  0  0  0
 21 37  1  0  0  0  0
 22 24  2  0  0  0  0
 22 43  1  0  0  0  0
 23 25  2  0  0  0  0
 23 44  1  0  0  0  0
 24 52  1  0  0  0  0
 25 45  1  0  0  0  0
 26 69  1  0  0  0  0
 27 81  1  0  0  0  0
 28 82  1  0  0  0  0
 29 31  2  0  0  0  0
 29 81  1  0  0  0  0
 30 83  1  0  0  0  0
 31 84  1  0  0  0  0
 32 63  2  0  0  0  0
 33 64  1  0  0  0  0
 33 67  1  0  0  0  0
 34 35  2  0  0  0  0
 34 38  1  0  0  0  0
 35 82  1  0  0  0  0
 36 70  1  0  0  0  0
 36 73  2  0  0  0  0
 37 68  1  0  0  0  0
 37 75  2  0  0  0  0
 38 70  1  0  0  0  0
 38 76  2  0  0  0  0
 39 53  1  0  0  0  0
 39 71  1  0  0  0  0
 39 77  2  0  0  0  0
 40 60  1  0  0  0  0
 40 65  1  0  0  0  0
 40 78  2  0  0  0  0
 41 61  1  0  0  0  0
 41 72  1  0  0  0  0
 41 79  2  0  0  0  0
 42 66  1  0  0  0  0
 42 69  1  0  0  0  0
 42 80  2  0  0  0  0
 43 46  1  0  0  0  0
 44 53  1  0  0  0  0
 45 65  1  0  0  0  0
 46 48  1  0  0  0  0
 47 49  1  0  0  0  0
 47 50  1  0  0  0  0
 48 52  1  0  0  0  0
 49 54  1  0  0  0  0
 50 66  1  0  0  0  0
 51 54  1  0  0  0  0
 51 66  1  0  0  0  0
 52 71  1  0  0  0  0
 53 65  1  0  0  0  0
 54 64  1  0  0  0  0
 55 61  1  0  0  0  0
 56 62  1  0  0  0  0
 57 62  1  0  0  0  0
 58 62  1  0  0  0  0
 59 74  1  0  0  0  0
 60 62  1  0  0  0  0
 60 72  1  0  0  0  0
 61 74  1  0  0  0  0
 63 64  1  0  0  0  0
M  CHG  2  73   1  74   1
M  ISO  4  35 101  42 100  69 100  82 101
M  END
> <Batch ID>
0060

> <Smiles>
CNC(C)C(=O)NC(C(=O)N1Cc2cc([101O:1][101CH:1]=CC(=O)NC(=N)c3ccc([100NH:0][100C:0](=O)N4CCCC(n5nc(-c6ccc(Oc7ccc(F)cc7F)cc6)c(C(N)=O)c5N)C4)cc3)ccc2CC1C(=O)NC1CCCc2ccccc21)C(C)(C)C

> <Shape>
0.295

> <Color>
0.081

> <Negative vol penalty>
0.000

$$$$

  -OEChem-04042323043D

 85 93  0     1  0  0  0  0  0999 V2000
  -30.6696  -30.8629   24.2349 C   0  0  0  0  0  0  0  0  0  0  0  0
  -31.3156  -29.6314   24.1961 C   0  0  0  0  0  0  0  0  0  0  0  0
  -23.0382   -9.8491   19.9744 C   0  0  0  0  0  0  0  0  0  0  0  0
  -23.7919   -9.8845   22.2696 C   0  0  0  0  0  0  0  0  0  0  0  0
  -29.7361  -31.1905   23.2525 C   0  0  0  0  0  0  0  0  0  0  0  0
  -31.0276  -28.7262   23.1752 C   0  0  0  0  0  0  0  0  0  0  0  0
  -34.9238  -24.8305   20.5016 C   0  0  0  0  0  0  0  0  0  0  0  0
  -30.5462  -18.2780   23.9506 C   0  0  0  0  0  0  0  0  0  0  0  0
  -29.9486  -17.3874   23.0588 C   0  0  0  0  0  0  0  0  0  0  0  0
  -22.2759   -8.7122   20.2423 C   0  0  0  0  0  0  0  0  0  0  0  0
  -23.0295   -8.7476   22.5375 C   0  0  0  0  0  0  0  0  0  0  0  0
  -35.1743  -23.4729   20.6963 C   0  0  0  0  0  0  0  0  0  0  0  0
  -19.7878   -8.0104   23.1442 C   0  0  0  0  0  0  0  0  0  0  0  0
  -19.0271   -8.0027   24.3133 C   0  0  0  0  0  0  0  0  0  0  0  0
  -33.6808  -22.9426   18.8777 C   0  0  0  0  0  0  0  0  0  0  0  0
  -32.1216  -16.4959   22.4929 C   0  0  0  0  0  0  0  0  0  0  0  0
  -20.2363   -6.0595   25.0872 C   0  0  0  0  0  0  0  0  0  0  0  0
  -23.7963  -10.4353   20.9881 C   0  0  0  0  0  0  0  0  0  0  0  0
  -24.1776  -12.9524   20.8250 C   0  0  0  0  0  0  0  0  0  0  0  0
  -29.4435  -30.2927   22.2137 C   0  0  0  0  0  0  0  0  0  0  0  0
  -34.0399  -25.2545   19.4988 C   0  0  0  0  0  0  0  0  0  0  0  0
  -30.0882  -29.0415   22.1788 C   0  0  0  0  0  0  0  0  0  0  0  0
  -33.4227  -24.3062   18.6706 C   0  0  0  0  0  0  0  0  0  0  0  0
  -31.9315  -18.2776   24.1135 C   0  0  0  0  0  0  0  0  0  0  0  0
  -30.7362  -16.4963   22.3300 C   0  0  0  0  0  0  0  0  0  0  0  0
  -22.2715   -8.1614   21.5238 C   0  0  0  0  0  0  0  0  0  0  0  0
  -34.5506  -22.5285   19.8862 C   0  0  0  0  0  0  0  0  0  0  0  0
  -20.7727   -7.0426   22.9465 C   0  0  0  0  0  0  0  0  0  0  0  0
  -19.2514   -7.0273   25.2849 C   0  0  0  0  0  0  0  0  0  0  0  0
  -20.9970   -6.0672   23.9180 C   0  0  0  0  0  0  0  0  0  0  0  0
  -32.7192  -17.3865   23.3847 C   0  0  0  0  0  0  0  0  0  0  0  0
  -24.5844  -11.6095   20.7119 C   0  0  0  0  0  0  0  0  0  0  0  0
  -25.2822  -13.6784   20.4519 C   0  0  0  0  0  0  0  0  0  0  0  0
  -22.9141  -13.4950   21.2310 C   0  0  0  0  0  0  0  0  0  0  0  0
  -31.2890  -26.8464   19.4598 C   0  0  0  0  0  0  0  0  0  0  0  0
  -31.7078  -26.7161   16.2458 C   0  0  0  0  0  0  0  0  0  0  0  0
  -34.6182  -19.3725   21.6405 C   0  0  0  0  0  0  0  0  0  0  0  0
  -33.1306  -25.1455   13.5708 C   0  0  0  0  0  0  0  0  0  0  0  0
  -30.7634  -14.6423   20.6246 C   0  0  0  0  0  0  0  0  0  0  0  0
  -28.3923  -30.6720   21.2010 C   0  0  0  0  0  0  0  0  0  0  0  0
  -33.8010  -26.7239   19.2842 C   0  0  0  0  0  0  0  0  0  0  0  0
  -32.4811  -24.7106   17.5668 C   0  0  0  0  0  0  0  0  0  0  0  0
  -28.4194  -29.8085   19.9424 C   0  0  0  0  0  0  0  0  0  0  0  0
  -29.6182  -12.2049   18.2956 C   0  0  0  0  0  0  0  0  0  0  0  0
  -28.5227  -28.3318   20.3103 C   0  0  0  0  0  0  0  0  0  0  0  0
  -28.1730  -11.9432   18.7259 C   0  0  0  0  0  0  0  0  0  0  0  0
  -30.5334  -12.4405   19.4958 C   0  0  0  0  0  0  0  0  0  0  0  0
  -28.6342  -13.2185   20.8585 C   0  0  0  0  0  0  0  0  0  0  0  0
  -29.8210  -28.0429   21.0735 C   0  0  1  0  0  0  0  0  0  0  0  0
  -32.4862  -27.0171   18.5681 C   0  0  1  0  0  0  0  0  0  0  0  0
  -27.6620  -13.0397   19.6810 C   0  0  2  0  0  0  0  0  0  0  0  0
  -32.5397  -19.2437   25.0769 C   0  0  0  0  0  0  0  0  0  0  0  0
  -33.2592  -25.2466   11.0667 C   0  0  0  0  0  0  0  0  0  0  0  0
  -28.9109  -25.5114   16.0559 C   0  0  0  0  0  0  0  0  0  0  0  0
  -29.4634  -24.7713   13.7289 C   0  0  0  0  0  0  0  0  0  0  0  0
  -29.4408  -27.2017   14.2905 C   0  0  0  0  0  0  0  0  0  0  0  0
  -36.0580  -25.5776   13.6227 C   0  0  0  0  0  0  0  0  0  0  0  0
  -35.1064  -20.7819   21.4016 C   0  0  0  0  0  0  0  0  0  1  0  0
  -31.3191  -25.7471   15.1554 C   0  0  1  0  0  0  0  0  0  0  0  0
  -33.8962  -25.6851   12.3762 C   0  0  2  0  0  0  0  0  0  0  0  0
  -29.7997  -25.7998   14.8297 C   0  0  0  0  0  0  0  0  0  0  0  0
  -25.8488  -11.4868   20.2991 N   0  0  0  0  0  0  0  0  0  0  0  0
  -26.2459  -12.7619   20.1495 N   0  0  0  0  0  0  0  0  0  0  0  0
  -32.2749  -26.1588   17.4006 N   0  0  0  0  0  0  0  0  0  0  0  0
  -29.9881  -13.4951   20.3533 N   0  0  0  0  0  0  0  0  0  0  0  0
  -25.5134  -15.0050   20.3563 N   0  0  0  0  0  0  0  0  0  0  0  0
  -21.8873  -12.6077   21.5811 N   0  0  0  0  0  0  0  0  0  0  0  0
  -30.1283  -15.5914   21.4248 N   0  0  0  0  0  0  0  0  0  0  0  0
  -30.9421  -27.9860   20.1602 N   0  0  0  0  0  0  0  0  0  0  0  0
  -32.1845  -26.0430   14.0188 N   0  0  0  0  0  0  0  0  0  0  0  0
  -34.8930  -18.9040   22.9653 N   0  0  0  0  0  0  0  0  0  0  0  0
  -35.3043  -25.1976   12.4002 N   0  3  0  0  0  0  0  0  0  0  0  0
  -22.6968  -14.7300   21.2662 O   0  0  0  0  0  0  0  0  0  0  0  0
  -30.7210  -25.7616   19.5076 O   0  0  0  0  0  0  0  0  0  0  0  0
  -31.5219  -27.9237   16.0761 O   0  0  0  0  0  0  0  0  0  0  0  0
  -34.0452  -18.7049   20.7871 O   0  0  0  0  0  0  0  0  0  0  0  0
  -33.3474  -24.0371   14.0556 O   0  0  0  0  0  0  0  0  0  0  0  0
  -31.8963  -14.7853   20.1575 O   0  0  0  0  0  0  0  0  0  0  0  0
  -35.0064  -16.3388   22.6825 O   0  0  0  0  0  0  0  0  0  0  0  0
  -34.7502  -17.3104   24.9910 O   0  0  0  0  0  0  0  0  0  0  0  0
  -21.5275   -7.0521   21.7855 O   0  0  0  0  0  0  0  0  0  0  0  0
  -34.7928  -21.2027   20.0746 O   0  0  0  0  0  0  0  0  0  1  0  0
  -18.5219   -7.0209   26.4083 F   0  0  0  0  0  0  0  0  0  0  0  0
  -21.9425   -5.1356   23.7342 F   0  0  0  0  0  0  0  0  0  0  0  0
  -34.4770  -17.3582   23.5676 S   0  0  0  0  0  0  0  0  0  0  0  0
  1  2  1  0  0  0  0
  1  5  2  0  0  0  0
  2  6  2  0  0  0  0
  3 10  2  0  0  0  0
  3 18  1  0  0  0  0
  4 11  1  0  0  0  0
  4 18  2  0  0  0  0
  5 20  1  0  0  0  0
  6 22  1  0  0  0  0
  7 12  2  0  0  0  0
  7 21  1  0  0  0  0
  8  9  2  0  0  0  0
  8 24  1  0  0  0  0
  9 25  1  0  0  0  0
 10 26  1  0  0  0  0
 11 26  2  0  0  0  0
 12 27  1  0  0  0  0
 13 14  2  0  0  0  0
 13 28  1  0  0  0  0
 14 29  1  0  0  0  0
 15 23  1  0  0  0  0
 15 27  2  0  0  0  0
 16 25  2  0  0  0  0
 16 31  1  0  0  0  0
 17 29  2  0  0  0  0
 17 30  1  0  0  0  0
 18 32  1  0  0  0  0
 19 32  1  0  0  0  0
 19 33  2  0  0  0  0
 19 34  1  0  0  0  0
 20 22  2  0  0  0  0
 20 40  1  0  0  0  0
 21 23  2  0  0  0  0
 21 41  1  0  0  0  0
 22 49  1  0  0  0  0
 23 42  1  0  0  0  0
 24 31  2  0  0  0  0
 24 52  1  0  0  0  0
 25 68  1  0  0  0  0
 26 81  1  0  0  0  0
 27 82  1  0  0  0  0
 28 30  2  0  0  0  0
 28 81  1  0  0  0  0
 29 83  1  0  0  0  0
 30 84  1  0  0  0  0
 31 85  1  0  0  0  0
 32 62  2  0  0  0  0
 33 63  1  0  0  0  0
 33 66  1  0  0  0  0
 34 67  1  0  0  0  0
 34 73  2  0  0  0  0
 35 50  1  0  0  0  0
 35 69  1  0  0  0  0
 35 74  2  0  0  0  0
 36 59  1  0  0  0  0
 36 64  1  0  0  0  0
 36 75  2  0  0  0  0
 37 58  1  0  0  0  0
 37 71  1  0  0  0  0
 37 76  2  0  0  0  0
 38 60  1  0  0  0  0
 38 70  1  0  0  0  0
 38 77  2  0  0  0  0
 39 65  1  0  0  0  0
 39 68  1  0  0  0  0
 39 78  2  0  0  0  0
 40 43  1  0  0  0  0
 41 50  1  0  0  0  0
 42 64  1  0  0  0  0
 43 45  1  0  0  0  0
 44 46  1  0  0  0  0
 44 47  1  0  0  0  0
 45 49  1  0  0  0  0
 46 51  1  0  0  0  0
 47 65  1  0  0  0  0
 48 51  1  0  0  0  0
 48 65  1  0  0  0  0
 49 69  1  0  0  0  0
 50 64  1  0  0  0  0
 51 63  1  0  0  0  0
 53 60  1  0  0  0  0
 54 61  1  0  0  0  0
 55 61  1  0  0  0  0
 56 61  1  0  0  0  0
 57 72  1  0  0  0  0
 58 82  1  0  0  0  0
 59 61  1  0  0  0  0
 59 70  1  0  0  0  0
 60 72  1  0  0  0  0
 62 63  1  0  0  0  0
 71 85  1  0  0  0  0
 79 85  2  0  0  0  0
 80 85  2  0  0  0  0
M  CHG  1  72   1
M  ISO  4  39 100  58 101  68 100  82 101
M  END
> <Batch ID>
0060

> <Smiles>
CNC(C)C(=O)NC(C(=O)N1Cc2cc([101O:1][101CH2:1]C(=O)NS(=O)(=O)c3cc([100NH:0][100C:0](=O)N4CCCC(n5nc(-c6ccc(Oc7ccc(F)cc7F)cc6)c(C(N)=O)c5N)C4)ccc3C)ccc2CC1C(=O)NC1CCCc2ccccc21)C(C)(C)C

> <Shape>
0.210

> <Color>
0.202

> <Negative vol penalty>
0.000

$$$$

  -OEChem-04042323043D

 83 91  0     1  0  0  0  0  0999 V2000
  -21.5764  -11.6343   20.6649 C   0  0  0  0  0  0  0  0  0  0  0  0
  -21.5807  -12.8212   21.3906 C   0  0  0  0  0  0  0  0  0  0  0  0
  -18.3553  -27.2933   21.7245 C   0  0  0  0  0  0  0  0  0  0  0  0
  -29.4801  -31.3234   23.0120 C   0  0  0  0  0  0  0  0  0  0  0  0
  -28.4899  -29.5970   24.3818 C   0  0  0  0  0  0  0  0  0  0  0  0
  -22.7704  -11.1256   20.1556 C   0  0  0  0  0  0  0  0  0  0  0  0
  -22.7794  -13.4996   21.6083 C   0  0  0  0  0  0  0  0  0  0  0  0
  -22.3578  -18.4864   20.8344 C   0  0  0  0  0  0  0  0  0  0  0  0
  -19.2104  -28.3927   21.6493 C   0  0  0  0  0  0  0  0  0  0  0  0
  -30.3559  -31.6440   24.0492 C   0  0  0  0  0  0  0  0  0  0  0  0
  -29.3658  -29.9176   25.4190 C   0  0  0  0  0  0  0  0  0  0  0  0
  -21.7572  -19.2387   21.8429 C   0  0  0  0  0  0  0  0  0  0  0  0
  -32.5947  -29.3269   26.2225 C   0  0  0  0  0  0  0  0  0  0  0  0
  -33.2214  -28.2736   26.8884 C   0  0  0  0  0  0  0  0  0  0  0  0
  -18.6086  -26.2742   22.6426 C   0  0  0  0  0  0  0  0  0  0  0  0
  -23.9357  -19.9184   22.6248 C   0  0  0  0  0  0  0  0  0  0  0  0
  -20.5724  -27.4538   23.4102 C   0  0  0  0  0  0  0  0  0  0  0  0
  -32.2098  -28.9840   28.9642 C   0  0  0  0  0  0  0  0  0  0  0  0
  -28.5471  -30.2999   23.1784 C   0  0  0  0  0  0  0  0  0  0  0  0
  -27.8498  -29.0318   21.0776 C   0  0  0  0  0  0  0  0  0  0  0  0
  -23.9829  -11.8031   20.3589 C   0  0  0  0  0  0  0  0  0  0  0  0
  -23.7545  -18.4356   20.7200 C   0  0  0  0  0  0  0  0  0  0  0  0
  -23.9910  -12.9987   21.1023 C   0  0  0  0  0  0  0  0  0  0  0  0
  -24.5515  -19.1667   21.6124 C   0  0  0  0  0  0  0  0  0  0  0  0
  -20.3190  -28.4730   22.4921 C   0  0  0  0  0  0  0  0  0  0  0  0
  -30.2988  -30.9411   25.2527 C   0  0  0  0  0  0  0  0  0  0  0  0
  -22.5463  -19.9525   22.7401 C   0  0  0  0  0  0  0  0  0  0  0  0
  -31.7756  -30.2088   26.9275 C   0  0  0  0  0  0  0  0  0  0  0  0
  -33.0290  -28.1021   28.2592 C   0  0  0  0  0  0  0  0  0  0  0  0
  -31.5831  -30.0373   28.2984 C   0  0  0  0  0  0  0  0  0  0  0  0
  -19.7172  -26.3544   23.4854 C   0  0  0  0  0  0  0  0  0  0  0  0
  -27.6417  -29.9686   22.1075 C   0  0  0  0  0  0  0  0  0  0  0  0
  -26.7032  -29.0900   20.3236 C   0  0  0  0  0  0  0  0  0  0  0  0
  -20.4904  -22.5041   24.2185 C   0  0  0  0  0  0  0  0  0  0  0  0
  -20.2302  -23.6801   23.6365 C   0  0  0  0  0  0  0  0  0  0  0  0
  -28.9785  -28.1845   20.8250 C   0  0  0  0  0  0  0  0  0  0  0  0
  -25.9379  -16.1329   20.9040 C   0  0  0  0  0  0  0  0  0  0  0  0
  -27.9524  -18.5062   19.9921 C   0  0  0  0  0  0  0  0  0  0  0  0
  -28.6046  -21.8524   19.8355 C   0  0  0  0  0  0  0  0  0  0  0  0
  -21.0800  -30.6871   21.5621 C   0  0  0  0  0  0  0  0  0  0  0  0
  -25.2549  -11.1896   19.8294 C   0  0  0  0  0  0  0  0  0  0  0  0
  -24.3861  -17.6408   19.6101 C   0  0  0  0  0  0  0  0  0  0  0  0
  -26.0548  -19.1617   21.5200 C   0  0  0  0  0  0  0  0  0  0  0  0
  -26.4287  -12.1646   19.7845 C   0  0  0  0  0  0  0  0  0  0  0  0
  -23.1947  -32.0988   19.0698 C   0  0  0  0  0  0  0  0  0  0  0  0
  -26.5291  -12.9397   21.0944 C   0  0  0  0  0  0  0  0  0  0  0  0
  -24.5933  -31.6225   19.4687 C   0  0  0  0  0  0  0  0  0  0  0  0
  -22.3336  -32.4157   20.2912 C   0  0  0  0  0  0  0  0  0  0  0  0
  -23.6433  -30.8615   21.6835 C   0  0  0  0  0  0  0  0  0  0  0  0
  -25.2675  -13.7765   21.3384 C   0  0  1  0  0  0  0  0  0  0  0  0
  -25.8310  -17.2488   19.9035 C   0  0  1  0  0  0  0  0  0  0  0  0
  -24.5261  -30.4682   20.4879 C   0  0  2  0  0  0  0  0  0  0  0  0
  -30.3483  -23.4857   19.0678 C   0  0  0  0  0  0  0  0  0  0  0  0
  -29.6664  -17.8137   22.4196 C   0  0  0  0  0  0  0  0  0  0  0  0
  -30.8206  -20.0185   22.1464 C   0  0  0  0  0  0  0  0  0  0  0  0
  -30.9591  -18.3075   20.3364 C   0  0  0  0  0  0  0  0  0  0  0  0
  -26.7362  -23.1277   17.9273 C   0  0  0  0  0  0  0  0  0  0  0  0
  -20.6732  -21.2336   23.4518 C   0  0  0  0  0  0  0  0  0  1  0  0
  -28.7837  -19.5392   20.7139 C   0  0  1  0  0  0  0  0  0  0  0  0
  -29.0802  -22.7336   18.6946 C   0  0  2  0  0  0  0  0  0  0  0  0
  -30.0292  -18.9185   21.4072 C   0  0  0  0  0  0  0  0  0  0  0  0
  -26.4562  -30.5776   22.0189 N   0  0  0  0  0  0  0  0  0  0  0  0
  -18.7582  -25.0543   25.5443 N   0  0  0  0  0  0  0  0  0  0  0  0
  -25.9091  -30.0222   20.9242 N   0  0  0  0  0  0  0  0  0  0  0  0
  -26.6253  -18.3644   20.4216 N   0  0  0  0  0  0  0  0  0  0  0  0
  -22.3131  -31.2754   21.2100 N   0  0  0  0  0  0  0  0  0  0  0  0
  -26.3069  -28.4344   19.2121 N   0  0  0  0  0  0  0  0  0  0  0  0
  -30.0726  -28.2511   21.6984 N   0  0  0  0  0  0  0  0  0  0  0  0
  -21.1876  -29.5899   22.4160 N   0  0  0  0  0  0  0  0  0  0  0  0
  -25.2894  -14.9731   20.5248 N   0  0  0  0  0  0  0  0  0  0  0  0
  -29.0988  -20.5694   19.7302 N   0  0  0  0  0  0  0  0  0  0  0  0
  -28.0309  -23.7297   18.3374 N   0  3  0  0  0  0  0  0  0  0  0  0
  -29.0226  -27.4038   19.8441 O   0  0  0  0  0  0  0  0  0  0  0  0
  -26.5638  -16.3105   21.9425 O   0  0  0  0  0  0  0  0  0  0  0  0
  -28.4598  -17.8542   19.0760 O   0  0  0  0  0  0  0  0  0  0  0  0
  -27.8713  -22.2622   20.7326 O   0  0  0  0  0  0  0  0  0  0  0  0
  -20.0094  -31.1075   21.1158 O   0  0  0  0  0  0  0  0  0  0  0  0
  -21.3659  -25.3428   25.2031 O   0  0  0  0  0  0  0  0  0  0  0  0
  -31.1534  -31.2535   26.2649 O   0  0  0  0  0  0  0  0  0  0  0  0
  -21.9627  -20.6871   23.7258 O   0  0  0  0  0  0  0  0  0  1  0  0
  -33.6297  -27.0897   28.8982 F   0  0  0  0  0  0  0  0  0  0  0  0
  -30.7964  -30.8806   28.9808 F   0  0  0  0  0  0  0  0  0  0  0  0
  -20.0418  -25.0480   24.6608 S   0  0  2  0  0  0  0  0  0  0  0  0
  1  2  1  0  0  0  0
  1  6  2  0  0  0  0
  2  7  2  0  0  0  0
  3  9  1  0  0  0  0
  3 15  2  0  0  0  0
  4 10  2  0  0  0  0
  4 19  1  0  0  0  0
  5 11  1  0  0  0  0
  5 19  2  0  0  0  0
  6 21  1  0  0  0  0
  7 23  1  0  0  0  0
  8 12  2  0  0  0  0
  8 22  1  0  0  0  0
  9 25  2  0  0  0  0
 10 26  1  0  0  0  0
 11 26  2  0  0  0  0
 12 27  1  0  0  0  0
 13 14  2  0  0  0  0
 13 28  1  0  0  0  0
 14 29  1  0  0  0  0
 15 31  1  0  0  0  0
 16 24  1  0  0  0  0
 16 27  2  0  0  0  0
 17 25  1  0  0  0  0
 17 31  2  0  0  0  0
 18 29  2  0  0  0  0
 18 30  1  0  0  0  0
 19 32  1  0  0  0  0
 20 32  1  0  0  0  0
 20 33  2  0  0  0  0
 20 36  1  0  0  0  0
 21 23  2  0  0  0  0
 21 41  1  0  0  0  0
 22 24  2  0  0  0  0
 22 42  1  0  0  0  0
 23 50  1  0  0  0  0
 24 43  1  0  0  0  0
 25 69  1  0  0  0  0
 26 79  1  0  0  0  0
 27 80  1  0  0  0  0
 28 30  2  0  0  0  0
 28 79  1  0  0  0  0
 29 81  1  0  0  0  0
 30 82  1  0  0  0  0
 31 83  1  0  0  0  0
 32 62  2  0  0  0  0
 33 64  1  0  0  0  0
 33 67  1  0  0  0  0
 34 35  2  0  0  0  0
 34 58  1  0  0  0  0
 35 83  1  0  0  0  0
 36 68  1  0  0  0  0
 36 73  2  0  0  0  0
 37 51  1  0  0  0  0
 37 70  1  0  0  0  0
 37 74  2  0  0  0  0
 38 59  1  0  0  0  0
 38 65  1  0  0  0  0
 38 75  2  0  0  0  0
 39 60  1  0  0  0  0
 39 71  1  0  0  0  0
 39 76  2  0  0  0  0
 40 66  1  0  0  0  0
 40 69  1  0  0  0  0
 40 77  2  0  0  0  0
 41 44  1  0  0  0  0
 42 51  1  0  0  0  0
 43 65  1  0  0  0  0
 44 46  1  0  0  0  0
 45 47  1  0  0  0  0
 45 48  1  0  0  0  0
 46 50  1  0  0  0  0
 47 52  1  0  0  0  0
 48 66  1  0  0  0  0
 49 52  1  0  0  0  0
 49 66  1  0  0  0  0
 50 70  1  0  0  0  0
 51 65  1  0  0  0  0
 52 64  1  0  0  0  0
 53 60  1  0  0  0  0
 54 61  1  0  0  0  0
 55 61  1  0  0  0  0
 56 61  1  0  0  0  0
 57 72  1  0  0  0  0
 58 80  1  0  0  0  0
 59 61  1  0  0  0  0
 59 71  1  0  0  0  0
 60 72  1  0  0  0  0
 62 64  1  0  0  0  0
 63 83  2  0  0  0  0
 78 83  2  0  0  0  0
M  CHG  1  72   1
M  ISO  4  40 100  58 101  69 100  80 101
M  END
> <Batch ID>
0060

> <Smiles>
CNC(C)C(=O)NC(C(=O)N1Cc2cc([101O:1][101CH2:1]C=CS(=N)(=O)c3cccc([100NH:0][100C:0](=O)N4CCCC(n5nc(-c6ccc(Oc7ccc(F)cc7F)cc6)c(C(N)=O)c5N)C4)c3)ccc2CC1C(=O)NC1CCCc2ccccc21)C(C)(C)C

> <Shape>
0.247

> <Color>
0.083

> <Negative vol penalty>
0.000

$$$$

  -OEChem-04042323043D

 85 93  0     1  0  0  0  0  0999 V2000
  -17.8101  -25.9177   23.2936 C   0  0  0  0  0  0  0  0  0  0  0  0
  -18.9164  -25.7023   22.4781 C   0  0  0  0  0  0  0  0  0  0  0  0
  -22.4866  -24.3263   18.2694 C   0  0  0  0  0  0  0  0  0  0  0  0
  -26.6820  -14.4840   22.7636 C   0  0  0  0  0  0  0  0  0  0  0  0
  -26.9601  -15.2348   20.4841 C   0  0  0  0  0  0  0  0  0  0  0  0
  -17.4019  -27.2190   23.5833 C   0  0  0  0  0  0  0  0  0  0  0  0
  -19.6145  -26.7881   21.9509 C   0  0  0  0  0  0  0  0  0  0  0  0
  -25.6437  -27.1478   20.9383 C   0  0  0  0  0  0  0  0  0  0  0  0
  -23.1034  -24.0772   17.0434 C   0  0  0  0  0  0  0  0  0  0  0  0
  -23.0154  -23.7816   19.4397 C   0  0  0  0  0  0  0  0  0  0  0  0
  -26.3405  -13.2124   22.3031 C   0  0  0  0  0  0  0  0  0  0  0  0
  -26.6187  -13.9632   20.0236 C   0  0  0  0  0  0  0  0  0  0  0  0
  -26.4136  -26.9768   19.7886 C   0  0  0  0  0  0  0  0  0  0  0  0
  -25.7467   -9.6707   21.7383 C   0  0  0  0  0  0  0  0  0  0  0  0
  -26.3270   -8.5733   22.3743 C   0  0  0  0  0  0  0  0  0  0  0  0
  -26.3949  -29.3620   19.4286 C   0  0  0  0  0  0  0  0  0  0  0  0
  -28.5210   -9.3780   21.7613 C   0  0  0  0  0  0  0  0  0  0  0  0
  -26.9917  -15.4953   21.8541 C   0  0  0  0  0  0  0  0  0  0  0  0
  -28.6320  -17.2829   22.6422 C   0  0  0  0  0  0  0  0  0  0  0  0
  -18.1011  -28.3214   23.0672 C   0  0  0  0  0  0  0  0  0  0  0  0
  -25.2338  -28.4283   21.3365 C   0  0  0  0  0  0  0  0  0  0  0  0
  -19.2145  -28.1054   22.2328 C   0  0  0  0  0  0  0  0  0  0  0  0
  -25.6220  -29.5468   20.5852 C   0  0  0  0  0  0  0  0  0  0  0  0
  -24.2489  -23.2832   16.9875 C   0  0  0  0  0  0  0  0  0  0  0  0
  -24.7777  -22.7384   18.1577 C   0  0  0  0  0  0  0  0  0  0  0  0
  -24.1609  -22.9876   19.3838 C   0  0  0  0  0  0  0  0  0  0  0  0
  -26.3089  -12.9520   20.9331 C   0  0  0  0  0  0  0  0  0  0  0  0
  -26.7869  -28.0837   19.0320 C   0  0  0  0  0  0  0  0  0  0  0  0
  -26.5536  -10.6218   21.1137 C   0  0  0  0  0  0  0  0  0  0  0  0
  -27.7141   -8.4269   22.3858 C   0  0  0  0  0  0  0  0  0  0  0  0
  -27.9407  -10.4754   21.1252 C   0  0  0  0  0  0  0  0  0  0  0  0
  -27.3439  -16.8092   22.3292 C   0  0  0  0  0  0  0  0  0  0  0  0
  -28.4321  -18.5809   23.0445 C   0  0  0  0  0  0  0  0  0  0  0  0
  -29.8963  -16.6100   22.5753 C   0  0  0  0  0  0  0  0  0  0  0  0
  -22.4248  -29.8637   21.7279 C   0  0  0  0  0  0  0  0  0  0  0  0
  -24.2575  -32.2717   22.8963 C   0  0  0  0  0  0  0  0  0  0  0  0
  -26.0840  -25.0924   14.9622 C   0  0  0  0  0  0  0  0  0  0  0  0
  -27.3030  -33.8085   22.9955 C   0  0  0  0  0  0  0  0  0  0  0  0
  -24.1754  -22.6078   21.8741 C   0  0  0  0  0  0  0  0  0  0  0  0
  -17.5938  -29.7091   23.3696 C   0  0  0  0  0  0  0  0  0  0  0  0
  -24.4261  -28.5984   22.5939 C   0  0  0  0  0  0  0  0  0  0  0  0
  -25.2248  -30.9447   20.9809 C   0  0  0  0  0  0  0  0  0  0  0  0
  -18.6125  -30.8075   23.0761 C   0  0  0  0  0  0  0  0  0  0  0  0
  -25.1455  -21.4059   25.0822 C   0  0  0  0  0  0  0  0  0  0  0  0
  -19.2538  -30.5893   21.7093 C   0  0  0  0  0  0  0  0  0  0  0  0
  -25.9418  -20.1371   24.7684 C   0  0  0  0  0  0  0  0  0  0  0  0
  -23.9652  -21.5849   24.1290 C   0  0  0  0  0  0  0  0  0  0  0  0
  -25.1026  -20.2643   22.3879 C   0  0  0  0  0  0  0  0  0  0  0  0
  -20.0125  -29.2576   21.6621 C   0  0  1  0  0  0  0  0  0  0  0  0
  -23.6317  -29.9005   22.6223 C   0  0  1  0  0  0  0  0  0  0  0  0
  -26.3399  -20.0751   23.2807 C   0  0  2  0  0  0  0  0  0  0  0  0
  -26.0070  -21.8873   18.0928 C   0  0  0  0  0  0  0  0  0  0  0  0
  -28.4841  -35.7770   24.0091 C   0  0  0  0  0  0  0  0  0  0  0  0
  -22.8685  -34.1248   20.9097 C   0  0  0  0  0  0  0  0  0  0  0  0
  -24.7000  -35.7893   21.2884 C   0  0  0  0  0  0  0  0  0  0  0  0
  -23.2244  -35.1089   23.1811 C   0  0  0  0  0  0  0  0  0  0  0  0
  -29.2341  -32.0686   24.4108 C   0  0  0  0  0  0  0  0  0  0  0  0
  -24.8928  -23.0310   15.6549 C   0  0  0  0  0  0  0  0  0  0  0  0
  -27.4814  -25.6814   14.8876 C   0  0  0  0  0  0  0  0  0  0  0  0
  -27.6223  -26.9548   15.7138 C   0  0  0  0  0  0  0  0  0  0  0  0
  -27.3766  -26.6957   17.1931 C   0  0  0  0  0  0  0  0  0  1  0  0
  -24.9442  -33.4776   22.3020 C   0  0  1  0  0  0  0  0  0  0  0  0
  -28.1448  -34.3021   24.1584 C   0  0  2  0  0  0  0  0  0  0  0  0
  -23.9403  -34.5988   21.9115 C   0  0  0  0  0  0  0  0  0  0  0  0
  -26.3957  -17.7311   22.5166 N   0  0  0  0  0  0  0  0  0  0  0  0
  -27.0887  -18.7971   22.9519 N   0  0  0  0  0  0  0  0  0  0  0  0
  -24.4299  -31.0585   22.2149 N   0  0  0  0  0  0  0  0  0  0  0  0
  -24.4187  -21.5191   22.7381 N   0  0  0  0  0  0  0  0  0  0  0  0
  -29.2762  -19.5469   23.4649 N   0  0  0  0  0  0  0  0  0  0  0  0
  -29.9218  -15.2778   22.1404 N   0  0  0  0  0  0  0  0  0  0  0  0
  -24.6812  -22.4449   20.5848 N   0  0  0  0  0  0  0  0  0  0  0  0
  -21.2856  -29.3769   22.3400 N   0  0  0  0  0  0  0  0  0  0  0  0
  -26.0983  -23.8063   15.4820 N   0  0  0  0  0  0  0  0  0  0  0  0
  -25.9543  -33.8906   23.2703 N   0  0  0  0  0  0  0  0  0  0  0  0
  -29.4185  -33.5327   24.2392 N   0  3  0  0  0  0  0  0  0  0  0  0
  -30.9695  -17.1681   22.9073 O   0  0  0  0  0  0  0  0  0  0  0  0
  -22.5198  -30.2498   20.5688 O   0  0  0  0  0  0  0  0  0  0  0  0
  -23.5985  -32.4000   23.9311 O   0  0  0  0  0  0  0  0  0  0  0  0
  -25.0771  -25.6965   14.6024 O   0  0  0  0  0  0  0  0  0  0  0  0
  -27.7929  -33.3951   21.9469 O   0  0  0  0  0  0  0  0  0  0  0  0
  -23.5872  -23.6220   22.2580 O   0  0  0  0  0  0  0  0  0  0  0  0
  -25.9761  -11.7112   20.4834 O   0  0  0  0  0  0  0  0  0  0  0  0
  -27.5378  -27.9195   17.9090 O   0  0  0  0  0  0  0  0  0  1  0  0
  -28.2712   -7.3737   22.9980 F   0  0  0  0  0  0  0  0  0  0  0  0
  -28.7211  -11.3865   20.5279 F   0  0  0  0  0  0  0  0  0  0  0  0
  1  2  1  0  0  0  0
  1  6  2  0  0  0  0
  2  7  2  0  0  0  0
  3  9  2  0  0  0  0
  3 10  1  0  0  0  0
  4 11  2  0  0  0  0
  4 18  1  0  0  0  0
  5 12  1  0  0  0  0
  5 18  2  0  0  0  0
  6 20  1  0  0  0  0
  7 22  1  0  0  0  0
  8 13  2  0  0  0  0
  8 21  1  0  0  0  0
  9 24  1  0  0  0  0
 10 26  2  0  0  0  0
 11 27  1  0  0  0  0
 12 27  2  0  0  0  0
 13 28  1  0  0  0  0
 14 15  2  0  0  0  0
 14 29  1  0  0  0  0
 15 30  1  0  0  0  0
 16 23  1  0  0  0  0
 16 28  2  0  0  0  0
 17 30  2  0  0  0  0
 17 31  1  0  0  0  0
 18 32  1  0  0  0  0
 19 32  1  0  0  0  0
 19 33  2  0  0  0  0
 19 34  1  0  0  0  0
 20 22  2  0  0  0  0
 20 40  1  0  0  0  0
 21 23  2  0  0  0  0
 21 41  1  0  0  0  0
 22 49  1  0  0  0  0
 23 42  1  0  0  0  0
 24 25  2  0  0  0  0
 24 58  1  0  0  0  0
 25 26  1  0  0  0  0
 25 52  1  0  0  0  0
 26 71  1  0  0  0  0
 27 82  1  0  0  0  0
 28 83  1  0  0  0  0
 29 31  2  0  0  0  0
 29 82  1  0  0  0  0
 30 84  1  0  0  0  0
 31 85  1  0  0  0  0
 32 65  2  0  0  0  0
 33 66  1  0  0  0  0
 33 69  1  0  0  0  0
 34 70  1  0  0  0  0
 34 76  2  0  0  0  0
 35 50  1  0  0  0  0
 35 72  1  0  0  0  0
 35 77  2  0  0  0  0
 36 62  1  0  0  0  0
 36 67  1  0  0  0  0
 36 78  2  0  0  0  0
 37 59  1  0  0  0  0
 37 73  1  0  0  0  0
 37 79  2  0  0  0  0
 38 63  1  0  0  0  0
 38 74  1  0  0  0  0
 38 80  2  0  0  0  0
 39 68  1  0  0  0  0
 39 71  1  0  0  0  0
 39 81  2  0  0  0  0
 40 43  1  0  0  0  0
 41 50  1  0  0  0  0
 42 67  1  0  0  0  0
 43 45  1  0  0  0  0
 44 46  1  0  0  0  0
 44 47  1  0  0  0  0
 45 49  1  0  0  0  0
 46 51  1  0  0  0  0
 47 68  1  0  0  0  0
 48 51  1  0  0  0  0
 48 68  1  0  0  0  0
 49 72  1  0  0  0  0
 50 67  1  0  0  0  0
 51 66  1  0  0  0  0
 53 63  1  0  0  0  0
 54 64  1  0  0  0  0
 55 64  1  0  0  0  0
 56 64  1  0  0  0  0
 57 75  1  0  0  0  0
 58 73  1  0  0  0  0
 59 60  1  0  0  0  0
 60 61  1  0  0  0  0
 61 83  1  0  0  0  0
 62 64  1  0  0  0  0
 62 74  1  0  0  0  0
 63 75  1  0  0  0  0
 65 66  1  0  0  0  0
M  CHG  1  75   1
M  ISO  4  39 100  61 101  71 100  83 101
M  END
> <Batch ID>
0060

> <Smiles>
CNC(C)C(=O)NC(C(=O)N1Cc2cc([101O:1][101CH2:1]CCC(=O)NCc3cccc([100NH:0][100C:0](=O)N4CCCC(n5nc(-c6ccc(Oc7ccc(F)cc7F)cc6)c(C(N)=O)c5N)C4)c3C)ccc2CC1C(=O)NC1CCCc2ccccc21)C(C)(C)C

> <Shape>
0.196

> <Color>
0.104

> <Negative vol penalty>
0.000

$$$$

  -OEChem-04042323043D

 84 92  0     1  0  0  0  0  0999 V2000
  -33.1389  -30.1123   16.3720 C   0  0  0  0  0  0  0  0  0  0  0  0
  -32.2970  -29.2779   17.1003 C   0  0  0  0  0  0  0  0  0  0  0  0
  -23.8413   -9.7947   20.2846 C   0  0  0  0  0  0  0  0  0  0  0  0
  -24.4347  -10.2423   22.5835 C   0  0  0  0  0  0  0  0  0  0  0  0
  -33.4645  -31.3749   16.8656 C   0  0  0  0  0  0  0  0  0  0  0  0
  -31.7812  -29.7053   18.3233 C   0  0  0  0  0  0  0  0  0  0  0  0
  -26.8431  -28.6931   18.8093 C   0  0  0  0  0  0  0  0  0  0  0  0
  -30.6906  -18.8415   22.3492 C   0  0  0  0  0  0  0  0  0  0  0  0
  -23.3944   -8.5242   20.6473 C   0  0  0  0  0  0  0  0  0  0  0  0
  -23.9876   -8.9717   22.9462 C   0  0  0  0  0  0  0  0  0  0  0  0
  -26.4901  -27.3822   19.1267 C   0  0  0  0  0  0  0  0  0  0  0  0
  -21.0294   -7.4487   23.5377 C   0  0  0  0  0  0  0  0  0  0  0  0
  -30.9834  -19.9389   23.1589 C   0  0  0  0  0  0  0  0  0  0  0  0
  -20.2365   -7.3441   24.6805 C   0  0  0  0  0  0  0  0  0  0  0  0
  -26.2080  -28.0235   21.4350 C   0  0  0  0  0  0  0  0  0  0  0  0
  -28.3324  -19.1656   22.7628 C   0  0  0  0  0  0  0  0  0  0  0  0
  -21.8742   -5.8774   25.6825 C   0  0  0  0  0  0  0  0  0  0  0  0
  -24.3616  -10.6538   21.2527 C   0  0  0  0  0  0  0  0  0  0  0  0
  -24.0703  -13.1546   20.8420 C   0  0  0  0  0  0  0  0  0  0  0  0
  -32.9447  -31.8218   18.0906 C   0  0  0  0  0  0  0  0  0  0  0  0
  -26.8919  -29.6783   19.8060 C   0  0  0  0  0  0  0  0  0  0  0  0
  -32.1012  -30.9746   18.8344 C   0  0  0  0  0  0  0  0  0  0  0  0
  -26.5594  -29.3467   21.1272 C   0  0  0  0  0  0  0  0  0  0  0  0
  -28.6252  -20.2629   23.5726 C   0  0  0  0  0  0  0  0  0  0  0  0
  -29.3650  -18.4549   22.1511 C   0  0  0  0  0  0  0  0  0  0  0  0
  -23.4674   -8.1127   21.9781 C   0  0  0  0  0  0  0  0  0  0  0  0
  -26.1752  -27.0466   20.4402 C   0  0  0  0  0  0  0  0  0  0  0  0
  -22.2447   -6.7676   23.4673 C   0  0  0  0  0  0  0  0  0  0  0  0
  -20.6589   -6.5584   25.7529 C   0  0  0  0  0  0  0  0  0  0  0  0
  -29.9508  -20.6496   23.7706 C   0  0  0  0  0  0  0  0  0  0  0  0
  -22.6671   -5.9820   24.5397 C   0  0  0  0  0  0  0  0  0  0  0  0
  -24.8240  -11.9661   20.8786 C   0  0  0  0  0  0  0  0  0  0  0  0
  -24.9614  -14.1136   20.4262 C   0  0  0  0  0  0  0  0  0  0  0  0
  -26.3479  -23.8412   22.0336 C   0  0  0  0  0  0  0  0  0  0  0  0
  -26.6019  -25.0975   21.6607 C   0  0  0  0  0  0  0  0  0  1  0  0
  -22.6884  -13.3723   21.1558 C   0  0  0  0  0  0  0  0  0  0  0  0
  -27.2275  -23.1705   23.0273 C   0  0  0  0  0  0  0  0  0  0  0  0
  -29.1704  -31.5372   21.0130 C   0  0  0  0  0  0  0  0  0  0  0  0
  -26.6911  -32.8598   22.6336 C   0  0  0  0  0  0  0  0  0  0  0  0
  -23.5381  -32.5126   23.8925 C   0  0  0  0  0  0  0  0  0  0  0  0
  -29.9739  -16.5280   20.6468 C   0  0  0  0  0  0  0  0  0  0  0  0
  -33.3629  -33.1761   18.6059 C   0  0  0  0  0  0  0  0  0  0  0  0
  -27.2487  -31.0936   19.4425 C   0  0  0  0  0  0  0  0  0  0  0  0
  -26.5769  -30.3718   22.2305 C   0  0  0  0  0  0  0  0  0  0  0  0
  -32.4748  -33.7005   19.7313 C   0  0  0  0  0  0  0  0  0  0  0  0
  -29.6419  -13.6691   18.5507 C   0  0  0  0  0  0  0  0  0  0  0  0
  -32.2314  -32.6112   20.7710 C   0  0  0  0  0  0  0  0  0  0  0  0
  -28.2969  -13.0690   18.9665 C   0  0  0  0  0  0  0  0  0  0  0  0
  -30.3964  -14.2515   19.7446 C   0  0  0  0  0  0  0  0  0  0  0  0
  -28.2887  -14.6116   20.9683 C   0  0  0  0  0  0  0  0  0  0  0  0
  -31.5019  -31.4121   20.1533 C   0  0  1  0  0  0  0  0  0  0  0  0
  -27.7647  -31.9030   20.6283 C   0  0  1  0  0  0  0  0  0  0  0  0
  -27.4632  -14.0705   19.7896 C   0  0  2  0  0  0  0  0  0  0  0  0
  -21.7920  -33.7518   25.2013 C   0  0  0  0  0  0  0  0  0  0  0  0
  -28.2699  -32.3707   25.1984 C   0  0  0  0  0  0  0  0  0  0  0  0
  -26.1529  -32.7264   26.4869 C   0  0  0  0  0  0  0  0  0  0  0  0
  -27.0937  -34.5756   25.1019 C   0  0  0  0  0  0  0  0  0  0  0  0
  -21.6003  -32.3741   21.6599 C   0  0  0  0  0  0  0  0  0  0  0  0
  -27.5121  -21.0272   24.2291 C   0  0  0  0  0  0  0  0  0  0  0  0
  -26.0167  -32.5948   23.9580 C   0  0  1  0  0  0  0  0  0  0  0  0
  -22.3179  -33.4124   23.8153 C   0  0  2  0  0  0  0  0  0  0  0  0
  -26.8848  -33.0469   25.1661 C   0  0  0  0  0  0  0  0  0  0  0  0
  -26.0959  -12.1507   20.5149 N   0  0  0  0  0  0  0  0  0  0  0  0
  -26.1483  -13.4663   20.2458 N   0  0  0  0  0  0  0  0  0  0  0  0
  -26.9382  -31.7406   21.8261 N   0  0  0  0  0  0  0  0  0  0  0  0
  -29.5460  -15.1947   20.4741 N   0  0  0  0  0  0  0  0  0  0  0  0
  -24.8376  -15.4388   20.2009 N   0  0  0  0  0  0  0  0  0  0  0  0
  -21.9162  -12.2775   21.5674 N   0  0  0  0  0  0  0  0  0  0  0  0
  -29.0680  -17.3406   21.3277 N   0  0  0  0  0  0  0  0  0  0  0  0
  -26.8140  -21.8763   23.2927 N   0  0  0  0  0  0  0  0  0  0  0  0
  -30.0928  -31.7032   19.9976 N   0  0  0  0  0  0  0  0  0  0  0  0
  -24.7099  -33.2394   23.8868 N   0  0  0  0  0  0  0  0  0  0  0  0
  -21.2283  -32.7430   23.0501 N   0  3  0  0  0  0  0  0  0  0  0  0
  -22.1500  -14.5010   21.0578 O   0  0  0  0  0  0  0  0  0  0  0  0
  -28.1960  -23.7268   23.5350 O   0  0  0  0  0  0  0  0  0  0  0  0
  -29.4012  -31.1355   22.1475 O   0  0  0  0  0  0  0  0  0  0  0  0
  -26.9814  -34.0180   22.3239 O   0  0  0  0  0  0  0  0  0  0  0  0
  -23.4595  -31.2877   23.9556 O   0  0  0  0  0  0  0  0  0  0  0  0
  -31.0516  -16.9270   20.1983 O   0  0  0  0  0  0  0  0  0  0  0  0
  -23.0311   -6.8731   22.3323 O   0  0  0  0  0  0  0  0  0  0  0  0
  -25.8309  -25.7677   20.7528 O   0  0  0  0  0  0  0  0  0  1  0  0
  -19.8981   -6.4593   26.8509 F   0  0  0  0  0  0  0  0  0  0  0  0
  -30.2422  -21.7018   24.5479 F   0  0  0  0  0  0  0  0  0  0  0  0
  -23.8342   -5.3263   24.4783 F   0  0  0  0  0  0  0  0  0  0  0  0
  1  2  1  0  0  0  0
  1  5  2  0  0  0  0
  2  6  2  0  0  0  0
  3  9  2  0  0  0  0
  3 18  1  0  0  0  0
  4 10  1  0  0  0  0
  4 18  2  0  0  0  0
  5 20  1  0  0  0  0
  6 22  1  0  0  0  0
  7 11  2  0  0  0  0
  7 21  1  0  0  0  0
  8 13  2  0  0  0  0
  8 25  1  0  0  0  0
  9 26  1  0  0  0  0
 10 26  2  0  0  0  0
 11 27  1  0  0  0  0
 12 14  2  0  0  0  0
 12 28  1  0  0  0  0
 13 30  1  0  0  0  0
 14 29  1  0  0  0  0
 15 23  1  0  0  0  0
 15 27  2  0  0  0  0
 16 24  1  0  0  0  0
 16 25  2  0  0  0  0
 17 29  2  0  0  0  0
 17 31  1  0  0  0  0
 18 32  1  0  0  0  0
 19 32  1  0  0  0  0
 19 33  2  0  0  0  0
 19 36  1  0  0  0  0
 20 22  2  0  0  0  0
 20 42  1  0  0  0  0
 21 23  2  0  0  0  0
 21 43  1  0  0  0  0
 22 51  1  0  0  0  0
 23 44  1  0  0  0  0
 24 30  2  0  0  0  0
 24 59  1  0  0  0  0
 25 69  1  0  0  0  0
 26 80  1  0  0  0  0
 27 81  1  0  0  0  0
 28 31  2  0  0  0  0
 28 80  1  0  0  0  0
 29 82  1  0  0  0  0
 30 83  1  0  0  0  0
 31 84  1  0  0  0  0
 32 63  2  0  0  0  0
 33 64  1  0  0  0  0
 33 67  1  0  0  0  0
 34 35  2  0  0  0  0
 34 37  1  0  0  0  0
 35 81  1  0  0  0  0
 36 68  1  0  0  0  0
 36 74  2  0  0  0  0
 37 70  1  0  0  0  0
 37 75  2  0  0  0  0
 38 52  1  0  0  0  0
 38 71  1  0  0  0  0
 38 76  2  0  0  0  0
 39 60  1  0  0  0  0
 39 65  1  0  0  0  0
 39 77  2  0  0  0  0
 40 61  1  0  0  0  0
 40 72  1  0  0  0  0
 40 78  2  0  0  0  0
 41 66  1  0  0  0  0
 41 69  1  0  0  0  0
 41 79  2  0  0  0  0
 42 45  1  0  0  0  0
 43 52  1  0  0  0  0
 44 65  1  0  0  0  0
 45 47  1  0  0  0  0
 46 48  1  0  0  0  0
 46 49  1  0  0  0  0
 47 51  1  0  0  0  0
 48 53  1  0  0  0  0
 49 66  1  0  0  0  0
 50 53  1  0  0  0  0
 50 66  1  0  0  0  0
 51 71  1  0  0  0  0
 52 65  1  0  0  0  0
 53 64  1  0  0  0  0
 54 61  1  0  0  0  0
 55 62  1  0  0  0  0
 56 62  1  0  0  0  0
 57 62  1  0  0  0  0
 58 73  1  0  0  0  0
 59 70  1  0  0  0  0
 60 62  1  0  0  0  0
 60 72  1  0  0  0  0
 61 73  1  0  0  0  0
 63 64  1  0  0  0  0
M  CHG  1  73   1
M  ISO  4  35 101  41 100  69 100  81 101
M  END
> <Batch ID>
0060

> <Smiles>
CNC(C)C(=O)NC(C(=O)N1Cc2cc([101O:1][101CH:1]=CC(=O)NCc3cc([100NH:0][100C:0](=O)N4CCCC(n5nc(-c6ccc(Oc7ccc(F)cc7F)cc6)c(C(N)=O)c5N)C4)ccc3F)ccc2CC1C(=O)NC1CCCc2ccccc21)C(C)(C)C

> <Shape>
0.251

> <Color>
0.152

> <Negative vol penalty>
0.000

$$$$

  -OEChem-04042323043D

 84 92  0     1  0  0  0  0  0999 V2000
  -30.1860  -24.7898   18.3225 C   0  0  0  0  0  0  0  0  0  0  0  0
  -28.8009  -24.9193   18.3141 C   0  0  0  0  0  0  0  0  0  0  0  0
  -26.9717  -16.8006   18.1424 C   0  0  0  0  0  0  0  0  0  0  0  0
  -26.1645  -17.9227   20.1240 C   0  0  0  0  0  0  0  0  0  0  0  0
  -18.1234  -24.2940   18.6449 C   0  0  0  0  0  0  0  0  0  0  0  0
  -30.9251  -25.2887   19.3943 C   0  0  0  0  0  0  0  0  0  0  0  0
  -28.1540  -25.5470   19.3780 C   0  0  0  0  0  0  0  0  0  0  0  0
  -23.1258  -29.0313   19.0903 C   0  0  0  0  0  0  0  0  0  0  0  0
  -18.5554  -23.1465   17.9799 C   0  0  0  0  0  0  0  0  0  0  0  0
  -28.2823  -17.1243   18.4930 C   0  0  0  0  0  0  0  0  0  0  0  0
  -27.4752  -18.2464   20.4745 C   0  0  0  0  0  0  0  0  0  0  0  0
  -21.7804  -28.7585   19.3336 C   0  0  0  0  0  0  0  0  0  0  0  0
  -30.1281  -16.7011   21.8868 C   0  0  0  0  0  0  0  0  0  0  0  0
  -30.5083  -16.5092   23.2151 C   0  0  0  0  0  0  0  0  0  0  0  0
  -22.0202  -29.6083   21.5785 C   0  0  0  0  0  0  0  0  0  0  0  0
  -19.2326  -22.1798   20.0880 C   0  0  0  0  0  0  0  0  0  0  0  0
  -31.0152  -18.8634   23.4100 C   0  0  0  0  0  0  0  0  0  0  0  0
  -25.9127  -17.1998   18.9579 C   0  0  0  0  0  0  0  0  0  0  0  0
  -18.2461  -24.3845   20.0315 C   0  0  0  0  0  0  0  0  0  0  0  0
  -23.8418  -15.7102   18.9590 C   0  0  0  0  0  0  0  0  0  0  0  0
  -30.2878  -25.9313   20.4674 C   0  0  0  0  0  0  0  0  0  0  0  0
  -23.9325  -29.5855   20.0945 C   0  0  0  0  0  0  0  0  0  0  0  0
  -28.8852  -26.0537   20.4658 C   0  0  0  0  0  0  0  0  0  0  0  0
  -23.3749  -29.8896   21.3446 C   0  0  0  0  0  0  0  0  0  0  0  0
  -18.8006  -23.3274   20.7530 C   0  0  0  0  0  0  0  0  0  0  0  0
  -19.1100  -22.0894   18.7015 C   0  0  0  0  0  0  0  0  0  0  0  0
  -28.5341  -17.8472   19.6590 C   0  0  0  0  0  0  0  0  0  0  0  0
  -21.2281  -29.0443   20.5788 C   0  0  0  0  0  0  0  0  0  0  0  0
  -30.1915  -17.9741   21.3201 C   0  0  0  0  0  0  0  0  0  0  0  0
  -30.9518  -17.5904   23.9767 C   0  0  0  0  0  0  0  0  0  0  0  0
  -30.6350  -19.0552   22.0817 C   0  0  0  0  0  0  0  0  0  0  0  0
  -24.5585  -16.8662   18.5960 C   0  0  0  0  0  0  0  0  0  0  0  0
  -22.6118  -15.8693   18.3689 C   0  0  0  0  0  0  0  0  0  0  0  0
  -17.7817  -25.6079   20.7158 C   0  0  0  0  0  0  0  0  0  0  0  0
  -24.2513  -14.5925   19.7582 C   0  0  0  0  0  0  0  0  0  0  0  0
  -26.5318  -28.6397   21.6607 C   0  0  0  0  0  0  0  0  0  0  0  0
  -26.4032  -31.6363   22.8959 C   0  0  0  0  0  0  0  0  0  0  0  0
  -24.5203  -34.3810   23.6495 C   0  0  0  0  0  0  0  0  0  0  0  0
  -19.4971  -20.6721   16.6551 C   0  0  0  0  0  0  0  0  0  0  0  0
  -31.1248  -26.4124   21.6260 C   0  0  0  0  0  0  0  0  0  0  0  0
  -25.3755  -29.8986   19.8076 C   0  0  0  0  0  0  0  0  0  0  0  0
  -24.1933  -30.5038   22.4498 C   0  0  0  0  0  0  0  0  0  0  0  0
  -30.3957  -27.3969   22.5368 C   0  0  0  0  0  0  0  0  0  0  0  0
  -20.5064  -17.9445   14.6012 C   0  0  0  0  0  0  0  0  0  0  0  0
  -28.9952  -26.8870   22.8615 C   0  0  0  0  0  0  0  0  0  0  0  0
  -21.5905  -17.2496   15.4282 C   0  0  0  0  0  0  0  0  0  0  0  0
  -20.5573  -19.4629   14.7607 C   0  0  0  0  0  0  0  0  0  0  0  0
  -21.6148  -19.2479   16.9753 C   0  0  0  0  0  0  0  0  0  0  0  0
  -28.1493  -26.7503   21.5898 C   0  0  1  0  0  0  0  0  0  0  0  0
  -26.2298  -29.9871   21.0684 C   0  0  1  0  0  0  0  0  0  0  0  0
  -21.5621  -17.7133   16.8978 C   0  0  2  0  0  0  0  0  0  0  0  0
  -18.9399  -23.3995   22.2384 C   0  0  0  0  0  0  0  0  0  0  0  0
  -24.6867  -36.6592   24.6885 C   0  0  0  0  0  0  0  0  0  0  0  0
  -17.8949  -27.1584   23.5449 C   0  0  0  0  0  0  0  0  0  0  0  0
  -26.4952  -30.3630   25.6672 C   0  0  0  0  0  0  0  0  0  0  0  0
  -25.7123  -32.5427   26.6182 C   0  0  0  0  0  0  0  0  0  0  0  0
  -27.8953  -32.4202   25.4173 C   0  0  0  0  0  0  0  0  0  0  0  0
  -23.6804  -35.7126   21.1434 C   0  0  0  0  0  0  0  0  0  0  0  0
  -19.5532  -28.4549   22.1609 C   0  0  0  0  0  0  0  0  0  1  0  0
  -25.7443  -32.2702   24.0972 C   0  0  1  0  0  0  0  0  0  0  0  0
  -24.7493  -35.8602   23.3961 C   0  0  2  0  0  0  0  0  0  0  0  0
  -18.3306  -27.5474   22.1418 C   0  0  1  0  0  0  0  0  0  0  0  0
  -26.4466  -31.8856   25.4300 C   0  0  0  0  0  0  0  0  0  0  0  0
  -23.8434  -17.6982   17.8342 N   0  0  0  0  0  0  0  0  0  0  0  0
  -22.6646  -17.0643   17.7135 N   0  0  0  0  0  0  0  0  0  0  0  0
  -25.6008  -30.7856   22.1225 N   0  0  0  0  0  0  0  0  0  0  0  0
  -20.5224  -19.8280   16.1785 N   0  0  0  0  0  0  0  0  0  0  0  0
  -21.5011  -15.1022   18.3517 N   0  0  0  0  0  0  0  0  0  0  0  0
  -16.4971  -25.9441   20.5984 N   0  0  0  0  0  0  0  0  0  0  0  0
  -25.5490  -14.5893   20.2876 N   0  0  0  0  0  0  0  0  0  0  0  0
  -19.5477  -20.9234   18.0258 N   0  0  0  0  0  0  0  0  0  0  0  0
  -27.6740  -28.0470   21.1571 N   0  0  0  0  0  0  0  0  0  0  0  0
  -25.7077  -33.7045   23.8332 N   0  0  0  0  0  0  0  0  0  0  0  0
  -18.6723  -26.3159   21.4152 N   0  3  0  0  0  0  0  0  0  0  0  0
  -23.7153  -36.3922   22.4641 N   0  3  0  0  0  0  0  0  0  0  0  0
  -23.4945  -13.6174   19.9822 O   0  0  0  0  0  0  0  0  0  0  0  0
  -25.7847  -28.1729   22.5126 O   0  0  0  0  0  0  0  0  0  0  0  0
  -27.5843  -31.8924   22.6486 O   0  0  0  0  0  0  0  0  0  0  0  0
  -23.4000  -33.8769   23.6849 O   0  0  0  0  0  0  0  0  0  0  0  0
  -18.6218  -21.1158   15.9074 O   0  0  0  0  0  0  0  0  0  0  0  0
  -29.8130  -18.1630   20.0015 O   0  0  0  0  0  0  0  0  0  0  0  0
  -19.9153  -28.7784   20.8191 O   0  0  0  0  0  0  0  0  0  1  0  0
  -31.3154  -17.4063   25.2526 F   0  0  0  0  0  0  0  0  0  0  0  0
  -30.6970  -20.2808   21.5431 F   0  0  0  0  0  0  0  0  0  0  0  0
  1  2  1  0  0  0  0
  1  6  2  0  0  0  0
  2  7  2  0  0  0  0
  3 10  2  0  0  0  0
  3 18  1  0  0  0  0
  4 11  1  0  0  0  0
  4 18  2  0  0  0  0
  5  9  2  0  0  0  0
  5 19  1  0  0  0  0
  6 21  1  0  0  0  0
  7 23  1  0  0  0  0
  8 12  2  0  0  0  0
  8 22  1  0  0  0  0
  9 26  1  0  0  0  0
 10 27  1  0  0  0  0
 11 27  2  0  0  0  0
 12 28  1  0  0  0  0
 13 14  2  0  0  0  0
 13 29  1  0  0  0  0
 14 30  1  0  0  0  0
 15 24  1  0  0  0  0
 15 28  2  0  0  0  0
 16 25  1  0  0  0  0
 16 26  2  0  0  0  0
 17 30  2  0  0  0  0
 17 31  1  0  0  0  0
 18 32  1  0  0  0  0
 19 25  2  0  0  0  0
 19 34  1  0  0  0  0
 20 32  1  0  0  0  0
 20 33  2  0  0  0  0
 20 35  1  0  0  0  0
 21 23  2  0  0  0  0
 21 40  1  0  0  0  0
 22 24  2  0  0  0  0
 22 41  1  0  0  0  0
 23 49  1  0  0  0  0
 24 42  1  0  0  0  0
 25 52  1  0  0  0  0
 26 71  1  0  0  0  0
 27 81  1  0  0  0  0
 28 82  1  0  0  0  0
 29 31  2  0  0  0  0
 29 81  1  0  0  0  0
 30 83  1  0  0  0  0
 31 84  1  0  0  0  0
 32 64  2  0  0  0  0
 33 65  1  0  0  0  0
 33 68  1  0  0  0  0
 34 69  1  0  0  0  0
 34 74  2  0  0  0  0
 35 70  1  0  0  0  0
 35 76  2  0  0  0  0
 36 50  1  0  0  0  0
 36 72  1  0  0  0  0
 36 77  2  0  0  0  0
 37 60  1  0  0  0  0
 37 66  1  0  0  0  0
 37 78  2  0  0  0  0
 38 61  1  0  0  0  0
 38 73  1  0  0  0  0
 38 79  2  0  0  0  0
 39 67  1  0  0  0  0
 39 71  1  0  0  0  0
 39 80  2  0  0  0  0
 40 43  1  0  0  0  0
 41 50  1  0  0  0  0
 42 66  1  0  0  0  0
 43 45  1  0  0  0  0
 44 46  1  0  0  0  0
 44 47  1  0  0  0  0
 45 49  1  0  0  0  0
 46 51  1  0  0  0  0
 47 67  1  0  0  0  0
 48 51  1  0  0  0  0
 48 67  1  0  0  0  0
 49 72  1  0  0  0  0
 50 66  1  0  0  0  0
 51 65  1  0  0  0  0
 53 61  1  0  0  0  0
 54 62  1  0  0  0  0
 55 63  1  0  0  0  0
 56 63  1  0  0  0  0
 57 63  1  0  0  0  0
 58 75  1  0  0  0  0
 59 62  1  0  0  0  0
 59 82  1  0  0  0  0
 60 63  1  0  0  0  0
 60 73  1  0  0  0  0
 61 75  1  0  0  0  0
 62 74  1  0  0  0  0
 64 65  1  0  0  0  0
M  CHG  2  74   1  75   1
M  ISO  4  39 100  59 101  71 100  82 101
M  END
> <Batch ID>
0060

> <Smiles>
CNC(C)C(=O)NC(C(=O)N1Cc2cc([101O:1][101CH2:1]C(C)NC(=N)c3ccc([100NH:0][100C:0](=O)N4CCCC(n5nc(-c6ccc(Oc7ccc(F)cc7F)cc6)c(C(N)=O)c5N)C4)cc3C)ccc2CC1C(=O)NC1CCCc2ccccc21)C(C)(C)C

> <Shape>
0.269

> <Color>
0.074

> <Negative vol penalty>
0.000

$$$$

  -OEChem-04042323043D

 87 95  0     1  0  0  0  0  0999 V2000
  -17.2696  -31.9455   22.4875 C   0  0  0  0  0  0  0  0  0  0  0  0
  -18.4986  -32.2601   21.9164 C   0  0  0  0  0  0  0  0  0  0  0  0
  -25.9415  -14.6641   21.7003 C   0  0  0  0  0  0  0  0  0  0  0  0
  -25.6085  -15.6714   19.5296 C   0  0  0  0  0  0  0  0  0  0  0  0
  -17.1741  -30.8940   23.3981 C   0  0  0  0  0  0  0  0  0  0  0  0
  -19.6330  -31.5239   22.2563 C   0  0  0  0  0  0  0  0  0  0  0  0
  -25.7932  -29.1558   19.4707 C   0  0  0  0  0  0  0  0  0  0  0  0
  -24.5745  -14.4006   21.7877 C   0  0  0  0  0  0  0  0  0  0  0  0
  -24.2416  -15.4078   19.6170 C   0  0  0  0  0  0  0  0  0  0  0  0
  -27.1628  -29.1535   19.7316 C   0  0  0  0  0  0  0  0  0  0  0  0
  -21.7505  -16.1088   22.5165 C   0  0  0  0  0  0  0  0  0  0  0  0
  -21.1109  -16.4000   23.7213 C   0  0  0  0  0  0  0  0  0  0  0  0
  -26.8632  -27.3079   21.2558 C   0  0  0  0  0  0  0  0  0  0  0  0
  -29.8453  -22.1997   17.1638 C   0  0  0  0  0  0  0  0  0  0  0  0
  -30.6321  -23.6805   18.9031 C   0  0  0  0  0  0  0  0  0  0  0  0
  -20.4794  -14.0789   23.9469 C   0  0  0  0  0  0  0  0  0  0  0  0
  -26.4585  -15.2996   20.5713 C   0  0  0  0  0  0  0  0  0  0  0  0
  -28.8649  -14.7360   19.9397 C   0  0  0  0  0  0  0  0  0  0  0  0
  -18.3061  -30.1384   23.7420 C   0  0  0  0  0  0  0  0  0  0  0  0
  -24.9454  -28.2397   20.1097 C   0  0  0  0  0  0  0  0  0  0  0  0
  -19.5528  -30.4621   23.1733 C   0  0  0  0  0  0  0  0  0  0  0  0
  -25.4836  -27.2990   20.9993 C   0  0  0  0  0  0  0  0  0  0  0  0
  -29.5514  -23.3007   16.3594 C   0  0  0  0  0  0  0  0  0  0  0  0
  -29.7980  -24.5916   16.8267 C   0  0  0  0  0  0  0  0  0  0  0  0
  -30.3855  -22.3896   18.4357 C   0  0  0  0  0  0  0  0  0  0  0  0
  -30.3384  -24.7815   18.0986 C   0  0  0  0  0  0  0  0  0  0  0  0
  -23.7246  -14.7724   20.7460 C   0  0  0  0  0  0  0  0  0  0  0  0
  -27.6976  -28.2313   20.6264 C   0  0  0  0  0  0  0  0  0  0  0  0
  -21.7546  -14.8027   22.0268 C   0  0  0  0  0  0  0  0  0  0  0  0
  -20.4753  -15.3850   24.4366 C   0  0  0  0  0  0  0  0  0  0  0  0
  -21.1190  -13.7878   22.7420 C   0  0  0  0  0  0  0  0  0  0  0  0
  -27.8703  -15.5726   20.4806 C   0  0  0  0  0  0  0  0  0  0  0  0
  -30.0305  -15.4469   20.0898 C   0  0  0  0  0  0  0  0  0  0  0  0
  -28.7459  -13.4329   19.3537 C   0  0  0  0  0  0  0  0  0  0  0  0
  -22.4795  -28.4777   22.1014 C   0  0  0  0  0  0  0  0  0  0  0  0
  -22.3082  -25.2696   21.6529 C   0  0  0  0  0  0  0  0  0  0  0  0
  -31.1266  -26.4302   19.8320 C   0  0  0  0  0  0  0  0  0  0  0  0
  -23.9019  -22.3737   20.8037 C   0  0  0  0  0  0  0  0  0  0  0  0
  -31.2223  -21.2850   20.5395 C   0  0  0  0  0  0  0  0  0  0  0  0
  -18.1626  -29.0412   24.7668 C   0  0  0  0  0  0  0  0  0  0  0  0
  -23.4741  -28.2378   19.7972 C   0  0  0  0  0  0  0  0  0  0  0  0
  -24.6191  -26.2812   21.6960 C   0  0  0  0  0  0  0  0  0  0  0  0
  -19.3408  -28.0708   24.7893 C   0  0  0  0  0  0  0  0  0  0  0  0
  -32.0662  -18.7518   22.8949 C   0  0  0  0  0  0  0  0  0  0  0  0
  -20.6614  -28.8341   24.7753 C   0  0  0  0  0  0  0  0  0  0  0  0
  -31.1810  -17.5709   22.4901 C   0  0  0  0  0  0  0  0  0  0  0  0
  -31.3477  -20.0876   22.7134 C   0  0  0  0  0  0  0  0  0  0  0  0
  -29.8906  -19.1278   20.9742 C   0  0  0  0  0  0  0  0  0  0  0  0
  -20.8013  -29.6710   23.4980 C   0  0  1  0  0  0  0  0  0  0  0  0
  -22.6310  -27.5955   20.8945 C   0  0  1  0  0  0  0  0  0  0  0  0
  -30.5939  -17.7646   21.0782 C   0  0  2  0  0  0  0  0  0  0  0  0
  -29.4811  -25.7695   15.9592 C   0  0  0  0  0  0  0  0  0  0  0  0
  -23.5103  -19.9065   20.5659 C   0  0  0  0  0  0  0  0  0  0  0  0
  -22.3851  -24.9672   24.6882 C   0  0  0  0  0  0  0  0  0  0  0  0
  -22.9467  -22.5491   24.3633 C   0  0  0  0  0  0  0  0  0  0  0  0
  -20.7738  -23.4461   23.5287 C   0  0  0  0  0  0  0  0  0  0  0  0
  -24.5660  -22.4288   17.9202 C   0  0  0  0  0  0  0  0  0  0  0  0
  -31.2379  -27.9453   19.9585 C   0  0  0  0  0  0  0  0  0  0  0  0
  -29.8987  -28.6556   19.8322 C   0  0  0  0  0  0  0  0  0  1  0  0
  -22.9120  -24.0619   22.3283 C   0  0  1  0  0  0  0  0  0  0  0  0
  -23.5158  -21.2518   19.8568 C   0  0  2  0  0  0  0  0  0  0  0  0
  -28.9739  -23.0696   15.0010 C   0  0  0  0  0  0  0  0  0  0  0  0
  -22.2707  -23.7764   23.7156 C   0  0  0  0  0  0  0  0  0  0  0  0
  -28.3612  -16.7266   20.9403 N   0  0  0  0  0  0  0  0  0  0  0  0
  -29.6770  -16.6202   20.6886 N   0  0  0  0  0  0  0  0  0  0  0  0
  -23.1858  -26.3237   21.3622 N   0  0  0  0  0  0  0  0  0  0  0  0
  -30.8219  -20.2026   21.3513 N   0  0  0  0  0  0  0  0  0  0  0  0
  -31.3131  -15.1766   19.7668 N   0  0  0  0  0  0  0  0  0  0  0  0
  -27.4745  -12.8479   19.2781 N   0  0  0  0  0  0  0  0  0  0  0  0
  -30.5952  -26.0825   18.5929 N   0  0  0  0  0  0  0  0  0  0  0  0
  -30.6832  -21.2714   19.2535 N   0  0  0  0  0  0  0  0  0  0  0  0
  -21.1728  -28.8296   22.3806 N   0  0  0  0  0  0  0  0  0  0  0  0
  -22.7945  -22.9614   21.3778 N   0  0  0  0  0  0  0  0  0  0  0  0
  -24.4765  -21.1799   18.7198 N   0  3  0  0  0  0  0  0  0  0  0  0
  -29.7398  -12.7989   18.9252 O   0  0  0  0  0  0  0  0  0  0  0  0
  -23.4744  -28.8129   22.7335 O   0  0  0  0  0  0  0  0  0  0  0  0
  -21.1038  -25.2744   21.3865 O   0  0  0  0  0  0  0  0  0  0  0  0
  -31.4730  -25.6728   20.7323 O   0  0  0  0  0  0  0  0  0  0  0  0
  -25.0693  -22.6941   21.0160 O   0  0  0  0  0  0  0  0  0  0  0  0
  -32.0084  -22.1447   20.9456 O   0  0  0  0  0  0  0  0  0  0  0  0
  -22.3907  -14.5151   20.8309 O   0  0  0  0  0  0  0  0  0  0  0  0
  -29.0339  -28.2273   20.8834 O   0  0  0  0  0  0  0  0  0  1  0  0
  -19.8624  -15.6645   25.5943 F   0  0  0  0  0  0  0  0  0  0  0  0
  -21.1205  -12.5309   22.2772 F   0  0  0  0  0  0  0  0  0  0  0  0
  -28.7971  -21.7498   14.7014 F   0  0  0  0  0  0  0  0  0  0  0  0
  -27.7483  -23.6441   14.8259 F   0  0  0  0  0  0  0  0  0  0  0  0
  -29.7612  -23.5708   14.0064 F   0  0  0  0  0  0  0  0  0  0  0  0
  1  2  1  0  0  0  0
  1  5  2  0  0  0  0
  2  6  2  0  0  0  0
  3  8  2  0  0  0  0
  3 17  1  0  0  0  0
  4  9  1  0  0  0  0
  4 17  2  0  0  0  0
  5 19  1  0  0  0  0
  6 21  1  0  0  0  0
  7 10  2  0  0  0  0
  7 20  1  0  0  0  0
  8 27  1  0  0  0  0
  9 27  2  0  0  0  0
 10 28  1  0  0  0  0
 11 12  2  0  0  0  0
 11 29  1  0  0  0  0
 12 30  1  0  0  0  0
 13 22  1  0  0  0  0
 13 28  2  0  0  0  0
 14 23  2  0  0  0  0
 14 25  1  0  0  0  0
 15 25  2  0  0  0  0
 15 26  1  0  0  0  0
 16 30  2  0  0  0  0
 16 31  1  0  0  0  0
 17 32  1  0  0  0  0
 18 32  1  0  0  0  0
 18 33  2  0  0  0  0
 18 34  1  0  0  0  0
 19 21  2  0  0  0  0
 19 40  1  0  0  0  0
 20 22  2  0  0  0  0
 20 41  1  0  0  0  0
 21 49  1  0  0  0  0
 22 42  1  0  0  0  0
 23 24  1  0  0  0  0
 23 62  1  0  0  0  0
 24 26  2  0  0  0  0
 24 52  1  0  0  0  0
 25 71  1  0  0  0  0
 26 70  1  0  0  0  0
 27 81  1  0  0  0  0
 28 82  1  0  0  0  0
 29 31  2  0  0  0  0
 29 81  1  0  0  0  0
 30 83  1  0  0  0  0
 31 84  1  0  0  0  0
 32 64  2  0  0  0  0
 33 65  1  0  0  0  0
 33 68  1  0  0  0  0
 34 69  1  0  0  0  0
 34 75  2  0  0  0  0
 35 50  1  0  0  0  0
 35 72  1  0  0  0  0
 35 76  2  0  0  0  0
 36 60  1  0  0  0  0
 36 66  1  0  0  0  0
 36 77  2  0  0  0  0
 37 58  1  0  0  0  0
 37 70  1  0  0  0  0
 37 78  2  0  0  0  0
 38 61  1  0  0  0  0
 38 73  1  0  0  0  0
 38 79  2  0  0  0  0
 39 67  1  0  0  0  0
 39 71  1  0  0  0  0
 39 80  2  0  0  0  0
 40 43  1  0  0  0  0
 41 50  1  0  0  0  0
 42 66  1  0  0  0  0
 43 45  1  0  0  0  0
 44 46  1  0  0  0  0
 44 47  1  0  0  0  0
 45 49  1  0  0  0  0
 46 51  1  0  0  0  0
 47 67  1  0  0  0  0
 48 51  1  0  0  0  0
 48 67  1  0  0  0  0
 49 72  1  0  0  0  0
 50 66  1  0  0  0  0
 51 65  1  0  0  0  0
 53 61  1  0  0  0  0
 54 63  1  0  0  0  0
 55 63  1  0  0  0  0
 56 63  1  0  0  0  0
 57 74  1  0  0  0  0
 58 59  1  0  0  0  0
 59 82  1  0  0  0  0
 60 63  1  0  0  0  0
 60 73  1  0  0  0  0
 61 74  1  0  0  0  0
 62 85  1  0  0  0  0
 62 86  1  0  0  0  0
 62 87  1  0  0  0  0
 64 65  1  0  0  0  0
M  CHG  1  74   1
M  ISO  4  39 100  59 101  71 100  82 101
M  END
> <Batch ID>
0060

> <Smiles>
CNC(C)C(=O)NC(C(=O)N1Cc2cc([101O:1][101CH2:1]CC(=O)Nc3cc([100NH:0][100C:0](=O)N4CCCC(n5nc(-c6ccc(Oc7ccc(F)cc7F)cc6)c(C(N)=O)c5N)C4)cc(C(F)(F)F)c3C)ccc2CC1C(=O)NC1CCCc2ccccc21)C(C)(C)C

> <Shape>
0.236

> <Color>
0.079

> <Negative vol penalty>
0.000

$$$$

  -OEChem-04042323043D

 85 94  0     1  0  0  0  0  0999 V2000
  -23.2927  -26.7416   15.1896 C   0  0  0  0  0  0  0  0  0  0  0  0
  -24.4867  -26.4388   15.8362 C   0  0  0  0  0  0  0  0  0  0  0  0
  -22.6517  -10.1793   20.2843 C   0  0  0  0  0  0  0  0  0  0  0  0
  -24.2344   -9.5686   22.0046 C   0  0  0  0  0  0  0  0  0  0  0  0
  -22.5504  -27.8540   15.5839 C   0  0  0  0  0  0  0  0  0  0  0  0
  -24.9396  -27.2490   16.8768 C   0  0  0  0  0  0  0  0  0  0  0  0
  -26.5986  -24.5717   20.8423 C   0  0  0  0  0  0  0  0  0  0  0  0
  -32.3931  -18.5526   21.8001 C   0  0  0  0  0  0  0  0  0  0  0  0
  -30.3172  -19.0164   22.9458 C   0  0  0  0  0  0  0  0  0  0  0  0
  -31.8940  -17.3141   21.3970 C   0  0  0  0  0  0  0  0  0  0  0  0
  -29.8181  -17.7778   22.5428 C   0  0  0  0  0  0  0  0  0  0  0  0
  -21.8978   -9.0422   20.5741 C   0  0  0  0  0  0  0  0  0  0  0  0
  -23.4804   -8.4314   22.2944 C   0  0  0  0  0  0  0  0  0  0  0  0
  -27.8680  -24.0042   20.7412 C   0  0  0  0  0  0  0  0  0  0  0  0
  -20.6594   -7.6826   23.9979 C   0  0  0  0  0  0  0  0  0  0  0  0
  -20.4203   -7.3904   25.3407 C   0  0  0  0  0  0  0  0  0  0  0  0
  -28.7748  -25.8135   22.0539 C   0  0  0  0  0  0  0  0  0  0  0  0
  -21.5408   -5.2661   25.0779 C   0  0  0  0  0  0  0  0  0  0  0  0
  -23.8201  -10.4425   20.9995 C   0  0  0  0  0  0  0  0  0  0  0  0
  -24.1792  -12.9582   20.7756 C   0  0  0  0  0  0  0  0  0  0  0  0
  -22.9896  -28.6727   16.6362 C   0  0  0  0  0  0  0  0  0  0  0  0
  -26.4092  -25.7721   21.5419 C   0  0  0  0  0  0  0  0  0  0  0  0
  -24.2032  -28.3742   17.2847 C   0  0  0  0  0  0  0  0  0  0  0  0
  -27.5015  -26.3928   22.1646 C   0  0  0  0  0  0  0  0  0  0  0  0
  -31.6047  -19.4038   22.5745 C   0  0  0  0  0  0  0  0  0  0  0  0
  -30.6064  -16.9267   21.7683 C   0  0  0  0  0  0  0  0  0  0  0  0
  -22.3121   -8.1682   21.5792 C   0  0  0  0  0  0  0  0  0  0  0  0
  -28.9569  -24.6266   21.3446 C   0  0  0  0  0  0  0  0  0  0  0  0
  -21.3392   -6.7666   23.1951 C   0  0  0  0  0  0  0  0  0  0  0  0
  -20.8609   -6.1821   25.8807 C   0  0  0  0  0  0  0  0  0  0  0  0
  -21.7799   -5.5584   23.7351 C   0  0  0  0  0  0  0  0  0  0  0  0
  -24.5996  -11.6168   20.7002 C   0  0  0  0  0  0  0  0  0  0  0  0
  -25.2802  -13.6851   20.3936 C   0  0  0  0  0  0  0  0  0  0  0  0
  -33.2666  -20.8124   23.7792 C   0  0  0  0  0  0  0  0  0  0  0  0
  -33.7642  -19.8920   24.6283 C   0  0  0  0  0  0  0  0  0  0  0  0
  -22.9072  -13.4989   21.1569 C   0  0  0  0  0  0  0  0  0  0  0  0
  -25.3980  -28.6844   20.7673 C   0  0  0  0  0  0  0  0  0  0  0  0
  -25.6047  -29.1831   23.9659 C   0  0  0  0  0  0  0  0  0  0  0  0
  -27.8988  -28.3396   26.6198 C   0  0  0  0  0  0  0  0  0  0  0  0
  -30.7504  -14.7055   20.5885 C   0  0  0  0  0  0  0  0  0  0  0  0
  -22.1770  -29.8914   16.9956 C   0  0  0  0  0  0  0  0  0  0  0  0
  -25.0290  -26.3573   21.6644 C   0  0  0  0  0  0  0  0  0  0  0  0
  -27.3480  -27.6722   22.9444 C   0  0  0  0  0  0  0  0  0  0  0  0
  -33.9889  -22.1409   23.6822 C   0  0  0  0  0  0  0  0  0  0  0  0
  -22.5373  -30.4844   18.3553 C   0  0  0  0  0  0  0  0  0  0  0  0
  -33.0308  -23.3229   23.6014 C   0  0  0  0  0  0  0  0  0  0  0  0
  -29.6485  -12.1989   18.3126 C   0  0  0  0  0  0  0  0  0  0  0  0
  -24.0513  -30.5952   18.5052 C   0  0  0  0  0  0  0  0  0  0  0  0
  -28.2022  -11.9343   18.7371 C   0  0  0  0  0  0  0  0  0  0  0  0
  -30.5510  -12.4737   19.5142 C   0  0  0  0  0  0  0  0  0  0  0  0
  -31.2426  -21.8177   22.6776 C   0  0  0  0  0  0  0  0  0  0  0  0
  -28.6327  -13.2677   20.8404 C   0  0  0  0  0  0  0  0  0  0  0  0
  -24.7151  -29.2147   18.4343 C   0  0  1  0  0  0  0  0  0  0  0  0
  -25.0387  -27.8527   21.9661 C   0  0  1  0  0  0  0  0  0  0  0  0
  -32.0393  -23.1104   22.4582 C   0  0  1  0  0  0  0  0  0  0  0  0
  -27.6726  -13.0498   19.6595 C   0  0  2  0  0  0  0  0  0  0  0  0
  -27.5076  -28.0382   29.0802 C   0  0  0  0  0  0  0  0  0  0  0  0
  -26.4173  -32.1177   24.1603 C   0  0  0  0  0  0  0  0  0  0  0  0
  -27.6245  -31.5705   26.2844 C   0  0  0  0  0  0  0  0  0  0  0  0
  -25.1548  -31.2517   26.1378 C   0  0  0  0  0  0  0  0  0  0  0  0
  -29.0694  -25.6216   26.5908 C   0  0  0  0  0  0  0  0  0  0  0  0
  -31.0981  -24.3072   22.3289 C   0  0  0  0  0  0  0  0  0  1  0  0
  -26.6852  -29.6604   24.9059 C   0  0  1  0  0  0  0  0  0  0  0  0
  -27.6664  -27.3401   27.7384 C   0  0  2  0  0  0  0  0  0  0  0  0
  -26.4767  -31.1364   25.3479 C   0  0  0  0  0  0  0  0  0  0  0  0
  -25.8686  -11.4958   20.3015 N   0  0  0  0  0  0  0  0  0  0  0  0
  -26.2551  -12.7705   20.1229 N   0  0  0  0  0  0  0  0  0  0  0  0
  -32.1150  -20.6678   22.9879 N   0  0  0  0  0  0  0  0  0  0  0  0
  -25.9796  -28.2086   23.0302 N   0  0  0  0  0  0  0  0  0  0  0  0
  -29.9883  -13.5444   20.3399 N   0  0  0  0  0  0  0  0  0  0  0  0
  -25.4998  -15.0109   20.2662 N   0  0  0  0  0  0  0  0  0  0  0  0
  -21.8857  -12.6109   21.5207 N   0  0  0  0  0  0  0  0  0  0  0  0
  -30.0994  -15.6685   21.3588 N   0  0  0  0  0  0  0  0  0  0  0  0
  -24.5526  -28.5107   19.6882 N   0  0  0  0  0  0  0  0  0  0  0  0
  -26.7183  -28.7054   26.0084 N   0  0  0  0  0  0  0  0  0  0  0  0
  -28.8136  -26.3936   27.8340 N   0  3  0  0  0  0  0  0  0  0  0  0
  -22.6780  -14.7322   21.1587 O   0  0  0  0  0  0  0  0  0  0  0  0
  -26.3695  -29.4296   20.8182 O   0  0  0  0  0  0  0  0  0  0  0  0
  -24.4680  -29.6523   24.0632 O   0  0  0  0  0  0  0  0  0  0  0  0
  -29.0154  -28.7572   26.3209 O   0  0  0  0  0  0  0  0  0  0  0  0
  -31.8860  -14.8475   20.1276 O   0  0  0  0  0  0  0  0  0  0  0  0
  -21.5766   -7.0585   21.8624 O   0  0  0  0  0  0  0  0  0  0  0  0
  -30.1971  -24.0752   21.2469 O   0  0  0  0  0  0  0  0  0  1  0  0
  -20.6325   -5.9023   27.1705 F   0  0  0  0  0  0  0  0  0  0  0  0
  -22.4346   -4.6749   22.9691 F   0  0  0  0  0  0  0  0  0  0  0  0
  1  2  1  0  0  0  0
  1  5  2  0  0  0  0
  2  6  2  0  0  0  0
  3 12  2  0  0  0  0
  3 19  1  0  0  0  0
  4 13  1  0  0  0  0
  4 19  2  0  0  0  0
  5 21  1  0  0  0  0
  6 23  1  0  0  0  0
  7 14  2  0  0  0  0
  7 22  1  0  0  0  0
  8 10  2  0  0  0  0
  8 25  1  0  0  0  0
  9 11  1  0  0  0  0
  9 25  2  0  0  0  0
 10 26  1  0  0  0  0
 11 26  2  0  0  0  0
 12 27  1  0  0  0  0
 13 27  2  0  0  0  0
 14 28  1  0  0  0  0
 15 16  2  0  0  0  0
 15 29  1  0  0  0  0
 16 30  1  0  0  0  0
 17 24  1  0  0  0  0
 17 28  2  0  0  0  0
 18 30  2  0  0  0  0
 18 31  1  0  0  0  0
 19 32  1  0  0  0  0
 20 32  1  0  0  0  0
 20 33  2  0  0  0  0
 20 36  1  0  0  0  0
 21 23  2  0  0  0  0
 21 41  1  0  0  0  0
 22 24  2  0  0  0  0
 22 42  1  0  0  0  0
 23 53  1  0  0  0  0
 24 43  1  0  0  0  0
 25 68  1  0  0  0  0
 26 73  1  0  0  0  0
 27 82  1  0  0  0  0
 28 83  1  0  0  0  0
 29 31  2  0  0  0  0
 29 82  1  0  0  0  0
 30 84  1  0  0  0  0
 31 85  1  0  0  0  0
 32 66  2  0  0  0  0
 33 67  1  0  0  0  0
 33 71  1  0  0  0  0
 34 35  2  0  0  0  0
 34 44  1  0  0  0  0
 34 68  1  0  0  0  0
 36 72  1  0  0  0  0
 36 77  2  0  0  0  0
 37 54  1  0  0  0  0
 37 74  1  0  0  0  0
 37 78  2  0  0  0  0
 38 63  1  0  0  0  0
 38 69  1  0  0  0  0
 38 79  2  0  0  0  0
 39 64  1  0  0  0  0
 39 75  1  0  0  0  0
 39 80  2  0  0  0  0
 40 70  1  0  0  0  0
 40 73  1  0  0  0  0
 40 81  2  0  0  0  0
 41 45  1  0  0  0  0
 42 54  1  0  0  0  0
 43 69  1  0  0  0  0
 44 46  1  0  0  0  0
 45 48  1  0  0  0  0
 46 55  1  0  0  0  0
 47 49  1  0  0  0  0
 47 50  1  0  0  0  0
 48 53  1  0  0  0  0
 49 56  1  0  0  0  0
 50 70  1  0  0  0  0
 51 55  1  0  0  0  0
 51 68  1  0  0  0  0
 52 56  1  0  0  0  0
 52 70  1  0  0  0  0
 53 74  1  0  0  0  0
 54 69  1  0  0  0  0
 55 62  1  0  0  0  0
 56 67  1  0  0  0  0
 57 64  1  0  0  0  0
 58 65  1  0  0  0  0
 59 65  1  0  0  0  0
 60 65  1  0  0  0  0
 61 76  1  0  0  0  0
 62 83  1  0  0  0  0
 63 65  1  0  0  0  0
 63 75  1  0  0  0  0
 64 76  1  0  0  0  0
 66 67  1  0  0  0  0
M  CHG  1  76   1
M  ISO  4  40 100  62 101  73 100  83 101
M  END
> <Batch ID>
0060

> <Smiles>
C=C1CCC([101CH2:1][101O:1]c2ccc3c(c2)CN(C(=O)C(NC(=O)C(C)NC)C(C)(C)C)C(C(=O)NC2CCCc4ccccc42)C3)CN1c1ccc([100NH:0][100C:0](=O)N2CCCC(n3nc(-c4ccc(Oc5ccc(F)cc5F)cc4)c(C(N)=O)c3N)C2)cc1

> <Shape>
0.282

> <Color>
0.222

> <Negative vol penalty>
0.000

$$$$

  -OEChem-04042323043D

 87 95  0     1  0  0  0  0  0999 V2000
  -22.0649  -11.8152   19.2442 C   0  0  0  0  0  0  0  0  0  0  0  0
  -21.8437  -13.1452   19.5872 C   0  0  0  0  0  0  0  0  0  0  0  0
  -17.2656  -23.7874   24.1363 C   0  0  0  0  0  0  0  0  0  0  0  0
  -23.9128  -30.4217   20.0261 C   0  0  0  0  0  0  0  0  0  0  0  0
  -25.0333  -29.1620   21.7566 C   0  0  0  0  0  0  0  0  0  0  0  0
  -17.5034  -24.2295   25.4377 C   0  0  0  0  0  0  0  0  0  0  0  0
  -23.2983  -11.2231   19.5128 C   0  0  0  0  0  0  0  0  0  0  0  0
  -22.8554  -13.8836   20.2001 C   0  0  0  0  0  0  0  0  0  0  0  0
  -23.3655  -18.5099   18.2046 C   0  0  0  0  0  0  0  0  0  0  0  0
  -18.3176  -23.2953   23.3637 C   0  0  0  0  0  0  0  0  0  0  0  0
  -24.9976  -31.2961   19.9603 C   0  0  0  0  0  0  0  0  0  0  0  0
  -26.1180  -30.0364   21.6908 C   0  0  0  0  0  0  0  0  0  0  0  0
  -22.4369  -19.4756   18.5903 C   0  0  0  0  0  0  0  0  0  0  0  0
  -27.6262  -33.6489   19.0829 C   0  0  0  0  0  0  0  0  0  0  0  0
  -28.0952  -34.0065   17.8189 C   0  0  0  0  0  0  0  0  0  0  0  0
  -24.0349  -20.3781   20.1560 C   0  0  0  0  0  0  0  0  0  0  0  0
  -28.5629  -31.6859   17.3360 C   0  0  0  0  0  0  0  0  0  0  0  0
  -23.9306  -29.3547   20.9243 C   0  0  0  0  0  0  0  0  0  0  0  0
  -18.7932  -24.1796   25.9665 C   0  0  0  0  0  0  0  0  0  0  0  0
  -22.6249  -27.2687   20.2524 C   0  0  0  0  0  0  0  0  0  0  0  0
  -24.3289  -11.9574   20.1206 C   0  0  0  0  0  0  0  0  0  0  0  0
  -24.6341  -18.4641   18.8004 C   0  0  0  0  0  0  0  0  0  0  0  0
  -24.1033  -13.3004   20.4783 C   0  0  0  0  0  0  0  0  0  0  0  0
  -24.9787  -19.4123   19.7742 C   0  0  0  0  0  0  0  0  0  0  0  0
  -19.8453  -23.6876   25.1938 C   0  0  0  0  0  0  0  0  0  0  0  0
  -19.6074  -23.2455   23.8924 C   0  0  0  0  0  0  0  0  0  0  0  0
  -26.1002  -31.1035   20.7926 C   0  0  0  0  0  0  0  0  0  0  0  0
  -22.7705  -20.4081   19.5682 C   0  0  0  0  0  0  0  0  0  0  0  0
  -27.6256  -32.3098   19.4736 C   0  0  0  0  0  0  0  0  0  0  0  0
  -28.5635  -33.0250   16.9454 C   0  0  0  0  0  0  0  0  0  0  0  0
  -28.0939  -31.3283   18.6001 C   0  0  0  0  0  0  0  0  0  0  0  0
  -22.8102  -28.4514   20.9932 C   0  0  0  0  0  0  0  0  0  0  0  0
  -21.4150  -26.7806   20.6817 C   0  0  0  0  0  0  0  0  0  0  0  0
  -19.0096  -24.6477   27.3290 C   0  0  0  0  0  0  0  0  0  0  0  0
  -23.4710  -26.6651   19.2647 C   0  0  0  0  0  0  0  0  0  0  0  0
  -26.2172  -16.3301   20.5449 C   0  0  0  0  0  0  0  0  0  0  0  0
  -28.6530  -18.4471   20.2166 C   0  0  0  0  0  0  0  0  0  0  0  0
  -20.5780  -22.2684   21.7860 C   0  0  0  0  0  0  0  0  0  0  0  0
  -29.6385  -21.6630   19.6390 C   0  0  0  0  0  0  0  0  0  0  0  0
  -18.3169  -27.4543   25.7610 C   0  0  0  0  0  0  0  0  0  0  0  0
  -25.6292  -11.2606   20.4341 C   0  0  0  0  0  0  0  0  0  0  0  0
  -25.6338  -17.4327   18.3541 C   0  0  0  0  0  0  0  0  0  0  0  0
  -26.3345  -19.4187   20.4301 C   0  0  0  0  0  0  0  0  0  0  0  0
  -26.7747  -12.2203   20.7458 C   0  0  0  0  0  0  0  0  0  0  0  0
  -17.2152  -28.2222   22.4635 C   0  0  0  0  0  0  0  0  0  0  0  0
  -26.3166  -13.2992   21.7220 C   0  0  0  0  0  0  0  0  0  0  0  0
  -18.5075  -28.2613   21.6460 C   0  0  0  0  0  0  0  0  0  0  0  0
  -17.4203  -28.7800   23.8702 C   0  0  0  0  0  0  0  0  0  0  0  0
  -19.8141  -28.1973   23.8110 C   0  0  0  0  0  0  0  0  0  0  0  0
  -25.1843  -14.1413   21.1220 C   0  0  1  0  0  0  0  0  0  0  0  0
  -26.7151  -17.1591   19.3949 C   0  0  1  0  0  0  0  0  0  0  0  0
  -19.6707  -27.5933   22.4035 C   0  0  2  0  0  0  0  0  0  0  0  0
  -22.2149  -24.5201   24.9807 C   0  0  0  0  0  0  0  0  0  0  0  0
  -21.7685  -22.1972   25.8524 C   0  0  0  0  0  0  0  0  0  0  0  0
  -31.6935  -23.0932   19.4691 C   0  0  0  0  0  0  0  0  0  0  0  0
  -28.9205  -18.4198   23.2559 C   0  0  0  0  0  0  0  0  0  0  0  0
  -30.2833  -20.5130   23.0851 C   0  0  0  0  0  0  0  0  0  0  0  0
  -31.0931  -18.4090   22.0174 C   0  0  0  0  0  0  0  0  0  0  0  0
  -29.0481  -22.3802   16.8291 C   0  0  0  0  0  0  0  0  0  0  0  0
  -19.3576  -26.1186   27.5754 C   0  0  0  0  0  0  0  0  0  0  0  0
  -21.9412  -21.8203   21.2927 C   0  0  0  0  0  0  0  0  0  1  0  0
  -21.2293  -23.6350   25.7625 C   0  0  0  0  0  0  0  0  0  0  0  0
  -29.1397  -19.6459   20.9944 C   0  0  1  0  0  0  0  0  0  0  0  0
  -30.6879  -22.2431   18.7081 C   0  0  2  0  0  0  0  0  0  0  0  0
  -29.8328  -19.2459   22.3274 C   0  0  0  0  0  0  0  0  0  0  0  0
  -21.7988  -28.6998   21.8295 N   0  0  0  0  0  0  0  0  0  0  0  0
  -20.9663  -27.6664   21.6168 N   0  0  0  0  0  0  0  0  0  0  0  0
  -27.2752  -18.3865   19.9642 N   0  0  0  0  0  0  0  0  0  0  0  0
  -18.5366  -28.1032   24.5348 N   0  0  0  0  0  0  0  0  0  0  0  0
  -20.7016  -25.6846   20.3467 N   0  0  0  0  0  0  0  0  0  0  0  0
  -24.6790  -27.2985   18.9426 N   0  0  0  0  0  0  0  0  0  0  0  0
  -20.6594  -22.7420   23.0910 N   0  0  0  0  0  0  0  0  0  0  0  0
  -25.7137  -15.0979   20.1738 N   0  0  0  0  0  0  0  0  0  0  0  0
  -29.9893  -20.4058   20.0838 N   0  0  0  0  0  0  0  0  0  0  0  0
  -19.4267  -26.8324   26.3199 N   0  0  0  0  0  0  0  0  0  0  0  0
  -30.0441  -23.0948   17.6684 N   0  3  0  0  0  0  0  0  0  0  0  0
  -18.8783  -23.8691   28.2916 O   0  0  0  0  0  0  0  0  0  0  0  0
  -23.1570  -25.6045   18.6730 O   0  0  0  0  0  0  0  0  0  0  0  0
  -26.2862  -16.7748   21.6847 O   0  0  0  0  0  0  0  0  0  0  0  0
  -29.4664  -17.5994   19.8404 O   0  0  0  0  0  0  0  0  0  0  0  0
  -19.5812  -22.1939   21.0751 O   0  0  0  0  0  0  0  0  0  0  0  0
  -28.6122  -22.2663   19.9443 O   0  0  0  0  0  0  0  0  0  0  0  0
  -17.2122  -27.4264   26.3140 O   0  0  0  0  0  0  0  0  0  0  0  0
  -27.1589  -31.9564   20.7285 O   0  0  0  0  0  0  0  0  0  0  0  0
  -21.8658  -21.3514   19.9471 O   0  0  0  0  0  0  0  0  0  1  0  0
  -29.0124  -33.3683   15.7310 F   0  0  0  0  0  0  0  0  0  0  0  0
  -28.0948  -30.0401   18.9693 F   0  0  0  0  0  0  0  0  0  0  0  0
  1  2  1  0  0  0  0
  1  7  2  0  0  0  0
  2  8  2  0  0  0  0
  3  6  1  0  0  0  0
  3 10  2  0  0  0  0
  4 11  2  0  0  0  0
  4 18  1  0  0  0  0
  5 12  1  0  0  0  0
  5 18  2  0  0  0  0
  6 19  2  0  0  0  0
  7 21  1  0  0  0  0
  8 23  1  0  0  0  0
  9 13  2  0  0  0  0
  9 22  1  0  0  0  0
 10 26  1  0  0  0  0
 11 27  1  0  0  0  0
 12 27  2  0  0  0  0
 13 28  1  0  0  0  0
 14 15  2  0  0  0  0
 14 29  1  0  0  0  0
 15 30  1  0  0  0  0
 16 24  1  0  0  0  0
 16 28  2  0  0  0  0
 17 30  2  0  0  0  0
 17 31  1  0  0  0  0
 18 32  1  0  0  0  0
 19 25  1  0  0  0  0
 19 34  1  0  0  0  0
 20 32  1  0  0  0  0
 20 33  2  0  0  0  0
 20 35  1  0  0  0  0
 21 23  2  0  0  0  0
 21 41  1  0  0  0  0
 22 24  2  0  0  0  0
 22 42  1  0  0  0  0
 23 50  1  0  0  0  0
 24 43  1  0  0  0  0
 25 26  2  0  0  0  0
 25 62  1  0  0  0  0
 26 72  1  0  0  0  0
 27 84  1  0  0  0  0
 28 85  1  0  0  0  0
 29 31  2  0  0  0  0
 29 84  1  0  0  0  0
 30 86  1  0  0  0  0
 31 87  1  0  0  0  0
 32 66  2  0  0  0  0
 33 67  1  0  0  0  0
 33 70  1  0  0  0  0
 34 60  1  0  0  0  0
 34 77  2  0  0  0  0
 35 71  1  0  0  0  0
 35 78  2  0  0  0  0
 36 51  1  0  0  0  0
 36 73  1  0  0  0  0
 36 79  2  0  0  0  0
 37 63  1  0  0  0  0
 37 68  1  0  0  0  0
 37 80  2  0  0  0  0
 38 61  1  0  0  0  0
 38 72  1  0  0  0  0
 38 81  2  0  0  0  0
 39 64  1  0  0  0  0
 39 74  1  0  0  0  0
 39 82  2  0  0  0  0
 40 69  1  0  0  0  0
 40 75  1  0  0  0  0
 40 83  2  0  0  0  0
 41 44  1  0  0  0  0
 42 51  1  0  0  0  0
 43 68  1  0  0  0  0
 44 46  1  0  0  0  0
 45 47  1  0  0  0  0
 45 48  1  0  0  0  0
 46 50  1  0  0  0  0
 47 52  1  0  0  0  0
 48 69  1  0  0  0  0
 49 52  1  0  0  0  0
 49 69  1  0  0  0  0
 50 73  1  0  0  0  0
 51 68  1  0  0  0  0
 52 67  1  0  0  0  0
 53 62  1  0  0  0  0
 54 62  1  0  0  0  0
 55 64  1  0  0  0  0
 56 65  1  0  0  0  0
 57 65  1  0  0  0  0
 58 65  1  0  0  0  0
 59 76  1  0  0  0  0
 60 75  1  0  0  0  0
 61 85  1  0  0  0  0
 63 65  1  0  0  0  0
 63 74  1  0  0  0  0
 64 76  1  0  0  0  0
 66 67  1  0  0  0  0
M  CHG  1  76   1
M  ISO  4  40 100  61 101  75 100  85 101
M  END
> <Batch ID>
0060

> <Smiles>
CNC(C)C(=O)NC(C(=O)N1Cc2cc([101O:1][101CH2:1]C(=O)Nc3cccc(C(=O)C[100NH:0][100C:0](=O)N4CCCC(n5nc(-c6ccc(Oc7ccc(F)cc7F)cc6)c(C(N)=O)c5N)C4)c3C(C)C)ccc2CC1C(=O)NC1CCCc2ccccc21)C(C)(C)C

> <Shape>
0.196

> <Color>
0.070

> <Negative vol penalty>
0.000

$$$$

  -OEChem-04042323043D

 83 91  0     1  0  0  0  0  0999 V2000
  -20.7070  -33.9165   15.3762 C   0  0  0  0  0  0  0  0  0  0  0  0
  -21.5300  -32.7999   15.4822 C   0  0  0  0  0  0  0  0  0  0  0  0
  -32.2564  -18.5006   21.1899 C   0  0  0  0  0  0  0  0  0  0  0  0
  -22.9327  -11.5986   21.5332 C   0  0  0  0  0  0  0  0  0  0  0  0
  -22.9220  -13.9949   21.2250 C   0  0  0  0  0  0  0  0  0  0  0  0
  -20.9190  -35.0184   16.2037 C   0  0  0  0  0  0  0  0  0  0  0  0
  -22.5662  -32.7849   16.4151 C   0  0  0  0  0  0  0  0  0  0  0  0
  -24.6134  -27.9492   19.5664 C   0  0  0  0  0  0  0  0  0  0  0  0
  -31.4568  -19.6085   20.9094 C   0  0  0  0  0  0  0  0  0  0  0  0
  -31.8228  -17.2214   20.8414 C   0  0  0  0  0  0  0  0  0  0  0  0
  -21.9161  -11.7160   22.4810 C   0  0  0  0  0  0  0  0  0  0  0  0
  -21.9053  -14.1122   22.1727 C   0  0  0  0  0  0  0  0  0  0  0  0
  -25.6987  -27.0954   19.3741 C   0  0  0  0  0  0  0  0  0  0  0  0
  -18.5582  -13.6644   22.3011 C   0  0  0  0  0  0  0  0  0  0  0  0
  -17.4842  -14.5009   21.9971 C   0  0  0  0  0  0  0  0  0  0  0  0
  -27.0050  -28.4198   20.9098 C   0  0  0  0  0  0  0  0  0  0  0  0
  -29.7899  -18.1581   19.9321 C   0  0  0  0  0  0  0  0  0  0  0  0
  -17.9817  -15.8461   23.9414 C   0  0  0  0  0  0  0  0  0  0  0  0
  -23.4357  -12.7381   20.9052 C   0  0  0  0  0  0  0  0  0  0  0  0
  -24.3382  -12.4385   18.5380 C   0  0  0  0  0  0  0  0  0  0  0  0
  -21.9523  -35.0131   17.1539 C   0  0  0  0  0  0  0  0  0  0  0  0
  -24.7194  -29.0528   20.4249 C   0  0  0  0  0  0  0  0  0  0  0  0
  -22.7931  -33.8883   17.2552 C   0  0  0  0  0  0  0  0  0  0  0  0
  -25.9188  -29.2846   21.1133 C   0  0  0  0  0  0  0  0  0  0  0  0
  -30.2236  -19.4373   20.2805 C   0  0  0  0  0  0  0  0  0  0  0  0
  -30.5896  -17.0501   20.2126 C   0  0  0  0  0  0  0  0  0  0  0  0
  -21.4024  -12.9727   22.8007 C   0  0  0  0  0  0  0  0  0  0  0  0
  -26.8956  -27.3323   20.0436 C   0  0  0  0  0  0  0  0  0  0  0  0
  -19.3439  -13.9186   23.4253 C   0  0  0  0  0  0  0  0  0  0  0  0
  -17.1960  -15.5918   22.8172 C   0  0  0  0  0  0  0  0  0  0  0  0
  -19.0557  -15.0095   24.2454 C   0  0  0  0  0  0  0  0  0  0  0  0
  -24.4863  -12.6176   19.9265 C   0  0  0  0  0  0  0  0  0  0  0  0
  -25.6245  -12.3836   18.0598 C   0  0  0  0  0  0  0  0  0  0  0  0
  -23.1445  -12.3315   17.7510 C   0  0  0  0  0  0  0  0  0  0  0  0
  -24.5009  -32.2035   20.0655 C   0  0  0  0  0  0  0  0  0  0  0  0
  -24.7528  -32.1982   23.2995 C   0  0  0  0  0  0  0  0  0  0  0  0
  -29.6888  -21.8983   20.2713 C   0  0  0  0  0  0  0  0  0  0  0  0
  -25.8009  -30.5901   26.1213 C   0  0  0  0  0  0  0  0  0  0  0  0
  -30.8213  -14.5459   20.0656 C   0  0  0  0  0  0  0  0  0  0  0  0
  -22.1724  -36.2463   17.9938 C   0  0  0  0  0  0  0  0  0  0  0  0
  -23.5311  -29.9490   20.6421 C   0  0  0  0  0  0  0  0  0  0  0  0
  -26.0777  -30.4439   22.0615 C   0  0  0  0  0  0  0  0  0  0  0  0
  -23.0573  -36.0025   19.2136 C   0  0  0  0  0  0  0  0  0  0  0  0
  -30.0581  -11.1378   19.3733 C   0  0  0  0  0  0  0  0  0  0  0  0
  -24.2963  -35.2029   18.8230 C   0  0  0  0  0  0  0  0  0  0  0  0
  -28.5294  -11.1154   19.3042 C   0  0  0  0  0  0  0  0  0  0  0  0
  -30.5634  -12.1035   20.4438 C   0  0  0  0  0  0  0  0  0  0  0  0
  -28.5053  -13.4474   20.2779 C   0  0  0  0  0  0  0  0  0  0  0  0
  -23.9122  -33.8244   18.2719 C   0  0  1  0  0  0  0  0  0  0  0  0
  -23.9139  -31.3378   21.1442 C   0  0  1  0  0  0  0  0  0  0  0  0
  -27.9505  -12.5375   19.1698 C   0  0  2  0  0  0  0  0  0  0  0  0
  -25.9023  -30.8514   28.6150 C   0  0  0  0  0  0  0  0  0  0  0  0
  -27.0700  -34.1602   22.9972 C   0  0  0  0  0  0  0  0  0  0  0  0
  -27.7210  -33.6473   25.3597 C   0  0  0  0  0  0  0  0  0  0  0  0
  -25.5021  -34.6789   24.8753 C   0  0  0  0  0  0  0  0  0  0  0  0
  -24.1313  -28.1857   26.5575 C   0  0  0  0  0  0  0  0  0  0  0  0
  -28.5472  -22.7873   19.7981 C   0  0  0  0  0  0  0  0  0  0  0  0
  -28.7992  -24.2651   20.0766 C   0  0  0  0  0  0  0  0  0  0  0  0
  -27.6675  -25.1371   19.5526 C   0  0  0  0  0  0  0  0  0  1  0  0
  -25.8969  -32.2530   24.2828 C   0  0  1  0  0  0  0  0  0  0  0  0
  -25.1024  -30.3110   27.4399 C   0  0  2  0  0  0  0  0  0  0  0  0
  -26.5454  -33.6640   24.3595 C   0  0  0  0  0  0  0  0  0  0  0  0
  -25.7658  -12.6726   20.3057 N   0  0  0  0  0  0  0  0  0  0  0  0
  -26.4334  -12.5272   19.1485 N   0  0  0  0  0  0  0  0  0  0  0  0
  -24.8892  -31.2953   22.2356 N   0  0  0  0  0  0  0  0  0  0  0  0
  -29.9763  -13.4312   20.2504 N   0  0  0  0  0  0  0  0  0  0  0  0
  -26.1313  -12.2269   16.8184 N   0  0  0  0  0  0  0  0  0  0  0  0
  -21.9058  -12.4089   18.4020 N   0  0  0  0  0  0  0  0  0  0  0  0
  -29.4131  -20.5619   19.9958 N   0  0  0  0  0  0  0  0  0  0  0  0
  -30.1497  -15.7505   19.8588 N   0  0  0  0  0  0  0  0  0  0  0  0
  -23.5640  -32.9271   19.3527 N   0  0  0  0  0  0  0  0  0  0  0  0
  -25.3670  -31.7691   25.5531 N   0  0  0  0  0  0  0  0  0  0  0  0
  -24.9212  -28.8440   27.6297 N   0  3  0  0  0  0  0  0  0  0  0  0
  -23.1756  -12.1555   16.5094 O   0  0  0  0  0  0  0  0  0  0  0  0
  -25.7142  -32.2153   19.8936 O   0  0  0  0  0  0  0  0  0  0  0  0
  -23.7709  -32.9245   23.4731 O   0  0  0  0  0  0  0  0  0  0  0  0
  -30.6885  -22.3562   20.8147 O   0  0  0  0  0  0  0  0  0  0  0  0
  -26.6493  -29.8392   25.6449 O   0  0  0  0  0  0  0  0  0  0  0  0
  -32.0500  -14.4353   20.0618 O   0  0  0  0  0  0  0  0  0  0  0  0
  -20.4102  -13.0876   23.7254 O   0  0  0  0  0  0  0  0  0  0  0  0
  -27.9567  -26.5009   19.8572 O   0  0  0  0  0  0  0  0  0  1  0  0
  -16.1657  -16.3960   22.5243 F   0  0  0  0  0  0  0  0  0  0  0  0
  -19.8076  -15.2595   25.3261 F   0  0  0  0  0  0  0  0  0  0  0  0
  1  2  1  0  0  0  0
  1  6  2  0  0  0  0
  2  7  2  0  0  0  0
  3  9  2  0  0  0  0
  3 10  1  0  0  0  0
  4 11  2  0  0  0  0
  4 19  1  0  0  0  0
  5 12  1  0  0  0  0
  5 19  2  0  0  0  0
  6 21  1  0  0  0  0
  7 23  1  0  0  0  0
  8 13  2  0  0  0  0
  8 22  1  0  0  0  0
  9 25  1  0  0  0  0
 10 26  2  0  0  0  0
 11 27  1  0  0  0  0
 12 27  2  0  0  0  0
 13 28  1  0  0  0  0
 14 15  2  0  0  0  0
 14 29  1  0  0  0  0
 15 30  1  0  0  0  0
 16 24  1  0  0  0  0
 16 28  2  0  0  0  0
 17 25  2  0  0  0  0
 17 26  1  0  0  0  0
 18 30  2  0  0  0  0
 18 31  1  0  0  0  0
 19 32  1  0  0  0  0
 20 32  1  0  0  0  0
 20 33  2  0  0  0  0
 20 34  1  0  0  0  0
 21 23  2  0  0  0  0
 21 40  1  0  0  0  0
 22 24  2  0  0  0  0
 22 41  1  0  0  0  0
 23 49  1  0  0  0  0
 24 42  1  0  0  0  0
 25 69  1  0  0  0  0
 26 70  1  0  0  0  0
 27 80  1  0  0  0  0
 28 81  1  0  0  0  0
 29 31  2  0  0  0  0
 29 80  1  0  0  0  0
 30 82  1  0  0  0  0
 31 83  1  0  0  0  0
 32 63  2  0  0  0  0
 33 64  1  0  0  0  0
 33 67  1  0  0  0  0
 34 68  1  0  0  0  0
 34 74  2  0  0  0  0
 35 50  1  0  0  0  0
 35 71  1  0  0  0  0
 35 75  2  0  0  0  0
 36 60  1  0  0  0  0
 36 65  1  0  0  0  0
 36 76  2  0  0  0  0
 37 57  1  0  0  0  0
 37 69  1  0  0  0  0
 37 77  2  0  0  0  0
 38 61  1  0  0  0  0
 38 72  1  0  0  0  0
 38 78  2  0  0  0  0
 39 66  1  0  0  0  0
 39 70  1  0  0  0  0
 39 79  2  0  0  0  0
 40 43  1  0  0  0  0
 41 50  1  0  0  0  0
 42 65  1  0  0  0  0
 43 45  1  0  0  0  0
 44 46  1  0  0  0  0
 44 47  1  0  0  0  0
 45 49  1  0  0  0  0
 46 51  1  0  0  0  0
 47 66  1  0  0  0  0
 48 51  1  0  0  0  0
 48 66  1  0  0  0  0
 49 71  1  0  0  0  0
 50 65  1  0  0  0  0
 51 64  1  0  0  0  0
 52 61  1  0  0  0  0
 53 62  1  0  0  0  0
 54 62  1  0  0  0  0
 55 62  1  0  0  0  0
 56 73  1  0  0  0  0
 57 58  1  0  0  0  0
 58 59  1  0  0  0  0
 59 81  1  0  0  0  0
 60 62  1  0  0  0  0
 60 72  1  0  0  0  0
 61 73  1  0  0  0  0
 63 64  1  0  0  0  0
M  CHG  1  73   1
M  ISO  4  39 100  59 101  70 100  81 101
M  END
> <Batch ID>
0060

> <Smiles>
CNC(C)C(=O)NC(C(=O)N1Cc2cc([101O:1][101CH2:1]CCC(=O)Nc3cccc([100NH:0][100C:0](=O)N4CCCC(n5nc(-c6ccc(Oc7ccc(F)cc7F)cc6)c(C(N)=O)c5N)C4)c3)ccc2CC1C(=O)NC1CCCc2ccccc21)C(C)(C)C

> <Shape>
0.275

> <Color>
0.101

> <Negative vol penalty>
0.000

$$$$

  -OEChem-04042323043D

 84 92  0     1  0  0  0  0  0999 V2000
  -27.0810  -24.5947   16.0607 C   0  0  0  0  0  0  0  0  0  0  0  0
  -26.0635  -25.4484   16.4716 C   0  0  0  0  0  0  0  0  0  0  0  0
  -23.2304  -25.2768   20.8169 C   0  0  0  0  0  0  0  0  0  0  0  0
  -24.7780  -12.6757   19.8212 C   0  0  0  0  0  0  0  0  0  0  0  0
  -25.5022  -13.8279   21.8174 C   0  0  0  0  0  0  0  0  0  0  0  0
  -28.1780  -24.3739   16.8907 C   0  0  0  0  0  0  0  0  0  0  0  0
  -26.1483  -26.0908   17.7073 C   0  0  0  0  0  0  0  0  0  0  0  0
  -22.7047  -29.4559   18.7181 C   0  0  0  0  0  0  0  0  0  0  0  0
  -22.2249  -25.2034   21.7808 C   0  0  0  0  0  0  0  0  0  0  0  0
  -23.5747  -24.1432   20.0805 C   0  0  0  0  0  0  0  0  0  0  0  0
  -25.4698  -11.5351   20.2284 C   0  0  0  0  0  0  0  0  0  0  0  0
  -26.1941  -12.6872   22.2247 C   0  0  0  0  0  0  0  0  0  0  0  0
  -21.3832  -29.1186   19.0071 C   0  0  0  0  0  0  0  0  0  0  0  0
  -25.0125   -8.9891   22.4060 C   0  0  0  0  0  0  0  0  0  0  0  0
  -24.3597   -7.7614   22.2963 C   0  0  0  0  0  0  0  0  0  0  0  0
  -21.7989  -29.5217   21.3489 C   0  0  0  0  0  0  0  0  0  0  0  0
  -21.9080  -22.8629   21.2721 C   0  0  0  0  0  0  0  0  0  0  0  0
  -26.0933   -6.9725   20.8099 C   0  0  0  0  0  0  0  0  0  0  0  0
  -24.7942  -13.8222   20.6156 C   0  0  0  0  0  0  0  0  0  0  0  0
  -22.7442  -15.3350   20.4873 C   0  0  0  0  0  0  0  0  0  0  0  0
  -28.2696  -25.0046   18.1424 C   0  0  0  0  0  0  0  0  0  0  0  0
  -23.5877  -29.8187   19.7453 C   0  0  0  0  0  0  0  0  0  0  0  0
  -27.2590  -25.8995   18.5490 C   0  0  0  0  0  0  0  0  0  0  0  0
  -23.1304  -29.8656   21.0700 C   0  0  0  0  0  0  0  0  0  0  0  0
  -21.5637  -23.9965   22.0084 C   0  0  0  0  0  0  0  0  0  0  0  0
  -22.9135  -22.9363   20.3081 C   0  0  0  0  0  0  0  0  0  0  0  0
  -26.1778  -11.5408   21.4302 C   0  0  0  0  0  0  0  0  0  0  0  0
  -20.9308  -29.1487   20.3230 C   0  0  0  0  0  0  0  0  0  0  0  0
  -26.2056   -9.2087   21.7176 C   0  0  0  0  0  0  0  0  0  0  0  0
  -24.9001   -6.7530   21.4983 C   0  0  0  0  0  0  0  0  0  0  0  0
  -26.7460   -8.2003   20.9195 C   0  0  0  0  0  0  0  0  0  0  0  0
  -24.0802  -15.0009   20.1952 C   0  0  0  0  0  0  0  0  0  0  0  0
  -22.5477  -16.5424   19.8627 C   0  0  0  0  0  0  0  0  0  0  0  0
  -21.7681  -14.6181   21.2547 C   0  0  0  0  0  0  0  0  0  0  0  0
  -26.3042  -28.6312   20.8918 C   0  0  0  0  0  0  0  0  0  0  0  0
  -26.2696  -31.3295   22.6919 C   0  0  0  0  0  0  0  0  0  0  0  0
  -19.0259  -25.8349   23.6425 C   0  0  0  0  0  0  0  0  0  0  0  0
  -24.4484  -33.8445   24.1079 C   0  0  0  0  0  0  0  0  0  0  0  0
  -24.2365  -21.6872   18.5658 C   0  0  0  0  0  0  0  0  0  0  0  0
  -29.4829  -24.7359   18.9974 C   0  0  0  0  0  0  0  0  0  0  0  0
  -25.0030  -30.2055   19.4139 C   0  0  0  0  0  0  0  0  0  0  0  0
  -24.0329  -30.2679   22.2067 C   0  0  0  0  0  0  0  0  0  0  0  0
  -29.2725  -25.1074   20.4616 C   0  0  0  0  0  0  0  0  0  0  0  0
  -25.4219  -19.0268   16.5178 C   0  0  0  0  0  0  0  0  0  0  0  0
  -28.6968  -26.5119   20.5640 C   0  0  0  0  0  0  0  0  0  0  0  0
  -25.0686  -17.7698   17.3159 C   0  0  0  0  0  0  0  0  0  0  0  0
  -25.8488  -20.1760   17.4292 C   0  0  0  0  0  0  0  0  0  0  0  0
  -24.5494  -19.2429   19.3027 C   0  0  0  0  0  0  0  0  0  0  0  0
  -27.3150  -26.5854   19.9020 C   0  0  1  0  0  0  0  0  0  0  0  0
  -25.9543  -30.0626   20.5979 C   0  0  1  0  0  0  0  0  0  0  0  0
  -24.0510  -18.0781   18.4317 C   0  0  2  0  0  0  0  0  0  0  0  0
  -24.6933  -35.8809   25.5537 C   0  0  0  0  0  0  0  0  0  0  0  0
  -26.5826  -29.5456   25.1474 C   0  0  0  0  0  0  0  0  0  0  0  0
  -25.8743  -31.4865   26.5615 C   0  0  0  0  0  0  0  0  0  0  0  0
  -27.9555  -31.6354   25.1944 C   0  0  0  0  0  0  0  0  0  0  0  0
  -23.4109  -35.6218   21.9810 C   0  0  0  0  0  0  0  0  0  0  0  0
  -20.4814  -23.9181   23.0461 C   0  0  0  0  0  0  0  0  0  0  0  0
  -17.8595  -26.6451   23.1056 C   0  0  0  0  0  0  0  0  0  0  0  0
  -18.1797  -27.3168   21.7751 C   0  0  0  0  0  0  0  0  0  0  0  0
  -19.3873  -28.2362   21.8853 C   0  0  0  0  0  0  0  0  0  1  0  0
  -25.7070  -31.7077   24.0408 C   0  0  1  0  0  0  0  0  0  0  0  0
  -24.6545  -35.3483   24.1297 C   0  0  2  0  0  0  0  0  0  0  0  0
  -26.5131  -31.0843   25.2150 C   0  0  0  0  0  0  0  0  0  0  0  0
  -24.6894  -15.9216   19.4434 N   0  0  0  0  0  0  0  0  0  0  0  0
  -23.7318  -16.8461   19.2577 N   0  0  0  0  0  0  0  0  0  0  0  0
  -25.4096  -30.6312   21.8324 N   0  0  0  0  0  0  0  0  0  0  0  0
  -24.8347  -20.4138   18.4587 N   0  0  0  0  0  0  0  0  0  0  0  0
  -21.4794  -17.3632   19.7774 N   0  0  0  0  0  0  0  0  0  0  0  0
  -22.1365  -13.3930   21.8271 N   0  0  0  0  0  0  0  0  0  0  0  0
  -23.2630  -21.7852   19.5594 N   0  0  0  0  0  0  0  0  0  0  0  0
  -26.8970  -27.9683   19.8342 N   0  0  0  0  0  0  0  0  0  0  0  0
  -19.3957  -24.8269   22.7641 N   0  0  0  0  0  0  0  0  0  0  0  0
  -25.6475  -33.1652   24.0642 N   0  0  0  0  0  0  0  0  0  0  0  0
  -23.5492  -36.0333   23.4017 N   0  3  0  0  0  0  0  0  0  0  0  0
  -20.5987  -15.0431   21.4139 O   0  0  0  0  0  0  0  0  0  0  0  0
  -26.0561  -28.1633   21.9969 O   0  0  0  0  0  0  0  0  0  0  0  0
  -27.4270  -31.6484   22.4084 O   0  0  0  0  0  0  0  0  0  0  0  0
  -19.5630  -26.0602   24.7237 O   0  0  0  0  0  0  0  0  0  0  0  0
  -23.3351  -33.3244   24.1313 O   0  0  0  0  0  0  0  0  0  0  0  0
  -24.5443  -22.6143   17.8122 O   0  0  0  0  0  0  0  0  0  0  0  0
  -26.8529  -10.4279   21.8281 O   0  0  0  0  0  0  0  0  0  0  0  0
  -19.6416  -28.8193   20.6079 O   0  0  0  0  0  0  0  0  0  1  0  0
  -24.2740   -5.5735   21.3943 F   0  0  0  0  0  0  0  0  0  0  0  0
  -27.8926   -8.4049   20.2567 F   0  0  0  0  0  0  0  0  0  0  0  0
  1  2  1  0  0  0  0
  1  6  2  0  0  0  0
  2  7  2  0  0  0  0
  3  9  2  0  0  0  0
  3 10  1  0  0  0  0
  4 11  2  0  0  0  0
  4 19  1  0  0  0  0
  5 12  1  0  0  0  0
  5 19  2  0  0  0  0
  6 21  1  0  0  0  0
  7 23  1  0  0  0  0
  8 13  2  0  0  0  0
  8 22  1  0  0  0  0
  9 25  1  0  0  0  0
 10 26  2  0  0  0  0
 11 27  1  0  0  0  0
 12 27  2  0  0  0  0
 13 28  1  0  0  0  0
 14 15  2  0  0  0  0
 14 29  1  0  0  0  0
 15 30  1  0  0  0  0
 16 24  1  0  0  0  0
 16 28  2  0  0  0  0
 17 25  2  0  0  0  0
 17 26  1  0  0  0  0
 18 30  2  0  0  0  0
 18 31  1  0  0  0  0
 19 32  1  0  0  0  0
 20 32  1  0  0  0  0
 20 33  2  0  0  0  0
 20 34  1  0  0  0  0
 21 23  2  0  0  0  0
 21 40  1  0  0  0  0
 22 24  2  0  0  0  0
 22 41  1  0  0  0  0
 23 49  1  0  0  0  0
 24 42  1  0  0  0  0
 25 57  1  0  0  0  0
 26 70  1  0  0  0  0
 27 81  1  0  0  0  0
 28 82  1  0  0  0  0
 29 31  2  0  0  0  0
 29 81  1  0  0  0  0
 30 83  1  0  0  0  0
 31 84  1  0  0  0  0
 32 64  2  0  0  0  0
 33 65  1  0  0  0  0
 33 68  1  0  0  0  0
 34 69  1  0  0  0  0
 34 75  2  0  0  0  0
 35 50  1  0  0  0  0
 35 71  1  0  0  0  0
 35 76  2  0  0  0  0
 36 61  1  0  0  0  0
 36 66  1  0  0  0  0
 36 77  2  0  0  0  0
 37 58  1  0  0  0  0
 37 72  1  0  0  0  0
 37 78  2  0  0  0  0
 38 62  1  0  0  0  0
 38 73  1  0  0  0  0
 38 79  2  0  0  0  0
 39 67  1  0  0  0  0
 39 70  1  0  0  0  0
 39 80  2  0  0  0  0
 40 43  1  0  0  0  0
 41 50  1  0  0  0  0
 42 66  1  0  0  0  0
 43 45  1  0  0  0  0
 44 46  1  0  0  0  0
 44 47  1  0  0  0  0
 45 49  1  0  0  0  0
 46 51  1  0  0  0  0
 47 67  1  0  0  0  0
 48 51  1  0  0  0  0
 48 67  1  0  0  0  0
 49 71  1  0  0  0  0
 50 66  1  0  0  0  0
 51 65  1  0  0  0  0
 52 62  1  0  0  0  0
 53 63  1  0  0  0  0
 54 63  1  0  0  0  0
 55 63  1  0  0  0  0
 56 74  1  0  0  0  0
 57 72  1  0  0  0  0
 58 59  1  0  0  0  0
 59 60  1  0  0  0  0
 60 82  1  0  0  0  0
 61 63  1  0  0  0  0
 61 73  1  0  0  0  0
 62 74  1  0  0  0  0
 64 65  1  0  0  0  0
M  CHG  1  74   1
M  ISO  4  39 100  60 101  70 100  82 101
M  END
> <Batch ID>
0060

> <Smiles>
CNC(C)C(=O)NC(C(=O)N1Cc2cc([101O:1][101CH2:1]CCC(=O)NCc3cccc([100NH:0][100C:0](=O)N4CCCC(n5nc(-c6ccc(Oc7ccc(F)cc7F)cc6)c(C(N)=O)c5N)C4)c3)ccc2CC1C(=O)NC1CCCc2ccccc21)C(C)(C)C

> <Shape>
0.246

> <Color>
0.080

> <Negative vol penalty>
0.000

$$$$

  -OEChem-04042323043D

 87 96  0     1  0  0  0  0  0999 V2000
  -17.0186  -30.1550   23.7522 C   0  0  0  0  0  0  0  0  0  0  0  0
  -18.3220  -30.6382   23.6976 C   0  0  0  0  0  0  0  0  0  0  0  0
  -28.0803  -11.5323   21.7169 C   0  0  0  0  0  0  0  0  0  0  0  0
  -27.0919  -12.2970   19.6492 C   0  0  0  0  0  0  0  0  0  0  0  0
  -16.7627  -28.8111   23.4832 C   0  0  0  0  0  0  0  0  0  0  0  0
  -19.3706  -29.7775   23.3751 C   0  0  0  0  0  0  0  0  0  0  0  0
  -25.7142  -29.7080   20.0478 C   0  0  0  0  0  0  0  0  0  0  0  0
  -27.8016  -10.2124   21.3620 C   0  0  0  0  0  0  0  0  0  0  0  0
  -26.8132  -10.9771   19.2943 C   0  0  0  0  0  0  0  0  0  0  0  0
  -27.0392  -29.3314   20.2630 C   0  0  0  0  0  0  0  0  0  0  0  0
  -28.4942   -8.3307   18.0328 C   0  0  0  0  0  0  0  0  0  0  0  0
  -28.7864   -7.9368   16.7270 C   0  0  0  0  0  0  0  0  0  0  0  0
  -26.4685  -27.0467   19.7399 C   0  0  0  0  0  0  0  0  0  0  0  0
  -28.6019  -23.5171   20.2360 C   0  0  0  0  0  0  0  0  0  0  0  0
  -28.6221  -23.5366   22.6519 C   0  0  0  0  0  0  0  0  0  0  0  0
  -26.4599   -7.3913   16.3709 C   0  0  0  0  0  0  0  0  0  0  0  0
  -27.7254  -12.5746   20.8605 C   0  0  0  0  0  0  0  0  0  0  0  0
  -29.1812  -14.6680   20.9378 C   0  0  0  0  0  0  0  0  0  0  0  0
  -17.8075  -27.9356   23.1477 C   0  0  0  0  0  0  0  0  0  0  0  0
  -24.7525  -28.7532   19.6871 C   0  0  0  0  0  0  0  0  0  0  0  0
  -19.1286  -28.4203   23.1026 C   0  0  0  0  0  0  0  0  0  0  0  0
  -25.1325  -27.4141   19.5182 C   0  0  0  0  0  0  0  0  0  0  0  0
  -27.8040  -22.3731   20.2519 C   0  0  0  0  0  0  0  0  0  0  0  0
  -29.0110  -24.0988   21.4360 C   0  0  0  0  0  0  0  0  0  0  0  0
  -27.4151  -21.8109   21.4678 C   0  0  0  0  0  0  0  0  0  0  0  0
  -27.1681   -9.9348   20.1507 C   0  0  0  0  0  0  0  0  0  0  0  0
  -27.4159  -28.0001   20.1119 C   0  0  0  0  0  0  0  0  0  0  0  0
  -27.1848   -8.2549   18.5077 C   0  0  0  0  0  0  0  0  0  0  0  0
  -27.7693   -7.4671   15.8961 C   0  0  0  0  0  0  0  0  0  0  0  0
  -27.8241  -22.3927   22.6678 C   0  0  0  0  0  0  0  0  0  0  0  0
  -26.1677   -7.7852   17.6767 C   0  0  0  0  0  0  0  0  0  0  0  0
  -28.0126  -13.9382   21.2267 C   0  0  0  0  0  0  0  0  0  0  0  0
  -28.9623  -15.9027   21.4981 C   0  0  0  0  0  0  0  0  0  0  0  0
  -30.7628  -25.6221   20.4289 C   0  0  0  0  0  0  0  0  0  0  0  0
  -30.3593  -14.2657   20.2264 C   0  0  0  0  0  0  0  0  0  0  0  0
  -22.0719  -27.6620   21.0014 C   0  0  0  0  0  0  0  0  0  0  0  0
  -21.8111  -26.0547   18.1959 C   0  0  0  0  0  0  0  0  0  0  0  0
  -23.3636  -24.7293   15.4611 C   0  0  0  0  0  0  0  0  0  0  0  0
  -25.6811  -20.2919   22.4837 C   0  0  0  0  0  0  0  0  0  0  0  0
  -17.4878  -26.4807   22.9114 C   0  0  0  0  0  0  0  0  0  0  0  0
  -23.3329  -29.1801   19.4325 C   0  0  0  0  0  0  0  0  0  0  0  0
  -24.1425  -26.3540   19.1125 C   0  0  0  0  0  0  0  0  0  0  0  0
  -31.4491  -26.8906   20.8854 C   0  0  0  0  0  0  0  0  0  0  0  0
  -18.6084  -25.7169   22.2107 C   0  0  0  0  0  0  0  0  0  0  0  0
  -25.3393  -17.4915   24.6559 C   0  0  0  0  0  0  0  0  0  0  0  0
  -19.9541  -26.0321   22.8562 C   0  0  0  0  0  0  0  0  0  0  0  0
  -26.1005  -16.3775   23.9336 C   0  0  0  0  0  0  0  0  0  0  0  0
  -24.5983  -18.3996   23.6760 C   0  0  0  0  0  0  0  0  0  0  0  0
  -26.1874  -17.8442   21.8773 C   0  0  0  0  0  0  0  0  0  0  0  0
  -29.8350  -26.2225   22.5139 C   0  0  0  0  0  0  0  0  0  0  0  0
  -20.2897  -27.5232   22.7321 C   0  0  1  0  0  0  0  0  0  0  0  0
  -22.3315  -28.0374   19.5699 C   0  0  1  0  0  0  0  0  0  0  0  0
  -27.0024  -16.9424   22.8187 C   0  0  2  0  0  0  0  0  0  0  0  0
  -30.4990  -27.4744   21.9352 C   0  0  1  0  0  0  0  0  0  0  0  0
  -27.3818  -21.7706   18.9510 C   0  0  0  0  0  0  0  0  0  0  0  0
  -31.2561  -28.2580   23.0085 C   0  0  0  0  0  0  0  0  0  0  0  0
  -22.8921  -23.4426   13.3588 C   0  0  0  0  0  0  0  0  0  0  0  0
  -21.4965  -23.4993   19.8333 C   0  0  0  0  0  0  0  0  0  0  0  0
  -21.9829  -22.1907   17.7551 C   0  0  0  0  0  0  0  0  0  0  0  0
  -19.9737  -23.6657   17.8565 C   0  0  0  0  0  0  0  0  0  0  0  0
  -24.3824  -26.9211   13.7531 C   0  0  0  0  0  0  0  0  0  0  0  0
  -29.4557  -28.3893   21.2712 C   0  0  0  0  0  0  0  0  0  1  0  0
  -22.2703  -24.7094   17.6879 C   0  0  1  0  0  0  0  0  0  0  0  0
  -23.0471  -24.8224   13.9793 C   0  0  2  0  0  0  0  0  0  0  0  0
  -21.4493  -23.5357   18.2927 C   0  0  0  0  0  0  0  0  0  0  0  0
  -27.1177  -14.6499   21.9171 N   0  0  0  0  0  0  0  0  0  0  0  0
  -27.7242  -15.8398   22.0668 N   0  0  0  0  0  0  0  0  0  0  0  0
  -29.8284  -25.2687   21.4189 N   0  0  0  0  0  0  0  0  0  0  0  0
  -22.7653  -26.8200   18.8812 N   0  0  0  0  0  0  0  0  0  0  0  0
  -25.5167  -18.9006   22.6511 N   0  0  0  0  0  0  0  0  0  0  0  0
  -29.7100  -17.0253   21.5549 N   0  0  0  0  0  0  0  0  0  0  0  0
  -30.4192  -12.9617   19.7163 N   0  0  0  0  0  0  0  0  0  0  0  0
  -26.6043  -20.6494   21.5016 N   0  0  0  0  0  0  0  0  0  0  0  0
  -20.7581  -27.8264   21.3968 N   0  0  0  0  0  0  0  0  0  0  0  0
  -22.2216  -24.7846   16.2317 N   0  0  0  0  0  0  0  0  0  0  0  0
  -24.1373  -25.5410   13.2609 N   0  3  0  0  0  0  0  0  0  0  0  0
  -31.0727  -25.0447   19.3968 O   0  0  0  0  0  0  0  0  0  0  0  0
  -31.3368  -15.0345   20.0625 O   0  0  0  0  0  0  0  0  0  0  0  0
  -22.9949  -27.2521   21.6955 O   0  0  0  0  0  0  0  0  0  0  0  0
  -20.6505  -26.4163   17.9861 O   0  0  0  0  0  0  0  0  0  0  0  0
  -24.5091  -24.6149   15.8916 O   0  0  0  0  0  0  0  0  0  0  0  0
  -25.0696  -21.1061   23.1803 O   0  0  0  0  0  0  0  0  0  0  0  0
  -26.8962   -8.6470   19.8040 O   0  0  0  0  0  0  0  0  0  0  0  0
  -28.7084  -27.6297   20.3220 O   0  0  0  0  0  0  0  0  0  1  0  0
  -28.0498   -7.0903   14.6417 F   0  0  0  0  0  0  0  0  0  0  0  0
  -27.4568  -21.8613   23.8426 F   0  0  0  0  0  0  0  0  0  0  0  0
  -24.9077   -7.7112   18.1269 F   0  0  0  0  0  0  0  0  0  0  0  0
  1  2  1  0  0  0  0
  1  5  2  0  0  0  0
  2  6  2  0  0  0  0
  3  8  2  0  0  0  0
  3 17  1  0  0  0  0
  4  9  1  0  0  0  0
  4 17  2  0  0  0  0
  5 19  1  0  0  0  0
  6 21  1  0  0  0  0
  7 10  2  0  0  0  0
  7 20  1  0  0  0  0
  8 26  1  0  0  0  0
  9 26  2  0  0  0  0
 10 27  1  0  0  0  0
 11 12  2  0  0  0  0
 11 28  1  0  0  0  0
 12 29  1  0  0  0  0
 13 22  1  0  0  0  0
 13 27  2  0  0  0  0
 14 23  2  0  0  0  0
 14 24  1  0  0  0  0
 15 24  2  0  0  0  0
 15 30  1  0  0  0  0
 16 29  2  0  0  0  0
 16 31  1  0  0  0  0
 17 32  1  0  0  0  0
 18 32  1  0  0  0  0
 18 33  2  0  0  0  0
 18 35  1  0  0  0  0
 19 21  2  0  0  0  0
 19 40  1  0  0  0  0
 20 22  2  0  0  0  0
 20 41  1  0  0  0  0
 21 51  1  0  0  0  0
 22 42  1  0  0  0  0
 23 25  1  0  0  0  0
 23 55  1  0  0  0  0
 24 68  1  0  0  0  0
 25 30  2  0  0  0  0
 25 73  1  0  0  0  0
 26 83  1  0  0  0  0
 27 84  1  0  0  0  0
 28 31  2  0  0  0  0
 28 83  1  0  0  0  0
 29 85  1  0  0  0  0
 30 86  1  0  0  0  0
 31 87  1  0  0  0  0
 32 66  2  0  0  0  0
 33 67  1  0  0  0  0
 33 71  1  0  0  0  0
 34 43  1  0  0  0  0
 34 68  1  0  0  0  0
 34 77  2  0  0  0  0
 35 72  1  0  0  0  0
 35 78  2  0  0  0  0
 36 52  1  0  0  0  0
 36 74  1  0  0  0  0
 36 79  2  0  0  0  0
 37 63  1  0  0  0  0
 37 69  1  0  0  0  0
 37 80  2  0  0  0  0
 38 64  1  0  0  0  0
 38 75  1  0  0  0  0
 38 81  2  0  0  0  0
 39 70  1  0  0  0  0
 39 73  1  0  0  0  0
 39 82  2  0  0  0  0
 40 44  1  0  0  0  0
 41 52  1  0  0  0  0
 42 69  1  0  0  0  0
 43 54  1  0  0  0  0
 44 46  1  0  0  0  0
 45 47  1  0  0  0  0
 45 48  1  0  0  0  0
 46 51  1  0  0  0  0
 47 53  1  0  0  0  0
 48 70  1  0  0  0  0
 49 53  1  0  0  0  0
 49 70  1  0  0  0  0
 50 54  1  0  0  0  0
 50 68  1  0  0  0  0
 51 74  1  0  0  0  0
 52 69  1  0  0  0  0
 53 67  1  0  0  0  0
 54 56  1  0  0  0  0
 54 62  1  0  0  0  0
 57 64  1  0  0  0  0
 58 65  1  0  0  0  0
 59 65  1  0  0  0  0
 60 65  1  0  0  0  0
 61 76  1  0  0  0  0
 62 84  1  0  0  0  0
 63 65  1  0  0  0  0
 63 75  1  0  0  0  0
 64 76  1  0  0  0  0
 66 67  1  0  0  0  0
M  CHG  1  76   1
M  ISO  4  39 100  62 101  73 100  84 101
M  END
> <Batch ID>
0060

> <Smiles>
CNC(C)C(=O)NC(C(=O)N1Cc2cc([101O:1][101CH2:1]C3(C)CC(=O)N(c4cc(C)c([100NH:0][100C:0](=O)N5CCCC(n6nc(-c7ccc(Oc8ccc(F)cc8F)cc7)c(C(N)=O)c6N)C5)c(F)c4)C3)ccc2CC1C(=O)NC1CCCc2ccccc21)C(C)(C)C

> <Shape>
0.217

> <Color>
0.085

> <Negative vol penalty>
0.000

$$$$

  -OEChem-04042323043D

 89 97  0     1  0  0  0  0  0999 V2000
  -27.5692  -25.1003   16.7771 C   0  0  0  0  0  0  0  0  0  0  0  0
  -26.4157  -25.3210   17.5229 C   0  0  0  0  0  0  0  0  0  0  0  0
  -31.3453  -17.7199   20.2679 C   0  0  0  0  0  0  0  0  0  0  0  0
  -29.5983  -17.2191   18.6759 C   0  0  0  0  0  0  0  0  0  0  0  0
  -28.7954  -25.5831   17.2325 C   0  0  0  0  0  0  0  0  0  0  0  0
  -26.4879  -26.0239   18.7251 C   0  0  0  0  0  0  0  0  0  0  0  0
  -22.8026  -29.4661   19.1873 C   0  0  0  0  0  0  0  0  0  0  0  0
  -31.7442  -16.3834   20.2506 C   0  0  0  0  0  0  0  0  0  0  0  0
  -29.9973  -15.8826   18.6586 C   0  0  0  0  0  0  0  0  0  0  0  0
  -21.5376  -29.0007   19.5438 C   0  0  0  0  0  0  0  0  0  0  0  0
  -29.6236  -13.1458   20.6082 C   0  0  0  0  0  0  0  0  0  0  0  0
  -28.6284  -12.1714   20.6832 C   0  0  0  0  0  0  0  0  0  0  0  0
  -22.3349  -21.2517   18.8443 C   0  0  0  0  0  0  0  0  0  0  0  0
  -21.6291  -22.6598   20.6763 C   0  0  0  0  0  0  0  0  0  0  0  0
  -21.9416  -29.6687   21.8263 C   0  0  0  0  0  0  0  0  0  0  0  0
  -29.3284  -11.2916   18.5448 C   0  0  0  0  0  0  0  0  0  0  0  0
  -30.2723  -18.1378   19.4806 C   0  0  0  0  0  0  0  0  0  0  0  0
  -21.0633  -21.3490   18.2795 C   0  0  0  0  0  0  0  0  0  0  0  0
  -20.3574  -22.7571   20.1115 C   0  0  0  0  0  0  0  0  0  0  0  0
  -30.3214  -20.5544   18.6652 C   0  0  0  0  0  0  0  0  0  0  0  0
  -28.8811  -26.3006   18.4360 C   0  0  0  0  0  0  0  0  0  0  0  0
  -23.6522  -30.0274   20.1515 C   0  0  0  0  0  0  0  0  0  0  0  0
  -27.7166  -26.5156   19.1976 C   0  0  0  0  0  0  0  0  0  0  0  0
  -23.2158  -30.1429   21.4790 C   0  0  0  0  0  0  0  0  0  0  0  0
  -22.6178  -21.9071   20.0427 C   0  0  0  0  0  0  0  0  0  0  0  0
  -20.0745  -22.1017   18.9131 C   0  0  0  0  0  0  0  0  0  0  0  0
  -31.0702  -15.4648   19.4460 C   0  0  0  0  0  0  0  0  0  0  0  0
  -21.1081  -29.0993   20.8640 C   0  0  0  0  0  0  0  0  0  0  0  0
  -30.4712  -13.1931   19.5013 C   0  0  0  0  0  0  0  0  0  0  0  0
  -28.4808  -11.2443   19.6516 C   0  0  0  0  0  0  0  0  0  0  0  0
  -30.3236  -12.2660   18.4697 C   0  0  0  0  0  0  0  0  0  0  0  0
  -29.8594  -19.5181   19.4984 C   0  0  0  0  0  0  0  0  0  0  0  0
  -29.6253  -21.6638   19.0789 C   0  0  0  0  0  0  0  0  0  0  0  0
  -19.7167  -17.6090   15.2422 C   0  0  0  0  0  0  0  0  0  0  0  0
  -20.8072  -20.6490   17.0260 C   0  0  0  0  0  0  0  0  0  0  0  0
  -20.1601  -18.8332   15.5554 C   0  0  0  0  0  0  0  0  0  0  0  0
  -19.3296  -23.5675   20.8143 C   0  0  0  0  0  0  0  0  0  0  0  0
  -31.2929  -20.5176   17.6114 C   0  0  0  0  0  0  0  0  0  0  0  0
  -20.3464  -19.3820   16.8975 C   0  0  0  0  0  0  0  0  0  0  0  0
  -26.5134  -29.2887   21.3226 C   0  0  0  0  0  0  0  0  0  0  0  0
  -26.1797  -32.1200   22.8700 C   0  0  0  0  0  0  0  0  0  0  0  0
  -24.0889  -34.5188   24.1033 C   0  0  0  0  0  0  0  0  0  0  0  0
  -24.3559  -22.3966   21.7994 C   0  0  0  0  0  0  0  0  0  0  0  0
  -30.2361  -26.7620   18.9111 C   0  0  0  0  0  0  0  0  0  0  0  0
  -25.0033  -30.5492   19.7456 C   0  0  0  0  0  0  0  0  0  0  0  0
  -24.0819  -30.7558   22.5480 C   0  0  0  0  0  0  0  0  0  0  0  0
  -30.1687  -27.8213   20.0082 C   0  0  0  0  0  0  0  0  0  0  0  0
  -27.5251  -23.5373   22.9536 C   0  0  0  0  0  0  0  0  0  0  0  0
  -29.1623  -27.4160   21.0804 C   0  0  0  0  0  0  0  0  0  0  0  0
  -28.5254  -22.7348   22.1184 C   0  0  0  0  0  0  0  0  0  0  0  0
  -26.2967  -22.7063   23.3200 C   0  0  0  0  0  0  0  0  0  0  0  0
  -26.6203  -21.2625   21.3503 C   0  0  0  0  0  0  0  0  0  0  0  0
  -27.7504  -27.2950   20.4943 C   0  0  1  0  0  0  0  0  0  0  0  0
  -25.9856  -30.6336   20.9098 C   0  0  1  0  0  0  0  0  0  0  0  0
  -27.8445  -22.0773   20.9020 C   0  0  2  0  0  0  0  0  0  0  0  0
  -19.9980  -18.4995   18.0701 C   0  0  0  0  0  0  0  0  0  0  0  0
  -24.1075  -36.6965   25.3502 C   0  0  0  0  0  0  0  0  0  0  0  0
  -26.7520  -30.6249   25.4676 C   0  0  0  0  0  0  0  0  0  0  0  0
  -25.8359  -32.5903   26.7191 C   0  0  0  0  0  0  0  0  0  0  0  0
  -27.8589  -32.8600   25.2847 C   0  0  0  0  0  0  0  0  0  0  0  0
  -22.8042  -35.9508   21.8543 C   0  0  0  0  0  0  0  0  0  0  0  0
  -18.4522  -26.7186   21.3723 C   0  0  0  0  0  0  0  0  0  0  0  0
  -17.8219  -25.5317   20.6562 C   0  0  0  0  0  0  0  0  0  0  0  0
  -19.3461  -27.5531   20.4631 C   0  0  0  0  0  0  0  0  0  1  0  0
  -25.5987  -32.5524   24.1946 C   0  0  1  0  0  0  0  0  0  0  0  0
  -24.1094  -36.0319   23.9824 C   0  0  2  0  0  0  0  0  0  0  0  0
  -26.4956  -32.1435   25.3970 C   0  0  0  0  0  0  0  0  0  0  0  0
  -28.9410  -19.9322   20.3753 N   0  0  0  0  0  0  0  0  0  0  0  0
  -28.8202  -21.2410   20.0954 N   0  0  0  0  0  0  0  0  0  0  0  0
  -25.3970  -31.2457   22.1028 N   0  0  0  0  0  0  0  0  0  0  0  0
  -25.7019  -22.1183   22.1178 N   0  0  0  0  0  0  0  0  0  0  0  0
  -18.7817  -22.2049   18.3451 N   0  0  0  0  0  0  0  0  0  0  0  0
  -29.6294  -22.9499   18.6687 N   0  0  0  0  0  0  0  0  0  0  0  0
  -31.9129  -19.2957   17.3166 N   0  0  0  0  0  0  0  0  0  0  0  0
  -23.9099  -21.8089   20.6161 N   0  0  0  0  0  0  0  0  0  0  0  0
  -18.8051  -24.6415   20.1038 N   0  0  0  0  0  0  0  0  0  0  0  0
  -27.1645  -28.6058   20.3130 N   0  0  0  0  0  0  0  0  0  0  0  0
  -25.3613  -33.9879   24.0870 N   0  0  0  0  0  0  0  0  0  0  0  0
  -22.9159  -36.5074   23.2272 N   0  3  0  0  0  0  0  0  0  0  0  0
  -19.0155  -23.2718   21.9643 O   0  0  0  0  0  0  0  0  0  0  0  0
  -31.6141  -21.5414   16.9616 O   0  0  0  0  0  0  0  0  0  0  0  0
  -26.3440  -28.9000   22.4723 O   0  0  0  0  0  0  0  0  0  0  0  0
  -27.2841  -32.5480   22.5256 O   0  0  0  0  0  0  0  0  0  0  0  0
  -23.0484  -33.8728   24.2059 O   0  0  0  0  0  0  0  0  0  0  0  0
  -23.6587  -23.1264   22.5089 O   0  0  0  0  0  0  0  0  0  0  0  0
  -31.4593  -14.1606   19.4287 O   0  0  0  0  0  0  0  0  0  0  0  0
  -19.8741  -28.6452   21.2147 O   0  0  0  0  0  0  0  0  0  1  0  0
  -27.5260  -10.3077   19.7245 F   0  0  0  0  0  0  0  0  0  0  0  0
  -31.1357  -12.3058   17.4044 F   0  0  0  0  0  0  0  0  0  0  0  0
  1  2  1  0  0  0  0
  1  5  2  0  0  0  0
  2  6  2  0  0  0  0
  3  8  2  0  0  0  0
  3 17  1  0  0  0  0
  4  9  1  0  0  0  0
  4 17  2  0  0  0  0
  5 21  1  0  0  0  0
  6 23  1  0  0  0  0
  7 10  2  0  0  0  0
  7 22  1  0  0  0  0
  8 27  1  0  0  0  0
  9 27  2  0  0  0  0
 10 28  1  0  0  0  0
 11 12  2  0  0  0  0
 11 29  1  0  0  0  0
 12 30  1  0  0  0  0
 13 18  1  0  0  0  0
 13 25  2  0  0  0  0
 14 19  2  0  0  0  0
 14 25  1  0  0  0  0
 15 24  1  0  0  0  0
 15 28  2  0  0  0  0
 16 30  2  0  0  0  0
 16 31  1  0  0  0  0
 17 32  1  0  0  0  0
 18 26  2  0  0  0  0
 18 35  1  0  0  0  0
 19 26  1  0  0  0  0
 19 37  1  0  0  0  0
 20 32  1  0  0  0  0
 20 33  2  0  0  0  0
 20 38  1  0  0  0  0
 21 23  2  0  0  0  0
 21 44  1  0  0  0  0
 22 24  2  0  0  0  0
 22 45  1  0  0  0  0
 23 53  1  0  0  0  0
 24 46  1  0  0  0  0
 25 75  1  0  0  0  0
 26 72  1  0  0  0  0
 27 86  1  0  0  0  0
 28 87  1  0  0  0  0
 29 31  2  0  0  0  0
 29 86  1  0  0  0  0
 30 88  1  0  0  0  0
 31 89  1  0  0  0  0
 32 68  2  0  0  0  0
 33 69  1  0  0  0  0
 33 73  1  0  0  0  0
 34 36  2  0  0  0  0
 35 39  2  0  0  0  0
 36 39  1  0  0  0  0
 37 76  1  0  0  0  0
 37 80  2  0  0  0  0
 38 74  1  0  0  0  0
 38 81  2  0  0  0  0
 39 56  1  0  0  0  0
 40 54  1  0  0  0  0
 40 77  1  0  0  0  0
 40 82  2  0  0  0  0
 41 65  1  0  0  0  0
 41 70  1  0  0  0  0
 41 83  2  0  0  0  0
 42 66  1  0  0  0  0
 42 78  1  0  0  0  0
 42 84  2  0  0  0  0
 43 71  1  0  0  0  0
 43 75  1  0  0  0  0
 43 85  2  0  0  0  0
 44 47  1  0  0  0  0
 45 54  1  0  0  0  0
 46 70  1  0  0  0  0
 47 49  1  0  0  0  0
 48 50  1  0  0  0  0
 48 51  1  0  0  0  0
 49 53  1  0  0  0  0
 50 55  1  0  0  0  0
 51 71  1  0  0  0  0
 52 55  1  0  0  0  0
 52 71  1  0  0  0  0
 53 77  1  0  0  0  0
 54 70  1  0  0  0  0
 55 69  1  0  0  0  0
 57 66  1  0  0  0  0
 58 67  1  0  0  0  0
 59 67  1  0  0  0  0
 60 67  1  0  0  0  0
 61 79  1  0  0  0  0
 62 63  1  0  0  0  0
 62 64  1  0  0  0  0
 63 76  1  0  0  0  0
 64 87  1  0  0  0  0
 65 67  1  0  0  0  0
 65 78  1  0  0  0  0
 66 79  1  0  0  0  0
 68 69  1  0  0  0  0
M  CHG  1  79   1
M  ISO  4  43 100  64 101  75 100  87 101
M  END
> <Batch ID>
0060

> <Smiles>
C=CC(C)=Cc1cc([100NH:0][100C:0](=O)N2CCCC(n3nc(-c4ccc(Oc5ccc(F)cc5F)cc4)c(C(N)=O)c3N)C2)cc(C(=O)NCC[101CH2:1][101O:1]c2ccc3c(c2)CN(C(=O)C(NC(=O)C(C)NC)C(C)(C)C)C(C(=O)NC2CCCc4ccccc42)C3)c1N

> <Shape>
0.300

> <Color>
0.083

> <Negative vol penalty>
0.000

$$$$

  -OEChem-04042323043D

 85 93  0     1  0  0  0  0  0999 V2000
  -19.6457  -27.8311   26.7201 C   0  0  0  0  0  0  0  0  0  0  0  0
  -20.8718  -27.3686   26.2530 C   0  0  0  0  0  0  0  0  0  0  0  0
  -22.8105  -12.0082   21.8729 C   0  0  0  0  0  0  0  0  0  0  0  0
  -22.8446  -14.4081   22.1495 C   0  0  0  0  0  0  0  0  0  0  0  0
  -18.6826  -28.2819   25.8184 C   0  0  0  0  0  0  0  0  0  0  0  0
  -21.1351  -27.3556   24.8837 C   0  0  0  0  0  0  0  0  0  0  0  0
  -26.5282  -28.3617   22.1619 C   0  0  0  0  0  0  0  0  0  0  0  0
  -32.4948  -19.0913   20.3987 C   0  0  0  0  0  0  0  0  0  0  0  0
  -31.9137  -17.8238   20.3629 C   0  0  0  0  0  0  0  0  0  0  0  0
  -21.9030  -11.8996   22.9265 C   0  0  0  0  0  0  0  0  0  0  0  0
  -21.9369  -14.2995   23.2031 C   0  0  0  0  0  0  0  0  0  0  0  0
  -27.4997  -27.4984   21.6573 C   0  0  0  0  0  0  0  0  0  0  0  0
  -18.6090  -13.8539   23.5858 C   0  0  0  0  0  0  0  0  0  0  0  0
  -17.5366  -14.7455   23.6098 C   0  0  0  0  0  0  0  0  0  0  0  0
  -29.7318  -18.8156   20.6680 C   0  0  0  0  0  0  0  0  0  0  0  0
  -26.5496  -27.7280   19.4519 C   0  0  0  0  0  0  0  0  0  0  0  0
  -18.2777  -15.5793   25.7529 C   0  0  0  0  0  0  0  0  0  0  0  0
  -23.2814  -13.2624   21.4844 C   0  0  0  0  0  0  0  0  0  0  0  0
  -30.3130  -20.0831   20.7038 C   0  0  0  0  0  0  0  0  0  0  0  0
  -23.9211  -13.5371   19.0302 C   0  0  0  0  0  0  0  0  0  0  0  0
  -18.9378  -28.2835   24.4380 C   0  0  0  0  0  0  0  0  0  0  0  0
  -25.5519  -28.9070   21.3159 C   0  0  0  0  0  0  0  0  0  0  0  0
  -20.1740  -27.8056   23.9626 C   0  0  0  0  0  0  0  0  0  0  0  0
  -25.5683  -28.6000   19.9478 C   0  0  0  0  0  0  0  0  0  0  0  0
  -31.6945  -20.2210   20.5692 C   0  0  0  0  0  0  0  0  0  0  0  0
  -30.5322  -17.6859   20.4976 C   0  0  0  0  0  0  0  0  0  0  0  0
  -21.4661  -13.0453   23.5916 C   0  0  0  0  0  0  0  0  0  0  0  0
  -27.5088  -27.1791   20.3026 C   0  0  0  0  0  0  0  0  0  0  0  0
  -19.5157  -13.8249   24.6453 C   0  0  0  0  0  0  0  0  0  0  0  0
  -17.3709  -15.6082   24.6933 C   0  0  0  0  0  0  0  0  0  0  0  0
  -19.3501  -14.6876   25.7288 C   0  0  0  0  0  0  0  0  0  0  0  0
  -24.2193  -13.3752   20.3965 C   0  0  0  0  0  0  0  0  0  0  0  0
  -25.1479  -13.5914   18.4151 C   0  0  0  0  0  0  0  0  0  0  0  0
  -29.4479  -21.2669   20.8851 C   0  0  0  0  0  0  0  0  0  0  0  0
  -22.6488  -13.6301   18.3757 C   0  0  0  0  0  0  0  0  0  0  0  0
  -22.3815  -28.7454   21.1525 C   0  0  0  0  0  0  0  0  0  0  0  0
  -22.7786  -30.9579   18.8138 C   0  0  0  0  0  0  0  0  0  0  0  0
  -28.6732  -23.4218   19.9193 C   0  0  0  0  0  0  0  0  0  0  0  0
  -24.8193  -32.3510   16.4597 C   0  0  0  0  0  0  0  0  0  0  0  0
  -30.5927  -15.1753   20.2992 C   0  0  0  0  0  0  0  0  0  0  0  0
  -17.8480  -28.7362   23.4988 C   0  0  0  0  0  0  0  0  0  0  0  0
  -24.5269  -29.8577   21.8710 C   0  0  0  0  0  0  0  0  0  0  0  0
  -24.5545  -29.1749   18.9938 C   0  0  0  0  0  0  0  0  0  0  0  0
  -18.3468  -29.0401   22.0884 C   0  0  0  0  0  0  0  0  0  0  0  0
  -29.6523  -12.0392   18.9000 C   0  0  0  0  0  0  0  0  0  0  0  0
  -19.2647  -27.9260   21.5952 C   0  0  0  0  0  0  0  0  0  0  0  0
  -28.1249  -12.0432   18.9951 C   0  0  0  0  0  0  0  0  0  0  0  0
  -30.2975  -12.7153   20.1085 C   0  0  0  0  0  0  0  0  0  0  0  0
  -28.2776  -14.0718   20.4946 C   0  0  0  0  0  0  0  0  0  0  0  0
  -20.5063  -27.7991   22.4862 C   0  0  1  0  0  0  0  0  0  0  0  0
  -23.2697  -29.9492   21.0118 C   0  0  1  0  0  0  0  0  0  0  0  0
  -27.5810  -13.4592   19.2686 C   0  0  2  0  0  0  0  0  0  0  0  0
  -32.3402  -21.5673   20.6033 C   0  0  0  0  0  0  0  0  0  0  0  0
  -24.8513  -34.1161   14.6762 C   0  0  0  0  0  0  0  0  0  0  0  0
  -21.1408  -29.1411   16.9899 C   0  0  0  0  0  0  0  0  0  0  0  0
  -21.9973  -30.4488   15.0343 C   0  0  0  0  0  0  0  0  0  0  0  0
  -20.6168  -31.5774   16.7788 C   0  0  0  0  0  0  0  0  0  0  0  0
  -26.9982  -33.8350   17.8047 C   0  0  0  0  0  0  0  0  0  0  0  0
  -28.9068  -24.2581   18.6817 C   0  0  0  0  0  0  0  0  0  0  0  0
  -28.0916  -25.5414   18.6797 C   0  0  0  0  0  0  0  0  0  1  0  0
  -22.9940  -30.9082   17.3205 C   0  0  1  0  0  0  0  0  0  0  0  0
  -25.1410  -33.7986   16.1350 C   0  0  2  0  0  0  0  0  0  0  0  0
  -21.7053  -30.5063   16.5489 C   0  0  0  0  0  0  0  0  0  0  0  0
  -25.5326  -13.3295   20.6357 N   0  0  0  0  0  0  0  0  0  0  0  0
  -26.0705  -13.4634   19.4114 N   0  0  0  0  0  0  0  0  0  0  0  0
  -23.5689  -30.0946   19.5857 N   0  0  0  0  0  0  0  0  0  0  0  0
  -29.7364  -14.0539   20.3035 N   0  0  0  0  0  0  0  0  0  0  0  0
  -25.5167  -13.7356   17.1245 N   0  0  0  0  0  0  0  0  0  0  0  0
  -21.4881  -13.5557   19.1578 N   0  0  0  0  0  0  0  0  0  0  0  0
  -29.9423  -16.3981   20.4611 N   0  0  0  0  0  0  0  0  0  0  0  0
  -29.4467  -22.2012   19.9243 N   0  0  0  0  0  0  0  0  0  0  0  0
  -21.4592  -28.8434   22.1769 N   0  0  0  0  0  0  0  0  0  0  0  0
  -23.5355  -32.2090   16.9426 N   0  0  0  0  0  0  0  0  0  0  0  0
  -28.7186  -21.3375   21.9982 N   0  3  0  0  0  0  0  0  0  0  0  0
  -26.5798  -34.0817   16.4008 N   0  3  0  0  0  0  0  0  0  0  0  0
  -22.5441  -13.7584   17.1323 O   0  0  0  0  0  0  0  0  0  0  0  0
  -22.5216  -27.7985   20.3875 O   0  0  0  0  0  0  0  0  0  0  0  0
  -21.9450  -31.7393   19.2789 O   0  0  0  0  0  0  0  0  0  0  0  0
  -27.9224  -23.7078   20.8406 O   0  0  0  0  0  0  0  0  0  0  0  0
  -25.6248  -31.4371   16.2976 O   0  0  0  0  0  0  0  0  0  0  0  0
  -31.8101  -15.0615   20.1348 O   0  0  0  0  0  0  0  0  0  0  0  0
  -20.5804  -12.9397   24.6196 O   0  0  0  0  0  0  0  0  0  0  0  0
  -28.4555  -26.3362   19.8076 O   0  0  0  0  0  0  0  0  0  1  0  0
  -16.3419  -16.4654   24.7155 F   0  0  0  0  0  0  0  0  0  0  0  0
  -20.2187  -14.6652   26.7491 F   0  0  0  0  0  0  0  0  0  0  0  0
  1  2  1  0  0  0  0
  1  5  2  0  0  0  0
  2  6  2  0  0  0  0
  3 10  2  0  0  0  0
  3 18  1  0  0  0  0
  4 11  1  0  0  0  0
  4 18  2  0  0  0  0
  5 21  1  0  0  0  0
  6 23  1  0  0  0  0
  7 12  2  0  0  0  0
  7 22  1  0  0  0  0
  8  9  2  0  0  0  0
  8 25  1  0  0  0  0
  9 26  1  0  0  0  0
 10 27  1  0  0  0  0
 11 27  2  0  0  0  0
 12 28  1  0  0  0  0
 13 14  2  0  0  0  0
 13 29  1  0  0  0  0
 14 30  1  0  0  0  0
 15 19  1  0  0  0  0
 15 26  2  0  0  0  0
 16 24  1  0  0  0  0
 16 28  2  0  0  0  0
 17 30  2  0  0  0  0
 17 31  1  0  0  0  0
 18 32  1  0  0  0  0
 19 25  2  0  0  0  0
 19 34  1  0  0  0  0
 20 32  1  0  0  0  0
 20 33  2  0  0  0  0
 20 35  1  0  0  0  0
 21 23  2  0  0  0  0
 21 41  1  0  0  0  0
 22 24  2  0  0  0  0
 22 42  1  0  0  0  0
 23 50  1  0  0  0  0
 24 43  1  0  0  0  0
 25 53  1  0  0  0  0
 26 70  1  0  0  0  0
 27 82  1  0  0  0  0
 28 83  1  0  0  0  0
 29 31  2  0  0  0  0
 29 82  1  0  0  0  0
 30 84  1  0  0  0  0
 31 85  1  0  0  0  0
 32 64  2  0  0  0  0
 33 65  1  0  0  0  0
 33 68  1  0  0  0  0
 34 71  1  0  0  0  0
 34 74  2  0  0  0  0
 35 69  1  0  0  0  0
 35 76  2  0  0  0  0
 36 51  1  0  0  0  0
 36 72  1  0  0  0  0
 36 77  2  0  0  0  0
 37 61  1  0  0  0  0
 37 66  1  0  0  0  0
 37 78  2  0  0  0  0
 38 59  1  0  0  0  0
 38 71  1  0  0  0  0
 38 79  2  0  0  0  0
 39 62  1  0  0  0  0
 39 73  1  0  0  0  0
 39 80  2  0  0  0  0
 40 67  1  0  0  0  0
 40 70  1  0  0  0  0
 40 81  2  0  0  0  0
 41 44  1  0  0  0  0
 42 51  1  0  0  0  0
 43 66  1  0  0  0  0
 44 46  1  0  0  0  0
 45 47  1  0  0  0  0
 45 48  1  0  0  0  0
 46 50  1  0  0  0  0
 47 52  1  0  0  0  0
 48 67  1  0  0  0  0
 49 52  1  0  0  0  0
 49 67  1  0  0  0  0
 50 72  1  0  0  0  0
 51 66  1  0  0  0  0
 52 65  1  0  0  0  0
 54 62  1  0  0  0  0
 55 63  1  0  0  0  0
 56 63  1  0  0  0  0
 57 63  1  0  0  0  0
 58 75  1  0  0  0  0
 59 60  1  0  0  0  0
 60 83  1  0  0  0  0
 61 63  1  0  0  0  0
 61 73  1  0  0  0  0
 62 75  1  0  0  0  0
 64 65  1  0  0  0  0
M  CHG  2  74   1  75   1
M  ISO  4  40 100  60 101  70 100  83 101
M  END
> <Batch ID>
0060

> <Smiles>
CNC(C)C(=O)NC(C(=O)N1Cc2cc([101O:1][101CH2:1]CC(=O)NC(=N)c3cc([100NH:0][100C:0](=O)N4CCCC(n5nc(-c6ccc(Oc7ccc(F)cc7F)cc6)c(C(N)=O)c5N)C4)ccc3C)ccc2CC1C(=O)NC1CCCc2ccccc21)C(C)(C)C

> <Shape>
0.242

> <Color>
0.097

> <Negative vol penalty>
0.000

$$$$

  -OEChem-04042323043D

 82 90  0     1  0  0  0  0  0999 V2000
  -24.7388  -25.0154   31.7486 C   0  0  0  0  0  0  0  0  0  0  0  0
  -25.2755  -24.4163   30.6136 C   0  0  0  0  0  0  0  0  0  0  0  0
  -32.8728  -17.1724   23.3671 C   0  0  0  0  0  0  0  0  0  0  0  0
  -22.9135   -9.9719   20.0302 C   0  0  0  0  0  0  0  0  0  0  0  0
  -23.6729   -9.9958   22.3237 C   0  0  0  0  0  0  0  0  0  0  0  0
  -23.5960  -25.8070   31.6434 C   0  0  0  0  0  0  0  0  0  0  0  0
  -24.6690  -24.6075   29.3726 C   0  0  0  0  0  0  0  0  0  0  0  0
  -28.0167  -25.6108   25.7078 C   0  0  0  0  0  0  0  0  0  0  0  0
  -32.2403  -16.2980   22.4834 C   0  0  0  0  0  0  0  0  0  0  0  0
  -22.1106   -8.8657   20.3076 C   0  0  0  0  0  0  0  0  0  0  0  0
  -22.8699   -8.8895   22.6010 C   0  0  0  0  0  0  0  0  0  0  0  0
  -28.7303  -24.5332   25.1848 C   0  0  0  0  0  0  0  0  0  0  0  0
  -22.9871   -5.5441   22.1260 C   0  0  0  0  0  0  0  0  0  0  0  0
  -23.5483   -4.5061   22.8697 C   0  0  0  0  0  0  0  0  0  0  0  0
  -32.1205  -18.0969   24.0917 C   0  0  0  0  0  0  0  0  0  0  0  0
  -27.2353  -24.4694   23.2927 C   0  0  0  0  0  0  0  0  0  0  0  0
  -30.1031  -17.2729   23.0486 C   0  0  0  0  0  0  0  0  0  0  0  0
  -21.8583   -4.8102   24.5693 C   0  0  0  0  0  0  0  0  0  0  0  0
  -23.6948  -10.5370   21.0383 C   0  0  0  0  0  0  0  0  0  0  0  0
  -24.1679  -13.0371   20.8565 C   0  0  0  0  0  0  0  0  0  0  0  0
  -22.9806  -26.0159   30.3991 C   0  0  0  0  0  0  0  0  0  0  0  0
  -26.8987  -26.1196   25.0314 C   0  0  0  0  0  0  0  0  0  0  0  0
  -23.5160  -25.4016   29.2509 C   0  0  0  0  0  0  0  0  0  0  0  0
  -26.5109  -25.5551   23.8079 C   0  0  0  0  0  0  0  0  0  0  0  0
  -30.8554  -16.3483   22.3240 C   0  0  0  0  0  0  0  0  0  0  0  0
  -22.0887   -8.3245   21.5930 C   0  0  0  0  0  0  0  0  0  0  0  0
  -28.3379  -23.9605   23.9785 C   0  0  0  0  0  0  0  0  0  0  0  0
  -21.8615   -6.2153   22.6039 C   0  0  0  0  0  0  0  0  0  0  0  0
  -22.9839   -4.1391   24.0913 C   0  0  0  0  0  0  0  0  0  0  0  0
  -21.2971   -5.8483   23.8256 C   0  0  0  0  0  0  0  0  0  0  0  0
  -30.7357  -18.1472   23.9324 C   0  0  0  0  0  0  0  0  0  0  0  0
  -24.5249  -11.6794   20.7522 C   0  0  0  0  0  0  0  0  0  0  0  0
  -25.2976  -13.7195   20.4763 C   0  0  0  0  0  0  0  0  0  0  0  0
  -29.1132  -21.7662   24.2125 C   0  0  0  0  0  0  0  0  0  1  0  0
  -29.7688  -20.6812   23.8009 C   0  0  0  0  0  0  0  0  0  0  0  0
  -22.9261  -13.6287   21.2611 C   0  0  0  0  0  0  0  0  0  0  0  0
  -23.8044  -26.3965   25.7040 C   0  0  0  0  0  0  0  0  0  0  0  0
  -23.7410  -28.0329   22.9039 C   0  0  0  0  0  0  0  0  0  0  0  0
  -25.1730  -28.6302   19.8643 C   0  0  0  0  0  0  0  0  0  0  0  0
  -30.8109  -14.4825   20.6319 C   0  0  0  0  0  0  0  0  0  0  0  0
  -21.7196  -26.8413   30.3423 C   0  0  0  0  0  0  0  0  0  0  0  0
  -26.1557  -27.2995   25.5955 C   0  0  0  0  0  0  0  0  0  0  0  0
  -25.3300  -26.0773   23.0325 C   0  0  0  0  0  0  0  0  0  0  0  0
  -21.3541  -27.2989   28.9326 C   0  0  0  0  0  0  0  0  0  0  0  0
  -29.5720  -12.0725   18.3224 C   0  0  0  0  0  0  0  0  0  0  0  0
  -21.4645  -26.1381   27.9491 C   0  0  0  0  0  0  0  0  0  0  0  0
  -28.1191  -11.8671   18.7572 C   0  0  0  0  0  0  0  0  0  0  0  0
  -30.4978  -12.2828   19.5191 C   0  0  0  0  0  0  0  0  0  0  0  0
  -28.6314  -13.1396   20.8798 C   0  0  0  0  0  0  0  0  0  0  0  0
  -22.9010  -25.6055   27.8833 C   0  0  1  0  0  0  0  0  0  0  0  0
  -24.7243  -27.4068   25.0790 C   0  0  1  0  0  0  0  0  0  0  0  0
  -27.6507  -12.9883   19.7054 C   0  0  2  0  0  0  0  0  0  0  0  0
  -24.8724  -29.9933   17.7788 C   0  0  0  0  0  0  0  0  0  0  0  0
  -21.5083  -26.1583   22.0034 C   0  0  0  0  0  0  0  0  0  0  0  0
  -21.9086  -26.9235   19.6534 C   0  0  0  0  0  0  0  0  0  0  0  0
  -21.1681  -28.5579   21.3863 C   0  0  0  0  0  0  0  0  0  0  0  0
  -27.7621  -30.0099   20.2538 C   0  0  0  0  0  0  0  0  0  0  0  0
  -23.5323  -27.6645   21.4549 C   0  0  1  0  0  0  0  0  0  0  0  0
  -25.5221  -29.9246   19.1522 C   0  0  2  0  0  0  0  0  0  0  0  0
  -22.0505  -27.3147   21.1398 C   0  0  0  0  0  0  0  0  0  0  0  0
  -25.7830  -11.5075   20.3380 N   0  0  0  0  0  0  0  0  0  0  0  0
  -26.2264  -12.7661   20.1786 N   0  0  0  0  0  0  0  0  0  0  0  0
  -24.6320  -27.2285   23.6285 N   0  0  0  0  0  0  0  0  0  0  0  0
  -29.9935  -13.3627   20.3702 N   0  0  0  0  0  0  0  0  0  0  0  0
  -25.5772  -15.0359   20.3708 N   0  0  0  0  0  0  0  0  0  0  0  0
  -21.8681  -12.7821   21.6194 N   0  0  0  0  0  0  0  0  0  0  0  0
  -30.2127  -15.4600   21.4265 N   0  0  0  0  0  0  0  0  0  0  0  0
  -23.7284  -26.4811   27.0812 N   0  0  0  0  0  0  0  0  0  0  0  0
  -24.0640  -28.7741   20.6710 N   0  0  0  0  0  0  0  0  0  0  0  0
  -26.9979  -30.0394   18.9802 N   0  3  0  0  0  0  0  0  0  0  0  0
  -22.7543  -14.8710   21.2878 O   0  0  0  0  0  0  0  0  0  0  0  0
  -23.2066  -25.6002   24.9897 O   0  0  0  0  0  0  0  0  0  0  0  0
  -23.1412  -29.0030   23.3737 O   0  0  0  0  0  0  0  0  0  0  0  0
  -25.8173  -27.5940   19.7166 O   0  0  0  0  0  0  0  0  0  0  0  0
  -31.9472  -14.5806   20.1616 O   0  0  0  0  0  0  0  0  0  0  0  0
  -28.4331  -18.7896   24.9700 O   0  0  0  0  0  0  0  0  0  0  0  0
  -30.5413  -19.6271   26.0534 O   0  0  0  0  0  0  0  0  0  0  0  0
  -21.3050   -7.2451   21.8640 O   0  0  0  0  0  0  0  0  0  0  0  0
  -29.0322  -22.9083   23.4662 O   0  0  0  0  0  0  0  0  0  1  0  0
  -23.5220   -3.1413   24.8047 F   0  0  0  0  0  0  0  0  0  0  0  0
  -20.2151   -6.4886   24.2894 F   0  0  0  0  0  0  0  0  0  0  0  0
  -29.7809  -19.3221   24.8520 S   0  0  0  0  0  0  0  0  0  0  0  0
  1  2  1  0  0  0  0
  1  6  2  0  0  0  0
  2  7  2  0  0  0  0
  3  9  1  0  0  0  0
  3 15  2  0  0  0  0
  4 10  2  0  0  0  0
  4 19  1  0  0  0  0
  5 11  1  0  0  0  0
  5 19  2  0  0  0  0
  6 21  1  0  0  0  0
  7 23  1  0  0  0  0
  8 12  2  0  0  0  0
  8 22  1  0  0  0  0
  9 25  2  0  0  0  0
 10 26  1  0  0  0  0
 11 26  2  0  0  0  0
 12 27  1  0  0  0  0
 13 14  2  0  0  0  0
 13 28  1  0  0  0  0
 14 29  1  0  0  0  0
 15 31  1  0  0  0  0
 16 24  1  0  0  0  0
 16 27  2  0  0  0  0
 17 25  1  0  0  0  0
 17 31  2  0  0  0  0
 18 29  2  0  0  0  0
 18 30  1  0  0  0  0
 19 32  1  0  0  0  0
 20 32  1  0  0  0  0
 20 33  2  0  0  0  0
 20 36  1  0  0  0  0
 21 23  2  0  0  0  0
 21 41  1  0  0  0  0
 22 24  2  0  0  0  0
 22 42  1  0  0  0  0
 23 50  1  0  0  0  0
 24 43  1  0  0  0  0
 25 67  1  0  0  0  0
 26 78  1  0  0  0  0
 27 79  1  0  0  0  0
 28 30  2  0  0  0  0
 28 78  1  0  0  0  0
 29 80  1  0  0  0  0
 30 81  1  0  0  0  0
 31 82  1  0  0  0  0
 32 61  2  0  0  0  0
 33 62  1  0  0  0  0
 33 65  1  0  0  0  0
 34 35  2  0  0  0  0
 34 79  1  0  0  0  0
 35 82  1  0  0  0  0
 36 66  1  0  0  0  0
 36 71  2  0  0  0  0
 37 51  1  0  0  0  0
 37 68  1  0  0  0  0
 37 72  2  0  0  0  0
 38 58  1  0  0  0  0
 38 63  1  0  0  0  0
 38 73  2  0  0  0  0
 39 59  1  0  0  0  0
 39 69  1  0  0  0  0
 39 74  2  0  0  0  0
 40 64  1  0  0  0  0
 40 67  1  0  0  0  0
 40 75  2  0  0  0  0
 41 44  1  0  0  0  0
 42 51  1  0  0  0  0
 43 63  1  0  0  0  0
 44 46  1  0  0  0  0
 45 47  1  0  0  0  0
 45 48  1  0  0  0  0
 46 50  1  0  0  0  0
 47 52  1  0  0  0  0
 48 64  1  0  0  0  0
 49 52  1  0  0  0  0
 49 64  1  0  0  0  0
 50 68  1  0  0  0  0
 51 63  1  0  0  0  0
 52 62  1  0  0  0  0
 53 59  1  0  0  0  0
 54 60  1  0  0  0  0
 55 60  1  0  0  0  0
 56 60  1  0  0  0  0
 57 70  1  0  0  0  0
 58 60  1  0  0  0  0
 58 69  1  0  0  0  0
 59 70  1  0  0  0  0
 61 62  1  0  0  0  0
 76 82  2  0  0  0  0
 77 82  2  0  0  0  0
M  CHG  1  70   1
M  ISO  4  34 101  40 100  67 100  79 101
M  END
> <Batch ID>
0060

> <Smiles>
CNC(C)C(=O)NC(C(=O)N1Cc2cc([101O:1][101CH:1]=CS(=O)(=O)c3cccc([100NH:0][100C:0](=O)N4CCCC(n5nc(-c6ccc(Oc7ccc(F)cc7F)cc6)c(C(N)=O)c5N)C4)c3)ccc2CC1C(=O)NC1CCCc2ccccc21)C(C)(C)C

> <Shape>
0.231

> <Color>
0.217

> <Negative vol penalty>
0.000

$$$$

  -OEChem-04042323043D

 84 92  0     1  0  0  0  0  0999 V2000
  -23.9383   -8.0469   22.0156 C   0  0  0  0  0  0  0  0  0  0  0  0
  -24.6214   -9.0760   21.3755 C   0  0  0  0  0  0  0  0  0  0  0  0
  -21.9880  -28.3362   21.3524 C   0  0  0  0  0  0  0  0  0  0  0  0
  -22.9613  -27.3711   23.3420 C   0  0  0  0  0  0  0  0  0  0  0  0
  -22.5809   -8.1854   22.3022 C   0  0  0  0  0  0  0  0  0  0  0  0
  -23.9471  -10.2439   21.0206 C   0  0  0  0  0  0  0  0  0  0  0  0
  -26.5653  -14.4239   22.1682 C   0  0  0  0  0  0  0  0  0  0  0  0
  -20.7186  -28.2264   21.9201 C   0  0  0  0  0  0  0  0  0  0  0  0
  -21.6919  -27.2613   23.9097 C   0  0  0  0  0  0  0  0  0  0  0  0
  -27.6094  -14.7758   21.3140 C   0  0  0  0  0  0  0  0  0  0  0  0
  -18.8514  -29.8991   24.1891 C   0  0  0  0  0  0  0  0  0  0  0  0
  -17.9958  -30.9954   24.0808 C   0  0  0  0  0  0  0  0  0  0  0  0
  -26.1835  -16.4067   20.2527 C   0  0  0  0  0  0  0  0  0  0  0  0
  -29.5494  -21.0029   20.9280 C   0  0  0  0  0  0  0  0  0  0  0  0
  -29.3072  -22.2975   22.9533 C   0  0  0  0  0  0  0  0  0  0  0  0
  -16.4011  -29.6323   22.8825 C   0  0  0  0  0  0  0  0  0  0  0  0
  -23.1093  -27.9085   22.0633 C   0  0  0  0  0  0  0  0  0  0  0  0
  -25.3045  -29.1127   21.5746 C   0  0  0  0  0  0  0  0  0  0  0  0
  -21.8918   -9.3594   21.9593 C   0  0  0  0  0  0  0  0  0  0  0  0
  -25.3170  -15.0542   22.0637 C   0  0  0  0  0  0  0  0  0  0  0  0
  -22.5788  -10.3977   21.3017 C   0  0  0  0  0  0  0  0  0  0  0  0
  -25.1260  -16.0628   21.1085 C   0  0  0  0  0  0  0  0  0  0  0  0
  -30.0295  -19.9950   23.0706 C   0  0  0  0  0  0  0  0  0  0  0  0
  -29.2279  -22.2019   21.5640 C   0  0  0  0  0  0  0  0  0  0  0  0
  -29.9501  -19.8994   21.6813 C   0  0  0  0  0  0  0  0  0  0  0  0
  -20.5706  -27.6889   23.1987 C   0  0  0  0  0  0  0  0  0  0  0  0
  -27.4178  -15.7653   20.3542 C   0  0  0  0  0  0  0  0  0  0  0  0
  -18.4819  -28.6694   23.6441 C   0  0  0  0  0  0  0  0  0  0  0  0
  -16.7706  -30.8620   23.4275 C   0  0  0  0  0  0  0  0  0  0  0  0
  -29.7080  -21.1941   23.7066 C   0  0  0  0  0  0  0  0  0  0  0  0
  -17.2567  -28.5360   22.9908 C   0  0  0  0  0  0  0  0  0  0  0  0
  -24.4208  -28.0212   21.4772 C   0  0  0  0  0  0  0  0  0  0  0  0
  -26.4062  -28.7281   20.8501 C   0  0  0  0  0  0  0  0  0  0  0  0
  -25.1439  -30.3624   22.2588 C   0  0  0  0  0  0  0  0  0  0  0  0
  -22.3634  -14.0850   21.3999 C   0  0  0  0  0  0  0  0  0  0  0  0
  -21.6082  -17.1510   22.1427 C   0  0  0  0  0  0  0  0  0  0  0  0
  -30.2419  -18.4410   19.6485 C   0  0  0  0  0  0  0  0  0  0  0  0
  -22.6181  -20.3998   22.4118 C   0  0  0  0  0  0  0  0  0  0  0  0
  -28.6891  -23.3965   19.4125 C   0  0  0  0  0  0  0  0  0  0  0  0
  -20.4138   -9.4440   22.2472 C   0  0  0  0  0  0  0  0  0  0  0  0
  -24.2090  -14.6819   23.0104 C   0  0  0  0  0  0  0  0  0  0  0  0
  -23.8111  -16.7840   20.9689 C   0  0  0  0  0  0  0  0  0  0  0  0
  -19.8593  -10.8644   22.1741 C   0  0  0  0  0  0  0  0  0  0  0  0
  -27.6791  -25.9589   17.1561 C   0  0  0  0  0  0  0  0  0  0  0  0
  -20.3593  -11.5686   20.9168 C   0  0  0  0  0  0  0  0  0  0  0  0
  -26.8143  -26.8811   18.0185 C   0  0  0  0  0  0  0  0  0  0  0  0
  -27.4898  -24.4900   17.5308 C   0  0  0  0  0  0  0  0  0  0  0  0
  -26.8104  -25.1059   19.8173 C   0  0  0  0  0  0  0  0  0  0  0  0
  -21.8880  -11.6897   20.9231 C   0  0  1  0  0  0  0  0  0  0  0  0
  -22.8234  -15.0291   22.4745 C   0  0  1  0  0  0  0  0  0  0  0  0
  -27.0156  -26.6004   19.5206 C   0  0  2  0  0  0  0  0  0  0  0  0
  -30.4575  -18.8275   23.8996 C   0  0  0  0  0  0  0  0  0  0  0  0
  -21.7670  -22.6844   23.0064 C   0  0  0  0  0  0  0  0  0  0  0  0
  -20.1994  -17.3265   19.4419 C   0  0  0  0  0  0  0  0  0  0  0  0
  -20.2117  -19.8191   19.6758 C   0  0  0  0  0  0  0  0  0  0  0  0
  -18.9758  -18.4190   21.3296 C   0  0  0  0  0  0  0  0  0  0  0  0
  -24.5243  -20.6513   24.6617 C   0  0  0  0  0  0  0  0  0  0  0  0
  -30.6638  -17.0049   19.3595 C   0  0  0  0  0  0  0  0  0  0  0  0
  -29.7635  -15.9729   20.0216 C   0  0  0  0  0  0  0  0  0  1  0  0
  -21.5037  -18.4436   21.3698 C   0  0  1  0  0  0  0  0  0  0  0  0
  -22.4402  -21.4214   23.5205 C   0  0  2  0  0  0  0  0  0  0  0  0
  -20.2470  -18.4873   20.4554 C   0  0  0  0  0  0  0  0  0  0  0  0
  -24.9180  -27.0185   20.7482 N   0  0  0  0  0  0  0  0  0  0  0  0
  -26.1262  -27.4785   20.3808 N   0  0  0  0  0  0  0  0  0  0  0  0
  -22.7566  -16.3800   21.9134 N   0  0  0  0  0  0  0  0  0  0  0  0
  -27.7003  -24.2992   18.9675 N   0  0  0  0  0  0  0  0  0  0  0  0
  -27.5774  -29.3404   20.5750 N   0  0  0  0  0  0  0  0  0  0  0  0
  -23.9497  -30.5944   22.9547 N   0  0  0  0  0  0  0  0  0  0  0  0
  -30.2719  -18.6915   21.0178 N   0  0  0  0  0  0  0  0  0  0  0  0
  -28.8207  -23.3228   20.7988 N   0  0  0  0  0  0  0  0  0  0  0  0
  -22.3062  -12.7633   21.7989 N   0  0  0  0  0  0  0  0  0  0  0  0
  -21.5614  -19.5157   22.3577 N   0  0  0  0  0  0  0  0  0  0  0  0
  -23.7625  -21.7951   24.0975 N   0  3  0  0  0  0  0  0  0  0  0  0
  -26.0264  -31.2536   22.2396 O   0  0  0  0  0  0  0  0  0  0  0  0
  -22.0797  -14.5235   20.2913 O   0  0  0  0  0  0  0  0  0  0  0  0
  -20.7077  -16.8405   22.9265 O   0  0  0  0  0  0  0  0  0  0  0  0
  -29.9295  -19.2219   18.7558 O   0  0  0  0  0  0  0  0  0  0  0  0
  -23.5948  -20.3896   21.6658 O   0  0  0  0  0  0  0  0  0  0  0  0
  -29.3878  -22.7576   18.6215 O   0  0  0  0  0  0  0  0  0  0  0  0
  -19.3321  -27.5818   23.7531 O   0  0  0  0  0  0  0  0  0  0  0  0
  -28.4351  -16.1102   19.5187 O   0  0  0  0  0  0  0  0  0  1  0  0
  -15.9484  -31.9144   23.3250 F   0  0  0  0  0  0  0  0  0  0  0  0
  -29.7825  -21.2969   25.0411 F   0  0  0  0  0  0  0  0  0  0  0  0
  -16.8957  -27.3569   22.4663 F   0  0  0  0  0  0  0  0  0  0  0  0
  1  2  1  0  0  0  0
  1  5  2  0  0  0  0
  2  6  2  0  0  0  0
  3  8  2  0  0  0  0
  3 17  1  0  0  0  0
  4  9  1  0  0  0  0
  4 17  2  0  0  0  0
  5 19  1  0  0  0  0
  6 21  1  0  0  0  0
  7 10  2  0  0  0  0
  7 20  1  0  0  0  0
  8 26  1  0  0  0  0
  9 26  2  0  0  0  0
 10 27  1  0  0  0  0
 11 12  2  0  0  0  0
 11 28  1  0  0  0  0
 12 29  1  0  0  0  0
 13 22  1  0  0  0  0
 13 27  2  0  0  0  0
 14 24  2  0  0  0  0
 14 25  1  0  0  0  0
 15 24  1  0  0  0  0
 15 30  2  0  0  0  0
 16 29  2  0  0  0  0
 16 31  1  0  0  0  0
 17 32  1  0  0  0  0
 18 32  1  0  0  0  0
 18 33  2  0  0  0  0
 18 34  1  0  0  0  0
 19 21  2  0  0  0  0
 19 40  1  0  0  0  0
 20 22  2  0  0  0  0
 20 41  1  0  0  0  0
 21 49  1  0  0  0  0
 22 42  1  0  0  0  0
 23 25  2  0  0  0  0
 23 30  1  0  0  0  0
 23 52  1  0  0  0  0
 24 70  1  0  0  0  0
 25 69  1  0  0  0  0
 26 80  1  0  0  0  0
 27 81  1  0  0  0  0
 28 31  2  0  0  0  0
 28 80  1  0  0  0  0
 29 82  1  0  0  0  0
 30 83  1  0  0  0  0
 31 84  1  0  0  0  0
 32 63  2  0  0  0  0
 33 64  1  0  0  0  0
 33 67  1  0  0  0  0
 34 68  1  0  0  0  0
 34 74  2  0  0  0  0
 35 50  1  0  0  0  0
 35 71  1  0  0  0  0
 35 75  2  0  0  0  0
 36 60  1  0  0  0  0
 36 65  1  0  0  0  0
 36 76  2  0  0  0  0
 37 58  1  0  0  0  0
 37 69  1  0  0  0  0
 37 77  2  0  0  0  0
 38 61  1  0  0  0  0
 38 72  1  0  0  0  0
 38 78  2  0  0  0  0
 39 66  1  0  0  0  0
 39 70  1  0  0  0  0
 39 79  2  0  0  0  0
 40 43  1  0  0  0  0
 41 50  1  0  0  0  0
 42 65  1  0  0  0  0
 43 45  1  0  0  0  0
 44 46  1  0  0  0  0
 44 47  1  0  0  0  0
 45 49  1  0  0  0  0
 46 51  1  0  0  0  0
 47 66  1  0  0  0  0
 48 51  1  0  0  0  0
 48 66  1  0  0  0  0
 49 71  1  0  0  0  0
 50 65  1  0  0  0  0
 51 64  1  0  0  0  0
 53 61  1  0  0  0  0
 54 62  1  0  0  0  0
 55 62  1  0  0  0  0
 56 62  1  0  0  0  0
 57 73  1  0  0  0  0
 58 59  1  0  0  0  0
 59 81  1  0  0  0  0
 60 62  1  0  0  0  0
 60 72  1  0  0  0  0
 61 73  1  0  0  0  0
 63 64  1  0  0  0  0
M  CHG  1  73   1
M  ISO  4  39 100  59 101  70 100  81 101
M  END
> <Batch ID>
0060

> <Smiles>
CNC(C)C(=O)NC(C(=O)N1Cc2cc([101O:1][101CH2:1]CC(=O)Nc3cc([100NH:0][100C:0](=O)N4CCCC(n5nc(-c6ccc(Oc7ccc(F)cc7F)cc6)c(C(N)=O)c5N)C4)cc(F)c3C)ccc2CC1C(=O)NC1CCCc2ccccc21)C(C)(C)C

> <Shape>
0.247

> <Color>
0.087

> <Negative vol penalty>
0.000

$$$$

  -OEChem-04042323043D

 86 94  0     1  0  0  0  0  0999 V2000
  -34.6850  -32.0558   21.8354 C   0  0  0  0  0  0  0  0  0  0  0  0
  -34.3156  -30.8760   22.4732 C   0  0  0  0  0  0  0  0  0  0  0  0
  -23.0899   -9.8423   19.9233 C   0  0  0  0  0  0  0  0  0  0  0  0
  -23.8408   -9.8386   22.2197 C   0  0  0  0  0  0  0  0  0  0  0  0
  -30.3725  -18.3608   24.1231 C   0  0  0  0  0  0  0  0  0  0  0  0
  -33.9308  -32.5337   20.7645 C   0  0  0  0  0  0  0  0  0  0  0  0
  -33.1910  -30.1737   22.0412 C   0  0  0  0  0  0  0  0  0  0  0  0
  -34.0245  -25.1902   21.7017 C   0  0  0  0  0  0  0  0  0  0  0  0
  -29.7987  -17.4771   23.2090 C   0  0  0  0  0  0  0  0  0  0  0  0
  -22.3574   -8.6794   20.1609 C   0  0  0  0  0  0  0  0  0  0  0  0
  -23.1082   -8.6757   22.4573 C   0  0  0  0  0  0  0  0  0  0  0  0
  -34.0147  -24.4607   22.8897 C   0  0  0  0  0  0  0  0  0  0  0  0
  -20.0010   -5.9130   20.2576 C   0  0  0  0  0  0  0  0  0  0  0  0
  -18.6978   -5.8551   19.7637 C   0  0  0  0  0  0  0  0  0  0  0  0
  -31.7602  -23.7411   22.4222 C   0  0  0  0  0  0  0  0  0  0  0  0
  -31.9947  -16.6581   22.6224 C   0  0  0  0  0  0  0  0  0  0  0  0
  -18.1069   -7.7811   21.0974 C   0  0  0  0  0  0  0  0  0  0  0  0
  -23.8317  -10.4219   20.9527 C   0  0  0  0  0  0  0  0  0  0  0  0
  -31.7573  -18.3932   24.2869 C   0  0  0  0  0  0  0  0  0  0  0  0
  -24.1471  -12.9515   20.8545 C   0  0  0  0  0  0  0  0  0  0  0  0
  -32.8020  -31.8318   20.3129 C   0  0  0  0  0  0  0  0  0  0  0  0
  -32.8964  -25.2095   20.8690 C   0  0  0  0  0  0  0  0  0  0  0  0
  -32.4202  -30.6433   20.9641 C   0  0  0  0  0  0  0  0  0  0  0  0
  -31.7591  -24.4696   21.2229 C   0  0  0  0  0  0  0  0  0  0  0  0
  -30.6099  -16.6258   22.4587 C   0  0  0  0  0  0  0  0  0  0  0  0
  -22.3665   -8.0961   21.4279 C   0  0  0  0  0  0  0  0  0  0  0  0
  -32.8814  -23.7383   23.2516 C   0  0  0  0  0  0  0  0  0  0  0  0
  -20.3571   -6.9048   21.1715 C   0  0  0  0  0  0  0  0  0  0  0  0
  -32.5685  -17.5418   23.5365 C   0  0  0  0  0  0  0  0  0  0  0  0
  -17.7507   -6.7892   20.1836 C   0  0  0  0  0  0  0  0  0  0  0  0
  -19.4101   -7.8389   21.5913 C   0  0  0  0  0  0  0  0  0  0  0  0
  -24.5891  -11.6230   20.7076 C   0  0  0  0  0  0  0  0  0  0  0  0
  -25.2327  -13.7154   20.5016 C   0  0  0  0  0  0  0  0  0  0  0  0
  -32.3487  -19.3346   25.2587 C   0  0  0  0  0  0  0  0  0  0  0  0
  -22.8696  -13.4504   21.2725 C   0  0  0  0  0  0  0  0  0  0  0  0
  -30.9117  -27.4658   19.8325 C   0  0  0  0  0  0  0  0  0  0  0  0
  -29.7109  -25.0407   18.0438 C   0  0  0  0  0  0  0  0  0  0  0  0
  -29.2842  -21.6798   17.6327 C   0  0  0  0  0  0  0  0  0  0  0  0
  -30.6867  -14.8173   20.7066 C   0  0  0  0  0  0  0  0  0  0  0  0
  -31.9908  -32.4125   19.1818 C   0  0  0  0  0  0  0  0  0  0  0  0
  -32.9324  -25.9799   19.5776 C   0  0  0  0  0  0  0  0  0  0  0  0
  -30.5294  -24.4411   20.3537 C   0  0  0  0  0  0  0  0  0  0  0  0
  -31.0296  -31.4118   18.5453 C   0  0  0  0  0  0  0  0  0  0  0  0
  -29.6073  -12.4112   18.3144 C   0  0  0  0  0  0  0  0  0  0  0  0
  -30.2655  -30.6469   19.6214 C   0  0  0  0  0  0  0  0  0  0  0  0
  -28.1691  -12.1009   18.7358 C   0  0  0  0  0  0  0  0  0  0  0  0
  -30.5152  -12.6399   19.5215 C   0  0  0  0  0  0  0  0  0  0  0  0
  -28.5953  -13.3329   20.9010 C   0  0  0  0  0  0  0  0  0  0  0  0
  -31.2212  -29.8402   20.5087 C   0  0  1  0  0  0  0  0  0  0  0  0
  -31.5442  -26.3432   19.0596 C   0  0  1  0  0  0  0  0  0  0  0  0
  -27.6290  -13.1589   19.7179 C   0  0  2  0  0  0  0  0  0  0  0  0
  -35.8002  -16.6828   24.8818 C   0  0  0  0  0  0  0  0  0  0  0  0
  -28.2277  -20.0018   16.0947 C   0  0  0  0  0  0  0  0  0  0  0  0
  -35.1570  -20.6282   26.1865 C   0  0  0  0  0  0  0  0  0  0  0  0
  -26.9669  -25.7185   19.1931 C   0  0  0  0  0  0  0  0  0  0  0  0
  -26.1592  -23.4866   18.3967 C   0  0  0  0  0  0  0  0  0  0  0  0
  -26.9705  -25.1771   16.7515 C   0  0  0  0  0  0  0  0  0  0  0  0
  -31.8942  -20.4277   17.0174 C   0  0  0  0  0  0  0  0  0  0  0  0
  -34.5468  -16.3489   24.1013 C   0  0  0  0  0  0  0  0  0  0  0  0
  -34.1169  -22.5050   24.8667 C   0  0  0  0  0  0  0  0  0  1  0  0
  -28.6384  -23.9967   18.2404 C   0  0  1  0  0  0  0  0  0  0  0  0
  -29.4920  -20.7778   16.4296 C   0  0  2  0  0  0  0  0  0  0  0  0
  -33.8631  -21.2398   25.6750 C   0  0  1  0  0  0  0  0  0  0  0  0
  -27.2060  -24.5966   18.1630 C   0  0  0  0  0  0  0  0  0  0  0  0
  -25.8565  -11.5439   20.2936 N   0  0  0  0  0  0  0  0  0  0  0  0
  -26.2203  -12.8324   20.1772 N   0  0  0  0  0  0  0  0  0  0  0  0
  -30.6114  -25.2154   19.1042 N   0  0  0  0  0  0  0  0  0  0  0  0
  -29.9419  -13.6576   20.4050 N   0  0  0  0  0  0  0  0  0  0  0  0
  -25.4292  -15.0496   20.4402 N   0  0  0  0  0  0  0  0  0  0  0  0
  -31.9936  -19.2216   26.5386 N   0  0  0  0  0  0  0  0  0  0  0  0
  -21.8661  -12.5278   21.5984 N   0  0  0  0  0  0  0  0  0  0  0  0
  -30.0264  -15.7288   21.5299 N   0  0  0  0  0  0  0  0  0  0  0  0
  -31.6469  -28.6358   19.8285 N   0  0  0  0  0  0  0  0  0  0  0  0
  -28.9020  -22.9506   17.2583 N   0  0  0  0  0  0  0  0  0  0  0  0
  -33.2071  -20.2521   24.8059 N   0  3  0  0  0  0  0  0  0  0  0  0
  -30.5857  -19.8014   16.6969 N   0  3  0  0  0  0  0  0  0  0  0  0
  -22.6201  -14.6779   21.3389 O   0  0  0  0  0  0  0  0  0  0  0  0
  -29.8356  -27.2843   20.3899 O   0  0  0  0  0  0  0  0  0  0  0  0
  -29.7526  -25.6729   16.9853 O   0  0  0  0  0  0  0  0  0  0  0  0
  -29.4413  -21.2945   18.7892 O   0  0  0  0  0  0  0  0  0  0  0  0
  -31.8158  -15.0018   20.2448 O   0  0  0  0  0  0  0  0  0  0  0  0
  -21.6516   -6.9614   21.6603 O   0  0  0  0  0  0  0  0  0  0  0  0
  -32.8690  -23.0258   24.4110 O   0  0  0  0  0  0  0  0  0  1  0  0
  -33.9230  -17.5614   23.6835 O   0  0  0  0  0  0  0  0  0  0  0  0
  -16.4997   -6.7345   19.7081 F   0  0  0  0  0  0  0  0  0  0  0  0
  -19.7467   -8.7948   22.4681 F   0  0  0  0  0  0  0  0  0  0  0  0
  1  2  1  0  0  0  0
  1  6  2  0  0  0  0
  2  7  2  0  0  0  0
  3 10  2  0  0  0  0
  3 18  1  0  0  0  0
  4 11  1  0  0  0  0
  4 18  2  0  0  0  0
  5  9  2  0  0  0  0
  5 19  1  0  0  0  0
  6 21  1  0  0  0  0
  7 23  1  0  0  0  0
  8 12  2  0  0  0  0
  8 22  1  0  0  0  0
  9 25  1  0  0  0  0
 10 26  1  0  0  0  0
 11 26  2  0  0  0  0
 12 27  1  0  0  0  0
 13 14  2  0  0  0  0
 13 28  1  0  0  0  0
 14 30  1  0  0  0  0
 15 24  1  0  0  0  0
 15 27  2  0  0  0  0
 16 25  2  0  0  0  0
 16 29  1  0  0  0  0
 17 30  2  0  0  0  0
 17 31  1  0  0  0  0
 18 32  1  0  0  0  0
 19 29  2  0  0  0  0
 19 34  1  0  0  0  0
 20 32  1  0  0  0  0
 20 33  2  0  0  0  0
 20 35  1  0  0  0  0
 21 23  2  0  0  0  0
 21 40  1  0  0  0  0
 22 24  2  0  0  0  0
 22 41  1  0  0  0  0
 23 49  1  0  0  0  0
 24 42  1  0  0  0  0
 25 72  1  0  0  0  0
 26 82  1  0  0  0  0
 27 83  1  0  0  0  0
 28 31  2  0  0  0  0
 28 82  1  0  0  0  0
 29 84  1  0  0  0  0
 30 85  1  0  0  0  0
 31 86  1  0  0  0  0
 32 65  2  0  0  0  0
 33 66  1  0  0  0  0
 33 69  1  0  0  0  0
 34 70  1  0  0  0  0
 34 75  2  0  0  0  0
 35 71  1  0  0  0  0
 35 77  2  0  0  0  0
 36 50  1  0  0  0  0
 36 73  1  0  0  0  0
 36 78  2  0  0  0  0
 37 61  1  0  0  0  0
 37 67  1  0  0  0  0
 37 79  2  0  0  0  0
 38 62  1  0  0  0  0
 38 74  1  0  0  0  0
 38 80  2  0  0  0  0
 39 68  1  0  0  0  0
 39 72  1  0  0  0  0
 39 81  2  0  0  0  0
 40 43  1  0  0  0  0
 41 50  1  0  0  0  0
 42 67  1  0  0  0  0
 43 45  1  0  0  0  0
 44 46  1  0  0  0  0
 44 47  1  0  0  0  0
 45 49  1  0  0  0  0
 46 51  1  0  0  0  0
 47 68  1  0  0  0  0
 48 51  1  0  0  0  0
 48 68  1  0  0  0  0
 49 73  1  0  0  0  0
 50 67  1  0  0  0  0
 51 66  1  0  0  0  0
 52 59  1  0  0  0  0
 53 62  1  0  0  0  0
 54 63  1  0  0  0  0
 55 64  1  0  0  0  0
 56 64  1  0  0  0  0
 57 64  1  0  0  0  0
 58 76  1  0  0  0  0
 59 84  1  0  0  0  0
 60 63  1  0  0  0  0
 60 83  1  0  0  0  0
 61 64  1  0  0  0  0
 61 74  1  0  0  0  0
 62 76  1  0  0  0  0
 63 75  1  0  0  0  0
 65 66  1  0  0  0  0
M  CHG  2  75   1  76   1
M  ISO  4  39 100  60 101  72 100  83 101
M  END
> <Batch ID>
0060

> <Smiles>
CCOc1cc([100NH:0][100C:0](=O)N2CCCC(n3nc(-c4ccc(Oc5ccc(F)cc5F)cc4)c(C(N)=O)c3N)C2)ccc1C(=N)NC(C)[101CH2:1][101O:1]c1ccc2c(c1)CN(C(=O)C(NC(=O)C(C)NC)C(C)(C)C)C(C(=O)NC1CCCc3ccccc31)C2

> <Shape>
0.212

> <Color>
0.189

> <Negative vol penalty>
0.000

$$$$

  -OEChem-04042323043D

 84 92  0     1  0  0  0  0  0999 V2000
  -24.4896  -24.9941   21.9580 C   0  0  0  0  0  0  0  0  0  0  0  0
  -25.2976  -24.3828   22.9114 C   0  0  0  0  0  0  0  0  0  0  0  0
  -23.1908   -9.8097   19.9381 C   0  0  0  0  0  0  0  0  0  0  0  0
  -23.5755  -10.0013   22.3156 C   0  0  0  0  0  0  0  0  0  0  0  0
  -24.7129  -24.7584   20.6021 C   0  0  0  0  0  0  0  0  0  0  0  0
  -26.3287  -23.5345   22.5094 C   0  0  0  0  0  0  0  0  0  0  0  0
  -31.7753  -22.8202   25.2169 C   0  0  0  0  0  0  0  0  0  0  0  0
  -22.4282   -8.6619   20.1539 C   0  0  0  0  0  0  0  0  0  0  0  0
  -22.8128   -8.8535   22.5315 C   0  0  0  0  0  0  0  0  0  0  0  0
  -32.2628  -21.8625   26.1052 C   0  0  0  0  0  0  0  0  0  0  0  0
  -23.2222   -5.5068   22.2805 C   0  0  0  0  0  0  0  0  0  0  0  0
  -23.7257   -4.5506   23.1623 C   0  0  0  0  0  0  0  0  0  0  0  0
  -30.9715  -14.2472   26.2683 C   0  0  0  0  0  0  0  0  0  0  0  0
  -33.2258  -20.6474   24.2572 C   0  0  0  0  0  0  0  0  0  0  0  0
  -32.1159  -14.4801   23.7348 C   0  0  0  0  0  0  0  0  0  0  0  0
  -21.7725   -4.8113   24.5602 C   0  0  0  0  0  0  0  0  0  0  0  0
  -23.7645  -10.4794   21.0189 C   0  0  0  0  0  0  0  0  0  0  0  0
  -32.0240  -15.1379   26.0578 C   0  0  0  0  0  0  0  0  0  0  0  0
  -24.0956  -12.9959   20.7634 C   0  0  0  0  0  0  0  0  0  0  0  0
  -25.7534  -23.9144   20.1830 C   0  0  0  0  0  0  0  0  0  0  0  0
  -32.0004  -22.6926   23.8387 C   0  0  0  0  0  0  0  0  0  0  0  0
  -26.5653  -23.2862   21.1466 C   0  0  0  0  0  0  0  0  0  0  0  0
  -32.7422  -21.6061   23.3537 C   0  0  0  0  0  0  0  0  0  0  0  0
  -32.5962  -15.2544   24.7910 C   0  0  0  0  0  0  0  0  0  0  0  0
  -31.0634  -13.5893   23.9454 C   0  0  0  0  0  0  0  0  0  0  0  0
  -22.2392   -8.1838   21.4506 C   0  0  0  0  0  0  0  0  0  0  0  0
  -32.9857  -20.7744   25.6251 C   0  0  0  0  0  0  0  0  0  0  0  0
  -21.9939   -6.1153   22.5385 C   0  0  0  0  0  0  0  0  0  0  0  0
  -23.0009   -4.2028   24.3022 C   0  0  0  0  0  0  0  0  0  0  0  0
  -30.4912  -13.4728   25.2122 C   0  0  0  0  0  0  0  0  0  0  0  0
  -21.2690   -5.7675   23.6784 C   0  0  0  0  0  0  0  0  0  0  0  0
  -24.5528  -11.6648   20.7965 C   0  0  0  0  0  0  0  0  0  0  0  0
  -25.2241  -13.7406   20.5217 C   0  0  0  0  0  0  0  0  0  0  0  0
  -32.5179  -15.9469   27.1901 C   0  0  0  0  0  0  0  0  0  0  0  0
  -22.7695  -13.5130   20.9359 C   0  0  0  0  0  0  0  0  0  0  0  0
  -30.1396  -22.3595   21.2833 C   0  0  0  0  0  0  0  0  0  0  0  0
  -32.9451  -22.6633   19.6837 C   0  0  0  0  0  0  0  0  0  0  0  0
  -36.3450  -22.3689   19.7156 C   0  0  0  0  0  0  0  0  0  0  0  0
  -31.0342  -12.8001   21.5533 C   0  0  0  0  0  0  0  0  0  0  0  0
  -25.9263  -23.6527   18.7077 C   0  0  0  0  0  0  0  0  0  0  0  0
  -31.4907  -23.7483   22.8962 C   0  0  0  0  0  0  0  0  0  0  0  0
  -33.0287  -21.4338   21.8852 C   0  0  0  0  0  0  0  0  0  0  0  0
  -27.2766  -23.0356   18.3527 C   0  0  0  0  0  0  0  0  0  0  0  0
  -29.5107  -13.4641   18.4044 C   0  0  0  0  0  0  0  0  0  0  0  0
  -27.6042  -21.8864   19.3008 C   0  0  0  0  0  0  0  0  0  0  0  0
  -28.0241  -13.2051   18.6591 C   0  0  0  0  0  0  0  0  0  0  0  0
  -30.3967  -12.4848   19.1722 C   0  0  0  0  0  0  0  0  0  0  0  0
  -28.6428  -12.1458   20.8686 C   0  0  0  0  0  0  0  0  0  0  0  0
  -27.7095  -22.3791   20.7492 C   0  0  1  0  0  0  0  0  0  0  0  0
  -31.3385  -23.2470   21.4634 C   0  0  1  0  0  0  0  0  0  0  0  0
  -27.7122  -13.1488   20.1674 C   0  0  2  0  0  0  0  0  0  0  0  0
  -33.7238  -16.2017   24.5407 C   0  0  0  0  0  0  0  0  0  0  0  0
  -38.3607  -22.6527   18.2480 C   0  0  0  0  0  0  0  0  0  0  0  0
  -32.2681  -20.0545   18.2534 C   0  0  0  0  0  0  0  0  0  0  0  0
  -34.6654  -19.9001   17.5482 C   0  0  0  0  0  0  0  0  0  0  0  0
  -33.2646  -21.8192   16.7882 C   0  0  0  0  0  0  0  0  0  0  0  0
  -37.4921  -24.4381   21.4936 C   0  0  0  0  0  0  0  0  0  0  0  0
  -32.9211  -18.1877   28.1455 C   0  0  0  0  0  0  0  0  0  0  0  0
  -32.7132  -19.6159   27.6841 C   0  0  0  0  0  0  0  0  0  1  0  0
  -34.0098  -21.7078   19.2016 C   0  0  1  0  0  0  0  0  0  0  0  0
  -37.4423  -23.3152   19.2631 C   0  0  2  0  0  0  0  0  0  0  0  0
  -33.5451  -20.8723   17.9754 C   0  0  0  0  0  0  0  0  0  0  0  0
  -25.8690  -11.5664   20.5920 N   0  0  0  0  0  0  0  0  0  0  0  0
  -26.2486  -12.8451   20.4280 N   0  0  0  0  0  0  0  0  0  0  0  0
  -32.5038  -22.4891   21.0030 N   0  0  0  0  0  0  0  0  0  0  0  0
  -30.0471  -12.4884   20.5944 N   0  0  0  0  0  0  0  0  0  0  0  0
  -25.4301  -15.0674   20.3822 N   0  0  0  0  0  0  0  0  0  0  0  0
  -32.9967  -15.3074   28.2572 N   0  0  0  0  0  0  0  0  0  0  0  0
  -21.7260  -12.6089   21.1768 N   0  0  0  0  0  0  0  0  0  0  0  0
  -30.5772  -12.8042   22.8707 N   0  0  0  0  0  0  0  0  0  0  0  0
  -28.9787  -23.0393   20.9674 N   0  0  0  0  0  0  0  0  0  0  0  0
  -35.2016  -22.5134   18.9586 N   0  0  0  0  0  0  0  0  0  0  0  0
  -32.4591  -17.2804   27.0921 N   0  3  0  0  0  0  0  0  0  0  0  0
  -38.2645  -23.7497   20.4276 N   0  3  0  0  0  0  0  0  0  0  0  0
  -22.5148  -14.7390   20.8617 O   0  0  0  0  0  0  0  0  0  0  0  0
  -30.2591  -21.1475   21.4193 O   0  0  0  0  0  0  0  0  0  0  0  0
  -32.5258  -23.5367   18.9202 O   0  0  0  0  0  0  0  0  0  0  0  0
  -36.4891  -21.5778   20.6451 O   0  0  0  0  0  0  0  0  0  0  0  0
  -32.1926  -13.0719   21.2274 O   0  0  0  0  0  0  0  0  0  0  0  0
  -21.4950   -7.0639   21.6616 O   0  0  0  0  0  0  0  0  0  0  0  0
  -33.4621  -19.8379   26.4899 O   0  0  0  0  0  0  0  0  0  1  0  0
  -23.4838   -3.2834   25.1482 F   0  0  0  0  0  0  0  0  0  0  0  0
  -29.4796  -12.6194   25.4262 F   0  0  0  0  0  0  0  0  0  0  0  0
  -20.0878   -6.3479   23.9310 F   0  0  0  0  0  0  0  0  0  0  0  0
  1  2  1  0  0  0  0
  1  5  2  0  0  0  0
  2  6  2  0  0  0  0
  3  8  2  0  0  0  0
  3 17  1  0  0  0  0
  4  9  1  0  0  0  0
  4 17  2  0  0  0  0
  5 20  1  0  0  0  0
  6 22  1  0  0  0  0
  7 10  2  0  0  0  0
  7 21  1  0  0  0  0
  8 26  1  0  0  0  0
  9 26  2  0  0  0  0
 10 27  1  0  0  0  0
 11 12  2  0  0  0  0
 11 28  1  0  0  0  0
 12 29  1  0  0  0  0
 13 18  1  0  0  0  0
 13 30  2  0  0  0  0
 14 23  1  0  0  0  0
 14 27  2  0  0  0  0
 15 24  1  0  0  0  0
 15 25  2  0  0  0  0
 16 29  2  0  0  0  0
 16 31  1  0  0  0  0
 17 32  1  0  0  0  0
 18 24  2  0  0  0  0
 18 34  1  0  0  0  0
 19 32  1  0  0  0  0
 19 33  2  0  0  0  0
 19 35  1  0  0  0  0
 20 22  2  0  0  0  0
 20 40  1  0  0  0  0
 21 23  2  0  0  0  0
 21 41  1  0  0  0  0
 22 49  1  0  0  0  0
 23 42  1  0  0  0  0
 24 52  1  0  0  0  0
 25 30  1  0  0  0  0
 25 70  1  0  0  0  0
 26 80  1  0  0  0  0
 27 81  1  0  0  0  0
 28 31  2  0  0  0  0
 28 80  1  0  0  0  0
 29 82  1  0  0  0  0
 30 83  1  0  0  0  0
 31 84  1  0  0  0  0
 32 63  2  0  0  0  0
 33 64  1  0  0  0  0
 33 67  1  0  0  0  0
 34 68  1  0  0  0  0
 34 73  2  0  0  0  0
 35 69  1  0  0  0  0
 35 75  2  0  0  0  0
 36 50  1  0  0  0  0
 36 71  1  0  0  0  0
 36 76  2  0  0  0  0
 37 60  1  0  0  0  0
 37 65  1  0  0  0  0
 37 77  2  0  0  0  0
 38 61  1  0  0  0  0
 38 72  1  0  0  0  0
 38 78  2  0  0  0  0
 39 66  1  0  0  0  0
 39 70  1  0  0  0  0
 39 79  2  0  0  0  0
 40 43  1  0  0  0  0
 41 50  1  0  0  0  0
 42 65  1  0  0  0  0
 43 45  1  0  0  0  0
 44 46  1  0  0  0  0
 44 47  1  0  0  0  0
 45 49  1  0  0  0  0
 46 51  1  0  0  0  0
 47 66  1  0  0  0  0
 48 51  1  0  0  0  0
 48 66  1  0  0  0  0
 49 71  1  0  0  0  0
 50 65  1  0  0  0  0
 51 64  1  0  0  0  0
 53 61  1  0  0  0  0
 54 62  1  0  0  0  0
 55 62  1  0  0  0  0
 56 62  1  0  0  0  0
 57 74  1  0  0  0  0
 58 59  1  0  0  0  0
 58 73  1  0  0  0  0
 59 81  1  0  0  0  0
 60 62  1  0  0  0  0
 60 72  1  0  0  0  0
 61 74  1  0  0  0  0
 63 64  1  0  0  0  0
M  CHG  2  73   1  74   1
M  ISO  4  39 100  59 101  70 100  81 101
M  END
> <Batch ID>
0060

> <Smiles>
CNC(C)C(=O)NC(C(=O)N1Cc2cc([101O:1][101CH2:1]CNC(=N)c3cc(F)c([100NH:0][100C:0](=O)N4CCCC(n5nc(-c6ccc(Oc7ccc(F)cc7F)cc6)c(C(N)=O)c5N)C4)cc3C)ccc2CC1C(=O)NC1CCCc2ccccc21)C(C)(C)C

> <Shape>
0.168

> <Color>
0.179

> <Negative vol penalty>
0.000

$$$$

  -OEChem-04042323043D

 84 93  0     1  0  0  0  0  0999 V2000
  -23.7856  -33.1844   15.0835 C   0  0  0  0  0  0  0  0  0  0  0  0
  -24.7351  -32.4345   15.7702 C   0  0  0  0  0  0  0  0  0  0  0  0
  -23.9359   -9.7465   21.3857 C   0  0  0  0  0  0  0  0  0  0  0  0
  -24.5701  -10.7806   23.4751 C   0  0  0  0  0  0  0  0  0  0  0  0
  -22.7946  -33.8663   15.7885 C   0  0  0  0  0  0  0  0  0  0  0  0
  -24.6948  -32.3670   17.1624 C   0  0  0  0  0  0  0  0  0  0  0  0
  -25.3593  -27.6565   18.8988 C   0  0  0  0  0  0  0  0  0  0  0  0
  -30.4171  -20.5265   19.1508 C   0  0  0  0  0  0  0  0  0  0  0  0
  -30.2304  -19.1462   19.2256 C   0  0  0  0  0  0  0  0  0  0  0  0
  -23.4744   -8.6279   22.0793 C   0  0  0  0  0  0  0  0  0  0  0  0
  -24.1085   -9.6619   24.1688 C   0  0  0  0  0  0  0  0  0  0  0  0
  -26.6633  -27.1637   18.9199 C   0  0  0  0  0  0  0  0  0  0  0  0
  -20.7354   -7.7563   23.8601 C   0  0  0  0  0  0  0  0  0  0  0  0
  -19.4991   -7.2278   23.4887 C   0  0  0  0  0  0  0  0  0  0  0  0
  -26.8051  -27.6565   21.2770 C   0  0  0  0  0  0  0  0  0  0  0  0
  -29.0878  -20.8145   21.1476 C   0  0  0  0  0  0  0  0  0  0  0  0
  -20.5591   -5.1236   22.9541 C   0  0  0  0  0  0  0  0  0  0  0  0
  -24.4838  -10.8229   22.0836 C   0  0  0  0  0  0  0  0  0  0  0  0
  -24.2260  -13.1281   21.0220 C   0  0  0  0  0  0  0  0  0  0  0  0
  -22.7363  -33.7992   17.1894 C   0  0  0  0  0  0  0  0  0  0  0  0
  -24.7712  -28.1639   20.0664 C   0  0  0  0  0  0  0  0  0  0  0  0
  -23.7029  -33.0496   17.8868 C   0  0  0  0  0  0  0  0  0  0  0  0
  -25.4925  -28.1528   21.2687 C   0  0  0  0  0  0  0  0  0  0  0  0
  -28.9010  -19.4342   21.2223 C   0  0  0  0  0  0  0  0  0  0  0  0
  -29.8459  -21.3607   20.1119 C   0  0  0  0  0  0  0  0  0  0  0  0
  -29.4723  -18.6001   20.2612 C   0  0  0  0  0  0  0  0  0  0  0  0
  -23.5606   -8.5856   23.4709 C   0  0  0  0  0  0  0  0  0  0  0  0
  -27.3874  -27.1663   20.1084 C   0  0  0  0  0  0  0  0  0  0  0  0
  -21.8836   -6.9684   23.7784 C   0  0  0  0  0  0  0  0  0  0  0  0
  -19.4109   -5.9115   23.0358 C   0  0  0  0  0  0  0  0  0  0  0  0
  -21.7954   -5.6521   23.3254 C   0  0  0  0  0  0  0  0  0  0  0  0
  -24.9613  -11.9785   21.3675 C   0  0  0  0  0  0  0  0  0  0  0  0
  -25.1258  -13.9239   20.3560 C   0  0  0  0  0  0  0  0  0  0  0  0
  -29.5954  -23.7358   20.8303 C   0  0  0  0  0  0  0  0  0  0  0  0
  -22.8524  -13.4481   21.2800 C   0  0  0  0  0  0  0  0  0  0  0  0
  -23.6353  -30.9957   20.9576 C   0  0  0  0  0  0  0  0  0  0  0  0
  -22.7095  -29.3570   23.5996 C   0  0  0  0  0  0  0  0  0  0  0  0
  -23.1691  -26.6678   25.6498 C   0  0  0  0  0  0  0  0  0  0  0  0
  -30.1784  -16.2133   19.8728 C   0  0  0  0  0  0  0  0  0  0  0  0
  -21.6749  -34.5916   17.9106 C   0  0  0  0  0  0  0  0  0  0  0  0
  -23.3542  -28.6673   20.0328 C   0  0  0  0  0  0  0  0  0  0  0  0
  -24.8997  -28.6677   22.5539 C   0  0  0  0  0  0  0  0  0  0  0  0
  -21.4773  -34.1646   19.3628 C   0  0  0  0  0  0  0  0  0  0  0  0
  -29.7705  -12.9052   18.6209 C   0  0  0  0  0  0  0  0  0  0  0  0
  -22.8241  -34.0165   20.0637 C   0  0  0  0  0  0  0  0  0  0  0  0
  -28.4225  -12.4638   19.1955 C   0  0  0  0  0  0  0  0  0  0  0  0
  -30.5516  -13.7708   19.6080 C   0  0  0  0  0  0  0  0  0  0  0  0
  -30.5188  -23.5595   18.9503 C   0  0  0  0  0  0  0  0  0  0  0  0
  -28.4682  -14.4850   20.7118 C   0  0  0  0  0  0  0  0  0  0  0  0
  -23.6774  -32.9318   19.3953 C   0  0  1  0  0  0  0  0  0  0  0  0
  -30.0689  -24.7791   19.7945 C   0  0  1  0  0  0  0  0  0  0  0  0
  -23.0364  -29.6340   21.1694 C   0  0  1  0  0  0  0  0  0  0  0  0
  -27.6169  -13.6645   19.7291 C   0  0  2  0  0  0  0  0  0  0  0  0
  -28.0860  -18.8762   22.3436 C   0  0  0  0  0  0  0  0  0  0  0  0
  -22.2841  -25.6181   27.7503 C   0  0  0  0  0  0  0  0  0  0  0  0
  -24.1662  -31.4606   25.2618 C   0  0  0  0  0  0  0  0  0  0  0  0
  -24.0699  -29.8887   27.2081 C   0  0  0  0  0  0  0  0  0  0  0  0
  -21.9582  -30.7423   26.1909 C   0  0  0  0  0  0  0  0  0  0  0  0
  -22.3796  -24.1990   24.2214 C   0  0  0  0  0  0  0  0  0  0  0  0
  -28.9814  -25.6507   19.2039 C   0  0  0  0  0  0  0  0  0  1  0  0
  -23.3384  -29.0371   24.9342 C   0  0  1  0  0  0  0  0  0  0  0  0
  -22.1884  -25.6667   26.2334 C   0  0  2  0  0  0  0  0  0  0  0  0
  -23.3953  -30.2742   25.8743 C   0  0  0  0  0  0  0  0  0  0  0  0
  -26.2304  -12.0348   20.9550 N   0  0  0  0  0  0  0  0  0  0  0  0
  -26.2996  -13.2295   20.3433 N   0  0  0  0  0  0  0  0  0  0  0  0
  -30.0325  -22.7222   20.0394 N   0  0  0  0  0  0  0  0  0  0  0  0
  -23.5131  -29.1553   22.4685 N   0  0  0  0  0  0  0  0  0  0  0  0
  -29.7271  -14.8907   20.0672 N   0  0  0  0  0  0  0  0  0  0  0  0
  -25.0196  -15.1429   19.7858 N   0  0  0  0  0  0  0  0  0  0  0  0
  -22.0693  -12.5181   21.9771 N   0  0  0  0  0  0  0  0  0  0  0  0
  -29.2956  -17.1955   20.3206 N   0  0  0  0  0  0  0  0  0  0  0  0
  -23.2247  -31.6160   19.7931 N   0  0  0  0  0  0  0  0  0  0  0  0
  -22.5913  -27.9078   25.4772 N   0  0  0  0  0  0  0  0  0  0  0  0
  -22.4629  -24.3021   25.7011 N   0  3  0  0  0  0  0  0  0  0  0  0
  -29.0272  -23.7636   21.8982 O   0  0  0  0  0  0  0  0  0  0  0  0
  -22.3305  -14.5198   20.8891 O   0  0  0  0  0  0  0  0  0  0  0  0
  -24.4112  -31.4506   21.7899 O   0  0  0  0  0  0  0  0  0  0  0  0
  -21.5456  -29.7639   23.5615 O   0  0  0  0  0  0  0  0  0  0  0  0
  -24.3326  -26.3797   25.3781 O   0  0  0  0  0  0  0  0  0  0  0  0
  -31.2556  -16.4572   19.3231 O   0  0  0  0  0  0  0  0  0  0  0  0
  -23.1101   -7.4943   24.1481 O   0  0  0  0  0  0  0  0  0  0  0  0
  -28.6606  -26.6865   20.1316 O   0  0  0  0  0  0  0  0  0  1  0  0
  -18.2234   -5.4037   22.6807 F   0  0  0  0  0  0  0  0  0  0  0  0
  -22.8948   -4.8900   23.2459 F   0  0  0  0  0  0  0  0  0  0  0  0
  1  2  1  0  0  0  0
  1  5  2  0  0  0  0
  2  6  2  0  0  0  0
  3 10  2  0  0  0  0
  3 18  1  0  0  0  0
  4 11  1  0  0  0  0
  4 18  2  0  0  0  0
  5 20  1  0  0  0  0
  6 22  1  0  0  0  0
  7 12  2  0  0  0  0
  7 21  1  0  0  0  0
  8  9  2  0  0  0  0
  8 25  1  0  0  0  0
  9 26  1  0  0  0  0
 10 27  1  0  0  0  0
 11 27  2  0  0  0  0
 12 28  1  0  0  0  0
 13 14  2  0  0  0  0
 13 29  1  0  0  0  0
 14 30  1  0  0  0  0
 15 23  1  0  0  0  0
 15 28  2  0  0  0  0
 16 24  1  0  0  0  0
 16 25  2  0  0  0  0
 17 30  2  0  0  0  0
 17 31  1  0  0  0  0
 18 32  1  0  0  0  0
 19 32  1  0  0  0  0
 19 33  2  0  0  0  0
 19 35  1  0  0  0  0
 20 22  2  0  0  0  0
 20 40  1  0  0  0  0
 21 23  2  0  0  0  0
 21 41  1  0  0  0  0
 22 50  1  0  0  0  0
 23 42  1  0  0  0  0
 24 26  2  0  0  0  0
 24 54  1  0  0  0  0
 25 66  1  0  0  0  0
 26 71  1  0  0  0  0
 27 81  1  0  0  0  0
 28 82  1  0  0  0  0
 29 31  2  0  0  0  0
 29 81  1  0  0  0  0
 30 83  1  0  0  0  0
 31 84  1  0  0  0  0
 32 64  2  0  0  0  0
 33 65  1  0  0  0  0
 33 69  1  0  0  0  0
 34 51  1  0  0  0  0
 34 66  1  0  0  0  0
 34 75  2  0  0  0  0
 35 70  1  0  0  0  0
 35 76  2  0  0  0  0
 36 52  1  0  0  0  0
 36 72  1  0  0  0  0
 36 77  2  0  0  0  0
 37 61  1  0  0  0  0
 37 67  1  0  0  0  0
 37 78  2  0  0  0  0
 38 62  1  0  0  0  0
 38 73  1  0  0  0  0
 38 79  2  0  0  0  0
 39 68  1  0  0  0  0
 39 71  1  0  0  0  0
 39 80  2  0  0  0  0
 40 43  1  0  0  0  0
 41 52  1  0  0  0  0
 42 67  1  0  0  0  0
 43 45  1  0  0  0  0
 44 46  1  0  0  0  0
 44 47  1  0  0  0  0
 45 50  1  0  0  0  0
 46 53  1  0  0  0  0
 47 68  1  0  0  0  0
 48 51  1  0  0  0  0
 48 66  1  0  0  0  0
 49 53  1  0  0  0  0
 49 68  1  0  0  0  0
 50 72  1  0  0  0  0
 51 60  1  0  0  0  0
 52 67  1  0  0  0  0
 53 65  1  0  0  0  0
 55 62  1  0  0  0  0
 56 63  1  0  0  0  0
 57 63  1  0  0  0  0
 58 63  1  0  0  0  0
 59 74  1  0  0  0  0
 60 82  1  0  0  0  0
 61 63  1  0  0  0  0
 61 73  1  0  0  0  0
 62 74  1  0  0  0  0
 64 65  1  0  0  0  0
M  CHG  1  74   1
M  ISO  4  39 100  60 101  71 100  82 101
M  END
> <Batch ID>
0060

> <Smiles>
CNC(C)C(=O)NC(C(=O)N1Cc2cc([101O:1][101CH2:1]C3CN(c4ccc([100NH:0][100C:0](=O)N5CCCC(n6nc(-c7ccc(Oc8ccc(F)cc8F)cc7)c(C(N)=O)c6N)C5)c(C)c4)C3=O)ccc2CC1C(=O)NC1CCCc2ccccc21)C(C)(C)C

> <Shape>
0.292

> <Color>
0.143

> <Negative vol penalty>
0.000

$$$$

  -OEChem-04042323043D

 87 95  0     1  0  0  0  0  0999 V2000
  -28.2432  -32.7361   25.8351 C   0  0  0  0  0  0  0  0  0  0  0  0
  -28.0745  -31.3703   25.6312 C   0  0  0  0  0  0  0  0  0  0  0  0
  -23.8011   -9.8445   22.2982 C   0  0  0  0  0  0  0  0  0  0  0  0
  -23.2555  -12.1438   22.8008 C   0  0  0  0  0  0  0  0  0  0  0  0
  -27.3799  -33.6432   25.2221 C   0  0  0  0  0  0  0  0  0  0  0  0
  -27.0416  -30.9107   24.8148 C   0  0  0  0  0  0  0  0  0  0  0  0
  -28.5545  -27.2788   21.6266 C   0  0  0  0  0  0  0  0  0  0  0  0
  -23.0893   -9.4295   23.4236 C   0  0  0  0  0  0  0  0  0  0  0  0
  -22.5436  -11.7288   23.9263 C   0  0  0  0  0  0  0  0  0  0  0  0
  -28.7034  -25.9947   22.1487 C   0  0  0  0  0  0  0  0  0  0  0  0
  -19.8563   -8.9444   24.2869 C   0  0  0  0  0  0  0  0  0  0  0  0
  -18.9964   -7.8553   24.1449 C   0  0  0  0  0  0  0  0  0  0  0  0
  -30.1463  -19.6860   22.5532 C   0  0  0  0  0  0  0  0  0  0  0  0
  -30.9197  -17.5913   21.6307 C   0  0  0  0  0  0  0  0  0  0  0  0
  -28.5748  -18.1640   21.5280 C   0  0  0  0  0  0  0  0  0  0  0  0
  -26.5540  -25.3827   21.2407 C   0  0  0  0  0  0  0  0  0  0  0  0
  -20.2502   -6.6470   25.8197 C   0  0  0  0  0  0  0  0  0  0  0  0
  -23.8843  -11.2017   21.9868 C   0  0  0  0  0  0  0  0  0  0  0  0
  -31.1857  -18.7968   22.2799 C   0  0  0  0  0  0  0  0  0  0  0  0
  -28.8408  -19.3695   22.1773 C   0  0  0  0  0  0  0  0  0  0  0  0
  -24.1233  -11.7989   19.5182 C   0  0  0  0  0  0  0  0  0  0  0  0
  -26.3418  -33.1949   24.3902 C   0  0  0  0  0  0  0  0  0  0  0  0
  -27.3974  -27.6283   20.9157 C   0  0  0  0  0  0  0  0  0  0  0  0
  -26.1628  -31.8126   24.1912 C   0  0  0  0  0  0  0  0  0  0  0  0
  -26.3939  -26.6711   20.7084 C   0  0  0  0  0  0  0  0  0  0  0  0
  -29.6143  -17.2748   21.2547 C   0  0  0  0  0  0  0  0  0  0  0  0
  -22.4604  -10.3717   24.2376 C   0  0  0  0  0  0  0  0  0  0  0  0
  -27.7018  -25.0473   21.9583 C   0  0  0  0  0  0  0  0  0  0  0  0
  -20.9132   -8.8847   25.1953 C   0  0  0  0  0  0  0  0  0  0  0  0
  -19.1933   -6.7066   24.9113 C   0  0  0  0  0  0  0  0  0  0  0  0
  -21.1101   -7.7360   25.9617 C   0  0  0  0  0  0  0  0  0  0  0  0
  -24.6200  -11.6310   20.8247 C   0  0  0  0  0  0  0  0  0  0  0  0
  -25.2095  -12.2170   18.7890 C   0  0  0  0  0  0  0  0  0  0  0  0
  -32.8509  -19.8505   23.7402 C   0  0  0  0  0  0  0  0  0  0  0  0
  -32.5474  -19.1271   22.6714 C   0  0  0  0  0  0  0  0  0  0  0  0
  -27.7337  -20.3166   22.4678 C   0  0  0  0  0  0  0  0  0  0  0  0
  -22.7984  -11.5953   19.0094 C   0  0  0  0  0  0  0  0  0  0  0  0
  -25.0675  -29.7511   21.3271 C   0  0  0  0  0  0  0  0  0  0  0  0
  -24.1394  -28.7192   18.3952 C   0  0  0  0  0  0  0  0  0  0  0  0
  -24.1734  -26.2380   16.0522 C   0  0  0  0  0  0  0  0  0  0  0  0
  -30.2599  -15.0563   20.2509 C   0  0  0  0  0  0  0  0  0  0  0  0
  -25.4047  -34.2112   23.7870 C   0  0  0  0  0  0  0  0  0  0  0  0
  -27.2639  -29.0098   20.3359 C   0  0  0  0  0  0  0  0  0  0  0  0
  -25.1414  -26.9900   19.9351 C   0  0  0  0  0  0  0  0  0  0  0  0
  -24.5661  -33.6593   22.6371 C   0  0  0  0  0  0  0  0  0  0  0  0
  -29.9851  -11.8838   18.6582 C   0  0  0  0  0  0  0  0  0  0  0  0
  -23.9688  -32.3069   23.0131 C   0  0  0  0  0  0  0  0  0  0  0  0
  -28.5312  -11.4770   18.9090 C   0  0  0  0  0  0  0  0  0  0  0  0
  -30.5811  -12.6244   19.8541 C   0  0  0  0  0  0  0  0  0  0  0  0
  -28.3458  -13.3689   20.5743 C   0  0  0  0  0  0  0  0  0  0  0  0
  -25.0694  -31.2764   23.2928 C   0  0  1  0  0  0  0  0  0  0  0  0
  -25.8156  -29.4087   20.0698 C   0  0  1  0  0  0  0  0  0  0  0  0
  -27.6822  -12.6769   19.3724 C   0  0  2  0  0  0  0  0  0  0  0  0
  -25.8079  -20.3274   25.5042 C   0  0  0  0  0  0  0  0  0  0  0  0
  -23.2942  -25.6701   13.7715 C   0  0  0  0  0  0  0  0  0  0  0  0
  -21.3838  -28.1873   19.5925 C   0  0  0  0  0  0  0  0  0  0  0  0
  -20.8635  -26.7758   17.5913 C   0  0  0  0  0  0  0  0  0  0  0  0
  -21.3499  -29.2061   17.3088 C   0  0  0  0  0  0  0  0  0  0  0  0
  -27.4708  -22.8544   25.2147 C   0  0  0  0  0  0  0  0  0  0  0  0
  -26.9027  -25.9789   14.9374 C   0  0  0  0  0  0  0  0  0  0  0  0
  -25.6349  -21.3592   24.3946 C   0  0  0  0  0  0  0  0  0  0  0  0
  -26.6514  -23.1031   22.8375 C   0  0  0  0  0  0  0  0  0  1  0  0
  -23.2356  -27.6233   17.8841 C   0  0  1  0  0  0  0  0  0  0  0  0
  -24.4503  -26.2655   14.5599 C   0  0  2  0  0  0  0  0  0  0  0  0
  -21.7308  -27.9424   18.1105 C   0  0  0  0  0  0  0  0  0  0  0  0
  -26.9267  -22.1082   23.9826 C   0  0  1  0  0  0  0  0  0  0  0  0
  -25.9206  -11.9188   20.9228 N   0  0  0  0  0  0  0  0  0  0  0  0
  -26.2504  -12.2716   19.6686 N   0  0  0  0  0  0  0  0  0  0  0  0
  -25.0546  -28.3562   19.3934 N   0  0  0  0  0  0  0  0  0  0  0  0
  -29.7255  -13.7506   20.2341 N   0  0  0  0  0  0  0  0  0  0  0  0
  -25.3663  -12.5395   17.4875 N   0  0  0  0  0  0  0  0  0  0  0  0
  -21.8014  -11.1643   19.8951 N   0  0  0  0  0  0  0  0  0  0  0  0
  -29.3441  -16.0497   20.5960 N   0  0  0  0  0  0  0  0  0  0  0  0
  -27.9294  -21.1438   23.5554 N   0  0  0  0  0  0  0  0  0  0  0  0
  -25.6289  -30.7850   22.0519 N   0  0  0  0  0  0  0  0  0  0  0  0
  -23.5983  -27.4135   16.4867 N   0  0  0  0  0  0  0  0  0  0  0  0
  -25.6824  -25.4875   14.2473 N   0  3  0  0  0  0  0  0  0  0  0  0
  -26.7288  -20.2996   21.7617 O   0  0  0  0  0  0  0  0  0  0  0  0
  -22.5111  -11.7740   17.8015 O   0  0  0  0  0  0  0  0  0  0  0  0
  -24.0550  -29.1247   21.6173 O   0  0  0  0  0  0  0  0  0  0  0  0
  -24.0419  -29.8537   17.9209 O   0  0  0  0  0  0  0  0  0  0  0  0
  -24.4372  -25.2691   16.7609 O   0  0  0  0  0  0  0  0  0  0  0  0
  -31.4359  -15.2801   19.9526 O   0  0  0  0  0  0  0  0  0  0  0  0
  -21.7655   -9.9671   25.3358 O   0  0  0  0  0  0  0  0  0  0  0  0
  -27.8444  -23.7933   22.4675 O   0  0  0  0  0  0  0  0  0  1  0  0
  -18.3666   -5.6615   24.7759 F   0  0  0  0  0  0  0  0  0  0  0  0
  -22.1230   -7.6733   26.8369 F   0  0  0  0  0  0  0  0  0  0  0  0
  1  2  1  0  0  0  0
  1  5  2  0  0  0  0
  2  6  2  0  0  0  0
  3  8  2  0  0  0  0
  3 18  1  0  0  0  0
  4  9  1  0  0  0  0
  4 18  2  0  0  0  0
  5 22  1  0  0  0  0
  6 24  1  0  0  0  0
  7 10  2  0  0  0  0
  7 23  1  0  0  0  0
  8 27  1  0  0  0  0
  9 27  2  0  0  0  0
 10 28  1  0  0  0  0
 11 12  2  0  0  0  0
 11 29  1  0  0  0  0
 12 30  1  0  0  0  0
 13 19  2  0  0  0  0
 13 20  1  0  0  0  0
 14 19  1  0  0  0  0
 14 26  2  0  0  0  0
 15 20  2  0  0  0  0
 15 26  1  0  0  0  0
 16 25  1  0  0  0  0
 16 28  2  0  0  0  0
 17 30  2  0  0  0  0
 17 31  1  0  0  0  0
 18 32  1  0  0  0  0
 19 35  1  0  0  0  0
 20 36  1  0  0  0  0
 21 32  1  0  0  0  0
 21 33  2  0  0  0  0
 21 37  1  0  0  0  0
 22 24  2  0  0  0  0
 22 42  1  0  0  0  0
 23 25  2  0  0  0  0
 23 43  1  0  0  0  0
 24 51  1  0  0  0  0
 25 44  1  0  0  0  0
 26 73  1  0  0  0  0
 27 84  1  0  0  0  0
 28 85  1  0  0  0  0
 29 31  2  0  0  0  0
 29 84  1  0  0  0  0
 30 86  1  0  0  0  0
 31 87  1  0  0  0  0
 32 67  2  0  0  0  0
 33 68  1  0  0  0  0
 33 71  1  0  0  0  0
 34 35  2  0  0  0  0
 36 74  1  0  0  0  0
 36 78  2  0  0  0  0
 37 72  1  0  0  0  0
 37 79  2  0  0  0  0
 38 52  1  0  0  0  0
 38 75  1  0  0  0  0
 38 80  2  0  0  0  0
 39 63  1  0  0  0  0
 39 69  1  0  0  0  0
 39 81  2  0  0  0  0
 40 64  1  0  0  0  0
 40 76  1  0  0  0  0
 40 82  2  0  0  0  0
 41 70  1  0  0  0  0
 41 73  1  0  0  0  0
 41 83  2  0  0  0  0
 42 45  1  0  0  0  0
 43 52  1  0  0  0  0
 44 69  1  0  0  0  0
 45 47  1  0  0  0  0
 46 48  1  0  0  0  0
 46 49  1  0  0  0  0
 47 51  1  0  0  0  0
 48 53  1  0  0  0  0
 49 70  1  0  0  0  0
 50 53  1  0  0  0  0
 50 70  1  0  0  0  0
 51 75  1  0  0  0  0
 52 69  1  0  0  0  0
 53 68  1  0  0  0  0
 54 61  1  0  0  0  0
 55 64  1  0  0  0  0
 56 65  1  0  0  0  0
 57 65  1  0  0  0  0
 58 65  1  0  0  0  0
 59 66  1  0  0  0  0
 60 77  1  0  0  0  0
 61 66  1  0  0  0  0
 62 66  1  0  0  0  0
 62 85  1  0  0  0  0
 63 65  1  0  0  0  0
 63 76  1  0  0  0  0
 64 77  1  0  0  0  0
 66 74  1  0  0  0  0
 67 68  1  0  0  0  0
M  CHG  1  77   1
M  ISO  4  41 100  62 101  73 100  85 101
M  END
> <Batch ID>
0060

> <Smiles>
C=Cc1cc([100NH:0][100C:0](=O)N2CCCC(n3nc(-c4ccc(Oc5ccc(F)cc5F)cc4)c(C(N)=O)c3N)C2)cc(C(=O)NC(C)(CC)[101CH2:1][101O:1]c2ccc3c(c2)CN(C(=O)C(NC(=O)C(C)NC)C(C)(C)C)C(C(=O)NC2CCCc4ccccc42)C3)c1

> <Shape>
0.241

> <Color>
0.069

> <Negative vol penalty>
0.000

$$$$

  -OEChem-04042323043D

 89 98  0     1  0  0  0  0  0999 V2000
  -26.5377  -37.8001   18.2046 C   0  0  0  0  0  0  0  0  0  0  0  0
  -27.1641  -36.5590   18.1518 C   0  0  0  0  0  0  0  0  0  0  0  0
  -23.1969  -13.3495   22.3410 C   0  0  0  0  0  0  0  0  0  0  0  0
  -22.0797  -14.1419   20.3507 C   0  0  0  0  0  0  0  0  0  0  0  0
  -25.6737  -38.0993   19.2572 C   0  0  0  0  0  0  0  0  0  0  0  0
  -26.9277  -35.6168   19.1521 C   0  0  0  0  0  0  0  0  0  0  0  0
  -26.6635  -29.5340   18.4920 C   0  0  0  0  0  0  0  0  0  0  0  0
  -23.4794  -12.1423   21.7018 C   0  0  0  0  0  0  0  0  0  0  0  0
  -22.3623  -12.9348   19.7115 C   0  0  0  0  0  0  0  0  0  0  0  0
  -27.5977  -28.5244   18.7195 C   0  0  0  0  0  0  0  0  0  0  0  0
  -24.1812   -8.7138   20.7138 C   0  0  0  0  0  0  0  0  0  0  0  0
  -23.9641   -7.5345   21.4263 C   0  0  0  0  0  0  0  0  0  0  0  0
  -26.6480  -28.1461   20.9045 C   0  0  0  0  0  0  0  0  0  0  0  0
  -30.6407  -20.7051   20.6148 C   0  0  0  0  0  0  0  0  0  0  0  0
  -28.4304  -21.6458   20.8731 C   0  0  0  0  0  0  0  0  0  0  0  0
  -21.6267   -8.1021   21.6536 C   0  0  0  0  0  0  0  0  0  0  0  0
  -22.4969  -14.3492   21.6655 C   0  0  0  0  0  0  0  0  0  0  0  0
  -21.4520  -15.7796   23.5011 C   0  0  0  0  0  0  0  0  0  0  0  0
  -25.4191  -37.1567   20.2658 C   0  0  0  0  0  0  0  0  0  0  0  0
  -25.7199  -29.8652   19.4751 C   0  0  0  0  0  0  0  0  0  0  0  0
  -26.0605  -35.9042   20.2199 C   0  0  0  0  0  0  0  0  0  0  0  0
  -25.7013  -29.1586   20.6860 C   0  0  0  0  0  0  0  0  0  0  0  0
  -30.1178  -19.4254   20.8007 C   0  0  0  0  0  0  0  0  0  0  0  0
  -28.7512  -19.2559   21.0228 C   0  0  0  0  0  0  0  0  0  0  0  0
  -29.7970  -21.8153   20.6510 C   0  0  0  0  0  0  0  0  0  0  0  0
  -27.9075  -20.3661   21.0590 C   0  0  0  0  0  0  0  0  0  0  0  0
  -23.0622  -11.9350   20.3870 C   0  0  0  0  0  0  0  0  0  0  0  0
  -27.5919  -27.8322   19.9270 C   0  0  0  0  0  0  0  0  0  0  0  0
  -23.1210   -9.5873   20.4712 C   0  0  0  0  0  0  0  0  0  0  0  0
  -22.6869   -7.2286   21.8963 C   0  0  0  0  0  0  0  0  0  0  0  0
  -21.8438   -9.2814   20.9411 C   0  0  0  0  0  0  0  0  0  0  0  0
  -22.2042  -15.5962   22.3254 C   0  0  0  0  0  0  0  0  0  0  0  0
  -21.4681  -17.1370   23.7108 C   0  0  0  0  0  0  0  0  0  0  0  0
  -32.7102  -23.4120   19.7991 C   0  0  0  0  0  0  0  0  0  0  0  0
  -29.5821  -24.1813   19.8817 C   0  0  0  0  0  0  0  0  0  0  0  0
  -20.7973  -14.8099   24.3297 C   0  0  0  0  0  0  0  0  0  0  0  0
  -25.0676  -32.4742   21.1696 C   0  0  0  0  0  0  0  0  0  0  0  0
  -22.5436  -30.7089   22.1875 C   0  0  0  0  0  0  0  0  0  0  0  0
  -21.1868  -27.6194   22.6980 C   0  0  0  0  0  0  0  0  0  0  0  0
  -25.5491  -21.2228   21.3494 C   0  0  0  0  0  0  0  0  0  0  0  0
  -24.5141  -37.5431   21.4088 C   0  0  0  0  0  0  0  0  0  0  0  0
  -24.7019  -30.9387   19.2038 C   0  0  0  0  0  0  0  0  0  0  0  0
  -24.6961  -29.4620   21.7658 C   0  0  0  0  0  0  0  0  0  0  0  0
  -31.7065  -23.3906   20.9260 C   0  0  0  0  0  0  0  0  0  0  0  0
  -24.0265  -36.3517   22.2292 C   0  0  0  0  0  0  0  0  0  0  0  0
  -21.8688  -21.1486   21.0210 C   0  0  0  0  0  0  0  0  0  0  0  0
  -25.1868  -35.4159   22.5531 C   0  0  0  0  0  0  0  0  0  0  0  0
  -21.4138  -19.8299   21.6480 C   0  0  0  0  0  0  0  0  0  0  0  0
  -23.1332  -21.7039   21.6618 C   0  0  0  0  0  0  0  0  0  0  0  0
  -31.3755  -25.1436   18.4406 C   0  0  0  0  0  0  0  0  0  0  0  0
  -23.9026  -19.3249   21.7994 C   0  0  0  0  0  0  0  0  0  0  0  0
  -25.8103  -34.8466   21.2730 C   0  0  1  0  0  0  0  0  0  0  0  0
  -30.3787  -25.4514   19.5593 C   0  0  1  0  0  0  0  0  0  0  0  0
  -24.1152  -31.5412   20.4766 C   0  0  1  0  0  0  0  0  0  0  0  0
  -22.5236  -19.1274   22.4479 C   0  0  2  0  0  0  0  0  0  0  0  0
  -31.0430  -18.2532   20.7567 C   0  0  0  0  0  0  0  0  0  0  0  0
  -28.1953  -17.8804   21.2215 C   0  0  0  0  0  0  0  0  0  0  0  0
  -19.1231  -26.4952   23.5782 C   0  0  0  0  0  0  0  0  0  0  0  0
  -23.4444  -31.2964   25.0429 C   0  0  0  0  0  0  0  0  0  0  0  0
  -21.9724  -29.4254   25.8180 C   0  0  0  0  0  0  0  0  0  0  0  0
  -20.9719  -31.4098   24.6848 C   0  0  0  0  0  0  0  0  0  0  0  0
  -20.6216  -26.3520   20.0839 C   0  0  0  0  0  0  0  0  0  0  0  0
  -29.4361  -26.5742   19.1071 C   0  0  0  0  0  0  0  0  0  1  0  0
  -22.3020  -29.7451   23.3240 C   0  0  1  0  0  0  0  0  0  0  0  0
  -19.8254  -27.0466   22.3472 C   0  0  2  0  0  0  0  0  0  0  0  0
  -22.1930  -30.4645   24.6981 C   0  0  0  0  0  0  0  0  0  0  0  0
  -22.6645  -16.7451   21.8233 N   0  0  0  0  0  0  0  0  0  0  0  0
  -22.2002  -17.6635   22.6875 N   0  0  0  0  0  0  0  0  0  0  0  0
  -32.5087  -24.2826   18.7585 N   0  0  0  0  0  0  0  0  0  0  0  0
  -30.3393  -23.1428   20.4592 N   0  0  0  0  0  0  0  0  0  0  0  0
  -23.7252  -30.5244   21.4556 N   0  0  0  0  0  0  0  0  0  0  0  0
  -24.2383  -20.7437   21.5898 N   0  0  0  0  0  0  0  0  0  0  0  0
  -20.9272  -17.9195   24.6686 N   0  0  0  0  0  0  0  0  0  0  0  0
  -19.4673  -14.4741   24.0420 N   0  0  0  0  0  0  0  0  0  0  0  0
  -26.5164  -20.2167   21.2844 N   0  0  0  0  0  0  0  0  0  0  0  0
  -24.9855  -33.7844   20.7383 N   0  0  0  0  0  0  0  0  0  0  0  0
  -21.1201  -28.9716   22.9591 N   0  0  0  0  0  0  0  0  0  0  0  0
  -19.9674  -25.9446   21.3540 N   0  3  0  0  0  0  0  0  0  0  0  0
  -33.7479  -22.7488   19.8867 O   0  0  0  0  0  0  0  0  0  0  0  0
  -28.3987  -24.1050   19.5466 O   0  0  0  0  0  0  0  0  0  0  0  0
  -21.3693  -14.2696   25.3067 O   0  0  0  0  0  0  0  0  0  0  0  0
  -25.8200  -32.0379   22.0329 O   0  0  0  0  0  0  0  0  0  0  0  0
  -21.7111  -31.5884   21.9530 O   0  0  0  0  0  0  0  0  0  0  0  0
  -22.2067  -26.9349   22.7402 O   0  0  0  0  0  0  0  0  0  0  0  0
  -25.7822  -22.4242   21.1997 O   0  0  0  0  0  0  0  0  0  0  0  0
  -23.3380  -10.7573   19.7629 O   0  0  0  0  0  0  0  0  0  0  0  0
  -28.5030  -26.8468   20.1518 O   0  0  0  0  0  0  0  0  0  1  0  0
  -22.4783   -6.0954   22.5792 F   0  0  0  0  0  0  0  0  0  0  0  0
  -20.8212  -10.1161   20.7101 F   0  0  0  0  0  0  0  0  0  0  0  0
  1  2  1  0  0  0  0
  1  5  2  0  0  0  0
  2  6  2  0  0  0  0
  3  8  2  0  0  0  0
  3 17  1  0  0  0  0
  4  9  1  0  0  0  0
  4 17  2  0  0  0  0
  5 19  1  0  0  0  0
  6 21  1  0  0  0  0
  7 10  2  0  0  0  0
  7 20  1  0  0  0  0
  8 27  1  0  0  0  0
  9 27  2  0  0  0  0
 10 28  1  0  0  0  0
 11 12  2  0  0  0  0
 11 29  1  0  0  0  0
 12 30  1  0  0  0  0
 13 22  1  0  0  0  0
 13 28  2  0  0  0  0
 14 23  2  0  0  0  0
 14 25  1  0  0  0  0
 15 25  2  0  0  0  0
 15 26  1  0  0  0  0
 16 30  2  0  0  0  0
 16 31  1  0  0  0  0
 17 32  1  0  0  0  0
 18 32  1  0  0  0  0
 18 33  2  0  0  0  0
 18 36  1  0  0  0  0
 19 21  2  0  0  0  0
 19 41  1  0  0  0  0
 20 22  2  0  0  0  0
 20 42  1  0  0  0  0
 21 52  1  0  0  0  0
 22 43  1  0  0  0  0
 23 24  1  0  0  0  0
 23 56  1  0  0  0  0
 24 26  2  0  0  0  0
 24 57  1  0  0  0  0
 25 70  1  0  0  0  0
 26 75  1  0  0  0  0
 27 86  1  0  0  0  0
 28 87  1  0  0  0  0
 29 31  2  0  0  0  0
 29 86  1  0  0  0  0
 30 88  1  0  0  0  0
 31 89  1  0  0  0  0
 32 67  2  0  0  0  0
 33 68  1  0  0  0  0
 33 73  1  0  0  0  0
 34 44  1  0  0  0  0
 34 69  1  0  0  0  0
 34 79  2  0  0  0  0
 35 53  1  0  0  0  0
 35 70  1  0  0  0  0
 35 80  2  0  0  0  0
 36 74  1  0  0  0  0
 36 81  2  0  0  0  0
 37 54  1  0  0  0  0
 37 76  1  0  0  0  0
 37 82  2  0  0  0  0
 38 64  1  0  0  0  0
 38 71  1  0  0  0  0
 38 83  2  0  0  0  0
 39 65  1  0  0  0  0
 39 77  1  0  0  0  0
 39 84  2  0  0  0  0
 40 72  1  0  0  0  0
 40 75  1  0  0  0  0
 40 85  2  0  0  0  0
 41 45  1  0  0  0  0
 42 54  1  0  0  0  0
 43 71  1  0  0  0  0
 44 70  1  0  0  0  0
 45 47  1  0  0  0  0
 46 48  1  0  0  0  0
 46 49  1  0  0  0  0
 47 52  1  0  0  0  0
 48 55  1  0  0  0  0
 49 72  1  0  0  0  0
 50 53  1  0  0  0  0
 50 69  1  0  0  0  0
 51 55  1  0  0  0  0
 51 72  1  0  0  0  0
 52 76  1  0  0  0  0
 53 63  1  0  0  0  0
 54 71  1  0  0  0  0
 55 68  1  0  0  0  0
 58 65  1  0  0  0  0
 59 66  1  0  0  0  0
 60 66  1  0  0  0  0
 61 66  1  0  0  0  0
 62 78  1  0  0  0  0
 63 87  1  0  0  0  0
 64 66  1  0  0  0  0
 64 77  1  0  0  0  0
 65 78  1  0  0  0  0
 67 68  1  0  0  0  0
M  CHG  1  78   1
M  ISO  4  40 100  63 101  75 100  87 101
M  END
> <Batch ID>
0060

> <Smiles>
CNC(C)C(=O)NC(C(=O)N1Cc2cc([101O:1][101CH2:1]C3CNC(=O)CN(c4cc(C)c(C)c([100NH:0][100C:0](=O)N5CCCC(n6nc(-c7ccc(Oc8ccc(F)cc8F)cc7)c(C(N)=O)c6N)C5)c4)C3=O)ccc2CC1C(=O)NC1CCCc2ccccc21)C(C)(C)C

> <Shape>
0.254

> <Color>
0.061

> <Negative vol penalty>
0.000

$$$$

  -OEChem-04042323043D

 86 95  0     1  0  0  0  0  0999 V2000
  -29.3340  -30.8040   26.8737 C   0  0  0  0  0  0  0  0  0  0  0  0
  -28.8213  -29.7985   26.0604 C   0  0  0  0  0  0  0  0  0  0  0  0
  -24.7213  -15.4488   23.7107 C   0  0  0  0  0  0  0  0  0  0  0  0
  -24.4655  -16.5310   21.5658 C   0  0  0  0  0  0  0  0  0  0  0  0
  -28.5503  -31.9140   27.1858 C   0  0  0  0  0  0  0  0  0  0  0  0
  -27.5241  -29.9020   25.5595 C   0  0  0  0  0  0  0  0  0  0  0  0
  -27.2350  -28.6944   20.6500 C   0  0  0  0  0  0  0  0  0  0  0  0
  -24.3273  -16.6238   24.3506 C   0  0  0  0  0  0  0  0  0  0  0  0
  -24.0714  -17.7061   22.2057 C   0  0  0  0  0  0  0  0  0  0  0  0
  -27.2441  -27.3383   20.3263 C   0  0  0  0  0  0  0  0  0  0  0  0
  -25.5521  -20.2756   23.8293 C   0  0  0  0  0  0  0  0  0  0  0  0
  -26.1105  -21.4741   23.3850 C   0  0  0  0  0  0  0  0  0  0  0  0
  -24.8455  -27.3884   20.0752 C   0  0  0  0  0  0  0  0  0  0  0  0
  -30.6482  -20.6923   19.6449 C   0  0  0  0  0  0  0  0  0  0  0  0
  -31.4570  -18.4357   19.9459 C   0  0  0  0  0  0  0  0  0  0  0  0
  -29.2162  -18.8166   19.1269 C   0  0  0  0  0  0  0  0  0  0  0  0
  -23.9059  -22.3001   22.8423 C   0  0  0  0  0  0  0  0  0  0  0  0
  -24.7904  -15.4023   22.3182 C   0  0  0  0  0  0  0  0  0  0  0  0
  -24.5715  -12.9302   21.7280 C   0  0  0  0  0  0  0  0  0  0  0  0
  -27.2462  -32.0358   26.6807 C   0  0  0  0  0  0  0  0  0  0  0  0
  -26.0279  -29.4063   20.6995 C   0  0  0  0  0  0  0  0  0  0  0  0
  -26.7217  -31.0141   25.8663 C   0  0  0  0  0  0  0  0  0  0  0  0
  -24.8240  -28.7540   20.3973 C   0  0  0  0  0  0  0  0  0  0  0  0
  -31.6647  -19.8131   20.0183 C   0  0  0  0  0  0  0  0  0  0  0  0
  -29.4239  -20.1940   19.1993 C   0  0  0  0  0  0  0  0  0  0  0  0
  -30.2327  -17.9374   19.5003 C   0  0  0  0  0  0  0  0  0  0  0  0
  -24.0023  -17.7525   23.5981 C   0  0  0  0  0  0  0  0  0  0  0  0
  -26.0489  -26.6844   20.0416 C   0  0  0  0  0  0  0  0  0  0  0  0
  -24.1705  -20.0893   23.7800 C   0  0  0  0  0  0  0  0  0  0  0  0
  -25.2874  -22.4863   22.8915 C   0  0  0  0  0  0  0  0  0  0  0  0
  -23.3475  -21.1016   23.2866 C   0  0  0  0  0  0  0  0  0  0  0  0
  -25.1979  -14.1889   21.6566 C   0  0  0  0  0  0  0  0  0  0  0  0
  -25.3388  -12.1191   20.9281 C   0  0  0  0  0  0  0  0  0  0  0  0
  -27.4327  -20.7465   17.8282 C   0  0  0  0  0  0  0  0  0  0  0  0
  -23.4007  -12.5300   22.4524 C   0  0  0  0  0  0  0  0  0  0  0  0
  -24.4325  -30.9620   22.9663 C   0  0  0  0  0  0  0  0  0  0  0  0
  -22.5039  -31.7930   20.4940 C   0  0  0  0  0  0  0  0  0  0  0  0
  -21.3265  -31.0795   17.3713 C   0  0  0  0  0  0  0  0  0  0  0  0
  -28.8687  -15.8667   19.0092 C   0  0  0  0  0  0  0  0  0  0  0  0
  -26.4201  -33.2315   27.0841 C   0  0  0  0  0  0  0  0  0  0  0  0
  -26.0379  -30.8749   21.0243 C   0  0  0  0  0  0  0  0  0  0  0  0
  -23.5033  -29.4778   20.4167 C   0  0  0  0  0  0  0  0  0  0  0  0
  -26.2001  -21.6239   17.7169 C   0  0  0  0  0  0  0  0  0  0  0  0
  -25.1887  -33.4448   26.2076 C   0  0  0  0  0  0  0  0  0  0  0  0
  -26.4516  -23.0911   17.9870 C   0  0  0  0  0  0  0  0  0  0  0  0
  -29.9809  -12.2224   19.5993 C   0  0  0  0  0  0  0  0  0  0  0  0
  -24.4448  -32.1289   26.0028 C   0  0  0  0  0  0  0  0  0  0  0  0
  -28.6570  -11.9059   20.2836 C   0  0  0  0  0  0  0  0  0  0  0  0
  -30.1773  -13.7327   19.4998 C   0  0  0  0  0  0  0  0  0  0  0  0
  -28.4457  -22.4855   19.3288 C   0  0  0  0  0  0  0  0  0  0  0  0
  -27.8719  -13.6357   18.5468 C   0  0  0  0  0  0  0  0  0  0  0  0
  -25.3278  -31.1021   25.2835 C   0  0  1  0  0  0  0  0  0  0  0  0
  -24.6969  -31.3802   21.5475 C   0  0  1  0  0  0  0  0  0  0  0  0
  -27.1134  -23.2335   19.3477 C   0  0  1  0  0  0  0  0  0  0  0  0
  -27.4641  -12.5014   19.5093 C   0  0  2  0  0  0  0  0  0  0  0  0
  -32.9733  -20.3464   20.4961 C   0  0  0  0  0  0  0  0  0  0  0  0
  -19.7304  -31.9221   15.6277 C   0  0  0  0  0  0  0  0  0  0  0  0
  -20.1588  -30.7251   22.1281 C   0  0  0  0  0  0  0  0  0  0  0  0
  -18.7942  -30.7082   20.0290 C   0  0  0  0  0  0  0  0  0  0  0  0
  -19.6958  -32.8603   20.9111 C   0  0  0  0  0  0  0  0  0  0  0  0
  -23.4986  -31.4500   15.3956 C   0  0  0  0  0  0  0  0  0  0  0  0
  -27.3215  -24.7037   19.7051 C   0  0  0  0  0  0  0  0  0  1  0  0
  -21.2760  -31.1971   19.8488 C   0  0  1  0  0  0  0  0  0  0  0  0
  -21.1643  -31.9441   16.1341 C   0  0  2  0  0  0  0  0  0  0  0  0
  -20.0057  -31.3583   20.7307 C   0  0  0  0  0  0  0  0  0  0  0  0
  -26.2799  -14.1828   20.8735 N   0  0  0  0  0  0  0  0  0  0  0  0
  -26.3394  -12.9103   20.4454 N   0  0  0  0  0  0  0  0  0  0  0  0
  -28.3694  -21.1068   18.8122 N   0  0  0  0  0  0  0  0  0  0  0  0
  -23.5645  -30.9114   20.7461 N   0  0  0  0  0  0  0  0  0  0  0  0
  -28.9763  -14.4542   19.0537 N   0  0  0  0  0  0  0  0  0  0  0  0
  -25.2485  -10.8133   20.5977 N   0  0  0  0  0  0  0  0  0  0  0  0
  -22.1546  -12.6372   21.8200 N   0  0  0  0  0  0  0  0  0  0  0  0
  -30.0210  -16.5374   19.4280 N   0  0  0  0  0  0  0  0  0  0  0  0
  -25.3884  -31.3917   23.8669 N   0  0  0  0  0  0  0  0  0  0  0  0
  -21.1695  -31.8109   18.5296 N   0  0  0  0  0  0  0  0  0  0  0  0
  -22.0556  -31.4590   15.0427 N   0  3  0  0  0  0  0  0  0  0  0  0
  -27.5049  -19.7532   17.0994 O   0  0  0  0  0  0  0  0  0  0  0  0
  -23.4563  -12.1059   23.6316 O   0  0  0  0  0  0  0  0  0  0  0  0
  -23.4344  -30.2998   23.2250 O   0  0  0  0  0  0  0  0  0  0  0  0
  -22.5240  -32.9979   20.7579 O   0  0  0  0  0  0  0  0  0  0  0  0
  -21.5646  -29.8751   17.3157 O   0  0  0  0  0  0  0  0  0  0  0  0
  -27.8389  -16.4262   18.6268 O   0  0  0  0  0  0  0  0  0  0  0  0
  -23.6176  -18.8992   24.2222 O   0  0  0  0  0  0  0  0  0  0  0  0
  -26.0549  -25.3607   19.7260 O   0  0  0  0  0  0  0  0  0  1  0  0
  -25.8237  -23.6378   22.4664 F   0  0  0  0  0  0  0  0  0  0  0  0
  -22.0194  -20.9289   23.2379 F   0  0  0  0  0  0  0  0  0  0  0  0
  1  2  1  0  0  0  0
  1  5  2  0  0  0  0
  2  6  2  0  0  0  0
  3  8  2  0  0  0  0
  3 18  1  0  0  0  0
  4  9  1  0  0  0  0
  4 18  2  0  0  0  0
  5 20  1  0  0  0  0
  6 22  1  0  0  0  0
  7 10  2  0  0  0  0
  7 21  1  0  0  0  0
  8 27  1  0  0  0  0
  9 27  2  0  0  0  0
 10 28  1  0  0  0  0
 11 12  2  0  0  0  0
 11 29  1  0  0  0  0
 12 30  1  0  0  0  0
 13 23  1  0  0  0  0
 13 28  2  0  0  0  0
 14 24  2  0  0  0  0
 14 25  1  0  0  0  0
 15 24  1  0  0  0  0
 15 26  2  0  0  0  0
 16 25  2  0  0  0  0
 16 26  1  0  0  0  0
 17 30  2  0  0  0  0
 17 31  1  0  0  0  0
 18 32  1  0  0  0  0
 19 32  1  0  0  0  0
 19 33  2  0  0  0  0
 19 35  1  0  0  0  0
 20 22  2  0  0  0  0
 20 40  1  0  0  0  0
 21 23  2  0  0  0  0
 21 41  1  0  0  0  0
 22 52  1  0  0  0  0
 23 42  1  0  0  0  0
 24 56  1  0  0  0  0
 25 68  1  0  0  0  0
 26 73  1  0  0  0  0
 27 83  1  0  0  0  0
 28 84  1  0  0  0  0
 29 31  2  0  0  0  0
 29 83  1  0  0  0  0
 30 85  1  0  0  0  0
 31 86  1  0  0  0  0
 32 66  2  0  0  0  0
 33 67  1  0  0  0  0
 33 71  1  0  0  0  0
 34 43  1  0  0  0  0
 34 68  1  0  0  0  0
 34 77  2  0  0  0  0
 35 72  1  0  0  0  0
 35 78  2  0  0  0  0
 36 53  1  0  0  0  0
 36 74  1  0  0  0  0
 36 79  2  0  0  0  0
 37 63  1  0  0  0  0
 37 69  1  0  0  0  0
 37 80  2  0  0  0  0
 38 64  1  0  0  0  0
 38 75  1  0  0  0  0
 38 81  2  0  0  0  0
 39 70  1  0  0  0  0
 39 73  1  0  0  0  0
 39 82  2  0  0  0  0
 40 44  1  0  0  0  0
 41 53  1  0  0  0  0
 42 69  1  0  0  0  0
 43 45  1  0  0  0  0
 44 47  1  0  0  0  0
 45 54  1  0  0  0  0
 46 48  1  0  0  0  0
 46 49  1  0  0  0  0
 47 52  1  0  0  0  0
 48 55  1  0  0  0  0
 49 70  1  0  0  0  0
 50 54  1  0  0  0  0
 50 68  1  0  0  0  0
 51 55  1  0  0  0  0
 51 70  1  0  0  0  0
 52 74  1  0  0  0  0
 53 69  1  0  0  0  0
 54 62  1  0  0  0  0
 55 67  1  0  0  0  0
 57 64  1  0  0  0  0
 58 65  1  0  0  0  0
 59 65  1  0  0  0  0
 60 65  1  0  0  0  0
 61 76  1  0  0  0  0
 62 84  1  0  0  0  0
 63 65  1  0  0  0  0
 63 75  1  0  0  0  0
 64 76  1  0  0  0  0
 66 67  1  0  0  0  0
M  CHG  1  76   1
M  ISO  4  39 100  62 101  73 100  84 101
M  END
> <Batch ID>
0060

> <Smiles>
CNC(C)C(=O)NC(C(=O)N1Cc2cc([101O:1][101CH2:1]C3CCC(=O)N(c4cc(C)cc([100NH:0][100C:0](=O)N5CCCC(n6nc(-c7ccc(Oc8ccc(F)cc8F)cc7)c(C(N)=O)c6N)C5)c4)C3)ccc2CC1C(=O)NC1CCCc2ccccc21)C(C)(C)C

> <Shape>
0.243

> <Color>
0.092

> <Negative vol penalty>
0.000

$$$$

  -OEChem-04042323043D

 82 90  0     1  0  0  0  0  0999 V2000
  -17.1062  -30.2538   22.5694 C   0  0  0  0  0  0  0  0  0  0  0  0
  -18.3735  -29.7273   22.3407 C   0  0  0  0  0  0  0  0  0  0  0  0
  -32.6474  -18.2978   21.8081 C   0  0  0  0  0  0  0  0  0  0  0  0
  -23.0696   -9.9124   21.4599 C   0  0  0  0  0  0  0  0  0  0  0  0
  -23.8459  -10.7726   23.5800 C   0  0  0  0  0  0  0  0  0  0  0  0
  -16.4125  -29.9181   23.7312 C   0  0  0  0  0  0  0  0  0  0  0  0
  -18.9482  -28.8658   23.2744 C   0  0  0  0  0  0  0  0  0  0  0  0
  -22.6124  -24.0971   22.1167 C   0  0  0  0  0  0  0  0  0  0  0  0
  -31.8524  -19.3801   22.1850 C   0  0  0  0  0  0  0  0  0  0  0  0
  -32.0556  -17.1404   21.3021 C   0  0  0  0  0  0  0  0  0  0  0  0
  -22.3309   -8.9352   22.1269 C   0  0  0  0  0  0  0  0  0  0  0  0
  -23.1072   -9.7953   24.2470 C   0  0  0  0  0  0  0  0  0  0  0  0
  -23.9982  -23.9486   22.1527 C   0  0  0  0  0  0  0  0  0  0  0  0
  -22.9150   -5.9635   23.6276 C   0  0  0  0  0  0  0  0  0  0  0  0
  -22.9781   -4.6585   23.1392 C   0  0  0  0  0  0  0  0  0  0  0  0
  -23.8380  -23.0508   24.3859 C   0  0  0  0  0  0  0  0  0  0  0  0
  -29.8737  -18.1477   21.5500 C   0  0  0  0  0  0  0  0  0  0  0  0
  -20.5906   -4.6814   22.7695 C   0  0  0  0  0  0  0  0  0  0  0  0
  -23.8272  -10.8311   22.1865 C   0  0  0  0  0  0  0  0  0  0  0  0
  -24.1608  -13.1302   21.1325 C   0  0  0  0  0  0  0  0  0  0  0  0
  -16.9750  -29.0444   24.6750 C   0  0  0  0  0  0  0  0  0  0  0  0
  -21.8287  -23.7331   23.2211 C   0  0  0  0  0  0  0  0  0  0  0  0
  -18.2619  -28.5192   24.4506 C   0  0  0  0  0  0  0  0  0  0  0  0
  -22.4422  -23.1933   24.3605 C   0  0  0  0  0  0  0  0  0  0  0  0
  -30.4655  -19.3051   22.0560 C   0  0  0  0  0  0  0  0  0  0  0  0
  -30.6687  -17.0654   21.1731 C   0  0  0  0  0  0  0  0  0  0  0  0
  -22.3497   -8.8766   23.5204 C   0  0  0  0  0  0  0  0  0  0  0  0
  -24.6115  -23.4281   23.2885 C   0  0  0  0  0  0  0  0  0  0  0  0
  -21.6897   -6.6274   23.6871 C   0  0  0  0  0  0  0  0  0  0  0  0
  -21.8160   -4.0174   22.7101 C   0  0  0  0  0  0  0  0  0  0  0  0
  -20.5275   -5.9864   23.2580 C   0  0  0  0  0  0  0  0  0  0  0  0
  -24.5909  -11.8405   21.4981 C   0  0  0  0  0  0  0  0  0  0  0  0
  -25.2481  -13.6906   20.5080 C   0  0  0  0  0  0  0  0  0  0  0  0
  -27.8037  -21.8214   22.8732 C   0  0  0  0  0  0  0  0  0  0  0  0
  -26.4965  -22.1013   22.8922 C   0  0  0  0  0  0  0  0  0  1  0  0
  -22.8919  -13.7648   21.3392 C   0  0  0  0  0  0  0  0  0  0  0  0
  -28.2746  -20.4957   22.3764 C   0  0  0  0  0  0  0  0  0  0  0  0
  -19.8811  -25.2831   25.1981 C   0  0  0  0  0  0  0  0  0  0  0  0
  -19.2839  -22.3002   26.3242 C   0  0  0  0  0  0  0  0  0  0  0  0
  -20.3490  -19.0804   26.7059 C   0  0  0  0  0  0  0  0  0  0  0  0
  -30.7124  -14.7263   20.2387 C   0  0  0  0  0  0  0  0  0  0  0  0
  -16.2065  -28.7481   25.9385 C   0  0  0  0  0  0  0  0  0  0  0  0
  -20.3326  -23.8747   23.1564 C   0  0  0  0  0  0  0  0  0  0  0  0
  -21.6440  -22.7683   25.5650 C   0  0  0  0  0  0  0  0  0  0  0  0
  -16.7305  -27.5329   26.6993 C   0  0  0  0  0  0  0  0  0  0  0  0
  -29.5881  -11.6044   18.9477 C   0  0  0  0  0  0  0  0  0  0  0  0
  -18.2506  -27.5888   26.8128 C   0  0  0  0  0  0  0  0  0  0  0  0
  -28.1524  -11.4936   19.4661 C   0  0  0  0  0  0  0  0  0  0  0  0
  -30.5111  -12.2640   19.9708 C   0  0  0  0  0  0  0  0  0  0  0  0
  -28.6120  -13.4505   20.9978 C   0  0  0  0  0  0  0  0  0  0  0  0
  -18.9086  -27.5617   25.4280 C   0  0  1  0  0  0  0  0  0  0  0  0
  -19.6795  -23.9509   24.5330 C   0  0  1  0  0  0  0  0  0  0  0  0
  -27.6313  -12.8513   19.9767 C   0  0  2  0  0  0  0  0  0  0  0  0
  -19.6599  -16.8826   27.7020 C   0  0  0  0  0  0  0  0  0  0  0  0
  -19.9720  -23.3481   29.1060 C   0  0  0  0  0  0  0  0  0  0  0  0
  -20.1957  -20.9740   29.8688 C   0  0  0  0  0  0  0  0  0  0  0  0
  -18.0011  -21.8106   29.0284 C   0  0  0  0  0  0  0  0  0  0  0  0
  -20.3871  -17.7405   24.0673 C   0  0  0  0  0  0  0  0  0  0  0  0
  -19.8877  -21.4196   27.3914 C   0  0  1  0  0  0  0  0  0  0  0  0
  -19.6552  -17.7536   26.4554 C   0  0  2  0  0  0  0  0  0  0  0  0
  -19.5296  -21.8978   28.8269 C   0  0  0  0  0  0  0  0  0  0  0  0
  -25.8530  -11.5959   21.1357 N   0  0  0  0  0  0  0  0  0  0  0  0
  -26.2253  -12.7395   20.5360 N   0  0  0  0  0  0  0  0  0  0  0  0
  -20.1850  -22.9323   25.4556 N   0  0  0  0  0  0  0  0  0  0  0  0
  -29.9554  -13.5474   20.4057 N   0  0  0  0  0  0  0  0  0  0  0  0
  -25.4542  -14.8992   19.9430 N   0  0  0  0  0  0  0  0  0  0  0  0
  -21.8850  -13.0465   21.9984 N   0  0  0  0  0  0  0  0  0  0  0  0
  -29.6588  -20.4049   22.4385 N   0  0  0  0  0  0  0  0  0  0  0  0
  -30.0682  -15.8895   20.6590 N   0  0  0  0  0  0  0  0  0  0  0  0
  -18.9084  -26.2164   24.8945 N   0  0  0  0  0  0  0  0  0  0  0  0
  -19.4565  -20.0588   27.0900 N   0  0  0  0  0  0  0  0  0  0  0  0
  -20.3395  -17.0100   25.3600 N   0  3  0  0  0  0  0  0  0  0  0  0
  -22.6524  -14.9283   20.9362 O   0  0  0  0  0  0  0  0  0  0  0  0
  -27.4831  -19.6478   21.9811 O   0  0  0  0  0  0  0  0  0  0  0  0
  -20.8468  -25.4513   25.9335 O   0  0  0  0  0  0  0  0  0  0  0  0
  -18.0577  -22.4171   26.2590 O   0  0  0  0  0  0  0  0  0  0  0  0
  -21.5618  -19.2327   26.5775 O   0  0  0  0  0  0  0  0  0  0  0  0
  -31.8376  -14.7089   19.7332 O   0  0  0  0  0  0  0  0  0  0  0  0
  -21.6288   -7.9233   24.1716 O   0  0  0  0  0  0  0  0  0  0  0  0
  -25.9640  -23.2826   23.3264 O   0  0  0  0  0  0  0  0  0  1  0  0
  -21.8769   -2.7648   22.2396 F   0  0  0  0  0  0  0  0  0  0  0  0
  -19.3477   -6.6195   23.3116 F   0  0  0  0  0  0  0  0  0  0  0  0
  1  2  1  0  0  0  0
  1  6  2  0  0  0  0
  2  7  2  0  0  0  0
  3  9  2  0  0  0  0
  3 10  1  0  0  0  0
  4 11  2  0  0  0  0
  4 19  1  0  0  0  0
  5 12  1  0  0  0  0
  5 19  2  0  0  0  0
  6 21  1  0  0  0  0
  7 23  1  0  0  0  0
  8 13  2  0  0  0  0
  8 22  1  0  0  0  0
  9 25  1  0  0  0  0
 10 26  2  0  0  0  0
 11 27  1  0  0  0  0
 12 27  2  0  0  0  0
 13 28  1  0  0  0  0
 14 15  2  0  0  0  0
 14 29  1  0  0  0  0
 15 30  1  0  0  0  0
 16 24  1  0  0  0  0
 16 28  2  0  0  0  0
 17 25  2  0  0  0  0
 17 26  1  0  0  0  0
 18 30  2  0  0  0  0
 18 31  1  0  0  0  0
 19 32  1  0  0  0  0
 20 32  1  0  0  0  0
 20 33  2  0  0  0  0
 20 36  1  0  0  0  0
 21 23  2  0  0  0  0
 21 42  1  0  0  0  0
 22 24  2  0  0  0  0
 22 43  1  0  0  0  0
 23 51  1  0  0  0  0
 24 44  1  0  0  0  0
 25 68  1  0  0  0  0
 26 69  1  0  0  0  0
 27 79  1  0  0  0  0
 28 80  1  0  0  0  0
 29 31  2  0  0  0  0
 29 79  1  0  0  0  0
 30 81  1  0  0  0  0
 31 82  1  0  0  0  0
 32 62  2  0  0  0  0
 33 63  1  0  0  0  0
 33 66  1  0  0  0  0
 34 35  2  0  0  0  0
 34 37  1  0  0  0  0
 35 80  1  0  0  0  0
 36 67  1  0  0  0  0
 36 73  2  0  0  0  0
 37 68  1  0  0  0  0
 37 74  2  0  0  0  0
 38 52  1  0  0  0  0
 38 70  1  0  0  0  0
 38 75  2  0  0  0  0
 39 59  1  0  0  0  0
 39 64  1  0  0  0  0
 39 76  2  0  0  0  0
 40 60  1  0  0  0  0
 40 71  1  0  0  0  0
 40 77  2  0  0  0  0
 41 65  1  0  0  0  0
 41 69  1  0  0  0  0
 41 78  2  0  0  0  0
 42 45  1  0  0  0  0
 43 52  1  0  0  0  0
 44 64  1  0  0  0  0
 45 47  1  0  0  0  0
 46 48  1  0  0  0  0
 46 49  1  0  0  0  0
 47 51  1  0  0  0  0
 48 53  1  0  0  0  0
 49 65  1  0  0  0  0
 50 53  1  0  0  0  0
 50 65  1  0  0  0  0
 51 70  1  0  0  0  0
 52 64  1  0  0  0  0
 53 63  1  0  0  0  0
 54 60  1  0  0  0  0
 55 61  1  0  0  0  0
 56 61  1  0  0  0  0
 57 61  1  0  0  0  0
 58 72  1  0  0  0  0
 59 61  1  0  0  0  0
 59 71  1  0  0  0  0
 60 72  1  0  0  0  0
 62 63  1  0  0  0  0
M  CHG  1  72   1
M  ISO  4  35 101  41 100  69 100  80 101
M  END
> <Batch ID>
0060

> <Smiles>
CNC(C)C(=O)NC(C(=O)N1Cc2cc([101O:1][101CH:1]=CC(=O)Nc3cccc([100NH:0][100C:0](=O)N4CCCC(n5nc(-c6ccc(Oc7ccc(F)cc7F)cc6)c(C(N)=O)c5N)C4)c3)ccc2CC1C(=O)NC1CCCc2ccccc21)C(C)(C)C

> <Shape>
0.193

> <Color>
0.175

> <Negative vol penalty>
0.000

$$$$

  -OEChem-04042323043D

 87 95  0     1  0  0  0  0  0999 V2000
  -23.3841  -33.8501   27.7504 C   0  0  0  0  0  0  0  0  0  0  0  0
  -24.4391  -33.1751   27.1447 C   0  0  0  0  0  0  0  0  0  0  0  0
  -29.5313  -21.7668   17.0671 C   0  0  0  0  0  0  0  0  0  0  0  0
  -23.6568  -10.4691   23.5294 C   0  0  0  0  0  0  0  0  0  0  0  0
  -23.7761  -12.3594   25.0294 C   0  0  0  0  0  0  0  0  0  0  0  0
  -29.0676  -20.6560   17.7718 C   0  0  0  0  0  0  0  0  0  0  0  0
  -22.0764  -33.4007   27.5719 C   0  0  0  0  0  0  0  0  0  0  0  0
  -24.1871  -32.0496   26.3611 C   0  0  0  0  0  0  0  0  0  0  0  0
  -27.2196  -30.3106   21.3326 C   0  0  0  0  0  0  0  0  0  0  0  0
  -30.5360  -22.5677   17.6103 C   0  0  0  0  0  0  0  0  0  0  0  0
  -22.9844   -9.7358   24.5070 C   0  0  0  0  0  0  0  0  0  0  0  0
  -23.1036  -11.6261   26.0070 C   0  0  0  0  0  0  0  0  0  0  0  0
  -28.2339  -29.3770   21.1248 C   0  0  0  0  0  0  0  0  0  0  0  0
  -19.8443   -9.5255   25.7434 C   0  0  0  0  0  0  0  0  0  0  0  0
  -18.7235   -8.7948   25.3491 C   0  0  0  0  0  0  0  0  0  0  0  0
  -26.5856  -27.7394   20.4765 C   0  0  0  0  0  0  0  0  0  0  0  0
  -19.7933   -6.7572   26.0846 C   0  0  0  0  0  0  0  0  0  0  0  0
  -24.0528  -11.7809   23.7906 C   0  0  0  0  0  0  0  0  0  0  0  0
  -29.6084  -20.3460   19.0196 C   0  0  0  0  0  0  0  0  0  0  0  0
  -24.1768  -13.3606   21.7914 C   0  0  0  0  0  0  0  0  0  0  0  0
  -21.8073  -32.2748   26.7778 C   0  0  0  0  0  0  0  0  0  0  0  0
  -25.8775  -29.9618   21.1240 C   0  0  0  0  0  0  0  0  0  0  0  0
  -22.8747  -31.5839   26.1729 C   0  0  0  0  0  0  0  0  0  0  0  0
  -25.5563  -28.6711   20.6799 C   0  0  0  0  0  0  0  0  0  0  0  0
  -31.0768  -22.2578   18.8581 C   0  0  0  0  0  0  0  0  0  0  0  0
  -30.6130  -21.1469   19.5628 C   0  0  0  0  0  0  0  0  0  0  0  0
  -22.7077  -10.3143   25.7457 C   0  0  0  0  0  0  0  0  0  0  0  0
  -27.9168  -28.0903   20.6995 C   0  0  0  0  0  0  0  0  0  0  0  0
  -20.9397   -8.8721   26.3082 C   0  0  0  0  0  0  0  0  0  0  0  0
  -18.6980   -7.4106   25.5198 C   0  0  0  0  0  0  0  0  0  0  0  0
  -20.9141   -7.4880   26.4788 C   0  0  0  0  0  0  0  0  0  0  0  0
  -24.7480  -12.5387   22.7814 C   0  0  0  0  0  0  0  0  0  0  0  0
  -25.2513  -13.8505   21.0900 C   0  0  0  0  0  0  0  0  0  0  0  0
  -29.0935  -19.1529   19.7472 C   0  0  0  0  0  0  0  0  0  0  0  0
  -22.7983  -13.6550   21.5294 C   0  0  0  0  0  0  0  0  0  0  0  0
  -23.2895  -29.8020   22.9627 C   0  0  0  0  0  0  0  0  0  0  0  0
  -21.8037  -29.1830   20.1464 C   0  0  0  0  0  0  0  0  0  0  0  0
  -31.1170  -25.2488   20.2295 C   0  0  0  0  0  0  0  0  0  0  0  0
  -22.0340  -28.0392   16.9393 C   0  0  0  0  0  0  0  0  0  0  0  0
  -30.3543  -16.0674   20.9198 C   0  0  0  0  0  0  0  0  0  0  0  0
  -20.3817  -31.7986   26.6527 C   0  0  0  0  0  0  0  0  0  0  0  0
  -24.7971  -30.9884   21.3269 C   0  0  0  0  0  0  0  0  0  0  0  0
  -24.1326  -28.2526   20.4220 C   0  0  0  0  0  0  0  0  0  0  0  0
  -20.1654  -30.8194   25.5018 C   0  0  0  0  0  0  0  0  0  0  0  0
  -30.1359  -12.5369   21.2003 C   0  0  0  0  0  0  0  0  0  0  0  0
  -21.2533  -29.7501   25.4991 C   0  0  0  0  0  0  0  0  0  0  0  0
  -28.6695  -12.2874   21.5576 C   0  0  0  0  0  0  0  0  0  0  0  0
  -30.6712  -13.8011   21.8692 C   0  0  0  0  0  0  0  0  0  0  0  0
  -28.4081  -14.7687   21.9800 C   0  0  0  0  0  0  0  0  0  0  0  0
  -22.6393  -30.3737   25.2953 C   0  0  1  0  0  0  0  0  0  0  0  0
  -23.4251  -30.3703   21.5784 C   0  0  1  0  0  0  0  0  0  0  0  0
  -27.8064  -13.5344   21.2862 C   0  0  2  0  0  0  0  0  0  0  0  0
  -31.1958  -20.8172   20.9010 C   0  0  0  0  0  0  0  0  0  0  0  0
  -27.6190  -19.1259   20.0997 C   0  0  0  0  0  0  0  0  0  0  0  0
  -20.6432  -27.6181   14.8934 C   0  0  0  0  0  0  0  0  0  0  0  0
  -20.6495  -26.6772   21.4497 C   0  0  0  0  0  0  0  0  0  0  0  0
  -20.0836  -25.8324   19.1618 C   0  0  0  0  0  0  0  0  0  0  0  0
  -19.0424  -27.9364   20.0053 C   0  0  0  0  0  0  0  0  0  0  0  0
  -23.6177  -29.9504   15.3275 C   0  0  0  0  0  0  0  0  0  0  0  0
  -32.1584  -23.1348   19.4193 C   0  0  0  0  0  0  0  0  0  0  0  0
  -30.6858  -25.9246   21.5217 C   0  0  0  0  0  0  0  0  0  0  0  0
  -30.0790  -27.3012   21.2982 C   0  0  0  0  0  0  0  0  0  1  0  0
  -21.4860  -27.9362   19.3566 C   0  0  1  0  0  0  0  0  0  0  0  0
  -21.5302  -28.6121   15.6269 C   0  0  2  0  0  0  0  0  0  0  0  0
  -20.3422  -27.1025   20.0000 C   0  0  0  0  0  0  0  0  0  0  0  0
  -26.0817  -12.5057   22.7178 N   0  0  0  0  0  0  0  0  0  0  0  0
  -29.9381  -18.2070   20.0363 N   0  0  0  0  0  0  0  0  0  0  0  0
  -26.3576  -13.3129   21.6793 N   0  0  0  0  0  0  0  0  0  0  0  0
  -23.1113  -29.2902   20.6407 N   0  0  0  0  0  0  0  0  0  0  0  0
  -29.8091  -14.9464   21.5675 N   0  0  0  0  0  0  0  0  0  0  0  0
  -25.3482  -14.6843   20.0327 N   0  0  0  0  0  0  0  0  0  0  0  0
  -21.8226  -13.0674   22.3462 N   0  0  0  0  0  0  0  0  0  0  0  0
  -22.8421  -30.7108   23.9026 N   0  0  0  0  0  0  0  0  0  0  0  0
  -31.6653  -23.9970   20.4692 N   0  0  0  0  0  0  0  0  0  0  0  0
  -21.2109  -28.3758   17.9930 N   0  0  0  0  0  0  0  0  0  0  0  0
  -29.4691  -17.1037   20.6649 N   0  0  0  0  0  0  0  0  0  0  0  0
  -22.6760  -28.9625   14.7408 N   0  3  0  0  0  0  0  0  0  0  0  0
  -22.4414  -14.4035   20.5882 O   0  0  0  0  0  0  0  0  0  0  0  0
  -23.5686  -28.6257   23.1629 O   0  0  0  0  0  0  0  0  0  0  0  0
  -20.9260  -30.0338   20.3123 O   0  0  0  0  0  0  0  0  0  0  0  0
  -30.9865  -25.7653   19.1231 O   0  0  0  0  0  0  0  0  0  0  0  0
  -23.0536  -27.3578   17.0209 O   0  0  0  0  0  0  0  0  0  0  0  0
  -31.5431  -16.1342   20.5879 O   0  0  0  0  0  0  0  0  0  0  0  0
  -22.0513   -9.5991   26.6998 O   0  0  0  0  0  0  0  0  0  0  0  0
  -28.9049  -27.1769   20.4966 O   0  0  0  0  0  0  0  0  0  1  0  0
  -17.6210   -6.7092   25.1426 F   0  0  0  0  0  0  0  0  0  0  0  0
  -21.9629   -6.8548   27.0220 F   0  0  0  0  0  0  0  0  0  0  0  0
  1  2  1  0  0  0  0
  1  7  2  0  0  0  0
  2  8  2  0  0  0  0
  3  6  1  0  0  0  0
  3 10  2  0  0  0  0
  4 11  2  0  0  0  0
  4 18  1  0  0  0  0
  5 12  1  0  0  0  0
  5 18  2  0  0  0  0
  6 19  2  0  0  0  0
  7 21  1  0  0  0  0
  8 23  1  0  0  0  0
  9 13  2  0  0  0  0
  9 22  1  0  0  0  0
 10 25  1  0  0  0  0
 11 27  1  0  0  0  0
 12 27  2  0  0  0  0
 13 28  1  0  0  0  0
 14 15  2  0  0  0  0
 14 29  1  0  0  0  0
 15 30  1  0  0  0  0
 16 24  1  0  0  0  0
 16 28  2  0  0  0  0
 17 30  2  0  0  0  0
 17 31  1  0  0  0  0
 18 32  1  0  0  0  0
 19 26  1  0  0  0  0
 19 34  1  0  0  0  0
 20 32  1  0  0  0  0
 20 33  2  0  0  0  0
 20 35  1  0  0  0  0
 21 23  2  0  0  0  0
 21 41  1  0  0  0  0
 22 24  2  0  0  0  0
 22 42  1  0  0  0  0
 23 50  1  0  0  0  0
 24 43  1  0  0  0  0
 25 26  2  0  0  0  0
 25 60  1  0  0  0  0
 26 53  1  0  0  0  0
 27 84  1  0  0  0  0
 28 85  1  0  0  0  0
 29 31  2  0  0  0  0
 29 84  1  0  0  0  0
 30 86  1  0  0  0  0
 31 87  1  0  0  0  0
 32 66  2  0  0  0  0
 33 68  1  0  0  0  0
 33 71  1  0  0  0  0
 34 54  1  0  0  0  0
 34 67  2  0  0  0  0
 35 72  1  0  0  0  0
 35 78  2  0  0  0  0
 36 51  1  0  0  0  0
 36 73  1  0  0  0  0
 36 79  2  0  0  0  0
 37 63  1  0  0  0  0
 37 69  1  0  0  0  0
 37 80  2  0  0  0  0
 38 61  1  0  0  0  0
 38 74  1  0  0  0  0
 38 81  2  0  0  0  0
 39 64  1  0  0  0  0
 39 75  1  0  0  0  0
 39 82  2  0  0  0  0
 40 70  1  0  0  0  0
 40 76  1  0  0  0  0
 40 83  2  0  0  0  0
 41 44  1  0  0  0  0
 42 51  1  0  0  0  0
 43 69  1  0  0  0  0
 44 46  1  0  0  0  0
 45 47  1  0  0  0  0
 45 48  1  0  0  0  0
 46 50  1  0  0  0  0
 47 52  1  0  0  0  0
 48 70  1  0  0  0  0
 49 52  1  0  0  0  0
 49 70  1  0  0  0  0
 50 73  1  0  0  0  0
 51 69  1  0  0  0  0
 52 68  1  0  0  0  0
 55 64  1  0  0  0  0
 56 65  1  0  0  0  0
 57 65  1  0  0  0  0
 58 65  1  0  0  0  0
 59 77  1  0  0  0  0
 60 74  1  0  0  0  0
 61 62  1  0  0  0  0
 62 85  1  0  0  0  0
 63 65  1  0  0  0  0
 63 75  1  0  0  0  0
 64 77  1  0  0  0  0
 66 68  1  0  0  0  0
 67 76  1  0  0  0  0
M  CHG  1  77   1
M  ISO  4  40 100  62 101  76 100  85 101
M  END
> <Batch ID>
0060

> <Smiles>
CNC(C)C(=O)NC(C(=O)N1Cc2cc([101O:1][101CH2:1]CC(=O)NCc3cccc(C(C)=N[100NH:0][100C:0](=O)N4CCCC(n5nc(-c6ccc(Oc7ccc(F)cc7F)cc6)c(C(N)=O)c5N)C4)c3C)ccc2CC1C(=O)NC1CCCc2ccccc21)C(C)(C)C

> <Shape>
0.240

> <Color>
0.139

> <Negative vol penalty>
0.000

$$$$

  -OEChem-04042323043D

 87 96  0     1  0  0  0  0  0999 V2000
  -18.1955  -24.4949   21.1627 C   0  0  0  0  0  0  0  0  0  0  0  0
  -19.5080  -24.5004   20.7014 C   0  0  0  0  0  0  0  0  0  0  0  0
  -23.2616  -12.8268   23.5646 C   0  0  0  0  0  0  0  0  0  0  0  0
  -24.3294  -10.6741   23.3140 C   0  0  0  0  0  0  0  0  0  0  0  0
  -17.7394  -25.5312   21.9762 C   0  0  0  0  0  0  0  0  0  0  0  0
  -20.3648  -25.5431   21.0526 C   0  0  0  0  0  0  0  0  0  0  0  0
  -24.9458  -23.9038   22.4569 C   0  0  0  0  0  0  0  0  0  0  0  0
  -31.4776  -18.9521   19.4251 C   0  0  0  0  0  0  0  0  0  0  0  0
  -31.2585  -17.6042   19.7096 C   0  0  0  0  0  0  0  0  0  0  0  0
  -22.6719  -12.3960   24.7529 C   0  0  0  0  0  0  0  0  0  0  0  0
  -23.7398  -10.2433   24.5025 C   0  0  0  0  0  0  0  0  0  0  0  0
  -25.8270  -23.5307   21.4429 C   0  0  0  0  0  0  0  0  0  0  0  0
  -20.0433  -10.4832   25.6782 C   0  0  0  0  0  0  0  0  0  0  0  0
  -18.6921  -10.7701   25.8715 C   0  0  0  0  0  0  0  0  0  0  0  0
  -26.9390  -25.6630   21.6331 C   0  0  0  0  0  0  0  0  0  0  0  0
  -29.8625  -19.5708   21.1121 C   0  0  0  0  0  0  0  0  0  0  0  0
  -19.2435  -12.0282   27.8590 C   0  0  0  0  0  0  0  0  0  0  0  0
  -24.0903  -11.9659   22.8451 C   0  0  0  0  0  0  0  0  0  0  0  0
  -24.0418  -12.8486   20.4521 C   0  0  0  0  0  0  0  0  0  0  0  0
  -18.5938  -26.5821   22.3454 C   0  0  0  0  0  0  0  0  0  0  0  0
  -25.0479  -25.1656   23.0601 C   0  0  0  0  0  0  0  0  0  0  0  0
  -19.9193  -26.5951   21.8707 C   0  0  0  0  0  0  0  0  0  0  0  0
  -26.0595  -26.0487   22.6562 C   0  0  0  0  0  0  0  0  0  0  0  0
  -29.6434  -18.2229   21.3966 C   0  0  0  0  0  0  0  0  0  0  0  0
  -30.7796  -19.9353   20.1263 C   0  0  0  0  0  0  0  0  0  0  0  0
  -30.3414  -17.2397   20.6954 C   0  0  0  0  0  0  0  0  0  0  0  0
  -22.9110  -11.1043   25.2219 C   0  0  0  0  0  0  0  0  0  0  0  0
  -26.8220  -24.4115   21.0289 C   0  0  0  0  0  0  0  0  0  0  0  0
  -20.9947  -10.9687   26.5753 C   0  0  0  0  0  0  0  0  0  0  0  0
  -18.2921  -11.5426   26.9618 C   0  0  0  0  0  0  0  0  0  0  0  0
  -20.5948  -11.7412   27.6657 C   0  0  0  0  0  0  0  0  0  0  0  0
  -24.6993  -12.4101   21.6171 C   0  0  0  0  0  0  0  0  0  0  0  0
  -25.0572  -13.1563   19.5799 C   0  0  0  0  0  0  0  0  0  0  0  0
  -32.2617  -21.7752   19.3725 C   0  0  0  0  0  0  0  0  0  0  0  0
  -22.6386  -12.9672   20.1826 C   0  0  0  0  0  0  0  0  0  0  0  0
  -23.1454  -27.7014   23.2924 C   0  0  0  0  0  0  0  0  0  0  0  0
  -25.4821  -28.7873   25.2629 C   0  0  0  0  0  0  0  0  0  0  0  0
  -29.0896  -28.7950   25.3156 C   0  0  0  0  0  0  0  0  0  0  0  0
  -30.7555  -14.7778   20.3575 C   0  0  0  0  0  0  0  0  0  0  0  0
  -18.0418  -27.7046   23.1879 C   0  0  0  0  0  0  0  0  0  0  0  0
  -24.1065  -25.5426   24.1709 C   0  0  0  0  0  0  0  0  0  0  0  0
  -26.2243  -27.4070   23.2857 C   0  0  0  0  0  0  0  0  0  0  0  0
  -32.3136  -23.1794   18.8006 C   0  0  0  0  0  0  0  0  0  0  0  0
  -19.1214  -28.5787   23.8210 C   0  0  0  0  0  0  0  0  0  0  0  0
  -31.3952  -24.1671   19.4860 C   0  0  0  0  0  0  0  0  0  0  0  0
  -29.5733  -11.9661   18.5207 C   0  0  0  0  0  0  0  0  0  0  0  0
  -20.1828  -28.9472   22.7893 C   0  0  0  0  0  0  0  0  0  0  0  0
  -28.1276  -11.8045   18.9957 C   0  0  0  0  0  0  0  0  0  0  0  0
  -30.4968  -12.4085   19.6544 C   0  0  0  0  0  0  0  0  0  0  0  0
  -29.9601  -22.2895   20.2331 C   0  0  0  0  0  0  0  0  0  0  0  0
  -28.6124  -13.4456   20.8555 C   0  0  0  0  0  0  0  0  0  0  0  0
  -20.8861  -27.6958   22.2501 C   0  0  1  0  0  0  0  0  0  0  0  0
  -23.9789  -27.0510   24.3600 C   0  0  1  0  0  0  0  0  0  0  0  0
  -29.9799  -23.6136   19.4710 C   0  0  1  0  0  0  0  0  0  0  0  0
  -27.6328  -13.0639   19.7338 C   0  0  2  0  0  0  0  0  0  0  0  0
  -27.3327  -17.3765   21.8769 C   0  0  0  0  0  0  0  0  0  0  0  0
  -30.6929  -28.8795   27.2443 C   0  0  0  0  0  0  0  0  0  0  0  0
  -25.4564  -31.7995   24.7767 C   0  0  0  0  0  0  0  0  0  0  0  0
  -27.9070  -31.8326   25.2885 C   0  0  0  0  0  0  0  0  0  0  0  0
  -26.2791  -31.1145   27.0369 C   0  0  0  0  0  0  0  0  0  0  0  0
  -30.4664  -26.3296   24.4295 C   0  0  0  0  0  0  0  0  0  0  0  0
  -28.6569  -17.8610   22.4589 C   0  0  0  0  0  0  0  0  0  0  0  0
  -28.9958  -24.6076   20.0845 C   0  0  0  0  0  0  0  0  0  1  0  0
  -26.7501  -29.5857   25.0792 C   0  0  1  0  0  0  0  0  0  0  0  0
  -29.9868  -27.9868   26.2357 C   0  0  2  0  0  0  0  0  0  0  0  0
  -26.5879  -31.0664   25.5246 C   0  0  0  0  0  0  0  0  0  0  0  0
  -26.0295  -12.4354   21.4989 N   0  0  0  0  0  0  0  0  0  0  0  0
  -26.2160  -12.8933   20.2493 N   0  0  0  0  0  0  0  0  0  0  0  0
  -31.0091  -21.3340   19.8328 N   0  0  0  0  0  0  0  0  0  0  0  0
  -25.2754  -27.7318   24.3635 N   0  0  0  0  0  0  0  0  0  0  0  0
  -29.9668  -13.6091   20.3044 N   0  0  0  0  0  0  0  0  0  0  0  0
  -25.0628  -13.6233   18.3133 N   0  0  0  0  0  0  0  0  0  0  0  0
  -21.9689  -11.8665   19.6308 N   0  0  0  0  0  0  0  0  0  0  0  0
  -30.1343  -15.8653   20.9708 N   0  0  0  0  0  0  0  0  0  0  0  0
  -21.8568  -27.2097   23.2071 N   0  0  0  0  0  0  0  0  0  0  0  0
  -27.7965  -28.8590   25.7900 N   0  0  0  0  0  0  0  0  0  0  0  0
  -31.0210  -27.2616   25.4448 N   0  3  0  0  0  0  0  0  0  0  0  0
  -33.2934  -21.0988   19.3429 O   0  0  0  0  0  0  0  0  0  0  0  0
  -22.0011  -14.0236   20.4085 O   0  0  0  0  0  0  0  0  0  0  0  0
  -23.6346  -28.5850   22.5984 O   0  0  0  0  0  0  0  0  0  0  0  0
  -24.7071  -29.0847   26.1754 O   0  0  0  0  0  0  0  0  0  0  0  0
  -29.4962  -29.3204   24.2816 O   0  0  0  0  0  0  0  0  0  0  0  0
  -31.8876  -14.8195   19.8689 O   0  0  0  0  0  0  0  0  0  0  0  0
  -22.3359  -10.6836   26.3816 O   0  0  0  0  0  0  0  0  0  0  0  0
  -27.6830  -24.0501   20.0390 O   0  0  0  0  0  0  0  0  0  1  0  0
  -16.9946  -11.8193   27.1465 F   0  0  0  0  0  0  0  0  0  0  0  0
  -21.5043  -12.2115   28.5303 F   0  0  0  0  0  0  0  0  0  0  0  0
  1  2  1  0  0  0  0
  1  5  2  0  0  0  0
  2  6  2  0  0  0  0
  3 10  2  0  0  0  0
  3 18  1  0  0  0  0
  4 11  1  0  0  0  0
  4 18  2  0  0  0  0
  5 20  1  0  0  0  0
  6 22  1  0  0  0  0
  7 12  2  0  0  0  0
  7 21  1  0  0  0  0
  8  9  2  0  0  0  0
  8 25  1  0  0  0  0
  9 26  1  0  0  0  0
 10 27  1  0  0  0  0
 11 27  2  0  0  0  0
 12 28  1  0  0  0  0
 13 14  2  0  0  0  0
 13 29  1  0  0  0  0
 14 30  1  0  0  0  0
 15 23  1  0  0  0  0
 15 28  2  0  0  0  0
 16 24  1  0  0  0  0
 16 25  2  0  0  0  0
 17 30  2  0  0  0  0
 17 31  1  0  0  0  0
 18 32  1  0  0  0  0
 19 32  1  0  0  0  0
 19 33  2  0  0  0  0
 19 35  1  0  0  0  0
 20 22  2  0  0  0  0
 20 40  1  0  0  0  0
 21 23  2  0  0  0  0
 21 41  1  0  0  0  0
 22 52  1  0  0  0  0
 23 42  1  0  0  0  0
 24 26  2  0  0  0  0
 24 62  1  0  0  0  0
 25 69  1  0  0  0  0
 26 74  1  0  0  0  0
 27 84  1  0  0  0  0
 28 85  1  0  0  0  0
 29 31  2  0  0  0  0
 29 84  1  0  0  0  0
 30 86  1  0  0  0  0
 31 87  1  0  0  0  0
 32 67  2  0  0  0  0
 33 68  1  0  0  0  0
 33 72  1  0  0  0  0
 34 43  1  0  0  0  0
 34 69  1  0  0  0  0
 34 78  2  0  0  0  0
 35 73  1  0  0  0  0
 35 79  2  0  0  0  0
 36 53  1  0  0  0  0
 36 75  1  0  0  0  0
 36 80  2  0  0  0  0
 37 64  1  0  0  0  0
 37 70  1  0  0  0  0
 37 81  2  0  0  0  0
 38 65  1  0  0  0  0
 38 76  1  0  0  0  0
 38 82  2  0  0  0  0
 39 71  1  0  0  0  0
 39 74  1  0  0  0  0
 39 83  2  0  0  0  0
 40 44  1  0  0  0  0
 41 53  1  0  0  0  0
 42 70  1  0  0  0  0
 43 45  1  0  0  0  0
 44 47  1  0  0  0  0
 45 54  1  0  0  0  0
 46 48  1  0  0  0  0
 46 49  1  0  0  0  0
 47 52  1  0  0  0  0
 48 55  1  0  0  0  0
 49 71  1  0  0  0  0
 50 54  1  0  0  0  0
 50 69  1  0  0  0  0
 51 55  1  0  0  0  0
 51 71  1  0  0  0  0
 52 75  1  0  0  0  0
 53 70  1  0  0  0  0
 54 63  1  0  0  0  0
 55 68  1  0  0  0  0
 56 62  1  0  0  0  0
 57 65  1  0  0  0  0
 58 66  1  0  0  0  0
 59 66  1  0  0  0  0
 60 66  1  0  0  0  0
 61 77  1  0  0  0  0
 63 85  1  0  0  0  0
 64 66  1  0  0  0  0
 64 76  1  0  0  0  0
 65 77  1  0  0  0  0
 67 68  1  0  0  0  0
M  CHG  1  77   1
M  ISO  4  39 100  63 101  74 100  85 101
M  END
> <Batch ID>
0060

> <Smiles>
CCc1cc(N2CC([101CH2:1][101O:1]c3ccc4c(c3)CN(C(=O)C(NC(=O)C(C)NC)C(C)(C)C)C(C(=O)NC3CCCc5ccccc53)C4)CCC2=O)ccc1[100NH:0][100C:0](=O)N1CCCC(n2nc(-c3ccc(Oc4ccc(F)cc4F)cc3)c(C(N)=O)c2N)C1

> <Shape>
0.242

> <Color>
0.123

> <Negative vol penalty>
0.000

$$$$

  -OEChem-04042323043D

 87 96  0     1  0  0  0  0  0999 V2000
  -17.3341  -30.5167   23.9450 C   0  0  0  0  0  0  0  0  0  0  0  0
  -18.7212  -30.5274   24.0510 C   0  0  0  0  0  0  0  0  0  0  0  0
  -27.2810  -22.9275   23.5518 C   0  0  0  0  0  0  0  0  0  0  0  0
  -24.4714  -14.5232   19.9025 C   0  0  0  0  0  0  0  0  0  0  0  0
  -26.2611  -13.9636   18.3790 C   0  0  0  0  0  0  0  0  0  0  0  0
  -16.6923  -29.4500   23.3172 C   0  0  0  0  0  0  0  0  0  0  0  0
  -19.4673  -29.4708   23.5301 C   0  0  0  0  0  0  0  0  0  0  0  0
  -25.0104  -29.7997   20.9470 C   0  0  0  0  0  0  0  0  0  0  0  0
  -27.0229  -22.3069   22.3295 C   0  0  0  0  0  0  0  0  0  0  0  0
  -24.6188  -13.2862   20.5300 C   0  0  0  0  0  0  0  0  0  0  0  0
  -26.4085  -12.7266   19.0065 C   0  0  0  0  0  0  0  0  0  0  0  0
  -26.2911  -29.5542   21.4402 C   0  0  0  0  0  0  0  0  0  0  0  0
  -23.7258  -10.0781   19.9511 C   0  0  0  0  0  0  0  0  0  0  0  0
  -22.5675   -9.3566   20.2398 C   0  0  0  0  0  0  0  0  0  0  0  0
  -28.4489  -23.6706   23.7239 C   0  0  0  0  0  0  0  0  0  0  0  0
  -26.2035  -27.3187   20.5381 C   0  0  0  0  0  0  0  0  0  0  0  0
  -29.1008  -23.1723   21.4515 C   0  0  0  0  0  0  0  0  0  0  0  0
  -23.1220   -9.4069   22.5908 C   0  0  0  0  0  0  0  0  0  0  0  0
  -25.2926  -14.8619   18.8270 C   0  0  0  0  0  0  0  0  0  0  0  0
  -23.9905  -16.6342   17.5342 C   0  0  0  0  0  0  0  0  0  0  0  0
  -17.4315  -28.3844   22.7798 C   0  0  0  0  0  0  0  0  0  0  0  0
  -24.3111  -28.8011   20.2539 C   0  0  0  0  0  0  0  0  0  0  0  0
  -18.8347  -28.3881   22.8957 C   0  0  0  0  0  0  0  0  0  0  0  0
  -24.9151  -27.5548   20.0349 C   0  0  0  0  0  0  0  0  0  0  0  0
  -27.9328  -22.4293   21.2794 C   0  0  0  0  0  0  0  0  0  0  0  0
  -25.5873  -12.3879   20.0820 C   0  0  0  0  0  0  0  0  0  0  0  0
  -26.8867  -28.3126   21.2383 C   0  0  0  0  0  0  0  0  0  0  0  0
  -24.5823  -10.4639   20.9823 C   0  0  0  0  0  0  0  0  0  0  0  0
  -22.2656   -9.0210   21.5596 C   0  0  0  0  0  0  0  0  0  0  0  0
  -24.2804  -10.1283   22.3021 C   0  0  0  0  0  0  0  0  0  0  0  0
  -29.3587  -23.7930   22.6738 C   0  0  0  0  0  0  0  0  0  0  0  0
  -25.1405  -16.1393   18.1780 C   0  0  0  0  0  0  0  0  0  0  0  0
  -24.3569  -17.8800   17.0867 C   0  0  0  0  0  0  0  0  0  0  0  0
  -31.3847  -27.3587   22.6143 C   0  0  0  0  0  0  0  0  0  0  0  0
  -32.4980  -27.2845   23.3695 C   0  0  0  0  0  0  0  0  0  0  0  0
  -22.7060  -16.0225   17.3567 C   0  0  0  0  0  0  0  0  0  0  0  0
  -21.5934  -27.2231   20.7311 C   0  0  0  0  0  0  0  0  0  0  0  0
  -22.2285  -26.0209   17.7860 C   0  0  0  0  0  0  0  0  0  0  0  0
  -25.1248  -24.8220   15.9996 C   0  0  0  0  0  0  0  0  0  0  0  0
  -28.4687  -21.8209   18.8942 C   0  0  0  0  0  0  0  0  0  0  0  0
  -16.6905  -27.2306   22.1520 C   0  0  0  0  0  0  0  0  0  0  0  0
  -22.9409  -29.0906   19.7050 C   0  0  0  0  0  0  0  0  0  0  0  0
  -24.2147  -26.4559   19.2797 C   0  0  0  0  0  0  0  0  0  0  0  0
  -30.9612  -28.7427   22.1591 C   0  0  0  0  0  0  0  0  0  0  0  0
  -17.5774  -26.3311   21.2949 C   0  0  0  0  0  0  0  0  0  0  0  0
  -30.2743  -28.7445   20.7977 C   0  0  0  0  0  0  0  0  0  0  0  0
  -28.1912  -20.3670   15.6560 C   0  0  0  0  0  0  0  0  0  0  0  0
  -18.8726  -26.0017   22.0302 C   0  0  0  0  0  0  0  0  0  0  0  0
  -27.2678  -19.1665   15.8755 C   0  0  0  0  0  0  0  0  0  0  0  0
  -29.1292  -20.5854   16.8418 C   0  0  0  0  0  0  0  0  0  0  0  0
  -27.5427  -19.4797   18.3681 C   0  0  0  0  0  0  0  0  0  0  0  0
  -29.6572  -26.3276   21.0793 C   0  0  0  0  0  0  0  0  0  0  0  0
  -19.6803  -27.2723   22.3212 C   0  0  1  0  0  0  0  0  0  0  0  0
  -22.1168  -27.8303   19.4602 C   0  0  1  0  0  0  0  0  0  0  0  0
  -26.5349  -19.2591   17.2282 C   0  0  2  0  0  0  0  0  0  0  0  0
  -29.1420  -27.7272   20.7690 C   0  0  1  0  0  0  0  0  0  1  0  0
  -25.6111  -24.7538   13.5386 C   0  0  0  0  0  0  0  0  0  0  0  0
  -21.1158  -23.1839   17.9390 C   0  0  0  0  0  0  0  0  0  0  0  0
  -22.8798  -22.4787   16.3084 C   0  0  0  0  0  0  0  0  0  0  0  0
  -21.1655  -24.1622   15.6380 C   0  0  0  0  0  0  0  0  0  0  0  0
  -27.6498  -26.3281   16.3389 C   0  0  0  0  0  0  0  0  0  0  0  0
  -22.9878  -24.8270   17.2595 C   0  0  1  0  0  0  0  0  0  0  0  0
  -25.8266  -25.5081   14.8415 C   0  0  2  0  0  0  0  0  0  0  0  0
  -22.0444  -23.6755   16.8107 C   0  0  0  0  0  0  0  0  0  0  0  0
  -26.1610  -17.0004   18.1445 N   0  0  0  0  0  0  0  0  0  0  0  0
  -31.8816  -24.0792   21.9700 N   0  0  0  0  0  0  0  0  0  0  0  0
  -25.6536  -18.0488   17.4742 N   0  0  0  0  0  0  0  0  0  0  0  0
  -30.5715  -26.2881   22.2263 N   0  0  3  0  0  0  0  0  0  0  0  0
  -22.8741  -26.7854   18.7681 N   0  0  0  0  0  0  0  0  0  0  0  0
  -28.3645  -20.6676   18.0882 N   0  0  0  0  0  0  0  0  0  0  0  0
  -23.6931  -18.8364   16.4033 N   0  0  0  0  0  0  0  0  0  0  0  0
  -22.4993  -14.7387   17.8796 N   0  0  0  0  0  0  0  0  0  0  0  0
  -27.6707  -21.7992   20.0376 N   0  0  0  0  0  0  0  0  0  0  0  0
  -20.3663  -27.7194   21.1280 N   0  0  0  0  0  0  0  0  0  0  0  0
  -23.8597  -25.3309   16.2039 N   0  0  0  0  0  0  0  0  0  0  0  0
  -27.2920  -25.5911   15.0996 N   0  3  0  0  0  0  0  0  0  0  0  0
  -21.7744  -16.5908   16.7381 O   0  0  0  0  0  0  0  0  0  0  0  0
  -22.2531  -26.3666   21.3080 O   0  0  0  0  0  0  0  0  0  0  0  0
  -21.1069  -26.2702   17.3370 O   0  0  0  0  0  0  0  0  0  0  0  0
  -25.6453  -23.9219   16.6548 O   0  0  0  0  0  0  0  0  0  0  0  0
  -29.1905  -22.7702   18.5785 O   0  0  0  0  0  0  0  0  0  0  0  0
  -30.9601  -24.9863   24.3147 O   0  0  0  0  0  0  0  0  0  0  0  0
  -25.7315  -11.1808   20.6942 O   0  0  0  0  0  0  0  0  0  0  0  0
  -28.1365  -28.0702   21.7192 O   0  0  0  0  0  0  0  0  0  1  0  0
  -21.1524   -8.3295   21.8368 F   0  0  0  0  0  0  0  0  0  0  0  0
  -25.0988  -10.4972   23.2971 F   0  0  0  0  0  0  0  0  0  0  0  0
  -30.8365  -24.7323   22.8924 S   0  0  1  0  0  0  0  0  0  0  0  0
  1  2  1  0  0  0  0
  1  6  2  0  0  0  0
  2  7  2  0  0  0  0
  3  9  1  0  0  0  0
  3 15  2  0  0  0  0
  4 10  2  0  0  0  0
  4 19  1  0  0  0  0
  5 11  1  0  0  0  0
  5 19  2  0  0  0  0
  6 21  1  0  0  0  0
  7 23  1  0  0  0  0
  8 12  2  0  0  0  0
  8 22  1  0  0  0  0
  9 25  2  0  0  0  0
 10 26  1  0  0  0  0
 11 26  2  0  0  0  0
 12 27  1  0  0  0  0
 13 14  2  0  0  0  0
 13 28  1  0  0  0  0
 14 29  1  0  0  0  0
 15 31  1  0  0  0  0
 16 24  1  0  0  0  0
 16 27  2  0  0  0  0
 17 25  1  0  0  0  0
 17 31  2  0  0  0  0
 18 29  2  0  0  0  0
 18 30  1  0  0  0  0
 19 32  1  0  0  0  0
 20 32  1  0  0  0  0
 20 33  2  0  0  0  0
 20 36  1  0  0  0  0
 21 23  2  0  0  0  0
 21 41  1  0  0  0  0
 22 24  2  0  0  0  0
 22 42  1  0  0  0  0
 23 53  1  0  0  0  0
 24 43  1  0  0  0  0
 25 73  1  0  0  0  0
 26 83  1  0  0  0  0
 27 84  1  0  0  0  0
 28 30  2  0  0  0  0
 28 83  1  0  0  0  0
 29 85  1  0  0  0  0
 30 86  1  0  0  0  0
 31 87  1  0  0  0  0
 32 65  2  0  0  0  0
 33 67  1  0  0  0  0
 33 71  1  0  0  0  0
 34 35  2  0  0  0  0
 34 44  1  0  0  0  0
 34 68  1  0  0  0  0
 36 72  1  0  0  0  0
 36 77  2  0  0  0  0
 37 54  1  0  0  0  0
 37 74  1  0  0  0  0
 37 78  2  0  0  0  0
 38 62  1  0  0  0  0
 38 69  1  0  0  0  0
 38 79  2  0  0  0  0
 39 63  1  0  0  0  0
 39 75  1  0  0  0  0
 39 80  2  0  0  0  0
 40 70  1  0  0  0  0
 40 73  1  0  0  0  0
 40 81  2  0  0  0  0
 41 45  1  0  0  0  0
 42 54  1  0  0  0  0
 43 69  1  0  0  0  0
 44 46  1  0  0  0  0
 45 48  1  0  0  0  0
 46 56  1  0  0  0  0
 47 49  1  0  0  0  0
 47 50  1  0  0  0  0
 48 53  1  0  0  0  0
 49 55  1  0  0  0  0
 50 70  1  0  0  0  0
 51 55  1  0  0  0  0
 51 70  1  0  0  0  0
 52 56  1  0  0  0  0
 52 68  1  0  0  0  0
 53 74  1  0  0  0  0
 54 69  1  0  0  0  0
 55 67  1  0  0  0  0
 56 84  1  0  0  0  0
 57 63  1  0  0  0  0
 58 64  1  0  0  0  0
 59 64  1  0  0  0  0
 60 64  1  0  0  0  0
 61 76  1  0  0  0  0
 62 64  1  0  0  0  0
 62 75  1  0  0  0  0
 63 76  1  0  0  0  0
 65 67  1  0  0  0  0
 66 87  2  0  0  0  0
 68 87  1  0  0  0  0
 82 87  2  0  0  0  0
M  CHG  1  76   1
M  ISO  4  40 100  56 101  73 100  84 101
M  END
> <Batch ID>
0060

> <Smiles>
C=C1CC[101CH:1]([101O:1]c2ccc3c(c2)CN(C(=O)C(NC(=O)C(C)NC)C(C)(C)C)C(C(=O)NC2CCCc4ccccc42)C3)CN1S(=N)(=O)c1cccc([100NH:0][100C:0](=O)N2CCCC(n3nc(-c4ccc(Oc5ccc(F)cc5F)cc4)c(C(N)=O)c3N)C2)c1

> <Shape>
0.220

> <Color>
0.080

> <Negative vol penalty>
0.000

$$$$

  -OEChem-04042323043D

 81 89  0     1  0  0  0  0  0999 V2000
  -24.5738  -32.0556   29.0851 C   0  0  0  0  0  0  0  0  0  0  0  0
  -25.3302  -31.2090   28.2810 C   0  0  0  0  0  0  0  0  0  0  0  0
  -24.5838   -8.9930   21.5609 C   0  0  0  0  0  0  0  0  0  0  0  0
  -23.9301  -10.7076   23.1324 C   0  0  0  0  0  0  0  0  0  0  0  0
  -23.2505  -32.3371   28.7479 C   0  0  0  0  0  0  0  0  0  0  0  0
  -24.7634  -30.6426   27.1398 C   0  0  0  0  0  0  0  0  0  0  0  0
  -27.5845  -29.4338   21.8402 C   0  0  0  0  0  0  0  0  0  0  0  0
  -26.0332  -20.6131   19.0839 C   0  0  0  0  0  0  0  0  0  0  0  0
  -28.3128  -21.0359   19.7633 C   0  0  0  0  0  0  0  0  0  0  0  0
  -26.2893  -19.2420   19.0780 C   0  0  0  0  0  0  0  0  0  0  0  0
  -28.5689  -19.6648   19.7575 C   0  0  0  0  0  0  0  0  0  0  0  0
  -24.1521   -8.0111   22.4525 C   0  0  0  0  0  0  0  0  0  0  0  0
  -23.4983   -9.7257   24.0241 C   0  0  0  0  0  0  0  0  0  0  0  0
  -28.1273  -28.2632   21.3122 C   0  0  0  0  0  0  0  0  0  0  0  0
  -22.8900   -5.0635   24.1653 C   0  0  0  0  0  0  0  0  0  0  0  0
  -22.1309   -4.0112   23.6535 C   0  0  0  0  0  0  0  0  0  0  0  0
  -26.0782  -27.8657   20.1028 C   0  0  0  0  0  0  0  0  0  0  0  0
  -20.4569   -5.5836   22.9034 C   0  0  0  0  0  0  0  0  0  0  0  0
  -24.4729  -10.3413   21.9008 C   0  0  0  0  0  0  0  0  0  0  0  0
  -24.1598  -11.9867   19.9767 C   0  0  0  0  0  0  0  0  0  0  0  0
  -22.6702  -31.7815   27.5968 C   0  0  0  0  0  0  0  0  0  0  0  0
  -26.2784  -29.8242   21.5115 C   0  0  0  0  0  0  0  0  0  0  0  0
  -23.4307  -30.9159   26.7877 C   0  0  0  0  0  0  0  0  0  0  0  0
  -25.5221  -29.0431   20.6259 C   0  0  0  0  0  0  0  0  0  0  0  0
  -27.0450  -21.5101   19.4265 C   0  0  0  0  0  0  0  0  0  0  0  0
  -27.5571  -18.7678   19.4148 C   0  0  0  0  0  0  0  0  0  0  0  0
  -23.6093   -8.3774   23.6841 C   0  0  0  0  0  0  0  0  0  0  0  0
  -27.3731  -27.4774   20.4456 C   0  0  0  0  0  0  0  0  0  0  0  0
  -22.4325   -6.3759   24.0463 C   0  0  0  0  0  0  0  0  0  0  0  0
  -20.9144   -4.2712   23.0225 C   0  0  0  0  0  0  0  0  0  0  0  0
  -21.2160   -6.6359   23.4154 C   0  0  0  0  0  0  0  0  0  0  0  0
  -24.9192  -11.3560   20.9804 C   0  0  0  0  0  0  0  0  0  0  0  0
  -25.0349  -12.8643   19.3845 C   0  0  0  0  0  0  0  0  0  0  0  0
  -22.7863  -11.7963   19.6123 C   0  0  0  0  0  0  0  0  0  0  0  0
  -23.5940  -30.2814   23.1513 C   0  0  0  0  0  0  0  0  0  0  0  0
  -22.4912  -31.3523   20.2948 C   0  0  0  0  0  0  0  0  0  0  0  0
  -27.6711  -23.9268   19.7453 C   0  0  0  0  0  0  0  0  0  0  0  0
  -22.7599  -31.3303   16.8927 C   0  0  0  0  0  0  0  0  0  0  0  0
  -29.0196  -16.7391   19.7174 C   0  0  0  0  0  0  0  0  0  0  0  0
  -21.2216  -32.0776   27.2989 C   0  0  0  0  0  0  0  0  0  0  0  0
  -25.7170  -31.1037   22.0684 C   0  0  0  0  0  0  0  0  0  0  0  0
  -24.1224  -29.4288   20.2255 C   0  0  0  0  0  0  0  0  0  0  0  0
  -20.8113  -31.7344   25.8692 C   0  0  0  0  0  0  0  0  0  0  0  0
  -30.0527  -13.3346   19.8560 C   0  0  0  0  0  0  0  0  0  0  0  0
  -21.3270  -30.3517   25.4832 C   0  0  0  0  0  0  0  0  0  0  0  0
  -28.7467  -12.5682   20.0783 C   0  0  0  0  0  0  0  0  0  0  0  0
  -30.0634  -14.6660   20.6050 C   0  0  0  0  0  0  0  0  0  0  0  0
  -27.6023  -14.7679   20.5667 C   0  0  0  0  0  0  0  0  0  0  0  0
  -22.8590  -30.3018   25.5283 C   0  0  1  0  0  0  0  0  0  0  0  0
  -24.1918  -31.1363   22.0699 C   0  0  1  0  0  0  0  0  0  0  0  0
  -27.5182  -13.4498   19.7799 C   0  0  2  0  0  0  0  0  0  0  0  0
  -21.6939  -32.2743   14.8264 C   0  0  0  0  0  0  0  0  0  0  0  0
  -20.1808  -29.3813   20.5893 C   0  0  0  0  0  0  0  0  0  0  0  0
  -19.7107  -29.6750   18.1478 C   0  0  0  0  0  0  0  0  0  0  0  0
  -19.5309  -31.6242   19.6941 C   0  0  0  0  0  0  0  0  0  0  0  0
  -25.2535  -32.7114   16.0967 C   0  0  0  0  0  0  0  0  0  0  0  0
  -26.9897  -25.2775   19.6276 C   0  0  0  0  0  0  0  0  0  1  0  0
  -21.8158  -30.7173   19.1034 C   0  0  1  0  0  0  0  0  0  0  0  0
  -22.7785  -32.4579   15.8765 C   0  0  2  0  0  0  0  0  0  0  0  0
  -20.3352  -30.3409   19.3925 C   0  0  0  0  0  0  0  0  0  0  0  0
  -26.1797  -11.7955   21.0261 N   0  0  0  0  0  0  0  0  0  0  0  0
  -26.2191  -12.7116   20.0437 N   0  0  0  0  0  0  0  0  0  0  0  0
  -23.6156  -30.6853   20.8015 N   0  0  0  0  0  0  0  0  0  0  0  0
  -28.8721  -15.4491   20.2696 N   0  0  0  0  0  0  0  0  0  0  0  0
  -24.8991  -13.7439   18.3695 N   0  0  0  0  0  0  0  0  0  0  0  0
  -22.0305  -10.8547   20.3240 N   0  0  0  0  0  0  0  0  0  0  0  0
  -26.7856  -22.9012   19.4322 N   0  0  0  0  0  0  0  0  0  0  0  0
  -27.8175  -17.3750   19.4089 N   0  0  0  0  0  0  0  0  0  0  0  0
  -23.4201  -30.9370   24.3552 N   0  0  0  0  0  0  0  0  0  0  0  0
  -21.9901  -31.6463   17.9922 N   0  0  0  0  0  0  0  0  0  0  0  0
  -24.0977  -32.5106   15.1853 N   0  3  0  0  0  0  0  0  0  0  0  0
  -22.2497  -12.4303   18.6723 O   0  0  0  0  0  0  0  0  0  0  0  0
  -23.3101  -29.1138   22.9107 O   0  0  0  0  0  0  0  0  0  0  0  0
  -22.0422  -32.4053   20.7544 O   0  0  0  0  0  0  0  0  0  0  0  0
  -28.8478  -23.8276   20.0773 O   0  0  0  0  0  0  0  0  0  0  0  0
  -23.3647  -30.2734   16.7261 O   0  0  0  0  0  0  0  0  0  0  0  0
  -30.1309  -17.2316   19.5066 O   0  0  0  0  0  0  0  0  0  0  0  0
  -23.1877   -7.4196   24.5544 O   0  0  0  0  0  0  0  0  0  0  0  0
  -27.9002  -26.3340   19.9294 O   0  0  0  0  0  0  0  0  0  1  0  0
  -20.1862   -3.2608   22.5296 F   0  0  0  0  0  0  0  0  0  0  0  0
  -20.7719   -7.8947   23.2970 F   0  0  0  0  0  0  0  0  0  0  0  0
  1  2  1  0  0  0  0
  1  5  2  0  0  0  0
  2  6  2  0  0  0  0
  3 12  2  0  0  0  0
  3 19  1  0  0  0  0
  4 13  1  0  0  0  0
  4 19  2  0  0  0  0
  5 21  1  0  0  0  0
  6 23  1  0  0  0  0
  7 14  2  0  0  0  0
  7 22  1  0  0  0  0
  8 10  2  0  0  0  0
  8 25  1  0  0  0  0
  9 11  1  0  0  0  0
  9 25  2  0  0  0  0
 10 26  1  0  0  0  0
 11 26  2  0  0  0  0
 12 27  1  0  0  0  0
 13 27  2  0  0  0  0
 14 28  1  0  0  0  0
 15 16  2  0  0  0  0
 15 29  1  0  0  0  0
 16 30  1  0  0  0  0
 17 24  1  0  0  0  0
 17 28  2  0  0  0  0
 18 30  2  0  0  0  0
 18 31  1  0  0  0  0
 19 32  1  0  0  0  0
 20 32  1  0  0  0  0
 20 33  2  0  0  0  0
 20 34  1  0  0  0  0
 21 23  2  0  0  0  0
 21 40  1  0  0  0  0
 22 24  2  0  0  0  0
 22 41  1  0  0  0  0
 23 49  1  0  0  0  0
 24 42  1  0  0  0  0
 25 67  1  0  0  0  0
 26 68  1  0  0  0  0
 27 78  1  0  0  0  0
 28 79  1  0  0  0  0
 29 31  2  0  0  0  0
 29 78  1  0  0  0  0
 30 80  1  0  0  0  0
 31 81  1  0  0  0  0
 32 61  2  0  0  0  0
 33 62  1  0  0  0  0
 33 65  1  0  0  0  0
 34 66  1  0  0  0  0
 34 72  2  0  0  0  0
 35 50  1  0  0  0  0
 35 69  1  0  0  0  0
 35 73  2  0  0  0  0
 36 58  1  0  0  0  0
 36 63  1  0  0  0  0
 36 74  2  0  0  0  0
 37 57  1  0  0  0  0
 37 67  1  0  0  0  0
 37 75  2  0  0  0  0
 38 59  1  0  0  0  0
 38 70  1  0  0  0  0
 38 76  2  0  0  0  0
 39 64  1  0  0  0  0
 39 68  1  0  0  0  0
 39 77  2  0  0  0  0
 40 43  1  0  0  0  0
 41 50  1  0  0  0  0
 42 63  1  0  0  0  0
 43 45  1  0  0  0  0
 44 46  1  0  0  0  0
 44 47  1  0  0  0  0
 45 49  1  0  0  0  0
 46 51  1  0  0  0  0
 47 64  1  0  0  0  0
 48 51  1  0  0  0  0
 48 64  1  0  0  0  0
 49 69  1  0  0  0  0
 50 63  1  0  0  0  0
 51 62  1  0  0  0  0
 52 59  1  0  0  0  0
 53 60  1  0  0  0  0
 54 60  1  0  0  0  0
 55 60  1  0  0  0  0
 56 71  1  0  0  0  0
 57 79  1  0  0  0  0
 58 60  1  0  0  0  0
 58 70  1  0  0  0  0
 59 71  1  0  0  0  0
 61 62  1  0  0  0  0
M  CHG  1  71   1
M  ISO  4  39 100  57 101  68 100  79 101
M  END
> <Batch ID>
0060

> <Smiles>
CNC(C)C(=O)NC(C(=O)N1Cc2cc([101O:1][101CH2:1]C(=O)Nc3ccc([100NH:0][100C:0](=O)N4CCCC(n5nc(-c6ccc(Oc7ccc(F)cc7F)cc6)c(C(N)=O)c5N)C4)cc3)ccc2CC1C(=O)NC1CCCc2ccccc21)C(C)(C)C

> <Shape>
0.258

> <Color>
0.118

> <Negative vol penalty>
0.000

$$$$

  -OEChem-04042323043D

 83 91  0     1  0  0  0  0  0999 V2000
  -21.6819  -12.5396   19.5368 C   0  0  0  0  0  0  0  0  0  0  0  0
  -21.5622  -13.8204   20.0666 C   0  0  0  0  0  0  0  0  0  0  0  0
  -24.8485  -28.1087   14.3238 C   0  0  0  0  0  0  0  0  0  0  0  0
  -26.8986  -26.9284   14.8148 C   0  0  0  0  0  0  0  0  0  0  0  0
  -17.8661  -26.0890   22.0755 C   0  0  0  0  0  0  0  0  0  0  0  0
  -22.9111  -11.8826   19.5754 C   0  0  0  0  0  0  0  0  0  0  0  0
  -22.6714  -14.4445   20.6363 C   0  0  0  0  0  0  0  0  0  0  0  0
  -23.1446  -19.2720   19.1816 C   0  0  0  0  0  0  0  0  0  0  0  0
  -17.5716  -27.3750   22.5282 C   0  0  0  0  0  0  0  0  0  0  0  0
  -25.2858  -28.3247   13.0171 C   0  0  0  0  0  0  0  0  0  0  0  0
  -27.3359  -27.1443   13.5080 C   0  0  0  0  0  0  0  0  0  0  0  0
  -22.3122  -20.2066   19.7959 C   0  0  0  0  0  0  0  0  0  0  0  0
  -28.8371  -27.0718   10.1975 C   0  0  0  0  0  0  0  0  0  0  0  0
  -29.4104  -25.9966    9.5187 C   0  0  0  0  0  0  0  0  0  0  0  0
  -20.2170  -26.4919   22.4602 C   0  0  0  0  0  0  0  0  0  0  0  0
  -24.1236  -20.8542   21.2514 C   0  0  0  0  0  0  0  0  0  0  0  0
  -27.3581  -24.7461    9.7662 C   0  0  0  0  0  0  0  0  0  0  0  0
  -25.6549  -27.4106   15.2228 C   0  0  0  0  0  0  0  0  0  0  0  0
  -19.1888  -25.6474   22.0415 C   0  0  0  0  0  0  0  0  0  0  0  0
  -19.9225  -27.7780   22.9129 C   0  0  0  0  0  0  0  0  0  0  0  0
  -24.4594  -26.0926   17.0507 C   0  0  0  0  0  0  0  0  0  0  0  0
  -24.0382  -12.5028   20.1372 C   0  0  0  0  0  0  0  0  0  0  0  0
  -24.4718  -19.1136   19.6056 C   0  0  0  0  0  0  0  0  0  0  0  0
  -23.9165  -13.7946   20.6837 C   0  0  0  0  0  0  0  0  0  0  0  0
  -24.9715  -19.9187   20.6392 C   0  0  0  0  0  0  0  0  0  0  0  0
  -18.5997  -28.2195   22.9469 C   0  0  0  0  0  0  0  0  0  0  0  0
  -26.5294  -27.8425   12.6091 C   0  0  0  0  0  0  0  0  0  0  0  0
  -22.8008  -20.9959   20.8329 C   0  0  0  0  0  0  0  0  0  0  0  0
  -27.5243  -26.9842   10.6608 C   0  0  0  0  0  0  0  0  0  0  0  0
  -28.6709  -24.8337    9.3030 C   0  0  0  0  0  0  0  0  0  0  0  0
  -26.7848  -25.8213   10.4451 C   0  0  0  0  0  0  0  0  0  0  0  0
  -25.2040  -27.1877   16.5730 C   0  0  0  0  0  0  0  0  0  0  0  0
  -24.2887  -26.3510   18.3888 C   0  0  0  0  0  0  0  0  0  0  0  0
  -19.4980  -24.2896   21.5630 C   0  0  0  0  0  0  0  0  0  0  0  0
  -20.6980  -23.8775   21.1256 C   0  0  0  0  0  0  0  0  0  0  0  0
  -21.0365  -28.6567   23.3528 C   0  0  0  0  0  0  0  0  0  0  0  0
  -23.9662  -24.9445   16.3477 C   0  0  0  0  0  0  0  0  0  0  0  0
  -26.1554  -16.7286   20.8630 C   0  0  0  0  0  0  0  0  0  0  0  0
  -28.6261  -18.7990   20.5006 C   0  0  0  0  0  0  0  0  0  0  0  0
  -29.6772  -22.0327   20.2084 C   0  0  0  0  0  0  0  0  0  0  0  0
  -23.1035  -29.7762   22.5794 C   0  0  0  0  0  0  0  0  0  0  0  0
  -25.3345  -11.7343   20.1986 C   0  0  0  0  0  0  0  0  0  0  0  0
  -25.3647  -18.1196   18.9147 C   0  0  0  0  0  0  0  0  0  0  0  0
  -26.3947  -19.8017   21.1180 C   0  0  0  0  0  0  0  0  0  0  0  0
  -26.5503  -12.6126   20.4827 C   0  0  0  0  0  0  0  0  0  0  0  0
  -26.4250  -29.8433   21.3712 C   0  0  0  0  0  0  0  0  0  0  0  0
  -26.2599  -13.5700   21.6342 C   0  0  0  0  0  0  0  0  0  0  0  0
  -26.3471  -29.0614   20.0570 C   0  0  0  0  0  0  0  0  0  0  0  0
  -25.1815  -30.7026   21.5947 C   0  0  0  0  0  0  0  0  0  0  0  0
  -23.8279  -29.2103   20.1810 C   0  0  0  0  0  0  0  0  0  0  0  0
  -25.1026  -14.5145   21.2878 C   0  0  1  0  0  0  0  0  0  0  0  0
  -26.5490  -17.6836   19.7718 C   0  0  1  0  0  0  0  0  0  0  0  0
  -25.0252  -28.2758   19.9438 C   0  0  1  0  0  0  0  0  0  0  0  0
  -18.2568  -29.5925   23.4262 C   0  0  0  0  0  0  0  0  0  0  0  0
  -31.7586  -23.4130   19.9640 C   0  0  0  0  0  0  0  0  0  0  0  0
  -29.2520  -18.3742   23.4566 C   0  0  0  0  0  0  0  0  0  0  0  0
  -30.6762  -20.4319   23.3791 C   0  0  0  0  0  0  0  0  0  0  0  0
  -31.2591  -18.4598   21.9670 C   0  0  0  0  0  0  0  0  0  0  0  0
  -28.7887  -23.1214   17.6037 C   0  0  0  0  0  0  0  0  0  0  0  0
  -20.9608  -22.4896   20.6355 C   0  0  0  0  0  0  0  0  0  1  0  0
  -29.2545  -19.8735   21.3547 C   0  0  1  0  0  0  0  0  0  0  0  0
  -30.6330  -22.6970   19.2339 C   0  0  2  0  0  0  0  0  0  0  0  0
  -30.0830  -19.2859   22.5318 C   0  0  0  0  0  0  0  0  0  0  0  0
  -25.4867  -28.0757   17.5298 N   0  0  0  0  0  0  0  0  0  0  0  0
  -24.9167  -27.5391   18.6221 N   0  0  0  0  0  0  0  0  0  0  0  0
  -27.2267  -18.8111   20.4151 N   0  0  0  0  0  0  0  0  0  0  0  0
  -23.9737  -29.8831   21.4805 N   0  0  0  0  0  0  0  0  0  0  0  0
  -23.6641  -25.6757   19.3769 N   0  0  0  0  0  0  0  0  0  0  0  0
  -24.2315  -24.8361   14.9758 N   0  0  0  0  0  0  0  0  0  0  0  0
  -22.0012  -28.9365   22.3845 N   0  0  0  0  0  0  0  0  0  0  0  0
  -25.5572  -15.5693   20.4073 N   0  0  0  0  0  0  0  0  0  0  0  0
  -30.0224  -20.7192   20.4472 N   0  0  0  0  0  0  0  0  0  0  0  0
  -29.9082  -23.6933   18.3954 N   0  3  0  0  0  0  0  0  0  0  0  0
  -21.0277  -29.1071   24.4952 O   0  0  0  0  0  0  0  0  0  0  0  0
  -23.2956  -24.0495   16.9159 O   0  0  0  0  0  0  0  0  0  0  0  0
  -26.3792  -17.0211   22.0318 O   0  0  0  0  0  0  0  0  0  0  0  0
  -29.3505  -17.9835   19.9246 O   0  0  0  0  0  0  0  0  0  0  0  0
  -28.7223  -22.6212   20.7107 O   0  0  0  0  0  0  0  0  0  0  0  0
  -23.3098  -30.3483   23.6543 O   0  0  0  0  0  0  0  0  0  0  0  0
  -26.9564  -28.0528   11.3339 O   0  0  0  0  0  0  0  0  0  0  0  0
  -21.9903  -21.9085   21.4347 O   0  0  0  0  0  0  0  0  0  1  0  0
  -29.2210  -23.8019    8.6497 F   0  0  0  0  0  0  0  0  0  0  0  0
  -25.5228  -25.7317   10.8868 F   0  0  0  0  0  0  0  0  0  0  0  0
  1  2  1  0  0  0  0
  1  6  2  0  0  0  0
  2  7  2  0  0  0  0
  3 10  2  0  0  0  0
  3 18  1  0  0  0  0
  4 11  1  0  0  0  0
  4 18  2  0  0  0  0
  5  9  2  0  0  0  0
  5 19  1  0  0  0  0
  6 22  1  0  0  0  0
  7 24  1  0  0  0  0
  8 12  2  0  0  0  0
  8 23  1  0  0  0  0
  9 26  1  0  0  0  0
 10 27  1  0  0  0  0
 11 27  2  0  0  0  0
 12 28  1  0  0  0  0
 13 14  2  0  0  0  0
 13 29  1  0  0  0  0
 14 30  1  0  0  0  0
 15 19  2  0  0  0  0
 15 20  1  0  0  0  0
 16 25  1  0  0  0  0
 16 28  2  0  0  0  0
 17 30  2  0  0  0  0
 17 31  1  0  0  0  0
 18 32  1  0  0  0  0
 19 34  1  0  0  0  0
 20 26  2  0  0  0  0
 20 36  1  0  0  0  0
 21 32  1  0  0  0  0
 21 33  2  0  0  0  0
 21 37  1  0  0  0  0
 22 24  2  0  0  0  0
 22 42  1  0  0  0  0
 23 25  2  0  0  0  0
 23 43  1  0  0  0  0
 24 51  1  0  0  0  0
 25 44  1  0  0  0  0
 26 54  1  0  0  0  0
 27 80  1  0  0  0  0
 28 81  1  0  0  0  0
 29 31  2  0  0  0  0
 29 80  1  0  0  0  0
 30 82  1  0  0  0  0
 31 83  1  0  0  0  0
 32 64  2  0  0  0  0
 33 65  1  0  0  0  0
 33 68  1  0  0  0  0
 34 35  2  0  0  0  0
 35 60  1  0  0  0  0
 36 70  1  0  0  0  0
 36 74  2  0  0  0  0
 37 69  1  0  0  0  0
 37 75  2  0  0  0  0
 38 52  1  0  0  0  0
 38 71  1  0  0  0  0
 38 76  2  0  0  0  0
 39 61  1  0  0  0  0
 39 66  1  0  0  0  0
 39 77  2  0  0  0  0
 40 62  1  0  0  0  0
 40 72  1  0  0  0  0
 40 78  2  0  0  0  0
 41 67  1  0  0  0  0
 41 70  1  0  0  0  0
 41 79  2  0  0  0  0
 42 45  1  0  0  0  0
 43 52  1  0  0  0  0
 44 66  1  0  0  0  0
 45 47  1  0  0  0  0
 46 48  1  0  0  0  0
 46 49  1  0  0  0  0
 47 51  1  0  0  0  0
 48 53  1  0  0  0  0
 49 67  1  0  0  0  0
 50 53  1  0  0  0  0
 50 67  1  0  0  0  0
 51 71  1  0  0  0  0
 52 66  1  0  0  0  0
 53 65  1  0  0  0  0
 55 62  1  0  0  0  0
 56 63  1  0  0  0  0
 57 63  1  0  0  0  0
 58 63  1  0  0  0  0
 59 73  1  0  0  0  0
 60 81  1  0  0  0  0
 61 63  1  0  0  0  0
 61 72  1  0  0  0  0
 62 73  1  0  0  0  0
 64 65  1  0  0  0  0
M  CHG  1  73   1
M  ISO  4  41 100  60 101  70 100  81 101
M  END
> <Batch ID>
0060

> <Smiles>
CNC(C)C(=O)NC(C(=O)N1Cc2cc([101O:1][101CH2:1]C=Cc3ccc(C)c(C(=O)[100NH:0][100C:0](=O)N4CCCC(n5nc(-c6ccc(Oc7ccc(F)cc7F)cc6)c(C(N)=O)c5N)C4)c3)ccc2CC1C(=O)NC1CCCc2ccccc21)C(C)(C)C

> <Shape>
0.223

> <Color>
0.075

> <Negative vol penalty>
0.000

$$$$

  -OEChem-04042323043D

 83 91  0     1  0  0  0  0  0999 V2000
  -17.0309  -25.8536   25.0049 C   0  0  0  0  0  0  0  0  0  0  0  0
  -18.3206  -25.5126   25.3994 C   0  0  0  0  0  0  0  0  0  0  0  0
  -26.4108  -13.7711   22.6255 C   0  0  0  0  0  0  0  0  0  0  0  0
  -26.3883  -13.0600   20.3167 C   0  0  0  0  0  0  0  0  0  0  0  0
  -16.8384  -26.7763   23.9776 C   0  0  0  0  0  0  0  0  0  0  0  0
  -19.4188  -26.0933   24.7660 C   0  0  0  0  0  0  0  0  0  0  0  0
  -22.9711  -27.6118   28.0402 C   0  0  0  0  0  0  0  0  0  0  0  0
  -29.6764  -22.4195   21.3384 C   0  0  0  0  0  0  0  0  0  0  0  0
  -29.7453  -22.5271   22.7273 C   0  0  0  0  0  0  0  0  0  0  0  0
  -25.9793  -12.5047   23.0198 C   0  0  0  0  0  0  0  0  0  0  0  0
  -25.9568  -11.7935   20.7110 C   0  0  0  0  0  0  0  0  0  0  0  0
  -23.8065  -26.6312   28.5735 C   0  0  0  0  0  0  0  0  0  0  0  0
  -24.5041   -8.4821   21.0779 C   0  0  0  0  0  0  0  0  0  0  0  0
  -23.4663   -7.8960   20.3532 C   0  0  0  0  0  0  0  0  0  0  0  0
  -27.3375  -22.3774   22.8584 C   0  0  0  0  0  0  0  0  0  0  0  0
  -25.5243  -27.2447   26.9949 C   0  0  0  0  0  0  0  0  0  0  0  0
  -22.0202   -9.7435   20.9301 C   0  0  0  0  0  0  0  0  0  0  0  0
  -26.6153  -14.0488   21.2739 C   0  0  0  0  0  0  0  0  0  0  0  0
  -27.2687  -22.2698   21.4694 C   0  0  0  0  0  0  0  0  0  0  0  0
  -28.3903  -15.7946   20.7179 C   0  0  0  0  0  0  0  0  0  0  0  0
  -17.9347  -27.3760   23.3378 C   0  0  0  0  0  0  0  0  0  0  0  0
  -23.4029  -28.4102   26.9713 C   0  0  0  0  0  0  0  0  0  0  0  0
  -19.2408  -27.0240   23.7282 C   0  0  0  0  0  0  0  0  0  0  0  0
  -24.6935  -28.2364   26.4516 C   0  0  0  0  0  0  0  0  0  0  0  0
  -28.4381  -22.2909   20.7094 C   0  0  0  0  0  0  0  0  0  0  0  0
  -28.5758  -22.5061   23.4873 C   0  0  0  0  0  0  0  0  0  0  0  0
  -25.7523  -11.5159   22.0626 C   0  0  0  0  0  0  0  0  0  0  0  0
  -25.0822  -26.4455   28.0490 C   0  0  0  0  0  0  0  0  0  0  0  0
  -24.2999   -9.6989   21.7287 C   0  0  0  0  0  0  0  0  0  0  0  0
  -22.2244   -8.5267   20.2793 C   0  0  0  0  0  0  0  0  0  0  0  0
  -23.0580  -10.3296   21.6547 C   0  0  0  0  0  0  0  0  0  0  0  0
  -27.0605  -15.3570   20.8659 C   0  0  0  0  0  0  0  0  0  0  0  0
  -28.2784  -17.1029   20.3151 C   0  0  0  0  0  0  0  0  0  0  0  0
  -25.9520  -22.1359   20.8326 C   0  0  0  0  0  0  0  0  0  0  0  0
  -29.6170  -15.0821   20.9259 C   0  0  0  0  0  0  0  0  0  0  0  0
  -22.4314  -28.8705   23.9800 C   0  0  0  0  0  0  0  0  0  0  0  0
  -24.7110  -31.1781   24.0073 C   0  0  0  0  0  0  0  0  0  0  0  0
  -27.5899  -22.6140   25.8022 C   0  0  0  0  0  0  0  0  0  0  0  0
  -27.6069  -32.3740   25.3603 C   0  0  0  0  0  0  0  0  0  0  0  0
  -17.6773  -28.3324   22.2004 C   0  0  0  0  0  0  0  0  0  0  0  0
  -22.4996  -29.4817   26.4249 C   0  0  0  0  0  0  0  0  0  0  0  0
  -25.2122  -29.0812   25.3176 C   0  0  0  0  0  0  0  0  0  0  0  0
  -18.8904  -29.1835   21.8340 C   0  0  0  0  0  0  0  0  0  0  0  0
  -24.2566  -19.7576   18.7805 C   0  0  0  0  0  0  0  0  0  0  0  0
  -20.1415  -28.3161   21.7370 C   0  0  0  0  0  0  0  0  0  0  0  0
  -24.9291  -18.4316   19.1404 C   0  0  0  0  0  0  0  0  0  0  0  0
  -24.1411  -20.6781   19.9929 C   0  0  0  0  0  0  0  0  0  0  0  0
  -26.0926  -19.6008   21.0586 C   0  0  0  0  0  0  0  0  0  0  0  0
  -20.4572  -27.6510   23.0821 C   0  0  1  0  0  0  0  0  0  0  0  0
  -22.8533  -29.8913   24.9986 C   0  0  1  0  0  0  0  0  0  0  0  0
  -26.2746  -18.6639   19.8532 C   0  0  1  0  0  0  0  0  0  0  0  0
  -28.3931  -22.1773   19.2206 C   0  0  0  0  0  0  0  0  0  0  0  0
  -29.2474  -34.2613   25.1498 C   0  0  0  0  0  0  0  0  0  0  0  0
  -25.8713  -29.8865   21.4982 C   0  0  0  0  0  0  0  0  0  0  0  0
  -27.9755  -31.1863   21.8865 C   0  0  0  0  0  0  0  0  0  0  0  0
  -25.8306  -32.3867   21.4609 C   0  0  0  0  0  0  0  0  0  0  0  0
  -27.0937  -33.2828   28.1297 C   0  0  0  0  0  0  0  0  0  0  0  0
  -28.1076  -22.7556   27.2269 C   0  0  0  0  0  0  0  0  0  0  0  0
  -27.1175  -23.4654   28.1438 C   0  0  0  0  0  0  0  0  0  0  0  0
  -26.8406  -24.8877   27.6788 C   0  0  0  0  0  0  0  0  0  1  0  0
  -26.1840  -31.2297   23.6809 C   0  0  1  0  0  0  0  0  0  0  0  0
  -27.9941  -33.7581   25.8489 C   0  0  2  0  0  0  0  0  0  0  0  0
  -26.4552  -31.1549   22.1517 C   0  0  0  0  0  0  0  0  0  0  0  0
  -26.1692  -16.3101   20.5805 N   0  0  0  0  0  0  0  0  0  0  0  0
  -26.9405  -17.3596   20.2492 N   0  0  0  0  0  0  0  0  0  0  0  0
  -25.4422  -20.8499   20.6380 N   0  0  0  0  0  0  0  0  0  0  0  0
  -24.2891  -30.1113   24.8133 N   0  0  0  0  0  0  0  0  0  0  0  0
  -29.1949  -18.0474   20.0145 N   0  0  0  0  0  0  0  0  0  0  0  0
  -29.5510  -13.7446   21.3393 N   0  0  0  0  0  0  0  0  0  0  0  0
  -28.6469  -22.6166   24.8963 N   0  0  0  0  0  0  0  0  0  0  0  0
  -21.0763  -28.6001   23.9823 N   0  0  0  0  0  0  0  0  0  0  0  0
  -26.7022  -32.4337   24.3215 N   0  0  0  0  0  0  0  0  0  0  0  0
  -28.2514  -33.7361   27.3167 N   0  3  0  0  0  0  0  0  0  0  0  0
  -25.3980  -23.1839   20.5045 O   0  0  0  0  0  0  0  0  0  0  0  0
  -30.7386  -15.6207   20.7662 O   0  0  0  0  0  0  0  0  0  0  0  0
  -23.2728  -28.3666   23.2452 O   0  0  0  0  0  0  0  0  0  0  0  0
  -23.9635  -32.0562   23.5693 O   0  0  0  0  0  0  0  0  0  0  0  0
  -26.3934  -22.5157   25.5509 O   0  0  0  0  0  0  0  0  0  0  0  0
  -28.0643  -31.3431   25.8487 O   0  0  0  0  0  0  0  0  0  0  0  0
  -25.3315  -10.2799   22.4470 O   0  0  0  0  0  0  0  0  0  0  0  0
  -25.8993  -25.4886   28.5672 O   0  0  0  0  0  0  0  0  0  1  0  0
  -21.2284   -7.9646   19.5821 F   0  0  0  0  0  0  0  0  0  0  0  0
  -22.8562  -11.4992   22.2769 F   0  0  0  0  0  0  0  0  0  0  0  0
  1  2  1  0  0  0  0
  1  5  2  0  0  0  0
  2  6  2  0  0  0  0
  3 10  2  0  0  0  0
  3 18  1  0  0  0  0
  4 11  1  0  0  0  0
  4 18  2  0  0  0  0
  5 21  1  0  0  0  0
  6 23  1  0  0  0  0
  7 12  2  0  0  0  0
  7 22  1  0  0  0  0
  8  9  2  0  0  0  0
  8 25  1  0  0  0  0
  9 26  1  0  0  0  0
 10 27  1  0  0  0  0
 11 27  2  0  0  0  0
 12 28  1  0  0  0  0
 13 14  2  0  0  0  0
 13 29  1  0  0  0  0
 14 30  1  0  0  0  0
 15 19  1  0  0  0  0
 15 26  2  0  0  0  0
 16 24  1  0  0  0  0
 16 28  2  0  0  0  0
 17 30  2  0  0  0  0
 17 31  1  0  0  0  0
 18 32  1  0  0  0  0
 19 25  2  0  0  0  0
 19 34  1  0  0  0  0
 20 32  1  0  0  0  0
 20 33  2  0  0  0  0
 20 35  1  0  0  0  0
 21 23  2  0  0  0  0
 21 40  1  0  0  0  0
 22 24  2  0  0  0  0
 22 41  1  0  0  0  0
 23 49  1  0  0  0  0
 24 42  1  0  0  0  0
 25 52  1  0  0  0  0
 26 70  1  0  0  0  0
 27 80  1  0  0  0  0
 28 81  1  0  0  0  0
 29 31  2  0  0  0  0
 29 80  1  0  0  0  0
 30 82  1  0  0  0  0
 31 83  1  0  0  0  0
 32 64  2  0  0  0  0
 33 65  1  0  0  0  0
 33 68  1  0  0  0  0
 34 66  1  0  0  0  0
 34 74  2  0  0  0  0
 35 69  1  0  0  0  0
 35 75  2  0  0  0  0
 36 50  1  0  0  0  0
 36 71  1  0  0  0  0
 36 76  2  0  0  0  0
 37 61  1  0  0  0  0
 37 67  1  0  0  0  0
 37 77  2  0  0  0  0
 38 58  1  0  0  0  0
 38 70  1  0  0  0  0
 38 78  2  0  0  0  0
 39 62  1  0  0  0  0
 39 72  1  0  0  0  0
 39 79  2  0  0  0  0
 40 43  1  0  0  0  0
 41 50  1  0  0  0  0
 42 67  1  0  0  0  0
 43 45  1  0  0  0  0
 44 46  1  0  0  0  0
 44 47  1  0  0  0  0
 45 49  1  0  0  0  0
 46 51  1  0  0  0  0
 47 66  1  0  0  0  0
 48 51  1  0  0  0  0
 48 66  1  0  0  0  0
 49 71  1  0  0  0  0
 50 67  1  0  0  0  0
 51 65  1  0  0  0  0
 53 62  1  0  0  0  0
 54 63  1  0  0  0  0
 55 63  1  0  0  0  0
 56 63  1  0  0  0  0
 57 73  1  0  0  0  0
 58 59  1  0  0  0  0
 59 60  1  0  0  0  0
 60 81  1  0  0  0  0
 61 63  1  0  0  0  0
 61 72  1  0  0  0  0
 62 73  1  0  0  0  0
 64 65  1  0  0  0  0
M  CHG  1  73   1
M  ISO  4  19 100  34 100  60 101  81 101
M  END
> <Batch ID>
0060

> <Smiles>
CNC(C)C(=O)NC(C(=O)N1Cc2cc([101O:1][101CH2:1]CCC(=O)Nc3ccc(C)[100c:0]([100C:0](=O)N4CCCC(n5nc(-c6ccc(Oc7ccc(F)cc7F)cc6)c(C(N)=O)c5N)C4)c3)ccc2CC1C(=O)NC1CCCc2ccccc21)C(C)(C)C

> <Shape>
0.229

> <Color>
0.080

> <Negative vol penalty>
0.000

$$$$

  -OEChem-04042323043D

 86 94  0     1  0  0  0  0  0999 V2000
  -15.1466  -27.1004   29.4809 C   0  0  0  0  0  0  0  0  0  0  0  0
  -16.2797  -27.1831   28.6781 C   0  0  0  0  0  0  0  0  0  0  0  0
  -23.0001   -9.8944   19.9807 C   0  0  0  0  0  0  0  0  0  0  0  0
  -23.7252   -9.9450   22.2848 C   0  0  0  0  0  0  0  0  0  0  0  0
  -15.0959  -26.1719   30.5197 C   0  0  0  0  0  0  0  0  0  0  0  0
  -17.3634  -26.3381   28.9143 C   0  0  0  0  0  0  0  0  0  0  0  0
  -22.5983  -22.8743   25.4626 C   0  0  0  0  0  0  0  0  0  0  0  0
  -32.6472  -17.4453   23.4569 C   0  0  0  0  0  0  0  0  0  0  0  0
  -32.0585  -16.5492   22.5648 C   0  0  0  0  0  0  0  0  0  0  0  0
  -22.2333   -8.7601   20.2469 C   0  0  0  0  0  0  0  0  0  0  0  0
  -22.9583   -8.8107   22.5510 C   0  0  0  0  0  0  0  0  0  0  0  0
  -23.9828  -22.7119   25.4900 C   0  0  0  0  0  0  0  0  0  0  0  0
  -23.2019   -5.4717   22.0788 C   0  0  0  0  0  0  0  0  0  0  0  0
  -23.7892   -4.4543   22.8308 C   0  0  0  0  0  0  0  0  0  0  0  0
  -23.7517  -21.0926   27.2630 C   0  0  0  0  0  0  0  0  0  0  0  0
  -29.8805  -17.4478   23.0995 C   0  0  0  0  0  0  0  0  0  0  0  0
  -22.0652   -4.6975   24.5060 C   0  0  0  0  0  0  0  0  0  0  0  0
  -23.7461  -10.4869   20.9996 C   0  0  0  0  0  0  0  0  0  0  0  0
  -24.1320  -13.0024   20.8239 C   0  0  0  0  0  0  0  0  0  0  0  0
  -16.1758  -25.3084   30.7628 C   0  0  0  0  0  0  0  0  0  0  0  0
  -21.7796  -22.1539   26.3442 C   0  0  0  0  0  0  0  0  0  0  0  0
  -17.3277  -25.3980   29.9583 C   0  0  0  0  0  0  0  0  0  0  0  0
  -22.3569  -21.2458   27.2431 C   0  0  0  0  0  0  0  0  0  0  0  0
  -31.8526  -18.3427   24.1704 C   0  0  0  0  0  0  0  0  0  0  0  0
  -30.6751  -16.5504   22.3860 C   0  0  0  0  0  0  0  0  0  0  0  0
  -30.4692  -18.3439   23.9917 C   0  0  0  0  0  0  0  0  0  0  0  0
  -22.2124   -8.2182   21.5320 C   0  0  0  0  0  0  0  0  0  0  0  0
  -24.5599  -21.8230   26.3922 C   0  0  0  0  0  0  0  0  0  0  0  0
  -22.0464   -6.1021   22.5403 C   0  0  0  0  0  0  0  0  0  0  0  0
  -23.2209   -4.0671   24.0444 C   0  0  0  0  0  0  0  0  0  0  0  0
  -21.4780   -5.7149   23.7539 C   0  0  0  0  0  0  0  0  0  0  0  0
  -24.5389  -11.6583   20.7252 C   0  0  0  0  0  0  0  0  0  0  0  0
  -25.2420  -13.7248   20.4596 C   0  0  0  0  0  0  0  0  0  0  0  0
  -27.7709  -20.4376   25.5476 C   0  0  0  0  0  0  0  0  0  0  0  0
  -26.4627  -20.7033   25.6201 C   0  0  0  0  0  0  0  0  0  1  0  0
  -22.8642  -13.5490   21.2104 C   0  0  0  0  0  0  0  0  0  0  0  0
  -28.2638  -19.3648   24.6352 C   0  0  0  0  0  0  0  0  0  0  0  0
  -19.7604  -22.9318   28.6726 C   0  0  0  0  0  0  0  0  0  0  0  0
  -19.1384  -19.7482   28.6668 C   0  0  0  0  0  0  0  0  0  0  0  0
  -20.2037  -16.5894   27.9358 C   0  0  0  0  0  0  0  0  0  0  0  0
  -30.7216  -14.6846   20.6940 C   0  0  0  0  0  0  0  0  0  0  0  0
  -16.0937  -24.3533   31.9271 C   0  0  0  0  0  0  0  0  0  0  0  0
  -20.2860  -22.3207   26.2838 C   0  0  0  0  0  0  0  0  0  0  0  0
  -21.5206  -20.4335   28.1966 C   0  0  0  0  0  0  0  0  0  0  0  0
  -17.1353  -23.2386   31.8752 C   0  0  0  0  0  0  0  0  0  0  0  0
  -29.6030  -12.2322   18.3678 C   0  0  0  0  0  0  0  0  0  0  0  0
  -18.5112  -23.8086   31.5454 C   0  0  0  0  0  0  0  0  0  0  0  0
  -28.1523  -11.9748   18.7818 C   0  0  0  0  0  0  0  0  0  0  0  0
  -30.5035  -12.4752   19.5777 C   0  0  0  0  0  0  0  0  0  0  0  0
  -28.5882  -13.2644   20.9111 C   0  0  0  0  0  0  0  0  0  0  0  0
  -18.5137  -24.4816   30.1675 C   0  0  1  0  0  0  0  0  0  0  0  0
  -19.5868  -21.9170   27.5783 C   0  0  1  0  0  0  0  0  0  0  0  0
  -27.6306  -13.0784   19.7229 C   0  0  2  0  0  0  0  0  0  0  0  0
  -19.4909  -14.1876   28.0793 C   0  0  0  0  0  0  0  0  0  0  0  0
  -19.7285  -19.7544   31.6604 C   0  0  0  0  0  0  0  0  0  0  0  0
  -19.9366  -17.2617   31.5539 C   0  0  0  0  0  0  0  0  0  0  0  0
  -17.7678  -18.3559   30.9865 C   0  0  0  0  0  0  0  0  0  0  0  0
  -20.3358  -16.2540   24.9983 C   0  0  0  0  0  0  0  0  0  0  0  0
  -19.7098  -18.5460   29.3789 C   0  0  1  0  0  0  0  0  0  0  0  0
  -19.5243  -15.4388   27.2154 C   0  0  2  0  0  0  0  0  0  0  0  0
  -32.5105  -19.2912   25.1192 C   0  0  0  0  0  0  0  0  0  0  0  0
  -19.3019  -18.4961   30.8784 C   0  0  0  0  0  0  0  0  0  0  0  0
  -25.8082  -11.5316   20.3291 N   0  0  0  0  0  0  0  0  0  0  0  0
  -26.2084  -12.8053   20.1756 N   0  0  0  0  0  0  0  0  0  0  0  0
  -20.0654  -20.6366   28.1035 N   0  0  0  0  0  0  0  0  0  0  0  0
  -29.9486  -13.5362   20.4210 N   0  0  0  0  0  0  0  0  0  0  0  0
  -25.4758  -15.0504   20.3577 N   0  0  0  0  0  0  0  0  0  0  0  0
  -21.8322  -12.6651   21.5538 N   0  0  0  0  0  0  0  0  0  0  0  0
  -29.6455  -19.2473   24.7071 N   0  0  0  0  0  0  0  0  0  0  0  0
  -30.0775  -15.6398   21.4797 N   0  0  0  0  0  0  0  0  0  0  0  0
  -18.5759  -23.4861   29.1189 N   0  0  0  0  0  0  0  0  0  0  0  0
  -19.2948  -17.3793   28.6076 N   0  0  0  0  0  0  0  0  0  0  0  0
  -20.2480  -15.1188   25.9525 N   0  3  0  0  0  0  0  0  0  0  0  0
  -22.6477  -14.7844   21.2342 O   0  0  0  0  0  0  0  0  0  0  0  0
  -27.4896  -18.7143   23.9431 O   0  0  0  0  0  0  0  0  0  0  0  0
  -20.8856  -23.1916   29.0828 O   0  0  0  0  0  0  0  0  0  0  0  0
  -17.9146  -19.8900   28.6062 O   0  0  0  0  0  0  0  0  0  0  0  0
  -21.4194  -16.7675   27.9085 O   0  0  0  0  0  0  0  0  0  0  0  0
  -31.8604  -14.8233   20.2401 O   0  0  0  0  0  0  0  0  0  0  0  0
  -21.4641   -7.1115   21.7922 O   0  0  0  0  0  0  0  0  0  0  0  0
  -25.9109  -21.6630   26.4215 O   0  0  0  0  0  0  0  0  0  1  0  0
  -23.7840   -3.0891   24.7657 F   0  0  0  0  0  0  0  0  0  0  0  0
  -20.3672   -6.3160   24.2019 F   0  0  0  0  0  0  0  0  0  0  0  0
  -33.8675  -19.1554   25.1718 F   0  0  0  0  0  0  0  0  0  0  0  0
  -32.2931  -20.6036   24.8144 F   0  0  0  0  0  0  0  0  0  0  0  0
  -32.0743  -19.1335   26.4017 F   0  0  0  0  0  0  0  0  0  0  0  0
  1  2  1  0  0  0  0
  1  5  2  0  0  0  0
  2  6  2  0  0  0  0
  3 10  2  0  0  0  0
  3 18  1  0  0  0  0
  4 11  1  0  0  0  0
  4 18  2  0  0  0  0
  5 20  1  0  0  0  0
  6 22  1  0  0  0  0
  7 12  2  0  0  0  0
  7 21  1  0  0  0  0
  8  9  2  0  0  0  0
  8 24  1  0  0  0  0
  9 25  1  0  0  0  0
 10 27  1  0  0  0  0
 11 27  2  0  0  0  0
 12 28  1  0  0  0  0
 13 14  2  0  0  0  0
 13 29  1  0  0  0  0
 14 30  1  0  0  0  0
 15 23  1  0  0  0  0
 15 28  2  0  0  0  0
 16 25  2  0  0  0  0
 16 26  1  0  0  0  0
 17 30  2  0  0  0  0
 17 31  1  0  0  0  0
 18 32  1  0  0  0  0
 19 32  1  0  0  0  0
 19 33  2  0  0  0  0
 19 36  1  0  0  0  0
 20 22  2  0  0  0  0
 20 42  1  0  0  0  0
 21 23  2  0  0  0  0
 21 43  1  0  0  0  0
 22 51  1  0  0  0  0
 23 44  1  0  0  0  0
 24 26  2  0  0  0  0
 24 61  1  0  0  0  0
 25 70  1  0  0  0  0
 26 69  1  0  0  0  0
 27 80  1  0  0  0  0
 28 81  1  0  0  0  0
 29 31  2  0  0  0  0
 29 80  1  0  0  0  0
 30 82  1  0  0  0  0
 31 83  1  0  0  0  0
 32 63  2  0  0  0  0
 33 64  1  0  0  0  0
 33 67  1  0  0  0  0
 34 35  2  0  0  0  0
 34 37  1  0  0  0  0
 35 81  1  0  0  0  0
 36 68  1  0  0  0  0
 36 74  2  0  0  0  0
 37 69  1  0  0  0  0
 37 75  2  0  0  0  0
 38 52  1  0  0  0  0
 38 71  1  0  0  0  0
 38 76  2  0  0  0  0
 39 59  1  0  0  0  0
 39 65  1  0  0  0  0
 39 77  2  0  0  0  0
 40 60  1  0  0  0  0
 40 72  1  0  0  0  0
 40 78  2  0  0  0  0
 41 66  1  0  0  0  0
 41 70  1  0  0  0  0
 41 79  2  0  0  0  0
 42 45  1  0  0  0  0
 43 52  1  0  0  0  0
 44 65  1  0  0  0  0
 45 47  1  0  0  0  0
 46 48  1  0  0  0  0
 46 49  1  0  0  0  0
 47 51  1  0  0  0  0
 48 53  1  0  0  0  0
 49 66  1  0  0  0  0
 50 53  1  0  0  0  0
 50 66  1  0  0  0  0
 51 71  1  0  0  0  0
 52 65  1  0  0  0  0
 53 64  1  0  0  0  0
 54 60  1  0  0  0  0
 55 62  1  0  0  0  0
 56 62  1  0  0  0  0
 57 62  1  0  0  0  0
 58 73  1  0  0  0  0
 59 62  1  0  0  0  0
 59 72  1  0  0  0  0
 60 73  1  0  0  0  0
 61 84  1  0  0  0  0
 61 85  1  0  0  0  0
 61 86  1  0  0  0  0
 63 64  1  0  0  0  0
M  CHG  1  73   1
M  ISO  4  35 101  41 100  70 100  81 101
M  END
> <Batch ID>
0060

> <Smiles>
CNC(C)C(=O)NC(C(=O)N1Cc2cc([101O:1][101CH:1]=CC(=O)Nc3cc([100NH:0][100C:0](=O)N4CCCC(n5nc(-c6ccc(Oc7ccc(F)cc7F)cc6)c(C(N)=O)c5N)C4)ccc3C(F)(F)F)ccc2CC1C(=O)NC1CCCc2ccccc21)C(C)(C)C

> <Shape>
0.170

> <Color>
0.198

> <Negative vol penalty>
0.000

$$$$

  -OEChem-04042323043D

 83 91  0     1  0  0  0  0  0999 V2000
  -28.6825  -11.2137   19.8654 C   0  0  0  0  0  0  0  0  0  0  0  0
  -28.8322  -12.5287   19.4366 C   0  0  0  0  0  0  0  0  0  0  0  0
  -32.4877  -27.4370   16.6049 C   0  0  0  0  0  0  0  0  0  0  0  0
  -20.0625  -26.9924   18.8169 C   0  0  0  0  0  0  0  0  0  0  0  0
  -21.1113  -24.9311   19.5159 C   0  0  0  0  0  0  0  0  0  0  0  0
  -27.4508  -10.7757   20.3500 C   0  0  0  0  0  0  0  0  0  0  0  0
  -27.7498  -13.4062   19.4913 C   0  0  0  0  0  0  0  0  0  0  0  0
  -29.0178  -17.9416   21.3533 C   0  0  0  0  0  0  0  0  0  0  0  0
  -31.9676  -28.0680   17.7349 C   0  0  0  0  0  0  0  0  0  0  0  0
  -32.4593  -26.0458   16.5077 C   0  0  0  0  0  0  0  0  0  0  0  0
  -19.1810  -26.2709   18.0119 C   0  0  0  0  0  0  0  0  0  0  0  0
  -20.2297  -24.2096   18.7110 C   0  0  0  0  0  0  0  0  0  0  0  0
  -29.6776  -18.8203   20.4952 C   0  0  0  0  0  0  0  0  0  0  0  0
  -18.0215  -21.8000   17.1185 C   0  0  0  0  0  0  0  0  0  0  0  0
  -17.4306  -20.6597   17.6626 C   0  0  0  0  0  0  0  0  0  0  0  0
  -27.5998  -19.9779   20.0927 C   0  0  0  0  0  0  0  0  0  0  0  0
  -31.3908  -25.9166   18.6707 C   0  0  0  0  0  0  0  0  0  0  0  0
  -16.4315  -22.0073   19.4014 C   0  0  0  0  0  0  0  0  0  0  0  0
  -21.0277  -26.3225   19.5688 C   0  0  0  0  0  0  0  0  0  0  0  0
  -21.7565  -27.4312   21.7477 C   0  0  0  0  0  0  0  0  0  0  0  0
  -26.3554  -11.6508   20.4196 C   0  0  0  0  0  0  0  0  0  0  0  0
  -27.6396  -18.0679   21.5794 C   0  0  0  0  0  0  0  0  0  0  0  0
  -26.5019  -12.9791   19.9760 C   0  0  0  0  0  0  0  0  0  0  0  0
  -26.9254  -19.1011   20.9560 C   0  0  0  0  0  0  0  0  0  0  0  0
  -31.4192  -27.3078   18.7678 C   0  0  0  0  0  0  0  0  0  0  0  0
  -31.9109  -25.2856   17.5406 C   0  0  0  0  0  0  0  0  0  0  0  0
  -19.2645  -24.8795   17.9590 C   0  0  0  0  0  0  0  0  0  0  0  0
  -28.9681  -19.8369   19.8625 C   0  0  0  0  0  0  0  0  0  0  0  0
  -17.8176  -23.0440   17.7158 C   0  0  0  0  0  0  0  0  0  0  0  0
  -16.6356  -20.7634   18.8041 C   0  0  0  0  0  0  0  0  0  0  0  0
  -17.0225  -23.1476   18.8572 C   0  0  0  0  0  0  0  0  0  0  0  0
  -21.9390  -27.0672   20.4001 C   0  0  0  0  0  0  0  0  0  0  0  0
  -22.8979  -28.1217   22.0745 C   0  0  0  0  0  0  0  0  0  0  0  0
  -20.6538  -27.1684   22.6256 C   0  0  0  0  0  0  0  0  0  0  0  0
  -25.1041  -16.2203   21.0684 C   0  0  0  0  0  0  0  0  0  0  0  0
  -23.5543  -18.5687   22.6826 C   0  0  0  0  0  0  0  0  0  0  0  0
  -31.3763  -22.9682   18.3701 C   0  0  0  0  0  0  0  0  0  0  0  0
  -23.4644  -21.8355   23.6657 C   0  0  0  0  0  0  0  0  0  0  0  0
  -28.3843  -27.9035   19.9048 C   0  0  0  0  0  0  0  0  0  0  0  0
  -25.0309  -11.1187   20.9067 C   0  0  0  0  0  0  0  0  0  0  0  0
  -26.9477  -17.1284   22.5286 C   0  0  0  0  0  0  0  0  0  0  0  0
  -25.4484  -19.2920   21.1811 C   0  0  0  0  0  0  0  0  0  0  0  0
  -24.0355  -12.2136   21.2819 C   0  0  0  0  0  0  0  0  0  0  0  0
  -26.3065  -30.8584   20.1252 C   0  0  0  0  0  0  0  0  0  0  0  0
  -23.9921  -13.2889   20.2009 C   0  0  0  0  0  0  0  0  0  0  0  0
  -24.9245  -30.2424   20.3508 C   0  0  0  0  0  0  0  0  0  0  0  0
  -27.1349  -30.0185   19.1575 C   0  0  0  0  0  0  0  0  0  0  0  0
  -25.9098  -27.9737   19.7833 C   0  0  0  0  0  0  0  0  0  0  0  0
  -25.3581  -13.9676   20.0428 C   0  0  1  0  0  0  0  0  0  0  0  0
  -25.4447  -17.0330   22.2854 C   0  0  1  0  0  0  0  0  0  0  0  0
  -25.0317  -28.7643   20.7702 C   0  0  2  0  0  0  0  0  0  0  0  0
  -22.0534  -23.4696   24.9448 C   0  0  0  0  0  0  0  0  0  0  0  0
  -21.6225  -18.7408   20.3271 C   0  0  0  0  0  0  0  0  0  0  0  0
  -20.8586  -20.9574   21.2055 C   0  0  0  0  0  0  0  0  0  0  0  0
  -20.5412  -18.8978   22.5767 C   0  0  0  0  0  0  0  0  0  0  0  0
  -25.6152  -22.3258   25.6386 C   0  0  0  0  0  0  0  0  0  0  0  0
  -30.8633  -27.9828   19.9757 C   0  0  0  0  0  0  0  0  0  0  0  0
  -31.5441  -21.5390   17.8670 C   0  0  0  0  0  0  0  0  0  0  0  0
  -31.0104  -20.4970   18.8382 C   0  0  0  0  0  0  0  0  0  1  0  0
  -22.8645  -19.8550   22.2973 C   0  0  1  0  0  0  0  0  0  0  0  0
  -23.2004  -22.4737   25.0175 C   0  0  2  0  0  0  0  0  0  0  0  0
  -21.4992  -19.6082   21.5957 C   0  0  0  0  0  0  0  0  0  0  0  0
  -23.1046  -27.4917   19.9047 N   0  0  0  0  0  0  0  0  0  0  0  0
  -23.6647  -28.1295   20.9466 N   0  0  0  0  0  0  0  0  0  0  0  0
  -24.8157  -18.3441   22.1131 N   0  0  0  0  0  0  0  0  0  0  0  0
  -27.2133  -28.6270   19.6240 N   0  0  0  0  0  0  0  0  0  0  0  0
  -23.3104  -28.7171   23.2137 N   0  0  0  0  0  0  0  0  0  0  0  0
  -19.5615  -26.4448   22.1282 N   0  0  0  0  0  0  0  0  0  0  0  0
  -31.8816  -23.8742   17.4414 N   0  0  0  0  0  0  0  0  0  0  0  0
  -25.5748  -14.9218   21.1092 N   0  0  0  0  0  0  0  0  0  0  0  0
  -22.7745  -20.6510   23.5167 N   0  0  0  0  0  0  0  0  0  0  0  0
  -29.5769  -28.5926   19.7219 N   0  0  0  0  0  0  0  0  0  0  0  0
  -24.4154  -23.1905   25.4980 N   0  3  0  0  0  0  0  0  0  0  0  0
  -20.6305  -27.5777   23.8111 O   0  0  0  0  0  0  0  0  0  0  0  0
  -24.4606  -16.7330   20.1602 O   0  0  0  0  0  0  0  0  0  0  0  0
  -22.9977  -17.7951   23.4658 O   0  0  0  0  0  0  0  0  0  0  0  0
  -30.8600  -23.2226   19.4531 O   0  0  0  0  0  0  0  0  0  0  0  0
  -24.2053  -22.3394   22.8245 O   0  0  0  0  0  0  0  0  0  0  0  0
  -28.3681  -26.7311   20.2950 O   0  0  0  0  0  0  0  0  0  0  0  0
  -18.4043  -24.1752   17.1738 O   0  0  0  0  0  0  0  0  0  0  0  0
  -29.6095  -20.6956   19.0240 O   0  0  0  0  0  0  0  0  0  1  0  0
  -16.0669  -19.6685   19.3256 F   0  0  0  0  0  0  0  0  0  0  0  0
  -16.8219  -24.3401   19.4347 F   0  0  0  0  0  0  0  0  0  0  0  0
  1  2  1  0  0  0  0
  1  6  2  0  0  0  0
  2  7  2  0  0  0  0
  3  9  1  0  0  0  0
  3 10  2  0  0  0  0
  4 11  2  0  0  0  0
  4 19  1  0  0  0  0
  5 12  1  0  0  0  0
  5 19  2  0  0  0  0
  6 21  1  0  0  0  0
  7 23  1  0  0  0  0
  8 13  2  0  0  0  0
  8 22  1  0  0  0  0
  9 25  2  0  0  0  0
 10 26  1  0  0  0  0
 11 27  1  0  0  0  0
 12 27  2  0  0  0  0
 13 28  1  0  0  0  0
 14 15  2  0  0  0  0
 14 29  1  0  0  0  0
 15 30  1  0  0  0  0
 16 24  1  0  0  0  0
 16 28  2  0  0  0  0
 17 25  1  0  0  0  0
 17 26  2  0  0  0  0
 18 30  2  0  0  0  0
 18 31  1  0  0  0  0
 19 32  1  0  0  0  0
 20 32  1  0  0  0  0
 20 33  2  0  0  0  0
 20 34  1  0  0  0  0
 21 23  2  0  0  0  0
 21 40  1  0  0  0  0
 22 24  2  0  0  0  0
 22 41  1  0  0  0  0
 23 49  1  0  0  0  0
 24 42  1  0  0  0  0
 25 57  1  0  0  0  0
 26 69  1  0  0  0  0
 27 80  1  0  0  0  0
 28 81  1  0  0  0  0
 29 31  2  0  0  0  0
 29 80  1  0  0  0  0
 30 82  1  0  0  0  0
 31 83  1  0  0  0  0
 32 63  2  0  0  0  0
 33 64  1  0  0  0  0
 33 67  1  0  0  0  0
 34 68  1  0  0  0  0
 34 74  2  0  0  0  0
 35 50  1  0  0  0  0
 35 70  1  0  0  0  0
 35 75  2  0  0  0  0
 36 60  1  0  0  0  0
 36 65  1  0  0  0  0
 36 76  2  0  0  0  0
 37 58  1  0  0  0  0
 37 69  1  0  0  0  0
 37 77  2  0  0  0  0
 38 61  1  0  0  0  0
 38 71  1  0  0  0  0
 38 78  2  0  0  0  0
 39 66  1  0  0  0  0
 39 72  1  0  0  0  0
 39 79  2  0  0  0  0
 40 43  1  0  0  0  0
 41 50  1  0  0  0  0
 42 65  1  0  0  0  0
 43 45  1  0  0  0  0
 44 46  1  0  0  0  0
 44 47  1  0  0  0  0
 45 49  1  0  0  0  0
 46 51  1  0  0  0  0
 47 66  1  0  0  0  0
 48 51  1  0  0  0  0
 48 66  1  0  0  0  0
 49 70  1  0  0  0  0
 50 65  1  0  0  0  0
 51 64  1  0  0  0  0
 52 61  1  0  0  0  0
 53 62  1  0  0  0  0
 54 62  1  0  0  0  0
 55 62  1  0  0  0  0
 56 73  1  0  0  0  0
 57 72  1  0  0  0  0
 58 59  1  0  0  0  0
 59 81  1  0  0  0  0
 60 62  1  0  0  0  0
 60 71  1  0  0  0  0
 61 73  1  0  0  0  0
 63 64  1  0  0  0  0
M  CHG  1  73   1
M  ISO  4  39 100  59 101  72 100  81 101
M  END
> <Batch ID>
0060

> <Smiles>
CNC(C)C(=O)NC(C(=O)N1Cc2cc([101O:1][101CH2:1]CC(=O)Nc3cccc(C[100NH:0][100C:0](=O)N4CCCC(n5nc(-c6ccc(Oc7ccc(F)cc7F)cc6)c(C(N)=O)c5N)C4)c3)ccc2CC1C(=O)NC1CCCc2ccccc21)C(C)(C)C

> <Shape>
0.200

> <Color>
0.081

> <Negative vol penalty>
0.000

$$$$

  -OEChem-04042323043D

 87 95  0     1  0  0  0  0  0999 V2000
  -30.3986  -31.4481   32.0266 C   0  0  0  0  0  0  0  0  0  0  0  0
  -29.9492  -30.2840   31.4115 C   0  0  0  0  0  0  0  0  0  0  0  0
  -23.0955   -9.8650   21.4470 C   0  0  0  0  0  0  0  0  0  0  0  0
  -23.8498  -10.7371   23.5701 C   0  0  0  0  0  0  0  0  0  0  0  0
  -29.9544  -32.6901   31.5747 C   0  0  0  0  0  0  0  0  0  0  0  0
  -29.0544  -30.3612   30.3448 C   0  0  0  0  0  0  0  0  0  0  0  0
  -30.3207  -27.2922   26.5209 C   0  0  0  0  0  0  0  0  0  0  0  0
  -32.5367  -18.4012   21.8349 C   0  0  0  0  0  0  0  0  0  0  0  0
  -31.9656  -17.2354   21.3246 C   0  0  0  0  0  0  0  0  0  0  0  0
  -22.3699   -8.8760   22.1110 C   0  0  0  0  0  0  0  0  0  0  0  0
  -23.1242   -9.7480   24.2341 C   0  0  0  0  0  0  0  0  0  0  0  0
  -30.0209  -25.9382   26.6651 C   0  0  0  0  0  0  0  0  0  0  0  0
  -20.6074   -5.9010   23.2364 C   0  0  0  0  0  0  0  0  0  0  0  0
  -20.6896   -4.5967   22.7490 C   0  0  0  0  0  0  0  0  0  0  0  0
  -29.7667  -18.2068   21.5662 C   0  0  0  0  0  0  0  0  0  0  0  0
  -28.0597  -26.2324   25.2916 C   0  0  0  0  0  0  0  0  0  0  0  0
  -23.0761   -4.6063   23.1259 C   0  0  0  0  0  0  0  0  0  0  0  0
  -23.8355  -10.7955   22.1765 C   0  0  0  0  0  0  0  0  0  0  0  0
  -30.3378  -19.3725   22.0766 C   0  0  0  0  0  0  0  0  0  0  0  0
  -24.1365  -13.0998   21.1241 C   0  0  0  0  0  0  0  0  0  0  0  0
  -29.0612  -32.7829   30.4958 C   0  0  0  0  0  0  0  0  0  0  0  0
  -29.4849  -28.1301   25.7687 C   0  0  0  0  0  0  0  0  0  0  0  0
  -28.5967  -31.6055   29.8790 C   0  0  0  0  0  0  0  0  0  0  0  0
  -28.3525  -27.5961   25.1373 C   0  0  0  0  0  0  0  0  0  0  0  0
  -31.7227  -19.4698   22.2110 C   0  0  0  0  0  0  0  0  0  0  0  0
  -30.5807  -17.1382   21.1902 C   0  0  0  0  0  0  0  0  0  0  0  0
  -22.3842   -8.8175   23.5045 C   0  0  0  0  0  0  0  0  0  0  0  0
  -28.8887  -25.4088   26.0527 C   0  0  0  0  0  0  0  0  0  0  0  0
  -21.7595   -6.5580   23.6685 C   0  0  0  0  0  0  0  0  0  0  0  0
  -21.9239   -3.9493   22.6938 C   0  0  0  0  0  0  0  0  0  0  0  0
  -22.9938   -5.9107   23.6132 C   0  0  0  0  0  0  0  0  0  0  0  0
  -24.5857  -11.8171   21.4912 C   0  0  0  0  0  0  0  0  0  0  0  0
  -25.2172  -13.6776   20.5038 C   0  0  0  0  0  0  0  0  0  0  0  0
  -29.4477  -20.4955   22.4687 C   0  0  0  0  0  0  0  0  0  0  0  0
  -22.8568  -13.7141   21.3260 C   0  0  0  0  0  0  0  0  0  0  0  0
  -27.7239  -30.6987   26.4050 C   0  0  0  0  0  0  0  0  0  0  0  0
  -28.2568  -21.9890   25.0300 C   0  0  0  0  0  0  0  0  0  0  0  0
  -27.2791  -30.7092   23.1918 C   0  0  0  0  0  0  0  0  0  0  0  0
  -27.2427  -28.9524   20.2663 C   0  0  0  0  0  0  0  0  0  0  0  0
  -30.6652  -14.8003   20.2557 C   0  0  0  0  0  0  0  0  0  0  0  0
  -28.5723  -34.1457   30.0732 C   0  0  0  0  0  0  0  0  0  0  0  0
  -29.8367  -29.5828   25.6008 C   0  0  0  0  0  0  0  0  0  0  0  0
  -27.4340  -28.4490   24.3023 C   0  0  0  0  0  0  0  0  0  0  0  0
  -27.9150  -34.1568   28.6955 C   0  0  0  0  0  0  0  0  0  0  0  0
  -29.5957  -11.6610   18.9601 C   0  0  0  0  0  0  0  0  0  0  0  0
  -26.9308  -32.9989   28.5642 C   0  0  0  0  0  0  0  0  0  0  0  0
  -28.1600  -11.5273   19.4729 C   0  0  0  0  0  0  0  0  0  0  0  0
  -30.5042  -12.3352   19.9867 C   0  0  0  0  0  0  0  0  0  0  0  0
  -28.5825  -13.4911   21.0066 C   0  0  0  0  0  0  0  0  0  0  0  0
  -27.6452  -31.6491   28.7031 C   0  0  1  0  0  0  0  0  0  0  0  0
  -28.6357  -30.4503   25.2368 C   0  0  1  0  0  0  0  0  0  0  0  0
  -27.6154  -12.8764   19.9816 C   0  0  2  0  0  0  0  0  0  0  0  0
  -32.3603  -20.7067   22.7547 C   0  0  0  0  0  0  0  0  0  0  0  0
  -25.5663  -19.7268   23.4065 C   0  0  0  0  0  0  0  0  0  0  0  0
  -26.8070  -29.2250   17.8100 C   0  0  0  0  0  0  0  0  0  0  0  0
  -24.2769  -30.7685   23.7334 C   0  0  0  0  0  0  0  0  0  0  0  0
  -23.9046  -30.0878   21.3530 C   0  0  0  0  0  0  0  0  0  0  0  0
  -25.0299  -32.2538   21.8676 C   0  0  0  0  0  0  0  0  0  0  0  0
  -30.0050  -28.1505   19.5691 C   0  0  0  0  0  0  0  0  0  0  0  0
  -27.8986  -23.4602   25.1154 C   0  0  0  0  0  0  0  0  0  1  0  0
  -26.2863  -20.5553   24.4614 C   0  0  0  0  0  0  0  0  0  0  0  0
  -27.5676  -21.1938   23.9294 C   0  0  2  0  0  0  0  0  0  0  0  0
  -26.2769  -30.0879   22.2492 C   0  0  1  0  0  0  0  0  0  0  0  0
  -27.8579  -29.2428   18.9092 C   0  0  2  0  0  0  0  0  0  0  0  0
  -24.8881  -30.7836   22.3181 C   0  0  0  0  0  0  0  0  0  0  0  0
  -25.8529  -11.5927   21.1337 N   0  0  0  0  0  0  0  0  0  0  0  0
  -26.2092  -12.7422   20.5355 N   0  0  0  0  0  0  0  0  0  0  0  0
  -27.8171  -29.8647   24.1732 N   0  0  0  0  0  0  0  0  0  0  0  0
  -29.9265  -13.6094   20.4197 N   0  0  0  0  0  0  0  0  0  0  0  0
  -25.4060  -14.8894   19.9398 N   0  0  0  0  0  0  0  0  0  0  0  0
  -21.8590  -12.9797   21.9813 N   0  0  0  0  0  0  0  0  0  0  0  0
  -30.0009  -15.9530   20.6736 N   0  0  0  0  0  0  0  0  0  0  0  0
  -28.5152  -20.2172   23.4596 N   0  0  0  0  0  0  0  0  0  0  0  0
  -28.3389  -31.3160   27.4774 N   0  0  0  0  0  0  0  0  0  0  0  0
  -26.8918  -30.1109   20.9265 N   0  0  0  0  0  0  0  0  0  0  0  0
  -28.8966  -28.2252   18.5828 N   0  3  0  0  0  0  0  0  0  0  0  0
  -29.5617  -21.5782   21.9001 O   0  0  0  0  0  0  0  0  0  0  0  0
  -22.6004  -14.8737   20.9222 O   0  0  0  0  0  0  0  0  0  0  0  0
  -26.5490  -30.3570   26.3377 O   0  0  0  0  0  0  0  0  0  0  0  0
  -29.0337  -21.4642   25.8281 O   0  0  0  0  0  0  0  0  0  0  0  0
  -27.5790  -31.8982   23.0577 O   0  0  0  0  0  0  0  0  0  0  0  0
  -27.0856  -27.8117   20.6960 O   0  0  0  0  0  0  0  0  0  0  0  0
  -31.7925  -14.8009   19.7545 O   0  0  0  0  0  0  0  0  0  0  0  0
  -21.6761   -7.8527   24.1528 O   0  0  0  0  0  0  0  0  0  0  0  0
  -28.5934  -24.0877   26.1924 O   0  0  0  0  0  0  0  0  0  1  0  0
  -22.0025   -2.6962   22.2271 F   0  0  0  0  0  0  0  0  0  0  0  0
  -24.1039   -6.5363   24.0280 F   0  0  0  0  0  0  0  0  0  0  0  0
  1  2  1  0  0  0  0
  1  5  2  0  0  0  0
  2  6  2  0  0  0  0
  3 10  2  0  0  0  0
  3 18  1  0  0  0  0
  4 11  1  0  0  0  0
  4 18  2  0  0  0  0
  5 21  1  0  0  0  0
  6 23  1  0  0  0  0
  7 12  2  0  0  0  0
  7 22  1  0  0  0  0
  8  9  2  0  0  0  0
  8 25  1  0  0  0  0
  9 26  1  0  0  0  0
 10 27  1  0  0  0  0
 11 27  2  0  0  0  0
 12 28  1  0  0  0  0
 13 14  2  0  0  0  0
 13 29  1  0  0  0  0
 14 30  1  0  0  0  0
 15 19  1  0  0  0  0
 15 26  2  0  0  0  0
 16 24  1  0  0  0  0
 16 28  2  0  0  0  0
 17 30  2  0  0  0  0
 17 31  1  0  0  0  0
 18 32  1  0  0  0  0
 19 25  2  0  0  0  0
 19 34  1  0  0  0  0
 20 32  1  0  0  0  0
 20 33  2  0  0  0  0
 20 35  1  0  0  0  0
 21 23  2  0  0  0  0
 21 41  1  0  0  0  0
 22 24  2  0  0  0  0
 22 42  1  0  0  0  0
 23 50  1  0  0  0  0
 24 43  1  0  0  0  0
 25 53  1  0  0  0  0
 26 72  1  0  0  0  0
 27 84  1  0  0  0  0
 28 85  1  0  0  0  0
 29 31  2  0  0  0  0
 29 84  1  0  0  0  0
 30 86  1  0  0  0  0
 31 87  1  0  0  0  0
 32 66  2  0  0  0  0
 33 67  1  0  0  0  0
 33 70  1  0  0  0  0
 34 73  1  0  0  0  0
 34 77  2  0  0  0  0
 35 71  1  0  0  0  0
 35 78  2  0  0  0  0
 36 51  1  0  0  0  0
 36 74  1  0  0  0  0
 36 79  2  0  0  0  0
 37 60  1  0  0  0  0
 37 62  1  0  0  0  0
 37 80  2  0  0  0  0
 38 63  1  0  0  0  0
 38 68  1  0  0  0  0
 38 81  2  0  0  0  0
 39 64  1  0  0  0  0
 39 75  1  0  0  0  0
 39 82  2  0  0  0  0
 40 69  1  0  0  0  0
 40 72  1  0  0  0  0
 40 83  2  0  0  0  0
 41 44  1  0  0  0  0
 42 51  1  0  0  0  0
 43 68  1  0  0  0  0
 44 46  1  0  0  0  0
 45 47  1  0  0  0  0
 45 48  1  0  0  0  0
 46 50  1  0  0  0  0
 47 52  1  0  0  0  0
 48 69  1  0  0  0  0
 49 52  1  0  0  0  0
 49 69  1  0  0  0  0
 50 74  1  0  0  0  0
 51 68  1  0  0  0  0
 52 67  1  0  0  0  0
 54 61  1  0  0  0  0
 55 64  1  0  0  0  0
 56 65  1  0  0  0  0
 57 65  1  0  0  0  0
 58 65  1  0  0  0  0
 59 76  1  0  0  0  0
 60 85  1  0  0  0  0
 61 62  1  0  0  0  0
 62 73  1  0  0  0  0
 63 65  1  0  0  0  0
 63 75  1  0  0  0  0
 64 76  1  0  0  0  0
 66 67  1  0  0  0  0
M  CHG  1  76   1
M  ISO  4  40 100  60 101  72 100  85 101
M  END
> <Batch ID>
0060

> <Smiles>
CCC(NC(=O)c1cc([100NH:0][100C:0](=O)N2CCCC(n3nc(-c4ccc(Oc5ccc(F)cc5F)cc4)c(C(N)=O)c3N)C2)ccc1C)C(=O)[101CH2:1][101O:1]c1ccc2c(c1)CN(C(=O)C(NC(=O)C(C)NC)C(C)(C)C)C(C(=O)NC1CCCc3ccccc31)C2

> <Shape>
0.255

> <Color>
0.148

> <Negative vol penalty>
0.000

$$$$

  -OEChem-04042323043D

 88 97  0     1  0  0  0  0  0999 V2000
  -17.5878  -26.1265   22.7443 C   0  0  0  0  0  0  0  0  0  0  0  0
  -18.8476  -25.7940   22.2569 C   0  0  0  0  0  0  0  0  0  0  0  0
  -30.4785  -12.7179   19.3620 C   0  0  0  0  0  0  0  0  0  0  0  0
  -28.3122  -12.6545   20.4299 C   0  0  0  0  0  0  0  0  0  0  0  0
  -17.1911  -27.4622   22.7940 C   0  0  0  0  0  0  0  0  0  0  0  0
  -19.7111  -26.7969   21.8178 C   0  0  0  0  0  0  0  0  0  0  0  0
  -25.8144  -26.8791   22.3169 C   0  0  0  0  0  0  0  0  0  0  0  0
  -30.1579  -11.5662   18.6433 C   0  0  0  0  0  0  0  0  0  0  0  0
  -27.9916  -11.5029   19.7111 C   0  0  0  0  0  0  0  0  0  0  0  0
  -26.8333  -26.5639   21.4190 C   0  0  0  0  0  0  0  0  0  0  0  0
  -28.6681   -8.1944   19.8756 C   0  0  0  0  0  0  0  0  0  0  0  0
  -28.0681   -7.1435   20.5693 C   0  0  0  0  0  0  0  0  0  0  0  0
  -29.9736  -22.6025   15.3435 C   0  0  0  0  0  0  0  0  0  0  0  0
  -30.6472  -20.9043   16.9243 C   0  0  0  0  0  0  0  0  0  0  0  0
  -27.0314  -28.8959   20.8345 C   0  0  0  0  0  0  0  0  0  0  0  0
  -28.7251  -22.2925   17.3885 C   0  0  0  0  0  0  0  0  0  0  0  0
  -26.1396   -7.2886   19.1212 C   0  0  0  0  0  0  0  0  0  0  0  0
  -29.5556  -13.2620   20.2554 C   0  0  0  0  0  0  0  0  0  0  0  0
  -30.8388  -21.5737   15.7157 C   0  0  0  0  0  0  0  0  0  0  0  0
  -30.9523  -14.6198   21.9026 C   0  0  0  0  0  0  0  0  0  0  0  0
  -18.0538  -28.4828   22.3642 C   0  0  0  0  0  0  0  0  0  0  0  0
  -25.3882  -28.2060   22.4726 C   0  0  0  0  0  0  0  0  0  0  0  0
  -19.3251  -28.1474   21.8604 C   0  0  0  0  0  0  0  0  0  0  0  0
  -26.0087  -29.2256   21.7369 C   0  0  0  0  0  0  0  0  0  0  0  0
  -28.9168  -22.9620   16.1799 C   0  0  0  0  0  0  0  0  0  0  0  0
  -29.5903  -21.2637   17.7608 C   0  0  0  0  0  0  0  0  0  0  0  0
  -28.9144  -10.9588   18.8178 C   0  0  0  0  0  0  0  0  0  0  0  0
  -27.4400  -27.5719   20.6755 C   0  0  0  0  0  0  0  0  0  0  0  0
  -28.0038   -8.7925   18.8047 C   0  0  0  0  0  0  0  0  0  0  0  0
  -26.8039   -6.6906   20.1921 C   0  0  0  0  0  0  0  0  0  0  0  0
  -26.7396   -8.3395   18.4275 C   0  0  0  0  0  0  0  0  0  0  0  0
  -29.8864  -14.4513   20.9985 C   0  0  0  0  0  0  0  0  0  0  0  0
  -30.8326  -15.9174   22.3365 C   0  0  0  0  0  0  0  0  0  0  0  0
  -29.2726  -25.9697   14.8844 C   0  0  0  0  0  0  0  0  0  0  0  0
  -32.5802  -22.0531   14.0565 C   0  0  0  0  0  0  0  0  0  0  0  0
  -31.9413  -21.1989   14.8441 C   0  0  0  0  0  0  0  0  0  0  0  0
  -31.9604  -13.6868   22.3135 C   0  0  0  0  0  0  0  0  0  0  0  0
  -22.6503  -29.7519   22.0061 C   0  0  0  0  0  0  0  0  0  0  0  0
  -24.2653  -32.2207   23.3550 C   0  0  0  0  0  0  0  0  0  0  0  0
  -27.2704  -33.6748   24.0630 C   0  0  0  0  0  0  0  0  0  0  0  0
  -28.3974  -20.8168   19.9342 C   0  0  0  0  0  0  0  0  0  0  0  0
  -17.5627  -29.9085   22.3929 C   0  0  0  0  0  0  0  0  0  0  0  0
  -24.3062  -28.5329   23.4649 C   0  0  0  0  0  0  0  0  0  0  0  0
  -25.6018  -30.6685   21.8820 C   0  0  0  0  0  0  0  0  0  0  0  0
  -29.9474  -27.3003   15.1547 C   0  0  0  0  0  0  0  0  0  0  0  0
  -18.6797  -30.9403   22.2579 C   0  0  0  0  0  0  0  0  0  0  0  0
  -29.2937  -28.1298   16.2424 C   0  0  0  0  0  0  0  0  0  0  0  0
  -27.5587  -19.3365   23.0619 C   0  0  0  0  0  0  0  0  0  0  0  0
  -19.6250  -30.5583   21.1233 C   0  0  0  0  0  0  0  0  0  0  0  0
  -28.1627  -17.9332   22.9724 C   0  0  0  0  0  0  0  0  0  0  0  0
  -26.9984  -19.7995   21.7182 C   0  0  0  0  0  0  0  0  0  0  0  0
  -28.2417  -26.0929   17.1803 C   0  0  0  0  0  0  0  0  0  0  0  0
  -28.5410  -18.3124   20.5025 C   0  0  0  0  0  0  0  0  0  0  0  0
  -20.2996  -29.2089   21.3980 C   0  0  1  0  0  0  0  0  0  0  0  0
  -23.6001  -29.8519   23.1661 C   0  0  1  0  0  0  0  0  0  0  0  0
  -29.1415  -27.2829   17.4987 C   0  0  2  0  0  0  0  0  0  0  0  0
  -29.1766  -17.8287   21.8162 C   0  0  2  0  0  0  0  0  0  0  0  0
  -28.2693  -35.7081   25.1426 C   0  0  0  0  0  0  0  0  0  0  0  0
  -23.5092  -33.8860   20.9126 C   0  0  0  0  0  0  0  0  0  0  0  0
  -25.2776  -35.5306   21.5733 C   0  0  0  0  0  0  0  0  0  0  0  0
  -23.3473  -35.0994   23.0934 C   0  0  0  0  0  0  0  0  0  0  0  0
  -28.6977  -32.0455   26.0797 C   0  0  0  0  0  0  0  0  0  0  0  0
  -27.9855  -24.0697   15.7801 C   0  0  0  0  0  0  0  0  0  0  0  0
  -28.5673  -28.1045   18.6503 C   0  0  0  0  0  0  0  0  0  1  0  0
  -25.1407  -33.3360   22.8367 C   0  0  1  0  0  0  0  0  0  0  0  0
  -27.8253  -34.2678   25.3456 C   0  0  2  0  0  0  0  0  0  0  0  0
  -24.3253  -34.4357   22.0996 C   0  0  0  0  0  0  0  0  0  0  0  0
  -29.1442  -15.5537   20.8652 N   0  0  0  0  0  0  0  0  0  0  0  0
  -29.7445  -16.4273   21.6913 N   0  0  0  0  0  0  0  0  0  0  0  0
  -28.5946  -25.3822   15.9504 N   0  0  0  0  0  0  0  0  0  0  0  0
  -24.5348  -30.9368   22.8604 N   0  0  0  0  0  0  0  0  0  0  0  0
  -28.0157  -19.6763   20.6720 N   0  0  0  0  0  0  0  0  0  0  0  0
  -31.5529  -16.6606   23.2033 N   0  0  0  0  0  0  0  0  0  0  0  0
  -31.9369  -12.3952   21.7697 N   0  0  0  0  0  0  0  0  0  0  0  0
  -29.3961  -20.5844   18.9890 N   0  0  0  0  0  0  0  0  0  0  0  0
  -21.3711  -29.3656   22.3580 N   0  0  0  0  0  0  0  0  0  0  0  0
  -25.9020  -33.8232   23.9819 N   0  0  0  0  0  0  0  0  0  0  0  0
  -28.9968  -33.4769   25.8175 N   0  3  0  0  0  0  0  0  0  0  0  0
  -29.4187  -25.4389   13.7799 O   0  0  0  0  0  0  0  0  0  0  0  0
  -32.8458  -13.9843   23.1508 O   0  0  0  0  0  0  0  0  0  0  0  0
  -23.0482  -30.0079   20.8757 O   0  0  0  0  0  0  0  0  0  0  0  0
  -23.3796  -32.4781   24.1742 O   0  0  0  0  0  0  0  0  0  0  0  0
  -27.9805  -33.1373   23.2159 O   0  0  0  0  0  0  0  0  0  0  0  0
  -27.8960  -21.9240   20.1453 O   0  0  0  0  0  0  0  0  0  0  0  0
  -28.6012   -9.8351   18.1165 O   0  0  0  0  0  0  0  0  0  0  0  0
  -28.4343  -27.2669   19.7979 O   0  0  0  0  0  0  0  0  0  1  0  0
  -26.2285   -5.6804   20.8574 F   0  0  0  0  0  0  0  0  0  0  0  0
  -26.0971   -8.9093   17.3987 F   0  0  0  0  0  0  0  0  0  0  0  0
  1  2  1  0  0  0  0
  1  5  2  0  0  0  0
  2  6  2  0  0  0  0
  3  8  2  0  0  0  0
  3 18  1  0  0  0  0
  4  9  1  0  0  0  0
  4 18  2  0  0  0  0
  5 21  1  0  0  0  0
  6 23  1  0  0  0  0
  7 10  2  0  0  0  0
  7 22  1  0  0  0  0
  8 27  1  0  0  0  0
  9 27  2  0  0  0  0
 10 28  1  0  0  0  0
 11 12  2  0  0  0  0
 11 29  1  0  0  0  0
 12 30  1  0  0  0  0
 13 19  1  0  0  0  0
 13 25  2  0  0  0  0
 14 19  2  0  0  0  0
 14 26  1  0  0  0  0
 15 24  1  0  0  0  0
 15 28  2  0  0  0  0
 16 25  1  0  0  0  0
 16 26  2  0  0  0  0
 17 30  2  0  0  0  0
 17 31  1  0  0  0  0
 18 32  1  0  0  0  0
 19 36  1  0  0  0  0
 20 32  1  0  0  0  0
 20 33  2  0  0  0  0
 20 37  1  0  0  0  0
 21 23  2  0  0  0  0
 21 42  1  0  0  0  0
 22 24  2  0  0  0  0
 22 43  1  0  0  0  0
 23 54  1  0  0  0  0
 24 44  1  0  0  0  0
 25 63  1  0  0  0  0
 26 75  1  0  0  0  0
 27 85  1  0  0  0  0
 28 86  1  0  0  0  0
 29 31  2  0  0  0  0
 29 85  1  0  0  0  0
 30 87  1  0  0  0  0
 31 88  1  0  0  0  0
 32 68  2  0  0  0  0
 33 69  1  0  0  0  0
 33 73  1  0  0  0  0
 34 45  1  0  0  0  0
 34 70  1  0  0  0  0
 34 79  2  0  0  0  0
 35 36  2  0  0  0  0
 37 74  1  0  0  0  0
 37 80  2  0  0  0  0
 38 55  1  0  0  0  0
 38 76  1  0  0  0  0
 38 81  2  0  0  0  0
 39 65  1  0  0  0  0
 39 71  1  0  0  0  0
 39 82  2  0  0  0  0
 40 66  1  0  0  0  0
 40 77  1  0  0  0  0
 40 83  2  0  0  0  0
 41 72  1  0  0  0  0
 41 75  1  0  0  0  0
 41 84  2  0  0  0  0
 42 46  1  0  0  0  0
 43 55  1  0  0  0  0
 44 71  1  0  0  0  0
 45 47  1  0  0  0  0
 46 49  1  0  0  0  0
 47 56  1  0  0  0  0
 48 50  1  0  0  0  0
 48 51  1  0  0  0  0
 49 54  1  0  0  0  0
 50 57  1  0  0  0  0
 51 72  1  0  0  0  0
 52 56  1  0  0  0  0
 52 70  1  0  0  0  0
 53 57  1  0  0  0  0
 53 72  1  0  0  0  0
 54 76  1  0  0  0  0
 55 71  1  0  0  0  0
 56 64  1  0  0  0  0
 57 69  1  0  0  0  0
 58 66  1  0  0  0  0
 59 67  1  0  0  0  0
 60 67  1  0  0  0  0
 61 67  1  0  0  0  0
 62 78  1  0  0  0  0
 63 70  1  0  0  0  0
 64 86  1  0  0  0  0
 65 67  1  0  0  0  0
 65 77  1  0  0  0  0
 66 78  1  0  0  0  0
 68 69  1  0  0  0  0
M  CHG  1  78   1
M  ISO  4  41 100  64 101  75 100  86 101
M  END
> <Batch ID>
0060

> <Smiles>
C=Cc1cc(CN2CC([101CH2:1][101O:1]c3ccc4c(c3)CN(C(=O)C(NC(=O)C(C)NC)C(C)(C)C)C(C(=O)NC3CCCc5ccccc53)C4)CCC2=O)cc([100NH:0][100C:0](=O)N2CCCC(n3nc(-c4ccc(Oc5ccc(F)cc5F)cc4)c(C(N)=O)c3N)C2)c1

> <Shape>
0.265

> <Color>
0.085

> <Negative vol penalty>
0.000

$$$$

  -OEChem-04042323043D

 83 91  0     1  0  0  0  0  0999 V2000
  -24.3099   -7.0298   23.6888 C   0  0  0  0  0  0  0  0  0  0  0  0
  -25.4919   -7.7631   23.6623 C   0  0  0  0  0  0  0  0  0  0  0  0
  -24.4935  -31.5225   22.9922 C   0  0  0  0  0  0  0  0  0  0  0  0
  -25.3747  -31.4001   20.7460 C   0  0  0  0  0  0  0  0  0  0  0  0
  -23.2493   -7.3890   22.8581 C   0  0  0  0  0  0  0  0  0  0  0  0
  -25.6143   -8.8555   22.8043 C   0  0  0  0  0  0  0  0  0  0  0  0
  -28.7335  -15.2894   22.3676 C   0  0  0  0  0  0  0  0  0  0  0  0
  -27.5841  -24.3169   17.4133 C   0  0  0  0  0  0  0  0  0  0  0  0
  -25.1655  -32.7286   23.1901 C   0  0  0  0  0  0  0  0  0  0  0  0
  -26.0467  -32.6063   20.9438 C   0  0  0  0  0  0  0  0  0  0  0  0
  -29.5489  -16.0357   21.5179 C   0  0  0  0  0  0  0  0  0  0  0  0
  -24.7424  -35.9803   22.3651 C   0  0  0  0  0  0  0  0  0  0  0  0
  -28.5782  -23.9447   16.5085 C   0  0  0  0  0  0  0  0  0  0  0  0
  -24.0396  -37.0221   22.9703 C   0  0  0  0  0  0  0  0  0  0  0  0
  -27.6224  -16.6117   20.1852 C   0  0  0  0  0  0  0  0  0  0  0  0
  -28.3072  -22.5758   18.9241 C   0  0  0  0  0  0  0  0  0  0  0  0
  -25.6535  -37.0665   24.7677 C   0  0  0  0  0  0  0  0  0  0  0  0
  -24.5982  -30.8581   21.7701 C   0  0  0  0  0  0  0  0  0  0  0  0
  -22.6012  -29.4368   21.0632 C   0  0  0  0  0  0  0  0  0  0  0  0
  -23.3553   -8.4922   21.9965 C   0  0  0  0  0  0  0  0  0  0  0  0
  -27.3558  -15.1896   22.1259 C   0  0  0  0  0  0  0  0  0  0  0  0
  -24.5546   -9.2290   21.9604 C   0  0  0  0  0  0  0  0  0  0  0  0
  -26.7913  -15.8657   21.0349 C   0  0  0  0  0  0  0  0  0  0  0  0
  -27.4486  -23.6325   18.6211 C   0  0  0  0  0  0  0  0  0  0  0  0
  -29.3014  -22.2035   18.0192 C   0  0  0  0  0  0  0  0  0  0  0  0
  -25.9420  -33.2706   22.1659 C   0  0  0  0  0  0  0  0  0  0  0  0
  -28.9938  -16.6946   20.4248 C   0  0  0  0  0  0  0  0  0  0  0  0
  -25.9007  -35.4815   22.9612 C   0  0  0  0  0  0  0  0  0  0  0  0
  -24.4952  -37.5653   24.1716 C   0  0  0  0  0  0  0  0  0  0  0  0
  -29.4368  -22.8880   16.8114 C   0  0  0  0  0  0  0  0  0  0  0  0
  -26.3563  -36.0247   24.1625 C   0  0  0  0  0  0  0  0  0  0  0  0
  -23.9047  -29.6118   21.5653 C   0  0  0  0  0  0  0  0  0  0  0  0
  -22.4133  -28.0763   21.0627 C   0  0  0  0  0  0  0  0  0  0  0  0
  -21.6457  -30.4165   20.6355 C   0  0  0  0  0  0  0  0  0  0  0  0
  -25.3593  -12.8028   21.4776 C   0  0  0  0  0  0  0  0  0  0  0  0
  -23.1107  -15.1233   21.7628 C   0  0  0  0  0  0  0  0  0  0  0  0
  -30.1763  -20.3471   19.4795 C   0  0  0  0  0  0  0  0  0  0  0  0
  -22.3428  -18.4458   21.6281 C   0  0  0  0  0  0  0  0  0  0  0  0
  -26.1684  -23.4367   20.7819 C   0  0  0  0  0  0  0  0  0  0  0  0
  -22.1991   -8.8134   21.0829 C   0  0  0  0  0  0  0  0  0  0  0  0
  -26.4859  -14.4026   23.0673 C   0  0  0  0  0  0  0  0  0  0  0  0
  -25.3149  -15.8070   20.7433 C   0  0  0  0  0  0  0  0  0  0  0  0
  -22.2741  -10.2112   20.4740 C   0  0  0  0  0  0  0  0  0  0  0  0
  -23.7966  -24.1040   23.3523 C   0  0  0  0  0  0  0  0  0  0  0  0
  -23.6753  -10.4850   19.9368 C   0  0  0  0  0  0  0  0  0  0  0  0
  -23.4320  -25.5746   23.1362 C   0  0  0  0  0  0  0  0  0  0  0  0
  -25.2732  -23.8377   23.0651 C   0  0  0  0  0  0  0  0  0  0  0  0
  -25.3778  -25.7656   21.5349 C   0  0  0  0  0  0  0  0  0  0  0  0
  -24.7167  -10.4354   21.0613 C   0  0  1  0  0  0  0  0  0  0  0  0
  -25.1754  -13.9489   22.4317 C   0  0  1  0  0  0  0  0  0  0  0  0
  -23.8861  -26.0699   21.7491 C   0  0  2  0  0  0  0  0  0  0  0  0
  -20.4144  -20.0333   21.8693 C   0  0  0  0  0  0  0  0  0  0  0  0
  -22.0921  -14.3008   19.0067 C   0  0  0  0  0  0  0  0  0  0  0  0
  -20.8426  -16.4676   18.8987 C   0  0  0  0  0  0  0  0  0  0  0  0
  -20.2978  -14.8030   20.6749 C   0  0  0  0  0  0  0  0  0  0  0  0
  -23.6259  -19.8420   23.9004 C   0  0  0  0  0  0  0  0  0  0  0  0
  -31.2821  -19.3003   19.4070 C   0  0  0  0  0  0  0  0  0  0  0  0
  -30.9481  -18.0247   20.1654 C   0  0  0  0  0  0  0  0  0  1  0  0
  -22.4608  -16.1043   20.8171 C   0  0  1  0  0  0  0  0  0  0  0  0
  -21.5669  -19.3397   22.5786 C   0  0  2  0  0  0  0  0  0  0  0  0
  -21.4515  -15.4186   19.8535 C   0  0  0  0  0  0  0  0  0  0  0  0
  -24.5025  -28.4549   21.8623 N   0  0  0  0  0  0  0  0  0  0  0  0
  -23.5704  -27.5399   21.5460 N   0  0  0  0  0  0  0  0  0  0  0  0
  -24.5070  -15.0195   21.6891 N   0  0  0  0  0  0  0  0  0  0  0  0
  -25.6301  -24.3296   21.7326 N   0  0  0  0  0  0  0  0  0  0  0  0
  -21.3727  -27.2983   20.6961 N   0  0  0  0  0  0  0  0  0  0  0  0
  -22.0016  -31.7705   20.7021 N   0  0  0  0  0  0  0  0  0  0  0  0
  -30.1715  -21.1313   18.3290 N   0  0  0  0  0  0  0  0  0  0  0  0
  -26.4385  -24.0107   19.5401 N   0  0  0  0  0  0  0  0  0  0  0  0
  -24.6793  -11.6554   21.8389 N   0  0  0  0  0  0  0  0  0  0  0  0
  -21.8757  -17.1487   21.6509 N   0  0  0  0  0  0  0  0  0  0  0  0
  -22.4612  -20.3837   23.1540 N   0  3  0  0  0  0  0  0  0  0  0  0
  -20.5040  -30.1015   20.2223 O   0  0  0  0  0  0  0  0  0  0  0  0
  -26.0646  -12.9491   20.4862 O   0  0  0  0  0  0  0  0  0  0  0  0
  -22.4060  -14.4782   22.5432 O   0  0  0  0  0  0  0  0  0  0  0  0
  -29.4256  -20.4379   20.4451 O   0  0  0  0  0  0  0  0  0  0  0  0
  -23.2682  -18.8579   20.9320 O   0  0  0  0  0  0  0  0  0  0  0  0
  -26.3491  -22.2442   21.0412 O   0  0  0  0  0  0  0  0  0  0  0  0
  -26.5977  -34.4477   22.3586 O   0  0  0  0  0  0  0  0  0  0  0  0
  -29.7874  -17.4231   19.5934 O   0  0  0  0  0  0  0  0  0  1  0  0
  -23.8211  -38.5668   24.7519 F   0  0  0  0  0  0  0  0  0  0  0  0
  -30.3883  -22.5391   15.9339 F   0  0  0  0  0  0  0  0  0  0  0  0
  -27.4690  -35.5505   24.7392 F   0  0  0  0  0  0  0  0  0  0  0  0
  1  2  1  0  0  0  0
  1  5  2  0  0  0  0
  2  6  2  0  0  0  0
  3  9  2  0  0  0  0
  3 18  1  0  0  0  0
  4 10  1  0  0  0  0
  4 18  2  0  0  0  0
  5 20  1  0  0  0  0
  6 22  1  0  0  0  0
  7 11  2  0  0  0  0
  7 21  1  0  0  0  0
  8 13  2  0  0  0  0
  8 24  1  0  0  0  0
  9 26  1  0  0  0  0
 10 26  2  0  0  0  0
 11 27  1  0  0  0  0
 12 14  2  0  0  0  0
 12 28  1  0  0  0  0
 13 30  1  0  0  0  0
 14 29  1  0  0  0  0
 15 23  1  0  0  0  0
 15 27  2  0  0  0  0
 16 24  2  0  0  0  0
 16 25  1  0  0  0  0
 17 29  2  0  0  0  0
 17 31  1  0  0  0  0
 18 32  1  0  0  0  0
 19 32  1  0  0  0  0
 19 33  2  0  0  0  0
 19 34  1  0  0  0  0
 20 22  2  0  0  0  0
 20 40  1  0  0  0  0
 21 23  2  0  0  0  0
 21 41  1  0  0  0  0
 22 49  1  0  0  0  0
 23 42  1  0  0  0  0
 24 69  1  0  0  0  0
 25 30  2  0  0  0  0
 25 68  1  0  0  0  0
 26 79  1  0  0  0  0
 27 80  1  0  0  0  0
 28 31  2  0  0  0  0
 28 79  1  0  0  0  0
 29 81  1  0  0  0  0
 30 82  1  0  0  0  0
 31 83  1  0  0  0  0
 32 62  2  0  0  0  0
 33 63  1  0  0  0  0
 33 66  1  0  0  0  0
 34 67  1  0  0  0  0
 34 73  2  0  0  0  0
 35 50  1  0  0  0  0
 35 70  1  0  0  0  0
 35 74  2  0  0  0  0
 36 59  1  0  0  0  0
 36 64  1  0  0  0  0
 36 75  2  0  0  0  0
 37 57  1  0  0  0  0
 37 68  1  0  0  0  0
 37 76  2  0  0  0  0
 38 60  1  0  0  0  0
 38 71  1  0  0  0  0
 38 77  2  0  0  0  0
 39 65  1  0  0  0  0
 39 69  1  0  0  0  0
 39 78  2  0  0  0  0
 40 43  1  0  0  0  0
 41 50  1  0  0  0  0
 42 64  1  0  0  0  0
 43 45  1  0  0  0  0
 44 46  1  0  0  0  0
 44 47  1  0  0  0  0
 45 49  1  0  0  0  0
 46 51  1  0  0  0  0
 47 65  1  0  0  0  0
 48 51  1  0  0  0  0
 48 65  1  0  0  0  0
 49 70  1  0  0  0  0
 50 64  1  0  0  0  0
 51 63  1  0  0  0  0
 52 60  1  0  0  0  0
 53 61  1  0  0  0  0
 54 61  1  0  0  0  0
 55 61  1  0  0  0  0
 56 72  1  0  0  0  0
 57 58  1  0  0  0  0
 58 80  1  0  0  0  0
 59 61  1  0  0  0  0
 59 71  1  0  0  0  0
 60 72  1  0  0  0  0
 62 63  1  0  0  0  0
M  CHG  1  72   1
M  ISO  4  39 100  58 101  69 100  80 101
M  END
> <Batch ID>
0060

> <Smiles>
CNC(C)C(=O)NC(C(=O)N1Cc2cc([101O:1][101CH2:1]CC(=O)Nc3cc([100NH:0][100C:0](=O)N4CCCC(n5nc(-c6ccc(Oc7ccc(F)cc7F)cc6)c(C(N)=O)c5N)C4)ccc3F)ccc2CC1C(=O)NC1CCCc2ccccc21)C(C)(C)C

> <Shape>
0.234

> <Color>
0.061

> <Negative vol penalty>
0.000

$$$$

  -OEChem-04042323043D

 85 94  0     1  0  0  0  0  0999 V2000
  -20.9754   -8.0196   23.7085 C   0  0  0  0  0  0  0  0  0  0  0  0
  -22.1115   -8.4973   24.3538 C   0  0  0  0  0  0  0  0  0  0  0  0
  -23.7058  -28.9287   22.8199 C   0  0  0  0  0  0  0  0  0  0  0  0
  -22.2533  -27.5995   21.4197 C   0  0  0  0  0  0  0  0  0  0  0  0
  -20.7920   -8.2661   22.3486 C   0  0  0  0  0  0  0  0  0  0  0  0
  -23.0654   -9.2210   23.6392 C   0  0  0  0  0  0  0  0  0  0  0  0
  -27.7745  -14.5598   24.4384 C   0  0  0  0  0  0  0  0  0  0  0  0
  -22.6910  -29.0360   23.7708 C   0  0  0  0  0  0  0  0  0  0  0  0
  -21.2385  -27.7067   22.3707 C   0  0  0  0  0  0  0  0  0  0  0  0
  -29.1225  -14.8474   24.2285 C   0  0  0  0  0  0  0  0  0  0  0  0
  -18.9540  -30.0081   23.3275 C   0  0  0  0  0  0  0  0  0  0  0  0
  -17.6691  -30.3054   22.8733 C   0  0  0  0  0  0  0  0  0  0  0  0
  -28.6613  -15.2804   21.9006 C   0  0  0  0  0  0  0  0  0  0  0  0
  -30.6352  -21.9390   21.4920 C   0  0  0  0  0  0  0  0  0  0  0  0
  -31.8814  -22.0948   23.5559 C   0  0  0  0  0  0  0  0  0  0  0  0
  -30.7003  -24.0249   22.7093 C   0  0  0  0  0  0  0  0  0  0  0  0
  -16.8580  -28.2316   23.8108 C   0  0  0  0  0  0  0  0  0  0  0  0
  -23.4869  -28.2105   21.6443 C   0  0  0  0  0  0  0  0  0  0  0  0
  -25.1687  -29.1511   19.9726 C   0  0  0  0  0  0  0  0  0  0  0  0
  -21.7394   -9.0015   21.6191 C   0  0  0  0  0  0  0  0  0  0  0  0
  -26.8602  -14.6197   23.3769 C   0  0  0  0  0  0  0  0  0  0  0  0
  -22.8951   -9.4765   22.2679 C   0  0  0  0  0  0  0  0  0  0  0  0
  -27.3018  -14.9955   22.1003 C   0  0  0  0  0  0  0  0  0  0  0  0
  -31.4443  -21.3476   22.4621 C   0  0  0  0  0  0  0  0  0  0  0  0
  -30.2632  -23.2777   21.6155 C   0  0  0  0  0  0  0  0  0  0  0  0
  -21.4574  -28.4250   23.5463 C   0  0  0  0  0  0  0  0  0  0  0  0
  -29.5665  -15.2050   22.9588 C   0  0  0  0  0  0  0  0  0  0  0  0
  -19.1909  -28.8226   24.0232 C   0  0  0  0  0  0  0  0  0  0  0  0
  -16.6211  -29.4171   23.1150 C   0  0  0  0  0  0  0  0  0  0  0  0
  -31.5094  -23.4335   23.6795 C   0  0  0  0  0  0  0  0  0  0  0  0
  -18.1430  -27.9343   24.2649 C   0  0  0  0  0  0  0  0  0  0  0  0
  -24.5346  -28.0998   20.6614 C   0  0  0  0  0  0  0  0  0  0  0  0
  -26.0828  -28.5269   19.1595 C   0  0  0  0  0  0  0  0  0  0  0  0
  -24.9508  -30.5656   20.0601 C   0  0  0  0  0  0  0  0  0  0  0  0
  -24.9625  -12.5203   21.9296 C   0  0  0  0  0  0  0  0  0  0  0  0
  -23.9008  -15.1515   20.3575 C   0  0  0  0  0  0  0  0  0  0  0  0
  -25.3575  -18.1050   18.8836 C   0  0  0  0  0  0  0  0  0  0  0  0
  -28.9210  -23.2786   19.4837 C   0  0  0  0  0  0  0  0  0  0  0  0
  -21.5207   -9.2021   20.1403 C   0  0  0  0  0  0  0  0  0  0  0  0
  -25.4048  -14.3325   23.6256 C   0  0  0  0  0  0  0  0  0  0  0  0
  -26.3570  -15.0943   20.9315 C   0  0  0  0  0  0  0  0  0  0  0  0
  -22.3961  -10.2983   19.5384 C   0  0  0  0  0  0  0  0  0  0  0  0
  -26.8277  -24.4073   16.8340 C   0  0  0  0  0  0  0  0  0  0  0  0
  -23.8393  -10.1474   20.0087 C   0  0  0  0  0  0  0  0  0  0  0  0
  -26.0642  -25.5818   17.4502 C   0  0  0  0  0  0  0  0  0  0  0  0
  -32.8728  -18.1953   21.0324 C   0  0  0  0  0  0  0  0  0  0  0  0
  -32.3525  -17.8695   23.4582 C   0  0  0  0  0  0  0  0  0  0  0  0
  -27.0530  -23.2844   17.8449 C   0  0  0  0  0  0  0  0  0  0  0  0
  -31.9589  -19.4202   20.9998 C   0  0  0  0  0  0  0  0  0  0  0  0
  -31.4380  -19.0935   23.4266 C   0  0  0  0  0  0  0  0  0  0  0  0
  -26.9183  -24.8750   19.7213 C   0  0  0  0  0  0  0  0  0  0  0  0
  -23.9404  -10.2868   21.5324 C   0  0  1  0  0  0  0  0  0  0  0  0
  -24.6520  -13.9251   22.3628 C   0  0  1  0  0  0  0  0  0  0  0  0
  -32.4727  -17.1725   22.0996 C   0  0  0  0  0  0  0  0  0  0  0  0
  -26.7240  -26.0582   18.7591 C   0  0  2  0  0  0  0  0  0  0  0  0
  -24.3849  -20.3862   18.4998 C   0  0  0  0  0  0  0  0  0  0  0  0
  -23.2142  -14.0750   17.5863 C   0  0  0  0  0  0  0  0  0  0  0  0
  -23.7963  -16.3212   16.6459 C   0  0  0  0  0  0  0  0  0  0  0  0
  -21.9157  -16.1001   18.2699 C   0  0  0  0  0  0  0  0  0  0  0  0
  -27.5568  -19.4191   20.3651 C   0  0  0  0  0  0  0  0  0  0  0  0
  -31.1907  -16.4263   21.7233 C   0  0  0  0  0  0  0  0  0  1  0  0
  -24.2960  -15.8724   19.0913 C   0  0  1  0  0  0  0  0  0  0  0  0
  -25.2534  -19.5268   19.4052 C   0  0  2  0  0  0  0  0  0  0  0  0
  -23.3245  -15.5776   17.9137 C   0  0  0  0  0  0  0  0  0  0  0  0
  -25.0059  -26.8987   20.3158 N   0  0  0  0  0  0  0  0  0  0  0  0
  -25.9458  -27.1916   19.4009 N   0  0  0  0  0  0  0  0  0  0  0  0
  -31.8185  -20.0030   22.3380 N   0  0  0  0  0  0  0  0  0  0  0  0
  -24.9448  -14.7977   21.2239 N   0  0  0  0  0  0  0  0  0  0  0  0
  -27.6851  -23.8093   19.0572 N   0  0  0  0  0  0  0  0  0  0  0  0
  -26.9823  -28.9955   18.2686 N   0  0  0  0  0  0  0  0  0  0  0  0
  -24.0037  -31.1497   19.2080 N   0  0  0  0  0  0  0  0  0  0  0  0
  -29.4411  -23.8784   20.6301 N   0  0  0  0  0  0  0  0  0  0  0  0
  -23.8659  -11.6795   21.9186 N   0  0  0  0  0  0  0  0  0  0  0  0
  -24.3995  -17.2850   19.4412 N   0  0  0  0  0  0  0  0  0  0  0  0
  -26.6053  -20.1485   19.4878 N   0  3  0  0  0  0  0  0  0  0  0  0
  -25.5893  -31.2925   20.8586 O   0  0  0  0  0  0  0  0  0  0  0  0
  -26.1116  -12.2216   21.6264 O   0  0  0  0  0  0  0  0  0  0  0  0
  -22.7091  -14.9175   20.5734 O   0  0  0  0  0  0  0  0  0  0  0  0
  -26.2017  -17.7575   18.0607 O   0  0  0  0  0  0  0  0  0  0  0  0
  -29.4901  -22.3783   18.8612 O   0  0  0  0  0  0  0  0  0  0  0  0
  -20.4670  -28.5292   24.4741 O   0  0  0  0  0  0  0  0  0  0  0  0
  -30.8818  -15.4856   22.7510 O   0  0  0  0  0  0  0  0  0  1  0  0
  -15.3869  -29.7034   22.6802 F   0  0  0  0  0  0  0  0  0  0  0  0
  -31.9279  -24.1510   24.7303 F   0  0  0  0  0  0  0  0  0  0  0  0
  -18.3642  -26.7944   24.9337 F   0  0  0  0  0  0  0  0  0  0  0  0
  1  2  1  0  0  0  0
  1  5  2  0  0  0  0
  2  6  2  0  0  0  0
  3  8  2  0  0  0  0
  3 18  1  0  0  0  0
  4  9  1  0  0  0  0
  4 18  2  0  0  0  0
  5 20  1  0  0  0  0
  6 22  1  0  0  0  0
  7 10  2  0  0  0  0
  7 21  1  0  0  0  0
  8 26  1  0  0  0  0
  9 26  2  0  0  0  0
 10 27  1  0  0  0  0
 11 12  2  0  0  0  0
 11 28  1  0  0  0  0
 12 29  1  0  0  0  0
 13 23  1  0  0  0  0
 13 27  2  0  0  0  0
 14 24  2  0  0  0  0
 14 25  1  0  0  0  0
 15 24  1  0  0  0  0
 15 30  2  0  0  0  0
 16 25  2  0  0  0  0
 16 30  1  0  0  0  0
 17 29  2  0  0  0  0
 17 31  1  0  0  0  0
 18 32  1  0  0  0  0
 19 32  1  0  0  0  0
 19 33  2  0  0  0  0
 19 34  1  0  0  0  0
 20 22  2  0  0  0  0
 20 39  1  0  0  0  0
 21 23  2  0  0  0  0
 21 40  1  0  0  0  0
 22 52  1  0  0  0  0
 23 41  1  0  0  0  0
 24 67  1  0  0  0  0
 25 72  1  0  0  0  0
 26 81  1  0  0  0  0
 27 82  1  0  0  0  0
 28 31  2  0  0  0  0
 28 81  1  0  0  0  0
 29 83  1  0  0  0  0
 30 84  1  0  0  0  0
 31 85  1  0  0  0  0
 32 65  2  0  0  0  0
 33 66  1  0  0  0  0
 33 70  1  0  0  0  0
 34 71  1  0  0  0  0
 34 76  2  0  0  0  0
 35 53  1  0  0  0  0
 35 73  1  0  0  0  0
 35 77  2  0  0  0  0
 36 62  1  0  0  0  0
 36 68  1  0  0  0  0
 36 78  2  0  0  0  0
 37 63  1  0  0  0  0
 37 74  1  0  0  0  0
 37 79  2  0  0  0  0
 38 69  1  0  0  0  0
 38 72  1  0  0  0  0
 38 80  2  0  0  0  0
 39 42  1  0  0  0  0
 40 53  1  0  0  0  0
 41 68  1  0  0  0  0
 42 44  1  0  0  0  0
 43 45  1  0  0  0  0
 43 48  1  0  0  0  0
 44 52  1  0  0  0  0
 45 55  1  0  0  0  0
 46 49  1  0  0  0  0
 46 54  1  0  0  0  0
 47 50  1  0  0  0  0
 47 54  1  0  0  0  0
 48 69  1  0  0  0  0
 49 67  1  0  0  0  0
 50 67  1  0  0  0  0
 51 55  1  0  0  0  0
 51 69  1  0  0  0  0
 52 73  1  0  0  0  0
 53 68  1  0  0  0  0
 54 61  1  0  0  0  0
 55 66  1  0  0  0  0
 56 63  1  0  0  0  0
 57 64  1  0  0  0  0
 58 64  1  0  0  0  0
 59 64  1  0  0  0  0
 60 75  1  0  0  0  0
 61 82  1  0  0  0  0
 62 64  1  0  0  0  0
 62 74  1  0  0  0  0
 63 75  1  0  0  0  0
 65 66  1  0  0  0  0
M  CHG  1  75   1
M  ISO  4  38 100  61 101  72 100  82 101
M  END
> <Batch ID>
0060

> <Smiles>
CNC(C)C(=O)NC(C(=O)N1Cc2cc([101O:1][101CH2:1]C3CCN(c4cc(F)cc([100NH:0][100C:0](=O)N5CCCC(n6nc(-c7ccc(Oc8ccc(F)cc8F)cc7)c(C(N)=O)c6N)C5)c4)CC3)ccc2CC1C(=O)NC1CCCc2ccccc21)C(C)(C)C

> <Shape>
0.225

> <Color>
0.070

> <Negative vol penalty>
0.000

$$$$

  -OEChem-04042323043D

 87 96  0     1  0  0  0  0  0999 V2000
  -30.2342  -10.7098   16.8149 C   0  0  0  0  0  0  0  0  0  0  0  0
  -29.6088  -11.6586   16.0124 C   0  0  0  0  0  0  0  0  0  0  0  0
  -25.3211  -30.4375   20.1566 C   0  0  0  0  0  0  0  0  0  0  0  0
  -24.2956  -28.5557   21.2720 C   0  0  0  0  0  0  0  0  0  0  0  0
  -30.2254  -10.8562   18.2014 C   0  0  0  0  0  0  0  0  0  0  0  0
  -28.9731  -12.7539   16.5962 C   0  0  0  0  0  0  0  0  0  0  0  0
  -28.6246  -18.4386   14.3446 C   0  0  0  0  0  0  0  0  0  0  0  0
  -20.9586  -20.8930   16.9815 C   0  0  0  0  0  0  0  0  0  0  0  0
  -21.1468  -22.2741   16.9313 C   0  0  0  0  0  0  0  0  0  0  0  0
  -24.9483  -31.2674   21.2139 C   0  0  0  0  0  0  0  0  0  0  0  0
  -23.9229  -29.3856   22.3294 C   0  0  0  0  0  0  0  0  0  0  0  0
  -27.6254  -19.1088   13.6402 C   0  0  0  0  0  0  0  0  0  0  0  0
  -26.0322  -31.9557   24.3419 C   0  0  0  0  0  0  0  0  0  0  0  0
  -26.9858  -32.8469   24.8338 C   0  0  0  0  0  0  0  0  0  0  0  0
  -26.8258  -20.0717   15.7024 C   0  0  0  0  0  0  0  0  0  0  0  0
  -21.3624  -22.1573   14.5277 C   0  0  0  0  0  0  0  0  0  0  0  0
  -21.8557  -19.1439   11.4703 C   0  0  0  0  0  0  0  0  0  0  0  0
  -25.5384  -34.7007   24.2813 C   0  0  0  0  0  0  0  0  0  0  0  0
  -20.1445  -19.2912   12.9262 C   0  0  0  0  0  0  0  0  0  0  0  0
  -24.9947  -29.0817   20.1856 C   0  0  0  0  0  0  0  0  0  0  0  0
  -26.5766  -27.4953   18.9656 C   0  0  0  0  0  0  0  0  0  0  0  0
  -29.5977  -11.9589   18.8019 C   0  0  0  0  0  0  0  0  0  0  0  0
  -28.7252  -18.5715   15.7370 C   0  0  0  0  0  0  0  0  0  0  0  0
  -28.9548  -12.9145   17.9921 C   0  0  0  0  0  0  0  0  0  0  0  0
  -27.8287  -19.4041   16.4218 C   0  0  0  0  0  0  0  0  0  0  0  0
  -20.9724  -20.1439   15.8049 C   0  0  0  0  0  0  0  0  0  0  0  0
  -21.1743  -20.7761   14.5780 C   0  0  0  0  0  0  0  0  0  0  0  0
  -21.3486  -22.9063   15.7044 C   0  0  0  0  0  0  0  0  0  0  0  0
  -24.2492  -30.7415   22.3003 C   0  0  0  0  0  0  0  0  0  0  0  0
  -26.7240  -19.9232   14.3194 C   0  0  0  0  0  0  0  0  0  0  0  0
  -24.8316  -32.4370   23.8196 C   0  0  0  0  0  0  0  0  0  0  0  0
  -20.5302  -18.7191   11.7341 C   0  0  0  0  0  0  0  0  0  0  0  0
  -26.7389  -34.2194   24.8035 C   0  0  0  0  0  0  0  0  0  0  0  0
  -24.5848  -33.8095   23.7893 C   0  0  0  0  0  0  0  0  0  0  0  0
  -25.3790  -28.2240   19.0934 C   0  0  0  0  0  0  0  0  0  0  0  0
  -22.2397  -19.9626   12.5093 C   0  0  0  0  0  0  0  0  0  0  0  0
  -26.4565  -26.8459   17.7613 C   0  0  0  0  0  0  0  0  0  0  0  0
  -27.6975  -27.4128   19.8559 C   0  0  0  0  0  0  0  0  0  0  0  0
  -28.5094  -16.5765   18.2022 C   0  0  0  0  0  0  0  0  0  0  0  0
  -29.4130  -19.1910   19.8964 C   0  0  0  0  0  0  0  0  0  0  0  0
  -29.5790  -22.5933   20.1046 C   0  0  0  0  0  0  0  0  0  0  0  0
  -24.5471  -19.8530   13.5039 C   0  0  0  0  0  0  0  0  0  1  0  0
  -21.7526  -25.0928   14.5201 C   0  0  0  0  0  0  0  0  0  0  0  0
  -29.5735  -12.0495   20.3072 C   0  0  0  0  0  0  0  0  0  0  0  0
  -29.8252  -17.8629   16.4789 C   0  0  0  0  0  0  0  0  0  0  0  0
  -27.9065  -19.5964   17.9136 C   0  0  0  0  0  0  0  0  0  0  0  0
  -29.2011  -13.4352   20.8281 C   0  0  0  0  0  0  0  0  0  0  0  0
  -24.3700  -27.2670   13.4714 C   0  0  0  0  0  0  0  0  0  0  0  0
  -27.9840  -13.9757   20.0842 C   0  0  0  0  0  0  0  0  0  0  0  0
  -25.0386  -27.6880   14.7821 C   0  0  0  0  0  0  0  0  0  0  0  0
  -22.8561  -27.1314   13.6250 C   0  0  0  0  0  0  0  0  0  0  0  0
  -23.0876  -26.6846   16.0366 C   0  0  0  0  0  0  0  0  0  0  0  0
  -28.2761  -14.1294   18.5867 C   0  0  1  0  0  0  0  0  0  0  0  0
  -29.5161  -17.6652   17.9597 C   0  0  1  0  0  0  0  0  0  0  0  0
  -24.6200  -26.7711   15.9482 C   0  0  2  0  0  0  0  0  0  0  0  0
  -20.7677  -18.6658   15.8940 C   0  0  0  0  0  0  0  0  0  0  0  0
  -30.3375  -24.4391   21.6262 C   0  0  0  0  0  0  0  0  0  0  0  0
  -26.9659  -18.7381   21.6618 C   0  0  0  0  0  0  0  0  0  0  0  0
  -27.2383  -21.0746   22.5189 C   0  0  0  0  0  0  0  0  0  0  0  0
  -29.0388  -19.3905   22.8995 C   0  0  0  0  0  0  0  0  0  0  0  0
  -31.5111  -23.6054   18.1043 C   0  0  0  0  0  0  0  0  0  0  0  0
  -23.5465  -20.6796   12.7295 C   0  0  0  0  0  0  0  0  0  0  0  0
  -28.6881  -20.3267   20.5773 C   0  0  1  0  0  0  0  0  0  0  0  0
  -30.7194  -23.5256   20.4719 C   0  0  2  0  0  0  0  0  0  0  0  0
  -27.9799  -19.8775   21.8865 C   0  0  0  0  0  0  0  0  0  0  0  0
  -24.5584  -28.0540   18.0533 N   0  0  0  0  0  0  0  0  0  0  0  0
  -21.1917  -20.0447   13.3886 N   0  0  0  0  0  0  0  0  0  0  0  0
  -25.2417  -27.2111   17.2604 N   0  0  0  0  0  0  0  0  0  0  0  0
  -28.9956  -18.8774   18.5952 N   0  0  0  0  0  0  0  0  0  0  0  0
  -22.5348  -26.2452   14.7458 N   0  0  0  0  0  0  0  0  0  0  0  0
  -27.2727  -26.0038   17.0926 N   0  0  0  0  0  0  0  0  0  0  0  0
  -27.6569  -28.1441   21.0508 N   0  0  0  0  0  0  0  0  0  0  0  0
  -21.5397  -24.3094   15.6540 N   0  0  0  0  0  0  0  0  0  0  0  0
  -29.0640  -15.3189   18.3449 N   0  0  0  0  0  0  0  0  0  0  0  0
  -29.6736  -21.3861   20.7643 N   0  0  0  0  0  0  0  0  0  0  0  0
  -31.0914  -24.3738   19.3044 N   0  3  0  0  0  0  0  0  0  0  0  0
  -28.7122  -26.7242   19.5917 O   0  0  0  0  0  0  0  0  0  0  0  0
  -27.3177  -16.8569   18.2573 O   0  0  0  0  0  0  0  0  0  0  0  0
  -30.3211  -18.6083   20.4944 O   0  0  0  0  0  0  0  0  0  0  0  0
  -28.6909  -22.9061   19.3147 O   0  0  0  0  0  0  0  0  0  0  0  0
  -24.3509  -18.7303   13.9496 O   0  0  0  0  0  0  0  0  0  0  0  0
  -21.3276  -24.8065   13.3979 O   0  0  0  0  0  0  0  0  0  0  0  0
  -19.7608  -17.9122   10.9907 O   0  0  0  0  0  0  0  0  0  0  0  0
  -23.8856  -31.5509   23.3323 O   0  0  0  0  0  0  0  0  0  0  0  0
  -25.7474  -20.5780   13.6343 O   0  0  0  0  0  0  0  0  0  1  0  0
  -27.6541  -35.0750   25.2774 F   0  0  0  0  0  0  0  0  0  0  0  0
  -23.4328  -34.2778   23.2898 F   0  0  0  0  0  0  0  0  0  0  0  0
  1  2  1  0  0  0  0
  1  5  2  0  0  0  0
  2  6  2  0  0  0  0
  3 10  2  0  0  0  0
  3 20  1  0  0  0  0
  4 11  1  0  0  0  0
  4 20  2  0  0  0  0
  5 22  1  0  0  0  0
  6 24  1  0  0  0  0
  7 12  2  0  0  0  0
  7 23  1  0  0  0  0
  8  9  2  0  0  0  0
  8 26  1  0  0  0  0
  9 28  1  0  0  0  0
 10 29  1  0  0  0  0
 11 29  2  0  0  0  0
 12 30  1  0  0  0  0
 13 14  2  0  0  0  0
 13 31  1  0  0  0  0
 14 33  1  0  0  0  0
 15 25  1  0  0  0  0
 15 30  2  0  0  0  0
 16 27  1  0  0  0  0
 16 28  2  0  0  0  0
 17 32  1  0  0  0  0
 17 36  2  0  0  0  0
 18 33  2  0  0  0  0
 18 34  1  0  0  0  0
 19 32  2  0  0  0  0
 19 67  1  0  0  0  0
 20 35  1  0  0  0  0
 21 35  1  0  0  0  0
 21 37  2  0  0  0  0
 21 38  1  0  0  0  0
 22 24  2  0  0  0  0
 22 44  1  0  0  0  0
 23 25  2  0  0  0  0
 23 45  1  0  0  0  0
 24 53  1  0  0  0  0
 25 46  1  0  0  0  0
 26 27  2  0  0  0  0
 26 56  1  0  0  0  0
 27 67  1  0  0  0  0
 28 73  1  0  0  0  0
 29 84  1  0  0  0  0
 30 85  1  0  0  0  0
 31 34  2  0  0  0  0
 31 84  1  0  0  0  0
 32 83  1  0  0  0  0
 33 86  1  0  0  0  0
 34 87  1  0  0  0  0
 35 66  2  0  0  0  0
 36 62  1  0  0  0  0
 36 67  1  0  0  0  0
 37 68  1  0  0  0  0
 37 71  1  0  0  0  0
 38 72  1  0  0  0  0
 38 77  2  0  0  0  0
 39 54  1  0  0  0  0
 39 74  1  0  0  0  0
 39 78  2  0  0  0  0
 40 63  1  0  0  0  0
 40 69  1  0  0  0  0
 40 79  2  0  0  0  0
 41 64  1  0  0  0  0
 41 75  1  0  0  0  0
 41 80  2  0  0  0  0
 42 62  1  0  0  0  0
 42 81  2  0  0  0  0
 42 85  1  0  0  0  0
 43 70  1  0  0  0  0
 43 73  1  0  0  0  0
 43 82  2  0  0  0  0
 44 47  1  0  0  0  0
 45 54  1  0  0  0  0
 46 69  1  0  0  0  0
 47 49  1  0  0  0  0
 48 50  1  0  0  0  0
 48 51  1  0  0  0  0
 49 53  1  0  0  0  0
 50 55  1  0  0  0  0
 51 70  1  0  0  0  0
 52 55  1  0  0  0  0
 52 70  1  0  0  0  0
 53 74  1  0  0  0  0
 54 69  1  0  0  0  0
 55 68  1  0  0  0  0
 57 64  1  0  0  0  0
 58 65  1  0  0  0  0
 59 65  1  0  0  0  0
 60 65  1  0  0  0  0
 61 76  1  0  0  0  0
 63 65  1  0  0  0  0
 63 75  1  0  0  0  0
 64 76  1  0  0  0  0
 66 68  1  0  0  0  0
M  CHG  1  76   1
M  ISO  4  42 101  43 100  73 100  85 101
M  END
> <Batch ID>
0060

> <Smiles>
CNC(C)C(=O)NC(C(=O)N1Cc2cc([101O:1][101C:1](=O)C=C3CC(=O)CN3c3cc([100NH:0][100C:0](=O)N4CCCC(n5nc(-c6ccc(Oc7ccc(F)cc7F)cc6)c(C(N)=O)c5N)C4)ccc3C)ccc2CC1C(=O)NC1CCCc2ccccc21)C(C)(C)C

> <Shape>
0.217

> <Color>
0.078

> <Negative vol penalty>
0.000

$$$$

  -OEChem-04042323043D

 85 93  0     1  0  0  0  0  0999 V2000
  -22.2910  -33.9589   22.6568 C   0  0  0  0  0  0  0  0  0  0  0  0
  -23.3619  -33.0826   22.5132 C   0  0  0  0  0  0  0  0  0  0  0  0
  -26.0219  -13.1046   21.6147 C   0  0  0  0  0  0  0  0  0  0  0  0
  -25.8298  -13.7260   19.2879 C   0  0  0  0  0  0  0  0  0  0  0  0
  -21.0648  -33.4887   23.1249 C   0  0  0  0  0  0  0  0  0  0  0  0
  -23.2074  -31.7355   22.8388 C   0  0  0  0  0  0  0  0  0  0  0  0
  -25.2198  -28.6532   19.3611 C   0  0  0  0  0  0  0  0  0  0  0  0
  -28.3296  -21.1811   16.6026 C   0  0  0  0  0  0  0  0  0  0  0  0
  -24.8570  -12.3450   21.5081 C   0  0  0  0  0  0  0  0  0  0  0  0
  -24.6648  -12.9663   19.1812 C   0  0  0  0  0  0  0  0  0  0  0  0
  -26.6045  -28.4912   19.3787 C   0  0  0  0  0  0  0  0  0  0  0  0
  -23.9611   -9.3137   20.3073 C   0  0  0  0  0  0  0  0  0  0  0  0
  -28.4095  -22.0368   15.5040 C   0  0  0  0  0  0  0  0  0  0  0  0
  -23.9652   -8.0381   20.8715 C   0  0  0  0  0  0  0  0  0  0  0  0
  -28.8816  -23.0170   18.0728 C   0  0  0  0  0  0  0  0  0  0  0  0
  -26.3386  -26.3964   20.5449 C   0  0  0  0  0  0  0  0  0  0  0  0
  -22.1370   -8.6721   22.3182 C   0  0  0  0  0  0  0  0  0  0  0  0
  -26.5083  -13.7952   20.5046 C   0  0  0  0  0  0  0  0  0  0  0  0
  -28.9615  -23.8728   16.9742 C   0  0  0  0  0  0  0  0  0  0  0  0
  -29.0321  -14.1484   20.3896 C   0  0  0  0  0  0  0  0  0  0  0  0
  -20.8925  -32.1333   23.4472 C   0  0  0  0  0  0  0  0  0  0  0  0
  -24.3833  -27.6917   19.9459 C   0  0  0  0  0  0  0  0  0  0  0  0
  -21.9781  -31.2469   23.3130 C   0  0  0  0  0  0  0  0  0  0  0  0
  -24.9435  -26.5473   20.5312 C   0  0  0  0  0  0  0  0  0  0  0  0
  -28.5656  -21.6712   17.8870 C   0  0  0  0  0  0  0  0  0  0  0  0
  -24.1784  -12.2758   20.2914 C   0  0  0  0  0  0  0  0  0  0  0  0
  -27.1642  -27.3642   19.9732 C   0  0  0  0  0  0  0  0  0  0  0  0
  -23.0451  -10.2686   20.7486 C   0  0  0  0  0  0  0  0  0  0  0  0
  -23.0531   -7.7173   21.8769 C   0  0  0  0  0  0  0  0  0  0  0  0
  -28.7255  -23.3826   15.6897 C   0  0  0  0  0  0  0  0  0  0  0  0
  -22.1330   -9.9478   21.7539 C   0  0  0  0  0  0  0  0  0  0  0  0
  -27.7113  -14.5806   20.6143 C   0  0  0  0  0  0  0  0  0  0  0  0
  -29.8020  -15.2618   20.6225 C   0  0  0  0  0  0  0  0  0  0  0  0
  -29.2984  -25.3057   17.1753 C   0  0  0  0  0  0  0  0  0  0  0  0
  -29.5195  -12.8562   20.0047 C   0  0  0  0  0  0  0  0  0  0  0  0
  -22.2893  -27.6967   22.3373 C   0  0  0  0  0  0  0  0  0  0  0  0
  -21.7006  -24.6760   21.3121 C   0  0  0  0  0  0  0  0  0  0  0  0
  -22.8191  -21.9080   19.6587 C   0  0  0  0  0  0  0  0  0  0  0  0
  -28.6889  -21.1259   20.3434 C   0  0  0  0  0  0  0  0  0  0  0  0
  -19.5619  -31.6807   23.9944 C   0  0  0  0  0  0  0  0  0  0  0  0
  -22.8904  -27.8680   19.8949 C   0  0  0  0  0  0  0  0  0  0  0  0
  -24.0882  -25.4758   21.1548 C   0  0  0  0  0  0  0  0  0  0  0  0
  -19.3731  -30.1663   23.9617 C   0  0  0  0  0  0  0  0  0  0  0  0
  -29.8528  -19.3120   23.1775 C   0  0  0  0  0  0  0  0  0  0  0  0
  -20.6156  -29.4618   24.4972 C   0  0  0  0  0  0  0  0  0  0  0  0
  -29.5615  -17.8530   22.8187 C   0  0  0  0  0  0  0  0  0  0  0  0
  -28.7603  -20.2503   22.6679 C   0  0  0  0  0  0  0  0  0  0  0  0
  -28.1606  -18.6663   20.8789 C   0  0  0  0  0  0  0  0  0  0  0  0
  -21.8427  -29.7739   23.6322 C   0  0  1  0  0  0  0  0  0  0  0  0
  -22.1581  -27.0773   20.9747 C   0  0  1  0  0  0  0  0  0  0  0  0
  -29.2659  -17.6906   21.3148 C   0  0  2  0  0  0  0  0  0  0  0  0
  -22.1272  -19.5824   19.0180 C   0  0  0  0  0  0  0  0  0  0  0  0
  -22.2033  -23.7410   24.1727 C   0  0  0  0  0  0  0  0  0  0  0  0
  -22.4400  -21.4083   23.2946 C   0  0  0  0  0  0  0  0  0  0  0  0
  -20.2775  -22.6240   23.0333 C   0  0  0  0  0  0  0  0  0  0  0  0
  -31.3974  -26.8907   19.8516 C   0  0  0  0  0  0  0  0  0  0  0  0
  -31.2936  -27.5332   17.4306 C   0  0  0  0  0  0  0  0  0  0  0  0
  -23.0400  -22.5133   16.7701 C   0  0  0  0  0  0  0  0  0  0  0  0
  -29.2525  -27.7748   18.9120 C   0  0  0  0  0  0  0  0  0  1  0  0
  -22.2634  -23.3111   21.6276 C   0  0  1  0  0  0  0  0  0  0  0  0
  -22.1728  -21.0417   18.5926 C   0  0  2  0  0  0  0  0  0  0  0  0
  -21.8125  -22.7921   23.0221 C   0  0  0  0  0  0  0  0  0  0  0  0
  -30.5056  -26.9362   18.6036 C   0  0  0  0  0  0  0  0  0  0  0  0
  -27.6424  -15.8680   20.9634 N   0  0  0  0  0  0  0  0  0  0  0  0
  -28.9295  -16.2544   20.9598 N   0  0  0  0  0  0  0  0  0  0  0  0
  -22.6343  -25.6970   21.0854 N   0  0  0  0  0  0  0  0  0  0  0  0
  -28.5378  -20.0431   21.2353 N   0  0  0  0  0  0  0  0  0  0  0  0
  -31.1334  -15.4787   20.5697 N   0  0  0  0  0  0  0  0  0  0  0  0
  -28.5922  -11.8242   19.8064 N   0  0  0  0  0  0  0  0  0  0  0  0
  -28.4840  -20.8016   19.0027 N   0  0  0  0  0  0  0  0  0  0  0  0
  -30.1084  -25.5808   18.2599 N   0  0  0  0  0  0  0  0  0  0  0  0
  -21.8147  -28.9921   22.4146 N   0  0  0  0  0  0  0  0  0  0  0  0
  -21.8829  -22.4459   20.5163 N   0  0  0  0  0  0  0  0  0  0  0  0
  -22.9362  -21.1355   17.3161 N   0  3  0  0  0  0  0  0  0  0  0  0
  -28.8378  -26.1441   16.4050 O   0  0  0  0  0  0  0  0  0  0  0  0
  -30.7425  -12.6193   19.8574 O   0  0  0  0  0  0  0  0  0  0  0  0
  -22.7832  -27.0468   23.2514 O   0  0  0  0  0  0  0  0  0  0  0  0
  -20.4776  -24.8288   21.2614 O   0  0  0  0  0  0  0  0  0  0  0  0
  -24.0332  -22.0863   19.7263 O   0  0  0  0  0  0  0  0  0  0  0  0
  -29.0053  -22.2515   20.7370 O   0  0  0  0  0  0  0  0  0  0  0  0
  -23.0418  -11.5344   20.1869 O   0  0  0  0  0  0  0  0  0  0  0  0
  -28.5154  -27.2039   19.9924 O   0  0  0  0  0  0  0  0  0  1  0  0
  -23.0561   -6.4918   22.4176 F   0  0  0  0  0  0  0  0  0  0  0  0
  -28.7995  -24.1961   14.6270 F   0  0  0  0  0  0  0  0  0  0  0  0
  -21.2497  -10.8606   22.1812 F   0  0  0  0  0  0  0  0  0  0  0  0
  1  2  1  0  0  0  0
  1  5  2  0  0  0  0
  2  6  2  0  0  0  0
  3  9  2  0  0  0  0
  3 18  1  0  0  0  0
  4 10  1  0  0  0  0
  4 18  2  0  0  0  0
  5 21  1  0  0  0  0
  6 23  1  0  0  0  0
  7 11  2  0  0  0  0
  7 22  1  0  0  0  0
  8 13  2  0  0  0  0
  8 25  1  0  0  0  0
  9 26  1  0  0  0  0
 10 26  2  0  0  0  0
 11 27  1  0  0  0  0
 12 14  2  0  0  0  0
 12 28  1  0  0  0  0
 13 30  1  0  0  0  0
 14 29  1  0  0  0  0
 15 19  1  0  0  0  0
 15 25  2  0  0  0  0
 16 24  1  0  0  0  0
 16 27  2  0  0  0  0
 17 29  2  0  0  0  0
 17 31  1  0  0  0  0
 18 32  1  0  0  0  0
 19 30  2  0  0  0  0
 19 34  1  0  0  0  0
 20 32  1  0  0  0  0
 20 33  2  0  0  0  0
 20 35  1  0  0  0  0
 21 23  2  0  0  0  0
 21 40  1  0  0  0  0
 22 24  2  0  0  0  0
 22 41  1  0  0  0  0
 23 49  1  0  0  0  0
 24 42  1  0  0  0  0
 25 70  1  0  0  0  0
 26 81  1  0  0  0  0
 27 82  1  0  0  0  0
 28 31  2  0  0  0  0
 28 81  1  0  0  0  0
 29 83  1  0  0  0  0
 30 84  1  0  0  0  0
 31 85  1  0  0  0  0
 32 64  2  0  0  0  0
 33 65  1  0  0  0  0
 33 68  1  0  0  0  0
 34 71  1  0  0  0  0
 34 75  2  0  0  0  0
 35 69  1  0  0  0  0
 35 76  2  0  0  0  0
 36 50  1  0  0  0  0
 36 72  1  0  0  0  0
 36 77  2  0  0  0  0
 37 60  1  0  0  0  0
 37 66  1  0  0  0  0
 37 78  2  0  0  0  0
 38 61  1  0  0  0  0
 38 73  1  0  0  0  0
 38 79  2  0  0  0  0
 39 67  1  0  0  0  0
 39 70  1  0  0  0  0
 39 80  2  0  0  0  0
 40 43  1  0  0  0  0
 41 50  1  0  0  0  0
 42 66  1  0  0  0  0
 43 45  1  0  0  0  0
 44 46  1  0  0  0  0
 44 47  1  0  0  0  0
 45 49  1  0  0  0  0
 46 51  1  0  0  0  0
 47 67  1  0  0  0  0
 48 51  1  0  0  0  0
 48 67  1  0  0  0  0
 49 72  1  0  0  0  0
 50 66  1  0  0  0  0
 51 65  1  0  0  0  0
 52 61  1  0  0  0  0
 53 62  1  0  0  0  0
 54 62  1  0  0  0  0
 55 62  1  0  0  0  0
 56 63  1  0  0  0  0
 57 63  1  0  0  0  0
 58 74  1  0  0  0  0
 59 63  1  0  0  0  0
 59 82  1  0  0  0  0
 60 62  1  0  0  0  0
 60 73  1  0  0  0  0
 61 74  1  0  0  0  0
 63 71  1  0  0  0  0
 64 65  1  0  0  0  0
M  CHG  1  74   1
M  ISO  4  39 100  59 101  70 100  82 101
M  END
> <Batch ID>
0060

> <Smiles>
CNC(C)C(=O)NC(C(=O)N1Cc2cc([101O:1][101CH2:1]C(C)(C)NC(=O)c3cc([100NH:0][100C:0](=O)N4CCCC(n5nc(-c6ccc(Oc7ccc(F)cc7F)cc6)c(C(N)=O)c5N)C4)ccc3F)ccc2CC1C(=O)NC1CCCc2ccccc21)C(C)(C)C

> <Shape>
0.264

> <Color>
0.078

> <Negative vol penalty>
0.000

$$$$

  -OEChem-04042323043D

 87 96  0     1  0  0  0  0  0999 V2000
  -32.3502  -14.4626   20.9916 C   0  0  0  0  0  0  0  0  0  0  0  0
  -31.5151  -15.5492   21.2310 C   0  0  0  0  0  0  0  0  0  0  0  0
  -29.0075  -23.1663   18.5310 C   0  0  0  0  0  0  0  0  0  0  0  0
  -26.9671  -22.6219   19.7047 C   0  0  0  0  0  0  0  0  0  0  0  0
  -31.8483  -13.3247   20.3614 C   0  0  0  0  0  0  0  0  0  0  0  0
  -30.1778  -15.4989   20.8394 C   0  0  0  0  0  0  0  0  0  0  0  0
  -25.3995  -18.0180   23.7253 C   0  0  0  0  0  0  0  0  0  0  0  0
  -19.4038  -27.9752   23.6035 C   0  0  0  0  0  0  0  0  0  0  0  0
  -20.5811  -28.3270   22.9434 C   0  0  0  0  0  0  0  0  0  0  0  0
  -29.5794  -21.9728   18.9717 C   0  0  0  0  0  0  0  0  0  0  0  0
  -27.5390  -21.4284   20.1453 C   0  0  0  0  0  0  0  0  0  0  0  0
  -24.6989  -19.2057   23.5191 C   0  0  0  0  0  0  0  0  0  0  0  0
  -29.4499  -18.6957   18.1490 C   0  0  0  0  0  0  0  0  0  0  0  0
  -30.1506  -17.9299   17.2173 C   0  0  0  0  0  0  0  0  0  0  0  0
  -23.0534  -18.0037   22.2281 C   0  0  0  0  0  0  0  0  0  0  0  0
  -20.2582  -26.5013   21.3944 C   0  0  0  0  0  0  0  0  0  0  0  0
  -32.1514  -18.1314   18.5564 C   0  0  0  0  0  0  0  0  0  0  0  0
  -27.7014  -23.4909   18.8976 C   0  0  0  0  0  0  0  0  0  0  0  0
  -26.9005  -25.1255   17.1103 C   0  0  0  0  0  0  0  0  0  0  0  0
  -30.5017  -13.2567   19.9706 C   0  0  0  0  0  0  0  0  0  0  0  0
  -24.9374  -16.8142   23.1743 C   0  0  0  0  0  0  0  0  0  0  0  0
  -29.6577  -14.3595   20.2023 C   0  0  0  0  0  0  0  0  0  0  0  0
  -23.7486  -16.8018   22.4309 C   0  0  0  0  0  0  0  0  0  0  0  0
  -18.6537  -26.8864   23.1591 C   0  0  0  0  0  0  0  0  0  0  0  0
  -19.0809  -26.1495   22.0546 C   0  0  0  0  0  0  0  0  0  0  0  0
  -21.0083  -27.5901   21.8389 C   0  0  0  0  0  0  0  0  0  0  0  0
  -28.8451  -21.1039   19.7788 C   0  0  0  0  0  0  0  0  0  0  0  0
  -23.5272  -19.1991   22.7680 C   0  0  0  0  0  0  0  0  0  0  0  0
  -30.1000  -19.1795   19.2844 C   0  0  0  0  0  0  0  0  0  0  0  0
  -31.5013  -17.6477   17.4210 C   0  0  0  0  0  0  0  0  0  0  0  0
  -31.4507  -18.8974   19.4881 C   0  0  0  0  0  0  0  0  0  0  0  0
  -27.1103  -24.7238   18.4431 C   0  0  0  0  0  0  0  0  0  0  0  0
  -26.3149  -26.3636   17.2129 C   0  0  0  0  0  0  0  0  0  0  0  0
  -19.3265  -23.0688   20.3911 C   0  0  0  0  0  0  0  0  0  0  0  0
  -27.2075  -24.4406   15.8887 C   0  0  0  0  0  0  0  0  0  0  0  0
  -26.0857  -14.7208   21.0761 C   0  0  0  0  0  0  0  0  0  0  0  0
  -23.4522  -13.0234   21.9164 C   0  0  0  0  0  0  0  0  0  0  0  0
  -20.2829  -13.0305   23.1822 C   0  0  0  0  0  0  0  0  0  0  0  0
  -23.0638  -29.0009   21.4767 C   0  0  0  0  0  0  0  0  0  0  0  0
  -30.0163  -12.0238   19.2501 C   0  0  0  0  0  0  0  0  0  0  0  0
  -25.6903  -15.5371   23.4284 C   0  0  0  0  0  0  0  0  0  0  0  0
  -23.1992  -15.5323   21.8349 C   0  0  0  0  0  0  0  0  0  0  0  0
  -20.0758  -21.7542   20.4999 C   0  0  0  0  0  0  0  0  0  0  0  0
  -28.4951  -11.9048   19.2036 C   0  0  0  0  0  0  0  0  0  0  0  0
  -26.1206  -30.1875   20.0895 C   0  0  0  0  0  0  0  0  0  0  0  0
  -27.8678  -13.2343   18.7965 C   0  0  0  0  0  0  0  0  0  0  0  0
  -26.6993  -28.9592   19.3834 C   0  0  0  0  0  0  0  0  0  0  0  0
  -20.2488  -22.0083   22.9526 C   0  0  0  0  0  0  0  0  0  0  0  0
  -25.4108  -29.8126   21.3892 C   0  0  0  0  0  0  0  0  0  0  0  0
  -19.7137  -23.4259   22.8542 C   0  0  0  0  0  0  0  0  0  0  0  0
  -24.9670  -27.5383   20.5527 C   0  0  0  0  0  0  0  0  0  0  0  0
  -28.1951  -14.3333   19.8146 C   0  0  1  0  0  0  0  0  0  0  0  0
  -25.4039  -14.4578   22.3889 C   0  0  1  0  0  0  0  0  0  0  0  0
  -21.0253  -21.6673   21.6876 C   0  0  1  0  0  0  0  0  0  0  0  0
  -25.6355  -27.8581   19.2057 C   0  0  2  0  0  0  0  0  0  0  0  0
  -17.3971  -26.5284   23.8825 C   0  0  0  0  0  0  0  0  0  0  0  0
  -18.3701  -11.4951   23.7125 C   0  0  0  0  0  0  0  0  0  0  0  0
  -22.7648  -12.8586   18.9482 C   0  0  0  0  0  0  0  0  0  0  0  0
  -20.4427  -12.1820   19.5949 C   0  0  0  0  0  0  0  0  0  0  0  0
  -22.3805  -10.7440   20.2270 C   0  0  0  0  0  0  0  0  0  0  0  0
  -20.3772  -13.7178   26.0593 C   0  0  0  0  0  0  0  0  0  0  0  0
  -18.2888  -24.9750   21.5571 C   0  0  0  0  0  0  0  0  0  0  0  0
  -21.6491  -20.2775   21.7853 C   0  0  0  0  0  0  0  0  0  1  0  0
  -22.0283  -12.9444   21.4213 C   0  0  1  0  0  0  0  0  0  0  0  0
  -19.6216  -12.1740   24.2469 C   0  0  2  0  0  0  0  0  0  0  0  0
  -21.9152  -12.2067   20.0574 C   0  0  0  0  0  0  0  0  0  0  0  0
  -26.6920  -25.6332   19.3276 N   0  0  0  0  0  0  0  0  0  0  0  0
  -26.2137  -26.6185   18.5489 N   0  0  0  0  0  0  0  0  0  0  0  0
  -19.0662  -23.7431   21.5821 N   0  0  0  0  0  0  0  0  0  0  0  0
  -23.9747  -14.3106   22.1059 N   0  0  0  0  0  0  0  0  0  0  0  0
  -24.4146  -28.7677   21.1428 N   0  0  0  0  0  0  0  0  0  0  0  0
  -25.8818  -27.2483   16.2897 N   0  0  0  0  0  0  0  0  0  0  0  0
  -27.8080  -23.1764   15.9642 N   0  0  0  0  0  0  0  0  0  0  0  0
  -22.2032  -27.9483   21.1668 N   0  0  0  0  0  0  0  0  0  0  0  0
  -27.3618  -14.1977   20.9901 N   0  0  0  0  0  0  0  0  0  0  0  0
  -21.2554  -12.3331   22.4971 N   0  0  0  0  0  0  0  0  0  0  0  0
  -19.2384  -13.0099   25.4197 N   0  3  0  0  0  0  0  0  0  0  0  0
  -18.9190  -23.4349   19.2852 O   0  0  0  0  0  0  0  0  0  0  0  0
  -26.9718  -24.9421   14.7633 O   0  0  0  0  0  0  0  0  0  0  0  0
  -25.4970  -15.3504   20.2050 O   0  0  0  0  0  0  0  0  0  0  0  0
  -24.0755  -11.9814   22.1341 O   0  0  0  0  0  0  0  0  0  0  0  0
  -19.9658  -14.1999   22.9761 O   0  0  0  0  0  0  0  0  0  0  0  0
  -22.6930  -30.0672   21.9742 O   0  0  0  0  0  0  0  0  0  0  0  0
  -29.4028  -19.9391   20.2088 O   0  0  0  0  0  0  0  0  0  0  0  0
  -22.8418  -20.3570   22.5647 O   0  0  0  0  0  0  0  0  0  1  0  0
  -32.1737  -16.9109   16.5270 F   0  0  0  0  0  0  0  0  0  0  0  0
  -32.0804  -19.3584   20.5775 F   0  0  0  0  0  0  0  0  0  0  0  0
  1  2  1  0  0  0  0
  1  5  2  0  0  0  0
  2  6  2  0  0  0  0
  3 10  2  0  0  0  0
  3 18  1  0  0  0  0
  4 11  1  0  0  0  0
  4 18  2  0  0  0  0
  5 20  1  0  0  0  0
  6 22  1  0  0  0  0
  7 12  2  0  0  0  0
  7 21  1  0  0  0  0
  8  9  2  0  0  0  0
  8 24  1  0  0  0  0
  9 26  1  0  0  0  0
 10 27  1  0  0  0  0
 11 27  2  0  0  0  0
 12 28  1  0  0  0  0
 13 14  2  0  0  0  0
 13 29  1  0  0  0  0
 14 30  1  0  0  0  0
 15 23  1  0  0  0  0
 15 28  2  0  0  0  0
 16 25  1  0  0  0  0
 16 26  2  0  0  0  0
 17 30  2  0  0  0  0
 17 31  1  0  0  0  0
 18 32  1  0  0  0  0
 19 32  1  0  0  0  0
 19 33  2  0  0  0  0
 19 35  1  0  0  0  0
 20 22  2  0  0  0  0
 20 40  1  0  0  0  0
 21 23  2  0  0  0  0
 21 41  1  0  0  0  0
 22 52  1  0  0  0  0
 23 42  1  0  0  0  0
 24 25  2  0  0  0  0
 24 56  1  0  0  0  0
 25 62  1  0  0  0  0
 26 74  1  0  0  0  0
 27 84  1  0  0  0  0
 28 85  1  0  0  0  0
 29 31  2  0  0  0  0
 29 84  1  0  0  0  0
 30 86  1  0  0  0  0
 31 87  1  0  0  0  0
 32 67  2  0  0  0  0
 33 68  1  0  0  0  0
 33 72  1  0  0  0  0
 34 43  1  0  0  0  0
 34 69  1  0  0  0  0
 34 78  2  0  0  0  0
 35 73  1  0  0  0  0
 35 79  2  0  0  0  0
 36 53  1  0  0  0  0
 36 75  1  0  0  0  0
 36 80  2  0  0  0  0
 37 64  1  0  0  0  0
 37 70  1  0  0  0  0
 37 81  2  0  0  0  0
 38 65  1  0  0  0  0
 38 76  1  0  0  0  0
 38 82  2  0  0  0  0
 39 71  1  0  0  0  0
 39 74  1  0  0  0  0
 39 83  2  0  0  0  0
 40 44  1  0  0  0  0
 41 53  1  0  0  0  0
 42 70  1  0  0  0  0
 43 54  1  0  0  0  0
 44 46  1  0  0  0  0
 45 47  1  0  0  0  0
 45 49  1  0  0  0  0
 46 52  1  0  0  0  0
 47 55  1  0  0  0  0
 48 50  1  0  0  0  0
 48 54  1  0  0  0  0
 49 71  1  0  0  0  0
 50 69  1  0  0  0  0
 51 55  1  0  0  0  0
 51 71  1  0  0  0  0
 52 75  1  0  0  0  0
 53 70  1  0  0  0  0
 54 63  1  0  0  0  0
 55 68  1  0  0  0  0
 57 65  1  0  0  0  0
 58 66  1  0  0  0  0
 59 66  1  0  0  0  0
 60 66  1  0  0  0  0
 61 77  1  0  0  0  0
 62 69  1  0  0  0  0
 63 85  1  0  0  0  0
 64 66  1  0  0  0  0
 64 76  1  0  0  0  0
 65 77  1  0  0  0  0
 67 68  1  0  0  0  0
M  CHG  1  77   1
M  ISO  4  39 100  63 101  74 100  85 101
M  END
> <Batch ID>
0060

> <Smiles>
CNC(C)C(=O)NC(C(=O)N1Cc2cc([101O:1][101CH2:1]C3CCN(Cc4cc([100NH:0][100C:0](=O)N5CCCC(n6nc(-c7ccc(Oc8ccc(F)cc8F)cc7)c(C(N)=O)c6N)C5)ccc4C)C(=O)C3)ccc2CC1C(=O)NC1CCCc2ccccc21)C(C)(C)C

> <Shape>
0.238

> <Color>
0.080

> <Negative vol penalty>
0.000

$$$$
