
  -OEChem-04042323073D

 86 95  0     1  0  0  0  0  0999 V2000
  -29.1395  -25.1274   17.3616 C   0  0  0  0  0  0  0  0  0  0  0  0
  -28.0504  -25.5120   18.1372 C   0  0  0  0  0  0  0  0  0  0  0  0
  -28.6823  -16.2497   17.9553 C   0  0  0  0  0  0  0  0  0  0  0  0
  -26.2681  -16.2832   17.8659 C   0  0  0  0  0  0  0  0  0  0  0  0
  -30.4339  -25.4356   17.7780 C   0  0  0  0  0  0  0  0  0  0  0  0
  -28.2553  -26.2041   19.3303 C   0  0  0  0  0  0  0  0  0  0  0  0
  -25.1043  -30.1324   19.8632 C   0  0  0  0  0  0  0  0  0  0  0  0
  -22.2459  -25.6837   23.5818 C   0  0  0  0  0  0  0  0  0  0  0  0
  -23.2809  -24.7491   23.5531 C   0  0  0  0  0  0  0  0  0  0  0  0
  -28.6815  -14.9370   17.4836 C   0  0  0  0  0  0  0  0  0  0  0  0
  -26.2674  -14.9706   17.3941 C   0  0  0  0  0  0  0  0  0  0  0  0
  -23.7974  -29.8513   20.2592 C   0  0  0  0  0  0  0  0  0  0  0  0
  -26.7999  -13.3796   14.4606 C   0  0  0  0  0  0  0  0  0  0  0  0
  -25.9616  -13.0788   13.3872 C   0  0  0  0  0  0  0  0  0  0  0  0
  -24.3570  -30.4680   22.5231 C   0  0  0  0  0  0  0  0  0  0  0  0
  -24.8038  -11.4519   14.7473 C   0  0  0  0  0  0  0  0  0  0  0  0
  -27.4756  -16.9228   18.1466 C   0  0  0  0  0  0  0  0  0  0  0  0
  -27.5203  -19.4581   17.8672 C   0  0  0  0  0  0  0  0  0  0  0  0
  -30.6543  -26.1403   18.9719 C   0  0  0  0  0  0  0  0  0  0  0  0
  -26.0518  -30.5738   20.7980 C   0  0  0  0  0  0  0  0  0  0  0  0
  -29.5540  -26.5208   19.7637 C   0  0  0  0  0  0  0  0  0  0  0  0
  -25.6746  -30.7565   22.1360 C   0  0  0  0  0  0  0  0  0  0  0  0
  -22.4352  -25.9666   21.1898 C   0  0  0  0  0  0  0  0  0  0  0  0
  -23.4702  -25.0320   21.1612 C   0  0  0  0  0  0  0  0  0  0  0  0
  -21.8230  -26.2924   22.4001 C   0  0  0  0  0  0  0  0  0  0  0  0
  -23.8931  -24.4232   22.3429 C   0  0  0  0  0  0  0  0  0  0  0  0
  -27.4741  -14.2975   17.2030 C   0  0  0  0  0  0  0  0  0  0  0  0
  -23.4244  -30.0162   21.5898 C   0  0  0  0  0  0  0  0  0  0  0  0
  -26.6403  -12.7164   15.6774 C   0  0  0  0  0  0  0  0  0  0  0  0
  -24.9635  -12.1150   13.5306 C   0  0  0  0  0  0  0  0  0  0  0  0
  -25.6423  -11.7526   15.8208 C   0  0  0  0  0  0  0  0  0  0  0  0
  -27.4757  -18.2786   18.6344 C   0  0  0  0  0  0  0  0  0  0  0  0
  -27.4992  -20.4715   18.7940 C   0  0  0  0  0  0  0  0  0  0  0  0
  -19.5423  -27.1016   21.7619 C   0  0  0  0  0  0  0  0  0  0  0  0
  -27.5757  -19.6229   16.4440 C   0  0  0  0  0  0  0  0  0  0  0  0
  -28.8138  -29.4467   21.8955 C   0  0  0  0  0  0  0  0  0  0  0  0
  -28.9256  -32.3049   23.4253 C   0  0  0  0  0  0  0  0  0  0  0  0
  -27.2286  -34.9802   24.6940 C   0  0  0  0  0  0  0  0  0  0  0  0
  -25.4700  -22.7886   23.4326 C   0  0  0  0  0  0  0  0  0  0  0  0
  -32.0738  -26.4093   19.4047 C   0  0  0  0  0  0  0  0  0  0  0  0
  -27.4504  -30.8984   20.3497 C   0  0  0  0  0  0  0  0  0  0  0  0
  -26.6487  -31.2474   23.1746 C   0  0  0  0  0  0  0  0  0  0  0  0
  -18.5949  -28.1463   22.2926 C   0  0  0  0  0  0  0  0  0  0  0  0
  -32.1875  -27.4733   20.4934 C   0  0  0  0  0  0  0  0  0  0  0  0
  -19.5087  -29.1753   22.9232 C   0  0  0  0  0  0  0  0  0  0  0  0
  -28.0291  -20.3445   23.8264 C   0  0  0  0  0  0  0  0  0  0  0  0
  -31.1656  -27.2191   21.5970 C   0  0  0  0  0  0  0  0  0  0  0  0
  -28.1169  -19.6862   22.4476 C   0  0  0  0  0  0  0  0  0  0  0  0
  -26.5902  -20.7046   24.1923 C   0  0  0  0  0  0  0  0  0  0  0  0
  -25.9664  -20.8525   21.8137 C   0  0  0  0  0  0  0  0  0  0  0  0
  -29.7344  -27.2946   21.0517 C   0  0  1  0  0  0  0  0  0  0  0  0
  -28.4682  -30.8502   21.4852 C   0  0  1  0  0  0  0  0  0  0  0  0
  -27.4038  -20.5307   21.3734 C   0  0  2  0  0  0  0  0  0  0  0  0
  -20.7344  -28.3785   23.3712 C   0  0  2  0  0  0  0  0  0  0  0  0
  -21.9823  -26.6181   19.9206 C   0  0  0  0  0  0  0  0  0  0  0  0
  -24.1259  -24.6837   19.8614 C   0  0  0  0  0  0  0  0  0  0  0  0
  -27.5886  -37.1403   25.9196 C   0  0  0  0  0  0  0  0  0  0  0  0
  -29.3574  -30.7581   26.0196 C   0  0  0  0  0  0  0  0  0  0  0  0
  -28.7628  -32.8393   27.2779 C   0  0  0  0  0  0  0  0  0  0  0  0
  -30.7612  -32.8145   25.7851 C   0  0  0  0  0  0  0  0  0  0  0  0
  -26.0929  -36.5666   22.4686 C   0  0  0  0  0  0  0  0  0  0  0  0
  -21.9630  -29.2889   23.3194 C   0  0  0  0  0  0  0  0  0  1  0  0
  -28.4495  -32.8217   24.7614 C   0  0  1  0  0  0  0  0  0  0  0  0
  -27.4576  -36.4748   24.5585 C   0  0  2  0  0  0  0  0  0  0  0  0
  -29.3147  -32.2973   25.9421 C   0  0  0  0  0  0  0  0  0  0  0  0
  -27.4299  -18.5189   19.9475 N   0  0  0  0  0  0  0  0  0  0  0  0
  -27.4457  -19.8612   20.0126 N   0  0  0  0  0  0  0  0  0  0  0  0
  -20.7621  -27.2449   22.4530 N   0  0  0  0  0  0  0  0  0  0  0  0
  -28.0060  -31.5452   22.6883 N   0  0  0  0  0  0  0  0  0  0  0  0
  -25.9802  -21.5082   23.1308 N   0  0  0  0  0  0  0  0  0  0  0  0
  -27.5215  -21.8162   18.6774 N   0  0  0  0  0  0  0  0  0  0  0  0
  -27.5904  -18.4759   15.6387 N   0  0  0  0  0  0  0  0  0  0  0  0
  -24.9437  -23.4725   22.3372 N   0  0  0  0  0  0  0  0  0  0  0  0
  -29.3331  -28.6737   20.8745 N   0  0  0  0  0  0  0  0  0  0  0  0
  -28.4129  -34.2757   24.6472 N   0  0  0  0  0  0  0  0  0  0  0  0
  -26.3213  -37.1092   23.8325 N   0  3  0  0  0  0  0  0  0  0  0  0
  -19.1992  -26.2532   20.9501 O   0  0  0  0  0  0  0  0  0  0  0  0
  -27.6278  -20.7535   15.9032 O   0  0  0  0  0  0  0  0  0  0  0  0
  -28.6248  -29.0917   23.0531 O   0  0  0  0  0  0  0  0  0  0  0  0
  -30.0687  -32.5717   23.0461 O   0  0  0  0  0  0  0  0  0  0  0  0
  -26.1111  -34.4874   24.8317 O   0  0  0  0  0  0  0  0  0  0  0  0
  -25.5226  -23.2557   24.5732 O   0  0  0  0  0  0  0  0  0  0  0  0
  -27.4730  -13.0167   16.7424 O   0  0  0  0  0  0  0  0  0  0  0  0
  -22.1496  -29.7419   21.9791 O   0  0  0  0  0  0  0  0  0  1  0  0
  -24.1574  -11.8274   12.5001 F   0  0  0  0  0  0  0  0  0  0  0  0
  -25.4833  -11.1131   16.9876 F   0  0  0  0  0  0  0  0  0  0  0  0
  1  2  1  0  0  0  0
  1  5  2  0  0  0  0
  2  6  2  0  0  0  0
  3 10  2  0  0  0  0
  3 17  1  0  0  0  0
  4 11  1  0  0  0  0
  4 17  2  0  0  0  0
  5 19  1  0  0  0  0
  6 21  1  0  0  0  0
  7 12  2  0  0  0  0
  7 20  1  0  0  0  0
  8  9  2  0  0  0  0
  8 25  1  0  0  0  0
  9 26  1  0  0  0  0
 10 27  1  0  0  0  0
 11 27  2  0  0  0  0
 12 28  1  0  0  0  0
 13 14  2  0  0  0  0
 13 29  1  0  0  0  0
 14 30  1  0  0  0  0
 15 22  1  0  0  0  0
 15 28  2  0  0  0  0
 16 30  2  0  0  0  0
 16 31  1  0  0  0  0
 17 32  1  0  0  0  0
 18 32  1  0  0  0  0
 18 33  2  0  0  0  0
 18 35  1  0  0  0  0
 19 21  2  0  0  0  0
 19 40  1  0  0  0  0
 20 22  2  0  0  0  0
 20 41  1  0  0  0  0
 21 51  1  0  0  0  0
 22 42  1  0  0  0  0
 23 24  1  0  0  0  0
 23 25  2  0  0  0  0
 23 55  1  0  0  0  0
 24 26  2  0  0  0  0
 24 56  1  0  0  0  0
 25 68  1  0  0  0  0
 26 73  1  0  0  0  0
 27 83  1  0  0  0  0
 28 84  1  0  0  0  0
 29 31  2  0  0  0  0
 29 83  1  0  0  0  0
 30 85  1  0  0  0  0
 31 86  1  0  0  0  0
 32 66  2  0  0  0  0
 33 67  1  0  0  0  0
 33 71  1  0  0  0  0
 34 43  1  0  0  0  0
 34 68  1  0  0  0  0
 34 77  2  0  0  0  0
 35 72  1  0  0  0  0
 35 78  2  0  0  0  0
 36 52  1  0  0  0  0
 36 74  1  0  0  0  0
 36 79  2  0  0  0  0
 37 63  1  0  0  0  0
 37 69  1  0  0  0  0
 37 80  2  0  0  0  0
 38 64  1  0  0  0  0
 38 75  1  0  0  0  0
 38 81  2  0  0  0  0
 39 70  1  0  0  0  0
 39 73  1  0  0  0  0
 39 82  2  0  0  0  0
 40 44  1  0  0  0  0
 41 52  1  0  0  0  0
 42 69  1  0  0  0  0
 43 45  1  0  0  0  0
 44 47  1  0  0  0  0
 45 54  1  0  0  0  0
 46 48  1  0  0  0  0
 46 49  1  0  0  0  0
 47 51  1  0  0  0  0
 48 53  1  0  0  0  0
 49 70  1  0  0  0  0
 50 53  1  0  0  0  0
 50 70  1  0  0  0  0
 51 74  1  0  0  0  0
 52 69  1  0  0  0  0
 53 67  1  0  0  0  0
 54 62  1  0  0  0  0
 54 68  1  0  0  0  0
 57 64  1  0  0  0  0
 58 65  1  0  0  0  0
 59 65  1  0  0  0  0
 60 65  1  0  0  0  0
 61 76  1  0  0  0  0
 62 84  1  0  0  0  0
 63 65  1  0  0  0  0
 63 75  1  0  0  0  0
 64 76  1  0  0  0  0
 66 67  1  0  0  0  0
M  CHG  1  76   1
M  ISO  4  39 100  62 101  73 100  84 101
M  END
> <Batch ID>
0061

> <Smiles>
CNC(C)C(=O)NC(C(=O)N1Cc2cc([101O:1][101CH2:1]C3CCC(=O)N3c3ccc([100NH:0][100C:0](=O)N4CCCC(n5nc(-c6ccc(Oc7ccc(F)cc7F)cc6)c(C(N)=O)c5N)C4)c(C)c3C)ccc2CC1C(=O)NC1CCCc2ccccc21)C(C)(C)C

> <Shape>
0.234

> <Color>
0.067

> <Negative vol penalty>
0.000

$$$$

  -OEChem-04042323073D

 84 92  0     1  0  0  0  0  0999 V2000
  -21.8119  -10.9110   19.5120 C   0  0  0  0  0  0  0  0  0  0  0  0
  -21.4918  -12.1855   19.9685 C   0  0  0  0  0  0  0  0  0  0  0  0
  -25.8800  -24.3221   19.3966 C   0  0  0  0  0  0  0  0  0  0  0  0
  -25.9278  -25.4078   17.2389 C   0  0  0  0  0  0  0  0  0  0  0  0
  -23.1224  -10.4453   19.6101 C   0  0  0  0  0  0  0  0  0  0  0  0
  -22.4819  -12.9948   20.5246 C   0  0  0  0  0  0  0  0  0  0  0  0
  -22.9346  -19.0864   20.0850 C   0  0  0  0  0  0  0  0  0  0  0  0
  -25.3717  -23.1663   18.8038 C   0  0  0  0  0  0  0  0  0  0  0  0
  -25.4196  -24.2520   16.6460 C   0  0  0  0  0  0  0  0  0  0  0  0
  -22.5730  -20.1187   20.9495 C   0  0  0  0  0  0  0  0  0  0  0  0
  -22.4161  -22.7349   16.3167 C   0  0  0  0  0  0  0  0  0  0  0  0
  -21.3830  -22.8818   15.3912 C   0  0  0  0  0  0  0  0  0  0  0  0
  -24.8311  -20.1939   21.7946 C   0  0  0  0  0  0  0  0  0  0  0  0
  -22.7604  -21.8573   13.6910 C   0  0  0  0  0  0  0  0  0  0  0  0
  -26.1579  -25.4429   18.6142 C   0  0  0  0  0  0  0  0  0  0  0  0
  -28.0367  -26.9677   19.4221 C   0  0  0  0  0  0  0  0  0  0  0  0
  -24.1311  -11.2529   20.1588 C   0  0  0  0  0  0  0  0  0  0  0  0
  -24.2468  -18.5919   20.0765 C   0  0  0  0  0  0  0  0  0  0  0  0
  -23.8069  -12.5390   20.6314 C   0  0  0  0  0  0  0  0  0  0  0  0
  -25.2075  -19.1571   20.9273 C   0  0  0  0  0  0  0  0  0  0  0  0
  -25.1416  -23.1312   17.4285 C   0  0  0  0  0  0  0  0  0  0  0  0
  -23.5205  -20.6706   21.8066 C   0  0  0  0  0  0  0  0  0  0  0  0
  -23.6215  -22.1493   15.9294 C   0  0  0  0  0  0  0  0  0  0  0  0
  -21.5551  -22.4430   14.0784 C   0  0  0  0  0  0  0  0  0  0  0  0
  -23.7936  -21.7105   14.6166 C   0  0  0  0  0  0  0  0  0  0  0  0
  -26.6824  -26.6373   19.2261 C   0  0  0  0  0  0  0  0  0  0  0  0
  -28.0051  -28.1949   20.0380 C   0  0  0  0  0  0  0  0  0  0  0  0
  -22.6158  -26.5085   25.0832 C   0  0  0  0  0  0  0  0  0  0  0  0
  -23.2658  -27.6752   25.0704 C   0  0  0  0  0  0  0  0  0  0  0  0
  -21.7421  -29.0927   23.5398 C   0  0  0  0  0  0  0  0  0  0  0  0
  -20.7587  -26.7941   23.4522 C   0  0  0  0  0  0  0  0  0  0  0  0
  -20.7607  -28.2281   23.2428 C   0  0  0  0  0  0  0  0  0  0  0  0
  -21.5463  -26.0411   24.2346 C   0  0  0  0  0  0  0  0  0  0  0  0
  -23.0402  -28.8690   24.2259 C   0  0  0  0  0  0  0  0  0  0  0  0
  -29.2178  -26.2311   19.0782 C   0  0  0  0  0  0  0  0  0  0  0  0
  -25.5870  -15.7763   20.6931 C   0  0  0  0  0  0  0  0  0  0  0  0
  -28.2722  -17.2629   19.6435 C   0  0  0  0  0  0  0  0  0  0  0  0
  -22.3211  -23.7487   24.5204 C   0  0  0  0  0  0  0  0  0  0  0  0
  -29.9501  -20.1895   19.1271 C   0  0  0  0  0  0  0  0  0  0  0  0
  -23.7734  -30.8676   23.3741 C   0  0  0  0  0  0  0  0  0  0  0  0
  -25.5237  -10.6882   20.2871 C   0  0  0  0  0  0  0  0  0  0  0  0
  -24.6275  -17.4962   19.1190 C   0  0  0  0  0  0  0  0  0  0  0  0
  -26.6346  -18.6758   20.9425 C   0  0  0  0  0  0  0  0  0  0  0  0
  -26.5898  -11.7496   20.5462 C   0  0  0  0  0  0  0  0  0  0  0  0
  -25.3538  -32.1518   20.3907 C   0  0  0  0  0  0  0  0  0  0  0  0
  -26.1314  -12.7115   21.6377 C   0  0  0  0  0  0  0  0  0  0  0  0
  -25.9647  -30.9030   19.7557 C   0  0  0  0  0  0  0  0  0  0  0  0
  -24.0358  -31.8359   21.0905 C   0  0  0  0  0  0  0  0  0  0  0  0
  -24.7537  -29.4937   21.4789 C   0  0  0  0  0  0  0  0  0  0  0  0
  -24.8582  -13.4560   21.2180 C   0  0  1  0  0  0  0  0  0  0  0  0
  -25.8661  -16.7218   19.5591 C   0  0  1  0  0  0  0  0  0  0  0  0
  -26.0999  -29.7688   20.7870 C   0  0  1  0  0  0  0  0  0  0  0  0
  -19.5182  -28.7344   22.5468 C   0  0  0  0  0  0  0  0  0  0  0  0
  -31.7773  -21.7181   18.3383 C   0  0  0  0  0  0  0  0  0  0  0  0
  -29.6098  -16.4166   22.2520 C   0  0  0  0  0  0  0  0  0  0  0  0
  -31.4075  -18.0981   21.7946 C   0  0  0  0  0  0  0  0  0  0  0  0
  -31.0518  -16.1957   20.2207 C   0  0  0  0  0  0  0  0  0  0  0  0
  -28.6945  -20.5070   16.4660 C   0  0  0  0  0  0  0  0  0  0  0  0
  -21.7671  -22.3320   24.4946 C   0  0  0  0  0  0  0  0  0  0  0  0
  -21.8196  -21.6987   23.1127 C   0  0  0  0  0  0  0  0  0  1  0  0
  -29.3655  -18.0781   20.2910 C   0  0  1  0  0  0  0  0  0  0  0  0
  -30.7119  -20.7151   17.9239 C   0  0  2  0  0  0  0  0  0  0  0  0
  -30.3314  -17.2051   21.1409 C   0  0  0  0  0  0  0  0  0  0  0  0
  -25.8510  -27.5786   19.6807 N   0  0  0  0  0  0  0  0  0  0  0  0
  -23.9784  -29.7501   24.1615 N   0  0  0  0  0  0  0  0  0  0  0  0
  -26.6851  -28.5125   20.1687 N   0  0  0  0  0  0  0  0  0  0  0  0
  -26.9563  -17.5981   19.9924 N   0  0  0  0  0  0  0  0  0  0  0  0
  -24.1927  -30.7310   22.0377 N   0  0  0  0  0  0  0  0  0  0  0  0
  -28.9778  -29.0226   20.4753 N   0  0  0  0  0  0  0  0  0  0  0  0
  -29.0700  -24.9871   18.4498 N   0  0  0  0  0  0  0  0  0  0  0  0
  -21.3255  -24.6854   24.2705 N   0  0  0  0  0  0  0  0  0  0  0  0
  -25.1774  -14.5197   20.2900 N   0  0  0  0  0  0  0  0  0  0  0  0
  -30.0176  -18.8151   19.2139 N   0  0  0  0  0  0  0  0  0  0  0  0
  -29.7802  -21.3851   16.9731 N   0  3  0  0  0  0  0  0  0  0  0  0
  -30.3696  -26.6559   19.3358 O   0  0  0  0  0  0  0  0  0  0  0  0
  -25.7338  -16.1582   21.8482 O   0  0  0  0  0  0  0  0  0  0  0  0
  -28.5745  -16.3666   18.8517 O   0  0  0  0  0  0  0  0  0  0  0  0
  -23.5029  -24.0036   24.7377 O   0  0  0  0  0  0  0  0  0  0  0  0
  -29.3577  -20.9251   19.9137 O   0  0  0  0  0  0  0  0  0  0  0  0
  -23.2651  -31.9137   23.7850 O   0  0  0  0  0  0  0  0  0  0  0  0
  -24.6459  -22.0035   16.8496 O   0  0  0  0  0  0  0  0  0  0  0  0
  -23.1700  -21.6779   22.6519 O   0  0  0  0  0  0  0  0  0  1  0  0
  -20.5623  -22.5827   13.1901 F   0  0  0  0  0  0  0  0  0  0  0  0
  -24.9488  -21.1460   14.2389 F   0  0  0  0  0  0  0  0  0  0  0  0
  1  2  1  0  0  0  0
  1  5  2  0  0  0  0
  2  6  2  0  0  0  0
  3  8  2  0  0  0  0
  3 15  1  0  0  0  0
  4  9  1  0  0  0  0
  4 15  2  0  0  0  0
  5 17  1  0  0  0  0
  6 19  1  0  0  0  0
  7 10  2  0  0  0  0
  7 18  1  0  0  0  0
  8 21  1  0  0  0  0
  9 21  2  0  0  0  0
 10 22  1  0  0  0  0
 11 12  2  0  0  0  0
 11 23  1  0  0  0  0
 12 24  1  0  0  0  0
 13 20  1  0  0  0  0
 13 22  2  0  0  0  0
 14 24  2  0  0  0  0
 14 25  1  0  0  0  0
 15 26  1  0  0  0  0
 16 26  1  0  0  0  0
 16 27  2  0  0  0  0
 16 35  1  0  0  0  0
 17 19  2  0  0  0  0
 17 41  1  0  0  0  0
 18 20  2  0  0  0  0
 18 42  1  0  0  0  0
 19 50  1  0  0  0  0
 20 43  1  0  0  0  0
 21 81  1  0  0  0  0
 22 82  1  0  0  0  0
 23 25  2  0  0  0  0
 23 81  1  0  0  0  0
 24 83  1  0  0  0  0
 25 84  1  0  0  0  0
 26 64  2  0  0  0  0
 27 66  1  0  0  0  0
 27 69  1  0  0  0  0
 28 29  2  0  0  0  0
 28 33  1  0  0  0  0
 29 34  1  0  0  0  0
 30 32  2  0  0  0  0
 30 34  1  0  0  0  0
 31 32  1  0  0  0  0
 31 33  2  0  0  0  0
 32 53  1  0  0  0  0
 33 71  1  0  0  0  0
 34 65  2  0  0  0  0
 35 70  1  0  0  0  0
 35 75  2  0  0  0  0
 36 51  1  0  0  0  0
 36 72  1  0  0  0  0
 36 76  2  0  0  0  0
 37 61  1  0  0  0  0
 37 67  1  0  0  0  0
 37 77  2  0  0  0  0
 38 59  1  0  0  0  0
 38 71  1  0  0  0  0
 38 78  2  0  0  0  0
 39 62  1  0  0  0  0
 39 73  1  0  0  0  0
 39 79  2  0  0  0  0
 40 65  1  0  0  0  0
 40 68  1  0  0  0  0
 40 80  2  0  0  0  0
 41 44  1  0  0  0  0
 42 51  1  0  0  0  0
 43 67  1  0  0  0  0
 44 46  1  0  0  0  0
 45 47  1  0  0  0  0
 45 48  1  0  0  0  0
 46 50  1  0  0  0  0
 47 52  1  0  0  0  0
 48 68  1  0  0  0  0
 49 52  1  0  0  0  0
 49 68  1  0  0  0  0
 50 72  1  0  0  0  0
 51 67  1  0  0  0  0
 52 66  1  0  0  0  0
 54 62  1  0  0  0  0
 55 63  1  0  0  0  0
 56 63  1  0  0  0  0
 57 63  1  0  0  0  0
 58 74  1  0  0  0  0
 59 60  1  0  0  0  0
 60 82  1  0  0  0  0
 61 63  1  0  0  0  0
 61 73  1  0  0  0  0
 62 74  1  0  0  0  0
 64 66  1  0  0  0  0
M  CHG  1  74   1
M  ISO  4  40 100  60 101  65 100  82 101
M  END
> <Batch ID>
0061

> <Smiles>
CNC(C)C(=O)NC(C(=O)N1Cc2cc([101O:1][101CH2:1]CC(=O)N=c3ccc([100NH:0][100C:0](=O)N4CCCC(n5nc(-c6ccc(Oc7ccc(F)cc7F)cc6)c(C(N)=O)c5N)C4)cc(C)c3)ccc2CC1C(=O)NC1CCCc2ccccc21)C(C)(C)C

> <Shape>
0.224

> <Color>
0.077

> <Negative vol penalty>
0.000

$$$$

  -OEChem-04042323073D

 88 97  0     1  0  0  0  0  0999 V2000
  -16.9527  -28.9157   24.4027 C   0  0  0  0  0  0  0  0  0  0  0  0
  -17.5754  -27.9048   23.6777 C   0  0  0  0  0  0  0  0  0  0  0  0
  -24.7147  -14.8175   19.5320 C   0  0  0  0  0  0  0  0  0  0  0  0
  -25.6164  -14.5853   20.5705 C   0  0  0  0  0  0  0  0  0  0  0  0
  -27.4189  -12.1642   20.8578 C   0  0  0  0  0  0  0  0  0  0  0  0
  -27.3905  -12.9119   23.1551 C   0  0  0  0  0  0  0  0  0  0  0  0
  -17.3673  -30.2381   24.2504 C   0  0  0  0  0  0  0  0  0  0  0  0
  -18.6126  -28.2159   22.7990 C   0  0  0  0  0  0  0  0  0  0  0  0
  -22.5304  -25.0342   23.2139 C   0  0  0  0  0  0  0  0  0  0  0  0
  -23.8558  -15.9153   19.5864 C   0  0  0  0  0  0  0  0  0  0  0  0
  -25.6591  -15.4508   21.6636 C   0  0  0  0  0  0  0  0  0  0  0  0
  -26.5759  -11.1045   21.1923 C   0  0  0  0  0  0  0  0  0  0  0  0
  -26.5474  -11.8521   23.4895 C   0  0  0  0  0  0  0  0  0  0  0  0
  -22.4026  -23.7845   22.6091 C   0  0  0  0  0  0  0  0  0  0  0  0
  -24.1410   -8.4110   21.3697 C   0  0  0  0  0  0  0  0  0  0  0  0
  -23.0646   -8.1465   20.5230 C   0  0  0  0  0  0  0  0  0  0  0  0
  -23.7096  -24.5634   20.7372 C   0  0  0  0  0  0  0  0  0  0  0  0
  -22.2014  -10.3666   20.9268 C   0  0  0  0  0  0  0  0  0  0  0  0
  -27.8263  -13.0679   21.8392 C   0  0  0  0  0  0  0  0  0  0  0  0
  -29.9924  -14.0788   20.9482 C   0  0  0  0  0  0  0  0  0  0  0  0
  -18.4165  -30.5644   23.3766 C   0  0  0  0  0  0  0  0  0  0  0  0
  -23.2408  -26.0630   22.5788 C   0  0  0  0  0  0  0  0  0  0  0  0
  -19.0407  -29.5441   22.6339 C   0  0  0  0  0  0  0  0  0  0  0  0
  -23.8472  -25.8245   21.3372 C   0  0  0  0  0  0  0  0  0  0  0  0
  -23.8986  -16.7808   20.6794 C   0  0  0  0  0  0  0  0  0  0  0  0
  -24.8002  -16.5485   21.7180 C   0  0  0  0  0  0  0  0  0  0  0  0
  -26.1401  -10.9485   22.5081 C   0  0  0  0  0  0  0  0  0  0  0  0
  -22.9897  -23.5499   21.3693 C   0  0  0  0  0  0  0  0  0  0  0  0
  -24.2476   -9.6533   21.9951 C   0  0  0  0  0  0  0  0  0  0  0  0
  -22.0948   -9.1243   20.3015 C   0  0  0  0  0  0  0  0  0  0  0  0
  -23.2778  -10.6311   21.7735 C   0  0  0  0  0  0  0  0  0  0  0  0
  -28.6976  -14.1624   21.4945 C   0  0  0  0  0  0  0  0  0  0  0  0
  -30.3904  -15.3857   20.8066 C   0  0  0  0  0  0  0  0  0  0  0  0
  -23.3705  -19.2584   20.7711 C   0  0  0  0  0  0  0  0  0  0  0  0
  -30.7661  -12.9230   20.5999 C   0  0  0  0  0  0  0  0  0  0  0  0
  -22.5028  -28.9548   21.4851 C   0  0  0  0  0  0  0  0  0  0  0  0
  -25.7001  -29.1506   20.9737 C   0  0  0  0  0  0  0  0  0  0  0  0
  -23.7613  -17.6433   23.6981 C   0  0  0  0  0  0  0  0  0  0  0  0
  -28.6556  -27.5257   20.4527 C   0  0  0  0  0  0  0  0  0  0  0  0
  -26.1443  -17.8484   23.2841 C   0  0  0  0  0  0  0  0  0  0  0  0
  -18.7982  -32.0140   23.2100 C   0  0  0  0  0  0  0  0  0  0  0  0
  -23.3921  -27.3971   23.2567 C   0  0  0  0  0  0  0  0  0  0  0  0
  -24.6375  -26.8893   20.6231 C   0  0  0  0  0  0  0  0  0  0  0  0
  -20.1547  -32.2133   22.5389 C   0  0  0  0  0  0  0  0  0  0  0  0
  -27.3139  -18.2414   19.8032 C   0  0  0  0  0  0  0  0  0  0  0  0
  -20.2776  -31.3210   21.3078 C   0  0  0  0  0  0  0  0  0  0  0  0
  -28.8268  -18.2723   19.9840 C   0  0  0  0  0  0  0  0  0  0  0  0
  -26.5884  -18.8699   20.9884 C   0  0  0  0  0  0  0  0  0  0  0  0
  -21.5697  -17.7386   20.6232 C   0  0  0  0  0  0  0  0  0  0  0  0
  -28.4645  -18.2307   22.4989 C   0  0  0  0  0  0  0  0  0  0  0  0
  -20.1859  -29.8387   21.6895 C   0  0  1  0  0  0  0  0  0  0  0  0
  -22.0859  -20.0656   20.6529 C   0  0  1  0  0  0  0  0  0  0  0  0
  -23.7028  -28.5300   22.2834 C   0  0  1  0  0  0  0  0  0  0  0  0
  -21.0162  -19.0717   21.1078 C   0  0  1  0  0  0  0  0  0  0  0  0
  -29.2760  -17.6624   21.3207 C   0  0  1  0  0  0  0  0  0  0  0  0
  -22.6023  -16.6798   23.5611 C   0  0  0  0  0  0  0  0  0  0  0  0
  -19.6330  -19.3675   20.5491 C   0  0  0  0  0  0  0  0  0  0  0  0
  -31.0918  -27.9549   20.0307 C   0  0  0  0  0  0  0  0  0  0  0  0
  -25.0658  -29.8957   18.0837 C   0  0  0  0  0  0  0  0  0  0  0  0
  -27.4460  -29.3815   17.5020 C   0  0  0  0  0  0  0  0  0  0  0  0
  -26.9256  -31.2109   19.1160 C   0  0  0  0  0  0  0  0  0  0  0  0
  -29.4519  -26.1189   22.9317 C   0  0  0  0  0  0  0  0  0  0  0  0
  -22.1207  -21.3389   21.4810 C   0  0  0  0  0  0  0  0  0  1  0  0
  -26.6230  -28.8046   19.8303 C   0  0  1  0  0  0  0  0  0  0  0  0
  -30.0252  -27.6988   21.0841 C   0  0  2  0  0  0  0  0  0  0  0  0
  -26.4986  -29.8035   18.6453 C   0  0  0  0  0  0  0  0  0  0  0  0
  -28.2996  -15.4228   21.6869 N   0  0  0  0  0  0  0  0  0  0  0  0
  -29.3505  -16.1432   21.2593 N   0  0  0  0  0  0  0  0  0  0  0  0
  -23.0096  -17.8971   20.7120 N   0  0  0  0  0  0  0  0  0  0  0  0
  -24.7516  -28.1791   21.3237 N   0  0  0  0  0  0  0  0  0  0  0  0
  -27.0182  -18.2929   22.2687 N   0  0  0  0  0  0  0  0  0  0  0  0
  -31.5250  -15.9493   20.3403 N   0  0  0  0  0  0  0  0  0  0  0  0
  -31.6042  -12.3619   21.5731 N   0  0  0  0  0  0  0  0  0  0  0  0
  -21.4383  -29.3839   22.2546 N   0  0  0  0  0  0  0  0  0  0  0  0
  -27.9633  -28.7170   20.3997 N   0  0  0  0  0  0  0  0  0  0  0  0
  -24.8638  -17.4291   22.8594 N   0  0  0  0  0  0  0  0  0  0  0  0
  -30.4023  -26.4754   21.8470 N   0  3  0  0  0  0  0  0  0  0  0  0
  -24.4787  -19.7708   20.8371 O   0  0  0  0  0  0  0  0  0  0  0  0
  -30.7281  -12.4130   19.4545 O   0  0  0  0  0  0  0  0  0  0  0  0
  -22.5405  -28.8988   20.2615 O   0  0  0  0  0  0  0  0  0  0  0  0
  -25.8210  -30.2396   21.5403 O   0  0  0  0  0  0  0  0  0  0  0  0
  -23.6807  -18.5853   24.4915 O   0  0  0  0  0  0  0  0  0  0  0  0
  -28.2427  -26.4428   20.0437 O   0  0  0  0  0  0  0  0  0  0  0  0
  -26.4472  -17.8805   24.4832 O   0  0  0  0  0  0  0  0  0  0  0  0
  -25.3173   -9.9146   22.8348 O   0  0  0  0  0  0  0  0  0  0  0  0
  -22.8660  -22.3312   20.7764 O   0  0  0  0  0  0  0  0  0  1  0  0
  -21.0620   -8.8707   19.4871 F   0  0  0  0  0  0  0  0  0  0  0  0
  -23.3755  -11.8269   22.3705 F   0  0  0  0  0  0  0  0  0  0  0  0
  1  2  1  0  0  0  0
  1  7  2  0  0  0  0
  2  8  2  0  0  0  0
  3  4  1  0  0  0  0
  3 10  2  0  0  0  0
  4 11  2  0  0  0  0
  5 12  2  0  0  0  0
  5 19  1  0  0  0  0
  6 13  1  0  0  0  0
  6 19  2  0  0  0  0
  7 21  1  0  0  0  0
  8 23  1  0  0  0  0
  9 14  2  0  0  0  0
  9 22  1  0  0  0  0
 10 25  1  0  0  0  0
 11 26  1  0  0  0  0
 12 27  1  0  0  0  0
 13 27  2  0  0  0  0
 14 28  1  0  0  0  0
 15 16  2  0  0  0  0
 15 29  1  0  0  0  0
 16 30  1  0  0  0  0
 17 24  1  0  0  0  0
 17 28  2  0  0  0  0
 18 30  2  0  0  0  0
 18 31  1  0  0  0  0
 19 32  1  0  0  0  0
 20 32  1  0  0  0  0
 20 33  2  0  0  0  0
 20 35  1  0  0  0  0
 21 23  2  0  0  0  0
 21 41  1  0  0  0  0
 22 24  2  0  0  0  0
 22 42  1  0  0  0  0
 23 51  1  0  0  0  0
 24 43  1  0  0  0  0
 25 26  2  0  0  0  0
 25 69  1  0  0  0  0
 26 76  1  0  0  0  0
 27 85  1  0  0  0  0
 28 86  1  0  0  0  0
 29 31  2  0  0  0  0
 29 85  1  0  0  0  0
 30 87  1  0  0  0  0
 31 88  1  0  0  0  0
 32 67  2  0  0  0  0
 33 68  1  0  0  0  0
 33 72  1  0  0  0  0
 34 52  1  0  0  0  0
 34 69  1  0  0  0  0
 34 78  2  0  0  0  0
 35 73  1  0  0  0  0
 35 79  2  0  0  0  0
 36 53  1  0  0  0  0
 36 74  1  0  0  0  0
 36 80  2  0  0  0  0
 37 64  1  0  0  0  0
 37 70  1  0  0  0  0
 37 81  2  0  0  0  0
 38 56  1  0  0  0  0
 38 76  1  0  0  0  0
 38 82  2  0  0  0  0
 39 65  1  0  0  0  0
 39 75  1  0  0  0  0
 39 83  2  0  0  0  0
 40 71  1  0  0  0  0
 40 76  1  0  0  0  0
 40 84  2  0  0  0  0
 41 44  1  0  0  0  0
 42 53  1  0  0  0  0
 43 70  1  0  0  0  0
 44 46  1  0  0  0  0
 45 47  1  0  0  0  0
 45 48  1  0  0  0  0
 46 51  1  0  0  0  0
 47 55  1  0  0  0  0
 48 71  1  0  0  0  0
 49 54  1  0  0  0  0
 49 69  1  0  0  0  0
 50 55  1  0  0  0  0
 50 71  1  0  0  0  0
 51 74  1  0  0  0  0
 52 54  1  0  0  0  0
 52 63  1  0  0  0  0
 53 70  1  0  0  0  0
 54 57  1  0  0  0  0
 55 68  1  0  0  0  0
 58 65  1  0  0  0  0
 59 66  1  0  0  0  0
 60 66  1  0  0  0  0
 61 66  1  0  0  0  0
 62 77  1  0  0  0  0
 63 86  1  0  0  0  0
 64 66  1  0  0  0  0
 64 75  1  0  0  0  0
 65 77  1  0  0  0  0
 67 68  1  0  0  0  0
M  CHG  1  77   1
M  ISO  4  40 100  63 101  76 100  86 101
M  END
> <Batch ID>
0061

> <Smiles>
CNC(C)C(=O)NC(C(=O)N1Cc2cc([101O:1][101CH2:1]C3C(=O)N(c4ccccc4[100N:0](C(C)=O)[100C:0](=O)N4CCCC(n5nc(-c6ccc(Oc7ccc(F)cc7F)cc6)c(C(N)=O)c5N)C4)CC3C)ccc2CC1C(=O)NC1CCCc2ccccc21)C(C)(C)C

> <Shape>
0.244

> <Color>
0.077

> <Negative vol penalty>
0.000

$$$$

  -OEChem-04042323073D

 89 98  0     1  0  0  0  0  0999 V2000
  -28.7728  -24.5460   17.0443 C   0  0  0  0  0  0  0  0  0  0  0  0
  -27.5955  -24.6464   17.7786 C   0  0  0  0  0  0  0  0  0  0  0  0
  -21.5107  -14.1513   21.1189 C   0  0  0  0  0  0  0  0  0  0  0  0
  -21.8255  -14.0310   18.7265 C   0  0  0  0  0  0  0  0  0  0  0  0
  -29.9183  -25.2167   17.4706 C   0  0  0  0  0  0  0  0  0  0  0  0
  -27.5634  -25.4168   18.9405 C   0  0  0  0  0  0  0  0  0  0  0  0
  -23.4378  -28.3402   19.2197 C   0  0  0  0  0  0  0  0  0  0  0  0
  -23.6921  -22.0037   21.8016 C   0  0  0  0  0  0  0  0  0  0  0  0
  -24.7605  -21.1244   21.6260 C   0  0  0  0  0  0  0  0  0  0  0  0
  -20.1755  -14.5052   20.9255 C   0  0  0  0  0  0  0  0  0  0  0  0
  -20.4902  -14.3848   18.5330 C   0  0  0  0  0  0  0  0  0  0  0  0
  -22.2466  -27.7254   19.6030 C   0  0  0  0  0  0  0  0  0  0  0  0
  -16.7766  -15.7915   21.0550 C   0  0  0  0  0  0  0  0  0  0  0  0
  -16.2657  -16.8421   21.8170 C   0  0  0  0  0  0  0  0  0  0  0  0
  -22.5414  -28.5657   21.8450 C   0  0  0  0  0  0  0  0  0  0  0  0
  -22.5402  -20.9754   19.9435 C   0  0  0  0  0  0  0  0  0  0  0  0
  -17.9144  -18.3318   20.8686 C   0  0  0  0  0  0  0  0  0  0  0  0
  -22.3358  -13.9142   20.0194 C   0  0  0  0  0  0  0  0  0  0  0  0
  -24.2400  -12.2497   20.3527 C   0  0  0  0  0  0  0  0  0  0  0  0
  -29.8976  -26.0035   18.6330 C   0  0  0  0  0  0  0  0  0  0  0  0
  -24.1966  -29.0644   20.1504 C   0  0  0  0  0  0  0  0  0  0  0  0
  -28.7101  -26.0976   19.3835 C   0  0  0  0  0  0  0  0  0  0  0  0
  -23.7406  -29.1908   21.4703 C   0  0  0  0  0  0  0  0  0  0  0  0
  -23.6086  -20.0961   19.7678 C   0  0  0  0  0  0  0  0  0  0  0  0
  -22.5819  -21.9292   20.9604 C   0  0  0  0  0  0  0  0  0  0  0  0
  -24.7188  -20.1706   20.6090 C   0  0  0  0  0  0  0  0  0  0  0  0
  -19.6652  -14.6219   19.6326 C   0  0  0  0  0  0  0  0  0  0  0  0
  -21.7997  -27.8357   20.9165 C   0  0  0  0  0  0  0  0  0  0  0  0
  -17.8566  -16.0110   20.1999 C   0  0  0  0  0  0  0  0  0  0  0  0
  -16.8345  -18.1123   21.7238 C   0  0  0  0  0  0  0  0  0  0  0  0
  -18.4254  -17.2811   20.1067 C   0  0  0  0  0  0  0  0  0  0  0  0
  -23.7153  -13.5492   20.2185 C   0  0  0  0  0  0  0  0  0  0  0  0
  -25.5899  -12.4400   20.5199 C   0  0  0  0  0  0  0  0  0  0  0  0
  -19.4893  -23.8868   20.8702 C   0  0  0  0  0  0  0  0  0  0  0  0
  -20.1288  -24.4506   21.8974 C   0  0  0  0  0  0  0  0  0  0  0  0
  -20.3584  -22.8125   20.3499 C   0  0  0  0  0  0  0  0  0  0  0  0
  -23.5672  -10.9838   20.3283 C   0  0  0  0  0  0  0  0  0  0  0  0
  -27.1251  -28.7904   21.3556 C   0  0  0  0  0  0  0  0  0  0  0  0
  -26.3967  -31.6289   22.7466 C   0  0  0  0  0  0  0  0  0  0  0  0
  -27.1299  -19.7281   20.1743 C   0  0  0  0  0  0  0  0  0  0  0  0
  -23.9892  -33.7812   23.8502 C   0  0  0  0  0  0  0  0  0  0  0  0
  -25.6476  -17.9283   20.8492 C   0  0  0  0  0  0  0  0  0  0  0  0
  -31.1736  -26.6718   19.0800 C   0  0  0  0  0  0  0  0  0  0  0  0
  -25.4657  -29.7439   19.7145 C   0  0  0  0  0  0  0  0  0  0  0  0
  -24.5080  -29.9740   22.5028 C   0  0  0  0  0  0  0  0  0  0  0  0
  -21.4560  -23.8269   22.1605 C   0  0  0  0  0  0  0  0  0  0  0  0
  -30.9549  -27.7698   20.1178 C   0  0  0  0  0  0  0  0  0  0  0  0
  -27.3485  -15.7580   18.3925 C   0  0  0  0  0  0  0  0  0  0  0  0
  -30.0073  -27.2889   21.2121 C   0  0  0  0  0  0  0  0  0  0  0  0
  -27.8558  -14.6245   19.2760 C   0  0  0  0  0  0  0  0  0  0  0  0
  -27.3390  -17.0921   19.1315 C   0  0  0  0  0  0  0  0  0  0  0  0
  -27.0131  -15.9088   21.3003 C   0  0  0  0  0  0  0  0  0  0  0  0
  -28.6289  -26.9435   20.6357 C   0  0  1  0  0  0  0  0  0  0  0  0
  -26.4201  -30.0256   20.8709 C   0  0  1  0  0  0  0  0  0  0  0  0
  -27.1047  -14.5344   20.6131 C   0  0  1  0  0  0  0  0  0  0  0  0
  -23.5364  -19.0830   18.6718 C   0  0  0  0  0  0  0  0  0  0  0  0
  -27.2693  -20.7849   19.1001 C   0  0  0  0  0  0  0  0  0  0  0  0
  -23.7013  -36.0053   24.9763 C   0  0  0  0  0  0  0  0  0  0  0  0
  -27.1533  -30.3700   25.4211 C   0  0  0  0  0  0  0  0  0  0  0  0
  -25.9687  -32.2560   26.5647 C   0  0  0  0  0  0  0  0  0  0  0  0
  -27.9441  -32.7227   25.1146 C   0  0  0  0  0  0  0  0  0  0  0  0
  -22.5335  -34.8988   21.5283 C   0  0  0  0  0  0  0  0  0  0  0  0
  -19.6349  -25.5831   22.7358 C   0  0  0  0  0  0  0  0  0  0  0  0
  -20.5397  -26.8049   22.6502 C   0  0  0  0  0  0  0  0  0  1  0  0
  -25.7539  -32.0487   24.0464 C   0  0  1  0  0  0  0  0  0  0  0  0
  -23.8025  -35.2740   23.6467 C   0  0  2  0  0  0  0  0  0  0  0  0
  -26.6913  -31.8329   25.2680 C   0  0  0  0  0  0  0  0  0  0  0  0
  -24.6553  -14.4951   20.2941 N   0  0  0  0  0  0  0  0  0  0  0  0
  -25.7841  -13.7894   20.4776 N   0  0  0  0  0  0  0  0  0  0  0  0
  -21.5165  -22.8035   21.1373 N   0  0  0  0  0  0  0  0  0  0  0  0
  -25.7460  -30.6150   22.0295 N   0  0  0  0  0  0  0  0  0  0  0  0
  -26.6258  -17.0092   20.4126 N   0  0  0  0  0  0  0  0  0  0  0  0
  -26.6178  -11.5832   20.6975 N   0  0  0  0  0  0  0  0  0  0  0  0
  -22.1775  -10.9691   20.1470 N   0  0  0  0  0  0  0  0  0  0  0  0
  -27.8697  -28.1496   20.3839 N   0  0  0  0  0  0  0  0  0  0  0  0
  -25.3225  -33.4300   23.8610 N   0  0  0  0  0  0  0  0  0  0  0  0
  -25.8334  -19.2691   20.4450 N   0  0  0  0  0  0  0  0  0  0  0  0
  -22.5596  -35.5393   22.8686 N   0  3  0  0  0  0  0  0  0  0  0  0
  -20.0652  -22.0982   19.4049 O   0  0  0  0  0  0  0  0  0  0  0  0
  -24.1781   -9.8987   20.4798 O   0  0  0  0  0  0  0  0  0  0  0  0
  -27.0037  -28.4452   22.5252 O   0  0  0  0  0  0  0  0  0  0  0  0
  -27.4340  -32.1852   22.3775 O   0  0  0  0  0  0  0  0  0  0  0  0
  -28.1397  -19.2869   20.7303 O   0  0  0  0  0  0  0  0  0  0  0  0
  -23.0465  -33.0050   23.9896 O   0  0  0  0  0  0  0  0  0  0  0  0
  -24.7153  -17.6031   21.5947 O   0  0  0  0  0  0  0  0  0  0  0  0
  -18.3622  -14.9670   19.4434 O   0  0  0  0  0  0  0  0  0  0  0  0
  -20.6377  -27.2361   21.2935 O   0  0  0  0  0  0  0  0  0  1  0  0
  -16.3428  -19.1215   22.4545 F   0  0  0  0  0  0  0  0  0  0  0  0
  -19.4623  -17.4984   19.2860 F   0  0  0  0  0  0  0  0  0  0  0  0
  1  2  1  0  0  0  0
  1  5  2  0  0  0  0
  2  6  2  0  0  0  0
  3 10  2  0  0  0  0
  3 18  1  0  0  0  0
  4 11  1  0  0  0  0
  4 18  2  0  0  0  0
  5 20  1  0  0  0  0
  6 22  1  0  0  0  0
  7 12  2  0  0  0  0
  7 21  1  0  0  0  0
  8  9  2  0  0  0  0
  8 25  1  0  0  0  0
  9 26  1  0  0  0  0
 10 27  1  0  0  0  0
 11 27  2  0  0  0  0
 12 28  1  0  0  0  0
 13 14  2  0  0  0  0
 13 29  1  0  0  0  0
 14 30  1  0  0  0  0
 15 23  1  0  0  0  0
 15 28  2  0  0  0  0
 16 24  1  0  0  0  0
 16 25  2  0  0  0  0
 17 30  2  0  0  0  0
 17 31  1  0  0  0  0
 18 32  1  0  0  0  0
 19 32  1  0  0  0  0
 19 33  2  0  0  0  0
 19 37  1  0  0  0  0
 20 22  2  0  0  0  0
 20 43  1  0  0  0  0
 21 23  2  0  0  0  0
 21 44  1  0  0  0  0
 22 53  1  0  0  0  0
 23 45  1  0  0  0  0
 24 26  2  0  0  0  0
 24 56  1  0  0  0  0
 25 70  1  0  0  0  0
 26 77  1  0  0  0  0
 27 86  1  0  0  0  0
 28 87  1  0  0  0  0
 29 31  2  0  0  0  0
 29 86  1  0  0  0  0
 30 88  1  0  0  0  0
 31 89  1  0  0  0  0
 32 68  2  0  0  0  0
 33 69  1  0  0  0  0
 33 73  1  0  0  0  0
 34 35  2  0  0  0  0
 34 36  1  0  0  0  0
 35 46  1  0  0  0  0
 35 63  1  0  0  0  0
 36 70  1  0  0  0  0
 36 79  2  0  0  0  0
 37 74  1  0  0  0  0
 37 80  2  0  0  0  0
 38 54  1  0  0  0  0
 38 75  1  0  0  0  0
 38 81  2  0  0  0  0
 39 65  1  0  0  0  0
 39 71  1  0  0  0  0
 39 82  2  0  0  0  0
 40 57  1  0  0  0  0
 40 77  1  0  0  0  0
 40 83  2  0  0  0  0
 41 66  1  0  0  0  0
 41 76  1  0  0  0  0
 41 84  2  0  0  0  0
 42 72  1  0  0  0  0
 42 77  1  0  0  0  0
 42 85  2  0  0  0  0
 43 47  1  0  0  0  0
 44 54  1  0  0  0  0
 45 71  1  0  0  0  0
 46 70  1  0  0  0  0
 47 49  1  0  0  0  0
 48 50  1  0  0  0  0
 48 51  1  0  0  0  0
 49 53  1  0  0  0  0
 50 55  1  0  0  0  0
 51 72  1  0  0  0  0
 52 55  1  0  0  0  0
 52 72  1  0  0  0  0
 53 75  1  0  0  0  0
 54 71  1  0  0  0  0
 55 69  1  0  0  0  0
 58 66  1  0  0  0  0
 59 67  1  0  0  0  0
 60 67  1  0  0  0  0
 61 67  1  0  0  0  0
 62 78  1  0  0  0  0
 63 64  1  0  0  0  0
 64 87  1  0  0  0  0
 65 67  1  0  0  0  0
 65 76  1  0  0  0  0
 66 78  1  0  0  0  0
 68 69  1  0  0  0  0
M  CHG  1  78   1
M  ISO  4  42 100  64 101  77 100  87 101
M  END
> <Batch ID>
0061

> <Smiles>
CNC(C)C(=O)NC(C(=O)N1Cc2cc([101O:1][101CH2:1]C=C3CC(=O)N(c4ccc([100N:0](C(C)=O)[100C:0](=O)N5CCCC(n6nc(-c7ccc(Oc8ccc(F)cc8F)cc7)c(C(N)=O)c6N)C5)c(C)c4)C3)ccc2CC1C(=O)NC1CCCc2ccccc21)C(C)(C)C

> <Shape>
0.268

> <Color>
0.078

> <Negative vol penalty>
0.000

$$$$

  -OEChem-04042323073D

 87 96  0     1  0  0  0  0  0999 V2000
  -27.3377  -32.2127   15.8793 C   0  0  0  0  0  0  0  0  0  0  0  0
  -28.2742  -31.1865   15.9533 C   0  0  0  0  0  0  0  0  0  0  0  0
  -22.9727  -10.0843   19.8985 C   0  0  0  0  0  0  0  0  0  0  0  0
  -23.8239   -9.8650   22.1490 C   0  0  0  0  0  0  0  0  0  0  0  0
  -26.3010  -32.2770   16.8094 C   0  0  0  0  0  0  0  0  0  0  0  0
  -28.1751  -30.2247   16.9580 C   0  0  0  0  0  0  0  0  0  0  0  0
  -29.6288  -24.2909   16.5306 C   0  0  0  0  0  0  0  0  0  0  0  0
  -30.1836  -18.9031   22.7753 C   0  0  0  0  0  0  0  0  0  0  0  0
  -29.9405  -17.5340   22.6653 C   0  0  0  0  0  0  0  0  0  0  0  0
  -22.1772   -8.9545   20.0893 C   0  0  0  0  0  0  0  0  0  0  0  0
  -23.0283   -8.7352   22.3398 C   0  0  0  0  0  0  0  0  0  0  0  0
  -30.7627  -23.5734   16.9090 C   0  0  0  0  0  0  0  0  0  0  0  0
  -19.7881   -8.0586   23.0208 C   0  0  0  0  0  0  0  0  0  0  0  0
  -19.0780   -7.9625   24.2175 C   0  0  0  0  0  0  0  0  0  0  0  0
  -29.6837  -22.9728   18.9813 C   0  0  0  0  0  0  0  0  0  0  0  0
  -31.4857  -17.4084   20.8123 C   0  0  0  0  0  0  0  0  0  0  0  0
  -20.2396   -5.9099   24.7419 C   0  0  0  0  0  0  0  0  0  0  0  0
  -23.7961  -10.5395   20.9284 C   0  0  0  0  0  0  0  0  0  0  0  0
  -24.2713  -13.0450   20.9937 C   0  0  0  0  0  0  0  0  0  0  0  0
  -26.1836  -31.3101   17.8202 C   0  0  0  0  0  0  0  0  0  0  0  0
  -28.5161  -24.3640   17.3809 C   0  0  0  0  0  0  0  0  0  0  0  0
  -27.1366  -30.2770   17.9033 C   0  0  0  0  0  0  0  0  0  0  0  0
  -28.5360  -23.6898   18.6102 C   0  0  0  0  0  0  0  0  0  0  0  0
  -31.0778  -19.5249   21.9037 C   0  0  0  0  0  0  0  0  0  0  0  0
  -31.7288  -18.7775   20.9223 C   0  0  0  0  0  0  0  0  0  0  0  0
  -30.5915  -16.7867   21.6839 C   0  0  0  0  0  0  0  0  0  0  0  0
  -22.2050   -8.2800   21.3099 C   0  0  0  0  0  0  0  0  0  0  0  0
  -30.7914  -22.9166   18.1357 C   0  0  0  0  0  0  0  0  0  0  0  0
  -20.7239   -7.0804   22.6846 C   0  0  0  0  0  0  0  0  0  0  0  0
  -19.3038   -6.8882   25.0781 C   0  0  0  0  0  0  0  0  0  0  0  0
  -20.9497   -6.0061   23.5451 C   0  0  0  0  0  0  0  0  0  0  0  0
  -24.6185  -11.7062   20.7317 C   0  0  0  0  0  0  0  0  0  0  0  0
  -25.3874  -13.7643   20.6426 C   0  0  0  0  0  0  0  0  0  0  0  0
  -34.2837  -20.6569   19.1634 C   0  0  0  0  0  0  0  0  0  0  0  0
  -33.8174  -20.0797   20.2892 C   0  0  0  0  0  0  0  0  0  0  0  0
  -23.0491  -13.5898   21.5086 C   0  0  0  0  0  0  0  0  0  0  0  0
  -26.9850  -26.7152   18.8746 C   0  0  0  0  0  0  0  0  0  0  0  0
  -24.9175  -24.3432   19.6628 C   0  0  0  0  0  0  0  0  0  0  0  0
  -24.3820  -21.0069   20.1411 C   0  0  0  0  0  0  0  0  0  0  0  0
  -30.9055  -14.5086   20.6552 C   0  0  0  0  0  0  0  0  0  0  0  0
  -25.0732  -31.4481   18.8314 C   0  0  0  0  0  0  0  0  0  0  0  0
  -27.2905  -25.1200   16.9464 C   0  0  0  0  0  0  0  0  0  0  0  0
  -27.3598  -23.7203   19.5505 C   0  0  0  0  0  0  0  0  0  0  0  0
  -24.8230  -30.1769   19.6387 C   0  0  0  0  0  0  0  0  0  0  0  0
  -29.5652  -12.3567   18.1552 C   0  0  0  0  0  0  0  0  0  0  0  0
  -26.1412  -29.5924   20.1362 C   0  0  0  0  0  0  0  0  0  0  0  0
  -28.1302  -12.1058   18.6242 C   0  0  0  0  0  0  0  0  0  0  0  0
  -30.5393  -12.4392   19.3291 C   0  0  0  0  0  0  0  0  0  0  0  0
  -32.3339  -19.3800   18.5955 C   0  0  0  0  0  0  0  0  0  0  0  0
  -28.7324  -13.1461   20.8473 C   0  0  0  0  0  0  0  0  0  0  0  0
  -27.0486  -29.2009   18.9637 C   0  0  1  0  0  0  0  0  0  0  0  0
  -33.3572  -20.3749   17.9979 C   0  0  1  0  0  0  0  0  0  0  0  0
  -26.4104  -25.5533   18.1147 C   0  0  1  0  0  0  0  0  0  0  0  0
  -27.7048  -13.1199   19.7041 C   0  0  2  0  0  0  0  0  0  0  0  0
  -31.3196  -20.9925   22.0442 C   0  0  0  0  0  0  0  0  0  0  0  0
  -34.5192  -20.0573   21.6076 C   0  0  0  0  0  0  0  0  0  0  0  0
  -36.6780  -20.5459   18.5616 C   0  0  0  0  0  0  0  0  0  0  0  0
  -22.6003  -19.3751   20.8197 C   0  0  0  0  0  0  0  0  0  0  0  0
  -25.2655  -25.1786   22.5767 C   0  0  0  0  0  0  0  0  0  0  0  0
  -24.2617  -22.9867   23.2523 C   0  0  0  0  0  0  0  0  0  0  0  0
  -22.9171  -24.6164   21.9260 C   0  0  0  0  0  0  0  0  0  0  0  0
  -24.5061  -19.6099   17.5350 C   0  0  0  0  0  0  0  0  0  0  0  0
  -35.5275  -21.4510   18.9538 C   0  0  0  0  0  0  0  0  0  0  0  0
  -32.6775  -21.6324   17.4653 C   0  0  0  0  0  0  0  0  0  1  0  0
  -24.8022  -23.3605   20.8030 C   0  0  1  0  0  0  0  0  0  0  0  0
  -23.2777  -20.0844   19.6574 C   0  0  2  0  0  0  0  0  0  0  0  0
  -24.3347  -24.0364   22.1229 C   0  0  0  0  0  0  0  0  0  0  0  0
  -25.8583  -11.5796   20.2511 N   0  0  0  0  0  0  0  0  0  0  0  0
  -26.2998  -12.8482   20.2082 N   0  0  0  0  0  0  0  0  0  0  0  0
  -32.6325  -19.3885   20.0349 N   0  0  0  0  0  0  0  0  0  0  0  0
  -26.1871  -24.4781   19.0834 N   0  0  0  0  0  0  0  0  0  0  0  0
  -30.0738  -13.4226   20.3095 N   0  0  0  0  0  0  0  0  0  0  0  0
  -25.6677  -15.0846   20.6660 N   0  0  0  0  0  0  0  0  0  0  0  0
  -22.0031  -12.7096   21.8176 N   0  0  0  0  0  0  0  0  0  0  0  0
  -30.3436  -15.3960   21.5724 N   0  0  0  0  0  0  0  0  0  0  0  0
  -26.6107  -27.9505   18.3813 N   0  0  0  0  0  0  0  0  0  0  0  0
  -23.9247  -22.2932   20.3348 N   0  0  0  0  0  0  0  0  0  0  0  0
  -23.8313  -19.0526   18.7355 N   0  3  0  0  0  0  0  0  0  0  0  0
  -22.8834  -14.8222   21.6738 O   0  0  0  0  0  0  0  0  0  0  0  0
  -27.7129  -26.5064   19.8381 O   0  0  0  0  0  0  0  0  0  0  0  0
  -23.9163  -24.9629   19.2950 O   0  0  0  0  0  0  0  0  0  0  0  0
  -25.5341  -20.6237   20.3319 O   0  0  0  0  0  0  0  0  0  0  0  0
  -32.0223  -14.6564   20.1524 O   0  0  0  0  0  0  0  0  0  0  0  0
  -21.4287   -7.1777   21.4965 O   0  0  0  0  0  0  0  0  0  0  0  0
  -31.8972  -22.2160   18.5078 O   0  0  0  0  0  0  0  0  0  1  0  0
  -18.6229   -6.7968   26.2280 F   0  0  0  0  0  0  0  0  0  0  0  0
  -21.8483   -5.0639   23.2281 F   0  0  0  0  0  0  0  0  0  0  0  0
  1  2  1  0  0  0  0
  1  5  2  0  0  0  0
  2  6  2  0  0  0  0
  3 10  2  0  0  0  0
  3 18  1  0  0  0  0
  4 11  1  0  0  0  0
  4 18  2  0  0  0  0
  5 20  1  0  0  0  0
  6 22  1  0  0  0  0
  7 12  2  0  0  0  0
  7 21  1  0  0  0  0
  8  9  2  0  0  0  0
  8 24  1  0  0  0  0
  9 26  1  0  0  0  0
 10 27  1  0  0  0  0
 11 27  2  0  0  0  0
 12 28  1  0  0  0  0
 13 14  2  0  0  0  0
 13 29  1  0  0  0  0
 14 30  1  0  0  0  0
 15 23  1  0  0  0  0
 15 28  2  0  0  0  0
 16 25  1  0  0  0  0
 16 26  2  0  0  0  0
 17 30  2  0  0  0  0
 17 31  1  0  0  0  0
 18 32  1  0  0  0  0
 19 32  1  0  0  0  0
 19 33  2  0  0  0  0
 19 36  1  0  0  0  0
 20 22  2  0  0  0  0
 20 41  1  0  0  0  0
 21 23  2  0  0  0  0
 21 42  1  0  0  0  0
 22 51  1  0  0  0  0
 23 43  1  0  0  0  0
 24 25  2  0  0  0  0
 24 55  1  0  0  0  0
 25 70  1  0  0  0  0
 26 75  1  0  0  0  0
 27 84  1  0  0  0  0
 28 85  1  0  0  0  0
 29 31  2  0  0  0  0
 29 84  1  0  0  0  0
 30 86  1  0  0  0  0
 31 87  1  0  0  0  0
 32 68  2  0  0  0  0
 33 69  1  0  0  0  0
 33 73  1  0  0  0  0
 34 35  2  0  0  0  0
 34 52  1  0  0  0  0
 34 63  1  0  0  0  0
 35 56  1  0  0  0  0
 35 70  1  0  0  0  0
 36 74  1  0  0  0  0
 36 79  2  0  0  0  0
 37 53  1  0  0  0  0
 37 76  1  0  0  0  0
 37 80  2  0  0  0  0
 38 65  1  0  0  0  0
 38 71  1  0  0  0  0
 38 81  2  0  0  0  0
 39 66  1  0  0  0  0
 39 77  1  0  0  0  0
 39 82  2  0  0  0  0
 40 72  1  0  0  0  0
 40 75  1  0  0  0  0
 40 83  2  0  0  0  0
 41 44  1  0  0  0  0
 42 53  1  0  0  0  0
 43 71  1  0  0  0  0
 44 46  1  0  0  0  0
 45 47  1  0  0  0  0
 45 48  1  0  0  0  0
 46 51  1  0  0  0  0
 47 54  1  0  0  0  0
 48 72  1  0  0  0  0
 49 52  1  0  0  0  0
 49 70  1  0  0  0  0
 50 54  1  0  0  0  0
 50 72  1  0  0  0  0
 51 76  1  0  0  0  0
 52 64  1  0  0  0  0
 53 71  1  0  0  0  0
 54 69  1  0  0  0  0
 57 63  1  0  0  0  0
 58 66  1  0  0  0  0
 59 67  1  0  0  0  0
 60 67  1  0  0  0  0
 61 67  1  0  0  0  0
 62 78  1  0  0  0  0
 64 85  1  0  0  0  0
 65 67  1  0  0  0  0
 65 77  1  0  0  0  0
 66 78  1  0  0  0  0
 68 69  1  0  0  0  0
M  CHG  1  78   1
M  ISO  4  40 100  64 101  75 100  85 101
M  END
> <Batch ID>
0061

> <Smiles>
CCC1=C(C)N(c2cc([100NH:0][100C:0](=O)N3CCCC(n4nc(-c5ccc(Oc6ccc(F)cc6F)cc5)c(C(N)=O)c4N)C3)ccc2C)CC1[101CH2:1][101O:1]c1ccc2c(c1)CN(C(=O)C(NC(=O)C(C)NC)C(C)(C)C)C(C(=O)NC1CCCc3ccccc31)C2

> <Shape>
0.236

> <Color>
0.195

> <Negative vol penalty>
0.000

$$$$

  -OEChem-04042323073D

 86 94  0     1  0  0  0  0  0999 V2000
  -23.3739  -32.7265   14.3537 C   0  0  0  0  0  0  0  0  0  0  0  0
  -24.3444  -31.9493   14.9778 C   0  0  0  0  0  0  0  0  0  0  0  0
  -19.0486  -25.6429   20.3301 C   0  0  0  0  0  0  0  0  0  0  0  0
  -21.4313  -25.8020   20.6967 C   0  0  0  0  0  0  0  0  0  0  0  0
  -22.7950  -33.7963   15.0350 C   0  0  0  0  0  0  0  0  0  0  0  0
  -24.7374  -32.2421   16.2832 C   0  0  0  0  0  0  0  0  0  0  0  0
  -25.0773  -28.1052   19.1841 C   0  0  0  0  0  0  0  0  0  0  0  0
  -18.8191  -26.3198   21.5278 C   0  0  0  0  0  0  0  0  0  0  0  0
  -21.2018  -26.4790   21.8945 C   0  0  0  0  0  0  0  0  0  0  0  0
  -26.2119  -27.3100   19.0287 C   0  0  0  0  0  0  0  0  0  0  0  0
  -17.6119  -28.3237   24.3103 C   0  0  0  0  0  0  0  0  0  0  0  0
  -16.6579  -29.3412   24.3076 C   0  0  0  0  0  0  0  0  0  0  0  0
  -26.4753  -19.7636   18.6320 C   0  0  0  0  0  0  0  0  0  0  0  0
  -27.8018  -17.9096   19.4320 C   0  0  0  0  0  0  0  0  0  0  0  0
  -27.1799  -28.3174   20.9952 C   0  0  0  0  0  0  0  0  0  0  0  0
  -25.5584  -17.5284   18.6201 C   0  0  0  0  0  0  0  0  0  0  0  0
  -17.9320  -30.5314   22.6351 C   0  0  0  0  0  0  0  0  0  0  0  0
  -20.3548  -25.3839   19.9145 C   0  0  0  0  0  0  0  0  0  0  0  0
  -27.6652  -19.2727   19.1693 C   0  0  0  0  0  0  0  0  0  0  0  0
  -20.7519  -25.2494   17.3982 C   0  0  0  0  0  0  0  0  0  0  0  0
  -23.1741  -34.0965   16.3529 C   0  0  0  0  0  0  0  0  0  0  0  0
  -24.9900  -29.0218   20.2417 C   0  0  0  0  0  0  0  0  0  0  0  0
  -24.1639  -33.3178   16.9824 C   0  0  0  0  0  0  0  0  0  0  0  0
  -26.0421  -29.1212   21.1633 C   0  0  0  0  0  0  0  0  0  0  0  0
  -25.4219  -18.8915   18.3574 C   0  0  0  0  0  0  0  0  0  0  0  0
  -19.8956  -26.7379   22.3100 C   0  0  0  0  0  0  0  0  0  0  0  0
  -27.2647  -27.4181   19.9326 C   0  0  0  0  0  0  0  0  0  0  0  0
  -18.7261  -28.4101   23.4755 C   0  0  0  0  0  0  0  0  0  0  0  0
  -16.8178  -30.4450   23.4700 C   0  0  0  0  0  0  0  0  0  0  0  0
  -26.7484  -17.0374   19.1574 C   0  0  0  0  0  0  0  0  0  0  0  0
  -18.8861  -29.5139   22.6378 C   0  0  0  0  0  0  0  0  0  0  0  0
  -20.5925  -24.6841   18.6776 C   0  0  0  0  0  0  0  0  0  0  0  0
  -20.9522  -24.1724   16.5696 C   0  0  0  0  0  0  0  0  0  0  0  0
  -28.7808  -20.1961   19.4615 C   0  0  0  0  0  0  0  0  0  0  0  0
  -20.7216  -26.6249   16.9949 C   0  0  0  0  0  0  0  0  0  0  0  0
  -24.7145  -32.1813   20.4548 C   0  0  0  0  0  0  0  0  0  0  0  0
  -24.4025  -31.5499   23.6213 C   0  0  0  0  0  0  0  0  0  0  0  0
  -29.4298  -22.5051   20.1122 C   0  0  0  0  0  0  0  0  0  0  0  0
  -25.0079  -29.4298   26.2262 C   0  0  0  0  0  0  0  0  0  0  0  0
  -23.0720  -18.6603   17.4794 C   0  0  0  0  0  0  0  0  0  0  0  0
  -22.5542  -35.2919   17.0322 C   0  0  0  0  0  0  0  0  0  0  0  0
  -23.7480  -29.8532   20.4109 C   0  0  0  0  0  0  0  0  0  0  0  0
  -25.9890  -30.0753   22.3275 C   0  0  0  0  0  0  0  0  0  0  0  0
  -22.7563  -35.3055   18.5452 C   0  0  0  0  0  0  0  0  0  0  0  0
  -19.8849  -19.5231   16.1470 C   0  0  0  0  0  0  0  0  0  0  0  0
  -24.2075  -34.9893   18.8928 C   0  0  0  0  0  0  0  0  0  0  0  0
  -19.7218  -20.9976   16.5230 C   0  0  0  0  0  0  0  0  0  0  0  0
  -20.5994  -18.7340   17.2427 C   0  0  0  0  0  0  0  0  0  0  0  0
  -21.7209  -20.7725   18.0528 C   0  0  0  0  0  0  0  0  0  0  0  0
  -24.5988  -33.5887   18.4063 C   0  0  1  0  0  0  0  0  0  0  0  0
  -23.9837  -31.1200   21.2277 C   0  0  1  0  0  0  0  0  0  0  0  0
  -21.0643  -21.6215   16.9520 C   0  0  2  0  0  0  0  0  0  0  0  0
  -24.8986  -28.5216   28.5630 C   0  0  0  0  0  0  0  0  0  0  0  0
  -26.6588  -33.5440   24.1136 C   0  0  0  0  0  0  0  0  0  0  0  0
  -26.9103  -32.5856   26.4128 C   0  0  0  0  0  0  0  0  0  0  0  0
  -24.7703  -33.6812   25.7474 C   0  0  0  0  0  0  0  0  0  0  0  0
  -22.5303  -27.9180   25.6470 C   0  0  0  0  0  0  0  0  0  0  0  0
  -28.7661  -23.8291   20.4112 C   0  0  0  0  0  0  0  0  0  0  0  0
  -29.7573  -24.9376   20.7488 C   0  0  0  0  0  0  0  0  0  0  0  0
  -29.0807  -26.2854   20.9694 C   0  0  0  0  0  0  0  0  0  1  0  0
  -25.3560  -31.4182   24.7842 C   0  0  1  0  0  0  0  0  0  0  0  0
  -24.1030  -28.8969   27.3224 C   0  0  2  0  0  0  0  0  0  0  0  0
  -25.9260  -32.7906   25.2415 C   0  0  0  0  0  0  0  0  0  0  0  0
  -20.6835  -23.3516   18.6676 N   0  0  0  0  0  0  0  0  0  0  0  0
  -20.9022  -23.0705   17.3718 N   0  0  0  0  0  0  0  0  0  0  0  0
  -24.7561  -30.8711   22.4465 N   0  0  0  0  0  0  0  0  0  0  0  0
  -21.8649  -19.3818   17.5946 N   0  0  0  0  0  0  0  0  0  0  0  0
  -21.1643  -24.0700   15.2403 N   0  0  0  0  0  0  0  0  0  0  0  0
  -20.5048  -27.6037   17.9742 N   0  0  0  0  0  0  0  0  0  0  0  0
  -24.2135  -19.3897   17.8103 N   0  0  0  0  0  0  0  0  0  0  0  0
  -28.4840  -21.4602   19.7934 N   0  0  0  0  0  0  0  0  0  0  0  0
  -24.0713  -32.5783   19.2980 N   0  0  0  0  0  0  0  0  0  0  0  0
  -24.6334  -30.6946   25.8247 N   0  0  0  0  0  0  0  0  0  0  0  0
  -30.0214  -19.7168   19.3758 N   0  3  0  0  0  0  0  0  0  0  0  0
  -23.3725  -27.6873   26.8489 N   0  3  0  0  0  0  0  0  0  0  0  0
  -20.8658  -26.9745   15.7988 O   0  0  0  0  0  0  0  0  0  0  0  0
  -25.7820  -32.6094   20.8776 O   0  0  0  0  0  0  0  0  0  0  0  0
  -23.3779  -32.2241   23.7527 O   0  0  0  0  0  0  0  0  0  0  0  0
  -30.6351  -22.3018   20.1021 O   0  0  0  0  0  0  0  0  0  0  0  0
  -25.9546  -28.7896   25.7740 O   0  0  0  0  0  0  0  0  0  0  0  0
  -23.0940  -17.4905   17.0880 O   0  0  0  0  0  0  0  0  0  0  0  0
  -19.6720  -27.3987   23.4787 O   0  0  0  0  0  0  0  0  0  0  0  0
  -28.3735  -26.6436   19.7828 O   0  0  0  0  0  0  0  0  0  1  0  0
  -15.9008  -31.4213   23.4663 F   0  0  0  0  0  0  0  0  0  0  0  0
  -26.8795  -15.7285   19.4097 F   0  0  0  0  0  0  0  0  0  0  0  0
  -19.9537  -29.6019   21.8327 F   0  0  0  0  0  0  0  0  0  0  0  0
  1  2  1  0  0  0  0
  1  5  2  0  0  0  0
  2  6  2  0  0  0  0
  3  8  2  0  0  0  0
  3 18  1  0  0  0  0
  4  9  1  0  0  0  0
  4 18  2  0  0  0  0
  5 21  1  0  0  0  0
  6 23  1  0  0  0  0
  7 10  2  0  0  0  0
  7 22  1  0  0  0  0
  8 26  1  0  0  0  0
  9 26  2  0  0  0  0
 10 27  1  0  0  0  0
 11 12  2  0  0  0  0
 11 28  1  0  0  0  0
 12 29  1  0  0  0  0
 13 19  2  0  0  0  0
 13 25  1  0  0  0  0
 14 19  1  0  0  0  0
 14 30  2  0  0  0  0
 15 24  1  0  0  0  0
 15 27  2  0  0  0  0
 16 25  2  0  0  0  0
 16 30  1  0  0  0  0
 17 29  2  0  0  0  0
 17 31  1  0  0  0  0
 18 32  1  0  0  0  0
 19 34  1  0  0  0  0
 20 32  1  0  0  0  0
 20 33  2  0  0  0  0
 20 35  1  0  0  0  0
 21 23  2  0  0  0  0
 21 41  1  0  0  0  0
 22 24  2  0  0  0  0
 22 42  1  0  0  0  0
 23 50  1  0  0  0  0
 24 43  1  0  0  0  0
 25 70  1  0  0  0  0
 26 82  1  0  0  0  0
 27 83  1  0  0  0  0
 28 31  2  0  0  0  0
 28 82  1  0  0  0  0
 29 84  1  0  0  0  0
 30 85  1  0  0  0  0
 31 86  1  0  0  0  0
 32 64  2  0  0  0  0
 33 65  1  0  0  0  0
 33 68  1  0  0  0  0
 34 71  1  0  0  0  0
 34 74  2  0  0  0  0
 35 69  1  0  0  0  0
 35 76  2  0  0  0  0
 36 51  1  0  0  0  0
 36 72  1  0  0  0  0
 36 77  2  0  0  0  0
 37 61  1  0  0  0  0
 37 66  1  0  0  0  0
 37 78  2  0  0  0  0
 38 58  1  0  0  0  0
 38 71  1  0  0  0  0
 38 79  2  0  0  0  0
 39 62  1  0  0  0  0
 39 73  1  0  0  0  0
 39 80  2  0  0  0  0
 40 67  1  0  0  0  0
 40 70  1  0  0  0  0
 40 81  2  0  0  0  0
 41 44  1  0  0  0  0
 42 51  1  0  0  0  0
 43 66  1  0  0  0  0
 44 46  1  0  0  0  0
 45 47  1  0  0  0  0
 45 48  1  0  0  0  0
 46 50  1  0  0  0  0
 47 52  1  0  0  0  0
 48 67  1  0  0  0  0
 49 52  1  0  0  0  0
 49 67  1  0  0  0  0
 50 72  1  0  0  0  0
 51 66  1  0  0  0  0
 52 65  1  0  0  0  0
 53 62  1  0  0  0  0
 54 63  1  0  0  0  0
 55 63  1  0  0  0  0
 56 63  1  0  0  0  0
 57 75  1  0  0  0  0
 58 59  1  0  0  0  0
 59 60  1  0  0  0  0
 60 83  1  0  0  0  0
 61 63  1  0  0  0  0
 61 73  1  0  0  0  0
 62 75  1  0  0  0  0
 64 65  1  0  0  0  0
M  CHG  2  74   1  75   1
M  ISO  4  40 100  60 101  70 100  83 101
M  END
> <Batch ID>
0061

> <Smiles>
CNC(C)C(=O)NC(C(=O)N1Cc2cc([101O:1][101CH2:1]CCC(=O)NC(=N)c3cc(F)cc([100NH:0][100C:0](=O)N4CCCC(n5nc(-c6ccc(Oc7ccc(F)cc7F)cc6)c(C(N)=O)c5N)C4)c3)ccc2CC1C(=O)NC1CCCc2ccccc21)C(C)(C)C

> <Shape>
0.230

> <Color>
0.093

> <Negative vol penalty>
0.000

$$$$

  -OEChem-04042323073D

 87 96  0     1  0  0  0  0  0999 V2000
  -23.8892  -38.2861   24.3407 C   0  0  0  0  0  0  0  0  0  0  0  0
  -23.1752  -37.1507   23.9711 C   0  0  0  0  0  0  0  0  0  0  0  0
  -27.8400  -15.0780   19.5213 C   0  0  0  0  0  0  0  0  0  0  0  0
  -26.7547  -15.5981   21.6162 C   0  0  0  0  0  0  0  0  0  0  0  0
  -20.9086  -22.8927   21.8555 C   0  0  0  0  0  0  0  0  0  0  0  0
  -25.2830  -38.2717   24.3119 C   0  0  0  0  0  0  0  0  0  0  0  0
  -23.8547  -36.0006   23.5714 C   0  0  0  0  0  0  0  0  0  0  0  0
  -21.9560  -31.7970   25.6618 C   0  0  0  0  0  0  0  0  0  0  0  0
  -20.1128  -24.0382   21.8421 C   0  0  0  0  0  0  0  0  0  0  0  0
  -27.2663  -13.8068   19.5396 C   0  0  0  0  0  0  0  0  0  0  0  0
  -26.1809  -14.3268   21.6345 C   0  0  0  0  0  0  0  0  0  0  0  0
  -20.7818  -31.2862   25.1105 C   0  0  0  0  0  0  0  0  0  0  0  0
  -23.5792  -12.7488   20.1644 C   0  0  0  0  0  0  0  0  0  0  0  0
  -22.2273  -12.6543   20.4946 C   0  0  0  0  0  0  0  0  0  0  0  0
  -22.0720  -29.6530   23.8909 C   0  0  0  0  0  0  0  0  0  0  0  0
  -21.0988  -24.7475   23.9307 C   0  0  0  0  0  0  0  0  0  0  0  0
  -22.7861  -11.2534   22.3820 C   0  0  0  0  0  0  0  0  0  0  0  0
  -27.5843  -15.9737   20.5597 C   0  0  0  0  0  0  0  0  0  0  0  0
  -21.7994  -22.6745   22.9064 C   0  0  0  0  0  0  0  0  0  0  0  0
  -29.5496  -17.5997   20.5286 C   0  0  0  0  0  0  0  0  0  0  0  0
  -25.9802  -37.1177   23.9209 C   0  0  0  0  0  0  0  0  0  0  0  0
  -23.2001  -31.2458   25.3229 C   0  0  0  0  0  0  0  0  0  0  0  0
  -25.2592  -35.9711   23.5360 C   0  0  0  0  0  0  0  0  0  0  0  0
  -23.2604  -30.1570   24.4413 C   0  0  0  0  0  0  0  0  0  0  0  0
  -21.8946  -23.6019   23.9440 C   0  0  0  0  0  0  0  0  0  0  0  0
  -20.2079  -24.9656   22.8797 C   0  0  0  0  0  0  0  0  0  0  0  0
  -26.4367  -13.4312   20.5962 C   0  0  0  0  0  0  0  0  0  0  0  0
  -20.8399  -30.2159   24.2227 C   0  0  0  0  0  0  0  0  0  0  0  0
  -24.5346  -12.0955   20.9429 C   0  0  0  0  0  0  0  0  0  0  0  0
  -21.8307  -11.9066   21.6034 C   0  0  0  0  0  0  0  0  0  0  0  0
  -24.1381  -11.3478   22.0517 C   0  0  0  0  0  0  0  0  0  0  0  0
  -28.1771  -17.2868   20.5416 C   0  0  0  0  0  0  0  0  0  0  0  0
  -29.5886  -18.9726   20.5137 C   0  0  0  0  0  0  0  0  0  0  0  0
  -18.1141  -26.1323   22.2540 C   0  0  0  0  0  0  0  0  0  0  0  0
  -30.6875  -16.7275   20.5297 C   0  0  0  0  0  0  0  0  0  0  0  0
  -22.6259  -21.4577   22.8952 C   0  0  0  0  0  0  0  0  0  0  0  0
  -25.8256  -32.3383   23.9027 C   0  0  0  0  0  0  0  0  0  0  0  0
  -27.0049  -29.4270   24.7125 C   0  0  0  0  0  0  0  0  0  0  0  0
  -26.3819  -26.1638   25.4937 C   0  0  0  0  0  0  0  0  0  0  0  0
  -24.5259  -22.5815   21.6126 C   0  0  0  0  0  0  0  0  0  0  0  0
  -27.4864  -37.1650   23.8603 C   0  0  0  0  0  0  0  0  0  0  0  0
  -24.4553  -31.7911   25.9469 C   0  0  0  0  0  0  0  0  0  0  0  0
  -24.5692  -29.5164   24.0607 C   0  0  0  0  0  0  0  0  0  0  0  0
  -28.1366  -35.7860   23.7835 C   0  0  0  0  0  0  0  0  0  0  0  0
  -27.1148  -22.8176   19.0873 C   0  0  0  0  0  0  0  0  0  0  0  0
  -27.4307  -34.9200   22.7450 C   0  0  0  0  0  0  0  0  0  0  0  0
  -27.6043  -21.3658   19.0858 C   0  0  0  0  0  0  0  0  0  0  0  0
  -26.5963  -23.2913   20.4428 C   0  0  0  0  0  0  0  0  0  0  0  0
  -26.4555  -20.9474   21.2874 C   0  0  0  0  0  0  0  0  0  0  0  0
  -19.8270  -27.3329   23.6175 C   0  0  0  0  0  0  0  0  0  0  0  0
  -18.7376  -28.6990   21.7156 C   0  0  0  0  0  0  0  0  0  0  0  0
  -25.9608  -34.6963   23.1203 C   0  0  1  0  0  0  0  0  0  0  0  0
  -25.7089  -31.4843   25.1335 C   0  0  1  0  0  0  0  0  0  0  0  0
  -27.7751  -20.8114   20.5074 C   0  0  1  0  0  0  0  0  0  0  0  0
  -19.8287  -28.6164   22.7785 C   0  0  1  0  0  0  0  0  0  1  0  0
  -22.8394  -23.3919   25.0820 C   0  0  0  0  0  0  0  0  0  0  0  0
  -27.5497  -24.0185   26.0693 C   0  0  0  0  0  0  0  0  0  0  0  0
  -27.7746  -29.0626   21.7825 C   0  0  0  0  0  0  0  0  0  0  0  0
  -28.0423  -26.6138   22.2296 C   0  0  0  0  0  0  0  0  0  0  0  0
  -29.4884  -28.2624   23.4186 C   0  0  0  0  0  0  0  0  0  0  0  0
  -25.0665  -26.0228   28.1411 C   0  0  0  0  0  0  0  0  0  0  0  0
  -27.0486  -28.0699   24.0526 C   0  0  1  0  0  0  0  0  0  0  0  0
  -26.8987  -25.2800   26.6146 C   0  0  2  0  0  0  0  0  0  0  0  0
  -28.0638  -28.0153   22.8763 C   0  0  0  0  0  0  0  0  0  0  0  0
  -27.4004  -18.3734   20.5357 N   0  0  0  0  0  0  0  0  0  0  0  0
  -28.2878  -19.3825   20.5188 N   0  0  0  0  0  0  0  0  0  0  0  0
  -19.3856  -26.1485   22.8651 N   0  0  0  0  0  0  0  0  0  0  0  0
  -25.7693  -30.0893   24.6925 N   0  0  0  0  0  0  0  0  0  0  0  0
  -25.8117  -22.2607   21.1213 N   0  0  0  0  0  0  0  0  0  0  0  0
  -30.6084  -19.8570   20.4969 N   0  0  0  0  0  0  0  0  0  0  0  0
  -31.2265  -16.3340   21.7622 N   0  0  0  0  0  0  0  0  0  0  0  0
  -23.8766  -21.5114   22.2709 N   0  0  0  0  0  0  0  0  0  0  0  0
  -25.8513  -33.6957   24.1601 N   0  0  0  0  0  0  0  0  0  0  0  0
  -27.3140  -27.1072   25.1162 N   0  0  0  0  0  0  0  0  0  0  0  0
  -25.7813  -24.8803   27.5160 N   0  3  0  0  0  0  0  0  0  0  0  0
  -17.5275  -25.1534   21.8055 O   0  0  0  0  0  0  0  0  0  0  0  0
  -31.2209  -16.3225   19.4691 O   0  0  0  0  0  0  0  0  0  0  0  0
  -25.8891  -31.8051   22.8012 O   0  0  0  0  0  0  0  0  0  0  0  0
  -28.0277  -29.8795   25.2330 O   0  0  0  0  0  0  0  0  0  0  0  0
  -25.2647  -26.0282   24.9997 O   0  0  0  0  0  0  0  0  0  0  0  0
  -24.0271  -23.7033   21.4952 O   0  0  0  0  0  0  0  0  0  0  0  0
  -25.8764  -12.1909   20.6143 O   0  0  0  0  0  0  0  0  0  0  0  0
  -19.6953  -29.7158   23.6825 O   0  0  0  0  0  0  0  0  0  1  0  0
  -20.5326  -11.8173   21.9213 F   0  0  0  0  0  0  0  0  0  0  0  0
  -25.0514  -10.7190   22.8042 F   0  0  0  0  0  0  0  0  0  0  0  0
  -22.0854  -20.0231   23.5834 S   0  0  0  0  0  0  0  0  0  0  0  0
  -17.2963  -27.7045   22.1802 S   0  0  0  0  0  0  0  0  0  0  0  0
  1  2  1  0  0  0  0
  1  6  2  0  0  0  0
  2  7  2  0  0  0  0
  3 10  2  0  0  0  0
  3 18  1  0  0  0  0
  4 11  1  0  0  0  0
  4 18  2  0  0  0  0
  5  9  2  0  0  0  0
  5 19  1  0  0  0  0
  6 21  1  0  0  0  0
  7 23  1  0  0  0  0
  8 12  2  0  0  0  0
  8 22  1  0  0  0  0
  9 26  1  0  0  0  0
 10 27  1  0  0  0  0
 11 27  2  0  0  0  0
 12 28  1  0  0  0  0
 13 14  2  0  0  0  0
 13 29  1  0  0  0  0
 14 30  1  0  0  0  0
 15 24  1  0  0  0  0
 15 28  2  0  0  0  0
 16 25  1  0  0  0  0
 16 26  2  0  0  0  0
 17 30  2  0  0  0  0
 17 31  1  0  0  0  0
 18 32  1  0  0  0  0
 19 25  2  0  0  0  0
 19 36  1  0  0  0  0
 20 32  1  0  0  0  0
 20 33  2  0  0  0  0
 20 35  1  0  0  0  0
 21 23  2  0  0  0  0
 21 41  1  0  0  0  0
 22 24  2  0  0  0  0
 22 42  1  0  0  0  0
 23 52  1  0  0  0  0
 24 43  1  0  0  0  0
 25 56  1  0  0  0  0
 26 67  1  0  0  0  0
 27 82  1  0  0  0  0
 28 83  1  0  0  0  0
 29 31  2  0  0  0  0
 29 82  1  0  0  0  0
 30 84  1  0  0  0  0
 31 85  1  0  0  0  0
 32 65  2  0  0  0  0
 33 66  1  0  0  0  0
 33 70  1  0  0  0  0
 34 67  1  0  0  0  0
 34 76  2  0  0  0  0
 34 87  1  0  0  0  0
 35 71  1  0  0  0  0
 35 77  2  0  0  0  0
 36 72  1  0  0  0  0
 36 86  2  0  0  0  0
 37 53  1  0  0  0  0
 37 73  1  0  0  0  0
 37 78  2  0  0  0  0
 38 62  1  0  0  0  0
 38 68  1  0  0  0  0
 38 79  2  0  0  0  0
 39 63  1  0  0  0  0
 39 74  1  0  0  0  0
 39 80  2  0  0  0  0
 40 69  1  0  0  0  0
 40 72  1  0  0  0  0
 40 81  2  0  0  0  0
 41 44  1  0  0  0  0
 42 53  1  0  0  0  0
 43 68  1  0  0  0  0
 44 46  1  0  0  0  0
 45 47  1  0  0  0  0
 45 48  1  0  0  0  0
 46 52  1  0  0  0  0
 47 54  1  0  0  0  0
 48 69  1  0  0  0  0
 49 54  1  0  0  0  0
 49 69  1  0  0  0  0
 50 55  1  0  0  0  0
 50 67  1  0  0  0  0
 51 55  1  0  0  0  0
 51 87  1  0  0  0  0
 52 73  1  0  0  0  0
 53 68  1  0  0  0  0
 54 66  1  0  0  0  0
 55 83  1  0  0  0  0
 57 63  1  0  0  0  0
 58 64  1  0  0  0  0
 59 64  1  0  0  0  0
 60 64  1  0  0  0  0
 61 75  1  0  0  0  0
 62 64  1  0  0  0  0
 62 74  1  0  0  0  0
 63 75  1  0  0  0  0
 65 66  1  0  0  0  0
M  CHG  1  75   1
M  ISO  4  40 100  55 101  72 100  83 101
M  END
> <Batch ID>
0061

> <Smiles>
CNC(C)C(=O)NC(C(=O)N1Cc2cc([101O:1][101CH:1]3CSC(=O)N(c4ccc(C(=S)[100NH:0][100C:0](=O)N5CCCC(n6nc(-c7ccc(Oc8ccc(F)cc8F)cc7)c(C(N)=O)c6N)C5)c(C)c4)C3)ccc2CC1C(=O)NC1CCCc2ccccc21)C(C)(C)C

> <Shape>
0.277

> <Color>
0.049

> <Negative vol penalty>
0.000

$$$$

  -OEChem-04042323073D

 87 96  0     1  0  0  0  0  0999 V2000
  -16.8000  -28.7098   23.1303 C   0  0  0  0  0  0  0  0  0  0  0  0
  -17.7267  -28.7477   22.0933 C   0  0  0  0  0  0  0  0  0  0  0  0
  -22.7384  -11.9042   18.7925 C   0  0  0  0  0  0  0  0  0  0  0  0
  -23.2212  -10.0907   20.3140 C   0  0  0  0  0  0  0  0  0  0  0  0
  -17.2239  -28.4537   24.4335 C   0  0  0  0  0  0  0  0  0  0  0  0
  -19.0781  -28.5305   22.3593 C   0  0  0  0  0  0  0  0  0  0  0  0
  -24.9685  -25.7220   19.4042 C   0  0  0  0  0  0  0  0  0  0  0  0
  -31.1287  -20.2710   21.2022 C   0  0  0  0  0  0  0  0  0  0  0  0
  -30.8857  -18.9026   21.3210 C   0  0  0  0  0  0  0  0  0  0  0  0
  -21.7619  -11.1244   18.1728 C   0  0  0  0  0  0  0  0  0  0  0  0
  -22.2447   -9.3109   19.6944 C   0  0  0  0  0  0  0  0  0  0  0  0
  -26.2935  -26.0511   19.1216 C   0  0  0  0  0  0  0  0  0  0  0  0
  -18.8761   -9.0431   19.7365 C   0  0  0  0  0  0  0  0  0  0  0  0
  -17.9984   -8.3341   20.5565 C   0  0  0  0  0  0  0  0  0  0  0  0
  -26.9001  -25.5392   21.3996 C   0  0  0  0  0  0  0  0  0  0  0  0
  -29.7248  -20.3497   19.2375 C   0  0  0  0  0  0  0  0  0  0  0  0
  -18.7499   -6.2613   19.5687 C   0  0  0  0  0  0  0  0  0  0  0  0
  -23.4681  -11.3874   19.8631 C   0  0  0  0  0  0  0  0  0  0  0  0
  -24.3037  -13.0626   21.5960 C   0  0  0  0  0  0  0  0  0  0  0  0
  -18.5800  -28.2236   24.7141 C   0  0  0  0  0  0  0  0  0  0  0  0
  -24.5967  -25.3088   20.6917 C   0  0  0  0  0  0  0  0  0  0  0  0
  -19.5208  -28.2723   23.6678 C   0  0  0  0  0  0  0  0  0  0  0  0
  -25.5702  -25.2030   21.6953 C   0  0  0  0  0  0  0  0  0  0  0  0
  -29.4818  -18.9813   19.3563 C   0  0  0  0  0  0  0  0  0  0  0  0
  -30.5482  -20.9946   20.1605 C   0  0  0  0  0  0  0  0  0  0  0  0
  -30.0623  -18.2578   20.3981 C   0  0  0  0  0  0  0  0  0  0  0  0
  -21.5150   -9.8277   18.6238 C   0  0  0  0  0  0  0  0  0  0  0  0
  -27.2590  -25.9625   20.1202 C   0  0  0  0  0  0  0  0  0  0  0  0
  -19.6907   -8.3613   18.8324 C   0  0  0  0  0  0  0  0  0  0  0  0
  -17.9353   -6.9432   20.4727 C   0  0  0  0  0  0  0  0  0  0  0  0
  -19.6276   -6.9704   18.7486 C   0  0  0  0  0  0  0  0  0  0  0  0
  -24.4773  -12.1922   20.5032 C   0  0  0  0  0  0  0  0  0  0  0  0
  -25.5542  -13.5839   21.8218 C   0  0  0  0  0  0  0  0  0  0  0  0
  -31.5813  -24.4959   20.4376 C   0  0  0  0  0  0  0  0  0  0  0  0
  -30.8063  -24.5346   19.3515 C   0  0  0  0  0  0  0  0  0  0  0  0
  -31.5948  -23.0992   20.9164 C   0  0  0  0  0  0  0  0  0  0  0  0
  -23.1181  -13.3722   22.3404 C   0  0  0  0  0  0  0  0  0  0  0  0
  -22.6382  -26.4312   22.9296 C   0  0  0  0  0  0  0  0  0  0  0  0
  -23.3879  -23.6532   24.4274 C   0  0  0  0  0  0  0  0  0  0  0  0
  -25.5971  -21.0834   24.8300 C   0  0  0  0  0  0  0  0  0  0  0  0
  -30.1790  -15.9314   19.5208 C   0  0  0  0  0  0  0  0  0  0  0  0
  -18.9969  -27.9976   26.1459 C   0  0  0  0  0  0  0  0  0  0  0  0
  -23.1681  -24.9318   20.9733 C   0  0  0  0  0  0  0  0  0  0  0  0
  -25.2264  -24.7452   23.0884 C   0  0  0  0  0  0  0  0  0  0  0  0
  -30.2374  -23.2022   19.0036 C   0  0  0  0  0  0  0  0  0  0  0  0
  -20.3975  -27.4070   26.2864 C   0  0  0  0  0  0  0  0  0  0  0  0
  -30.0686  -12.2725   19.9794 C   0  0  0  0  0  0  0  0  0  0  0  0
  -21.3826  -28.1499   25.3896 C   0  0  0  0  0  0  0  0  0  0  0  0
  -28.5789  -11.9993   20.1795 C   0  0  0  0  0  0  0  0  0  0  0  0
  -30.3072  -13.4941   19.0969 C   0  0  0  0  0  0  0  0  0  0  0  0
  -28.1290  -14.4534   19.7791 C   0  0  0  0  0  0  0  0  0  0  0  0
  -20.9923  -28.0172   23.9126 C   0  0  1  0  0  0  0  0  0  0  0  0
  -22.8086  -25.0163   22.4535 C   0  0  1  0  0  0  0  0  0  0  0  0
  -27.8559  -13.2540   20.6992 C   0  0  1  0  0  0  0  0  0  0  0  0
  -28.5941  -18.3166   18.3549 C   0  0  0  0  0  0  0  0  0  0  0  0
  -25.9542  -18.9818   26.1539 C   0  0  0  0  0  0  0  0  0  0  0  0
  -24.1699  -25.3213   26.8597 C   0  0  0  0  0  0  0  0  0  0  0  0
  -25.3788  -23.3204   27.7560 C   0  0  0  0  0  0  0  0  0  0  0  0
  -22.9128  -23.2259   27.3921 C   0  0  0  0  0  0  0  0  0  0  0  0
  -29.4255  -16.3264   21.8545 C   0  0  0  0  0  0  0  0  0  0  0  0
  -25.6107  -19.4100   22.3890 C   0  0  0  0  0  0  0  0  0  0  0  0
  -30.4960  -25.7393   18.5257 C   0  0  0  0  0  0  0  0  0  0  0  0
  -29.0087  -26.0654   18.5127 C   0  0  0  0  0  0  0  0  0  1  0  0
  -24.4618  -23.2159   25.3940 C   0  0  1  0  0  0  0  0  0  0  0  0
  -25.3960  -19.5793   24.8717 C   0  0  2  0  0  0  0  0  0  0  0  0
  -24.2373  -23.7814   26.8248 C   0  0  0  0  0  0  0  0  0  0  0  0
  -25.7386  -12.1598   20.0651 N   0  0  0  0  0  0  0  0  0  0  0  0
  -26.3690  -13.0164   20.8867 N   0  0  0  0  0  0  0  0  0  0  0  0
  -30.7882  -22.3582   20.0438 N   0  0  0  0  0  0  0  0  0  0  0  0
  -23.8150  -24.3938   23.3160 N   0  0  0  0  0  0  0  0  0  0  0  0
  -29.5726  -14.6609   19.5872 N   0  0  0  0  0  0  0  0  0  0  0  0
  -26.0253  -14.4677   22.7269 N   0  0  0  0  0  0  0  0  0  0  0  0
  -21.9178  -12.7474   21.9754 N   0  0  0  0  0  0  0  0  0  0  0  0
  -21.3723  -26.7165   23.4043 N   0  0  0  0  0  0  0  0  0  0  0  0
  -24.5027  -21.7591   25.3269 N   0  0  0  0  0  0  0  0  0  0  0  0
  -29.8220  -16.8411   20.5396 N   0  0  0  0  0  0  0  0  0  0  0  0
  -26.0792  -18.9331   23.7157 N   0  3  0  0  0  0  0  0  0  0  0  0
  -32.2144  -22.7228   21.8980 O   0  0  0  0  0  0  0  0  0  0  0  0
  -23.1196  -14.1914   23.2904 O   0  0  0  0  0  0  0  0  0  0  0  0
  -23.5857  -27.2062   22.8719 O   0  0  0  0  0  0  0  0  0  0  0  0
  -22.2143  -23.3430   24.6464 O   0  0  0  0  0  0  0  0  0  0  0  0
  -26.6240  -21.6065   24.4029 O   0  0  0  0  0  0  0  0  0  0  0  0
  -30.9968  -16.2188   18.6385 O   0  0  0  0  0  0  0  0  0  0  0  0
  -20.5621   -9.0666   18.0195 O   0  0  0  0  0  0  0  0  0  0  0  0
  -28.5529  -26.2837   19.8472 O   0  0  0  0  0  0  0  0  0  1  0  0
  -17.0935   -6.2624   21.2613 F   0  0  0  0  0  0  0  0  0  0  0  0
  -20.4085   -6.3097   17.8828 F   0  0  0  0  0  0  0  0  0  0  0  0
  1  2  1  0  0  0  0
  1  5  2  0  0  0  0
  2  6  2  0  0  0  0
  3 10  2  0  0  0  0
  3 18  1  0  0  0  0
  4 11  1  0  0  0  0
  4 18  2  0  0  0  0
  5 20  1  0  0  0  0
  6 22  1  0  0  0  0
  7 12  2  0  0  0  0
  7 21  1  0  0  0  0
  8  9  2  0  0  0  0
  8 25  1  0  0  0  0
  9 26  1  0  0  0  0
 10 27  1  0  0  0  0
 11 27  2  0  0  0  0
 12 28  1  0  0  0  0
 13 14  2  0  0  0  0
 13 29  1  0  0  0  0
 14 30  1  0  0  0  0
 15 23  1  0  0  0  0
 15 28  2  0  0  0  0
 16 24  1  0  0  0  0
 16 25  2  0  0  0  0
 17 30  2  0  0  0  0
 17 31  1  0  0  0  0
 18 32  1  0  0  0  0
 19 32  1  0  0  0  0
 19 33  2  0  0  0  0
 19 37  1  0  0  0  0
 20 22  2  0  0  0  0
 20 42  1  0  0  0  0
 21 23  2  0  0  0  0
 21 43  1  0  0  0  0
 22 52  1  0  0  0  0
 23 44  1  0  0  0  0
 24 26  2  0  0  0  0
 24 55  1  0  0  0  0
 25 69  1  0  0  0  0
 26 76  1  0  0  0  0
 27 84  1  0  0  0  0
 28 85  1  0  0  0  0
 29 31  2  0  0  0  0
 29 84  1  0  0  0  0
 30 86  1  0  0  0  0
 31 87  1  0  0  0  0
 32 67  2  0  0  0  0
 33 68  1  0  0  0  0
 33 72  1  0  0  0  0
 34 35  2  0  0  0  0
 34 36  1  0  0  0  0
 35 45  1  0  0  0  0
 35 62  1  0  0  0  0
 36 69  1  0  0  0  0
 36 78  2  0  0  0  0
 37 73  1  0  0  0  0
 37 79  2  0  0  0  0
 38 53  1  0  0  0  0
 38 74  1  0  0  0  0
 38 80  2  0  0  0  0
 39 64  1  0  0  0  0
 39 70  1  0  0  0  0
 39 81  2  0  0  0  0
 40 65  1  0  0  0  0
 40 75  1  0  0  0  0
 40 82  2  0  0  0  0
 41 71  1  0  0  0  0
 41 76  1  0  0  0  0
 41 83  2  0  0  0  0
 42 46  1  0  0  0  0
 43 53  1  0  0  0  0
 44 70  1  0  0  0  0
 45 69  1  0  0  0  0
 46 48  1  0  0  0  0
 47 49  1  0  0  0  0
 47 50  1  0  0  0  0
 48 52  1  0  0  0  0
 49 54  1  0  0  0  0
 50 71  1  0  0  0  0
 51 54  1  0  0  0  0
 51 71  1  0  0  0  0
 52 74  1  0  0  0  0
 53 70  1  0  0  0  0
 54 68  1  0  0  0  0
 56 65  1  0  0  0  0
 57 66  1  0  0  0  0
 58 66  1  0  0  0  0
 59 66  1  0  0  0  0
 60 76  1  0  0  0  0
 61 77  1  0  0  0  0
 62 63  1  0  0  0  0
 63 85  1  0  0  0  0
 64 66  1  0  0  0  0
 64 75  1  0  0  0  0
 65 77  1  0  0  0  0
 67 68  1  0  0  0  0
M  CHG  1  77   1
M  ISO  4  41 100  63 101  76 100  85 101
M  END
> <Batch ID>
0061

> <Smiles>
CNC(C)C(=O)NC(C(=O)N1Cc2cc([101O:1][101CH2:1]C=C3CC(=O)N(c4ccc([100N:0](C)[100C:0](=O)N5CCCC(n6nc(-c7ccc(Oc8ccc(F)cc8F)cc7)c(C(N)=O)c6N)C5)c(C)c4)C3)ccc2CC1C(=O)NC1CCCc2ccccc21)C(C)(C)C

> <Shape>
0.212

> <Color>
0.087

> <Negative vol penalty>
0.000

$$$$

  -OEChem-04042323073D

 87 96  0     1  0  0  0  0  0999 V2000
  -25.4847  -34.8381   24.7255 C   0  0  0  0  0  0  0  0  0  0  0  0
  -26.1363  -33.7342   24.1849 C   0  0  0  0  0  0  0  0  0  0  0  0
  -23.2422  -12.3994   20.1309 C   0  0  0  0  0  0  0  0  0  0  0  0
  -23.6960  -12.9389   22.4417 C   0  0  0  0  0  0  0  0  0  0  0  0
  -24.2098  -34.6951   25.2715 C   0  0  0  0  0  0  0  0  0  0  0  0
  -25.5139  -32.4864   24.1911 C   0  0  0  0  0  0  0  0  0  0  0  0
  -25.9647  -30.0687   19.7643 C   0  0  0  0  0  0  0  0  0  0  0  0
  -27.9485  -23.9339   23.6544 C   0  0  0  0  0  0  0  0  0  0  0  0
  -26.6773  -23.4063   23.4280 C   0  0  0  0  0  0  0  0  0  0  0  0
  -22.9343  -11.0892   20.4972 C   0  0  0  0  0  0  0  0  0  0  0  0
  -23.3880  -11.6287   22.8081 C   0  0  0  0  0  0  0  0  0  0  0  0
  -27.1855  -29.4503   19.4980 C   0  0  0  0  0  0  0  0  0  0  0  0
  -20.3227   -9.4335   21.8650 C   0  0  0  0  0  0  0  0  0  0  0  0
  -19.1786   -8.8578   21.3126 C   0  0  0  0  0  0  0  0  0  0  0  0
  -26.2425  -27.3252   20.1411 C   0  0  0  0  0  0  0  0  0  0  0  0
  -28.9143  -22.1967   22.2809 C   0  0  0  0  0  0  0  0  0  0  0  0
  -20.5325   -7.1214   20.3181 C   0  0  0  0  0  0  0  0  0  0  0  0
  -23.6231  -13.3243   21.1031 C   0  0  0  0  0  0  0  0  0  0  0  0
  -23.0560  -15.7688   20.6446 C   0  0  0  0  0  0  0  0  0  0  0  0
  -23.5674  -33.4469   25.2756 C   0  0  0  0  0  0  0  0  0  0  0  0
  -24.8749  -29.3205   20.2322 C   0  0  0  0  0  0  0  0  0  0  0  0
  -24.2297  -32.3264   24.7388 C   0  0  0  0  0  0  0  0  0  0  0  0
  -25.0082  -27.9360   20.4102 C   0  0  0  0  0  0  0  0  0  0  0  0
  -29.0670  -23.3291   23.0809 C   0  0  0  0  0  0  0  0  0  0  0  0
  -26.5246  -22.2738   22.6281 C   0  0  0  0  0  0  0  0  0  0  0  0
  -27.6431  -21.6690   22.0545 C   0  0  0  0  0  0  0  0  0  0  0  0
  -23.0072  -10.7039   21.8358 C   0  0  0  0  0  0  0  0  0  0  0  0
  -27.3255  -28.0788   19.6891 C   0  0  0  0  0  0  0  0  0  0  0  0
  -21.5718   -8.8532   21.6439 C   0  0  0  0  0  0  0  0  0  0  0  0
  -19.2835   -7.7018   20.5391 C   0  0  0  0  0  0  0  0  0  0  0  0
  -21.6766   -7.6972   20.8705 C   0  0  0  0  0  0  0  0  0  0  0  0
  -23.9419  -14.6777   20.7252 C   0  0  0  0  0  0  0  0  0  0  0  0
  -23.8430  -16.8212   20.2453 C   0  0  0  0  0  0  0  0  0  0  0  0
  -31.2297  -27.4729   22.3096 C   0  0  0  0  0  0  0  0  0  0  0  0
  -30.9037  -27.4384   21.0135 C   0  0  0  0  0  0  0  0  0  0  0  0
  -30.9939  -26.3009   23.1937 C   0  0  0  0  0  0  0  0  0  0  0  0
  -21.6477  -15.8260   20.9073 C   0  0  0  0  0  0  0  0  0  0  0  0
  -23.1177  -29.3323   22.8809 C   0  0  0  0  0  0  0  0  0  0  0  0
  -21.3680  -27.1308   21.2641 C   0  0  0  0  0  0  0  0  0  0  0  0
  -21.2448  -24.7618   18.8106 C   0  0  0  0  0  0  0  0  0  0  0  0
  -28.5271  -19.8105   20.6016 C   0  0  0  0  0  0  0  0  0  0  0  0
  -22.2085  -33.3320   25.9196 C   0  0  0  0  0  0  0  0  0  0  0  0
  -23.5570  -29.9981   20.4893 C   0  0  0  0  0  0  0  0  0  0  0  0
  -23.8629  -27.0845   20.8914 C   0  0  0  0  0  0  0  0  0  0  0  0
  -21.4652  -32.0511   25.5491 C   0  0  0  0  0  0  0  0  0  0  0  0
  -28.6078  -16.9095   18.5390 C   0  0  0  0  0  0  0  0  0  0  0  0
  -22.3900  -30.8439   25.6680 C   0  0  0  0  0  0  0  0  0  0  0  0
  -27.3282  -16.1600   18.9173 C   0  0  0  0  0  0  0  0  0  0  0  0
  -29.2454  -17.5897   19.7491 C   0  0  0  0  0  0  0  0  0  0  0  0
  -30.7780  -24.9592   21.1035 C   0  0  0  0  0  0  0  0  0  0  0  0
  -27.0675  -17.7130   20.8939 C   0  0  0  0  0  0  0  0  0  0  0  0
  -23.5772  -30.9614   24.7046 C   0  0  1  0  0  0  0  0  0  0  0  0
  -30.3567  -26.2160   20.3395 C   0  0  1  0  0  0  0  0  0  0  0  0
  -22.6641  -29.2223   21.4527 C   0  0  1  0  0  0  0  0  0  0  0  0
  -26.3539  -17.0656   19.6959 C   0  0  2  0  0  0  0  0  0  0  0  0
  -25.1510  -21.7299   22.4035 C   0  0  0  0  0  0  0  0  0  0  0  0
  -19.6882  -23.1041   17.7494 C   0  0  0  0  0  0  0  0  0  0  0  0
  -21.6945  -25.2862   23.6725 C   0  0  0  0  0  0  0  0  0  0  0  0
  -20.9761  -23.3776   22.2202 C   0  0  0  0  0  0  0  0  0  0  0  0
  -19.4122  -25.2728   22.6500 C   0  0  0  0  0  0  0  0  0  0  0  0
  -21.4619  -26.0750   16.1672 C   0  0  0  0  0  0  0  0  0  0  0  0
  -30.4349  -23.8979   23.3250 C   0  0  0  0  0  0  0  0  0  0  0  0
  -28.8377  -26.3166   20.2027 C   0  0  0  0  0  0  0  0  0  1  0  0
  -21.4012  -25.6275   21.1302 C   0  0  1  0  0  0  0  0  0  0  0  0
  -20.2446  -24.5183   17.6948 C   0  0  2  0  0  0  0  0  0  0  0  0
  -20.8933  -24.9071   22.4110 C   0  0  0  0  0  0  0  0  0  0  0  0
  -25.1956  -15.0065   20.4028 N   0  0  0  0  0  0  0  0  0  0  0  0
  -25.1033  -16.3161   20.1156 N   0  0  0  0  0  0  0  0  0  0  0  0
  -30.6666  -25.1089   22.5530 N   0  0  0  0  0  0  0  0  0  0  0  0
  -22.5963  -27.7944   21.1351 N   0  0  0  0  0  0  0  0  0  0  0  0
  -28.2648  -18.4343   20.4345 N   0  0  0  0  0  0  0  0  0  0  0  0
  -23.5731  -18.1202   19.9957 N   0  0  0  0  0  0  0  0  0  0  0  0
  -20.9947  -14.6526   21.3087 N   0  0  0  0  0  0  0  0  0  0  0  0
  -27.5083  -20.5185   21.2385 N   0  0  0  0  0  0  0  0  0  0  0  0
  -23.1691  -30.6287   23.3566 N   0  0  0  0  0  0  0  0  0  0  0  0
  -20.6438  -25.3082   19.9249 N   0  0  0  0  0  0  0  0  0  0  0  0
  -20.8911  -24.7181   16.3670 N   0  3  0  0  0  0  0  0  0  0  0  0
  -31.0915  -26.4516   24.4107 O   0  0  0  0  0  0  0  0  0  0  0  0
  -20.9847  -16.8825   20.7738 O   0  0  0  0  0  0  0  0  0  0  0  0
  -23.3987  -28.3162   23.5056 O   0  0  0  0  0  0  0  0  0  0  0  0
  -20.2908  -27.6961   21.4682 O   0  0  0  0  0  0  0  0  0  0  0  0
  -22.4389  -24.4908   18.7056 O   0  0  0  0  0  0  0  0  0  0  0  0
  -29.5661  -20.3285   20.1844 O   0  0  0  0  0  0  0  0  0  0  0  0
  -22.7066   -9.4256   22.1936 O   0  0  0  0  0  0  0  0  0  0  0  0
  -28.5162  -27.4729   19.4306 O   0  0  0  0  0  0  0  0  0  1  0  0
  -18.1845   -7.1481   20.0100 F   0  0  0  0  0  0  0  0  0  0  0  0
  -22.8737   -7.1345   20.6556 F   0  0  0  0  0  0  0  0  0  0  0  0
  1  2  1  0  0  0  0
  1  5  2  0  0  0  0
  2  6  2  0  0  0  0
  3 10  2  0  0  0  0
  3 18  1  0  0  0  0
  4 11  1  0  0  0  0
  4 18  2  0  0  0  0
  5 20  1  0  0  0  0
  6 22  1  0  0  0  0
  7 12  2  0  0  0  0
  7 21  1  0  0  0  0
  8  9  2  0  0  0  0
  8 24  1  0  0  0  0
  9 25  1  0  0  0  0
 10 27  1  0  0  0  0
 11 27  2  0  0  0  0
 12 28  1  0  0  0  0
 13 14  2  0  0  0  0
 13 29  1  0  0  0  0
 14 30  1  0  0  0  0
 15 23  1  0  0  0  0
 15 28  2  0  0  0  0
 16 24  2  0  0  0  0
 16 26  1  0  0  0  0
 17 30  2  0  0  0  0
 17 31  1  0  0  0  0
 18 32  1  0  0  0  0
 19 32  1  0  0  0  0
 19 33  2  0  0  0  0
 19 37  1  0  0  0  0
 20 22  2  0  0  0  0
 20 42  1  0  0  0  0
 21 23  2  0  0  0  0
 21 43  1  0  0  0  0
 22 52  1  0  0  0  0
 23 44  1  0  0  0  0
 24 62  1  0  0  0  0
 25 26  2  0  0  0  0
 25 56  1  0  0  0  0
 26 74  1  0  0  0  0
 27 84  1  0  0  0  0
 28 85  1  0  0  0  0
 29 31  2  0  0  0  0
 29 84  1  0  0  0  0
 30 86  1  0  0  0  0
 31 87  1  0  0  0  0
 32 67  2  0  0  0  0
 33 68  1  0  0  0  0
 33 72  1  0  0  0  0
 34 35  2  0  0  0  0
 34 36  1  0  0  0  0
 35 53  1  0  0  0  0
 36 69  1  0  0  0  0
 36 78  2  0  0  0  0
 37 73  1  0  0  0  0
 37 79  2  0  0  0  0
 38 54  1  0  0  0  0
 38 75  1  0  0  0  0
 38 80  2  0  0  0  0
 39 64  1  0  0  0  0
 39 70  1  0  0  0  0
 39 81  2  0  0  0  0
 40 65  1  0  0  0  0
 40 76  1  0  0  0  0
 40 82  2  0  0  0  0
 41 71  1  0  0  0  0
 41 74  1  0  0  0  0
 41 83  2  0  0  0  0
 42 45  1  0  0  0  0
 43 54  1  0  0  0  0
 44 70  1  0  0  0  0
 45 47  1  0  0  0  0
 46 48  1  0  0  0  0
 46 49  1  0  0  0  0
 47 52  1  0  0  0  0
 48 55  1  0  0  0  0
 49 71  1  0  0  0  0
 50 53  1  0  0  0  0
 50 69  1  0  0  0  0
 51 55  1  0  0  0  0
 51 71  1  0  0  0  0
 52 75  1  0  0  0  0
 53 63  1  0  0  0  0
 54 70  1  0  0  0  0
 55 68  1  0  0  0  0
 57 65  1  0  0  0  0
 58 66  1  0  0  0  0
 59 66  1  0  0  0  0
 60 66  1  0  0  0  0
 61 77  1  0  0  0  0
 62 69  1  0  0  0  0
 63 85  1  0  0  0  0
 64 66  1  0  0  0  0
 64 76  1  0  0  0  0
 65 77  1  0  0  0  0
 67 68  1  0  0  0  0
M  CHG  1  77   1
M  ISO  4  41 100  63 101  74 100  85 101
M  END
> <Batch ID>
0061

> <Smiles>
CNC(C)C(=O)NC(C(=O)N1Cc2cc([101O:1][101CH2:1]C3=CCC(=O)N(Cc4ccc(C)c([100NH:0][100C:0](=O)N5CCCC(n6nc(-c7ccc(Oc8ccc(F)cc8F)cc7)c(C(N)=O)c6N)C5)c4)C3)ccc2CC1C(=O)NC1CCCc2ccccc21)C(C)(C)C

> <Shape>
0.236

> <Color>
0.073

> <Negative vol penalty>
0.000

$$$$

  -OEChem-04042323073D

 84 92  0     1  0  0  0  0  0999 V2000
  -17.9761  -26.7884   25.5193 C   0  0  0  0  0  0  0  0  0  0  0  0
  -18.8900  -26.1945   24.6548 C   0  0  0  0  0  0  0  0  0  0  0  0
  -30.8040  -19.3334   24.0406 C   0  0  0  0  0  0  0  0  0  0  0  0
  -24.5533   -8.7119   20.8484 C   0  0  0  0  0  0  0  0  0  0  0  0
  -23.3649  -10.5487   21.8735 C   0  0  0  0  0  0  0  0  0  0  0  0
  -30.2308  -20.1377   23.0556 C   0  0  0  0  0  0  0  0  0  0  0  0
  -17.5758  -28.1074   25.3100 C   0  0  0  0  0  0  0  0  0  0  0  0
  -19.4034  -26.9191   23.5796 C   0  0  0  0  0  0  0  0  0  0  0  0
  -24.4093  -26.3508   23.0672 C   0  0  0  0  0  0  0  0  0  0  0  0
  -30.7080  -17.9447   23.9502 C   0  0  0  0  0  0  0  0  0  0  0  0
  -23.4513   -7.8826   21.0567 C   0  0  0  0  0  0  0  0  0  0  0  0
  -22.2628   -9.7194   22.0818 C   0  0  0  0  0  0  0  0  0  0  0  0
  -24.8590  -25.1704   22.4772 C   0  0  0  0  0  0  0  0  0  0  0  0
  -22.0840   -6.1549   23.6199 C   0  0  0  0  0  0  0  0  0  0  0  0
  -22.3219   -4.8775   24.1271 C   0  0  0  0  0  0  0  0  0  0  0  0
  -25.1497  -26.3344   20.3844 C   0  0  0  0  0  0  0  0  0  0  0  0
  -21.3223   -3.9075   22.1530 C   0  0  0  0  0  0  0  0  0  0  0  0
  -24.5101  -10.0450   21.2568 C   0  0  0  0  0  0  0  0  0  0  0  0
  -29.5616  -19.5534   21.9803 C   0  0  0  0  0  0  0  0  0  0  0  0
  -25.9099  -11.7015   19.9135 C   0  0  0  0  0  0  0  0  0  0  0  0
  -18.0918  -28.8516   24.2374 C   0  0  0  0  0  0  0  0  0  0  0  0
  -24.3159  -27.5313   22.3162 C   0  0  0  0  0  0  0  0  0  0  0  0
  -19.0086  -28.2488   23.3550 C   0  0  0  0  0  0  0  0  0  0  0  0
  -24.7009  -27.5291   20.9679 C   0  0  0  0  0  0  0  0  0  0  0  0
  -29.4656  -18.1648   21.8899 C   0  0  0  0  0  0  0  0  0  0  0  0
  -30.0388  -17.3604   22.8748 C   0  0  0  0  0  0  0  0  0  0  0  0
  -22.3061   -8.3863   21.6734 C   0  0  0  0  0  0  0  0  0  0  0  0
  -25.2266  -25.1614   21.1348 C   0  0  0  0  0  0  0  0  0  0  0  0
  -21.4652   -6.3086   22.3792 C   0  0  0  0  0  0  0  0  0  0  0  0
  -21.9411   -3.7538   23.3937 C   0  0  0  0  0  0  0  0  0  0  0  0
  -21.0844   -5.1849   21.6458 C   0  0  0  0  0  0  0  0  0  0  0  0
  -25.6484  -10.9021   21.0424 C   0  0  0  0  0  0  0  0  0  0  0  0
  -27.1044  -12.3169   20.1979 C   0  0  0  0  0  0  0  0  0  0  0  0
  -28.9629  -20.4368   20.9474 C   0  0  0  0  0  0  0  0  0  0  0  0
  -25.1416  -11.8726   18.7151 C   0  0  0  0  0  0  0  0  0  0  0  0
  -21.9434  -29.4708   21.4718 C   0  0  0  0  0  0  0  0  0  0  0  0
  -24.3625  -31.2771   20.2853 C   0  0  0  0  0  0  0  0  0  0  0  0
  -27.3362  -22.2612   20.5999 C   0  0  0  0  0  0  0  0  0  0  0  0
  -27.5602  -31.4200   19.1017 C   0  0  0  0  0  0  0  0  0  0  0  0
  -30.4755  -15.0231   23.7071 C   0  0  0  0  0  0  0  0  0  0  0  0
  -17.5933  -30.2589   24.0239 C   0  0  0  0  0  0  0  0  0  0  0  0
  -23.8542  -28.8026   22.9744 C   0  0  0  0  0  0  0  0  0  0  0  0
  -24.6384  -28.7745   20.1233 C   0  0  0  0  0  0  0  0  0  0  0  0
  -18.4691  -31.0787   23.0798 C   0  0  0  0  0  0  0  0  0  0  0  0
  -30.4470  -11.4682   23.9031 C   0  0  0  0  0  0  0  0  0  0  0  0
  -18.8109  -30.2706   21.8320 C   0  0  0  0  0  0  0  0  0  0  0  0
  -29.2176  -11.0697   23.0834 C   0  0  0  0  0  0  0  0  0  0  0  0
  -30.2111  -12.7562   24.6899 C   0  0  0  0  0  0  0  0  0  0  0  0
  -28.5067  -13.4949   23.0717 C   0  0  0  0  0  0  0  0  0  0  0  0
  -19.6067  -29.0102   22.1919 C   0  0  1  0  0  0  0  0  0  0  0  0
  -23.3112  -29.8262   21.9821 C   0  0  1  0  0  0  0  0  0  0  0  0
  -28.7187  -12.2385   22.2113 C   0  0  2  0  0  0  0  0  0  0  0  0
  -28.7467  -17.5389   20.7353 C   0  0  0  0  0  0  0  0  0  0  0  0
  -29.2467  -33.0292   18.1723 C   0  0  0  0  0  0  0  0  0  0  0  0
  -22.8809  -31.2855   17.6179 C   0  0  0  0  0  0  0  0  0  0  0  0
  -24.9976  -32.0542   16.5240 C   0  0  0  0  0  0  0  0  0  0  0  0
  -23.9000  -33.4795   18.2521 C   0  0  0  0  0  0  0  0  0  0  0  0
  -29.4508  -30.8992   21.3183 C   0  0  0  0  0  0  0  0  0  0  0  0
  -26.3408  -23.0769   21.3979 C   0  0  0  0  0  0  0  0  0  1  0  0
  -25.0841  -31.3614   18.9620 C   0  0  1  0  0  0  0  0  0  0  0  0
  -28.7134  -32.3526   19.4255 C   0  0  2  0  0  0  0  0  0  0  0  0
  -24.2151  -32.0210   17.8541 C   0  0  0  0  0  0  0  0  0  0  0  0
  -26.6003  -10.9986   21.9743 N   0  0  0  0  0  0  0  0  0  0  0  0
  -27.4717  -11.8659   21.4315 N   0  0  0  0  0  0  0  0  0  0  0  0
  -24.1745  -29.9909   20.8108 N   0  0  0  0  0  0  0  0  0  0  0  0
  -29.7442  -13.8199   23.7981 N   0  0  0  0  0  0  0  0  0  0  0  0
  -27.8660  -13.1942   19.5104 N   0  0  0  0  0  0  0  0  0  0  0  0
  -23.9386  -11.1653   18.5860 N   0  0  0  0  0  0  0  0  0  0  0  0
  -29.9541  -15.9478   22.8029 N   0  0  0  0  0  0  0  0  0  0  0  0
  -27.9942  -21.3290   21.4038 N   0  0  0  0  0  0  0  0  0  0  0  0
  -20.9884  -29.3450   22.4625 N   0  0  0  0  0  0  0  0  0  0  0  0
  -26.3414  -32.0527   19.2259 N   0  0  0  0  0  0  0  0  0  0  0  0
  -29.8286  -31.5959   20.0618 N   0  3  0  0  0  0  0  0  0  0  0  0
  -29.3601  -20.3557   19.7882 O   0  0  0  0  0  0  0  0  0  0  0  0
  -25.5192  -12.6177   17.7793 O   0  0  0  0  0  0  0  0  0  0  0  0
  -21.7671  -29.3233   20.2681 O   0  0  0  0  0  0  0  0  0  0  0  0
  -23.9861  -32.3147   20.8360 O   0  0  0  0  0  0  0  0  0  0  0  0
  -27.5155  -22.4239   19.3962 O   0  0  0  0  0  0  0  0  0  0  0  0
  -27.7244  -30.2486   18.7681 O   0  0  0  0  0  0  0  0  0  0  0  0
  -31.5050  -15.2079   24.3614 O   0  0  0  0  0  0  0  0  0  0  0  0
  -21.2305   -7.5774   21.8767 O   0  0  0  0  0  0  0  0  0  0  0  0
  -25.6652  -24.0105   20.5562 O   0  0  0  0  0  0  0  0  0  1  0  0
  -22.1709   -2.5272   23.8802 F   0  0  0  0  0  0  0  0  0  0  0  0
  -20.4907   -5.3262   20.4528 F   0  0  0  0  0  0  0  0  0  0  0  0
  1  2  1  0  0  0  0
  1  7  2  0  0  0  0
  2  8  2  0  0  0  0
  3  6  2  0  0  0  0
  3 10  1  0  0  0  0
  4 11  2  0  0  0  0
  4 18  1  0  0  0  0
  5 12  1  0  0  0  0
  5 18  2  0  0  0  0
  6 19  1  0  0  0  0
  7 21  1  0  0  0  0
  8 23  1  0  0  0  0
  9 13  2  0  0  0  0
  9 22  1  0  0  0  0
 10 26  2  0  0  0  0
 11 27  1  0  0  0  0
 12 27  2  0  0  0  0
 13 28  1  0  0  0  0
 14 15  2  0  0  0  0
 14 29  1  0  0  0  0
 15 30  1  0  0  0  0
 16 24  1  0  0  0  0
 16 28  2  0  0  0  0
 17 30  2  0  0  0  0
 17 31  1  0  0  0  0
 18 32  1  0  0  0  0
 19 25  2  0  0  0  0
 19 34  1  0  0  0  0
 20 32  1  0  0  0  0
 20 33  2  0  0  0  0
 20 35  1  0  0  0  0
 21 23  2  0  0  0  0
 21 41  1  0  0  0  0
 22 24  2  0  0  0  0
 22 42  1  0  0  0  0
 23 50  1  0  0  0  0
 24 43  1  0  0  0  0
 25 26  1  0  0  0  0
 25 53  1  0  0  0  0
 26 69  1  0  0  0  0
 27 81  1  0  0  0  0
 28 82  1  0  0  0  0
 29 31  2  0  0  0  0
 29 81  1  0  0  0  0
 30 83  1  0  0  0  0
 31 84  1  0  0  0  0
 32 63  2  0  0  0  0
 33 64  1  0  0  0  0
 33 67  1  0  0  0  0
 34 70  1  0  0  0  0
 34 74  2  0  0  0  0
 35 68  1  0  0  0  0
 35 75  2  0  0  0  0
 36 51  1  0  0  0  0
 36 71  1  0  0  0  0
 36 76  2  0  0  0  0
 37 60  1  0  0  0  0
 37 65  1  0  0  0  0
 37 77  2  0  0  0  0
 38 59  1  0  0  0  0
 38 70  1  0  0  0  0
 38 78  2  0  0  0  0
 39 61  1  0  0  0  0
 39 72  1  0  0  0  0
 39 79  2  0  0  0  0
 40 66  1  0  0  0  0
 40 69  1  0  0  0  0
 40 80  2  0  0  0  0
 41 44  1  0  0  0  0
 42 51  1  0  0  0  0
 43 65  1  0  0  0  0
 44 46  1  0  0  0  0
 45 47  1  0  0  0  0
 45 48  1  0  0  0  0
 46 50  1  0  0  0  0
 47 52  1  0  0  0  0
 48 66  1  0  0  0  0
 49 52  1  0  0  0  0
 49 66  1  0  0  0  0
 50 71  1  0  0  0  0
 51 65  1  0  0  0  0
 52 64  1  0  0  0  0
 54 61  1  0  0  0  0
 55 62  1  0  0  0  0
 56 62  1  0  0  0  0
 57 62  1  0  0  0  0
 58 73  1  0  0  0  0
 59 82  1  0  0  0  0
 60 62  1  0  0  0  0
 60 72  1  0  0  0  0
 61 73  1  0  0  0  0
 63 64  1  0  0  0  0
M  CHG  1  73   1
M  ISO  4  40 100  59 101  69 100  82 101
M  END
> <Batch ID>
0061

> <Smiles>
CNC(C)C(=O)NC(C(=O)N1Cc2cc([101O:1][101CH2:1]C(=O)NC(=O)c3cccc([100NH:0][100C:0](=O)N4CCCC(n5nc(-c6ccc(Oc7ccc(F)cc7F)cc6)c(C(N)=O)c5N)C4)c3C)ccc2CC1C(=O)NC1CCCc2ccccc21)C(C)(C)C

> <Shape>
0.237

> <Color>
0.085

> <Negative vol penalty>
0.000

$$$$

  -OEChem-04042323073D

 86 95  0     1  0  0  0  0  0999 V2000
  -29.4649  -31.4209   26.5657 C   0  0  0  0  0  0  0  0  0  0  0  0
  -29.1604  -30.3894   25.6833 C   0  0  0  0  0  0  0  0  0  0  0  0
  -24.3416   -8.7648   21.4263 C   0  0  0  0  0  0  0  0  0  0  0  0
  -24.5632  -10.2416   23.3255 C   0  0  0  0  0  0  0  0  0  0  0  0
  -28.4423  -32.2012   27.1037 C   0  0  0  0  0  0  0  0  0  0  0  0
  -27.8329  -30.1368   25.3392 C   0  0  0  0  0  0  0  0  0  0  0  0
  -27.2254  -29.3753   20.3697 C   0  0  0  0  0  0  0  0  0  0  0  0
  -29.4678  -19.8765   17.7599 C   0  0  0  0  0  0  0  0  0  0  0  0
  -29.4708  -18.5201   18.0849 C   0  0  0  0  0  0  0  0  0  0  0  0
  -23.9601   -7.7276   22.2773 C   0  0  0  0  0  0  0  0  0  0  0  0
  -24.1817   -9.2044   24.1766 C   0  0  0  0  0  0  0  0  0  0  0  0
  -27.5856  -28.1253   19.8684 C   0  0  0  0  0  0  0  0  0  0  0  0
  -21.1732   -6.7567   23.9275 C   0  0  0  0  0  0  0  0  0  0  0  0
  -20.0783   -5.9788   23.5512 C   0  0  0  0  0  0  0  0  0  0  0  0
  -25.2669  -27.4598   19.8784 C   0  0  0  0  0  0  0  0  0  0  0  0
  -27.8745  -20.2964   19.5269 C   0  0  0  0  0  0  0  0  0  0  0  0
  -28.7968  -24.0087   16.9853 C   0  0  0  0  0  0  0  0  0  0  0  0
  -21.4807   -4.0115   23.5374 C   0  0  0  0  0  0  0  0  0  0  0  0
  -24.6432  -10.0218   21.9504 C   0  0  0  0  0  0  0  0  0  0  0  0
  -24.1964  -12.0300   20.4421 C   0  0  0  0  0  0  0  0  0  0  0  0
  -27.1024  -31.9643   26.7585 C   0  0  0  0  0  0  0  0  0  0  0  0
  -25.8821  -29.6737   20.6398 C   0  0  0  0  0  0  0  0  0  0  0  0
  -26.7913  -30.9138   25.8741 C   0  0  0  0  0  0  0  0  0  0  0  0
  -24.8920  -28.7153   20.3806 C   0  0  0  0  0  0  0  0  0  0  0  0
  -27.8775  -18.9399   19.8519 C   0  0  0  0  0  0  0  0  0  0  0  0
  -28.5195  -24.3332   18.3361 C   0  0  0  0  0  0  0  0  0  0  0  0
  -28.6697  -20.7647   18.4809 C   0  0  0  0  0  0  0  0  0  0  0  0
  -28.6757  -18.0517   19.1309 C   0  0  0  0  0  0  0  0  0  0  0  0
  -23.8802   -7.9474   23.6525 C   0  0  0  0  0  0  0  0  0  0  0  0
  -26.6067  -27.1663   19.6254 C   0  0  0  0  0  0  0  0  0  0  0  0
  -22.4219   -6.1620   24.1088 C   0  0  0  0  0  0  0  0  0  0  0  0
  -20.2320   -4.6062   23.3561 C   0  0  0  0  0  0  0  0  0  0  0  0
  -22.5756   -4.7895   23.9137 C   0  0  0  0  0  0  0  0  0  0  0  0
  -25.0379  -11.0935   21.0719 C   0  0  0  0  0  0  0  0  0  0  0  0
  -25.0504  -12.8292   19.7220 C   0  0  0  0  0  0  0  0  0  0  0  0
  -28.8819  -22.6365   16.9010 C   0  0  0  0  0  0  0  0  0  0  0  0
  -28.4437  -23.1494   19.0363 C   0  0  0  0  0  0  0  0  0  0  0  0
  -22.7703  -12.1655   20.5026 C   0  0  0  0  0  0  0  0  0  0  0  0
  -24.2351  -30.4393   23.2485 C   0  0  0  0  0  0  0  0  0  0  0  0
  -21.8213  -30.8706   21.1249 C   0  0  0  0  0  0  0  0  0  0  0  0
  -20.4791  -30.1326   18.0751 C   0  0  0  0  0  0  0  0  0  0  0  0
  -29.7522  -15.7791   19.2813 C   0  0  0  0  0  0  0  0  0  0  0  0
  -26.0275  -32.8038   27.4023 C   0  0  0  0  0  0  0  0  0  0  0  0
  -25.5071  -31.0361   21.1552 C   0  0  0  0  0  0  0  0  0  0  0  0
  -23.4336  -28.9929   20.6347 C   0  0  0  0  0  0  0  0  0  0  0  0
  -24.6775  -32.7115   26.6957 C   0  0  0  0  0  0  0  0  0  0  0  0
  -29.9694  -12.2795   18.6627 C   0  0  0  0  0  0  0  0  0  0  0  0
  -24.3304  -31.2567   26.3957 C   0  0  0  0  0  0  0  0  0  0  0  0
  -28.6366  -11.7360   19.1825 C   0  0  0  0  0  0  0  0  0  0  0  0
  -30.4943  -13.4208   19.5320 C   0  0  0  0  0  0  0  0  0  0  0  0
  -28.2117  -13.9749   20.2751 C   0  0  0  0  0  0  0  0  0  0  0  0
  -25.3655  -30.6248   25.4573 C   0  0  1  0  0  0  0  0  0  0  0  0
  -24.1640  -31.0525   21.8786 C   0  0  1  0  0  0  0  0  0  0  0  0
  -27.6111  -12.8669   19.3946 C   0  0  2  0  0  0  0  0  0  0  0  0
  -27.0151  -18.4650   20.9761 C   0  0  0  0  0  0  0  0  0  0  0  0
  -18.4786  -30.6072   16.6364 C   0  0  0  0  0  0  0  0  0  0  0  0
  -20.1446  -28.9823   22.8376 C   0  0  0  0  0  0  0  0  0  0  0  0
  -18.5649  -28.7483   20.9094 C   0  0  0  0  0  0  0  0  0  0  0  0
  -18.9112  -30.9784   21.9722 C   0  0  0  0  0  0  0  0  0  0  0  0
  -22.1485  -31.3402   15.9506 C   0  0  0  0  0  0  0  0  0  0  0  0
  -28.3431  -25.7141   18.8958 C   0  0  0  0  0  0  0  0  0  1  0  0
  -20.7440  -29.9910   20.5377 C   0  0  1  0  0  0  0  0  0  0  0  0
  -19.8993  -31.0200   16.9884 C   0  0  2  0  0  0  0  0  0  0  0  0
  -19.6188  -29.6688   21.5611 C   0  0  0  0  0  0  0  0  0  0  0  0
  -26.3274  -11.2792   20.7776 N   0  0  0  0  0  0  0  0  0  0  0  0
  -28.6659  -22.1247   18.1539 N   0  0  0  0  0  0  0  0  0  0  0  0
  -26.3026  -12.3416   19.9549 N   0  0  0  0  0  0  0  0  0  0  0  0
  -23.1179  -30.3375   21.1446 N   0  0  0  0  0  0  0  0  0  0  0  0
  -29.4706  -14.4569   19.6854 N   0  0  0  0  0  0  0  0  0  0  0  0
  -24.8447  -13.8944   18.9186 N   0  0  0  0  0  0  0  0  0  0  0  0
  -22.0460  -11.2602   21.2901 N   0  0  0  0  0  0  0  0  0  0  0  0
  -28.6920  -16.6701   19.4448 N   0  0  0  0  0  0  0  0  0  0  0  0
  -25.1396  -31.0534   24.0936 N   0  0  0  0  0  0  0  0  0  0  0  0
  -20.2787  -30.6658   19.3309 N   0  0  0  0  0  0  0  0  0  0  0  0
  -20.7316  -30.9391   15.7548 N   0  3  0  0  0  0  0  0  0  0  0  0
  -22.1550  -13.0526   19.8638 O   0  0  0  0  0  0  0  0  0  0  0  0
  -23.5211  -29.4809   23.5193 O   0  0  0  0  0  0  0  0  0  0  0  0
  -21.5245  -31.9922   21.5439 O   0  0  0  0  0  0  0  0  0  0  0  0
  -21.0492  -29.0708   17.8344 O   0  0  0  0  0  0  0  0  0  0  0  0
  -30.8436  -16.0917   18.7986 O   0  0  0  0  0  0  0  0  0  0  0  0
  -29.1229  -21.8514   15.8578 O   0  0  0  0  0  0  0  0  0  0  0  0
  -28.2088  -22.9194   20.3233 O   0  0  0  0  0  0  0  0  0  0  0  0
  -23.5078   -6.9356   24.4832 O   0  0  0  0  0  0  0  0  0  0  0  0
  -26.9556  -25.9451   19.1367 O   0  0  0  0  0  0  0  0  0  1  0  0
  -19.1801   -3.8591   22.9962 F   0  0  0  0  0  0  0  0  0  0  0  0
  -23.7725   -4.2123   24.0875 F   0  0  0  0  0  0  0  0  0  0  0  0
  1  2  1  0  0  0  0
  1  5  2  0  0  0  0
  2  6  2  0  0  0  0
  3 10  2  0  0  0  0
  3 19  1  0  0  0  0
  4 11  1  0  0  0  0
  4 19  2  0  0  0  0
  5 21  1  0  0  0  0
  6 23  1  0  0  0  0
  7 12  2  0  0  0  0
  7 22  1  0  0  0  0
  8  9  2  0  0  0  0
  8 27  1  0  0  0  0
  9 28  1  0  0  0  0
 10 29  1  0  0  0  0
 11 29  2  0  0  0  0
 12 30  1  0  0  0  0
 13 14  2  0  0  0  0
 13 31  1  0  0  0  0
 14 32  1  0  0  0  0
 15 24  1  0  0  0  0
 15 30  2  0  0  0  0
 16 25  1  0  0  0  0
 16 27  2  0  0  0  0
 17 26  1  0  0  0  0
 17 36  2  0  0  0  0
 18 32  2  0  0  0  0
 18 33  1  0  0  0  0
 19 34  1  0  0  0  0
 20 34  1  0  0  0  0
 20 35  2  0  0  0  0
 20 38  1  0  0  0  0
 21 23  2  0  0  0  0
 21 43  1  0  0  0  0
 22 24  2  0  0  0  0
 22 44  1  0  0  0  0
 23 52  1  0  0  0  0
 24 45  1  0  0  0  0
 25 28  2  0  0  0  0
 25 55  1  0  0  0  0
 26 37  2  0  0  0  0
 26 61  1  0  0  0  0
 27 66  1  0  0  0  0
 28 72  1  0  0  0  0
 29 83  1  0  0  0  0
 30 84  1  0  0  0  0
 31 33  2  0  0  0  0
 31 83  1  0  0  0  0
 32 85  1  0  0  0  0
 33 86  1  0  0  0  0
 34 65  2  0  0  0  0
 35 67  1  0  0  0  0
 35 70  1  0  0  0  0
 36 66  1  0  0  0  0
 36 81  1  0  0  0  0
 37 66  1  0  0  0  0
 37 82  1  0  0  0  0
 38 71  1  0  0  0  0
 38 76  2  0  0  0  0
 39 53  1  0  0  0  0
 39 73  1  0  0  0  0
 39 77  2  0  0  0  0
 40 62  1  0  0  0  0
 40 68  1  0  0  0  0
 40 78  2  0  0  0  0
 41 63  1  0  0  0  0
 41 74  1  0  0  0  0
 41 79  2  0  0  0  0
 42 69  1  0  0  0  0
 42 72  1  0  0  0  0
 42 80  2  0  0  0  0
 43 46  1  0  0  0  0
 44 53  1  0  0  0  0
 45 68  1  0  0  0  0
 46 48  1  0  0  0  0
 47 49  1  0  0  0  0
 47 50  1  0  0  0  0
 48 52  1  0  0  0  0
 49 54  1  0  0  0  0
 50 69  1  0  0  0  0
 51 54  1  0  0  0  0
 51 69  1  0  0  0  0
 52 73  1  0  0  0  0
 53 68  1  0  0  0  0
 54 67  1  0  0  0  0
 56 63  1  0  0  0  0
 57 64  1  0  0  0  0
 58 64  1  0  0  0  0
 59 64  1  0  0  0  0
 60 75  1  0  0  0  0
 61 84  1  0  0  0  0
 62 64  1  0  0  0  0
 62 74  1  0  0  0  0
 63 75  1  0  0  0  0
 65 67  1  0  0  0  0
M  CHG  1  75   1
M  ISO  4  42 100  61 101  72 100  84 101
M  END
> <Batch ID>
0061

> <Smiles>
CNC(C)C(=O)NC(C(=O)N1Cc2cc([101O:1][101CH2:1]C3CC(=O)N(c4ccc([100NH:0][100C:0](=O)N5CCCC(n6nc(-c7ccc(Oc8ccc(F)cc8F)cc7)c(C(N)=O)c6N)C5)c(C)c4)C3=O)ccc2CC1C(=O)NC1CCCc2ccccc21)C(C)(C)C

> <Shape>
0.338

> <Color>
0.107

> <Negative vol penalty>
0.000

$$$$

  -OEChem-04042323073D

 86 94  0     1  0  0  0  0  0999 V2000
  -26.0476  -21.5598   15.9060 C   0  0  0  0  0  0  0  0  0  0  0  0
  -26.8198  -20.7477   16.7303 C   0  0  0  0  0  0  0  0  0  0  0  0
  -28.9596  -20.4504   23.5440 C   0  0  0  0  0  0  0  0  0  0  0  0
  -24.1429  -29.8676   20.2345 C   0  0  0  0  0  0  0  0  0  0  0  0
  -24.1452  -28.5238   22.2423 C   0  0  0  0  0  0  0  0  0  0  0  0
  -29.6365  -19.3652   22.9875 C   0  0  0  0  0  0  0  0  0  0  0  0
  -24.6860  -21.7168   16.1616 C   0  0  0  0  0  0  0  0  0  0  0  0
  -26.2310  -20.0928   17.8115 C   0  0  0  0  0  0  0  0  0  0  0  0
  -27.6860  -15.2563   18.1801 C   0  0  0  0  0  0  0  0  0  0  0  0
  -28.6379  -21.5525   22.7517 C   0  0  0  0  0  0  0  0  0  0  0  0
  -22.8132  -30.2169   20.4698 C   0  0  0  0  0  0  0  0  0  0  0  0
  -22.8154  -28.8732   22.4776 C   0  0  0  0  0  0  0  0  0  0  0  0
  -28.9450  -15.0100   18.7259 C   0  0  0  0  0  0  0  0  0  0  0  0
  -19.3128  -29.1220   23.4155 C   0  0  0  0  0  0  0  0  0  0  0  0
  -18.4323  -28.1070   23.7896 C   0  0  0  0  0  0  0  0  0  0  0  0
  -29.6702  -20.4841   20.8465 C   0  0  0  0  0  0  0  0  0  0  0  0
  -27.9167  -14.4761   20.8417 C   0  0  0  0  0  0  0  0  0  0  0  0
  -18.8812  -26.9528   21.7151 C   0  0  0  0  0  0  0  0  0  0  0  0
  -24.8089  -29.0210   21.1207 C   0  0  0  0  0  0  0  0  0  0  0  0
  -29.9918  -19.3820   21.6388 C   0  0  0  0  0  0  0  0  0  0  0  0
  -27.3319  -29.3351   21.3291 C   0  0  0  0  0  0  0  0  0  0  0  0
  -24.0783  -21.0559   17.2407 C   0  0  0  0  0  0  0  0  0  0  0  0
  -26.5316  -15.1247   18.9654 C   0  0  0  0  0  0  0  0  0  0  0  0
  -24.8602  -20.2422   18.0826 C   0  0  0  0  0  0  0  0  0  0  0  0
  -26.6440  -14.7189   20.3028 C   0  0  0  0  0  0  0  0  0  0  0  0
  -28.9932  -21.5693   21.4030 C   0  0  0  0  0  0  0  0  0  0  0  0
  -22.1494  -29.7197   21.5913 C   0  0  0  0  0  0  0  0  0  0  0  0
  -29.0608  -14.6227   20.0577 C   0  0  0  0  0  0  0  0  0  0  0  0
  -19.9775  -29.0525   22.1911 C   0  0  0  0  0  0  0  0  0  0  0  0
  -18.2165  -27.0224   22.9395 C   0  0  0  0  0  0  0  0  0  0  0  0
  -19.7617  -27.9679   21.3410 C   0  0  0  0  0  0  0  0  0  0  0  0
  -26.1823  -28.6593   20.8779 C   0  0  0  0  0  0  0  0  0  0  0  0
  -28.3799  -28.5974   20.8352 C   0  0  0  0  0  0  0  0  0  0  0  0
  -30.7128  -18.2255   21.0475 C   0  0  0  0  0  0  0  0  0  0  0  0
  -27.4425  -30.5234   22.1238 C   0  0  0  0  0  0  0  0  0  0  0  0
  -24.2330  -17.1002   19.9231 C   0  0  0  0  0  0  0  0  0  0  0  0
  -33.7261  -16.6864   21.7424 C   0  0  0  0  0  0  0  0  0  0  0  0
  -22.9182  -14.3768   21.0965 C   0  0  0  0  0  0  0  0  0  0  0  0
  -23.3769  -11.1807   22.2016 C   0  0  0  0  0  0  0  0  0  0  0  0
  -28.9452  -22.8657   19.2435 C   0  0  0  0  0  0  0  0  0  0  0  0
  -22.6126  -21.2939   17.5054 C   0  0  0  0  0  0  0  0  0  0  0  0
  -25.1790  -15.3681   18.3543 C   0  0  0  0  0  0  0  0  0  0  0  0
  -25.4342  -14.5435   21.1827 C   0  0  0  0  0  0  0  0  0  0  0  0
  -21.9897  -20.2683   18.4490 C   0  0  0  0  0  0  0  0  0  0  0  0
  -29.5412  -25.7141   17.1920 C   0  0  0  0  0  0  0  0  0  0  0  0
  -22.8843  -20.0492   19.6650 C   0  0  0  0  0  0  0  0  0  0  0  0
  -28.8573  -26.8552   17.9486 C   0  0  0  0  0  0  0  0  0  0  0  0
  -28.7562  -24.4084   17.3046 C   0  0  0  0  0  0  0  0  0  0  0  0
  -27.7498  -25.1353   19.4325 C   0  0  0  0  0  0  0  0  0  0  0  0
  -24.2529  -19.4956   19.2504 C   0  0  1  0  0  0  0  0  0  0  0  0
  -24.1077  -15.7018   19.3879 C   0  0  1  0  0  0  0  0  0  0  0  0
  -28.5372  -26.4554   19.4023 C   0  0  2  0  0  0  0  0  0  0  0  0
  -34.7209  -16.1524   20.7440 C   0  0  0  0  0  0  0  0  0  0  0  0
  -22.1192   -9.2183   23.1314 C   0  0  0  0  0  0  0  0  0  0  0  0
  -22.7337  -15.7793   23.8000 C   0  0  0  0  0  0  0  0  0  0  0  0
  -22.3838  -13.5384   24.8603 C   0  0  0  0  0  0  0  0  0  0  0  0
  -20.7341  -14.4022   23.2006 C   0  0  0  0  0  0  0  0  0  0  0  0
  -24.1517   -9.4570   19.9240 C   0  0  0  0  0  0  0  0  0  0  0  0
  -31.8890  -15.0660   22.2453 C   0  0  0  0  0  0  0  0  0  0  0  0
  -30.4497  -14.6358   21.9881 C   0  0  0  0  0  0  0  0  0  1  0  0
  -32.2643  -16.3423   21.4977 C   0  0  1  0  0  0  0  0  0  0  0  0
  -23.0038  -13.6250   22.4028 C   0  0  1  0  0  0  0  0  0  0  0  0
  -22.6518   -9.8879   21.8741 C   0  0  2  0  0  0  0  0  0  0  0  0
  -22.2370  -14.3413   23.5502 C   0  0  0  0  0  0  0  0  0  0  0  0
  -26.4725  -27.5757   20.1529 N   0  0  0  0  0  0  0  0  0  0  0  0
  -27.8163  -27.5650   20.1448 N   0  0  0  0  0  0  0  0  0  0  0  0
  -24.1342  -14.7994   20.5409 N   0  0  0  0  0  0  0  0  0  0  0  0
  -28.4933  -24.0913   18.7100 N   0  0  0  0  0  0  0  0  0  0  0  0
  -29.7193  -28.7376   20.9284 N   0  0  0  0  0  0  0  0  0  0  0  0
  -26.2657  -31.1558   22.5474 N   0  0  0  0  0  0  0  0  0  0  0  0
  -28.6660  -22.6887   20.5982 N   0  0  0  0  0  0  0  0  0  0  0  0
  -31.4880  -17.4772   21.9239 N   0  0  0  0  0  0  0  0  0  0  0  0
  -24.1577  -18.0823   18.9539 N   0  0  0  0  0  0  0  0  0  0  0  0
  -22.5363  -12.2711   22.1259 N   0  0  0  0  0  0  0  0  0  0  0  0
  -23.5722   -8.9369   21.1891 N   0  3  0  0  0  0  0  0  0  0  0  0
  -30.6084  -18.0051   19.8437 O   0  0  0  0  0  0  0  0  0  0  0  0
  -28.5520  -31.0192   22.4347 O   0  0  0  0  0  0  0  0  0  0  0  0
  -24.3851  -17.2753   21.1264 O   0  0  0  0  0  0  0  0  0  0  0  0
  -34.0977  -17.3309   22.7236 O   0  0  0  0  0  0  0  0  0  0  0  0
  -21.8138  -14.5754   20.5843 O   0  0  0  0  0  0  0  0  0  0  0  0
  -24.5689  -11.2190   22.4986 O   0  0  0  0  0  0  0  0  0  0  0  0
  -29.5601  -22.0462   18.5563 O   0  0  0  0  0  0  0  0  0  0  0  0
  -20.8520  -30.0606   21.8214 O   0  0  0  0  0  0  0  0  0  0  0  0
  -30.2885  -14.3823   20.5931 O   0  0  0  0  0  0  0  0  0  1  0  0
  -17.3721  -26.0470   23.2996 F   0  0  0  0  0  0  0  0  0  0  0  0
  -20.3983  -27.8950   20.1640 F   0  0  0  0  0  0  0  0  0  0  0  0
  1  2  1  0  0  0  0
  1  7  2  0  0  0  0
  2  8  2  0  0  0  0
  3  6  2  0  0  0  0
  3 10  1  0  0  0  0
  4 11  2  0  0  0  0
  4 19  1  0  0  0  0
  5 12  1  0  0  0  0
  5 19  2  0  0  0  0
  6 20  1  0  0  0  0
  7 22  1  0  0  0  0
  8 24  1  0  0  0  0
  9 13  2  0  0  0  0
  9 23  1  0  0  0  0
 10 26  2  0  0  0  0
 11 27  1  0  0  0  0
 12 27  2  0  0  0  0
 13 28  1  0  0  0  0
 14 15  2  0  0  0  0
 14 29  1  0  0  0  0
 15 30  1  0  0  0  0
 16 20  2  0  0  0  0
 16 26  1  0  0  0  0
 17 25  1  0  0  0  0
 17 28  2  0  0  0  0
 18 30  2  0  0  0  0
 18 31  1  0  0  0  0
 19 32  1  0  0  0  0
 20 34  1  0  0  0  0
 21 32  1  0  0  0  0
 21 33  2  0  0  0  0
 21 35  1  0  0  0  0
 22 24  2  0  0  0  0
 22 41  1  0  0  0  0
 23 25  2  0  0  0  0
 23 42  1  0  0  0  0
 24 50  1  0  0  0  0
 25 43  1  0  0  0  0
 26 71  1  0  0  0  0
 27 83  1  0  0  0  0
 28 84  1  0  0  0  0
 29 31  2  0  0  0  0
 29 83  1  0  0  0  0
 30 85  1  0  0  0  0
 31 86  1  0  0  0  0
 32 65  2  0  0  0  0
 33 66  1  0  0  0  0
 33 69  1  0  0  0  0
 34 72  1  0  0  0  0
 34 76  2  0  0  0  0
 35 70  1  0  0  0  0
 35 77  2  0  0  0  0
 36 51  1  0  0  0  0
 36 73  1  0  0  0  0
 36 78  2  0  0  0  0
 37 53  1  0  0  0  0
 37 61  1  0  0  0  0
 37 79  2  0  0  0  0
 38 62  1  0  0  0  0
 38 67  1  0  0  0  0
 38 80  2  0  0  0  0
 39 63  1  0  0  0  0
 39 74  1  0  0  0  0
 39 81  2  0  0  0  0
 40 68  1  0  0  0  0
 40 71  1  0  0  0  0
 40 82  2  0  0  0  0
 41 44  1  0  0  0  0
 42 51  1  0  0  0  0
 43 67  1  0  0  0  0
 44 46  1  0  0  0  0
 45 47  1  0  0  0  0
 45 48  1  0  0  0  0
 46 50  1  0  0  0  0
 47 52  1  0  0  0  0
 48 68  1  0  0  0  0
 49 52  1  0  0  0  0
 49 68  1  0  0  0  0
 50 73  1  0  0  0  0
 51 67  1  0  0  0  0
 52 66  1  0  0  0  0
 54 63  1  0  0  0  0
 55 64  1  0  0  0  0
 56 64  1  0  0  0  0
 57 64  1  0  0  0  0
 58 75  1  0  0  0  0
 59 60  1  0  0  0  0
 59 61  1  0  0  0  0
 60 84  1  0  0  0  0
 61 72  1  0  0  0  0
 62 64  1  0  0  0  0
 62 74  1  0  0  0  0
 63 75  1  0  0  0  0
 65 66  1  0  0  0  0
M  CHG  1  75   1
M  ISO  4  40 100  60 101  71 100  84 101
M  END
> <Batch ID>
0061

> <Smiles>
CNC(C)C(=O)NC(C(=O)N1Cc2cc([101O:1][101CH2:1]CC(NC(=O)c3cccc([100NH:0][100C:0](=O)N4CCCC(n5nc(-c6ccc(Oc7ccc(F)cc7F)cc6)c(C(N)=O)c5N)C4)c3)C(C)=O)ccc2CC1C(=O)NC1CCCc2ccccc21)C(C)(C)C

> <Shape>
0.284

> <Color>
0.068

> <Negative vol penalty>
0.000

$$$$

  -OEChem-04042323073D

 85 93  0     1  0  0  0  0  0999 V2000
  -22.0564  -31.1991   26.6935 C   0  0  0  0  0  0  0  0  0  0  0  0
  -23.3089  -30.6321   26.4808 C   0  0  0  0  0  0  0  0  0  0  0  0
  -23.1866   -9.6951   20.2183 C   0  0  0  0  0  0  0  0  0  0  0  0
  -23.8219  -10.0685   22.5192 C   0  0  0  0  0  0  0  0  0  0  0  0
  -32.0425  -18.9893   21.4212 C   0  0  0  0  0  0  0  0  0  0  0  0
  -20.9729  -30.8077   25.9083 C   0  0  0  0  0  0  0  0  0  0  0  0
  -23.4783  -29.6725   25.4833 C   0  0  0  0  0  0  0  0  0  0  0  0
  -28.4298  -28.8423   21.9762 C   0  0  0  0  0  0  0  0  0  0  0  0
  -31.6129  -17.6939   21.1333 C   0  0  0  0  0  0  0  0  0  0  0  0
  -22.4708   -8.5604   20.6001 C   0  0  0  0  0  0  0  0  0  0  0  0
  -23.1061   -8.9338   22.9010 C   0  0  0  0  0  0  0  0  0  0  0  0
  -29.4970  -27.9488   22.0566 C   0  0  0  0  0  0  0  0  0  0  0  0
  -19.4785   -7.8604   22.0104 C   0  0  0  0  0  0  0  0  0  0  0  0
  -18.2019   -7.6889   21.4753 C   0  0  0  0  0  0  0  0  0  0  0  0
  -28.3762  -26.4799   20.5056 C   0  0  0  0  0  0  0  0  0  0  0  0
  -29.4751  -18.1769   22.1501 C   0  0  0  0  0  0  0  0  0  0  0  0
  -18.8986   -5.5991   20.4830 C   0  0  0  0  0  0  0  0  0  0  0  0
  -23.8622  -10.4491   21.1779 C   0  0  0  0  0  0  0  0  0  0  0  0
  -31.1885  -19.8785   22.0737 C   0  0  0  0  0  0  0  0  0  0  0  0
  -24.1222  -12.9419   20.7025 C   0  0  0  0  0  0  0  0  0  0  0  0
  -21.1311  -29.8499   24.8943 C   0  0  0  0  0  0  0  0  0  0  0  0
  -27.3210  -28.5557   21.1670 C   0  0  0  0  0  0  0  0  0  0  0  0
  -22.3955  -29.2670   24.6846 C   0  0  0  0  0  0  0  0  0  0  0  0
  -27.2974  -27.3726   20.4148 C   0  0  0  0  0  0  0  0  0  0  0  0
  -30.3292  -17.2877   21.4977 C   0  0  0  0  0  0  0  0  0  0  0  0
  -22.4306   -8.1798   21.9414 C   0  0  0  0  0  0  0  0  0  0  0  0
  -29.4691  -26.7661   21.3235 C   0  0  0  0  0  0  0  0  0  0  0  0
  -20.4653   -6.9013   21.7817 C   0  0  0  0  0  0  0  0  0  0  0  0
  -29.9048  -19.4723   22.4381 C   0  0  0  0  0  0  0  0  0  0  0  0
  -17.9119   -6.5582   20.7117 C   0  0  0  0  0  0  0  0  0  0  0  0
  -20.1753   -5.7707   21.0181 C   0  0  0  0  0  0  0  0  0  0  0  0
  -24.6022  -11.6210   20.7841 C   0  0  0  0  0  0  0  0  0  0  0  0
  -25.2056  -13.6758   20.2851 C   0  0  0  0  0  0  0  0  0  0  0  0
  -31.6662  -21.2530   22.3706 C   0  0  0  0  0  0  0  0  0  0  0  0
  -22.8140  -13.4593   20.9793 C   0  0  0  0  0  0  0  0  0  0  0  0
  -24.2197  -28.0973   21.6918 C   0  0  0  0  0  0  0  0  0  0  0  0
  -24.0802  -28.0243   18.4518 C   0  0  0  0  0  0  0  0  0  0  0  0
  -31.1934  -23.6443   21.9785 C   0  0  0  0  0  0  0  0  0  0  0  0
  -25.6942  -27.4838   15.4938 C   0  0  0  0  0  0  0  0  0  0  0  0
  -30.6151  -14.9652   20.5648 C   0  0  0  0  0  0  0  0  0  0  0  0
  -19.9202  -29.4240   24.1025 C   0  0  0  0  0  0  0  0  0  0  0  0
  -26.1898  -29.5424   21.0706 C   0  0  0  0  0  0  0  0  0  0  0  0
  -26.1395  -27.0277   19.5154 C   0  0  0  0  0  0  0  0  0  0  0  0
  -20.2649  -28.6750   22.8179 C   0  0  0  0  0  0  0  0  0  0  0  0
  -29.7134  -12.1870   18.5286 C   0  0  0  0  0  0  0  0  0  0  0  0
  -21.3225  -27.6096   23.0885 C   0  0  0  0  0  0  0  0  0  0  0  0
  -28.2638  -11.9007   18.9272 C   0  0  0  0  0  0  0  0  0  0  0  0
  -30.5544  -12.6269   19.7257 C   0  0  0  0  0  0  0  0  0  0  0  0
  -28.5523  -13.4640   20.8919 C   0  0  0  0  0  0  0  0  0  0  0  0
  -22.6245  -28.2411   23.5959 C   0  0  1  0  0  0  0  0  0  0  0  0
  -24.8804  -28.9074   20.6126 C   0  0  1  0  0  0  0  0  0  0  0  0
  -27.6505  -13.0800   19.7074 C   0  0  2  0  0  0  0  0  0  0  0  0
  -25.3084  -27.4632   13.0143 C   0  0  0  0  0  0  0  0  0  0  0  0
  -22.6540  -25.3382   18.6985 C   0  0  0  0  0  0  0  0  0  0  0  0
  -23.1447  -24.9341   16.2769 C   0  0  0  0  0  0  0  0  0  0  0  0
  -21.7135  -26.8622   16.9528 C   0  0  0  0  0  0  0  0  0  0  0  0
  -27.6766  -29.6361   15.0505 C   0  0  0  0  0  0  0  0  0  0  0  0
  -29.0968  -20.3349   24.5018 C   0  0  0  0  0  0  0  0  0  0  0  0
  -30.2099  -24.5087   21.2179 C   0  0  0  0  0  0  0  0  0  1  0  0
  -24.2004  -26.9476   17.4005 C   0  0  1  0  0  0  0  0  0  0  0  0
  -25.7445  -28.2940   14.2111 C   0  0  2  0  0  0  0  0  0  0  0  0
  -22.9492  -26.0258   17.3505 C   0  0  0  0  0  0  0  0  0  0  0  0
  -25.8902  -11.5186   20.4456 N   0  0  0  0  0  0  0  0  0  0  0  0
  -26.2287  -12.7845   20.1471 N   0  0  0  0  0  0  0  0  0  0  0  0
  -25.0547  -28.0215   19.4598 N   0  0  0  0  0  0  0  0  0  0  0  0
  -29.9139  -13.7502   20.4133 N   0  0  0  0  0  0  0  0  0  0  0  0
  -25.3734  -14.9900   20.0263 N   0  0  0  0  0  0  0  0  0  0  0  0
  -21.8176  -12.5672   21.3984 N   0  0  0  0  0  0  0  0  0  0  0  0
  -29.8932  -15.9715   21.2056 N   0  0  0  0  0  0  0  0  0  0  0  0
  -30.9273  -22.2862   21.7967 N   0  0  0  0  0  0  0  0  0  0  0  0
  -23.3647  -28.8246   22.4977 N   0  0  0  0  0  0  0  0  0  0  0  0
  -24.4881  -27.6330   16.1452 N   0  0  0  0  0  0  0  0  0  0  0  0
  -27.1294  -28.7851   13.9626 N   0  3  0  0  0  0  0  0  0  0  0  0
  -32.6393  -21.4022   23.1048 O   0  0  0  0  0  0  0  0  0  0  0  0
  -22.5325  -14.6741   20.8428 O   0  0  0  0  0  0  0  0  0  0  0  0
  -24.4660  -26.9005   21.7854 O   0  0  0  0  0  0  0  0  0  0  0  0
  -23.1597  -28.8422   18.3773 O   0  0  0  0  0  0  0  0  0  0  0  0
  -32.1018  -24.1126   22.6591 O   0  0  0  0  0  0  0  0  0  0  0  0
  -26.6297  -26.7852   15.8776 O   0  0  0  0  0  0  0  0  0  0  0  0
  -31.7611  -15.1113   20.1319 O   0  0  0  0  0  0  0  0  0  0  0  0
  -21.7320   -7.0727   22.3143 O   0  0  0  0  0  0  0  0  0  0  0  0
  -29.0559  -20.3264   23.0765 O   0  0  0  0  0  0  0  0  0  0  0  0
  -30.5092  -25.8919   21.4006 O   0  0  0  0  0  0  0  0  0  1  0  0
  -16.6854   -6.3928   20.1992 F   0  0  0  0  0  0  0  0  0  0  0  0
  -21.1188   -4.8453   20.7960 F   0  0  0  0  0  0  0  0  0  0  0  0
  1  2  1  0  0  0  0
  1  6  2  0  0  0  0
  2  7  2  0  0  0  0
  3 10  2  0  0  0  0
  3 18  1  0  0  0  0
  4 11  1  0  0  0  0
  4 18  2  0  0  0  0
  5  9  2  0  0  0  0
  5 19  1  0  0  0  0
  6 21  1  0  0  0  0
  7 23  1  0  0  0  0
  8 12  2  0  0  0  0
  8 22  1  0  0  0  0
  9 25  1  0  0  0  0
 10 26  1  0  0  0  0
 11 26  2  0  0  0  0
 12 27  1  0  0  0  0
 13 14  2  0  0  0  0
 13 28  1  0  0  0  0
 14 30  1  0  0  0  0
 15 24  1  0  0  0  0
 15 27  2  0  0  0  0
 16 25  2  0  0  0  0
 16 29  1  0  0  0  0
 17 30  2  0  0  0  0
 17 31  1  0  0  0  0
 18 32  1  0  0  0  0
 19 29  2  0  0  0  0
 19 34  1  0  0  0  0
 20 32  1  0  0  0  0
 20 33  2  0  0  0  0
 20 35  1  0  0  0  0
 21 23  2  0  0  0  0
 21 41  1  0  0  0  0
 22 24  2  0  0  0  0
 22 42  1  0  0  0  0
 23 50  1  0  0  0  0
 24 43  1  0  0  0  0
 25 69  1  0  0  0  0
 26 81  1  0  0  0  0
 27 83  1  0  0  0  0
 28 31  2  0  0  0  0
 28 81  1  0  0  0  0
 29 82  1  0  0  0  0
 30 84  1  0  0  0  0
 31 85  1  0  0  0  0
 32 63  2  0  0  0  0
 33 64  1  0  0  0  0
 33 67  1  0  0  0  0
 34 70  1  0  0  0  0
 34 74  2  0  0  0  0
 35 68  1  0  0  0  0
 35 75  2  0  0  0  0
 36 51  1  0  0  0  0
 36 71  1  0  0  0  0
 36 76  2  0  0  0  0
 37 60  1  0  0  0  0
 37 65  1  0  0  0  0
 37 77  2  0  0  0  0
 38 59  1  0  0  0  0
 38 70  1  0  0  0  0
 38 78  2  0  0  0  0
 39 61  1  0  0  0  0
 39 72  1  0  0  0  0
 39 79  2  0  0  0  0
 40 66  1  0  0  0  0
 40 69  1  0  0  0  0
 40 80  2  0  0  0  0
 41 44  1  0  0  0  0
 42 51  1  0  0  0  0
 43 65  1  0  0  0  0
 44 46  1  0  0  0  0
 45 47  1  0  0  0  0
 45 48  1  0  0  0  0
 46 50  1  0  0  0  0
 47 52  1  0  0  0  0
 48 66  1  0  0  0  0
 49 52  1  0  0  0  0
 49 66  1  0  0  0  0
 50 71  1  0  0  0  0
 51 65  1  0  0  0  0
 52 64  1  0  0  0  0
 53 61  1  0  0  0  0
 54 62  1  0  0  0  0
 55 62  1  0  0  0  0
 56 62  1  0  0  0  0
 57 73  1  0  0  0  0
 58 82  1  0  0  0  0
 59 83  1  0  0  0  0
 60 62  1  0  0  0  0
 60 72  1  0  0  0  0
 61 73  1  0  0  0  0
 63 64  1  0  0  0  0
M  CHG  1  73   1
M  ISO  4  40 100  59 101  69 100  83 101
M  END
> <Batch ID>
0061

> <Smiles>
CNC(C)C(=O)NC(C(=O)N1Cc2cc([101O:1][101CH2:1]C(=O)NC(=O)c3ccc([100NH:0][100C:0](=O)N4CCCC(n5nc(-c6ccc(Oc7ccc(F)cc7F)cc6)c(C(N)=O)c5N)C4)cc3OC)ccc2CC1C(=O)NC1CCCc2ccccc21)C(C)(C)C

> <Shape>
0.269

> <Color>
0.189

> <Negative vol penalty>
0.000

$$$$

  -OEChem-04042323073D

 84 92  0     1  0  0  0  0  0999 V2000
  -28.8514  -32.4805   26.7758 C   0  0  0  0  0  0  0  0  0  0  0  0
  -29.4582  -31.2331   26.6697 C   0  0  0  0  0  0  0  0  0  0  0  0
  -23.0867   -9.8484   19.9468 C   0  0  0  0  0  0  0  0  0  0  0  0
  -23.8342   -9.8786   22.2441 C   0  0  0  0  0  0  0  0  0  0  0  0
  -32.6098  -17.5454   23.4442 C   0  0  0  0  0  0  0  0  0  0  0  0
  -28.0434  -32.9516   25.7419 C   0  0  0  0  0  0  0  0  0  0  0  0
  -29.2562  -30.4555   25.5300 C   0  0  0  0  0  0  0  0  0  0  0  0
  -33.2982  -26.7005   22.8714 C   0  0  0  0  0  0  0  0  0  0  0  0
  -32.0304  -16.6511   22.5442 C   0  0  0  0  0  0  0  0  0  0  0  0
  -22.3465   -8.6942   20.2028 C   0  0  0  0  0  0  0  0  0  0  0  0
  -23.0940   -8.7244   22.5001 C   0  0  0  0  0  0  0  0  0  0  0  0
  -33.4822  -25.3202   22.9400 C   0  0  0  0  0  0  0  0  0  0  0  0
  -19.8661   -7.9177   23.0923 C   0  0  0  0  0  0  0  0  0  0  0  0
  -19.1030   -7.8846   24.2594 C   0  0  0  0  0  0  0  0  0  0  0  0
  -32.1831  -25.0530   20.9250 C   0  0  0  0  0  0  0  0  0  0  0  0
  -29.8400  -17.4958   23.1150 C   0  0  0  0  0  0  0  0  0  0  0  0
  -20.3488   -5.9591   25.0193 C   0  0  0  0  0  0  0  0  0  0  0  0
  -23.8306  -10.4406   20.9675 C   0  0  0  0  0  0  0  0  0  0  0  0
  -31.8044  -18.4149   24.1797 C   0  0  0  0  0  0  0  0  0  0  0  0
  -24.1621  -12.9660   20.8273 C   0  0  0  0  0  0  0  0  0  0  0  0
  -27.8392  -32.1836   24.5848 C   0  0  0  0  0  0  0  0  0  0  0  0
  -32.5449  -27.2675   21.8334 C   0  0  0  0  0  0  0  0  0  0  0  0
  -28.4435  -30.9162   24.4802 C   0  0  0  0  0  0  0  0  0  0  0  0
  -31.9932  -26.4410   20.8441 C   0  0  0  0  0  0  0  0  0  0  0  0
  -30.4195  -18.3901   24.0151 C   0  0  0  0  0  0  0  0  0  0  0  0
  -30.6455  -16.6263   22.3796 C   0  0  0  0  0  0  0  0  0  0  0  0
  -22.3501   -8.1322   21.4795 C   0  0  0  0  0  0  0  0  0  0  0  0
  -32.9222  -24.4960   21.9683 C   0  0  0  0  0  0  0  0  0  0  0  0
  -20.8705   -6.9714   22.8886 C   0  0  0  0  0  0  0  0  0  0  0  0
  -19.3444   -6.9054   25.2230 C   0  0  0  0  0  0  0  0  0  0  0  0
  -21.1119   -5.9922   23.8522 C   0  0  0  0  0  0  0  0  0  0  0  0
  -24.5959  -11.6325   20.7035 C   0  0  0  0  0  0  0  0  0  0  0  0
  -25.2530  -13.7171   20.4634 C   0  0  0  0  0  0  0  0  0  0  0  0
  -22.8872  -13.4799   21.2349 C   0  0  0  0  0  0  0  0  0  0  0  0
  -32.4418  -19.3466   25.1217 C   0  0  0  0  0  0  0  0  0  0  0  0
  -29.8673  -28.9734   21.6782 C   0  0  0  0  0  0  0  0  0  0  0  0
  -30.6351  -29.1688   18.5326 C   0  0  0  0  0  0  0  0  0  0  0  0
  -32.6890  -21.1679   23.3641 C   0  0  0  0  0  0  0  0  0  0  0  0
  -32.2946  -27.8319   15.8669 C   0  0  0  0  0  0  0  0  0  0  0  0
  -30.7135  -14.7882   20.6582 C   0  0  0  0  0  0  0  0  0  0  0  0
  -26.9192  -32.7145   23.5140 C   0  0  0  0  0  0  0  0  0  0  0  0
  -32.3781  -28.7605   21.7588 C   0  0  0  0  0  0  0  0  0  0  0  0
  -31.1930  -27.0017   19.6979 C   0  0  0  0  0  0  0  0  0  0  0  0
  -27.0579  -31.9900   22.1776 C   0  0  0  0  0  0  0  0  0  0  0  0
  -29.6224  -12.3490   18.3051 C   0  0  0  0  0  0  0  0  0  0  0  0
  -27.0727  -30.4793   22.3884 C   0  0  0  0  0  0  0  0  0  0  0  0
  -28.1818  -12.0549   18.7295 C   0  0  0  0  0  0  0  0  0  0  0  0
  -30.5300  -12.5923   19.5096 C   0  0  0  0  0  0  0  0  0  0  0  0
  -28.6125  -13.3203   20.8743 C   0  0  0  0  0  0  0  0  0  0  0  0
  -28.2686  -30.0540   23.2489 C   0  0  1  0  0  0  0  0  0  0  0  0
  -31.1608  -29.1857   20.9436 C   0  0  1  0  0  0  0  0  0  0  0  0
  -27.6468  -13.1326   19.6928 C   0  0  2  0  0  0  0  0  0  0  0  0
  -29.5339  -19.3096   24.7912 C   0  0  0  0  0  0  0  0  0  0  0  0
  -32.7029  -28.1940   13.4175 C   0  0  0  0  0  0  0  0  0  0  0  0
  -27.8395  -28.1149   17.9133 C   0  0  0  0  0  0  0  0  0  0  0  0
  -28.6224  -27.6039   15.5907 C   0  0  0  0  0  0  0  0  0  0  0  0
  -28.6152  -29.9591   16.4128 C   0  0  0  0  0  0  0  0  0  0  0  0
  -35.2105  -28.1273   16.2782 C   0  0  0  0  0  0  0  0  0  0  0  0
  -33.2508  -22.5749   23.3312 C   0  0  0  0  0  0  0  0  0  1  0  0
  -30.3389  -28.3397   17.3063 C   0  0  1  0  0  0  0  0  0  0  0  0
  -33.2046  -28.4618   14.8279 C   0  0  2  0  0  0  0  0  0  0  0  0
  -28.8674  -28.4934   16.8283 C   0  0  0  0  0  0  0  0  0  0  0  0
  -25.8634  -11.5386   20.2928 N   0  0  0  0  0  0  0  0  0  0  0  0
  -26.2354  -12.8227   20.1554 N   0  0  0  0  0  0  0  0  0  0  0  0
  -31.0528  -28.4671   19.6723 N   0  0  0  0  0  0  0  0  0  0  0  0
  -29.9619  -13.6282   20.3750 N   0  0  0  0  0  0  0  0  0  0  0  0
  -25.4580  -15.0488   20.3799 N   0  0  0  0  0  0  0  0  0  0  0  0
  -21.8774  -12.5693   21.5746 N   0  0  0  0  0  0  0  0  0  0  0  0
  -30.0578  -15.7174   21.4651 N   0  0  0  0  0  0  0  0  0  0  0  0
  -32.8187  -20.6060   24.6473 N   0  0  0  0  0  0  0  0  0  0  0  0
  -29.4816  -30.0458   22.4597 N   0  0  0  0  0  0  0  0  0  0  0  0
  -31.3339  -28.7170   16.3083 N   0  0  0  0  0  0  0  0  0  0  0  0
  -34.5851  -27.9133   14.9477 N   0  3  0  0  0  0  0  0  0  0  0  0
  -22.6453  -14.7099   21.2802 O   0  0  0  0  0  0  0  0  0  0  0  0
  -29.2632  -27.9157   21.5446 O   0  0  0  0  0  0  0  0  0  0  0  0
  -30.5078  -30.3946   18.4790 O   0  0  0  0  0  0  0  0  0  0  0  0
  -32.1977  -20.6316   22.3761 O   0  0  0  0  0  0  0  0  0  0  0  0
  -32.4209  -26.6697   16.2461 O   0  0  0  0  0  0  0  0  0  0  0  0
  -31.8444  -14.9578   20.1952 O   0  0  0  0  0  0  0  0  0  0  0  0
  -21.6278   -7.0061   21.7297 O   0  0  0  0  0  0  0  0  0  0  0  0
  -33.0997  -23.1483   22.0333 O   0  0  0  0  0  0  0  0  0  1  0  0
  -18.6126   -6.8747   26.3444 F   0  0  0  0  0  0  0  0  0  0  0  0
  -22.0763   -5.0812   23.6626 F   0  0  0  0  0  0  0  0  0  0  0  0
  -32.7120  -18.9239   26.7247 S   0  0  0  0  0  0  0  0  0  0  0  0
  1  2  1  0  0  0  0
  1  6  2  0  0  0  0
  2  7  2  0  0  0  0
  3 10  2  0  0  0  0
  3 18  1  0  0  0  0
  4 11  1  0  0  0  0
  4 18  2  0  0  0  0
  5  9  2  0  0  0  0
  5 19  1  0  0  0  0
  6 21  1  0  0  0  0
  7 23  1  0  0  0  0
  8 12  2  0  0  0  0
  8 22  1  0  0  0  0
  9 26  1  0  0  0  0
 10 27  1  0  0  0  0
 11 27  2  0  0  0  0
 12 28  1  0  0  0  0
 13 14  2  0  0  0  0
 13 29  1  0  0  0  0
 14 30  1  0  0  0  0
 15 24  1  0  0  0  0
 15 28  2  0  0  0  0
 16 25  1  0  0  0  0
 16 26  2  0  0  0  0
 17 30  2  0  0  0  0
 17 31  1  0  0  0  0
 18 32  1  0  0  0  0
 19 25  2  0  0  0  0
 19 35  1  0  0  0  0
 20 32  1  0  0  0  0
 20 33  2  0  0  0  0
 20 34  1  0  0  0  0
 21 23  2  0  0  0  0
 21 41  1  0  0  0  0
 22 24  2  0  0  0  0
 22 42  1  0  0  0  0
 23 50  1  0  0  0  0
 24 43  1  0  0  0  0
 25 53  1  0  0  0  0
 26 69  1  0  0  0  0
 27 80  1  0  0  0  0
 28 81  1  0  0  0  0
 29 31  2  0  0  0  0
 29 80  1  0  0  0  0
 30 82  1  0  0  0  0
 31 83  1  0  0  0  0
 32 63  2  0  0  0  0
 33 64  1  0  0  0  0
 33 67  1  0  0  0  0
 34 68  1  0  0  0  0
 34 74  2  0  0  0  0
 35 70  1  0  0  0  0
 35 84  2  0  0  0  0
 36 51  1  0  0  0  0
 36 71  1  0  0  0  0
 36 75  2  0  0  0  0
 37 60  1  0  0  0  0
 37 65  1  0  0  0  0
 37 76  2  0  0  0  0
 38 59  1  0  0  0  0
 38 70  1  0  0  0  0
 38 77  2  0  0  0  0
 39 61  1  0  0  0  0
 39 72  1  0  0  0  0
 39 78  2  0  0  0  0
 40 66  1  0  0  0  0
 40 69  1  0  0  0  0
 40 79  2  0  0  0  0
 41 44  1  0  0  0  0
 42 51  1  0  0  0  0
 43 65  1  0  0  0  0
 44 46  1  0  0  0  0
 45 47  1  0  0  0  0
 45 48  1  0  0  0  0
 46 50  1  0  0  0  0
 47 52  1  0  0  0  0
 48 66  1  0  0  0  0
 49 52  1  0  0  0  0
 49 66  1  0  0  0  0
 50 71  1  0  0  0  0
 51 65  1  0  0  0  0
 52 64  1  0  0  0  0
 54 61  1  0  0  0  0
 55 62  1  0  0  0  0
 56 62  1  0  0  0  0
 57 62  1  0  0  0  0
 58 73  1  0  0  0  0
 59 81  1  0  0  0  0
 60 62  1  0  0  0  0
 60 72  1  0  0  0  0
 61 73  1  0  0  0  0
 63 64  1  0  0  0  0
M  CHG  1  73   1
M  ISO  4  40 100  59 101  69 100  81 101
M  END
> <Batch ID>
0061

> <Smiles>
CNC(C)C(=O)NC(C(=O)N1Cc2cc([101O:1][101CH2:1]C(=O)NC(=S)c3ccc([100NH:0][100C:0](=O)N4CCCC(n5nc(-c6ccc(Oc7ccc(F)cc7F)cc6)c(C(N)=O)c5N)C4)cc3C)ccc2CC1C(=O)NC1CCCc2ccccc21)C(C)(C)C

> <Shape>
0.241

> <Color>
0.188

> <Negative vol penalty>
0.000

$$$$

  -OEChem-04042323073D

 85 93  0     1  0  0  0  0  0999 V2000
  -30.5440  -35.7747   22.1824 C   0  0  0  0  0  0  0  0  0  0  0  0
  -30.4580  -34.3955   22.0213 C   0  0  0  0  0  0  0  0  0  0  0  0
  -24.4598   -9.0800   21.8546 C   0  0  0  0  0  0  0  0  0  0  0  0
  -23.0334  -10.0513   20.1637 C   0  0  0  0  0  0  0  0  0  0  0  0
  -29.5891  -36.4473   22.9437 C   0  0  0  0  0  0  0  0  0  0  0  0
  -29.4176  -33.6880   22.6225 C   0  0  0  0  0  0  0  0  0  0  0  0
  -27.3138  -30.3005   19.5010 C   0  0  0  0  0  0  0  0  0  0  0  0
  -23.5322   -8.0566   22.0492 C   0  0  0  0  0  0  0  0  0  0  0  0
  -22.1058   -9.0278   20.3583 C   0  0  0  0  0  0  0  0  0  0  0  0
  -28.0023  -29.1046   19.3018 C   0  0  0  0  0  0  0  0  0  0  0  0
  -22.6369   -5.1809   20.5125 C   0  0  0  0  0  0  0  0  0  0  0  0
  -23.1207   -3.8756   20.6003 C   0  0  0  0  0  0  0  0  0  0  0  0
  -26.5420  -28.0083   20.8781 C   0  0  0  0  0  0  0  0  0  0  0  0
  -26.7146  -19.9009   18.5654 C   0  0  0  0  0  0  0  0  0  0  0  0
  -27.5740  -19.0729   16.0438 C   0  0  0  0  0  0  0  0  0  0  0  0
  -22.1915   -3.6806   22.8220 C   0  0  0  0  0  0  0  0  0  0  0  0
  -24.2103  -10.0774   20.9119 C   0  0  0  0  0  0  0  0  0  0  0  0
  -26.2464  -11.1448   19.8062 C   0  0  0  0  0  0  0  0  0  0  0  0
  -28.5310  -35.7489   23.5466 C   0  0  0  0  0  0  0  0  0  0  0  0
  -26.2393  -30.3619   20.4000 C   0  0  0  0  0  0  0  0  0  0  0  0
  -28.4484  -34.3517   23.3937 C   0  0  0  0  0  0  0  0  0  0  0  0
  -25.8399  -29.2055   21.0850 C   0  0  0  0  0  0  0  0  0  0  0  0
  -26.8060  -20.8225   17.5224 C   0  0  0  0  0  0  0  0  0  0  0  0
  -27.2357  -20.4085   16.2616 C   0  0  0  0  0  0  0  0  0  0  0  0
  -27.0530  -18.5653   18.3477 C   0  0  0  0  0  0  0  0  0  0  0  0
  -22.3553   -8.0305   21.3011 C   0  0  0  0  0  0  0  0  0  0  0  0
  -27.6183  -27.9590   19.9925 C   0  0  0  0  0  0  0  0  0  0  0  0
  -21.9304   -5.7361   21.5795 C   0  0  0  0  0  0  0  0  0  0  0  0
  -22.8980   -3.1254   21.7550 C   0  0  0  0  0  0  0  0  0  0  0  0
  -27.4827  -18.1513   17.0869 C   0  0  0  0  0  0  0  0  0  0  0  0
  -21.7077   -4.9859   22.7342 C   0  0  0  0  0  0  0  0  0  0  0  0
  -25.1678  -11.1352   20.7108 C   0  0  0  0  0  0  0  0  0  0  0  0
  -26.8462  -12.3651   20.0000 C   0  0  0  0  0  0  0  0  0  0  0  0
  -26.6684  -10.1405   18.8739 C   0  0  0  0  0  0  0  0  0  0  0  0
  -25.6462  -31.9638   23.0806 C   0  0  0  0  0  0  0  0  0  0  0  0
  -22.7126  -30.6129   22.7784 C   0  0  0  0  0  0  0  0  0  0  0  0
  -27.5311  -24.4605   18.1638 C   0  0  0  0  0  0  0  0  0  0  0  0
  -20.8055  -28.0797   21.5163 C   0  0  0  0  0  0  0  0  0  0  0  0
  -26.5503  -17.8786   20.7188 C   0  0  0  0  0  0  0  0  0  0  0  0
  -27.5495  -36.5131   24.3994 C   0  0  0  0  0  0  0  0  0  0  0  0
  -25.4900  -31.6531   20.5836 C   0  0  0  0  0  0  0  0  0  0  0  0
  -24.6801  -29.2138   22.0459 C   0  0  0  0  0  0  0  0  0  0  0  0
  -26.2667  -35.7395   24.6933 C   0  0  0  0  0  0  0  0  0  0  0  0
  -26.1477  -15.8422   23.6116 C   0  0  0  0  0  0  0  0  0  0  0  0
  -26.5906  -34.3124   25.1237 C   0  0  0  0  0  0  0  0  0  0  0  0
  -25.9456  -14.4369   23.0404 C   0  0  0  0  0  0  0  0  0  0  0  0
  -25.4833  -16.9086   22.7426 C   0  0  0  0  0  0  0  0  0  0  0  0
  -25.6542  -15.4679   20.7515 C   0  0  0  0  0  0  0  0  0  0  0  0
  -27.3207  -33.5524   24.0097 C   0  0  1  0  0  0  0  0  0  0  0  0
  -24.7371  -31.7238   21.9085 C   0  0  1  0  0  0  0  0  0  0  0  0
  -26.3609  -14.3661   21.5578 C   0  0  2  0  0  0  0  0  0  0  0  0
  -27.3418  -21.3768   15.1296 C   0  0  0  0  0  0  0  0  0  0  0  0
  -18.4466  -27.2249   21.4696 C   0  0  0  0  0  0  0  0  0  0  0  0
  -23.0355  -29.5732   25.6287 C   0  0  0  0  0  0  0  0  0  0  0  0
  -21.1511  -27.9846   25.1885 C   0  0  0  0  0  0  0  0  0  0  0  0
  -20.7547  -30.4454   25.0886 C   0  0  0  0  0  0  0  0  0  0  0  0
  -20.6443  -28.3459   18.5731 C   0  0  0  0  0  0  0  0  0  0  0  0
  -26.4369  -22.2547   17.7806 C   0  0  0  0  0  0  0  0  0  0  0  0
  -28.9137  -25.0917   18.2149 C   0  0  0  0  0  0  0  0  0  0  0  0
  -28.8755  -26.5819   18.5164 C   0  0  0  0  0  0  0  0  0  1  0  0
  -22.0746  -29.3268   23.2451 C   0  0  1  0  0  0  0  0  0  0  0  0
  -19.4837  -28.0896   20.7699 C   0  0  2  0  0  0  0  0  0  0  0  0
  -21.7771  -29.3325   24.7711 C   0  0  0  0  0  0  0  0  0  0  0  0
  -25.0848  -12.2600   21.4262 N   0  0  0  0  0  0  0  0  0  0  0  0
  -26.1189  -12.9879   20.9713 N   0  0  0  0  0  0  0  0  0  0  0  0
  -23.9832  -30.5019   22.1961 N   0  0  0  0  0  0  0  0  0  0  0  0
  -25.9274  -16.7828   21.3526 N   0  0  0  0  0  0  0  0  0  0  0  0
  -27.9195  -12.9555   19.4326 N   0  0  0  0  0  0  0  0  0  0  0  0
  -25.9394   -8.9456   18.8036 N   0  0  0  0  0  0  0  0  0  0  0  0
  -26.9591  -17.6309   19.4088 N   0  0  0  0  0  0  0  0  0  0  0  0
  -26.3850  -33.1280   22.9904 N   0  0  0  0  0  0  0  0  0  0  0  0
  -27.6023  -23.1028   17.8871 N   0  0  0  0  0  0  0  0  0  0  0  0
  -20.8968  -29.1279   22.4074 N   0  0  0  0  0  0  0  0  0  0  0  0
  -19.6676  -27.5741   19.3838 N   0  3  0  0  0  0  0  0  0  0  0  0
  -27.6723  -10.2914   18.1371 O   0  0  0  0  0  0  0  0  0  0  0  0
  -25.6740  -31.1535   23.9995 O   0  0  0  0  0  0  0  0  0  0  0  0
  -22.1028  -31.6760   22.9185 O   0  0  0  0  0  0  0  0  0  0  0  0
  -26.4947  -25.0930   18.3476 O   0  0  0  0  0  0  0  0  0  0  0  0
  -21.6691  -27.2252   21.3302 O   0  0  0  0  0  0  0  0  0  0  0  0
  -26.7339  -18.9487   21.3047 O   0  0  0  0  0  0  0  0  0  0  0  0
  -21.4501   -7.0319   21.4905 O   0  0  0  0  0  0  0  0  0  0  0  0
  -28.2890  -26.7906   19.8004 O   0  0  0  0  0  0  0  0  0  1  0  0
  -23.3613   -1.8714   21.8385 F   0  0  0  0  0  0  0  0  0  0  0  0
  -27.8102  -16.8701   16.8660 F   0  0  0  0  0  0  0  0  0  0  0  0
  -21.0287   -5.5135   23.7620 F   0  0  0  0  0  0  0  0  0  0  0  0
  1  2  1  0  0  0  0
  1  5  2  0  0  0  0
  2  6  2  0  0  0  0
  3  8  2  0  0  0  0
  3 17  1  0  0  0  0
  4  9  1  0  0  0  0
  4 17  2  0  0  0  0
  5 19  1  0  0  0  0
  6 21  1  0  0  0  0
  7 10  2  0  0  0  0
  7 20  1  0  0  0  0
  8 26  1  0  0  0  0
  9 26  2  0  0  0  0
 10 27  1  0  0  0  0
 11 12  2  0  0  0  0
 11 28  1  0  0  0  0
 12 29  1  0  0  0  0
 13 22  1  0  0  0  0
 13 27  2  0  0  0  0
 14 23  1  0  0  0  0
 14 25  2  0  0  0  0
 15 24  1  0  0  0  0
 15 30  2  0  0  0  0
 16 29  2  0  0  0  0
 16 31  1  0  0  0  0
 17 32  1  0  0  0  0
 18 32  1  0  0  0  0
 18 33  2  0  0  0  0
 18 34  1  0  0  0  0
 19 21  2  0  0  0  0
 19 40  1  0  0  0  0
 20 22  2  0  0  0  0
 20 41  1  0  0  0  0
 21 49  1  0  0  0  0
 22 42  1  0  0  0  0
 23 24  2  0  0  0  0
 23 58  1  0  0  0  0
 24 52  1  0  0  0  0
 25 30  1  0  0  0  0
 25 70  1  0  0  0  0
 26 81  1  0  0  0  0
 27 82  1  0  0  0  0
 28 31  2  0  0  0  0
 28 81  1  0  0  0  0
 29 83  1  0  0  0  0
 30 84  1  0  0  0  0
 31 85  1  0  0  0  0
 32 64  2  0  0  0  0
 33 65  1  0  0  0  0
 33 68  1  0  0  0  0
 34 69  1  0  0  0  0
 34 75  2  0  0  0  0
 35 50  1  0  0  0  0
 35 71  1  0  0  0  0
 35 76  2  0  0  0  0
 36 61  1  0  0  0  0
 36 66  1  0  0  0  0
 36 77  2  0  0  0  0
 37 59  1  0  0  0  0
 37 72  1  0  0  0  0
 37 78  2  0  0  0  0
 38 62  1  0  0  0  0
 38 73  1  0  0  0  0
 38 79  2  0  0  0  0
 39 67  1  0  0  0  0
 39 70  1  0  0  0  0
 39 80  2  0  0  0  0
 40 43  1  0  0  0  0
 41 50  1  0  0  0  0
 42 66  1  0  0  0  0
 43 45  1  0  0  0  0
 44 46  1  0  0  0  0
 44 47  1  0  0  0  0
 45 49  1  0  0  0  0
 46 51  1  0  0  0  0
 47 67  1  0  0  0  0
 48 51  1  0  0  0  0
 48 67  1  0  0  0  0
 49 71  1  0  0  0  0
 50 66  1  0  0  0  0
 51 65  1  0  0  0  0
 53 62  1  0  0  0  0
 54 63  1  0  0  0  0
 55 63  1  0  0  0  0
 56 63  1  0  0  0  0
 57 74  1  0  0  0  0
 58 72  1  0  0  0  0
 59 60  1  0  0  0  0
 60 82  1  0  0  0  0
 61 63  1  0  0  0  0
 61 73  1  0  0  0  0
 62 74  1  0  0  0  0
 64 65  1  0  0  0  0
M  CHG  1  74   1
M  ISO  4  39 100  60 101  70 100  82 101
M  END
> <Batch ID>
0061

> <Smiles>
CNC(C)C(=O)NC(C(=O)N1Cc2cc([101O:1][101CH2:1]CC(=O)NCc3cc([100NH:0][100C:0](=O)N4CCCC(n5nc(-c6ccc(Oc7ccc(F)cc7F)cc6)c(C(N)=O)c5N)C4)c(F)cc3C)ccc2CC1C(=O)NC1CCCc2ccccc21)C(C)(C)C

> <Shape>
0.275

> <Color>
0.101

> <Negative vol penalty>
0.000

$$$$

  -OEChem-04042323073D

 84 93  0     1  0  0  0  0  0999 V2000
  -27.0283  -22.3024   16.8662 C   0  0  0  0  0  0  0  0  0  0  0  0
  -26.3466  -23.4429   17.2754 C   0  0  0  0  0  0  0  0  0  0  0  0
  -16.9766  -22.8583   22.5978 C   0  0  0  0  0  0  0  0  0  0  0  0
  -23.4917  -14.1884   20.8849 C   0  0  0  0  0  0  0  0  0  0  0  0
  -24.3927  -14.4260   18.6558 C   0  0  0  0  0  0  0  0  0  0  0  0
  -28.1429  -21.8674   17.5802 C   0  0  0  0  0  0  0  0  0  0  0  0
  -26.7863  -24.1556   18.3915 C   0  0  0  0  0  0  0  0  0  0  0  0
  -24.5459  -28.4323   19.3371 C   0  0  0  0  0  0  0  0  0  0  0  0
  -17.2437  -24.2064   22.8367 C   0  0  0  0  0  0  0  0  0  0  0  0
  -17.7805  -22.1333   21.7181 C   0  0  0  0  0  0  0  0  0  0  0  0
  -24.4356  -13.1994   21.1611 C   0  0  0  0  0  0  0  0  0  0  0  0
  -25.3368  -13.4370   18.9320 C   0  0  0  0  0  0  0  0  0  0  0  0
  -23.2429  -28.5084   19.8272 C   0  0  0  0  0  0  0  0  0  0  0  0
  -28.2781  -13.1936   20.5782 C   0  0  0  0  0  0  0  0  0  0  0  0
  -29.5965  -13.4317   20.1900 C   0  0  0  0  0  0  0  0  0  0  0  0
  -24.1049  -29.0101   22.0237 C   0  0  0  0  0  0  0  0  0  0  0  0
  -19.1182  -24.1045   21.3159 C   0  0  0  0  0  0  0  0  0  0  0  0
  -29.5362  -11.4696   18.7817 C   0  0  0  0  0  0  0  0  0  0  0  0
  -23.4702  -14.8017   19.6322 C   0  0  0  0  0  0  0  0  0  0  0  0
  -21.0936  -15.6918   19.3731 C   0  0  0  0  0  0  0  0  0  0  0  0
  -28.5883  -22.5687   18.7128 C   0  0  0  0  0  0  0  0  0  0  0  0
  -25.6403  -28.6341   20.1904 C   0  0  0  0  0  0  0  0  0  0  0  0
  -27.9234  -23.7462   19.1112 C   0  0  0  0  0  0  0  0  0  0  0  0
  -25.4207  -28.9386   21.5414 C   0  0  0  0  0  0  0  0  0  0  0  0
  -18.3144  -24.8295   22.1957 C   0  0  0  0  0  0  0  0  0  0  0  0
  -18.8512  -22.7564   21.0771 C   0  0  0  0  0  0  0  0  0  0  0  0
  -25.3582  -12.8237   20.1847 C   0  0  0  0  0  0  0  0  0  0  0  0
  -23.0223  -28.7945   21.1713 C   0  0  0  0  0  0  0  0  0  0  0  0
  -27.5888  -12.0934   20.0682 C   0  0  0  0  0  0  0  0  0  0  0  0
  -30.2256  -12.5697   19.2918 C   0  0  0  0  0  0  0  0  0  0  0  0
  -28.2178  -11.2314   19.1699 C   0  0  0  0  0  0  0  0  0  0  0  0
  -22.4949  -15.8231   19.3461 C   0  0  0  0  0  0  0  0  0  0  0  0
  -20.6254  -16.9364   19.0292 C   0  0  0  0  0  0  0  0  0  0  0  0
  -20.2871  -14.5472   19.6815 C   0  0  0  0  0  0  0  0  0  0  0  0
  -28.0920  -26.8549   21.1533 C   0  0  0  0  0  0  0  0  0  0  0  0
  -29.0449  -29.6205   22.5554 C   0  0  0  0  0  0  0  0  0  0  0  0
  -27.4946  -32.3150   24.3866 C   0  0  0  0  0  0  0  0  0  0  0  0
  -20.7678  -22.4856   19.4647 C   0  0  0  0  0  0  0  0  0  0  0  0
  -29.8048  -22.0579   19.4439 C   0  0  0  0  0  0  0  0  0  0  0  0
  -27.0390  -28.5750   19.6405 C   0  0  0  0  0  0  0  0  0  0  0  0
  -26.5608  -29.1836   22.4946 C   0  0  0  0  0  0  0  0  0  0  0  0
  -29.9272  -22.6172   20.8576 C   0  0  0  0  0  0  0  0  0  0  0  0
  -17.6905  -28.4269   22.9238 C   0  0  0  0  0  0  0  0  0  0  0  0
  -23.0564  -20.9781   17.1917 C   0  0  0  0  0  0  0  0  0  0  0  0
  -29.7637  -24.1296   20.8342 C   0  0  0  0  0  0  0  0  0  0  0  0
  -19.0961  -29.0000   22.7953 C   0  0  0  0  0  0  0  0  0  0  0  0
  -22.9991  -19.4918   17.5518 C   0  0  0  0  0  0  0  0  0  0  0  0
  -17.5265  -27.1488   22.1067 C   0  0  0  0  0  0  0  0  0  0  0  0
  -22.9401  -21.8663   18.4291 C   0  0  0  0  0  0  0  0  0  0  0  0
  -19.9669  -26.6658   22.3632 C   0  0  0  0  0  0  0  0  0  0  0  0
  -21.7218  -20.1037   19.6448 C   0  0  0  0  0  0  0  0  0  0  0  0
  -28.3650  -24.5202   20.3401 C   0  0  1  0  0  0  0  0  0  0  0  0
  -28.0897  -28.2904   20.7093 C   0  0  1  0  0  0  0  0  0  0  0  0
  -20.1401  -27.9511   23.1865 C   0  0  1  0  0  0  0  0  0  0  0  0
  -21.7698  -19.1703   18.4241 C   0  0  2  0  0  0  0  0  0  0  0  0
  -28.1685  -34.7196   24.6335 C   0  0  0  0  0  0  0  0  0  0  0  0
  -30.4451  -28.6663   25.0929 C   0  0  0  0  0  0  0  0  0  0  0  0
  -29.7368  -30.7966   26.2013 C   0  0  0  0  0  0  0  0  0  0  0  0
  -31.2519  -30.8670   24.2208 C   0  0  0  0  0  0  0  0  0  0  0  0
  -24.8632  -33.2716   23.4277 C   0  0  0  0  0  0  0  0  0  0  0  0
  -21.5525  -28.5100   23.0192 C   0  0  0  0  0  0  0  0  0  1  0  0
  -28.8158  -30.2731   23.8972 C   0  0  1  0  0  0  0  0  0  0  0  0
  -27.2719  -33.7352   23.8989 C   0  0  2  0  0  0  0  0  0  0  0  0
  -30.0431  -30.1333   24.8415 C   0  0  0  0  0  0  0  0  0  0  0  0
  -22.8912  -17.0539   19.0113 N   0  0  0  0  0  0  0  0  0  0  0  0
  -21.7318  -17.7074   18.8247 N   0  0  0  0  0  0  0  0  0  0  0  0
  -18.5827  -26.1830   22.4363 N   0  0  2  0  0  0  0  0  0  0  0  0
  -27.9101  -29.1085   21.9104 N   0  0  0  0  0  0  0  0  0  0  0  0
  -21.7506  -21.5073   19.2043 N   0  0  0  0  0  0  0  0  0  0  0  0
  -19.3795  -17.4356   18.8847 N   0  0  0  0  0  0  0  0  0  0  0  0
  -19.9189  -13.6882   18.6370 N   0  0  0  0  0  0  0  0  0  0  0  0
  -19.6667  -22.0198   20.1826 N   0  0  0  0  0  0  0  0  0  0  0  0
  -28.3199  -25.9509   20.1333 N   0  0  0  0  0  0  0  0  0  0  0  0
  -28.4294  -31.6523   23.6197 N   0  0  0  0  0  0  0  0  0  0  0  0
  -25.8539  -34.1403   24.1138 N   0  3  0  0  0  0  0  0  0  0  0  0
  -19.8906  -14.3026   20.8462 O   0  0  0  0  0  0  0  0  0  0  0  0
  -27.9026  -26.5874   22.3341 O   0  0  0  0  0  0  0  0  0  0  0  0
  -30.1876  -29.5733   22.0931 O   0  0  0  0  0  0  0  0  0  0  0  0
  -26.9015  -31.8421   25.3537 O   0  0  0  0  0  0  0  0  0  0  0  0
  -20.8810  -23.6440   19.0559 O   0  0  0  0  0  0  0  0  0  0  0  0
  -26.2796  -11.8588   20.4539 O   0  0  0  0  0  0  0  0  0  0  0  0
  -21.7515  -28.8687   21.6524 O   0  0  0  0  0  0  0  0  0  1  0  0
  -31.4911  -12.7994   18.9179 F   0  0  0  0  0  0  0  0  0  0  0  0
  -27.5603  -10.1735   18.6757 F   0  0  0  0  0  0  0  0  0  0  0  0
  1  2  1  0  0  0  0
  1  6  2  0  0  0  0
  2  7  2  0  0  0  0
  3  9  2  0  0  0  0
  3 10  1  0  0  0  0
  4 11  2  0  0  0  0
  4 19  1  0  0  0  0
  5 12  1  0  0  0  0
  5 19  2  0  0  0  0
  6 21  1  0  0  0  0
  7 23  1  0  0  0  0
  8 13  2  0  0  0  0
  8 22  1  0  0  0  0
  9 25  1  0  0  0  0
 10 26  2  0  0  0  0
 11 27  1  0  0  0  0
 12 27  2  0  0  0  0
 13 28  1  0  0  0  0
 14 15  2  0  0  0  0
 14 29  1  0  0  0  0
 15 30  1  0  0  0  0
 16 24  1  0  0  0  0
 16 28  2  0  0  0  0
 17 25  2  0  0  0  0
 17 26  1  0  0  0  0
 18 30  2  0  0  0  0
 18 31  1  0  0  0  0
 19 32  1  0  0  0  0
 20 32  1  0  0  0  0
 20 33  2  0  0  0  0
 20 34  1  0  0  0  0
 21 23  2  0  0  0  0
 21 39  1  0  0  0  0
 22 24  2  0  0  0  0
 22 40  1  0  0  0  0
 23 52  1  0  0  0  0
 24 41  1  0  0  0  0
 25 67  1  0  0  0  0
 26 72  1  0  0  0  0
 27 81  1  0  0  0  0
 28 82  1  0  0  0  0
 29 31  2  0  0  0  0
 29 81  1  0  0  0  0
 30 83  1  0  0  0  0
 31 84  1  0  0  0  0
 32 65  2  0  0  0  0
 33 66  1  0  0  0  0
 33 70  1  0  0  0  0
 34 71  1  0  0  0  0
 34 76  2  0  0  0  0
 35 53  1  0  0  0  0
 35 73  1  0  0  0  0
 35 77  2  0  0  0  0
 36 62  1  0  0  0  0
 36 68  1  0  0  0  0
 36 78  2  0  0  0  0
 37 63  1  0  0  0  0
 37 74  1  0  0  0  0
 37 79  2  0  0  0  0
 38 69  1  0  0  0  0
 38 72  1  0  0  0  0
 38 80  2  0  0  0  0
 39 42  1  0  0  0  0
 40 53  1  0  0  0  0
 41 68  1  0  0  0  0
 42 45  1  0  0  0  0
 43 46  1  0  0  0  0
 43 48  1  0  0  0  0
 44 47  1  0  0  0  0
 44 49  1  0  0  0  0
 45 52  1  0  0  0  0
 46 54  1  0  0  0  0
 47 55  1  0  0  0  0
 48 67  1  0  0  0  0
 49 69  1  0  0  0  0
 50 54  1  0  0  0  0
 50 67  1  0  0  0  0
 51 55  1  0  0  0  0
 51 69  1  0  0  0  0
 52 73  1  0  0  0  0
 53 68  1  0  0  0  0
 54 61  1  0  0  0  0
 55 66  1  0  0  0  0
 56 63  1  0  0  0  0
 57 64  1  0  0  0  0
 58 64  1  0  0  0  0
 59 64  1  0  0  0  0
 60 75  1  0  0  0  0
 61 82  1  0  0  0  0
 62 64  1  0  0  0  0
 62 74  1  0  0  0  0
 63 75  1  0  0  0  0
 65 66  1  0  0  0  0
M  CHG  1  75   1
M  ISO  4  38 100  61 101  72 100  82 101
M  END
> <Batch ID>
0061

> <Smiles>
CNC(C)C(=O)NC(C(=O)N1Cc2cc([101O:1][101CH2:1]C3CCCN(c4cccc([100NH:0][100C:0](=O)N5CCCC(n6nc(-c7ccc(Oc8ccc(F)cc8F)cc7)c(C(N)=O)c6N)C5)c4)C3)ccc2CC1C(=O)NC1CCCc2ccccc21)C(C)(C)C

> <Shape>
0.247

> <Color>
0.071

> <Negative vol penalty>
0.000

$$$$

  -OEChem-04042323073D

 86 94  0     1  0  0  0  0  0999 V2000
  -26.4186  -19.3119   17.3470 C   0  0  0  0  0  0  0  0  0  0  0  0
  -25.6142  -20.4246   17.1232 C   0  0  0  0  0  0  0  0  0  0  0  0
  -18.4196  -27.7845   21.5470 C   0  0  0  0  0  0  0  0  0  0  0  0
  -25.2525  -15.5311   20.1266 C   0  0  0  0  0  0  0  0  0  0  0  0
  -25.5741  -15.8414   22.5009 C   0  0  0  0  0  0  0  0  0  0  0  0
  -27.2479  -19.2665   18.4669 C   0  0  0  0  0  0  0  0  0  0  0  0
  -25.6377  -21.4922   18.0198 C   0  0  0  0  0  0  0  0  0  0  0  0
  -24.9796  -28.6224   18.2292 C   0  0  0  0  0  0  0  0  0  0  0  0
  -19.3790  -28.7701   21.7787 C   0  0  0  0  0  0  0  0  0  0  0  0
  -26.5376  -14.9989   20.0221 C   0  0  0  0  0  0  0  0  0  0  0  0
  -26.8592  -15.3091   22.3964 C   0  0  0  0  0  0  0  0  0  0  0  0
  -24.2673  -29.6193   18.8945 C   0  0  0  0  0  0  0  0  0  0  0  0
  -29.6000  -13.2249   19.1917 C   0  0  0  0  0  0  0  0  0  0  0  0
  -29.7625  -12.0669   18.4314 C   0  0  0  0  0  0  0  0  0  0  0  0
  -18.6044  -26.4982   22.0542 C   0  0  0  0  0  0  0  0  0  0  0  0
  -25.7980  -29.4646   20.7525 C   0  0  0  0  0  0  0  0  0  0  0  0
  -28.2360  -10.8941   19.8915 C   0  0  0  0  0  0  0  0  0  0  0  0
  -24.7708  -15.9524   21.3660 C   0  0  0  0  0  0  0  0  0  0  0  0
  -22.2502  -15.8006   21.7281 C   0  0  0  0  0  0  0  0  0  0  0  0
  -27.2887  -20.3383   19.3726 C   0  0  0  0  0  0  0  0  0  0  0  0
  -26.1020  -28.0305   18.8262 C   0  0  0  0  0  0  0  0  0  0  0  0
  -26.4672  -21.4606   19.1537 C   0  0  0  0  0  0  0  0  0  0  0  0
  -26.5243  -28.4623   20.0916 C   0  0  0  0  0  0  0  0  0  0  0  0
  -20.7082  -27.1832   23.0246 C   0  0  0  0  0  0  0  0  0  0  0  0
  -20.5234  -28.4694   22.5175 C   0  0  0  0  0  0  0  0  0  0  0  0
  -27.3409  -14.8878   21.1570 C   0  0  0  0  0  0  0  0  0  0  0  0
  -24.6747  -30.0385   20.1576 C   0  0  0  0  0  0  0  0  0  0  0  0
  -28.7556  -13.2176   20.3020 C   0  0  0  0  0  0  0  0  0  0  0  0
  -29.0804  -10.9015   18.7812 C   0  0  0  0  0  0  0  0  0  0  0  0
  -28.0736  -12.0522   20.6518 C   0  0  0  0  0  0  0  0  0  0  0  0
  -19.7488  -26.1976   22.7929 C   0  0  0  0  0  0  0  0  0  0  0  0
  -23.4436  -16.5029   21.4745 C   0  0  0  0  0  0  0  0  0  0  0  0
  -21.2765  -16.7693   21.7343 C   0  0  0  0  0  0  0  0  0  0  0  0
  -22.0405  -14.3981   21.9394 C   0  0  0  0  0  0  0  0  0  0  0  0
  -26.8587  -25.0856   19.7528 C   0  0  0  0  0  0  0  0  0  0  0  0
  -29.7554  -26.4289   20.3246 C   0  0  0  0  0  0  0  0  0  0  0  0
  -21.4401  -30.8051   22.2984 C   0  0  0  0  0  0  0  0  0  0  0  0
  -31.5610  -29.2464   20.9944 C   0  0  0  0  0  0  0  0  0  0  0  0
  -21.6494  -22.6439   22.8628 C   0  0  0  0  0  0  0  0  0  0  0  0
  -28.1658  -20.2234   20.5942 C   0  0  0  0  0  0  0  0  0  0  0  0
  -26.8753  -26.9753   18.0840 C   0  0  0  0  0  0  0  0  0  0  0  0
  -27.7346  -27.8731   20.7674 C   0  0  0  0  0  0  0  0  0  0  0  0
  -28.4105  -21.5569   21.2959 C   0  0  0  0  0  0  0  0  0  0  0  0
  -20.2169  -21.0424   19.8933 C   0  0  0  0  0  0  0  0  0  0  0  0
  -27.1019  -22.3243   21.4552 C   0  0  0  0  0  0  0  0  0  0  0  0
  -20.8232  -19.6426   19.9692 C   0  0  0  0  0  0  0  0  0  0  0  0
  -21.1748  -22.1014   20.4311 C   0  0  0  0  0  0  0  0  0  0  0  0
  -22.2576  -20.4211   21.9037 C   0  0  0  0  0  0  0  0  0  0  0  0
  -26.4833  -22.6492   20.0902 C   0  0  1  0  0  0  0  0  0  0  0  0
  -27.6998  -26.0806   19.0044 C   0  0  1  0  0  0  0  0  0  0  0  0
  -21.3017  -19.3292   21.3970 C   0  0  2  0  0  0  0  0  0  0  0  0
  -21.9385  -26.8646   23.8158 C   0  0  0  0  0  0  0  0  0  0  0  0
  -33.9037  -30.0233   21.4479 C   0  0  0  0  0  0  0  0  0  0  0  0
  -29.5754  -25.3102   23.1576 C   0  0  0  0  0  0  0  0  0  0  0  0
  -31.4142  -26.8757   23.8179 C   0  0  0  0  0  0  0  0  0  0  0  0
  -31.8336  -25.1157   22.1007 C   0  0  0  0  0  0  0  0  0  0  0  0
  -31.5653  -30.9988   18.6095 C   0  0  0  0  0  0  0  0  0  0  0  0
  -18.5075  -23.6586   22.8919 C   0  0  0  0  0  0  0  0  0  0  0  0
  -22.6807  -31.5623   22.7584 C   0  0  0  0  0  0  0  0  0  0  0  0
  -23.9762  -30.9605   22.2355 C   0  0  0  0  0  0  0  0  0  1  0  0
  -30.4025  -27.1128   21.5046 C   0  0  1  0  0  0  0  0  0  0  0  0
  -32.8404  -29.7913   20.3856 C   0  0  2  0  0  0  0  0  0  0  0  0
  -30.7824  -26.1135   22.6336 C   0  0  0  0  0  0  0  0  0  0  0  0
  -23.2483  -17.8162   21.3299 N   0  0  0  0  0  0  0  0  0  0  0  0
  -21.1526  -23.9560   22.6582 N   0  0  0  0  0  0  0  0  0  0  0  0
  -21.9207  -17.9469   21.4930 N   0  0  0  0  0  0  0  0  0  0  0  0
  -28.4538  -26.8399   20.0040 N   0  0  0  0  0  0  0  0  0  0  0  0
  -21.6584  -21.7522   21.7716 N   0  0  0  0  0  0  0  0  0  0  0  0
  -19.9406  -16.7200   21.9224 N   0  0  0  0  0  0  0  0  0  0  0  0
  -23.1504  -13.5432   21.9000 N   0  0  0  0  0  0  0  0  0  0  0  0
  -21.4839  -29.4850   22.7386 N   0  0  0  0  0  0  0  0  0  0  0  0
  -27.1685  -23.7673   19.4780 N   0  0  0  0  0  0  0  0  0  0  0  0
  -31.5307  -27.8680   20.9705 N   0  0  0  0  0  0  0  0  0  0  0  0
  -32.5755  -31.0852   19.6953 N   0  3  0  0  0  0  0  0  0  0  0  0
  -20.9004  -13.9150   22.1403 O   0  0  0  0  0  0  0  0  0  0  0  0
  -25.9936  -25.4845   20.5238 O   0  0  0  0  0  0  0  0  0  0  0  0
  -30.3843  -25.5671   19.7056 O   0  0  0  0  0  0  0  0  0  0  0  0
  -20.5586  -31.3391   21.6334 O   0  0  0  0  0  0  0  0  0  0  0  0
  -30.6786  -29.9709   21.4493 O   0  0  0  0  0  0  0  0  0  0  0  0
  -22.0687  -22.2976   23.9702 O   0  0  0  0  0  0  0  0  0  0  0  0
  -19.8208  -24.6574   24.8655 O   0  0  0  0  0  0  0  0  0  0  0  0
  -28.5948  -14.3683   21.0554 O   0  0  0  0  0  0  0  0  0  0  0  0
  -23.9808  -31.0108   20.8094 O   0  0  0  0  0  0  0  0  0  1  0  0
  -29.2353   -9.7899   18.0501 F   0  0  0  0  0  0  0  0  0  0  0  0
  -27.2601  -12.0394   21.7167 F   0  0  0  0  0  0  0  0  0  0  0  0
  -19.9461  -24.5511   23.4214 S   0  0  1  0  0  0  0  0  0  0  0  0
  1  2  1  0  0  0  0
  1  6  2  0  0  0  0
  2  7  2  0  0  0  0
  3  9  2  0  0  0  0
  3 15  1  0  0  0  0
  4 10  2  0  0  0  0
  4 18  1  0  0  0  0
  5 11  1  0  0  0  0
  5 18  2  0  0  0  0
  6 20  1  0  0  0  0
  7 22  1  0  0  0  0
  8 12  2  0  0  0  0
  8 21  1  0  0  0  0
  9 25  1  0  0  0  0
 10 26  1  0  0  0  0
 11 26  2  0  0  0  0
 12 27  1  0  0  0  0
 13 14  2  0  0  0  0
 13 28  1  0  0  0  0
 14 29  1  0  0  0  0
 15 31  2  0  0  0  0
 16 23  1  0  0  0  0
 16 27  2  0  0  0  0
 17 29  2  0  0  0  0
 17 30  1  0  0  0  0
 18 32  1  0  0  0  0
 19 32  1  0  0  0  0
 19 33  2  0  0  0  0
 19 34  1  0  0  0  0
 20 22  2  0  0  0  0
 20 40  1  0  0  0  0
 21 23  2  0  0  0  0
 21 41  1  0  0  0  0
 22 49  1  0  0  0  0
 23 42  1  0  0  0  0
 24 25  2  0  0  0  0
 24 31  1  0  0  0  0
 24 52  1  0  0  0  0
 25 71  1  0  0  0  0
 26 82  1  0  0  0  0
 27 83  1  0  0  0  0
 28 30  2  0  0  0  0
 28 82  1  0  0  0  0
 29 84  1  0  0  0  0
 30 85  1  0  0  0  0
 31 86  1  0  0  0  0
 32 64  2  0  0  0  0
 33 66  1  0  0  0  0
 33 69  1  0  0  0  0
 34 70  1  0  0  0  0
 34 75  2  0  0  0  0
 35 50  1  0  0  0  0
 35 72  1  0  0  0  0
 35 76  2  0  0  0  0
 36 61  1  0  0  0  0
 36 67  1  0  0  0  0
 36 77  2  0  0  0  0
 37 59  1  0  0  0  0
 37 71  1  0  0  0  0
 37 78  2  0  0  0  0
 38 62  1  0  0  0  0
 38 73  1  0  0  0  0
 38 79  2  0  0  0  0
 39 65  1  0  0  0  0
 39 68  1  0  0  0  0
 39 80  2  0  0  0  0
 40 43  1  0  0  0  0
 41 50  1  0  0  0  0
 42 67  1  0  0  0  0
 43 45  1  0  0  0  0
 44 46  1  0  0  0  0
 44 47  1  0  0  0  0
 45 49  1  0  0  0  0
 46 51  1  0  0  0  0
 47 68  1  0  0  0  0
 48 51  1  0  0  0  0
 48 68  1  0  0  0  0
 49 72  1  0  0  0  0
 50 67  1  0  0  0  0
 51 66  1  0  0  0  0
 53 62  1  0  0  0  0
 54 63  1  0  0  0  0
 55 63  1  0  0  0  0
 56 63  1  0  0  0  0
 57 74  1  0  0  0  0
 58 86  1  0  0  0  0
 59 60  1  0  0  0  0
 60 83  1  0  0  0  0
 61 63  1  0  0  0  0
 61 73  1  0  0  0  0
 62 74  1  0  0  0  0
 64 66  1  0  0  0  0
 65 86  2  0  0  0  0
 81 86  2  0  0  0  0
M  CHG  1  74   1
M  ISO  4  39 100  60 101  65 100  83 101
M  END
> <Batch ID>
0061

> <Smiles>
CNC(C)C(=O)NC(C(=O)N1Cc2cc([101O:1][101CH2:1]CC(=O)Nc3cccc(S(C)(=O)=[100N:0][100C:0](=O)N4CCCC(n5nc(-c6ccc(Oc7ccc(F)cc7F)cc6)c(C(N)=O)c5N)C4)c3C)ccc2CC1C(=O)NC1CCCc2ccccc21)C(C)(C)C

> <Shape>
0.231

> <Color>
0.067

> <Negative vol penalty>
0.000

$$$$

  -OEChem-04042323073D

 84 92  0     1  0  0  0  0  0999 V2000
  -27.9127  -34.4930   24.5633 C   0  0  0  0  0  0  0  0  0  0  0  0
  -28.0872  -33.1703   24.1691 C   0  0  0  0  0  0  0  0  0  0  0  0
  -22.5912  -10.1571   22.9789 C   0  0  0  0  0  0  0  0  0  0  0  0
  -23.1368  -10.3028   20.6298 C   0  0  0  0  0  0  0  0  0  0  0  0
  -26.6449  -34.9521   24.9181 C   0  0  0  0  0  0  0  0  0  0  0  0
  -26.9940  -32.3055   24.1305 C   0  0  0  0  0  0  0  0  0  0  0  0
  -26.8855  -29.4978   19.9174 C   0  0  0  0  0  0  0  0  0  0  0  0
  -27.5999  -19.9851   18.3320 C   0  0  0  0  0  0  0  0  0  0  0  0
  -26.8087  -19.2042   19.1745 C   0  0  0  0  0  0  0  0  0  0  0  0
  -22.1028   -8.8651   22.7853 C   0  0  0  0  0  0  0  0  0  0  0  0
  -22.6484   -9.0107   20.4362 C   0  0  0  0  0  0  0  0  0  0  0  0
  -27.7453  -28.4019   19.8604 C   0  0  0  0  0  0  0  0  0  0  0  0
  -23.3699   -5.7509   22.4257 C   0  0  0  0  0  0  0  0  0  0  0  0
  -23.7413   -4.7726   23.3479 C   0  0  0  0  0  0  0  0  0  0  0  0
  -25.9134  -26.9423   20.4373 C   0  0  0  0  0  0  0  0  0  0  0  0
  -24.9054  -20.6120   18.6920 C   0  0  0  0  0  0  0  0  0  0  0  0
  -21.4173   -4.4121   23.9014 C   0  0  0  0  0  0  0  0  0  0  0  0
  -23.1082  -10.8761   21.9011 C   0  0  0  0  0  0  0  0  0  0  0  0
  -24.9301  -12.5818   22.4291 C   0  0  0  0  0  0  0  0  0  0  0  0
  -25.5340  -34.0950   24.8746 C   0  0  0  0  0  0  0  0  0  0  0  0
  -25.5332  -29.3253   20.2461 C   0  0  0  0  0  0  0  0  0  0  0  0
  -25.7103  -32.7532   24.4864 C   0  0  0  0  0  0  0  0  0  0  0  0
  -25.0379  -28.0374   20.4954 C   0  0  0  0  0  0  0  0  0  0  0  0
  -27.0439  -21.0795   17.6695 C   0  0  0  0  0  0  0  0  0  0  0  0
  -25.4614  -19.5176   19.3545 C   0  0  0  0  0  0  0  0  0  0  0  0
  -22.1314   -8.2918   21.5140 C   0  0  0  0  0  0  0  0  0  0  0  0
  -27.2600  -27.1242   20.1232 C   0  0  0  0  0  0  0  0  0  0  0  0
  -22.0222   -6.0599   22.2413 C   0  0  0  0  0  0  0  0  0  0  0  0
  -22.7650   -4.1032   24.0858 C   0  0  0  0  0  0  0  0  0  0  0  0
  -25.6967  -21.3929   17.8495 C   0  0  0  0  0  0  0  0  0  0  0  0
  -21.0459   -5.3905   22.9792 C   0  0  0  0  0  0  0  0  0  0  0  0
  -23.6124  -12.2111   22.1003 C   0  0  0  0  0  0  0  0  0  0  0  0
  -24.8923  -13.9527   22.5045 C   0  0  0  0  0  0  0  0  0  0  0  0
  -26.0849  -11.7605   22.6468 C   0  0  0  0  0  0  0  0  0  0  0  0
  -23.6507  -30.3335   22.6006 C   0  0  0  0  0  0  0  0  0  0  0  0
  -21.3313  -28.9202   20.8272 C   0  0  0  0  0  0  0  0  0  0  0  0
  -28.4230  -24.0561   17.9264 C   0  0  0  0  0  0  0  0  0  0  0  0
  -20.4958  -26.5917   18.4762 C   0  0  0  0  0  0  0  0  0  0  0  0
  -23.3050  -18.8993   20.5007 C   0  0  0  0  0  0  0  0  0  0  0  0
  -24.1913  -34.6242   25.3127 C   0  0  0  0  0  0  0  0  0  0  0  0
  -24.6129  -30.5146   20.2773 C   0  0  0  0  0  0  0  0  0  0  0  0
  -23.5901  -27.7962   20.8330 C   0  0  0  0  0  0  0  0  0  0  0  0
  -23.0204  -33.7430   24.8852 C   0  0  0  0  0  0  0  0  0  0  0  0
  -20.9629  -17.1434   22.5276 C   0  0  0  0  0  0  0  0  0  0  0  0
  -23.3170  -32.2776   25.1873 C   0  0  0  0  0  0  0  0  0  0  0  0
  -21.5518  -15.7342   22.6242 C   0  0  0  0  0  0  0  0  0  0  0  0
  -21.1934  -17.7613   21.1496 C   0  0  0  0  0  0  0  0  0  0  0  0
  -23.1778  -16.3466   20.7890 C   0  0  0  0  0  0  0  0  0  0  0  0
  -24.5448  -31.7911   24.4080 C   0  0  1  0  0  0  0  0  0  0  0  0
  -23.3664  -30.2834   21.1260 C   0  0  1  0  0  0  0  0  0  0  0  0
  -23.0273  -15.7083   22.1795 C   0  0  2  0  0  0  0  0  0  0  0  0
  -18.5166  -25.6430   17.2596 C   0  0  0  0  0  0  0  0  0  0  0  0
  -20.5475  -27.3559   23.3269 C   0  0  0  0  0  0  0  0  0  0  0  0
  -19.2579  -25.7910   21.8585 C   0  0  0  0  0  0  0  0  0  0  0  0
  -18.6189  -28.1994   21.9766 C   0  0  0  0  0  0  0  0  0  0  0  0
  -21.5664  -27.4253   15.8461 C   0  0  0  0  0  0  0  0  0  0  0  0
  -27.8986  -21.9163   16.7621 C   0  0  0  0  0  0  0  0  0  0  0  0
  -29.5556  -24.7349   18.6807 C   0  0  0  0  0  0  0  0  0  0  0  0
  -29.1956  -26.1322   19.1613 C   0  0  0  0  0  0  0  0  0  1  0  0
  -20.7324  -27.5362   20.7580 C   0  0  1  0  0  0  0  0  0  0  0  0
  -19.6278  -26.6810   17.2340 C   0  0  2  0  0  0  0  0  0  0  0  0
  -19.8169  -27.2250   21.9756 C   0  0  0  0  0  0  0  0  0  0  0  0
  -22.7971  -13.2616   21.9755 N   0  0  0  0  0  0  0  0  0  0  0  0
  -23.6045  -14.3060   22.2274 N   0  0  0  0  0  0  0  0  0  0  0  0
  -22.7312  -28.9917   20.8573 N   0  0  0  0  0  0  0  0  0  0  0  0
  -22.6138  -17.7055   20.7972 N   0  0  0  0  0  0  0  0  0  0  0  0
  -25.8354  -14.8785   22.7802 N   0  0  0  0  0  0  0  0  0  0  0  0
  -25.9480  -10.3706   22.5296 N   0  0  0  0  0  0  0  0  0  0  0  0
  -24.6582  -18.7256   20.2118 N   0  0  0  0  0  0  0  0  0  0  0  0
  -24.1963  -31.5290   23.0281 N   0  0  0  0  0  0  0  0  0  0  0  0
  -28.7844  -22.7853   17.5029 N   0  0  0  0  0  0  0  0  0  0  0  0
  -20.0599  -27.4465   19.4664 N   0  0  0  0  0  0  0  0  0  0  0  0
  -20.4497  -26.4595   16.0108 N   0  3  0  0  0  0  0  0  0  0  0  0
  -27.2013  -12.2438   22.9529 O   0  0  0  0  0  0  0  0  0  0  0  0
  -23.3928  -29.3602   23.2990 O   0  0  0  0  0  0  0  0  0  0  0  0
  -20.5847  -29.9019   20.8463 O   0  0  0  0  0  0  0  0  0  0  0  0
  -27.3329  -24.5858   17.7288 O   0  0  0  0  0  0  0  0  0  0  0  0
  -21.4616  -25.8363   18.5611 O   0  0  0  0  0  0  0  0  0  0  0  0
  -22.7445  -19.9979   20.5294 O   0  0  0  0  0  0  0  0  0  0  0  0
  -21.6550   -7.0309   21.3248 O   0  0  0  0  0  0  0  0  0  0  0  0
  -28.0972  -26.0528   20.0688 O   0  0  0  0  0  0  0  0  0  1  0  0
  -23.1217   -3.1626   24.9702 F   0  0  0  0  0  0  0  0  0  0  0  0
  -25.1534  -22.4425   17.2172 F   0  0  0  0  0  0  0  0  0  0  0  0
  -19.7495   -5.6822   22.8056 F   0  0  0  0  0  0  0  0  0  0  0  0
  1  2  1  0  0  0  0
  1  5  2  0  0  0  0
  2  6  2  0  0  0  0
  3 10  2  0  0  0  0
  3 18  1  0  0  0  0
  4 11  1  0  0  0  0
  4 18  2  0  0  0  0
  5 20  1  0  0  0  0
  6 22  1  0  0  0  0
  7 12  2  0  0  0  0
  7 21  1  0  0  0  0
  8  9  2  0  0  0  0
  8 24  1  0  0  0  0
  9 25  1  0  0  0  0
 10 26  1  0  0  0  0
 11 26  2  0  0  0  0
 12 27  1  0  0  0  0
 13 14  2  0  0  0  0
 13 28  1  0  0  0  0
 14 29  1  0  0  0  0
 15 23  1  0  0  0  0
 15 27  2  0  0  0  0
 16 25  2  0  0  0  0
 16 30  1  0  0  0  0
 17 29  2  0  0  0  0
 17 31  1  0  0  0  0
 18 32  1  0  0  0  0
 19 32  1  0  0  0  0
 19 33  2  0  0  0  0
 19 34  1  0  0  0  0
 20 22  2  0  0  0  0
 20 40  1  0  0  0  0
 21 23  2  0  0  0  0
 21 41  1  0  0  0  0
 22 49  1  0  0  0  0
 23 42  1  0  0  0  0
 24 30  2  0  0  0  0
 24 57  1  0  0  0  0
 25 69  1  0  0  0  0
 26 80  1  0  0  0  0
 27 81  1  0  0  0  0
 28 31  2  0  0  0  0
 28 80  1  0  0  0  0
 29 82  1  0  0  0  0
 30 83  1  0  0  0  0
 31 84  1  0  0  0  0
 32 63  2  0  0  0  0
 33 64  1  0  0  0  0
 33 67  1  0  0  0  0
 34 68  1  0  0  0  0
 34 74  2  0  0  0  0
 35 50  1  0  0  0  0
 35 70  1  0  0  0  0
 35 75  2  0  0  0  0
 36 60  1  0  0  0  0
 36 65  1  0  0  0  0
 36 76  2  0  0  0  0
 37 58  1  0  0  0  0
 37 71  1  0  0  0  0
 37 77  2  0  0  0  0
 38 61  1  0  0  0  0
 38 72  1  0  0  0  0
 38 78  2  0  0  0  0
 39 66  1  0  0  0  0
 39 69  1  0  0  0  0
 39 79  2  0  0  0  0
 40 43  1  0  0  0  0
 41 50  1  0  0  0  0
 42 65  1  0  0  0  0
 43 45  1  0  0  0  0
 44 46  1  0  0  0  0
 44 47  1  0  0  0  0
 45 49  1  0  0  0  0
 46 51  1  0  0  0  0
 47 66  1  0  0  0  0
 48 51  1  0  0  0  0
 48 66  1  0  0  0  0
 49 70  1  0  0  0  0
 50 65  1  0  0  0  0
 51 64  1  0  0  0  0
 52 61  1  0  0  0  0
 53 62  1  0  0  0  0
 54 62  1  0  0  0  0
 55 62  1  0  0  0  0
 56 73  1  0  0  0  0
 57 71  1  0  0  0  0
 58 59  1  0  0  0  0
 59 81  1  0  0  0  0
 60 62  1  0  0  0  0
 60 72  1  0  0  0  0
 61 73  1  0  0  0  0
 63 64  1  0  0  0  0
M  CHG  1  73   1
M  ISO  4  39 100  59 101  69 100  81 101
M  END
> <Batch ID>
0061

> <Smiles>
CNC(C)C(=O)NC(C(=O)N1Cc2cc([101O:1][101CH2:1]CC(=O)NCc3ccc([100NH:0][100C:0](=O)N4CCCC(n5nc(-c6ccc(Oc7ccc(F)cc7F)cc6)c(C(N)=O)c5N)C4)cc3F)ccc2CC1C(=O)NC1CCCc2ccccc21)C(C)(C)C

> <Shape>
0.254

> <Color>
0.086

> <Negative vol penalty>
0.000

$$$$

  -OEChem-04042323073D

 84 92  0     1  0  0  0  0  0999 V2000
  -21.9407  -11.7188   22.6042 C   0  0  0  0  0  0  0  0  0  0  0  0
  -22.6535  -12.5742   23.4383 C   0  0  0  0  0  0  0  0  0  0  0  0
  -32.3218  -25.2445   23.6767 C   0  0  0  0  0  0  0  0  0  0  0  0
  -21.5658  -28.1702   19.5060 C   0  0  0  0  0  0  0  0  0  0  0  0
  -21.9384  -26.6459   21.3431 C   0  0  0  0  0  0  0  0  0  0  0  0
  -31.7496  -24.5777   24.7600 C   0  0  0  0  0  0  0  0  0  0  0  0
  -22.4476  -11.3897   21.3478 C   0  0  0  0  0  0  0  0  0  0  0  0
  -23.8742  -13.1002   23.0168 C   0  0  0  0  0  0  0  0  0  0  0  0
  -26.1294  -18.6492   24.2931 C   0  0  0  0  0  0  0  0  0  0  0  0
  -31.5434  -25.5640   22.5641 C   0  0  0  0  0  0  0  0  0  0  0  0
  -20.3488  -27.5452   19.2343 C   0  0  0  0  0  0  0  0  0  0  0  0
  -20.7213  -26.0210   21.0714 C   0  0  0  0  0  0  0  0  0  0  0  0
  -27.0508  -19.0918   25.2412 C   0  0  0  0  0  0  0  0  0  0  0  0
  -17.5435  -24.2547   21.0873 C   0  0  0  0  0  0  0  0  0  0  0  0
  -16.7074  -23.9649   22.1655 C   0  0  0  0  0  0  0  0  0  0  0  0
  -28.8044  -18.9588   23.5900 C   0  0  0  0  0  0  0  0  0  0  0  0
  -16.6029  -26.3151   22.7160 C   0  0  0  0  0  0  0  0  0  0  0  0
  -22.3607  -27.7205   20.5604 C   0  0  0  0  0  0  0  0  0  0  0  0
  -30.3990  -24.2303   24.7308 C   0  0  0  0  0  0  0  0  0  0  0  0
  -23.8403  -29.4567   21.7022 C   0  0  0  0  0  0  0  0  0  0  0  0
  -23.6705  -11.9196   20.9067 C   0  0  0  0  0  0  0  0  0  0  0  0
  -26.5412  -18.3470   22.9872 C   0  0  0  0  0  0  0  0  0  0  0  0
  -24.3985  -12.7768   21.7538 C   0  0  0  0  0  0  0  0  0  0  0  0
  -27.8858  -18.5149   22.6266 C   0  0  0  0  0  0  0  0  0  0  0  0
  -29.6206  -24.5497   23.6182 C   0  0  0  0  0  0  0  0  0  0  0  0
  -30.1928  -25.2166   22.5349 C   0  0  0  0  0  0  0  0  0  0  0  0
  -19.9265  -26.4707   20.0169 C   0  0  0  0  0  0  0  0  0  0  0  0
  -28.3891  -19.2440   24.8905 C   0  0  0  0  0  0  0  0  0  0  0  0
  -17.9094  -25.5746   20.8235 C   0  0  0  0  0  0  0  0  0  0  0  0
  -16.2371  -24.9951   22.9799 C   0  0  0  0  0  0  0  0  0  0  0  0
  -17.4390  -26.6048   21.6378 C   0  0  0  0  0  0  0  0  0  0  0  0
  -23.6182  -28.3652   20.8413 C   0  0  0  0  0  0  0  0  0  0  0  0
  -25.1917  -29.6883   21.6214 C   0  0  0  0  0  0  0  0  0  0  0  0
  -29.8189  -23.5216   25.9005 C   0  0  0  0  0  0  0  0  0  0  0  0
  -22.9084  -30.1952   22.5033 C   0  0  0  0  0  0  0  0  0  0  0  0
  -26.5500  -15.7270   21.1874 C   0  0  0  0  0  0  0  0  0  0  0  0
  -27.5561  -17.7813   18.8874 C   0  0  0  0  0  0  0  0  0  0  0  0
  -29.0797  -20.7329   18.1041 C   0  0  0  0  0  0  0  0  0  0  0  0
  -29.8539  -26.2130   20.2461 C   0  0  0  0  0  0  0  0  0  0  0  0
  -24.2008  -11.4975   19.5594 C   0  0  0  0  0  0  0  0  0  0  0  0
  -25.5301  -17.8962   21.9689 C   0  0  0  0  0  0  0  0  0  0  0  0
  -28.3753  -18.2235   21.2323 C   0  0  0  0  0  0  0  0  0  0  0  0
  -25.3206  -12.3941   19.0375 C   0  0  0  0  0  0  0  0  0  0  0  0
  -28.8964  -29.2328   18.6210 C   0  0  0  0  0  0  0  0  0  0  0  0
  -26.3491  -12.6561   20.1331 C   0  0  0  0  0  0  0  0  0  0  0  0
  -27.4564  -29.4556   19.0891 C   0  0  0  0  0  0  0  0  0  0  0  0
  -29.2003  -27.7511   18.4070 C   0  0  0  0  0  0  0  0  0  0  0  0
  -27.4524  -27.1055   20.0186 C   0  0  0  0  0  0  0  0  0  0  0  0
  -25.7143  -13.3873   21.3222 C   0  0  1  0  0  0  0  0  0  0  0  0
  -26.1531  -17.1259   20.8088 C   0  0  1  0  0  0  0  0  0  0  0  0
  -27.1186  -28.5776   20.3100 C   0  0  2  0  0  0  0  0  0  0  0  0
  -28.1711  -24.1759   23.5880 C   0  0  0  0  0  0  0  0  0  0  0  0
  -29.7915  -22.1215   16.1388 C   0  0  0  0  0  0  0  0  0  0  0  0
  -31.0835  -20.6922   27.8989 C   0  0  0  0  0  0  0  0  0  0  0  0
  -29.9151  -15.9039   18.4183 C   0  0  0  0  0  0  0  0  0  0  0  0
  -31.0525  -17.7562   17.1759 C   0  0  0  0  0  0  0  0  0  0  0  0
  -28.8924  -16.8348   16.3346 C   0  0  0  0  0  0  0  0  0  0  0  0
  -27.3357  -22.9824   18.9143 C   0  0  0  0  0  0  0  0  0  0  0  0
  -28.8072  -20.5454   26.8366 C   0  0  0  0  0  0  0  0  0  1  0  0
  -28.8997  -18.2777   18.4107 C   0  0  1  0  0  0  0  0  0  0  0  0
  -28.6885  -21.8460   17.1489 C   0  0  2  0  0  0  0  0  0  0  0  0
  -29.9225  -21.4785   27.3045 C   0  0  2  0  0  0  0  0  0  0  0  0
  -29.6814  -17.1969   17.6118 C   0  0  0  0  0  0  0  0  0  0  0  0
  -24.7387  -27.9335   20.2565 N   0  0  0  0  0  0  0  0  0  0  0  0
  -25.6780  -28.7579   20.7507 N   0  0  0  0  0  0  0  0  0  0  0  0
  -27.3496  -17.7792   20.2742 N   0  0  0  0  0  0  0  0  0  0  0  0
  -28.8593  -26.9825   19.6061 N   0  0  0  0  0  0  0  0  0  0  0  0
  -25.9997  -30.5950   22.2109 N   0  0  0  0  0  0  0  0  0  0  0  0
  -21.5572  -29.8246   22.4688 N   0  0  0  0  0  0  0  0  0  0  0  0
  -29.4209  -25.5515   21.3948 N   0  0  0  0  0  0  0  0  0  0  0  0
  -30.3919  -22.2986   26.2109 N   0  0  0  0  0  0  0  0  0  0  0  0
  -25.5459  -14.7925   21.0200 N   0  0  0  0  0  0  0  0  0  0  0  0
  -28.6403  -19.5028   17.6623 N   0  0  0  0  0  0  0  0  0  0  0  0
  -28.4161  -23.1028   17.9019 N   0  3  0  0  0  0  0  0  0  0  0  0
  -28.8764  -24.0291   26.5026 O   0  0  0  0  0  0  0  0  0  0  0  0
  -23.2608  -31.1657   23.2157 O   0  0  0  0  0  0  0  0  0  0  0  0
  -27.6837  -15.5112   21.5994 O   0  0  0  0  0  0  0  0  0  0  0  0
  -26.7179  -17.4158   18.0595 O   0  0  0  0  0  0  0  0  0  0  0  0
  -29.7151  -20.9339   19.1367 O   0  0  0  0  0  0  0  0  0  0  0  0
  -31.0118  -26.1675   19.8227 O   0  0  0  0  0  0  0  0  0  0  0  0
  -18.7389  -25.8608   19.7522 O   0  0  0  0  0  0  0  0  0  0  0  0
  -29.2906  -19.6753   25.8141 O   0  0  0  0  0  0  0  0  0  1  0  0
  -15.4329  -24.7168   24.0144 F   0  0  0  0  0  0  0  0  0  0  0  0
  -17.7861  -27.8749   21.3886 F   0  0  0  0  0  0  0  0  0  0  0  0
  1  2  1  0  0  0  0
  1  7  2  0  0  0  0
  2  8  2  0  0  0  0
  3  6  2  0  0  0  0
  3 10  1  0  0  0  0
  4 11  2  0  0  0  0
  4 18  1  0  0  0  0
  5 12  1  0  0  0  0
  5 18  2  0  0  0  0
  6 19  1  0  0  0  0
  7 21  1  0  0  0  0
  8 23  1  0  0  0  0
  9 13  2  0  0  0  0
  9 22  1  0  0  0  0
 10 26  2  0  0  0  0
 11 27  1  0  0  0  0
 12 27  2  0  0  0  0
 13 28  1  0  0  0  0
 14 15  2  0  0  0  0
 14 29  1  0  0  0  0
 15 30  1  0  0  0  0
 16 24  1  0  0  0  0
 16 28  2  0  0  0  0
 17 30  2  0  0  0  0
 17 31  1  0  0  0  0
 18 32  1  0  0  0  0
 19 25  2  0  0  0  0
 19 34  1  0  0  0  0
 20 32  1  0  0  0  0
 20 33  2  0  0  0  0
 20 35  1  0  0  0  0
 21 23  2  0  0  0  0
 21 40  1  0  0  0  0
 22 24  2  0  0  0  0
 22 41  1  0  0  0  0
 23 49  1  0  0  0  0
 24 42  1  0  0  0  0
 25 26  1  0  0  0  0
 25 52  1  0  0  0  0
 26 70  1  0  0  0  0
 27 81  1  0  0  0  0
 28 82  1  0  0  0  0
 29 31  2  0  0  0  0
 29 81  1  0  0  0  0
 30 83  1  0  0  0  0
 31 84  1  0  0  0  0
 32 64  2  0  0  0  0
 33 65  1  0  0  0  0
 33 68  1  0  0  0  0
 34 71  1  0  0  0  0
 34 75  2  0  0  0  0
 35 69  1  0  0  0  0
 35 76  2  0  0  0  0
 36 50  1  0  0  0  0
 36 72  1  0  0  0  0
 36 77  2  0  0  0  0
 37 60  1  0  0  0  0
 37 66  1  0  0  0  0
 37 78  2  0  0  0  0
 38 61  1  0  0  0  0
 38 73  1  0  0  0  0
 38 79  2  0  0  0  0
 39 67  1  0  0  0  0
 39 70  1  0  0  0  0
 39 80  2  0  0  0  0
 40 43  1  0  0  0  0
 41 50  1  0  0  0  0
 42 66  1  0  0  0  0
 43 45  1  0  0  0  0
 44 46  1  0  0  0  0
 44 47  1  0  0  0  0
 45 49  1  0  0  0  0
 46 51  1  0  0  0  0
 47 67  1  0  0  0  0
 48 51  1  0  0  0  0
 48 67  1  0  0  0  0
 49 72  1  0  0  0  0
 50 66  1  0  0  0  0
 51 65  1  0  0  0  0
 53 61  1  0  0  0  0
 54 62  1  0  0  0  0
 55 63  1  0  0  0  0
 56 63  1  0  0  0  0
 57 63  1  0  0  0  0
 58 74  1  0  0  0  0
 59 62  1  0  0  0  0
 59 82  1  0  0  0  0
 60 63  1  0  0  0  0
 60 73  1  0  0  0  0
 61 74  1  0  0  0  0
 62 71  1  0  0  0  0
 64 65  1  0  0  0  0
M  CHG  1  74   1
M  ISO  4  39 100  59 101  70 100  82 101
M  END
> <Batch ID>
0061

> <Smiles>
CNC(C)C(=O)NC(C(=O)N1Cc2cc([101O:1][101CH2:1]C(C)NC(=O)c3cccc([100NH:0][100C:0](=O)N4CCCC(n5nc(-c6ccc(Oc7ccc(F)cc7F)cc6)c(C(N)=O)c5N)C4)c3C)ccc2CC1C(=O)NC1CCCc2ccccc21)C(C)(C)C

> <Shape>
0.200

> <Color>
0.066

> <Negative vol penalty>
0.000

$$$$

  -OEChem-04042323073D

 88 97  0     1  0  0  0  0  0999 V2000
  -22.7644  -31.2165   17.8640 C   0  0  0  0  0  0  0  0  0  0  0  0
  -23.0365  -29.8691   18.0785 C   0  0  0  0  0  0  0  0  0  0  0  0
  -23.7375  -12.0935   24.0390 C   0  0  0  0  0  0  0  0  0  0  0  0
  -24.5978  -10.0592   23.0599 C   0  0  0  0  0  0  0  0  0  0  0  0
  -33.4026  -16.9229   23.1706 C   0  0  0  0  0  0  0  0  0  0  0  0
  -23.4101  -32.1872   18.6287 C   0  0  0  0  0  0  0  0  0  0  0  0
  -23.9553  -29.4917   19.0572 C   0  0  0  0  0  0  0  0  0  0  0  0
  -25.2554  -24.2584   23.7730 C   0  0  0  0  0  0  0  0  0  0  0  0
  -32.6297  -16.1585   22.2965 C   0  0  0  0  0  0  0  0  0  0  0  0
  -23.2665  -11.3678   25.1331 C   0  0  0  0  0  0  0  0  0  0  0  0
  -24.1269   -9.3335   24.1541 C   0  0  0  0  0  0  0  0  0  0  0  0
  -26.2722  -23.3877   24.1625 C   0  0  0  0  0  0  0  0  0  0  0  0
  -21.1734   -8.0944   25.2368 C   0  0  0  0  0  0  0  0  0  0  0  0
  -20.5030   -6.8982   24.9811 C   0  0  0  0  0  0  0  0  0  0  0  0
  -27.2680  -25.1483   25.4769 C   0  0  0  0  0  0  0  0  0  0  0  0
  -30.6194  -17.0954   23.2548 C   0  0  0  0  0  0  0  0  0  0  0  0
  -22.1619   -5.6950   26.2608 C   0  0  0  0  0  0  0  0  0  0  0  0
  -24.4031  -11.4392   23.0023 C   0  0  0  0  0  0  0  0  0  0  0  0
  -32.7839  -17.7734   24.0869 C   0  0  0  0  0  0  0  0  0  0  0  0
  -24.1298  -12.9639   20.9755 C   0  0  0  0  0  0  0  0  0  0  0  0
  -24.3300  -31.8211   19.6239 C   0  0  0  0  0  0  0  0  0  0  0  0
  -25.2432  -25.5859   24.2245 C   0  0  0  0  0  0  0  0  0  0  0  0
  -24.6149  -30.4585   19.8350 C   0  0  0  0  0  0  0  0  0  0  0  0
  -26.2485  -26.0332   25.0937 C   0  0  0  0  0  0  0  0  0  0  0  0
  -31.3924  -17.8597   24.1289 C   0  0  0  0  0  0  0  0  0  0  0  0
  -31.2381  -16.2448   22.3386 C   0  0  0  0  0  0  0  0  0  0  0  0
  -23.4612   -9.9878   25.1907 C   0  0  0  0  0  0  0  0  0  0  0  0
  -27.2803  -23.8334   25.0123 C   0  0  0  0  0  0  0  0  0  0  0  0
  -22.3380   -8.0909   26.0045 C   0  0  0  0  0  0  0  0  0  0  0  0
  -20.9973   -5.6985   25.4930 C   0  0  0  0  0  0  0  0  0  0  0  0
  -22.8322   -6.8912   26.5165 C   0  0  0  0  0  0  0  0  0  0  0  0
  -24.8894  -12.1882   21.8716 C   0  0  0  0  0  0  0  0  0  0  0  0
  -25.0513  -13.4654   20.0890 C   0  0  0  0  0  0  0  0  0  0  0  0
  -30.9089  -18.5693   26.4555 C   0  0  0  0  0  0  0  0  0  0  0  0
  -33.6207  -18.5580   24.9863 C   0  0  0  0  0  0  0  0  0  0  0  0
  -22.7174  -13.2092   20.9469 C   0  0  0  0  0  0  0  0  0  0  0  0
  -25.4082  -28.4338   22.8224 C   0  0  0  0  0  0  0  0  0  0  0  0
  -24.8425  -29.5133   25.8285 C   0  0  0  0  0  0  0  0  0  0  0  0
  -25.0020  -28.9432   29.1895 C   0  0  0  0  0  0  0  0  0  0  0  0
  -30.9097  -14.5746   20.4815 C   0  0  0  0  0  0  0  0  0  0  0  0
  -25.0383  -32.9081   20.3930 C   0  0  0  0  0  0  0  0  0  0  0  0
  -24.1247  -26.5051   23.8165 C   0  0  0  0  0  0  0  0  0  0  0  0
  -26.2699  -27.4431   25.6228 C   0  0  0  0  0  0  0  0  0  0  0  0
  -30.4345  -19.7082   27.3383 C   0  0  0  0  0  0  0  0  0  0  0  0
  -25.7189  -32.4095   21.6652 C   0  0  0  0  0  0  0  0  0  0  0  0
  -29.1886  -20.4072   26.8402 C   0  0  0  0  0  0  0  0  0  0  0  0
  -29.2986  -12.4461   18.1254 C   0  0  0  0  0  0  0  0  0  0  0  0
  -26.5093  -31.1356   21.3837 C   0  0  0  0  0  0  0  0  0  0  0  0
  -27.9138  -12.2140   18.7341 C   0  0  0  0  0  0  0  0  0  0  0  0
  -30.3852  -12.5130   19.1970 C   0  0  0  0  0  0  0  0  0  0  0  0
  -29.7061  -19.6529   24.5366 C   0  0  0  0  0  0  0  0  0  0  0  0
  -28.7477  -13.2416   20.8872 C   0  0  0  0  0  0  0  0  0  0  0  0
  -25.5867  -30.0085   20.9042 C   0  0  1  0  0  0  0  0  0  0  0  0
  -24.4942  -27.9811   23.9257 C   0  0  1  0  0  0  0  0  0  0  0  0
  -29.4242  -20.8725   25.4127 C   0  0  1  0  0  0  0  0  0  0  0  0
  -27.6115  -13.2317   19.8515 C   0  0  2  0  0  0  0  0  0  0  0  0
  -34.5318  -17.8077   25.9114 C   0  0  0  0  0  0  0  0  0  0  0  0
  -24.5004  -30.0258   31.3972 C   0  0  0  0  0  0  0  0  0  0  0  0
  -27.3299  -31.2562   25.5362 C   0  0  0  0  0  0  0  0  0  0  0  0
  -27.3207  -31.5645   28.0208 C   0  0  0  0  0  0  0  0  0  0  0  0
  -25.3962  -32.3776   26.6577 C   0  0  0  0  0  0  0  0  0  0  0  0
  -23.0653  -26.8274   29.9185 C   0  0  0  0  0  0  0  0  0  0  0  0
  -28.2224  -21.6535   24.8852 C   0  0  0  0  0  0  0  0  0  1  0  0
  -25.7048  -29.8929   27.0081 C   0  0  1  0  0  0  0  0  0  0  0  0
  -23.9739  -29.1239   30.2917 C   0  0  2  0  0  0  0  0  0  0  0  0
  -26.4389  -31.2467   26.7943 C   0  0  0  0  0  0  0  0  0  0  0  0
  -26.1931  -12.1934   21.5810 N   0  0  0  0  0  0  0  0  0  0  0  0
  -26.2597  -12.9784   20.4922 N   0  0  0  0  0  0  0  0  0  0  0  0
  -30.7283  -18.7348   25.0714 N   0  0  0  0  0  0  0  0  0  0  0  0
  -25.1579  -28.3056   25.1900 N   0  0  0  0  0  0  0  0  0  0  0  0
  -30.0328  -13.5007   20.2193 N   0  0  0  0  0  0  0  0  0  0  0  0
  -24.9376  -14.2710   19.0117 N   0  0  0  0  0  0  0  0  0  0  0  0
  -21.9163  -12.6163   21.9323 N   0  0  0  0  0  0  0  0  0  0  0  0
  -30.4538  -15.4678   21.4505 N   0  0  0  0  0  0  0  0  0  0  0  0
  -24.8758  -29.4270   22.0227 N   0  0  0  0  0  0  0  0  0  0  0  0
  -24.8327  -29.8641   28.1773 N   0  0  0  0  0  0  0  0  0  0  0  0
  -23.6187  -27.8059   30.8898 N   0  3  0  0  0  0  0  0  0  0  0  0
  -31.4685  -17.6114   26.9958 O   0  0  0  0  0  0  0  0  0  0  0  0
  -33.6302  -19.7875   25.0446 O   0  0  0  0  0  0  0  0  0  0  0  0
  -22.1796  -13.9194   20.0638 O   0  0  0  0  0  0  0  0  0  0  0  0
  -26.5151  -27.9210   22.7061 O   0  0  0  0  0  0  0  0  0  0  0  0
  -23.9185  -30.2574   25.4906 O   0  0  0  0  0  0  0  0  0  0  0  0
  -25.8708  -28.0746   29.2248 O   0  0  0  0  0  0  0  0  0  0  0  0
  -31.9731  -14.7080   19.8706 O   0  0  0  0  0  0  0  0  0  0  0  0
  -23.0019   -9.2794   26.2582 O   0  0  0  0  0  0  0  0  0  0  0  0
  -28.2743  -22.9858   25.3936 O   0  0  0  0  0  0  0  0  0  1  0  0
  -20.3526   -4.5501   25.2486 F   0  0  0  0  0  0  0  0  0  0  0  0
  -23.9500   -6.8817   27.2557 F   0  0  0  0  0  0  0  0  0  0  0  0
  1  2  1  0  0  0  0
  1  6  2  0  0  0  0
  2  7  2  0  0  0  0
  3 10  2  0  0  0  0
  3 18  1  0  0  0  0
  4 11  1  0  0  0  0
  4 18  2  0  0  0  0
  5  9  2  0  0  0  0
  5 19  1  0  0  0  0
  6 21  1  0  0  0  0
  7 23  1  0  0  0  0
  8 12  2  0  0  0  0
  8 22  1  0  0  0  0
  9 26  1  0  0  0  0
 10 27  1  0  0  0  0
 11 27  2  0  0  0  0
 12 28  1  0  0  0  0
 13 14  2  0  0  0  0
 13 29  1  0  0  0  0
 14 30  1  0  0  0  0
 15 24  1  0  0  0  0
 15 28  2  0  0  0  0
 16 25  1  0  0  0  0
 16 26  2  0  0  0  0
 17 30  2  0  0  0  0
 17 31  1  0  0  0  0
 18 32  1  0  0  0  0
 19 25  2  0  0  0  0
 19 35  1  0  0  0  0
 20 32  1  0  0  0  0
 20 33  2  0  0  0  0
 20 36  1  0  0  0  0
 21 23  2  0  0  0  0
 21 41  1  0  0  0  0
 22 24  2  0  0  0  0
 22 42  1  0  0  0  0
 23 53  1  0  0  0  0
 24 43  1  0  0  0  0
 25 69  1  0  0  0  0
 26 74  1  0  0  0  0
 27 85  1  0  0  0  0
 28 86  1  0  0  0  0
 29 31  2  0  0  0  0
 29 85  1  0  0  0  0
 30 87  1  0  0  0  0
 31 88  1  0  0  0  0
 32 67  2  0  0  0  0
 33 68  1  0  0  0  0
 33 72  1  0  0  0  0
 34 44  1  0  0  0  0
 34 69  1  0  0  0  0
 34 78  2  0  0  0  0
 35 57  1  0  0  0  0
 35 79  2  0  0  0  0
 36 73  1  0  0  0  0
 36 80  2  0  0  0  0
 37 54  1  0  0  0  0
 37 75  1  0  0  0  0
 37 81  2  0  0  0  0
 38 64  1  0  0  0  0
 38 70  1  0  0  0  0
 38 82  2  0  0  0  0
 39 65  1  0  0  0  0
 39 76  1  0  0  0  0
 39 83  2  0  0  0  0
 40 71  1  0  0  0  0
 40 74  1  0  0  0  0
 40 84  2  0  0  0  0
 41 45  1  0  0  0  0
 42 54  1  0  0  0  0
 43 70  1  0  0  0  0
 44 46  1  0  0  0  0
 45 48  1  0  0  0  0
 46 55  1  0  0  0  0
 47 49  1  0  0  0  0
 47 50  1  0  0  0  0
 48 53  1  0  0  0  0
 49 56  1  0  0  0  0
 50 71  1  0  0  0  0
 51 55  1  0  0  0  0
 51 69  1  0  0  0  0
 52 56  1  0  0  0  0
 52 71  1  0  0  0  0
 53 75  1  0  0  0  0
 54 70  1  0  0  0  0
 55 63  1  0  0  0  0
 56 68  1  0  0  0  0
 58 65  1  0  0  0  0
 59 66  1  0  0  0  0
 60 66  1  0  0  0  0
 61 66  1  0  0  0  0
 62 77  1  0  0  0  0
 63 86  1  0  0  0  0
 64 66  1  0  0  0  0
 64 76  1  0  0  0  0
 65 77  1  0  0  0  0
 67 68  1  0  0  0  0
M  CHG  1  77   1
M  ISO  4  40 100  63 101  74 100  86 101
M  END
> <Batch ID>
0061

> <Smiles>
CNC(C)C(=O)NC(C(=O)N1Cc2cc([101O:1][101CH2:1]C3CCC(=O)N(c4cc([100NH:0][100C:0](=O)N5CCCC(n6nc(-c7ccc(Oc8ccc(F)cc8F)cc7)c(C(N)=O)c6N)C5)ccc4C(C)=O)C3)ccc2CC1C(=O)NC1CCCc2ccccc21)C(C)(C)C

> <Shape>
0.191

> <Color>
0.092

> <Negative vol penalty>
0.000

$$$$

  -OEChem-04042323073D

 87 96  0     1  0  0  0  0  0999 V2000
  -26.5396  -28.1214   25.2952 C   0  0  0  0  0  0  0  0  0  0  0  0
  -26.9250  -26.8152   25.5791 C   0  0  0  0  0  0  0  0  0  0  0  0
  -21.6532  -23.4070   19.0860 C   0  0  0  0  0  0  0  0  0  0  0  0
  -20.1705  -22.8394   20.9071 C   0  0  0  0  0  0  0  0  0  0  0  0
  -26.2254  -28.4855   23.9866 C   0  0  0  0  0  0  0  0  0  0  0  0
  -26.9954  -25.8719   24.5545 C   0  0  0  0  0  0  0  0  0  0  0  0
  -30.7060  -20.0855   22.5385 C   0  0  0  0  0  0  0  0  0  0  0  0
  -25.1785  -10.9907   20.8491 C   0  0  0  0  0  0  0  0  0  0  0  0
  -24.0746  -11.8428   20.8182 C   0  0  0  0  0  0  0  0  0  0  0  0
  -21.9560  -24.6173   19.7098 C   0  0  0  0  0  0  0  0  0  0  0  0
  -20.4734  -24.0497   21.5309 C   0  0  0  0  0  0  0  0  0  0  0  0
  -30.5080  -18.7656   22.1354 C   0  0  0  0  0  0  0  0  0  0  0  0
  -20.5791  -27.1477   23.4285 C   0  0  0  0  0  0  0  0  0  0  0  0
  -19.5212  -27.8868   23.9580 C   0  0  0  0  0  0  0  0  0  0  0  0
  -30.0187  -19.5281   19.8997 C   0  0  0  0  0  0  0  0  0  0  0  0
  -25.5171  -13.6904   20.2328 C   0  0  0  0  0  0  0  0  0  0  0  0
  -18.5274  -28.0382   21.7611 C   0  0  0  0  0  0  0  0  0  0  0  0
  -20.7603  -22.5181   19.6847 C   0  0  0  0  0  0  0  0  0  0  0  0
  -19.8680  -21.0881   17.7698 C   0  0  0  0  0  0  0  0  0  0  0  0
  -26.3012  -27.5487   22.9439 C   0  0  0  0  0  0  0  0  0  0  0  0
  -30.5509  -21.1392   21.6263 C   0  0  0  0  0  0  0  0  0  0  0  0
  -26.6806  -26.2235   23.2309 C   0  0  0  0  0  0  0  0  0  0  0  0
  -30.2178  -20.8603   20.2931 C   0  0  0  0  0  0  0  0  0  0  0  0
  -26.4517  -11.4885   20.5719 C   0  0  0  0  0  0  0  0  0  0  0  0
  -26.6210  -12.8383   20.2637 C   0  0  0  0  0  0  0  0  0  0  0  0
  -24.2439  -13.1926   20.5100 C   0  0  0  0  0  0  0  0  0  0  0  0
  -21.3662  -24.9387   20.9322 C   0  0  0  0  0  0  0  0  0  0  0  0
  -30.1615  -18.4870   20.8165 C   0  0  0  0  0  0  0  0  0  0  0  0
  -20.6111  -26.8539   22.0653 C   0  0  0  0  0  0  0  0  0  0  0  0
  -18.4954  -28.3320   23.1243 C   0  0  0  0  0  0  0  0  0  0  0  0
  -19.5853  -27.2991   21.2316 C   0  0  0  0  0  0  0  0  0  0  0  0
  -20.4466  -21.2680   19.0405 C   0  0  0  0  0  0  0  0  0  0  0  0
  -19.7779  -19.7254   17.6234 C   0  0  0  0  0  0  0  0  0  0  0  0
  -28.6893  -12.8790   18.8990 C   0  0  0  0  0  0  0  0  0  0  0  0
  -19.4496  -22.0654   16.8078 C   0  0  0  0  0  0  0  0  0  0  0  0
  -28.6236  -23.6580   21.4154 C   0  0  0  0  0  0  0  0  0  0  0  0
  -30.5176  -24.4058   18.8903 C   0  0  0  0  0  0  0  0  0  0  0  0
  -32.6599  -23.3363   16.4586 C   0  0  0  0  0  0  0  0  0  0  0  0
  -23.1049  -15.4256   20.1920 C   0  0  0  0  0  0  0  0  0  0  0  0
  -25.9063  -27.9772   21.5528 C   0  0  0  0  0  0  0  0  0  0  0  0
  -30.7941  -22.5555   22.0704 C   0  0  0  0  0  0  0  0  0  0  0  0
  -30.0589  -21.9541   19.2700 C   0  0  0  0  0  0  0  0  0  0  0  0
  -30.1541  -13.2694   18.8716 C   0  0  0  0  0  0  0  0  0  0  0  0
  -26.3677  -27.0118   20.4640 C   0  0  0  0  0  0  0  0  0  0  0  0
  -19.4062  -16.1733   20.8881 C   0  0  0  0  0  0  0  0  0  0  0  0
  -26.0530  -25.5723   20.8586 C   0  0  0  0  0  0  0  0  0  0  0  0
  -19.1328  -17.1689   19.7632 C   0  0  0  0  0  0  0  0  0  0  0  0
  -20.5902  -15.2652   20.5805 C   0  0  0  0  0  0  0  0  0  0  0  0
  -28.3462  -14.5850   20.7015 C   0  0  0  0  0  0  0  0  0  0  0  0
  -21.6646  -17.4419   19.9775 C   0  0  0  0  0  0  0  0  0  0  0  0
  -26.7928  -25.1779   22.1426 C   0  0  1  0  0  0  0  0  0  0  0  0
  -30.1061  -23.5869   21.1815 C   0  0  1  0  0  0  0  0  0  0  0  0
  -30.4448  -14.6818   19.3630 C   0  0  1  0  0  0  0  0  0  0  0  0
  -29.8588  -14.8190   20.7725 C   0  0  1  0  0  0  0  0  0  0  0  0
  -20.4202  -17.7216   19.1203 C   0  0  2  0  0  0  0  0  0  0  0  0
  -27.6160  -10.5527   20.6123 C   0  0  0  0  0  0  0  0  0  0  0  0
  -31.9505  -14.9471   19.3078 C   0  0  0  0  0  0  0  0  0  0  0  0
  -34.0161  -24.1739   14.5204 C   0  0  0  0  0  0  0  0  0  0  0  0
  -27.9797  -24.6195   17.2101 C   0  0  0  0  0  0  0  0  0  0  0  0
  -29.4115  -24.5082   15.1593 C   0  0  0  0  0  0  0  0  0  0  0  0
  -29.6790  -26.3993   16.7640 C   0  0  0  0  0  0  0  0  0  0  0  0
  -35.1966  -22.4566   17.7037 C   0  0  0  0  0  0  0  0  0  0  0  0
  -30.1347  -16.1838   21.4087 C   0  0  0  0  0  0  0  0  0  1  0  0
  -30.5002  -24.0977   17.4126 C   0  0  1  0  0  0  0  0  0  0  0  0
  -34.0127  -23.8570   16.0078 C   0  0  2  0  0  0  0  0  0  0  0  0
  -29.3936  -24.8855   16.6560 C   0  0  0  0  0  0  0  0  0  0  0  0
  -20.7056  -20.1120   19.6575 N   0  0  0  0  0  0  0  0  0  0  0  0
  -20.2878  -19.1927   18.7707 N   0  0  0  0  0  0  0  0  0  0  0  0
  -27.9340  -13.3739   19.9733 N   0  0  0  0  0  0  0  0  0  0  0  0
  -30.3011  -23.3231   19.7544 N   0  0  0  0  0  0  0  0  0  0  0  0
  -21.8142  -16.0066   20.2437 N   0  0  0  0  0  0  0  0  0  0  0  0
  -19.3129  -18.9429   16.6264 N   0  0  0  0  0  0  0  0  0  0  0  0
  -18.1324  -22.5406   16.8677 N   0  0  0  0  0  0  0  0  0  0  0  0
  -23.1219  -14.0580   20.4788 N   0  0  0  0  0  0  0  0  0  0  0  0
  -28.1822  -24.8906   21.8575 N   0  0  0  0  0  0  0  0  0  0  0  0
  -31.8523  -24.3511   16.9268 N   0  0  0  0  0  0  0  0  0  0  0  0
  -35.0728  -22.8441   16.2749 N   0  3  0  0  0  0  0  0  0  0  0  0
  -28.2755  -12.1141   18.0236 O   0  0  0  0  0  0  0  0  0  0  0  0
  -20.2160  -22.4922   15.9112 O   0  0  0  0  0  0  0  0  0  0  0  0
  -27.9311  -22.6684   21.2085 O   0  0  0  0  0  0  0  0  0  0  0  0
  -30.7230  -25.5632   19.2644 O   0  0  0  0  0  0  0  0  0  0  0  0
  -32.3493  -22.1487   16.3978 O   0  0  0  0  0  0  0  0  0  0  0  0
  -24.1031  -16.0894   19.9042 O   0  0  0  0  0  0  0  0  0  0  0  0
  -21.6617  -26.1194   21.5413 O   0  0  0  0  0  0  0  0  0  0  0  0
  -29.9671  -17.1996   20.4206 O   0  0  0  0  0  0  0  0  0  1  0  0
  -17.4788  -29.0404   23.6332 F   0  0  0  0  0  0  0  0  0  0  0  0
  -19.6100  -27.0190   19.9214 F   0  0  0  0  0  0  0  0  0  0  0  0
  1  2  1  0  0  0  0
  1  5  2  0  0  0  0
  2  6  2  0  0  0  0
  3 10  2  0  0  0  0
  3 18  1  0  0  0  0
  4 11  1  0  0  0  0
  4 18  2  0  0  0  0
  5 20  1  0  0  0  0
  6 22  1  0  0  0  0
  7 12  2  0  0  0  0
  7 21  1  0  0  0  0
  8  9  2  0  0  0  0
  8 24  1  0  0  0  0
  9 26  1  0  0  0  0
 10 27  1  0  0  0  0
 11 27  2  0  0  0  0
 12 28  1  0  0  0  0
 13 14  2  0  0  0  0
 13 29  1  0  0  0  0
 14 30  1  0  0  0  0
 15 23  1  0  0  0  0
 15 28  2  0  0  0  0
 16 25  1  0  0  0  0
 16 26  2  0  0  0  0
 17 30  2  0  0  0  0
 17 31  1  0  0  0  0
 18 32  1  0  0  0  0
 19 32  1  0  0  0  0
 19 33  2  0  0  0  0
 19 35  1  0  0  0  0
 20 22  2  0  0  0  0
 20 40  1  0  0  0  0
 21 23  2  0  0  0  0
 21 41  1  0  0  0  0
 22 51  1  0  0  0  0
 23 42  1  0  0  0  0
 24 25  2  0  0  0  0
 24 56  1  0  0  0  0
 25 69  1  0  0  0  0
 26 74  1  0  0  0  0
 27 84  1  0  0  0  0
 28 85  1  0  0  0  0
 29 31  2  0  0  0  0
 29 84  1  0  0  0  0
 30 86  1  0  0  0  0
 31 87  1  0  0  0  0
 32 67  2  0  0  0  0
 33 68  1  0  0  0  0
 33 72  1  0  0  0  0
 34 43  1  0  0  0  0
 34 69  1  0  0  0  0
 34 78  2  0  0  0  0
 35 73  1  0  0  0  0
 35 79  2  0  0  0  0
 36 52  1  0  0  0  0
 36 75  1  0  0  0  0
 36 80  2  0  0  0  0
 37 64  1  0  0  0  0
 37 70  1  0  0  0  0
 37 81  2  0  0  0  0
 38 65  1  0  0  0  0
 38 76  1  0  0  0  0
 38 82  2  0  0  0  0
 39 71  1  0  0  0  0
 39 74  1  0  0  0  0
 39 83  2  0  0  0  0
 40 44  1  0  0  0  0
 41 52  1  0  0  0  0
 42 70  1  0  0  0  0
 43 53  1  0  0  0  0
 44 46  1  0  0  0  0
 45 47  1  0  0  0  0
 45 48  1  0  0  0  0
 46 51  1  0  0  0  0
 47 55  1  0  0  0  0
 48 71  1  0  0  0  0
 49 54  1  0  0  0  0
 49 69  1  0  0  0  0
 50 55  1  0  0  0  0
 50 71  1  0  0  0  0
 51 75  1  0  0  0  0
 52 70  1  0  0  0  0
 53 54  1  0  0  0  0
 53 57  1  0  0  0  0
 54 63  1  0  0  0  0
 55 68  1  0  0  0  0
 58 65  1  0  0  0  0
 59 66  1  0  0  0  0
 60 66  1  0  0  0  0
 61 66  1  0  0  0  0
 62 77  1  0  0  0  0
 63 85  1  0  0  0  0
 64 66  1  0  0  0  0
 64 76  1  0  0  0  0
 65 77  1  0  0  0  0
 67 68  1  0  0  0  0
M  CHG  1  77   1
M  ISO  4  39 100  63 101  74 100  85 101
M  END
> <Batch ID>
0061

> <Smiles>
CNC(C)C(=O)NC(C(=O)N1Cc2cc([101O:1][101CH2:1]C3CN(c4cc([100NH:0][100C:0](=O)N5CCCC(n6nc(-c7ccc(Oc8ccc(F)cc8F)cc7)c(C(N)=O)c6N)C5)ccc4C)C(=O)CC3C)ccc2CC1C(=O)NC1CCCc2ccccc21)C(C)(C)C

> <Shape>
0.224

> <Color>
0.069

> <Negative vol penalty>
0.000

$$$$

  -OEChem-04042323073D

 85 93  0     1  0  0  0  0  0999 V2000
  -17.4686  -24.5930   23.4434 C   0  0  0  0  0  0  0  0  0  0  0  0
  -18.8222  -24.2737   23.4053 C   0  0  0  0  0  0  0  0  0  0  0  0
  -23.0564   -9.9772   21.5173 C   0  0  0  0  0  0  0  0  0  0  0  0
  -23.7818  -10.9809   23.5918 C   0  0  0  0  0  0  0  0  0  0  0  0
  -17.0638  -25.9226   23.3332 C   0  0  0  0  0  0  0  0  0  0  0  0
  -19.7717  -25.2839   23.2558 C   0  0  0  0  0  0  0  0  0  0  0  0
  -23.6913  -24.7492   26.4173 C   0  0  0  0  0  0  0  0  0  0  0  0
  -32.7607  -18.2229   21.5511 C   0  0  0  0  0  0  0  0  0  0  0  0
  -32.1651  -17.0401   21.1132 C   0  0  0  0  0  0  0  0  0  0  0  0
  -22.2810   -9.0632   22.2306 C   0  0  0  0  0  0  0  0  0  0  0  0
  -23.0064  -10.0669   24.3051 C   0  0  0  0  0  0  0  0  0  0  0  0
  -24.6568  -23.8017   26.0799 C   0  0  0  0  0  0  0  0  0  0  0  0
  -22.7679   -6.2028   23.9644 C   0  0  0  0  0  0  0  0  0  0  0  0
  -22.8236   -4.8644   23.5758 C   0  0  0  0  0  0  0  0  0  0  0  0
  -26.0687  -25.5568   25.2164 C   0  0  0  0  0  0  0  0  0  0  0  0
  -29.9940  -18.0950   21.2166 C   0  0  0  0  0  0  0  0  0  0  0  0
  -20.4494   -4.8950   23.1295 C   0  0  0  0  0  0  0  0  0  0  0  0
  -23.8069  -10.9360   22.1978 C   0  0  0  0  0  0  0  0  0  0  0  0
  -24.2119  -13.1453   20.9883 C   0  0  0  0  0  0  0  0  0  0  0  0
  -18.0093  -26.9505   23.1920 C   0  0  0  0  0  0  0  0  0  0  0  0
  -23.9030  -26.1087   26.1464 C   0  0  0  0  0  0  0  0  0  0  0  0
  -19.3790  -26.6284   23.1422 C   0  0  0  0  0  0  0  0  0  0  0  0
  -25.1054  -26.5198   25.5537 C   0  0  0  0  0  0  0  0  0  0  0  0
  -31.9729  -19.3418   21.8219 C   0  0  0  0  0  0  0  0  0  0  0  0
  -30.7818  -16.9761   20.9459 C   0  0  0  0  0  0  0  0  0  0  0  0
  -30.5896  -19.2778   21.6546 C   0  0  0  0  0  0  0  0  0  0  0  0
  -22.2560   -9.1080   23.6245 C   0  0  0  0  0  0  0  0  0  0  0  0
  -25.8445  -24.2051   25.4767 C   0  0  0  0  0  0  0  0  0  0  0  0
  -21.5528   -6.8874   23.9356 C   0  0  0  0  0  0  0  0  0  0  0  0
  -21.6644   -4.2105   23.1583 C   0  0  0  0  0  0  0  0  0  0  0  0
  -20.3936   -6.2335   23.5182 C   0  0  0  0  0  0  0  0  0  0  0  0
  -24.6085  -11.8801   21.4615 C   0  0  0  0  0  0  0  0  0  0  0  0
  -25.3273  -13.6417   20.3591 C   0  0  0  0  0  0  0  0  0  0  0  0
  -28.0838  -22.2824   23.4269 C   0  0  0  0  0  0  0  0  0  0  0  0
  -22.9482  -13.8122   21.1071 C   0  0  0  0  0  0  0  0  0  0  0  0
  -27.8589  -21.8399   22.1768 C   0  0  0  0  0  0  0  0  0  0  0  0
  -28.3935  -20.4885   21.8053 C   0  0  0  0  0  0  0  0  0  0  0  0
  -22.4530  -28.2892   24.3446 C   0  0  0  0  0  0  0  0  0  0  0  0
  -24.5661  -30.3005   25.7630 C   0  0  0  0  0  0  0  0  0  0  0  0
  -27.5596  -30.7089   27.3501 C   0  0  0  0  0  0  0  0  0  0  0  0
  -30.8141  -14.5737   20.1884 C   0  0  0  0  0  0  0  0  0  0  0  0
  -17.5214  -28.3683   23.0291 C   0  0  0  0  0  0  0  0  0  0  0  0
  -22.8630  -27.1212   26.5409 C   0  0  0  0  0  0  0  0  0  0  0  0
  -25.3899  -27.9694   25.2602 C   0  0  0  0  0  0  0  0  0  0  0  0
  -18.6094  -29.4161   23.2496 C   0  0  0  0  0  0  0  0  0  0  0  0
  -29.6768  -11.3814   19.0961 C   0  0  0  0  0  0  0  0  0  0  0  0
  -19.8801  -29.0325   22.4980 C   0  0  0  0  0  0  0  0  0  0  0  0
  -28.2242  -11.3307   19.5752 C   0  0  0  0  0  0  0  0  0  0  0  0
  -30.5791  -12.1016   20.0966 C   0  0  0  0  0  0  0  0  0  0  0  0
  -28.6699  -13.3890   20.9723 C   0  0  0  0  0  0  0  0  0  0  0  0
  -20.4403  -27.6986   23.0062 C   0  0  1  0  0  0  0  0  0  0  0  0
  -22.9657  -28.4222   25.7507 C   0  0  1  0  0  0  0  0  0  0  0  0
  -27.7109  -12.7301   19.9674 C   0  0  2  0  0  0  0  0  0  0  0  0
  -32.6380  -20.5955   22.2897 C   0  0  0  0  0  0  0  0  0  0  0  0
  -27.0851  -22.5363   21.1009 C   0  0  0  0  0  0  0  0  0  0  0  0
  -29.0308  -32.4752   28.3564 C   0  0  0  0  0  0  0  0  0  0  0  0
  -25.3983  -31.1965   22.9675 C   0  0  0  0  0  0  0  0  0  0  0  0
  -27.4552  -32.2041   23.9786 C   0  0  0  0  0  0  0  0  0  0  0  0
  -25.2019  -33.0452   24.6402 C   0  0  0  0  0  0  0  0  0  0  0  0
  -27.4288  -29.4562   30.0283 C   0  0  0  0  0  0  0  0  0  0  0  0
  -27.6147  -23.5736   24.0195 C   0  0  0  0  0  0  0  0  0  1  0  0
  -25.9647  -30.7753   25.4510 C   0  0  1  0  0  0  0  0  0  0  0  0
  -27.9339  -31.4549   28.6181 C   0  0  2  0  0  0  0  0  0  0  0  0
  -25.9991  -31.7777   24.2630 C   0  0  0  0  0  0  0  0  0  0  0  0
  -25.8768  -11.5907   21.1586 N   0  0  0  0  0  0  0  0  0  0  0  0
  -26.2867  -12.6810   20.4883 N   0  0  0  0  0  0  0  0  0  0  0  0
  -24.3394  -28.9208   25.6589 N   0  0  0  0  0  0  0  0  0  0  0  0
  -30.0324  -13.4217   20.4178 N   0  0  0  0  0  0  0  0  0  0  0  0
  -25.5712  -14.8018   19.7134 N   0  0  0  0  0  0  0  0  0  0  0  0
  -21.9095  -13.1597   21.7851 N   0  0  0  0  0  0  0  0  0  0  0  0
  -29.7731  -20.4028   21.9245 N   0  0  0  0  0  0  0  0  0  0  0  0
  -30.1773  -15.7743   20.5010 N   0  0  0  0  0  0  0  0  0  0  0  0
  -21.1334  -27.8873   24.2625 N   0  0  0  0  0  0  0  0  0  0  0  0
  -26.5026  -31.3080   26.6981 N   0  0  0  0  0  0  0  0  0  0  0  0
  -28.4169  -30.5015   29.6566 N   0  3  0  0  0  0  0  0  0  0  0  0
  -22.7412  -14.9460   20.6119 O   0  0  0  0  0  0  0  0  0  0  0  0
  -27.6153  -19.6320   21.3979 O   0  0  0  0  0  0  0  0  0  0  0  0
  -23.1989  -28.5346   23.4038 O   0  0  0  0  0  0  0  0  0  0  0  0
  -23.7081  -31.1227   26.0940 O   0  0  0  0  0  0  0  0  0  0  0  0
  -28.1485  -29.6979   26.9736 O   0  0  0  0  0  0  0  0  0  0  0  0
  -31.9539  -14.5022   19.7217 O   0  0  0  0  0  0  0  0  0  0  0  0
  -21.4992   -8.2164   24.3210 O   0  0  0  0  0  0  0  0  0  0  0  0
  -26.7883  -23.2823   25.1458 O   0  0  0  0  0  0  0  0  0  1  0  0
  -21.7184   -2.9256   22.7837 F   0  0  0  0  0  0  0  0  0  0  0  0
  -19.2237   -6.8862   23.4873 F   0  0  0  0  0  0  0  0  0  0  0  0
  1  2  1  0  0  0  0
  1  5  2  0  0  0  0
  2  6  2  0  0  0  0
  3 10  2  0  0  0  0
  3 18  1  0  0  0  0
  4 11  1  0  0  0  0
  4 18  2  0  0  0  0
  5 20  1  0  0  0  0
  6 22  1  0  0  0  0
  7 12  2  0  0  0  0
  7 21  1  0  0  0  0
  8  9  2  0  0  0  0
  8 24  1  0  0  0  0
  9 25  1  0  0  0  0
 10 27  1  0  0  0  0
 11 27  2  0  0  0  0
 12 28  1  0  0  0  0
 13 14  2  0  0  0  0
 13 29  1  0  0  0  0
 14 30  1  0  0  0  0
 15 23  1  0  0  0  0
 15 28  2  0  0  0  0
 16 25  2  0  0  0  0
 16 26  1  0  0  0  0
 17 30  2  0  0  0  0
 17 31  1  0  0  0  0
 18 32  1  0  0  0  0
 19 32  1  0  0  0  0
 19 33  2  0  0  0  0
 19 35  1  0  0  0  0
 20 22  2  0  0  0  0
 20 42  1  0  0  0  0
 21 23  2  0  0  0  0
 21 43  1  0  0  0  0
 22 51  1  0  0  0  0
 23 44  1  0  0  0  0
 24 26  2  0  0  0  0
 24 54  1  0  0  0  0
 25 72  1  0  0  0  0
 26 71  1  0  0  0  0
 27 82  1  0  0  0  0
 28 83  1  0  0  0  0
 29 31  2  0  0  0  0
 29 82  1  0  0  0  0
 30 84  1  0  0  0  0
 31 85  1  0  0  0  0
 32 65  2  0  0  0  0
 33 66  1  0  0  0  0
 33 69  1  0  0  0  0
 34 36  2  0  0  0  0
 34 61  1  0  0  0  0
 35 70  1  0  0  0  0
 35 76  2  0  0  0  0
 36 37  1  0  0  0  0
 36 55  1  0  0  0  0
 37 71  1  0  0  0  0
 37 77  2  0  0  0  0
 38 52  1  0  0  0  0
 38 73  1  0  0  0  0
 38 78  2  0  0  0  0
 39 62  1  0  0  0  0
 39 67  1  0  0  0  0
 39 79  2  0  0  0  0
 40 63  1  0  0  0  0
 40 74  1  0  0  0  0
 40 80  2  0  0  0  0
 41 68  1  0  0  0  0
 41 72  1  0  0  0  0
 41 81  2  0  0  0  0
 42 45  1  0  0  0  0
 43 52  1  0  0  0  0
 44 67  1  0  0  0  0
 45 47  1  0  0  0  0
 46 48  1  0  0  0  0
 46 49  1  0  0  0  0
 47 51  1  0  0  0  0
 48 53  1  0  0  0  0
 49 68  1  0  0  0  0
 50 53  1  0  0  0  0
 50 68  1  0  0  0  0
 51 73  1  0  0  0  0
 52 67  1  0  0  0  0
 53 66  1  0  0  0  0
 56 63  1  0  0  0  0
 57 64  1  0  0  0  0
 58 64  1  0  0  0  0
 59 64  1  0  0  0  0
 60 75  1  0  0  0  0
 61 83  1  0  0  0  0
 62 64  1  0  0  0  0
 62 74  1  0  0  0  0
 63 75  1  0  0  0  0
 65 66  1  0  0  0  0
M  CHG  1  75   1
M  ISO  4  41 100  61 101  72 100  83 101
M  END
> <Batch ID>
0061

> <Smiles>
CNC(C)C(=O)NC(C(=O)N1Cc2cc([101O:1][101CH2:1]C=C(C)C(=O)Nc3cc([100NH:0][100C:0](=O)N4CCCC(n5nc(-c6ccc(Oc7ccc(F)cc7F)cc6)c(C(N)=O)c5N)C4)ccc3C)ccc2CC1C(=O)NC1CCCc2ccccc21)C(C)(C)C

> <Shape>
0.286

> <Color>
0.171

> <Negative vol penalty>
0.000

$$$$

  -OEChem-04042323073D

 86 95  0     1  0  0  0  0  0999 V2000
  -24.8391  -38.4639   22.6921 C   0  0  0  0  0  0  0  0  0  0  0  0
  -24.9154  -37.3937   21.8065 C   0  0  0  0  0  0  0  0  0  0  0  0
  -26.1647  -13.6819   19.5677 C   0  0  0  0  0  0  0  0  0  0  0  0
  -26.3245  -13.6525   21.9782 C   0  0  0  0  0  0  0  0  0  0  0  0
  -25.3210  -38.3261   23.9932 C   0  0  0  0  0  0  0  0  0  0  0  0
  -25.4746  -36.1855   22.2211 C   0  0  0  0  0  0  0  0  0  0  0  0
  -23.7775  -30.5595   20.4966 C   0  0  0  0  0  0  0  0  0  0  0  0
  -31.8761  -25.2431   21.4170 C   0  0  0  0  0  0  0  0  0  0  0  0
  -31.8704  -23.9192   21.8563 C   0  0  0  0  0  0  0  0  0  0  0  0
  -24.8573  -13.2025   19.6485 C   0  0  0  0  0  0  0  0  0  0  0  0
  -25.0171  -13.1732   22.0590 C   0  0  0  0  0  0  0  0  0  0  0  0
  -24.2870  -29.6762   19.5458 C   0  0  0  0  0  0  0  0  0  0  0  0
  -23.3196  -10.2367   20.1619 C   0  0  0  0  0  0  0  0  0  0  0  0
  -22.9543   -9.2038   19.2986 C   0  0  0  0  0  0  0  0  0  0  0  0
  -25.5609  -28.5669   21.2680 C   0  0  0  0  0  0  0  0  0  0  0  0
  -30.2019  -23.3755   20.1957 C   0  0  0  0  0  0  0  0  0  0  0  0
  -21.2367  -10.6092   18.3438 C   0  0  0  0  0  0  0  0  0  0  0  0
  -26.8983  -13.9069   20.7325 C   0  0  0  0  0  0  0  0  0  0  0  0
  -29.3414  -13.7875   20.0080 C   0  0  0  0  0  0  0  0  0  0  0  0
  -25.8776  -37.1126   24.4269 C   0  0  0  0  0  0  0  0  0  0  0  0
  -24.1650  -30.4598   21.8406 C   0  0  0  0  0  0  0  0  0  0  0  0
  -25.9655  -36.0318   23.5288 C   0  0  0  0  0  0  0  0  0  0  0  0
  -25.0529  -29.4485   22.2342 C   0  0  0  0  0  0  0  0  0  0  0  0
  -31.0447  -25.6332   20.3671 C   0  0  0  0  0  0  0  0  0  0  0  0
  -30.2076  -24.6994   19.7564 C   0  0  0  0  0  0  0  0  0  0  0  0
  -31.0333  -22.9854   21.2456 C   0  0  0  0  0  0  0  0  0  0  0  0
  -24.2835  -12.9482   20.8941 C   0  0  0  0  0  0  0  0  0  0  0  0
  -25.1811  -28.6815   19.9309 C   0  0  0  0  0  0  0  0  0  0  0  0
  -22.6433  -11.4559   20.1162 C   0  0  0  0  0  0  0  0  0  0  0  0
  -21.9129   -9.3901   18.3895 C   0  0  0  0  0  0  0  0  0  0  0  0
  -21.6019  -11.6421   19.2071 C   0  0  0  0  0  0  0  0  0  0  0  0
  -28.2491  -14.4015   20.6497 C   0  0  0  0  0  0  0  0  0  0  0  0
  -30.3901  -14.6500   20.2147 C   0  0  0  0  0  0  0  0  0  0  0  0
  -29.8539  -25.6128   17.4709 C   0  0  0  0  0  0  0  0  0  0  0  0
  -29.4025  -12.5483   19.2894 C   0  0  0  0  0  0  0  0  0  0  0  0
  -25.6770  -32.3655   23.8864 C   0  0  0  0  0  0  0  0  0  0  0  0
  -24.9245  -30.0334   26.0118 C   0  0  0  0  0  0  0  0  0  0  0  0
  -24.1351  -26.7589   26.5611 C   0  0  0  0  0  0  0  0  0  0  0  0
  -30.2610  -20.5800   21.2021 C   0  0  0  0  0  0  0  0  0  0  0  0
  -26.4283  -37.0262   25.8283 C   0  0  0  0  0  0  0  0  0  0  0  0
  -23.5856  -31.4035   22.8585 C   0  0  0  0  0  0  0  0  0  0  0  0
  -25.4848  -29.2863   23.6680 C   0  0  0  0  0  0  0  0  0  0  0  0
  -28.7783  -26.0274   16.4849 C   0  0  0  0  0  0  0  0  0  0  0  0
  -26.6648  -35.5947   26.3027 C   0  0  0  0  0  0  0  0  0  0  0  0
  -27.6988  -26.8090   17.2117 C   0  0  0  0  0  0  0  0  0  0  0  0
  -31.2454  -17.8649   23.7286 C   0  0  0  0  0  0  0  0  0  0  0  0
  -27.3850  -34.7879   25.2269 C   0  0  0  0  0  0  0  0  0  0  0  0
  -31.3080  -16.6593   22.7937 C   0  0  0  0  0  0  0  0  0  0  0  0
  -31.4295  -19.1821   22.9856 C   0  0  0  0  0  0  0  0  0  0  0  0
  -27.9081  -24.7785   18.7471 C   0  0  0  0  0  0  0  0  0  0  0  0
  -29.7325  -18.1629   21.4568 C   0  0  0  0  0  0  0  0  0  0  0  0
  -26.5427  -34.6974   23.9487 C   0  0  1  0  0  0  0  0  0  0  0  0
  -24.4465  -31.5331   24.1113 C   0  0  1  0  0  0  0  0  0  0  0  0
  -27.0220  -25.9516   18.2880 C   0  0  1  0  0  0  0  0  0  0  0  0
  -30.6274  -16.9139   21.4342 C   0  0  2  0  0  0  0  0  0  0  0  0
  -31.0718  -27.0579   19.9174 C   0  0  0  0  0  0  0  0  0  0  0  0
  -23.6128  -25.1415   28.4073 C   0  0  0  0  0  0  0  0  0  0  0  0
  -27.8827  -29.9267   26.7519 C   0  0  0  0  0  0  0  0  0  0  0  0
  -27.4566  -27.7175   27.8502 C   0  0  0  0  0  0  0  0  0  0  0  0
  -26.3151  -29.7687   28.6941 C   0  0  0  0  0  0  0  0  0  0  0  0
  -21.4412  -26.2028   25.4689 C   0  0  0  0  0  0  0  0  0  0  0  0
  -26.5920  -26.8235   19.4691 C   0  0  0  0  0  0  0  0  0  1  0  0
  -25.5915  -28.7659   26.4889 C   0  0  1  0  0  0  0  0  0  0  0  0
  -23.0381  -26.1122   27.3874 C   0  0  2  0  0  0  0  0  0  0  0  0
  -26.8050  -29.0487   27.4188 C   0  0  0  0  0  0  0  0  0  0  0  0
  -28.5739  -15.5641   21.2213 N   0  0  0  0  0  0  0  0  0  0  0  0
  -29.8821  -15.6876   20.9396 N   0  0  0  0  0  0  0  0  0  0  0  0
  -29.3430  -25.0820   18.6725 N   0  0  0  0  0  0  0  0  0  0  0  0
  -24.8955  -30.2374   24.6249 N   0  0  0  0  0  0  0  0  0  0  0  0
  -30.4894  -19.3509   21.8681 N   0  0  0  0  0  0  0  0  0  0  0  0
  -31.6881  -14.6144   19.8453 N   0  0  0  0  0  0  0  0  0  0  0  0
  -29.7117  -11.3794   19.9982 N   0  0  0  0  0  0  0  0  0  0  0  0
  -31.0278  -21.6403   21.6924 N   0  0  0  0  0  0  0  0  0  0  0  0
  -25.4898  -33.7170   24.1056 N   0  0  0  0  0  0  0  0  0  0  0  0
  -24.5428  -27.9592   27.1036 N   0  0  0  0  0  0  0  0  0  0  0  0
  -22.0974  -25.3650   26.5055 N   0  3  0  0  0  0  0  0  0  0  0  0
  -31.0394  -25.7074   17.1548 O   0  0  0  0  0  0  0  0  0  0  0  0
  -29.2055  -12.4822   18.0523 O   0  0  0  0  0  0  0  0  0  0  0  0
  -26.7195  -31.8218   23.5412 O   0  0  0  0  0  0  0  0  0  0  0  0
  -24.4405  -30.8102   26.8388 O   0  0  0  0  0  0  0  0  0  0  0  0
  -24.5877  -26.2485   25.5388 O   0  0  0  0  0  0  0  0  0  0  0  0
  -29.4612  -20.6720   20.2685 O   0  0  0  0  0  0  0  0  0  0  0  0
  -23.0077  -12.4806   20.9734 O   0  0  0  0  0  0  0  0  0  0  0  0
  -25.6804  -27.8184   19.0048 O   0  0  0  0  0  0  0  0  0  1  0  0
  -21.5632   -8.3986   17.5595 F   0  0  0  0  0  0  0  0  0  0  0  0
  -20.9494  -12.8116   19.1577 F   0  0  0  0  0  0  0  0  0  0  0  0
  1  2  1  0  0  0  0
  1  5  2  0  0  0  0
  2  6  2  0  0  0  0
  3 10  2  0  0  0  0
  3 18  1  0  0  0  0
  4 11  1  0  0  0  0
  4 18  2  0  0  0  0
  5 20  1  0  0  0  0
  6 22  1  0  0  0  0
  7 12  2  0  0  0  0
  7 21  1  0  0  0  0
  8  9  2  0  0  0  0
  8 24  1  0  0  0  0
  9 26  1  0  0  0  0
 10 27  1  0  0  0  0
 11 27  2  0  0  0  0
 12 28  1  0  0  0  0
 13 14  2  0  0  0  0
 13 29  1  0  0  0  0
 14 30  1  0  0  0  0
 15 23  1  0  0  0  0
 15 28  2  0  0  0  0
 16 25  1  0  0  0  0
 16 26  2  0  0  0  0
 17 30  2  0  0  0  0
 17 31  1  0  0  0  0
 18 32  1  0  0  0  0
 19 32  1  0  0  0  0
 19 33  2  0  0  0  0
 19 35  1  0  0  0  0
 20 22  2  0  0  0  0
 20 40  1  0  0  0  0
 21 23  2  0  0  0  0
 21 41  1  0  0  0  0
 22 52  1  0  0  0  0
 23 42  1  0  0  0  0
 24 25  2  0  0  0  0
 24 56  1  0  0  0  0
 25 68  1  0  0  0  0
 26 73  1  0  0  0  0
 27 83  1  0  0  0  0
 28 84  1  0  0  0  0
 29 31  2  0  0  0  0
 29 83  1  0  0  0  0
 30 85  1  0  0  0  0
 31 86  1  0  0  0  0
 32 66  2  0  0  0  0
 33 67  1  0  0  0  0
 33 71  1  0  0  0  0
 34 43  1  0  0  0  0
 34 68  1  0  0  0  0
 34 77  2  0  0  0  0
 35 72  1  0  0  0  0
 35 78  2  0  0  0  0
 36 53  1  0  0  0  0
 36 74  1  0  0  0  0
 36 79  2  0  0  0  0
 37 63  1  0  0  0  0
 37 69  1  0  0  0  0
 37 80  2  0  0  0  0
 38 64  1  0  0  0  0
 38 75  1  0  0  0  0
 38 81  2  0  0  0  0
 39 70  1  0  0  0  0
 39 73  1  0  0  0  0
 39 82  2  0  0  0  0
 40 44  1  0  0  0  0
 41 53  1  0  0  0  0
 42 69  1  0  0  0  0
 43 45  1  0  0  0  0
 44 47  1  0  0  0  0
 45 54  1  0  0  0  0
 46 48  1  0  0  0  0
 46 49  1  0  0  0  0
 47 52  1  0  0  0  0
 48 55  1  0  0  0  0
 49 70  1  0  0  0  0
 50 54  1  0  0  0  0
 50 68  1  0  0  0  0
 51 55  1  0  0  0  0
 51 70  1  0  0  0  0
 52 74  1  0  0  0  0
 53 69  1  0  0  0  0
 54 62  1  0  0  0  0
 55 67  1  0  0  0  0
 57 64  1  0  0  0  0
 58 65  1  0  0  0  0
 59 65  1  0  0  0  0
 60 65  1  0  0  0  0
 61 76  1  0  0  0  0
 62 84  1  0  0  0  0
 63 65  1  0  0  0  0
 63 75  1  0  0  0  0
 64 76  1  0  0  0  0
 66 67  1  0  0  0  0
M  CHG  1  76   1
M  ISO  4  39 100  62 101  73 100  84 101
M  END
> <Batch ID>
0061

> <Smiles>
CNC(C)C(=O)NC(C(=O)N1Cc2cc([101O:1][101CH2:1]C3CCC(=O)N(c4cc([100NH:0][100C:0](=O)N5CCCC(n6nc(-c7ccc(Oc8ccc(F)cc8F)cc7)c(C(N)=O)c6N)C5)ccc4C)C3)ccc2CC1C(=O)NC1CCCc2ccccc21)C(C)(C)C

> <Shape>
0.317

> <Color>
0.076

> <Negative vol penalty>
0.000

$$$$

  -OEChem-04042323073D

 83 91  0     1  0  0  0  0  0999 V2000
  -17.0931  -25.1755   24.1719 C   0  0  0  0  0  0  0  0  0  0  0  0
  -18.2713  -24.6441   24.6867 C   0  0  0  0  0  0  0  0  0  0  0  0
  -32.5347  -17.6724   23.3888 C   0  0  0  0  0  0  0  0  0  0  0  0
  -22.9991   -9.9253   20.0389 C   0  0  0  0  0  0  0  0  0  0  0  0
  -23.6972  -10.0534   22.3482 C   0  0  0  0  0  0  0  0  0  0  0  0
  -17.1460  -26.1931   23.2203 C   0  0  0  0  0  0  0  0  0  0  0  0
  -19.5032  -25.1294   24.2493 C   0  0  0  0  0  0  0  0  0  0  0  0
  -24.6160  -25.7201   27.5684 C   0  0  0  0  0  0  0  0  0  0  0  0
  -31.7238  -18.5836   24.0653 C   0  0  0  0  0  0  0  0  0  0  0  0
  -31.9645  -16.7437   22.5182 C   0  0  0  0  0  0  0  0  0  0  0  0
  -22.2400   -8.7923   20.3312 C   0  0  0  0  0  0  0  0  0  0  0  0
  -22.9381   -8.9203   22.6406 C   0  0  0  0  0  0  0  0  0  0  0  0
  -25.7520  -24.9212   27.6913 C   0  0  0  0  0  0  0  0  0  0  0  0
  -23.2183   -5.5710   22.2738 C   0  0  0  0  0  0  0  0  0  0  0  0
  -23.8065   -4.5829   23.0632 C   0  0  0  0  0  0  0  0  0  0  0  0
  -26.8787  -26.2809   26.0479 C   0  0  0  0  0  0  0  0  0  0  0  0
  -29.7723  -17.6372   23.0007 C   0  0  0  0  0  0  0  0  0  0  0  0
  -22.0613   -4.8604   24.7108 C   0  0  0  0  0  0  0  0  0  0  0  0
  -23.7278  -10.5559   21.0474 C   0  0  0  0  0  0  0  0  0  0  0  0
  -24.0921  -13.0685   20.7988 C   0  0  0  0  0  0  0  0  0  0  0  0
  -18.3791  -26.6978   22.7782 C   0  0  0  0  0  0  0  0  0  0  0  0
  -24.5991  -26.8006   26.6747 C   0  0  0  0  0  0  0  0  0  0  0  0
  -19.5727  -26.1539   23.2899 C   0  0  0  0  0  0  0  0  0  0  0  0
  -25.7422  -27.0935   25.9173 C   0  0  0  0  0  0  0  0  0  0  0  0
  -30.3426  -18.5660   23.8713 C   0  0  0  0  0  0  0  0  0  0  0  0
  -30.5833  -16.7261   22.3242 C   0  0  0  0  0  0  0  0  0  0  0  0
  -22.2094   -8.2898   21.6320 C   0  0  0  0  0  0  0  0  0  0  0  0
  -26.8826  -25.1998   26.9290 C   0  0  0  0  0  0  0  0  0  0  0  0
  -22.0517   -6.2039   22.7029 C   0  0  0  0  0  0  0  0  0  0  0  0
  -23.2279   -4.2275   24.2817 C   0  0  0  0  0  0  0  0  0  0  0  0
  -21.4732   -5.8486   23.9213 C   0  0  0  0  0  0  0  0  0  0  0  0
  -24.5126  -11.7260   20.7459 C   0  0  0  0  0  0  0  0  0  0  0  0
  -25.1993  -13.7901   20.4250 C   0  0  0  0  0  0  0  0  0  0  0  0
  -28.7499  -21.2464   25.9621 C   0  0  0  0  0  0  0  0  0  0  0  0
  -28.9213  -22.2446   26.8398 C   0  0  0  0  0  0  0  0  0  0  0  0
  -22.8148  -13.6143   21.1542 C   0  0  0  0  0  0  0  0  0  0  0  0
  -29.9226  -20.4749   25.4528 C   0  0  0  0  0  0  0  0  0  0  0  0
  -22.8934  -27.5566   24.1012 C   0  0  0  0  0  0  0  0  0  0  0  0
  -24.5307  -30.3486   24.3158 C   0  0  0  0  0  0  0  0  0  0  0  0
  -27.3070  -32.0022   25.4134 C   0  0  0  0  0  0  0  0  0  0  0  0
  -30.6667  -14.8099   20.6909 C   0  0  0  0  0  0  0  0  0  0  0  0
  -18.3866  -27.7657   21.7132 C   0  0  0  0  0  0  0  0  0  0  0  0
  -23.3750  -27.6689   26.5734 C   0  0  0  0  0  0  0  0  0  0  0  0
  -25.7821  -28.2543   24.9584 C   0  0  0  0  0  0  0  0  0  0  0  0
  -19.7275  -28.4827   21.5790 C   0  0  0  0  0  0  0  0  0  0  0  0
  -29.5977  -12.2767   18.4287 C   0  0  0  0  0  0  0  0  0  0  0  0
  -20.8719  -27.4744   21.5539 C   0  0  0  0  0  0  0  0  0  0  0  0
  -28.1449  -12.0181   18.8342 C   0  0  0  0  0  0  0  0  0  0  0  0
  -30.4820  -12.5654   19.6405 C   0  0  0  0  0  0  0  0  0  0  0  0
  -28.5443  -13.3764   20.9277 C   0  0  0  0  0  0  0  0  0  0  0  0
  -20.9280  -26.6709   22.8588 C   0  0  1  0  0  0  0  0  0  0  0  0
  -23.2916  -28.4325   25.2553 C   0  0  1  0  0  0  0  0  0  0  0  0
  -27.6021  -13.1448   19.7351 C   0  0  2  0  0  0  0  0  0  0  0  0
  -28.3812  -34.2701   25.4046 C   0  0  0  0  0  0  0  0  0  0  0  0
  -25.3526  -29.9455   21.4051 C   0  0  0  0  0  0  0  0  0  0  0  0
  -27.1362  -31.6698   21.7427 C   0  0  0  0  0  0  0  0  0  0  0  0
  -24.7349  -32.2950   21.9988 C   0  0  0  0  0  0  0  0  0  0  0  0
  -27.2443  -32.1712   28.3674 C   0  0  0  0  0  0  0  0  0  0  0  0
  -27.7914  -23.0517   27.3931 C   0  0  0  0  0  0  0  0  0  1  0  0
  -25.8390  -30.8656   23.7679 C   0  0  1  0  0  0  0  0  0  0  0  0
  -27.4688  -33.3150   26.1583 C   0  0  2  0  0  0  0  0  0  0  0  0
  -25.7646  -31.1708   22.2452 C   0  0  0  0  0  0  0  0  0  0  0  0
  -25.7875  -11.5996   20.3681 N   0  0  0  0  0  0  0  0  0  0  0  0
  -26.1775  -12.8718   20.1801 N   0  0  0  0  0  0  0  0  0  0  0  0
  -24.5584  -29.0700   24.8902 N   0  0  0  0  0  0  0  0  0  0  0  0
  -29.9076  -13.6463   20.4446 N   0  0  0  0  0  0  0  0  0  0  0  0
  -25.4218  -15.1143   20.2850 N   0  0  0  0  0  0  0  0  0  0  0  0
  -21.7873  -12.7313   21.5130 N   0  0  0  0  0  0  0  0  0  0  0  0
  -29.5197  -19.4920   24.5583 N   0  0  0  0  0  0  0  0  0  0  0  0
  -30.0047  -15.7824   21.4396 N   0  0  0  0  0  0  0  0  0  0  0  0
  -21.5278  -27.4604   23.9130 N   0  0  0  0  0  0  0  0  0  0  0  0
  -26.2005  -32.0148   24.5907 N   0  0  0  0  0  0  0  0  0  0  0  0
  -28.0516  -33.0757   27.5089 N   0  3  0  0  0  0  0  0  0  0  0  0
  -22.5865  -14.8477   21.1377 O   0  0  0  0  0  0  0  0  0  0  0  0
  -31.0624  -20.7326   25.8214 O   0  0  0  0  0  0  0  0  0  0  0  0
  -23.7608  -27.0098   23.4303 O   0  0  0  0  0  0  0  0  0  0  0  0
  -23.5230  -31.0563   24.2433 O   0  0  0  0  0  0  0  0  0  0  0  0
  -28.0865  -31.0611   25.5450 O   0  0  0  0  0  0  0  0  0  0  0  0
  -31.8092  -14.9457   20.2456 O   0  0  0  0  0  0  0  0  0  0  0  0
  -21.4686   -7.1843   21.9176 O   0  0  0  0  0  0  0  0  0  0  0  0
  -27.9925  -24.4213   27.0466 O   0  0  0  0  0  0  0  0  0  1  0  0
  -23.7920   -3.2774   25.0389 F   0  0  0  0  0  0  0  0  0  0  0  0
  -20.3518   -6.4522   24.3383 F   0  0  0  0  0  0  0  0  0  0  0  0
  1  2  1  0  0  0  0
  1  6  2  0  0  0  0
  2  7  2  0  0  0  0
  3  9  2  0  0  0  0
  3 10  1  0  0  0  0
  4 11  2  0  0  0  0
  4 19  1  0  0  0  0
  5 12  1  0  0  0  0
  5 19  2  0  0  0  0
  6 21  1  0  0  0  0
  7 23  1  0  0  0  0
  8 13  2  0  0  0  0
  8 22  1  0  0  0  0
  9 25  1  0  0  0  0
 10 26  2  0  0  0  0
 11 27  1  0  0  0  0
 12 27  2  0  0  0  0
 13 28  1  0  0  0  0
 14 15  2  0  0  0  0
 14 29  1  0  0  0  0
 15 30  1  0  0  0  0
 16 24  1  0  0  0  0
 16 28  2  0  0  0  0
 17 25  2  0  0  0  0
 17 26  1  0  0  0  0
 18 30  2  0  0  0  0
 18 31  1  0  0  0  0
 19 32  1  0  0  0  0
 20 32  1  0  0  0  0
 20 33  2  0  0  0  0
 20 36  1  0  0  0  0
 21 23  2  0  0  0  0
 21 42  1  0  0  0  0
 22 24  2  0  0  0  0
 22 43  1  0  0  0  0
 23 51  1  0  0  0  0
 24 44  1  0  0  0  0
 25 69  1  0  0  0  0
 26 70  1  0  0  0  0
 27 80  1  0  0  0  0
 28 81  1  0  0  0  0
 29 31  2  0  0  0  0
 29 80  1  0  0  0  0
 30 82  1  0  0  0  0
 31 83  1  0  0  0  0
 32 63  2  0  0  0  0
 33 64  1  0  0  0  0
 33 67  1  0  0  0  0
 34 35  2  0  0  0  0
 34 37  1  0  0  0  0
 35 59  1  0  0  0  0
 36 68  1  0  0  0  0
 36 74  2  0  0  0  0
 37 69  1  0  0  0  0
 37 75  2  0  0  0  0
 38 52  1  0  0  0  0
 38 71  1  0  0  0  0
 38 76  2  0  0  0  0
 39 60  1  0  0  0  0
 39 65  1  0  0  0  0
 39 77  2  0  0  0  0
 40 61  1  0  0  0  0
 40 72  1  0  0  0  0
 40 78  2  0  0  0  0
 41 66  1  0  0  0  0
 41 70  1  0  0  0  0
 41 79  2  0  0  0  0
 42 45  1  0  0  0  0
 43 52  1  0  0  0  0
 44 65  1  0  0  0  0
 45 47  1  0  0  0  0
 46 48  1  0  0  0  0
 46 49  1  0  0  0  0
 47 51  1  0  0  0  0
 48 53  1  0  0  0  0
 49 66  1  0  0  0  0
 50 53  1  0  0  0  0
 50 66  1  0  0  0  0
 51 71  1  0  0  0  0
 52 65  1  0  0  0  0
 53 64  1  0  0  0  0
 54 61  1  0  0  0  0
 55 62  1  0  0  0  0
 56 62  1  0  0  0  0
 57 62  1  0  0  0  0
 58 73  1  0  0  0  0
 59 81  1  0  0  0  0
 60 62  1  0  0  0  0
 60 72  1  0  0  0  0
 61 73  1  0  0  0  0
 63 64  1  0  0  0  0
M  CHG  1  73   1
M  ISO  4  41 100  59 101  70 100  81 101
M  END
> <Batch ID>
0061

> <Smiles>
CNC(C)C(=O)NC(C(=O)N1Cc2cc([101O:1][101CH2:1]C=CC(=O)Nc3cccc([100NH:0][100C:0](=O)N4CCCC(n5nc(-c6ccc(Oc7ccc(F)cc7F)cc6)c(C(N)=O)c5N)C4)c3)ccc2CC1C(=O)NC1CCCc2ccccc21)C(C)(C)C

> <Shape>
0.309

> <Color>
0.222

> <Negative vol penalty>
0.000

$$$$

  -OEChem-04042323073D

 86 94  0     1  0  0  0  0  0999 V2000
  -29.8312  -34.9835   24.0279 C   0  0  0  0  0  0  0  0  0  0  0  0
  -29.4175  -33.6766   23.7904 C   0  0  0  0  0  0  0  0  0  0  0  0
  -24.6205   -8.7094   21.5142 C   0  0  0  0  0  0  0  0  0  0  0  0
  -23.1010  -10.3218   20.5505 C   0  0  0  0  0  0  0  0  0  0  0  0
  -30.6428  -20.2847   18.9948 C   0  0  0  0  0  0  0  0  0  0  0  0
  -28.9276  -35.9191   24.5300 C   0  0  0  0  0  0  0  0  0  0  0  0
  -28.1002  -33.3043   24.0559 C   0  0  0  0  0  0  0  0  0  0  0  0
  -26.0811  -30.5211   20.3381 C   0  0  0  0  0  0  0  0  0  0  0  0
  -30.6686  -18.9001   19.1617 C   0  0  0  0  0  0  0  0  0  0  0  0
  -23.6288   -8.3104   22.4102 C   0  0  0  0  0  0  0  0  0  0  0  0
  -22.1093   -9.9226   21.4466 C   0  0  0  0  0  0  0  0  0  0  0  0
  -26.4424  -29.1757   20.2818 C   0  0  0  0  0  0  0  0  0  0  0  0
  -21.3829   -6.6165   24.7127 C   0  0  0  0  0  0  0  0  0  0  0  0
  -21.1973   -5.2478   24.9073 C   0  0  0  0  0  0  0  0  0  0  0  0
  -24.3655  -28.5793   21.3543 C   0  0  0  0  0  0  0  0  0  0  0  0
  -28.2563  -18.8408   19.0417 C   0  0  0  0  0  0  0  0  0  0  0  0
  -20.6861   -4.9835   22.5609 C   0  0  0  0  0  0  0  0  0  0  0  0
  -24.3566   -9.7152   20.5844 C   0  0  0  0  0  0  0  0  0  0  0  0
  -29.4238  -20.9474   18.8514 C   0  0  0  0  0  0  0  0  0  0  0  0
  -25.6325   -9.6004   18.3783 C   0  0  0  0  0  0  0  0  0  0  0  0
  -27.5960  -35.5605   24.7927 C   0  0  0  0  0  0  0  0  0  0  0  0
  -24.8621  -30.9072   20.9137 C   0  0  0  0  0  0  0  0  0  0  0  0
  -27.1783  -34.2357   24.5632 C   0  0  0  0  0  0  0  0  0  0  0  0
  -23.9900  -29.9300   21.4144 C   0  0  0  0  0  0  0  0  0  0  0  0
  -29.4753  -18.1782   19.1851 C   0  0  0  0  0  0  0  0  0  0  0  0
  -28.2306  -20.2254   18.8748 C   0  0  0  0  0  0  0  0  0  0  0  0
  -22.3732   -8.9169   22.3764 C   0  0  0  0  0  0  0  0  0  0  0  0
  -25.5859  -28.2048   20.7925 C   0  0  0  0  0  0  0  0  0  0  0  0
  -21.2199   -7.1687   23.4422 C   0  0  0  0  0  0  0  0  0  0  0  0
  -20.8490   -4.4313   23.8314 C   0  0  0  0  0  0  0  0  0  0  0  0
  -20.8715   -6.3522   22.3663 C   0  0  0  0  0  0  0  0  0  0  0  0
  -25.3808  -10.1283   19.6589 C   0  0  0  0  0  0  0  0  0  0  0  0
  -26.6996  -10.3279   17.9107 C   0  0  0  0  0  0  0  0  0  0  0  0
  -29.4241  -22.4136   18.6759 C   0  0  0  0  0  0  0  0  0  0  0  0
  -24.9616   -8.5468   17.6744 C   0  0  0  0  0  0  0  0  0  0  0  0
  -24.0242  -32.7025   23.3994 C   0  0  0  0  0  0  0  0  0  0  0  0
  -27.4314  -25.0809   20.1408 C   0  0  0  0  0  0  0  0  0  0  0  0
  -21.0305  -32.2022   22.2551 C   0  0  0  0  0  0  0  0  0  0  0  0
  -18.9207  -30.2500   20.4153 C   0  0  0  0  0  0  0  0  0  0  0  0
  -28.4150  -15.8949   19.4014 C   0  0  0  0  0  0  0  0  0  0  0  0
  -26.6680  -36.5945   25.3794 C   0  0  0  0  0  0  0  0  0  0  0  0
  -24.4752  -32.3604   20.9426 C   0  0  0  0  0  0  0  0  0  0  0  0
  -22.6609  -30.2908   22.0242 C   0  0  0  0  0  0  0  0  0  0  0  0
  -25.1927  -36.2149   25.2808 C   0  0  0  0  0  0  0  0  0  0  0  0
  -30.2628  -12.6362   20.2323 C   0  0  0  0  0  0  0  0  0  0  0  0
  -24.9829  -34.7696   25.7211 C   0  0  0  0  0  0  0  0  0  0  0  0
  -29.4572  -11.6624   19.3755 C   0  0  0  0  0  0  0  0  0  0  0  0
  -30.1651  -14.0692   19.7247 C   0  0  0  0  0  0  0  0  0  0  0  0
  -27.7258  -13.5196   19.6646 C   0  0  0  0  0  0  0  0  0  0  0  0
  -25.7512  -33.7998   24.8152 C   0  0  1  0  0  0  0  0  0  0  0  0
  -23.4393  -32.6817   22.0155 C   0  0  1  0  0  0  0  0  0  0  0  0
  -28.1173  -12.2509   18.8910 C   0  0  2  0  0  0  0  0  0  0  0  0
  -16.5234  -30.0769   19.6940 C   0  0  0  0  0  0  0  0  0  0  0  0
  -20.2668  -31.2133   25.0387 C   0  0  0  0  0  0  0  0  0  0  0  0
  -18.2131  -30.1909   24.0360 C   0  0  0  0  0  0  0  0  0  0  0  0
  -18.5496  -32.6607   23.9383 C   0  0  0  0  0  0  0  0  0  0  0  0
  -25.7827  -20.3947   19.3278 C   0  0  0  0  0  0  0  0  0  0  0  0
  -19.6467  -30.4480   17.5530 C   0  0  0  0  0  0  0  0  0  0  0  0
  -28.7283  -24.6255   19.5248 C   0  0  0  0  0  0  0  0  0  0  0  0
  -27.1963  -26.5783   20.1468 C   0  0  0  0  0  0  0  0  0  1  0  0
  -19.9623  -31.1585   22.4755 C   0  0  1  0  0  0  0  0  0  0  0  0
  -17.9076  -30.5977   19.3396 C   0  0  2  0  0  0  0  0  0  0  0  0
  -19.2738  -31.2989   23.8625 C   0  0  0  0  0  0  0  0  0  0  0  0
  -26.2205  -11.1148   19.9841 N   0  0  0  0  0  0  0  0  0  0  0  0
  -27.0103  -11.2125   18.9012 N   0  0  0  0  0  0  0  0  0  0  0  0
  -22.3305  -31.7254   22.0350 N   0  0  0  0  0  0  0  0  0  0  0  0
  -28.7791  -14.5380   19.5819 N   0  0  0  0  0  0  0  0  0  0  0  0
  -27.3931  -10.2907   16.7531 N   0  0  0  0  0  0  0  0  0  0  0  0
  -23.8846   -7.9050   18.3007 N   0  0  0  0  0  0  0  0  0  0  0  0
  -29.5024  -16.7712   19.3540 N   0  0  0  0  0  0  0  0  0  0  0  0
  -26.9872  -20.8793   18.7302 N   0  0  0  0  0  0  0  0  0  0  0  0
  -28.7826  -23.1744   19.5806 N   0  0  0  0  0  0  0  0  0  0  0  0
  -25.0495  -33.6144   23.5631 N   0  0  0  0  0  0  0  0  0  0  0  0
  -19.0496  -31.2628   21.3421 N   0  0  0  0  0  0  0  0  0  0  0  0
  -30.0623  -22.9199   17.6206 N   0  3  0  0  0  0  0  0  0  0  0  0
  -18.3134  -30.0037   18.0345 N   0  3  0  0  0  0  0  0  0  0  0  0
  -25.3175   -8.1742   16.5307 O   0  0  0  0  0  0  0  0  0  0  0  0
  -23.5774  -31.9483   24.2556 O   0  0  0  0  0  0  0  0  0  0  0  0
  -26.6107  -24.2944   20.6112 O   0  0  0  0  0  0  0  0  0  0  0  0
  -20.7215  -33.3964   22.2702 O   0  0  0  0  0  0  0  0  0  0  0  0
  -19.5336  -29.1848   20.4339 O   0  0  0  0  0  0  0  0  0  0  0  0
  -27.2370  -16.2397   19.2863 O   0  0  0  0  0  0  0  0  0  0  0  0
  -21.4052   -8.5276   23.2505 O   0  0  0  0  0  0  0  0  0  0  0  0
  -25.9364  -26.8909   20.7395 O   0  0  0  0  0  0  0  0  0  1  0  0
  -20.6724   -3.1167   24.0181 F   0  0  0  0  0  0  0  0  0  0  0  0
  -20.7148   -6.8768   21.1431 F   0  0  0  0  0  0  0  0  0  0  0  0
  1  2  1  0  0  0  0
  1  6  2  0  0  0  0
  2  7  2  0  0  0  0
  3 10  2  0  0  0  0
  3 18  1  0  0  0  0
  4 11  1  0  0  0  0
  4 18  2  0  0  0  0
  5  9  2  0  0  0  0
  5 19  1  0  0  0  0
  6 21  1  0  0  0  0
  7 23  1  0  0  0  0
  8 12  2  0  0  0  0
  8 22  1  0  0  0  0
  9 25  1  0  0  0  0
 10 27  1  0  0  0  0
 11 27  2  0  0  0  0
 12 28  1  0  0  0  0
 13 14  2  0  0  0  0
 13 29  1  0  0  0  0
 14 30  1  0  0  0  0
 15 24  1  0  0  0  0
 15 28  2  0  0  0  0
 16 25  2  0  0  0  0
 16 26  1  0  0  0  0
 17 30  2  0  0  0  0
 17 31  1  0  0  0  0
 18 32  1  0  0  0  0
 19 26  2  0  0  0  0
 19 34  1  0  0  0  0
 20 32  1  0  0  0  0
 20 33  2  0  0  0  0
 20 35  1  0  0  0  0
 21 23  2  0  0  0  0
 21 41  1  0  0  0  0
 22 24  2  0  0  0  0
 22 42  1  0  0  0  0
 23 50  1  0  0  0  0
 24 43  1  0  0  0  0
 25 70  1  0  0  0  0
 26 71  1  0  0  0  0
 27 83  1  0  0  0  0
 28 84  1  0  0  0  0
 29 31  2  0  0  0  0
 29 83  1  0  0  0  0
 30 85  1  0  0  0  0
 31 86  1  0  0  0  0
 32 64  2  0  0  0  0
 33 65  1  0  0  0  0
 33 68  1  0  0  0  0
 34 72  1  0  0  0  0
 34 75  2  0  0  0  0
 35 69  1  0  0  0  0
 35 77  2  0  0  0  0
 36 51  1  0  0  0  0
 36 73  1  0  0  0  0
 36 78  2  0  0  0  0
 37 59  1  0  0  0  0
 37 60  1  0  0  0  0
 37 79  2  0  0  0  0
 38 61  1  0  0  0  0
 38 66  1  0  0  0  0
 38 80  2  0  0  0  0
 39 62  1  0  0  0  0
 39 74  1  0  0  0  0
 39 81  2  0  0  0  0
 40 67  1  0  0  0  0
 40 70  1  0  0  0  0
 40 82  2  0  0  0  0
 41 44  1  0  0  0  0
 42 51  1  0  0  0  0
 43 66  1  0  0  0  0
 44 46  1  0  0  0  0
 45 47  1  0  0  0  0
 45 48  1  0  0  0  0
 46 50  1  0  0  0  0
 47 52  1  0  0  0  0
 48 67  1  0  0  0  0
 49 52  1  0  0  0  0
 49 67  1  0  0  0  0
 50 73  1  0  0  0  0
 51 66  1  0  0  0  0
 52 65  1  0  0  0  0
 53 62  1  0  0  0  0
 54 63  1  0  0  0  0
 55 63  1  0  0  0  0
 56 63  1  0  0  0  0
 57 71  1  0  0  0  0
 58 76  1  0  0  0  0
 59 72  1  0  0  0  0
 60 84  1  0  0  0  0
 61 63  1  0  0  0  0
 61 74  1  0  0  0  0
 62 76  1  0  0  0  0
 64 65  1  0  0  0  0
M  CHG  2  75   1  76   1
M  ISO  4  40 100  60 101  70 100  84 101
M  END
> <Batch ID>
0061

> <Smiles>
CNc1cc([100NH:0][100C:0](=O)N2CCCC(n3nc(-c4ccc(Oc5ccc(F)cc5F)cc4)c(C(N)=O)c3N)C2)ccc1C(=N)NCC(=O)[101CH2:1][101O:1]c1ccc2c(c1)CN(C(=O)C(NC(=O)C(C)NC)C(C)(C)C)C(C(=O)NC1CCCc3ccccc31)C2

> <Shape>
0.295

> <Color>
0.085

> <Negative vol penalty>
0.000

$$$$

  -OEChem-04042323073D

 84 92  0     1  0  0  0  0  0999 V2000
  -31.7922  -32.6260   23.4921 C   0  0  0  0  0  0  0  0  0  0  0  0
  -31.6624  -31.5512   22.6184 C   0  0  0  0  0  0  0  0  0  0  0  0
  -21.6704  -22.0261   19.4181 C   0  0  0  0  0  0  0  0  0  0  0  0
  -23.9532   -9.7698   21.9967 C   0  0  0  0  0  0  0  0  0  0  0  0
  -22.1949  -10.3701   20.4523 C   0  0  0  0  0  0  0  0  0  0  0  0
  -30.9276  -32.7477   24.5791 C   0  0  0  0  0  0  0  0  0  0  0  0
  -30.6684  -30.5968   22.8319 C   0  0  0  0  0  0  0  0  0  0  0  0
  -27.5123  -27.5492   18.5591 C   0  0  0  0  0  0  0  0  0  0  0  0
  -22.1533  -21.9888   18.1100 C   0  0  0  0  0  0  0  0  0  0  0  0
  -21.9778  -20.9940   20.3048 C   0  0  0  0  0  0  0  0  0  0  0  0
  -23.4695   -8.4622   22.0391 C   0  0  0  0  0  0  0  0  0  0  0  0
  -21.7112   -9.0624   20.4948 C   0  0  0  0  0  0  0  0  0  0  0  0
  -27.6579  -26.2727   18.0175 C   0  0  0  0  0  0  0  0  0  0  0  0
  -20.9549   -6.7849   23.5517 C   0  0  0  0  0  0  0  0  0  0  0  0
  -20.8484   -6.1744   24.8013 C   0  0  0  0  0  0  0  0  0  0  0  0
  -26.0145  -25.4329   19.5709 C   0  0  0  0  0  0  0  0  0  0  0  0
  -22.3746   -4.4436   24.0856 C   0  0  0  0  0  0  0  0  0  0  0  0
  -23.3158  -10.7238   21.2033 C   0  0  0  0  0  0  0  0  0  0  0  0
  -24.7732  -12.5987   20.2715 C   0  0  0  0  0  0  0  0  0  0  0  0
  -29.9164  -31.7995   24.8005 C   0  0  0  0  0  0  0  0  0  0  0  0
  -26.6232  -27.7753   19.6196 C   0  0  0  0  0  0  0  0  0  0  0  0
  -29.7903  -30.7051   23.9236 C   0  0  0  0  0  0  0  0  0  0  0  0
  -25.8575  -26.7136   20.1224 C   0  0  0  0  0  0  0  0  0  0  0  0
  -22.9435  -20.9194   17.6886 C   0  0  0  0  0  0  0  0  0  0  0  0
  -23.2509  -19.8874   18.5752 C   0  0  0  0  0  0  0  0  0  0  0  0
  -22.7681  -19.9247   19.8833 C   0  0  0  0  0  0  0  0  0  0  0  0
  -22.3485   -8.1085   21.2882 C   0  0  0  0  0  0  0  0  0  0  0  0
  -26.9111  -25.2138   18.5254 C   0  0  0  0  0  0  0  0  0  0  0  0
  -21.7712   -6.2248   22.5690 C   0  0  0  0  0  0  0  0  0  0  0  0
  -21.5582   -5.0037   25.0683 C   0  0  0  0  0  0  0  0  0  0  0  0
  -22.4810   -5.0541   22.8360 C   0  0  0  0  0  0  0  0  0  0  0  0
  -23.8146  -12.0748   21.1595 C   0  0  0  0  0  0  0  0  0  0  0  0
  -24.8984  -13.9160   20.6395 C   0  0  0  0  0  0  0  0  0  0  0  0
  -25.4864  -11.9524   19.2088 C   0  0  0  0  0  0  0  0  0  0  0  0
  -26.9212  -28.7744   22.6224 C   0  0  0  0  0  0  0  0  0  0  0  0
  -23.6788  -28.7018   22.5573 C   0  0  0  0  0  0  0  0  0  0  0  0
  -25.3128  -22.5491   16.0889 C   0  0  0  0  0  0  0  0  0  0  0  0
  -20.8369  -27.4280   21.1618 C   0  0  0  0  0  0  0  0  0  0  0  0
  -22.6591  -18.7911   22.1303 C   0  0  0  0  0  0  0  0  0  0  0  0
  -29.0358  -31.9477   26.0159 C   0  0  0  0  0  0  0  0  0  0  0  0
  -26.4581  -29.1634   20.1749 C   0  0  0  0  0  0  0  0  0  0  0  0
  -24.8744  -26.9078   21.2467 C   0  0  0  0  0  0  0  0  0  0  0  0
  -27.7703  -31.0959   25.9587 C   0  0  0  0  0  0  0  0  0  0  0  0
  -23.1566  -16.3807   24.7032 C   0  0  0  0  0  0  0  0  0  0  0  0
  -28.1031  -29.6745   25.5163 C   0  0  0  0  0  0  0  0  0  0  0  0
  -23.4510  -15.0887   23.9376 C   0  0  0  0  0  0  0  0  0  0  0  0
  -22.1114  -17.2368   23.9902 C   0  0  0  0  0  0  0  0  0  0  0  0
  -22.6997  -16.2386   21.8162 C   0  0  0  0  0  0  0  0  0  0  0  0
  -28.7088  -29.6627   24.1077 C   0  0  1  0  0  0  0  0  0  0  0  0
  -25.9011  -29.1765   21.5951 C   0  0  1  0  0  0  0  0  0  0  0  0
  -23.7943  -15.3736   22.4623 C   0  0  2  0  0  0  0  0  0  0  0  0
  -24.0994  -18.7422   18.1184 C   0  0  0  0  0  0  0  0  0  0  0  0
  -18.3361  -27.5295   21.3445 C   0  0  0  0  0  0  0  0  0  0  0  0
  -23.7927  -26.9520   25.0544 C   0  0  0  0  0  0  0  0  0  0  0  0
  -21.4075  -26.3178   24.6339 C   0  0  0  0  0  0  0  0  0  0  0  0
  -22.0024  -28.6980   25.0847 C   0  0  0  0  0  0  0  0  0  0  0  0
  -20.5602  -28.4464   18.3968 C   0  0  0  0  0  0  0  0  0  0  0  0
  -23.4502  -20.9042   16.2753 C   0  0  0  0  0  0  0  0  0  0  0  0
  -26.8315  -22.6008   16.0303 C   0  0  0  0  0  0  0  0  0  0  0  0
  -27.4054  -23.8801   16.6193 C   0  0  0  0  0  0  0  0  0  1  0  0
  -22.6264  -27.6638   22.8637 C   0  0  1  0  0  0  0  0  0  0  0  0
  -19.5704  -28.1006   20.6638 C   0  0  2  0  0  0  0  0  0  0  0  0
  -22.4771  -27.4035   24.3893 C   0  0  0  0  0  0  0  0  0  0  0  0
  -23.3632  -12.9850   22.0265 N   0  0  0  0  0  0  0  0  0  0  0  0
  -24.0410  -14.0941   21.6852 N   0  0  0  0  0  0  0  0  0  0  0  0
  -24.7533  -28.2822   21.7603 N   0  0  0  0  0  0  0  0  0  0  0  0
  -22.5057  -17.4691   22.5991 N   0  0  0  0  0  0  0  0  0  0  0  0
  -25.6574  -14.9278   20.1676 N   0  0  0  0  0  0  0  0  0  0  0  0
  -25.2373  -10.5948   18.9658 N   0  0  0  0  0  0  0  0  0  0  0  0
  -23.0685  -18.8875   20.8008 N   0  0  0  0  0  0  0  0  0  0  0  0
  -27.6727  -29.8262   23.1106 N   0  0  0  0  0  0  0  0  0  0  0  0
  -24.8527  -21.2449   16.1999 N   0  0  0  0  0  0  0  0  0  0  0  0
  -21.4027  -28.1187   22.2125 N   0  0  0  0  0  0  0  0  0  0  0  0
  -19.4265  -27.9097   19.1928 N   0  3  0  0  0  0  0  0  0  0  0  0
  -26.3320  -12.5567   18.5064 O   0  0  0  0  0  0  0  0  0  0  0  0
  -27.0182  -27.5973   22.9491 O   0  0  0  0  0  0  0  0  0  0  0  0
  -23.5486  -29.8447   23.0026 O   0  0  0  0  0  0  0  0  0  0  0  0
  -24.6025  -23.5497   16.0422 O   0  0  0  0  0  0  0  0  0  0  0  0
  -21.2780  -26.3914   20.6704 O   0  0  0  0  0  0  0  0  0  0  0  0
  -22.4697  -19.7654   22.8629 O   0  0  0  0  0  0  0  0  0  0  0  0
  -21.8764   -6.8326   21.3292 O   0  0  0  0  0  0  0  0  0  0  0  0
  -27.0517  -23.9667   17.9991 O   0  0  0  0  0  0  0  0  0  1  0  0
  -21.4571   -4.4184   26.2688 F   0  0  0  0  0  0  0  0  0  0  0  0
  -23.2677   -4.5119   21.8964 F   0  0  0  0  0  0  0  0  0  0  0  0
  1  2  1  0  0  0  0
  1  6  2  0  0  0  0
  2  7  2  0  0  0  0
  3  9  2  0  0  0  0
  3 10  1  0  0  0  0
  4 11  2  0  0  0  0
  4 18  1  0  0  0  0
  5 12  1  0  0  0  0
  5 18  2  0  0  0  0
  6 20  1  0  0  0  0
  7 22  1  0  0  0  0
  8 13  2  0  0  0  0
  8 21  1  0  0  0  0
  9 24  1  0  0  0  0
 10 26  2  0  0  0  0
 11 27  1  0  0  0  0
 12 27  2  0  0  0  0
 13 28  1  0  0  0  0
 14 15  2  0  0  0  0
 14 29  1  0  0  0  0
 15 30  1  0  0  0  0
 16 23  1  0  0  0  0
 16 28  2  0  0  0  0
 17 30  2  0  0  0  0
 17 31  1  0  0  0  0
 18 32  1  0  0  0  0
 19 32  1  0  0  0  0
 19 33  2  0  0  0  0
 19 34  1  0  0  0  0
 20 22  2  0  0  0  0
 20 40  1  0  0  0  0
 21 23  2  0  0  0  0
 21 41  1  0  0  0  0
 22 49  1  0  0  0  0
 23 42  1  0  0  0  0
 24 25  2  0  0  0  0
 24 58  1  0  0  0  0
 25 26  1  0  0  0  0
 25 52  1  0  0  0  0
 26 70  1  0  0  0  0
 27 81  1  0  0  0  0
 28 82  1  0  0  0  0
 29 31  2  0  0  0  0
 29 81  1  0  0  0  0
 30 83  1  0  0  0  0
 31 84  1  0  0  0  0
 32 64  2  0  0  0  0
 33 65  1  0  0  0  0
 33 68  1  0  0  0  0
 34 69  1  0  0  0  0
 34 75  2  0  0  0  0
 35 50  1  0  0  0  0
 35 71  1  0  0  0  0
 35 76  2  0  0  0  0
 36 61  1  0  0  0  0
 36 66  1  0  0  0  0
 36 77  2  0  0  0  0
 37 59  1  0  0  0  0
 37 72  1  0  0  0  0
 37 78  2  0  0  0  0
 38 62  1  0  0  0  0
 38 73  1  0  0  0  0
 38 79  2  0  0  0  0
 39 67  1  0  0  0  0
 39 70  1  0  0  0  0
 39 80  2  0  0  0  0
 40 43  1  0  0  0  0
 41 50  1  0  0  0  0
 42 66  1  0  0  0  0
 43 45  1  0  0  0  0
 44 46  1  0  0  0  0
 44 47  1  0  0  0  0
 45 49  1  0  0  0  0
 46 51  1  0  0  0  0
 47 67  1  0  0  0  0
 48 51  1  0  0  0  0
 48 67  1  0  0  0  0
 49 71  1  0  0  0  0
 50 66  1  0  0  0  0
 51 65  1  0  0  0  0
 53 62  1  0  0  0  0
 54 63  1  0  0  0  0
 55 63  1  0  0  0  0
 56 63  1  0  0  0  0
 57 74  1  0  0  0  0
 58 72  1  0  0  0  0
 59 60  1  0  0  0  0
 60 82  1  0  0  0  0
 61 63  1  0  0  0  0
 61 73  1  0  0  0  0
 62 74  1  0  0  0  0
 64 65  1  0  0  0  0
M  CHG  1  74   1
M  ISO  4  39 100  60 101  70 100  82 101
M  END
> <Batch ID>
0061

> <Smiles>
CNC(C)C(=O)NC(C(=O)N1Cc2cc([101O:1][101CH2:1]CC(=O)NCc3cccc([100NH:0][100C:0](=O)N4CCCC(n5nc(-c6ccc(Oc7ccc(F)cc7F)cc6)c(C(N)=O)c5N)C4)c3C)ccc2CC1C(=O)NC1CCCc2ccccc21)C(C)(C)C

> <Shape>
0.204

> <Color>
0.111

> <Negative vol penalty>
0.000

$$$$

  -OEChem-04042323073D

 87 96  0     1  0  0  0  0  0999 V2000
  -13.0479  -21.4611   25.6887 C   0  0  0  0  0  0  0  0  0  0  0  0
  -13.5054  -22.7544   25.4577 C   0  0  0  0  0  0  0  0  0  0  0  0
  -27.0449  -17.3972   19.4607 C   0  0  0  0  0  0  0  0  0  0  0  0
  -28.5917  -17.6061   21.3048 C   0  0  0  0  0  0  0  0  0  0  0  0
  -13.9593  -20.4303   25.9140 C   0  0  0  0  0  0  0  0  0  0  0  0
  -14.8747  -23.0179   25.4530 C   0  0  0  0  0  0  0  0  0  0  0  0
  -19.7354  -27.2465   22.3210 C   0  0  0  0  0  0  0  0  0  0  0  0
  -24.0381  -26.3969   18.1239 C   0  0  0  0  0  0  0  0  0  0  0  0
  -25.2090  -25.6407   18.1758 C   0  0  0  0  0  0  0  0  0  0  0  0
  -26.3457  -16.4126   20.1587 C   0  0  0  0  0  0  0  0  0  0  0  0
  -27.8924  -16.6215   22.0029 C   0  0  0  0  0  0  0  0  0  0  0  0
  -20.7682  -28.1248   22.6462 C   0  0  0  0  0  0  0  0  0  0  0  0
  -26.6877  -13.1177   20.8302 C   0  0  0  0  0  0  0  0  0  0  0  0
  -26.3133  -11.9705   20.1306 C   0  0  0  0  0  0  0  0  0  0  0  0
  -22.2523  -26.2507   22.9687 C   0  0  0  0  0  0  0  0  0  0  0  0
  -26.2116  -27.2924   19.6261 C   0  0  0  0  0  0  0  0  0  0  0  0
  -23.9912  -12.4386   20.6059 C   0  0  0  0  0  0  0  0  0  0  0  0
  -28.1680  -17.9939   20.0337 C   0  0  0  0  0  0  0  0  0  0  0  0
  -29.5242  -18.8786   18.0625 C   0  0  0  0  0  0  0  0  0  0  0  0
  -15.3407  -20.6795   25.9025 C   0  0  0  0  0  0  0  0  0  0  0  0
  -19.9508  -25.8609   22.3279 C   0  0  0  0  0  0  0  0  0  0  0  0
  -15.8054  -21.9898   25.6797 C   0  0  0  0  0  0  0  0  0  0  0  0
  -21.2214  -25.3570   22.6407 C   0  0  0  0  0  0  0  0  0  0  0  0
  -23.9540  -27.6010   18.8232 C   0  0  0  0  0  0  0  0  0  0  0  0
  -25.0407  -28.0487   19.5743 C   0  0  0  0  0  0  0  0  0  0  0  0
  -26.2957  -26.0884   18.9269 C   0  0  0  0  0  0  0  0  0  0  0  0
  -26.7694  -16.0248   21.4298 C   0  0  0  0  0  0  0  0  0  0  0  0
  -22.0261  -27.6269   22.9729 C   0  0  0  0  0  0  0  0  0  0  0  0
  -25.7139  -13.9253   21.4178 C   0  0  0  0  0  0  0  0  0  0  0  0
  -24.9650  -11.6310   20.0184 C   0  0  0  0  0  0  0  0  0  0  0  0
  -24.3656  -13.5857   21.3056 C   0  0  0  0  0  0  0  0  0  0  0  0
  -28.8910  -19.0106   19.3129 C   0  0  0  0  0  0  0  0  0  0  0  0
  -30.0626  -20.1182   17.8177 C   0  0  0  0  0  0  0  0  0  0  0  0
  -24.6564  -31.7125   20.5390 C   0  0  0  0  0  0  0  0  0  0  0  0
  -24.4956  -31.6587   21.8742 C   0  0  0  0  0  0  0  0  0  0  0  0
  -24.7439  -30.5120   19.6580 C   0  0  0  0  0  0  0  0  0  0  0  0
  -29.6172  -17.7375   17.1994 C   0  0  0  0  0  0  0  0  0  0  0  0
  -18.7512  -23.4124   23.9618 C   0  0  0  0  0  0  0  0  0  0  0  0
  -20.5523  -21.6633   21.9077 C   0  0  0  0  0  0  0  0  0  0  0  0
  -23.2384  -21.5228   19.8073 C   0  0  0  0  0  0  0  0  0  0  0  0
  -28.6547  -25.6198   19.6764 C   0  0  0  0  0  0  0  0  0  0  0  0
  -16.2860  -19.5421   26.1980 C   0  0  0  0  0  0  0  0  0  0  0  0
  -18.8335  -24.9279   21.9487 C   0  0  0  0  0  0  0  0  0  0  0  0
  -21.5098  -23.8788   22.6429 C   0  0  0  0  0  0  0  0  0  0  0  0
  -17.7319  -19.8339   25.8049 C   0  0  0  0  0  0  0  0  0  0  0  0
  -31.7823  -23.9686   20.0873 C   0  0  0  0  0  0  0  0  0  0  0  0
  -18.1471  -21.2200   26.2878 C   0  0  0  0  0  0  0  0  0  0  0  0
  -31.4547  -22.4986   19.8156 C   0  0  0  0  0  0  0  0  0  0  0  0
  -30.6464  -24.6761   20.8242 C   0  0  0  0  0  0  0  0  0  0  0  0
  -25.3058  -29.2860   21.7316 C   0  0  0  0  0  0  0  0  0  0  0  0
  -28.9981  -23.0827   19.9223 C   0  0  0  0  0  0  0  0  0  0  0  0
  -17.2839  -22.3106   25.6422 C   0  0  1  0  0  0  0  0  0  0  0  0
  -24.4531  -30.2831   22.5316 C   0  0  2  0  0  0  0  0  0  0  0  0
  -19.0267  -23.5141   22.4882 C   0  0  1  0  0  0  0  0  0  0  0  0
  -30.0856  -22.3448   19.1244 C   0  0  2  0  0  0  0  0  0  0  0  0
  -22.6873  -28.3903   18.7495 C   0  0  0  0  0  0  0  0  0  0  0  0
  -24.8136  -20.5695   18.1022 C   0  0  0  0  0  0  0  0  0  0  0  0
  -21.7996  -20.3166   24.3450 C   0  0  0  0  0  0  0  0  0  0  0  0
  -23.6382  -19.4899   22.8604 C   0  0  0  0  0  0  0  0  0  0  0  0
  -21.2856  -18.7704   22.4477 C   0  0  0  0  0  0  0  0  0  0  0  0
  -21.6071  -22.5441   17.5591 C   0  0  0  0  0  0  0  0  0  0  0  0
  -23.0106  -29.7721   22.6821 C   0  0  0  0  0  0  0  0  0  1  0  0
  -21.9695  -21.1432   21.9049 C   0  0  1  0  0  0  0  0  0  0  0  0
  -23.3829  -20.9970   18.3906 C   0  0  2  0  0  0  0  0  0  0  0  0
  -22.1676  -19.9578   22.8914 C   0  0  0  0  0  0  0  0  0  0  0  0
  -29.0151  -20.2372   19.8267 N   0  0  0  0  0  0  0  0  0  0  0  0
  -29.7324  -20.8873   18.8946 N   0  0  0  0  0  0  0  0  0  0  0  0
  -24.9734  -29.2899   20.3035 N   0  0  0  0  0  0  0  0  0  0  0  0
  -20.3832  -23.0068   22.2714 N   0  0  0  0  0  0  0  0  0  0  0  0
  -29.3818  -24.4908   20.1093 N   0  0  0  0  0  0  0  0  0  0  0  0
  -30.7817  -20.6144   16.7885 N   0  0  0  0  0  0  0  0  0  0  0  0
  -30.7019  -16.8646   17.3605 N   0  0  0  0  0  0  0  0  0  0  0  0
  -27.4850  -25.3198   18.9792 N   0  0  0  0  0  0  0  0  0  0  0  0
  -17.7144  -22.5572   24.2827 N   0  0  0  0  0  0  0  0  0  0  0  0
  -22.2845  -20.8242   20.5166 N   0  0  0  0  0  0  0  0  0  0  0  0
  -22.9990  -22.0481   17.4063 N   0  3  0  0  0  0  0  0  0  0  0  0
  -24.3909  -32.5953   22.7144 O   0  5  0  0  0  0  0  0  0  0  0  0
  -24.6529  -30.6979   18.4449 O   0  0  0  0  0  0  0  0  0  0  0  0
  -28.7726  -17.5079   16.3008 O   0  0  0  0  0  0  0  0  0  0  0  0
  -19.4301  -24.0607   24.7495 O   0  0  0  0  0  0  0  0  0  0  0  0
  -19.6301  -20.9075   21.5917 O   0  0  0  0  0  0  0  0  0  0  0  0
  -23.9077  -22.4573   20.2425 O   0  0  0  0  0  0  0  0  0  0  0  0
  -29.0553  -26.7681   19.8835 O   0  0  0  0  0  0  0  0  0  0  0  0
  -26.0872  -15.0642   22.1113 O   0  0  0  0  0  0  0  0  0  0  0  0
  -23.0357  -28.4819   23.2913 O   0  0  0  0  0  0  0  0  0  1  0  0
  -24.6055  -10.5302   19.3452 F   0  0  0  0  0  0  0  0  0  0  0  0
  -23.4255  -14.3583   21.8669 F   0  0  0  0  0  0  0  0  0  0  0  0
  1  2  1  0  0  0  0
  1  5  2  0  0  0  0
  2  6  2  0  0  0  0
  3 10  2  0  0  0  0
  3 18  1  0  0  0  0
  4 11  1  0  0  0  0
  4 18  2  0  0  0  0
  5 20  1  0  0  0  0
  6 22  1  0  0  0  0
  7 12  2  0  0  0  0
  7 21  1  0  0  0  0
  8  9  2  0  0  0  0
  8 24  1  0  0  0  0
  9 26  1  0  0  0  0
 10 27  1  0  0  0  0
 11 27  2  0  0  0  0
 12 28  1  0  0  0  0
 13 14  2  0  0  0  0
 13 29  1  0  0  0  0
 14 30  1  0  0  0  0
 15 23  1  0  0  0  0
 15 28  2  0  0  0  0
 16 25  1  0  0  0  0
 16 26  2  0  0  0  0
 17 30  2  0  0  0  0
 17 31  1  0  0  0  0
 18 32  1  0  0  0  0
 19 32  1  0  0  0  0
 19 33  2  0  0  0  0
 19 37  1  0  0  0  0
 20 22  2  0  0  0  0
 20 42  1  0  0  0  0
 21 23  2  0  0  0  0
 21 43  1  0  0  0  0
 22 52  1  0  0  0  0
 23 44  1  0  0  0  0
 24 25  2  0  0  0  0
 24 56  1  0  0  0  0
 25 68  1  0  0  0  0
 26 73  1  0  0  0  0
 27 84  1  0  0  0  0
 28 85  1  0  0  0  0
 29 31  2  0  0  0  0
 29 84  1  0  0  0  0
 30 86  1  0  0  0  0
 31 87  1  0  0  0  0
 32 66  2  0  0  0  0
 33 67  1  0  0  0  0
 33 71  1  0  0  0  0
 34 35  2  0  0  0  0
 34 36  1  0  0  0  0
 35 53  1  0  0  0  0
 35 77  1  0  0  0  0
 36 68  1  0  0  0  0
 36 78  2  0  0  0  0
 37 72  1  0  0  0  0
 37 79  2  0  0  0  0
 38 54  1  0  0  0  0
 38 74  1  0  0  0  0
 38 80  2  0  0  0  0
 39 63  1  0  0  0  0
 39 69  1  0  0  0  0
 39 81  2  0  0  0  0
 40 64  1  0  0  0  0
 40 75  1  0  0  0  0
 40 82  2  0  0  0  0
 41 70  1  0  0  0  0
 41 73  1  0  0  0  0
 41 83  2  0  0  0  0
 42 45  1  0  0  0  0
 43 54  1  0  0  0  0
 44 69  1  0  0  0  0
 45 47  1  0  0  0  0
 46 48  1  0  0  0  0
 46 49  1  0  0  0  0
 47 52  1  0  0  0  0
 48 55  1  0  0  0  0
 49 70  1  0  0  0  0
 50 53  1  0  0  0  0
 50 68  1  0  0  0  0
 51 55  1  0  0  0  0
 51 70  1  0  0  0  0
 52 74  1  0  0  0  0
 53 62  1  0  0  0  0
 54 69  1  0  0  0  0
 55 67  1  0  0  0  0
 57 64  1  0  0  0  0
 58 65  1  0  0  0  0
 59 65  1  0  0  0  0
 60 65  1  0  0  0  0
 61 76  1  0  0  0  0
 62 85  1  0  0  0  0
 63 65  1  0  0  0  0
 63 75  1  0  0  0  0
 64 76  1  0  0  0  0
 66 67  1  0  0  0  0
M  CHG  2  76   1  77  -1
M  ISO  4  41 100  62 101  73 100  85 101
M  END
> <Batch ID>
0061

> <Smiles>
CNC(C)C(=O)NC(C(=O)N1Cc2cc([101O:1][101CH2:1]C3CN(c4cc([100NH:0][100C:0](=O)N5CCCC(n6nc(-c7ccc(Oc8ccc(F)cc8F)cc7)c(C(N)=O)c6N)C5)ccc4C)C(=O)CC3=O)ccc2CC1C(=O)NC1CCCc2ccccc21)C(C)(C)C

> <Shape>
0.211

> <Color>
0.081

> <Negative vol penalty>
0.000

$$$$

  -OEChem-04042323073D

 89 98  0     1  0  0  0  0  0999 V2000
  -18.8706  -23.6523   23.9446 C   0  0  0  0  0  0  0  0  0  0  0  0
  -20.2596  -23.6312   23.8695 C   0  0  0  0  0  0  0  0  0  0  0  0
  -26.8950  -23.2374   19.9176 C   0  0  0  0  0  0  0  0  0  0  0  0
  -27.9386  -24.1417   19.7205 C   0  0  0  0  0  0  0  0  0  0  0  0
  -23.9099   -9.6927   20.9878 C   0  0  0  0  0  0  0  0  0  0  0  0
  -25.5226  -10.0357   22.7537 C   0  0  0  0  0  0  0  0  0  0  0  0
  -18.1702  -24.7945   23.5591 C   0  0  0  0  0  0  0  0  0  0  0  0
  -20.9489  -24.7519   23.4078 C   0  0  0  0  0  0  0  0  0  0  0  0
  -24.9763  -25.8701   26.2670 C   0  0  0  0  0  0  0  0  0  0  0  0
  -27.1511  -21.9905   20.4880 C   0  0  0  0  0  0  0  0  0  0  0  0
  -23.6548   -8.4090   21.4700 C   0  0  0  0  0  0  0  0  0  0  0  0
  -25.2675   -8.7520   23.2360 C   0  0  0  0  0  0  0  0  0  0  0  0
  -26.1224  -25.0980   26.0823 C   0  0  0  0  0  0  0  0  0  0  0  0
  -21.8800   -6.9973   23.9779 C   0  0  0  0  0  0  0  0  0  0  0  0
  -29.2382  -23.7990   20.0936 C   0  0  0  0  0  0  0  0  0  0  0  0
  -20.5481   -6.5958   24.0796 C   0  0  0  0  0  0  0  0  0  0  0  0
  -27.0713  -26.8445   24.7153 C   0  0  0  0  0  0  0  0  0  0  0  0
  -20.9812   -4.7730   22.5541 C   0  0  0  0  0  0  0  0  0  0  0  0
  -24.8439  -10.5061   21.6296 C   0  0  0  0  0  0  0  0  0  0  0  0
  -24.1883  -12.8894   20.9990 C   0  0  0  0  0  0  0  0  0  0  0  0
  -18.8518  -25.9333   23.1015 C   0  0  0  0  0  0  0  0  0  0  0  0
  -24.8644  -27.1327   25.6673 C   0  0  0  0  0  0  0  0  0  0  0  0
  -20.2568  -25.9100   23.0145 C   0  0  0  0  0  0  0  0  0  0  0  0
  -25.9238  -27.6317   24.8961 C   0  0  0  0  0  0  0  0  0  0  0  0
  -28.4507  -21.6478   20.8611 C   0  0  0  0  0  0  0  0  0  0  0  0
  -24.3336   -7.9386   22.5941 C   0  0  0  0  0  0  0  0  0  0  0  0
  -27.1689  -25.5840   25.3040 C   0  0  0  0  0  0  0  0  0  0  0  0
  -22.7625   -6.2867   23.1643 C   0  0  0  0  0  0  0  0  0  0  0  0
  -20.0986   -5.4836   23.3677 C   0  0  0  0  0  0  0  0  0  0  0  0
  -29.4943  -22.5520   20.6639 C   0  0  0  0  0  0  0  0  0  0  0  0
  -22.3131   -5.1746   22.4524 C   0  0  0  0  0  0  0  0  0  0  0  0
  -25.1082  -11.8321   21.1316 C   0  0  0  0  0  0  0  0  0  0  0  0
  -24.9284  -13.9260   20.4850 C   0  0  0  0  0  0  0  0  0  0  0  0
  -29.2625  -20.2217   22.7431 C   0  0  0  0  0  0  0  0  0  0  0  0
  -28.4332  -19.2228   20.6485 C   0  0  0  0  0  0  0  0  0  0  0  0
  -29.2461  -21.1944   23.6739 C   0  0  0  0  0  0  0  0  0  0  0  0
  -22.7899  -12.9309   21.3125 C   0  0  0  0  0  0  0  0  0  0  0  0
  -28.6945  -22.5435   23.3634 C   0  0  0  0  0  0  0  0  0  0  0  0
  -29.5960  -17.0084   20.5385 C   0  0  0  0  0  0  0  0  0  0  0  0
  -22.9040  -28.4355   23.5311 C   0  0  0  0  0  0  0  0  0  0  0  0
  -24.5423  -31.1401   24.2548 C   0  0  0  0  0  0  0  0  0  0  0  0
  -26.1450  -34.1441   24.4867 C   0  0  0  0  0  0  0  0  0  0  0  0
  -18.0488  -27.1279   22.6512 C   0  0  0  0  0  0  0  0  0  0  0  0
  -23.6325  -27.9644   25.8982 C   0  0  0  0  0  0  0  0  0  0  0  0
  -25.8615  -28.9895   24.2472 C   0  0  0  0  0  0  0  0  0  0  0  0
  -29.8327  -18.8828   23.1203 C   0  0  0  0  0  0  0  0  0  0  0  0
  -18.8749  -28.4055   22.5274 C   0  0  0  0  0  0  0  0  0  0  0  0
  -28.8358  -17.8038   22.7581 C   0  0  0  0  0  0  0  0  0  0  0  0
  -29.6011  -14.0142   18.5701 C   0  0  0  0  0  0  0  0  0  0  0  0
  -20.1775  -28.1289   21.7834 C   0  0  0  0  0  0  0  0  0  0  0  0
  -28.3745  -13.2529   19.0714 C   0  0  0  0  0  0  0  0  0  0  0  0
  -30.2791  -14.7855   19.6981 C   0  0  0  0  0  0  0  0  0  0  0  0
  -28.1413  -14.9588   20.9317 C   0  0  0  0  0  0  0  0  0  0  0  0
  -21.0417  -27.1146   22.5423 C   0  0  1  0  0  0  0  0  0  0  0  0
  -28.5634  -17.8324   21.2657 C   0  0  1  0  0  0  0  0  0  0  0  0
  -23.4130  -29.0196   24.8185 C   0  0  1  0  0  0  0  0  0  0  0  0
  -27.4088  -14.1906   19.8174 C   0  0  2  0  0  0  0  0  0  0  0  0
  -26.5308  -36.2741   23.2172 C   0  0  0  0  0  0  0  0  0  0  0  0
  -26.5253  -29.6964   22.4400 C   0  0  0  0  0  0  0  0  0  0  0  0
  -27.5356  -31.9204   21.8915 C   0  0  0  0  0  0  0  0  0  0  0  0
  -25.1573  -31.4534   21.3015 C   0  0  0  0  0  0  0  0  0  0  0  0
  -24.8736  -35.7733   26.6052 C   0  0  0  0  0  0  0  0  0  0  0  0
  -29.6734  -23.6980   23.5116 C   0  0  0  0  0  0  0  0  0  0  0  0
  -28.9939  -25.0052   23.8932 C   0  0  0  0  0  0  0  0  0  1  0  0
  -25.7862  -31.8109   23.7241 C   0  0  1  0  0  0  0  0  0  0  0  0
  -25.6642  -35.5636   24.2452 C   0  0  2  0  0  0  0  0  0  0  0  0
  -26.2493  -31.2114   22.3663 C   0  0  0  0  0  0  0  0  0  0  0  0
  -26.3387  -12.1662   20.7337 N   0  0  0  0  0  0  0  0  0  0  0  0
  -26.1971  -13.4452   20.3460 N   0  0  0  0  0  0  0  0  0  0  0  0
  -28.7135  -20.3516   21.4536 N   0  0  0  0  0  0  0  0  0  0  0  0
  -29.3238  -15.6476   20.3962 N   0  0  0  0  0  0  0  0  0  0  0  0
  -24.6335  -29.7622   24.4974 N   0  0  0  0  0  0  0  0  0  0  0  0
  -24.6112  -15.1928   20.1428 N   0  0  0  0  0  0  0  0  0  0  0  0
  -22.4055  -13.3261   22.6011 N   0  0  0  0  0  0  0  0  0  0  0  0
  -21.7092  -27.7529   23.6566 N   0  0  0  0  0  0  0  0  0  0  0  0
  -25.4916  -33.2389   23.6774 N   0  0  0  0  0  0  0  0  0  0  0  0
  -25.7019  -36.3460   25.5130 N   0  3  0  0  0  0  0  0  0  0  0  0
  -28.1207  -19.2852   19.4521 O   0  0  0  0  0  0  0  0  0  0  0  0
  -21.9080  -12.6109   20.4799 O   0  0  0  0  0  0  0  0  0  0  0  0
  -27.5272  -22.6970   23.0145 O   0  0  0  0  0  0  0  0  0  0  0  0
  -30.6120  -17.5600   20.1078 O   0  0  0  0  0  0  0  0  0  0  0  0
  -23.5469  -28.5938   22.4999 O   0  0  0  0  0  0  0  0  0  0  0  0
  -23.5292  -31.8152   24.4538 O   0  0  0  0  0  0  0  0  0  0  0  0
  -27.0160  -33.8666   25.3082 O   0  0  0  0  0  0  0  0  0  0  0  0
  -24.0847   -6.6861   23.0651 O   0  0  0  0  0  0  0  0  0  0  0  0
  -28.2885  -24.8322   25.1215 O   0  0  0  0  0  0  0  0  0  1  0  0
  -18.8199   -5.0973   23.4665 F   0  0  0  0  0  0  0  0  0  0  0  0
  -30.7475  -22.2336   21.0186 F   0  0  0  0  0  0  0  0  0  0  0  0
  -23.1565   -4.4872   21.6701 F   0  0  0  0  0  0  0  0  0  0  0  0
  1  2  1  0  0  0  0
  1  7  2  0  0  0  0
  2  8  2  0  0  0  0
  3  4  1  0  0  0  0
  3 10  2  0  0  0  0
  4 15  2  0  0  0  0
  5 11  2  0  0  0  0
  5 19  1  0  0  0  0
  6 12  1  0  0  0  0
  6 19  2  0  0  0  0
  7 21  1  0  0  0  0
  8 23  1  0  0  0  0
  9 13  2  0  0  0  0
  9 22  1  0  0  0  0
 10 25  1  0  0  0  0
 11 26  1  0  0  0  0
 12 26  2  0  0  0  0
 13 27  1  0  0  0  0
 14 16  2  0  0  0  0
 14 28  1  0  0  0  0
 15 30  1  0  0  0  0
 16 29  1  0  0  0  0
 17 24  1  0  0  0  0
 17 27  2  0  0  0  0
 18 29  2  0  0  0  0
 18 31  1  0  0  0  0
 19 32  1  0  0  0  0
 20 32  1  0  0  0  0
 20 33  2  0  0  0  0
 20 37  1  0  0  0  0
 21 23  2  0  0  0  0
 21 43  1  0  0  0  0
 22 24  2  0  0  0  0
 22 44  1  0  0  0  0
 23 54  1  0  0  0  0
 24 45  1  0  0  0  0
 25 30  2  0  0  0  0
 25 70  1  0  0  0  0
 26 85  1  0  0  0  0
 27 86  1  0  0  0  0
 28 31  2  0  0  0  0
 28 85  1  0  0  0  0
 29 87  1  0  0  0  0
 30 88  1  0  0  0  0
 31 89  1  0  0  0  0
 32 68  2  0  0  0  0
 33 69  1  0  0  0  0
 33 73  1  0  0  0  0
 34 36  2  0  0  0  0
 34 46  1  0  0  0  0
 34 70  1  0  0  0  0
 35 55  1  0  0  0  0
 35 70  1  0  0  0  0
 35 78  2  0  0  0  0
 36 38  1  0  0  0  0
 37 74  1  0  0  0  0
 37 79  2  0  0  0  0
 38 63  1  0  0  0  0
 38 80  2  0  0  0  0
 39 55  1  0  0  0  0
 39 71  1  0  0  0  0
 39 81  2  0  0  0  0
 40 56  1  0  0  0  0
 40 75  1  0  0  0  0
 40 82  2  0  0  0  0
 41 65  1  0  0  0  0
 41 72  1  0  0  0  0
 41 83  2  0  0  0  0
 42 66  1  0  0  0  0
 42 76  1  0  0  0  0
 42 84  2  0  0  0  0
 43 47  1  0  0  0  0
 44 56  1  0  0  0  0
 45 72  1  0  0  0  0
 46 48  1  0  0  0  0
 47 50  1  0  0  0  0
 48 55  1  0  0  0  0
 49 51  1  0  0  0  0
 49 52  1  0  0  0  0
 50 54  1  0  0  0  0
 51 57  1  0  0  0  0
 52 71  1  0  0  0  0
 53 57  1  0  0  0  0
 53 71  1  0  0  0  0
 54 75  1  0  0  0  0
 56 72  1  0  0  0  0
 57 69  1  0  0  0  0
 58 66  1  0  0  0  0
 59 67  1  0  0  0  0
 60 67  1  0  0  0  0
 61 67  1  0  0  0  0
 62 77  1  0  0  0  0
 63 64  1  0  0  0  0
 64 86  1  0  0  0  0
 65 67  1  0  0  0  0
 65 76  1  0  0  0  0
 66 77  1  0  0  0  0
 68 69  1  0  0  0  0
M  CHG  1  77   1
M  ISO  4  39 100  55 100  64 101  86 101
M  END
> <Batch ID>
0061

> <Smiles>
CNC(C)C(=O)NC(C(=O)N1Cc2cc([101O:1][101CH2:1]CC(=O)C=C3CC[100CH:0]([100C:0](=O)N4CCCC(n5nc(-c6ccc(Oc7ccc(F)cc7F)cc6)c(C(N)=O)c5N)C4)C(=O)N3c3ccccc3F)ccc2CC1C(=O)NC1CCCc2ccccc21)C(C)(C)C

> <Shape>
0.338

> <Color>
0.139

> <Negative vol penalty>
0.000

$$$$

  -OEChem-04042323073D

 85 93  0     1  0  0  0  0  0999 V2000
  -29.9511  -36.7214   20.9456 C   0  0  0  0  0  0  0  0  0  0  0  0
  -30.0962  -35.3588   21.1858 C   0  0  0  0  0  0  0  0  0  0  0  0
  -30.7960  -19.4159   20.0951 C   0  0  0  0  0  0  0  0  0  0  0  0
  -23.2505   -9.6062   20.0866 C   0  0  0  0  0  0  0  0  0  0  0  0
  -23.7837   -9.9895   22.4117 C   0  0  0  0  0  0  0  0  0  0  0  0
  -28.7661  -37.3674   21.2956 C   0  0  0  0  0  0  0  0  0  0  0  0
  -29.0568  -34.6416   21.7771 C   0  0  0  0  0  0  0  0  0  0  0  0
  -27.4854  -28.8309   20.6488 C   0  0  0  0  0  0  0  0  0  0  0  0
  -30.7034  -18.0379   20.2908 C   0  0  0  0  0  0  0  0  0  0  0  0
  -22.5630   -8.4439   20.4359 C   0  0  0  0  0  0  0  0  0  0  0  0
  -23.0961   -8.8272   22.7610 C   0  0  0  0  0  0  0  0  0  0  0  0
  -27.7652  -27.6377   21.3133 C   0  0  0  0  0  0  0  0  0  0  0  0
  -23.6558   -5.4932   22.7176 C   0  0  0  0  0  0  0  0  0  0  0  0
  -24.2648   -4.6283   23.6268 C   0  0  0  0  0  0  0  0  0  0  0  0
  -29.9415  -20.2771   20.7836 C   0  0  0  0  0  0  0  0  0  0  0  0
  -25.6536  -27.7933   22.4692 C   0  0  0  0  0  0  0  0  0  0  0  0
  -22.3992   -4.9022   25.1372 C   0  0  0  0  0  0  0  0  0  0  0  0
  -23.8610  -10.3789   21.0745 C   0  0  0  0  0  0  0  0  0  0  0  0
  -24.0471  -12.8822   20.6201 C   0  0  0  0  0  0  0  0  0  0  0  0
  -27.7080  -36.6558   21.8826 C   0  0  0  0  0  0  0  0  0  0  0  0
  -26.2905  -29.5212   20.8980 C   0  0  0  0  0  0  0  0  0  0  0  0
  -27.8570  -35.2790   22.1364 C   0  0  0  0  0  0  0  0  0  0  0  0
  -25.3599  -28.9938   21.8046 C   0  0  0  0  0  0  0  0  0  0  0  0
  -28.9017  -18.3823   21.8632 C   0  0  0  0  0  0  0  0  0  0  0  0
  -29.7563  -17.5211   21.1748 C   0  0  0  0  0  0  0  0  0  0  0  0
  -22.4857   -8.0545   21.7731 C   0  0  0  0  0  0  0  0  0  0  0  0
  -26.8505  -27.1202   22.2258 C   0  0  0  0  0  0  0  0  0  0  0  0
  -22.4184   -6.0627   23.0183 C   0  0  0  0  0  0  0  0  0  0  0  0
  -23.6365   -4.3328   24.8366 C   0  0  0  0  0  0  0  0  0  0  0  0
  -21.7901   -5.7672   24.2281 C   0  0  0  0  0  0  0  0  0  0  0  0
  -28.9944  -19.7602   21.6676 C   0  0  0  0  0  0  0  0  0  0  0  0
  -24.5719  -11.5793   20.7143 C   0  0  0  0  0  0  0  0  0  0  0  0
  -25.1179  -13.6576   20.2475 C   0  0  0  0  0  0  0  0  0  0  0  0
  -22.7112  -13.3498   20.8489 C   0  0  0  0  0  0  0  0  0  0  0  0
  -25.5562  -32.3889   22.0559 C   0  0  0  0  0  0  0  0  0  0  0  0
  -27.5900  -23.5913   22.6284 C   0  0  0  0  0  0  0  0  0  0  0  0
  -22.5405  -31.5158   21.2398 C   0  0  0  0  0  0  0  0  0  0  0  0
  -20.3216  -28.9991   20.6160 C   0  0  0  0  0  0  0  0  0  0  0  0
  -30.4618  -15.1423   20.7393 C   0  0  0  0  0  0  0  0  0  0  0  0
  -26.4641  -37.4069   22.2869 C   0  0  0  0  0  0  0  0  0  0  0  0
  -25.9917  -30.7933   20.1531 C   0  0  0  0  0  0  0  0  0  0  0  0
  -24.0535  -29.6858   22.0926 C   0  0  0  0  0  0  0  0  0  0  0  0
  -25.2687  -36.4997   22.5666 C   0  0  0  0  0  0  0  0  0  0  0  0
  -29.7409  -12.3445   18.6583 C   0  0  0  0  0  0  0  0  0  0  0  0
  -25.6838  -35.3261   23.4482 C   0  0  0  0  0  0  0  0  0  0  0  0
  -28.2887  -12.0032   19.0000 C   0  0  0  0  0  0  0  0  0  0  0  0
  -30.5190  -12.8082   19.8885 C   0  0  0  0  0  0  0  0  0  0  0  0
  -28.4445  -13.5649   20.9809 C   0  0  0  0  0  0  0  0  0  0  0  0
  -26.7428  -34.4616   22.7533 C   0  0  1  0  0  0  0  0  0  0  0  0
  -24.9744  -31.6785   20.8665 C   0  0  1  0  0  0  0  0  0  0  0  0
  -27.6032  -13.1549   19.7612 C   0  0  2  0  0  0  0  0  0  0  0  0
  -27.8858  -17.8232   22.8099 C   0  0  0  0  0  0  0  0  0  0  0  0
  -17.9199  -28.5955   20.0104 C   0  0  0  0  0  0  0  0  0  0  0  0
  -21.7119  -32.1641   24.1039 C   0  0  0  0  0  0  0  0  0  0  0  0
  -19.6029  -30.8731   23.7120 C   0  0  0  0  0  0  0  0  0  0  0  0
  -20.0877  -32.9087   22.3541 C   0  0  0  0  0  0  0  0  0  0  0  0
  -21.0651  -27.6382   18.0953 C   0  0  0  0  0  0  0  0  0  0  0  0
  -27.9316  -25.0021   22.1905 C   0  0  0  0  0  0  0  0  0  1  0  0
  -28.3974  -22.4942   21.9762 C   0  0  0  0  0  0  0  0  0  0  0  0
  -21.4109  -30.7954   21.9354 C   0  0  1  0  0  0  0  0  0  0  0  0
  -19.3338  -28.7848   19.4833 C   0  0  2  0  0  0  0  0  0  0  0  0
  -20.7287  -31.6731   23.0226 C   0  0  0  0  0  0  0  0  0  0  0  0
  -25.8747  -11.5260   20.4248 N   0  0  0  0  0  0  0  0  0  0  0  0
  -28.3210  -20.7654   24.0170 N   0  0  0  0  0  0  0  0  0  0  0  0
  -26.1776  -12.8051   20.1450 N   0  0  0  0  0  0  0  0  0  0  0  0
  -23.8100  -30.9298   21.3439 N   0  0  0  0  0  0  0  0  0  0  0  0
  -29.8119  -13.9034   20.5559 N   0  0  0  0  0  0  0  0  0  0  0  0
  -25.2469  -14.9785   20.0009 N   0  0  0  0  0  0  0  0  0  0  0  0
  -21.7330  -12.4195   21.2258 N   0  0  0  0  0  0  0  0  0  0  0  0
  -29.6795  -16.1179   21.3563 N   0  0  0  0  0  0  0  0  0  0  0  0
  -26.1270  -33.6114   21.7572 N   0  0  0  0  0  0  0  0  0  0  0  0
  -20.5089  -30.3387   20.8836 N   0  0  0  0  0  0  0  0  0  0  0  0
  -19.7063  -27.5777   18.6927 N   0  3  0  0  0  0  0  0  0  0  0  0
  -22.3906  -14.5542   20.7068 O   0  0  0  0  0  0  0  0  0  0  0  0
  -25.4907  -31.8673   23.1628 O   0  0  0  0  0  0  0  0  0  0  0  0
  -26.7121  -23.3687   23.4605 O   0  0  0  0  0  0  0  0  0  0  0  0
  -22.3040  -32.5562   20.6207 O   0  0  0  0  0  0  0  0  0  0  0  0
  -20.8691  -28.0709   21.2069 O   0  0  0  0  0  0  0  0  0  0  0  0
  -31.6172  -15.3327   20.3512 O   0  0  0  0  0  0  0  0  0  0  0  0
  -26.5878  -20.6680   21.9945 O   0  0  0  0  0  0  0  0  0  0  0  0
  -21.8146   -6.9205   22.1143 O   0  0  0  0  0  0  0  0  0  0  0  0
  -27.1214  -25.9559   22.8762 O   0  0  0  0  0  0  0  0  0  1  0  0
  -24.2208   -3.5010   25.7089 F   0  0  0  0  0  0  0  0  0  0  0  0
  -20.6008   -6.3103   24.5219 F   0  0  0  0  0  0  0  0  0  0  0  0
  -27.9261  -20.8896   22.5256 S   0  0  2  0  0  0  0  0  0  0  0  0
  1  2  1  0  0  0  0
  1  6  2  0  0  0  0
  2  7  2  0  0  0  0
  3  9  1  0  0  0  0
  3 15  2  0  0  0  0
  4 10  2  0  0  0  0
  4 18  1  0  0  0  0
  5 11  1  0  0  0  0
  5 18  2  0  0  0  0
  6 20  1  0  0  0  0
  7 22  1  0  0  0  0
  8 12  2  0  0  0  0
  8 21  1  0  0  0  0
  9 25  2  0  0  0  0
 10 26  1  0  0  0  0
 11 26  2  0  0  0  0
 12 27  1  0  0  0  0
 13 14  2  0  0  0  0
 13 28  1  0  0  0  0
 14 29  1  0  0  0  0
 15 31  1  0  0  0  0
 16 23  1  0  0  0  0
 16 27  2  0  0  0  0
 17 29  2  0  0  0  0
 17 30  1  0  0  0  0
 18 32  1  0  0  0  0
 19 32  1  0  0  0  0
 19 33  2  0  0  0  0
 19 34  1  0  0  0  0
 20 22  2  0  0  0  0
 20 40  1  0  0  0  0
 21 23  2  0  0  0  0
 21 41  1  0  0  0  0
 22 49  1  0  0  0  0
 23 42  1  0  0  0  0
 24 25  1  0  0  0  0
 24 31  2  0  0  0  0
 24 52  1  0  0  0  0
 25 70  1  0  0  0  0
 26 81  1  0  0  0  0
 27 82  1  0  0  0  0
 28 30  2  0  0  0  0
 28 81  1  0  0  0  0
 29 83  1  0  0  0  0
 30 84  1  0  0  0  0
 31 85  1  0  0  0  0
 32 63  2  0  0  0  0
 33 65  1  0  0  0  0
 33 68  1  0  0  0  0
 34 69  1  0  0  0  0
 34 74  2  0  0  0  0
 35 50  1  0  0  0  0
 35 71  1  0  0  0  0
 35 75  2  0  0  0  0
 36 58  1  0  0  0  0
 36 59  1  0  0  0  0
 36 76  2  0  0  0  0
 37 60  1  0  0  0  0
 37 66  1  0  0  0  0
 37 77  2  0  0  0  0
 38 61  1  0  0  0  0
 38 72  1  0  0  0  0
 38 78  2  0  0  0  0
 39 67  1  0  0  0  0
 39 70  1  0  0  0  0
 39 79  2  0  0  0  0
 40 43  1  0  0  0  0
 41 50  1  0  0  0  0
 42 66  1  0  0  0  0
 43 45  1  0  0  0  0
 44 46  1  0  0  0  0
 44 47  1  0  0  0  0
 45 49  1  0  0  0  0
 46 51  1  0  0  0  0
 47 67  1  0  0  0  0
 48 51  1  0  0  0  0
 48 67  1  0  0  0  0
 49 71  1  0  0  0  0
 50 66  1  0  0  0  0
 51 65  1  0  0  0  0
 53 61  1  0  0  0  0
 54 62  1  0  0  0  0
 55 62  1  0  0  0  0
 56 62  1  0  0  0  0
 57 73  1  0  0  0  0
 58 82  1  0  0  0  0
 59 85  1  0  0  0  0
 60 62  1  0  0  0  0
 60 72  1  0  0  0  0
 61 73  1  0  0  0  0
 63 65  1  0  0  0  0
 64 85  2  0  0  0  0
 80 85  2  0  0  0  0
M  CHG  1  73   1
M  ISO  4  39 100  58 101  70 100  82 101
M  END
> <Batch ID>
0061

> <Smiles>
CNC(C)C(=O)NC(C(=O)N1Cc2cc([101O:1][101CH2:1]C(=O)CS(=N)(=O)c3cccc([100NH:0][100C:0](=O)N4CCCC(n5nc(-c6ccc(Oc7ccc(F)cc7F)cc6)c(C(N)=O)c5N)C4)c3C)ccc2CC1C(=O)NC1CCCc2ccccc21)C(C)(C)C

> <Shape>
0.312

> <Color>
0.192

> <Negative vol penalty>
0.000

$$$$

  -OEChem-04042323073D

 88 97  0     1  0  0  0  0  0999 V2000
  -21.8302  -37.3061   20.2198 C   0  0  0  0  0  0  0  0  0  0  0  0
  -21.2288  -36.1080   20.5884 C   0  0  0  0  0  0  0  0  0  0  0  0
  -24.8717   -8.8544   21.7727 C   0  0  0  0  0  0  0  0  0  0  0  0
  -23.2343  -10.5360   21.2000 C   0  0  0  0  0  0  0  0  0  0  0  0
  -23.0454  -37.2909   19.5385 C   0  0  0  0  0  0  0  0  0  0  0  0
  -21.8482  -34.8947   20.2863 C   0  0  0  0  0  0  0  0  0  0  0  0
  -24.7511  -27.0880   20.1118 C   0  0  0  0  0  0  0  0  0  0  0  0
  -28.5734  -21.7308   21.3050 C   0  0  0  0  0  0  0  0  0  0  0  0
  -23.8801   -7.8744   21.7307 C   0  0  0  0  0  0  0  0  0  0  0  0
  -22.2426   -9.5559   21.1579 C   0  0  0  0  0  0  0  0  0  0  0  0
  -25.9557  -26.4979   19.7316 C   0  0  0  0  0  0  0  0  0  0  0  0
  -21.3866   -6.7675   23.7261 C   0  0  0  0  0  0  0  0  0  0  0  0
  -21.3541   -5.8346   24.7626 C   0  0  0  0  0  0  0  0  0  0  0  0
  -27.9659  -20.4756   21.2758 C   0  0  0  0  0  0  0  0  0  0  0  0
  -27.1626  -28.3331   20.7290 C   0  0  0  0  0  0  0  0  0  0  0  0
  -30.6967  -20.7158   20.7587 C   0  0  0  0  0  0  0  0  0  0  0  0
  -21.6781   -4.0500   23.1666 C   0  0  0  0  0  0  0  0  0  0  0  0
  -24.5488  -10.1852   21.5074 C   0  0  0  0  0  0  0  0  0  0  0  0
  -26.3745  -11.5492   22.6538 C   0  0  0  0  0  0  0  0  0  0  0  0
  -23.6732  -36.0761   19.2173 C   0  0  0  0  0  0  0  0  0  0  0  0
  -24.7429  -28.3126   20.7950 C   0  0  0  0  0  0  0  0  0  0  0  0
  -23.0867  -34.8592   19.6203 C   0  0  0  0  0  0  0  0  0  0  0  0
  -25.9567  -28.9354   21.1190 C   0  0  0  0  0  0  0  0  0  0  0  0
  -30.0892  -19.4605   20.7296 C   0  0  0  0  0  0  0  0  0  0  0  0
  -29.9389  -21.8509   21.0464 C   0  0  0  0  0  0  0  0  0  0  0  0
  -22.5655   -8.2251   21.4233 C   0  0  0  0  0  0  0  0  0  0  0  0
  -27.1616  -27.1218   20.0377 C   0  0  0  0  0  0  0  0  0  0  0  0
  -21.5648   -6.3416   22.4098 C   0  0  0  0  0  0  0  0  0  0  0  0
  -21.4998   -4.4759   24.4829 C   0  0  0  0  0  0  0  0  0  0  0  0
  -21.7106   -4.9829   22.1301 C   0  0  0  0  0  0  0  0  0  0  0  0
  -28.7237  -19.3404   20.9881 C   0  0  0  0  0  0  0  0  0  0  0  0
  -25.5727  -11.1981   21.5512 C   0  0  0  0  0  0  0  0  0  0  0  0
  -27.1818  -12.5563   22.1843 C   0  0  0  0  0  0  0  0  0  0  0  0
  -31.9186  -23.2907   21.4438 C   0  0  0  0  0  0  0  0  0  0  0  0
  -26.3884  -11.0129   23.9834 C   0  0  0  0  0  0  0  0  0  0  0  0
  -23.5990  -31.2146   20.1837 C   0  0  0  0  0  0  0  0  0  0  0  0
  -24.5642  -31.8099   23.2229 C   0  0  0  0  0  0  0  0  0  0  0  0
  -27.4170  -31.0143   25.2833 C   0  0  0  0  0  0  0  0  0  0  0  0
  -27.8991  -17.2745   19.2740 C   0  0  0  0  0  0  0  0  0  0  0  0
  -24.9916  -36.1180   18.4856 C   0  0  0  0  0  0  0  0  0  0  0  0
  -23.4360  -28.9228   21.2216 C   0  0  0  0  0  0  0  0  0  0  0  0
  -26.0028  -30.2408   21.8688 C   0  0  0  0  0  0  0  0  0  0  0  0
  -32.5656  -24.6303   21.1467 C   0  0  0  0  0  0  0  0  0  0  0  0
  -25.3464  -34.7907   17.8234 C   0  0  0  0  0  0  0  0  0  0  0  0
  -31.6408  -25.8179   21.2990 C   0  0  0  0  0  0  0  0  0  0  0  0
  -27.9712  -14.2297   17.4813 C   0  0  0  0  0  0  0  0  0  0  0  0
  -25.1864  -33.6530   18.8208 C   0  0  0  0  0  0  0  0  0  0  0  0
  -27.4108  -13.1978   18.4600 C   0  0  0  0  0  0  0  0  0  0  0  0
  -27.2645  -15.5749   17.6230 C   0  0  0  0  0  0  0  0  0  0  0  0
  -29.6948  -24.3306   20.9185 C   0  0  0  0  0  0  0  0  0  0  0  0
  -26.7074  -15.1029   19.9751 C   0  0  0  0  0  0  0  0  0  0  0  0
  -23.7269  -33.5266   19.2755 C   0  0  1  0  0  0  0  0  0  0  0  0
  -23.5286  -30.4266   21.4612 C   0  0  1  0  0  0  0  0  0  0  0  0
  -30.4081  -25.5938   20.4387 C   0  0  1  0  0  0  0  0  0  0  0  0
  -27.4172  -13.7389   19.9011 C   0  0  1  0  0  0  0  0  0  0  0  0
  -30.9287  -18.2647   20.4189 C   0  0  0  0  0  0  0  0  0  0  0  0
  -27.6199  -30.7962   27.7751 C   0  0  0  0  0  0  0  0  0  0  0  0
  -25.4224  -34.7361   23.1184 C   0  0  0  0  0  0  0  0  0  0  0  0
  -27.0958  -34.2370   24.9126 C   0  0  0  0  0  0  0  0  0  0  0  0
  -24.6597  -33.9523   25.3675 C   0  0  0  0  0  0  0  0  0  0  0  0
  -28.5262  -28.2787   25.0700 C   0  0  0  0  0  0  0  0  0  0  0  0
  -29.4730  -26.8000   20.4958 C   0  0  0  0  0  0  0  0  0  1  0  0
  -25.8410  -32.2995   23.8625 C   0  0  1  0  0  0  0  0  0  0  0  0
  -27.4497  -30.0540   26.4586 C   0  0  2  0  0  0  0  0  0  0  0  0
  -25.7550  -33.7917   24.2908 C   0  0  0  0  0  0  0  0  0  0  0  0
  -25.8456  -11.9234   20.4634 N   0  0  0  0  0  0  0  0  0  0  0  0
  -26.8280  -12.7403   20.8800 N   0  0  0  0  0  0  0  0  0  0  0  0
  -30.5687  -23.1538   21.0771 N   0  0  0  0  0  0  0  0  0  0  0  0
  -24.6983  -30.8009   22.2587 N   0  0  0  0  0  0  0  0  0  0  0  0
  -27.3037  -16.0415   19.0105 N   0  0  0  0  0  0  0  0  0  0  0  0
  -28.1527  -13.2937   22.7641 N   0  0  0  0  0  0  0  0  0  0  0  0
  -25.5556  -11.5963   24.9479 N   0  0  0  0  0  0  0  0  0  0  0  0
  -23.6531  -32.5829   20.3690 N   0  0  0  0  0  0  0  0  0  0  0  0
  -26.1278  -31.3792   24.9576 N   0  0  0  0  0  0  0  0  0  0  0  0
  -28.5793  -29.0932   26.3113 N   0  3  0  0  0  0  0  0  0  0  0  0
  -32.6240  -22.4006   21.9265 O   0  0  0  0  0  0  0  0  0  0  0  0
  -27.1298  -10.0554   24.3106 O   0  0  0  0  0  0  0  0  0  0  0  0
  -23.6052  -30.6248   19.1096 O   0  0  0  0  0  0  0  0  0  0  0  0
  -23.4869  -32.2996   23.5711 O   0  0  0  0  0  0  0  0  0  0  0  0
  -28.4337  -31.4048   24.7138 O   0  0  0  0  0  0  0  0  0  0  0  0
  -28.4076  -18.0354   18.4605 O   0  0  0  0  0  0  0  0  0  0  0  0
  -28.7774  -16.8139   21.6378 O   0  0  0  0  0  0  0  0  0  0  0  0
  -26.5407  -17.9774   21.3437 O   0  0  0  0  0  0  0  0  0  0  0  0
  -21.5977   -7.2690   21.3820 O   0  0  0  0  0  0  0  0  0  0  0  0
  -28.3387  -26.5483   19.6672 O   0  0  0  0  0  0  0  0  0  1  0  0
  -21.4701   -3.5803   25.4785 F   0  0  0  0  0  0  0  0  0  0  0  0
  -21.8833   -4.5678   20.8676 F   0  0  0  0  0  0  0  0  0  0  0  0
  -27.9222  -17.7674   20.9601 S   0  0  0  0  0  0  0  0  0  0  0  0
  1  2  1  0  0  0  0
  1  5  2  0  0  0  0
  2  6  2  0  0  0  0
  3  9  2  0  0  0  0
  3 18  1  0  0  0  0
  4 10  1  0  0  0  0
  4 18  2  0  0  0  0
  5 20  1  0  0  0  0
  6 22  1  0  0  0  0
  7 11  2  0  0  0  0
  7 21  1  0  0  0  0
  8 14  2  0  0  0  0
  8 25  1  0  0  0  0
  9 26  1  0  0  0  0
 10 26  2  0  0  0  0
 11 27  1  0  0  0  0
 12 13  2  0  0  0  0
 12 28  1  0  0  0  0
 13 29  1  0  0  0  0
 14 31  1  0  0  0  0
 15 23  1  0  0  0  0
 15 27  2  0  0  0  0
 16 24  1  0  0  0  0
 16 25  2  0  0  0  0
 17 29  2  0  0  0  0
 17 30  1  0  0  0  0
 18 32  1  0  0  0  0
 19 32  1  0  0  0  0
 19 33  2  0  0  0  0
 19 35  1  0  0  0  0
 20 22  2  0  0  0  0
 20 40  1  0  0  0  0
 21 23  2  0  0  0  0
 21 41  1  0  0  0  0
 22 52  1  0  0  0  0
 23 42  1  0  0  0  0
 24 31  2  0  0  0  0
 24 56  1  0  0  0  0
 25 68  1  0  0  0  0
 26 84  1  0  0  0  0
 27 85  1  0  0  0  0
 28 30  2  0  0  0  0
 28 84  1  0  0  0  0
 29 86  1  0  0  0  0
 30 87  1  0  0  0  0
 31 88  1  0  0  0  0
 32 66  2  0  0  0  0
 33 67  1  0  0  0  0
 33 71  1  0  0  0  0
 34 43  1  0  0  0  0
 34 68  1  0  0  0  0
 34 76  2  0  0  0  0
 35 72  1  0  0  0  0
 35 77  2  0  0  0  0
 36 53  1  0  0  0  0
 36 73  1  0  0  0  0
 36 78  2  0  0  0  0
 37 63  1  0  0  0  0
 37 69  1  0  0  0  0
 37 79  2  0  0  0  0
 38 64  1  0  0  0  0
 38 74  1  0  0  0  0
 38 80  2  0  0  0  0
 39 70  1  0  0  0  0
 39 81  2  0  0  0  0
 39 88  1  0  0  0  0
 40 44  1  0  0  0  0
 41 53  1  0  0  0  0
 42 69  1  0  0  0  0
 43 45  1  0  0  0  0
 44 47  1  0  0  0  0
 45 54  1  0  0  0  0
 46 48  1  0  0  0  0
 46 49  1  0  0  0  0
 47 52  1  0  0  0  0
 48 55  1  0  0  0  0
 49 70  1  0  0  0  0
 50 54  1  0  0  0  0
 50 68  1  0  0  0  0
 51 55  1  0  0  0  0
 51 70  1  0  0  0  0
 52 73  1  0  0  0  0
 53 69  1  0  0  0  0
 54 62  1  0  0  0  0
 55 67  1  0  0  0  0
 57 64  1  0  0  0  0
 58 65  1  0  0  0  0
 59 65  1  0  0  0  0
 60 65  1  0  0  0  0
 61 75  1  0  0  0  0
 62 85  1  0  0  0  0
 63 65  1  0  0  0  0
 63 74  1  0  0  0  0
 64 75  1  0  0  0  0
 66 67  1  0  0  0  0
 82 88  2  0  0  0  0
 83 88  2  0  0  0  0
M  CHG  1  75   1
M  ISO  4  39 100  62 101  85 101  88 100
M  END
> <Batch ID>
0061

> <Smiles>
CNC(C)C(=O)NC(C(=O)N1Cc2cc([101O:1][101CH2:1]C3CCC(=O)N(c4ccc([100S:0](=O)(=O)[100C:0](=O)N5CCCC(n6nc(-c7ccc(Oc8ccc(F)cc8F)cc7)c(C(N)=O)c6N)C5)c(C)c4)C3)ccc2CC1C(=O)NC1CCCc2ccccc21)C(C)(C)C

> <Shape>
0.334

> <Color>
0.136

> <Negative vol penalty>
0.000

$$$$

  -OEChem-04042323073D

 87 95  0     1  0  0  0  0  0999 V2000
  -23.7548  -23.5990   13.8611 C   0  0  0  0  0  0  0  0  0  0  0  0
  -23.6803  -24.2093   15.1090 C   0  0  0  0  0  0  0  0  0  0  0  0
  -25.3228  -15.7462   21.4921 C   0  0  0  0  0  0  0  0  0  0  0  0
  -23.4821  -14.7734   20.2665 C   0  0  0  0  0  0  0  0  0  0  0  0
  -21.4278  -26.0064   23.0039 C   0  0  0  0  0  0  0  0  0  0  0  0
  -24.8007  -22.7221   13.5765 C   0  0  0  0  0  0  0  0  0  0  0  0
  -24.6512  -23.9421   16.0736 C   0  0  0  0  0  0  0  0  0  0  0  0
  -26.2704  -28.1316   18.4128 C   0  0  0  0  0  0  0  0  0  0  0  0
  -21.9887  -25.0103   22.2047 C   0  0  0  0  0  0  0  0  0  0  0  0
  -26.0583  -14.5739   21.3182 C   0  0  0  0  0  0  0  0  0  0  0  0
  -24.2175  -13.6011   20.0924 C   0  0  0  0  0  0  0  0  0  0  0  0
  -25.4462  -28.6678   19.4013 C   0  0  0  0  0  0  0  0  0  0  0  0
  -27.8737  -13.1126   18.8683 C   0  0  0  0  0  0  0  0  0  0  0  0
  -29.2088  -13.2360   18.4837 C   0  0  0  0  0  0  0  0  0  0  0  0
  -20.3500  -25.4647   20.4884 C   0  0  0  0  0  0  0  0  0  0  0  0
  -26.8183  -27.6365   21.0962 C   0  0  0  0  0  0  0  0  0  0  0  0
  -29.8947  -12.0931   20.4987 C   0  0  0  0  0  0  0  0  0  0  0  0
  -24.0347  -15.8460   20.9663 C   0  0  0  0  0  0  0  0  0  0  0  0
  -20.3280  -26.7316   22.5455 C   0  0  0  0  0  0  0  0  0  0  0  0
  -19.7891  -26.4608   21.2878 C   0  0  0  0  0  0  0  0  0  0  0  0
  -22.8875  -17.6442   22.3656 C   0  0  0  0  0  0  0  0  0  0  0  0
  -25.7902  -22.4514   14.5347 C   0  0  0  0  0  0  0  0  0  0  0  0
  -27.3702  -27.3334   18.7589 C   0  0  0  0  0  0  0  0  0  0  0  0
  -25.7106  -23.0597   15.8020 C   0  0  0  0  0  0  0  0  0  0  0  0
  -27.6563  -27.0934   20.1104 C   0  0  0  0  0  0  0  0  0  0  0  0
  -21.4498  -24.7394   20.9469 C   0  0  0  0  0  0  0  0  0  0  0  0
  -25.5056  -13.5013   20.6183 C   0  0  0  0  0  0  0  0  0  0  0  0
  -25.7185  -28.4179   20.7431 C   0  0  0  0  0  0  0  0  0  0  0  0
  -27.5491  -12.4796   20.0681 C   0  0  0  0  0  0  0  0  0  0  0  0
  -30.2193  -12.7262   19.2989 C   0  0  0  0  0  0  0  0  0  0  0  0
  -28.5596  -11.9698   20.8833 C   0  0  0  0  0  0  0  0  0  0  0  0
  -23.2743  -17.0566   21.1462 C   0  0  0  0  0  0  0  0  0  0  0  0
  -22.1896  -18.7688   21.9986 C   0  0  0  0  0  0  0  0  0  0  0  0
  -19.7510  -27.7912   23.4244 C   0  0  0  0  0  0  0  0  0  0  0  0
  -18.6408  -27.2010   20.7811 C   0  0  0  0  0  0  0  0  0  0  0  0
  -23.1368  -17.2122   23.7098 C   0  0  0  0  0  0  0  0  0  0  0  0
  -28.2162  -24.3194   18.2079 C   0  0  0  0  0  0  0  0  0  0  0  0
  -30.9693  -25.2366   19.6576 C   0  0  0  0  0  0  0  0  0  0  0  0
  -22.6706  -29.0354   22.6079 C   0  0  0  0  0  0  0  0  0  0  0  0
  -32.5422  -27.3806   21.7967 C   0  0  0  0  0  0  0  0  0  0  0  0
  -21.6070  -23.3329   18.8629 C   0  0  0  0  0  0  0  0  0  0  0  0
  -26.8755  -21.4599   14.1975 C   0  0  0  0  0  0  0  0  0  0  0  0
  -28.2650  -26.7845   17.6816 C   0  0  0  0  0  0  0  0  0  0  0  0
  -28.8366  -26.2598   20.5352 C   0  0  0  0  0  0  0  0  0  0  0  0
  -28.0709  -21.5196   15.1449 C   0  0  0  0  0  0  0  0  0  0  0  0
  -20.4821  -20.2548   17.4711 C   0  0  0  0  0  0  0  0  0  0  0  0
  -27.6008  -21.5619   16.5955 C   0  0  0  0  0  0  0  0  0  0  0  0
  -21.0764  -19.1967   18.4035 C   0  0  0  0  0  0  0  0  0  0  0  0
  -21.4337  -21.4329   17.2707 C   0  0  0  0  0  0  0  0  0  0  0  0
  -22.5152  -20.9969   19.4408 C   0  0  0  0  0  0  0  0  0  0  0  0
  -26.7584  -22.8144   16.8660 C   0  0  1  0  0  0  0  0  0  0  0  0
  -29.0586  -25.5611   18.1300 C   0  0  1  0  0  0  0  0  0  0  0  0
  -21.5664  -19.8210   19.7247 C   0  0  2  0  0  0  0  0  0  0  0  0
  -18.5369  -27.3827   19.2959 C   0  0  0  0  0  0  0  0  0  0  0  0
  -34.4405  -28.4650   23.0288 C   0  0  0  0  0  0  0  0  0  0  0  0
  -30.6129  -22.8713   21.5519 C   0  0  0  0  0  0  0  0  0  0  0  0
  -32.2931  -23.9292   23.0770 C   0  0  0  0  0  0  0  0  0  0  0  0
  -32.9610  -23.2406   20.7743 C   0  0  0  0  0  0  0  0  0  0  0  0
  -33.0138  -29.3128   19.6051 C   0  0  0  0  0  0  0  0  0  0  0  0
  -20.2896  -29.2033   23.3066 C   0  0  0  0  0  0  0  0  0  0  0  0
  -23.5428  -29.1411   21.3751 C   0  0  0  0  0  0  0  0  0  1  0  0
  -31.4715  -25.2603   21.0810 C   0  0  1  0  0  0  0  0  0  0  0  0
  -33.8349  -28.1657   21.6663 C   0  0  2  0  0  0  0  0  0  0  0  0
  -31.8112  -23.8395   21.6133 C   0  0  0  0  0  0  0  0  0  0  0  0
  -22.8566  -17.7504   20.0841 N   0  0  0  0  0  0  0  0  0  0  0  0
  -22.2001  -18.7856   20.6349 N   0  0  0  0  0  0  0  0  0  0  0  0
  -29.6781  -25.7400   19.4447 N   0  0  0  0  0  0  0  0  0  0  0  0
  -21.8524  -21.9758   18.5648 N   0  0  0  0  0  0  0  0  0  0  0  0
  -21.5740  -19.7351   22.7127 N   0  0  0  0  0  0  0  0  0  0  0  0
  -22.2086  -16.3574   24.3198 N   0  0  0  0  0  0  0  0  0  0  0  0
  -22.0197  -23.7276   20.1351 N   0  0  0  0  0  0  0  0  0  0  0  0
  -27.6108  -23.9744   17.0146 N   0  0  0  0  0  0  0  0  0  0  0  0
  -21.3337  -29.2466   22.3091 N   0  0  0  0  0  0  0  0  0  0  0  0
  -32.5950  -26.1907   21.1020 N   0  0  0  0  0  0  0  0  0  0  0  0
  -33.5876  -29.4586   20.9676 N   0  3  0  0  0  0  0  0  0  0  0  0
  -18.8584  -27.4934   24.2152 O   0  0  0  0  0  0  0  0  0  0  0  0
  -17.7546  -27.6908   21.4815 O   0  0  0  0  0  0  0  0  0  0  0  0
  -24.1442  -17.5866   24.3567 O   0  0  0  0  0  0  0  0  0  0  0  0
  -28.1236  -23.7179   19.2715 O   0  0  0  0  0  0  0  0  0  0  0  0
  -31.6985  -24.7945   18.7663 O   0  0  0  0  0  0  0  0  0  0  0  0
  -23.1233  -28.7922   23.7232 O   0  0  0  0  0  0  0  0  0  0  0  0
  -31.5830  -27.7811   22.4524 O   0  0  0  0  0  0  0  0  0  0  0  0
  -21.0457  -24.0825   18.0597 O   0  0  0  0  0  0  0  0  0  0  0  0
  -26.2231  -12.3572   20.4481 O   0  0  0  0  0  0  0  0  0  0  0  0
  -24.9153  -28.9396   21.7099 O   0  0  0  0  0  0  0  0  0  1  0  0
  -31.5013  -12.8433   18.9287 F   0  0  0  0  0  0  0  0  0  0  0  0
  -28.2539  -11.3595   22.0365 F   0  0  0  0  0  0  0  0  0  0  0  0
  1  2  1  0  0  0  0
  1  6  2  0  0  0  0
  2  7  2  0  0  0  0
  3 10  2  0  0  0  0
  3 18  1  0  0  0  0
  4 11  1  0  0  0  0
  4 18  2  0  0  0  0
  5  9  2  0  0  0  0
  5 19  1  0  0  0  0
  6 22  1  0  0  0  0
  7 24  1  0  0  0  0
  8 12  2  0  0  0  0
  8 23  1  0  0  0  0
  9 26  1  0  0  0  0
 10 27  1  0  0  0  0
 11 27  2  0  0  0  0
 12 28  1  0  0  0  0
 13 14  2  0  0  0  0
 13 29  1  0  0  0  0
 14 30  1  0  0  0  0
 15 20  1  0  0  0  0
 15 26  2  0  0  0  0
 16 25  1  0  0  0  0
 16 28  2  0  0  0  0
 17 30  2  0  0  0  0
 17 31  1  0  0  0  0
 18 32  1  0  0  0  0
 19 20  2  0  0  0  0
 19 34  1  0  0  0  0
 20 35  1  0  0  0  0
 21 32  1  0  0  0  0
 21 33  2  0  0  0  0
 21 36  1  0  0  0  0
 22 24  2  0  0  0  0
 22 42  1  0  0  0  0
 23 25  2  0  0  0  0
 23 43  1  0  0  0  0
 24 51  1  0  0  0  0
 25 44  1  0  0  0  0
 26 71  1  0  0  0  0
 27 84  1  0  0  0  0
 28 85  1  0  0  0  0
 29 31  2  0  0  0  0
 29 84  1  0  0  0  0
 30 86  1  0  0  0  0
 31 87  1  0  0  0  0
 32 65  2  0  0  0  0
 33 66  1  0  0  0  0
 33 69  1  0  0  0  0
 34 60  1  0  0  0  0
 34 76  2  0  0  0  0
 35 54  1  0  0  0  0
 35 77  2  0  0  0  0
 36 70  1  0  0  0  0
 36 78  2  0  0  0  0
 37 52  1  0  0  0  0
 37 72  1  0  0  0  0
 37 79  2  0  0  0  0
 38 62  1  0  0  0  0
 38 67  1  0  0  0  0
 38 80  2  0  0  0  0
 39 61  1  0  0  0  0
 39 73  1  0  0  0  0
 39 81  2  0  0  0  0
 40 63  1  0  0  0  0
 40 74  1  0  0  0  0
 40 82  2  0  0  0  0
 41 68  1  0  0  0  0
 41 71  1  0  0  0  0
 41 83  2  0  0  0  0
 42 45  1  0  0  0  0
 43 52  1  0  0  0  0
 44 67  1  0  0  0  0
 45 47  1  0  0  0  0
 46 48  1  0  0  0  0
 46 49  1  0  0  0  0
 47 51  1  0  0  0  0
 48 53  1  0  0  0  0
 49 68  1  0  0  0  0
 50 53  1  0  0  0  0
 50 68  1  0  0  0  0
 51 72  1  0  0  0  0
 52 67  1  0  0  0  0
 53 66  1  0  0  0  0
 55 63  1  0  0  0  0
 56 64  1  0  0  0  0
 57 64  1  0  0  0  0
 58 64  1  0  0  0  0
 59 75  1  0  0  0  0
 60 73  1  0  0  0  0
 61 85  1  0  0  0  0
 62 64  1  0  0  0  0
 62 74  1  0  0  0  0
 63 75  1  0  0  0  0
 65 66  1  0  0  0  0
M  CHG  1  75   1
M  ISO  4  41 100  61 101  71 100  85 101
M  END
> <Batch ID>
0061

> <Smiles>
CNC(C)C(=O)NC(C(=O)N1Cc2cc([101O:1][101CH2:1]C(=O)NCC(=O)c3ccc([100NH:0][100C:0](=O)N4CCCC(n5nc(-c6ccc(Oc7ccc(F)cc7F)cc6)c(C(N)=O)c5N)C4)cc3C(C)=O)ccc2CC1C(=O)NC1CCCc2ccccc21)C(C)(C)C

> <Shape>
0.205

> <Color>
0.080

> <Negative vol penalty>
0.000

$$$$

  -OEChem-04042323073D

 81 89  0     1  0  0  0  0  0999 V2000
  -18.1832  -24.7349   24.9738 C   0  0  0  0  0  0  0  0  0  0  0  0
  -19.5321  -24.5468   24.6898 C   0  0  0  0  0  0  0  0  0  0  0  0
  -30.0674  -20.9521   20.1262 C   0  0  0  0  0  0  0  0  0  0  0  0
  -24.2782   -9.6281   21.3231 C   0  0  0  0  0  0  0  0  0  0  0  0
  -24.5866  -10.6342   23.4979 C   0  0  0  0  0  0  0  0  0  0  0  0
  -29.3262  -21.7072   21.0351 C   0  0  0  0  0  0  0  0  0  0  0  0
  -17.5447  -25.9078   24.5734 C   0  0  0  0  0  0  0  0  0  0  0  0
  -20.2429  -25.5312   24.0042 C   0  0  0  0  0  0  0  0  0  0  0  0
  -24.7757  -26.4474   26.0681 C   0  0  0  0  0  0  0  0  0  0  0  0
  -29.9851  -19.5598   20.1456 C   0  0  0  0  0  0  0  0  0  0  0  0
  -23.8348   -8.4529   21.9297 C   0  0  0  0  0  0  0  0  0  0  0  0
  -24.1432   -9.4590   24.1044 C   0  0  0  0  0  0  0  0  0  0  0  0
  -25.7943  -25.5343   25.7986 C   0  0  0  0  0  0  0  0  0  0  0  0
  -20.9936   -7.3069   23.3606 C   0  0  0  0  0  0  0  0  0  0  0  0
  -19.8544   -6.6965   22.8360 C   0  0  0  0  0  0  0  0  0  0  0  0
  -26.6726  -27.0207   24.1138 C   0  0  0  0  0  0  0  0  0  0  0  0
  -21.1365   -4.7021   22.3719 C   0  0  0  0  0  0  0  0  0  0  0  0
  -24.6541  -10.7187   22.1072 C   0  0  0  0  0  0  0  0  0  0  0  0
  -28.5029  -21.0701   21.9634 C   0  0  0  0  0  0  0  0  0  0  0  0
  -24.3293  -13.0327   21.0837 C   0  0  0  0  0  0  0  0  0  0  0  0
  -18.2504  -26.9113   23.8911 C   0  0  0  0  0  0  0  0  0  0  0  0
  -24.6914  -27.6511   25.3537 C   0  0  0  0  0  0  0  0  0  0  0  0
  -19.6129  -26.7181   23.5931 C   0  0  0  0  0  0  0  0  0  0  0  0
  -25.6535  -27.9484   24.3779 C   0  0  0  0  0  0  0  0  0  0  0  0
  -28.4207  -19.6777   21.9829 C   0  0  0  0  0  0  0  0  0  0  0  0
  -29.1618  -18.9226   21.0739 C   0  0  0  0  0  0  0  0  0  0  0  0
  -23.7673   -8.3684   23.3203 C   0  0  0  0  0  0  0  0  0  0  0  0
  -26.7413  -25.8196   24.8193 C   0  0  0  0  0  0  0  0  0  0  0  0
  -22.2044   -6.6148   23.3907 C   0  0  0  0  0  0  0  0  0  0  0  0
  -19.9258   -5.3942   22.3417 C   0  0  0  0  0  0  0  0  0  0  0  0
  -22.2758   -5.3125   22.8964 C   0  0  0  0  0  0  0  0  0  0  0  0
  -25.1128  -11.9328   21.4812 C   0  0  0  0  0  0  0  0  0  0  0  0
  -25.2300  -13.9196   20.5465 C   0  0  0  0  0  0  0  0  0  0  0  0
  -27.7349  -21.8986   22.9079 C   0  0  0  0  0  0  0  0  0  0  0  0
  -28.2662  -22.7366   23.8117 C   0  0  0  0  0  0  0  0  0  0  0  0
  -22.9138  -13.2347   21.1905 C   0  0  0  0  0  0  0  0  0  0  0  0
  -22.5443  -28.9600   23.4093 C   0  0  0  0  0  0  0  0  0  0  0  0
  -24.5373  -31.5147   23.5631 C   0  0  0  0  0  0  0  0  0  0  0  0
  -27.6852  -32.7034   24.1324 C   0  0  0  0  0  0  0  0  0  0  0  0
  -30.1003  -16.6137   20.7069 C   0  0  0  0  0  0  0  0  0  0  0  0
  -17.5058  -28.1417   23.4368 C   0  0  0  0  0  0  0  0  0  0  0  0
  -23.6022  -28.6374   25.6749 C   0  0  0  0  0  0  0  0  0  0  0  0
  -25.6193  -29.2358   23.5969 C   0  0  0  0  0  0  0  0  0  0  0  0
  -18.4219  -29.2979   23.0443 C   0  0  0  0  0  0  0  0  0  0  0  0
  -30.1081  -13.3301   19.3304 C   0  0  0  0  0  0  0  0  0  0  0  0
  -19.5509  -28.8031   22.1457 C   0  0  0  0  0  0  0  0  0  0  0  0
  -28.7447  -12.7643   19.7345 C   0  0  0  0  0  0  0  0  0  0  0  0
  -30.6997  -14.2189   20.4229 C   0  0  0  0  0  0  0  0  0  0  0  0
  -28.4540  -14.7282   21.2984 C   0  0  0  0  0  0  0  0  0  0  0  0
  -20.4240  -27.7735   22.8732 C   0  0  1  0  0  0  0  0  0  0  0  0
  -23.3130  -29.6023   24.5292 C   0  0  1  0  0  0  0  0  0  0  0  0
  -27.7886  -13.8787   20.2033 C   0  0  2  0  0  0  0  0  0  0  0  0
  -27.5384  -18.9863   22.9772 C   0  0  0  0  0  0  0  0  0  0  0  0
  -29.0147  -34.8317   24.1459 C   0  0  0  0  0  0  0  0  0  0  0  0
  -24.5944  -31.4956   20.5125 C   0  0  0  0  0  0  0  0  0  0  0  0
  -26.6172  -32.9675   20.6105 C   0  0  0  0  0  0  0  0  0  0  0  0
  -24.4458  -33.7713   21.5388 C   0  0  0  0  0  0  0  0  0  0  0  0
  -28.3390  -32.4131   27.0042 C   0  0  0  0  0  0  0  0  0  0  0  0
  -27.4444  -23.5485   24.7609 C   0  0  0  0  0  0  0  0  0  1  0  0
  -25.7369  -31.9838   22.7758 C   0  0  1  0  0  0  0  0  0  0  0  0
  -28.1874  -33.8618   24.9752 C   0  0  2  0  0  0  0  0  0  0  0  0
  -25.3484  -32.5294   21.3726 C   0  0  0  0  0  0  0  0  0  0  0  0
  -26.4113  -12.1030   21.2188 N   0  0  0  0  0  0  0  0  0  0  0  0
  -26.4507  -13.3202   20.6506 N   0  0  0  0  0  0  0  0  0  0  0  0
  -24.5312  -30.1652   23.9432 N   0  0  0  0  0  0  0  0  0  0  0  0
  -29.7398  -15.2538   20.8135 N   0  0  0  0  0  0  0  0  0  0  0  0
  -25.0891  -15.1459   19.9999 N   0  0  0  0  0  0  0  0  0  0  0  0
  -22.1362  -12.2221   21.7684 N   0  0  0  0  0  0  0  0  0  0  0  0
  -29.0952  -17.5072   21.0758 N   0  0  0  0  0  0  0  0  0  0  0  0
  -21.3251  -28.4346   23.7926 N   0  0  0  0  0  0  0  0  0  0  0  0
  -26.4282  -32.9502   23.6222 N   0  0  0  0  0  0  0  0  0  0  0  0
  -29.0340  -33.3596   26.0941 N   0  3  0  0  0  0  0  0  0  0  0  0
  -22.3532  -14.2753   20.7704 O   0  0  0  0  0  0  0  0  0  0  0  0
  -23.0214  -28.9435   22.2807 O   0  0  0  0  0  0  0  0  0  0  0  0
  -23.6421  -32.3180   23.8372 O   0  0  0  0  0  0  0  0  0  0  0  0
  -28.3439  -31.6833   23.9423 O   0  0  0  0  0  0  0  0  0  0  0  0
  -31.2088  -16.9606   20.2911 O   0  0  0  0  0  0  0  0  0  0  0  0
  -23.3344   -7.2218   23.9125 O   0  0  0  0  0  0  0  0  0  0  0  0
  -27.7361  -24.9299   24.5538 O   0  0  0  0  0  0  0  0  0  1  0  0
  -18.8313   -4.8077   21.8394 F   0  0  0  0  0  0  0  0  0  0  0  0
  -23.4359   -4.6422   22.9238 F   0  0  0  0  0  0  0  0  0  0  0  0
  1  2  1  0  0  0  0
  1  7  2  0  0  0  0
  2  8  2  0  0  0  0
  3  6  2  0  0  0  0
  3 10  1  0  0  0  0
  4 11  2  0  0  0  0
  4 18  1  0  0  0  0
  5 12  1  0  0  0  0
  5 18  2  0  0  0  0
  6 19  1  0  0  0  0
  7 21  1  0  0  0  0
  8 23  1  0  0  0  0
  9 13  2  0  0  0  0
  9 22  1  0  0  0  0
 10 26  2  0  0  0  0
 11 27  1  0  0  0  0
 12 27  2  0  0  0  0
 13 28  1  0  0  0  0
 14 15  2  0  0  0  0
 14 29  1  0  0  0  0
 15 30  1  0  0  0  0
 16 24  1  0  0  0  0
 16 28  2  0  0  0  0
 17 30  2  0  0  0  0
 17 31  1  0  0  0  0
 18 32  1  0  0  0  0
 19 25  2  0  0  0  0
 19 34  1  0  0  0  0
 20 32  1  0  0  0  0
 20 33  2  0  0  0  0
 20 36  1  0  0  0  0
 21 23  2  0  0  0  0
 21 41  1  0  0  0  0
 22 24  2  0  0  0  0
 22 42  1  0  0  0  0
 23 50  1  0  0  0  0
 24 43  1  0  0  0  0
 25 26  1  0  0  0  0
 25 53  1  0  0  0  0
 26 69  1  0  0  0  0
 27 78  1  0  0  0  0
 28 79  1  0  0  0  0
 29 31  2  0  0  0  0
 29 78  1  0  0  0  0
 30 80  1  0  0  0  0
 31 81  1  0  0  0  0
 32 63  2  0  0  0  0
 33 64  1  0  0  0  0
 33 67  1  0  0  0  0
 34 35  2  0  0  0  0
 35 59  1  0  0  0  0
 36 68  1  0  0  0  0
 36 73  2  0  0  0  0
 37 51  1  0  0  0  0
 37 70  1  0  0  0  0
 37 74  2  0  0  0  0
 38 60  1  0  0  0  0
 38 65  1  0  0  0  0
 38 75  2  0  0  0  0
 39 61  1  0  0  0  0
 39 71  1  0  0  0  0
 39 76  2  0  0  0  0
 40 66  1  0  0  0  0
 40 69  1  0  0  0  0
 40 77  2  0  0  0  0
 41 44  1  0  0  0  0
 42 51  1  0  0  0  0
 43 65  1  0  0  0  0
 44 46  1  0  0  0  0
 45 47  1  0  0  0  0
 45 48  1  0  0  0  0
 46 50  1  0  0  0  0
 47 52  1  0  0  0  0
 48 66  1  0  0  0  0
 49 52  1  0  0  0  0
 49 66  1  0  0  0  0
 50 70  1  0  0  0  0
 51 65  1  0  0  0  0
 52 64  1  0  0  0  0
 54 61  1  0  0  0  0
 55 62  1  0  0  0  0
 56 62  1  0  0  0  0
 57 62  1  0  0  0  0
 58 72  1  0  0  0  0
 59 79  1  0  0  0  0
 60 62  1  0  0  0  0
 60 71  1  0  0  0  0
 61 72  1  0  0  0  0
 63 64  1  0  0  0  0
M  CHG  1  72   1
M  ISO  4  40 100  59 101  69 100  79 101
M  END
> <Batch ID>
0061

> <Smiles>
CNC(C)C(=O)NC(C(=O)N1Cc2cc([101O:1][101CH2:1]C=Cc3cccc([100NH:0][100C:0](=O)N4CCCC(n5nc(-c6ccc(Oc7ccc(F)cc7F)cc6)c(C(N)=O)c5N)C4)c3C)ccc2CC1C(=O)NC1CCCc2ccccc21)C(C)(C)C

> <Shape>
0.296

> <Color>
0.149

> <Negative vol penalty>
0.000

$$$$

  -OEChem-04042323073D

 85 93  0     1  0  0  0  0  0999 V2000
  -21.2869  -30.4525   14.5406 C   0  0  0  0  0  0  0  0  0  0  0  0
  -22.4691  -29.9337   15.0591 C   0  0  0  0  0  0  0  0  0  0  0  0
  -23.5029   -9.3171   20.1552 C   0  0  0  0  0  0  0  0  0  0  0  0
  -23.3012  -10.9309   21.9419 C   0  0  0  0  0  0  0  0  0  0  0  0
  -20.7773  -31.6521   15.0356 C   0  0  0  0  0  0  0  0  0  0  0  0
  -23.1429  -30.6149   16.0721 C   0  0  0  0  0  0  0  0  0  0  0  0
  -24.6958  -27.5379   19.7823 C   0  0  0  0  0  0  0  0  0  0  0  0
  -28.9434  -18.4869   19.5140 C   0  0  0  0  0  0  0  0  0  0  0  0
  -22.6535   -8.4500   20.8424 C   0  0  0  0  0  0  0  0  0  0  0  0
  -22.4518  -10.0638   22.6291 C   0  0  0  0  0  0  0  0  0  0  0  0
  -25.8398  -26.7780   19.5424 C   0  0  0  0  0  0  0  0  0  0  0  0
  -22.7401   -7.2992   24.5540 C   0  0  0  0  0  0  0  0  0  0  0  0
  -22.9626   -7.1210   25.9194 C   0  0  0  0  0  0  0  0  0  0  0  0
  -29.1794  -19.8447   19.7287 C   0  0  0  0  0  0  0  0  0  0  0  0
  -27.1488  -28.3596   20.8090 C   0  0  0  0  0  0  0  0  0  0  0  0
  -31.1293  -17.9665   20.4017 C   0  0  0  0  0  0  0  0  0  0  0  0
  -20.7417   -7.9481   26.3891 C   0  0  0  0  0  0  0  0  0  0  0  0
  -23.8267  -10.5576   20.7050 C   0  0  0  0  0  0  0  0  0  0  0  0
  -24.3376  -12.4414   19.0624 C   0  0  0  0  0  0  0  0  0  0  0  0
  -21.4401  -32.3435   16.0619 C   0  0  0  0  0  0  0  0  0  0  0  0
  -24.7718  -28.7222   20.5295 C   0  0  0  0  0  0  0  0  0  0  0  0
  -22.6424  -31.8256   16.5804 C   0  0  0  0  0  0  0  0  0  0  0  0
  -26.0039  -29.1314   21.0592 C   0  0  0  0  0  0  0  0  0  0  0  0
  -31.3654  -19.3244   20.6163 C   0  0  0  0  0  0  0  0  0  0  0  0
  -29.9183  -17.5477   19.8505 C   0  0  0  0  0  0  0  0  0  0  0  0
  -22.1279   -8.8233   22.0794 C   0  0  0  0  0  0  0  0  0  0  0  0
  -27.0671  -27.1903   20.0532 C   0  0  0  0  0  0  0  0  0  0  0  0
  -21.5185   -7.8020   24.1061 C   0  0  0  0  0  0  0  0  0  0  0  0
  -21.9634   -7.4454   26.8370 C   0  0  0  0  0  0  0  0  0  0  0  0
  -20.5193   -8.1264   25.0237 C   0  0  0  0  0  0  0  0  0  0  0  0
  -30.3904  -20.2635   20.2798 C   0  0  0  0  0  0  0  0  0  0  0  0
  -24.7045  -11.4535   19.9958 C   0  0  0  0  0  0  0  0  0  0  0  0
  -25.5271  -13.0128   18.6817 C   0  0  0  0  0  0  0  0  0  0  0  0
  -23.0377  -12.8096   18.5825 C   0  0  0  0  0  0  0  0  0  0  0  0
  -24.1870  -31.7898   19.9369 C   0  0  0  0  0  0  0  0  0  0  0  0
  -29.2515  -24.2943   20.1127 C   0  0  0  0  0  0  0  0  0  0  0  0
  -24.7660  -32.1114   23.1124 C   0  0  0  0  0  0  0  0  0  0  0  0
  -26.2596  -30.8824   25.9240 C   0  0  0  0  0  0  0  0  0  0  0  0
  -30.5382  -15.1067   19.9093 C   0  0  0  0  0  0  0  0  0  0  0  0
  -20.8758  -33.6608   16.5320 C   0  0  0  0  0  0  0  0  0  0  0  0
  -23.5240  -29.5165   20.8021 C   0  0  0  0  0  0  0  0  0  0  0  0
  -26.1354  -30.3842   21.8848 C   0  0  0  0  0  0  0  0  0  0  0  0
  -21.4522  -34.1292   17.8656 C   0  0  0  0  0  0  0  0  0  0  0  0
  -30.3010  -11.5722   19.5516 C   0  0  0  0  0  0  0  0  0  0  0  0
  -22.9710  -33.9878   17.8699 C   0  0  0  0  0  0  0  0  0  0  0  0
  -28.7936  -11.3075   19.5585 C   0  0  0  0  0  0  0  0  0  0  0  0
  -30.6832  -12.6996   20.5090 C   0  0  0  0  0  0  0  0  0  0  0  0
  -28.4339  -13.6880   20.3272 C   0  0  0  0  0  0  0  0  0  0  0  0
  -23.3892  -32.5226   17.6969 C   0  0  1  0  0  0  0  0  0  0  0  0
  -23.8074  -30.9765   21.1419 C   0  0  1  0  0  0  0  0  0  0  0  0
  -27.9927  -12.6043   19.3298 C   0  0  2  0  0  0  0  0  0  0  0  0
  -32.6726  -19.7401   21.2076 C   0  0  0  0  0  0  0  0  0  0  0  0
  -26.5863  -31.3844   28.3609 C   0  0  0  0  0  0  0  0  0  0  0  0
  -26.8206  -34.2497   22.3939 C   0  0  0  0  0  0  0  0  0  0  0  0
  -27.7592  -34.0250   24.7040 C   0  0  0  0  0  0  0  0  0  0  0  0
  -25.4061  -34.7891   24.3846 C   0  0  0  0  0  0  0  0  0  0  0  0
  -24.9059  -28.3803   26.7401 C   0  0  0  0  0  0  0  0  0  0  0  0
  -28.0120  -25.0430   19.6632 C   0  0  0  0  0  0  0  0  0  1  0  0
  -29.1880  -22.7913   19.9790 C   0  0  0  0  0  0  0  0  0  0  0  0
  -25.9921  -32.3675   23.9549 C   0  0  1  0  0  0  0  0  0  0  0  0
  -25.7324  -30.6622   27.3304 C   0  0  2  0  0  0  0  0  0  0  0  0
  -26.4927  -33.8352   23.8422 C   0  0  0  0  0  0  0  0  0  0  0  0
  -26.0240  -11.3978   20.1957 N   0  0  0  0  0  0  0  0  0  0  0  0
  -31.8000  -22.3823   19.5676 N   0  0  0  0  0  0  0  0  0  0  0  0
  -26.4965  -12.3578   19.3826 N   0  0  0  0  0  0  0  0  0  0  0  0
  -24.8878  -31.1301   22.1183 N   0  0  0  0  0  0  0  0  0  0  0  0
  -29.8871  -13.8969   20.2303 N   0  0  0  0  0  0  0  0  0  0  0  0
  -25.8280  -14.0066   17.8190 N   0  0  0  0  0  0  0  0  0  0  0  0
  -21.9225  -12.1203   19.0781 N   0  0  0  0  0  0  0  0  0  0  0  0
  -29.6779  -16.1686   19.6320 N   0  0  0  0  0  0  0  0  0  0  0  0
  -23.2289  -31.8010   18.9411 N   0  0  0  0  0  0  0  0  0  0  0  0
  -25.6483  -31.9560   25.3117 N   0  0  0  0  0  0  0  0  0  0  0  0
  -25.7270  -29.2088   27.6600 N   0  3  0  0  0  0  0  0  0  0  0  0
  -22.8714  -13.7117   17.7268 O   0  0  0  0  0  0  0  0  0  0  0  0
  -25.2683  -32.3658   19.9129 O   0  0  0  0  0  0  0  0  0  0  0  0
  -30.2364  -24.8836   20.5546 O   0  0  0  0  0  0  0  0  0  0  0  0
  -23.7358  -32.7531   23.3329 O   0  0  0  0  0  0  0  0  0  0  0  0
  -27.1295  -30.1752   25.4204 O   0  0  0  0  0  0  0  0  0  0  0  0
  -31.7681  -15.1875   19.8559 O   0  0  0  0  0  0  0  0  0  0  0  0
  -30.6863  -22.1969   21.9820 O   0  0  0  0  0  0  0  0  0  0  0  0
  -21.2989   -7.9776   22.7502 O   0  0  0  0  0  0  0  0  0  0  0  0
  -28.1853  -26.4507   19.8199 O   0  0  0  0  0  0  0  0  0  1  0  0
  -22.1766   -7.2728   28.1480 F   0  0  0  0  0  0  0  0  0  0  0  0
  -19.3432   -8.6086   24.5994 F   0  0  0  0  0  0  0  0  0  0  0  0
  -30.6572  -21.9998   20.5389 S   0  0  2  0  0  0  0  0  0  0  0  0
  1  2  1  0  0  0  0
  1  5  2  0  0  0  0
  2  6  2  0  0  0  0
  3  9  2  0  0  0  0
  3 18  1  0  0  0  0
  4 10  1  0  0  0  0
  4 18  2  0  0  0  0
  5 20  1  0  0  0  0
  6 22  1  0  0  0  0
  7 11  2  0  0  0  0
  7 21  1  0  0  0  0
  8 14  2  0  0  0  0
  8 25  1  0  0  0  0
  9 26  1  0  0  0  0
 10 26  2  0  0  0  0
 11 27  1  0  0  0  0
 12 13  2  0  0  0  0
 12 28  1  0  0  0  0
 13 29  1  0  0  0  0
 14 31  1  0  0  0  0
 15 23  1  0  0  0  0
 15 27  2  0  0  0  0
 16 24  1  0  0  0  0
 16 25  2  0  0  0  0
 17 29  2  0  0  0  0
 17 30  1  0  0  0  0
 18 32  1  0  0  0  0
 19 32  1  0  0  0  0
 19 33  2  0  0  0  0
 19 34  1  0  0  0  0
 20 22  2  0  0  0  0
 20 40  1  0  0  0  0
 21 23  2  0  0  0  0
 21 41  1  0  0  0  0
 22 49  1  0  0  0  0
 23 42  1  0  0  0  0
 24 31  2  0  0  0  0
 24 52  1  0  0  0  0
 25 70  1  0  0  0  0
 26 81  1  0  0  0  0
 27 82  1  0  0  0  0
 28 30  2  0  0  0  0
 28 81  1  0  0  0  0
 29 83  1  0  0  0  0
 30 84  1  0  0  0  0
 31 85  1  0  0  0  0
 32 63  2  0  0  0  0
 33 65  1  0  0  0  0
 33 68  1  0  0  0  0
 34 69  1  0  0  0  0
 34 74  2  0  0  0  0
 35 50  1  0  0  0  0
 35 71  1  0  0  0  0
 35 75  2  0  0  0  0
 36 58  1  0  0  0  0
 36 59  1  0  0  0  0
 36 76  2  0  0  0  0
 37 60  1  0  0  0  0
 37 66  1  0  0  0  0
 37 77  2  0  0  0  0
 38 61  1  0  0  0  0
 38 72  1  0  0  0  0
 38 78  2  0  0  0  0
 39 67  1  0  0  0  0
 39 70  1  0  0  0  0
 39 79  2  0  0  0  0
 40 43  1  0  0  0  0
 41 50  1  0  0  0  0
 42 66  1  0  0  0  0
 43 45  1  0  0  0  0
 44 46  1  0  0  0  0
 44 47  1  0  0  0  0
 45 49  1  0  0  0  0
 46 51  1  0  0  0  0
 47 67  1  0  0  0  0
 48 51  1  0  0  0  0
 48 67  1  0  0  0  0
 49 71  1  0  0  0  0
 50 66  1  0  0  0  0
 51 65  1  0  0  0  0
 53 61  1  0  0  0  0
 54 62  1  0  0  0  0
 55 62  1  0  0  0  0
 56 62  1  0  0  0  0
 57 73  1  0  0  0  0
 58 82  1  0  0  0  0
 59 85  1  0  0  0  0
 60 62  1  0  0  0  0
 60 72  1  0  0  0  0
 61 73  1  0  0  0  0
 63 65  1  0  0  0  0
 64 85  2  0  0  0  0
 80 85  2  0  0  0  0
M  CHG  1  73   1
M  ISO  4  39 100  58 101  70 100  82 101
M  END
> <Batch ID>
0061

> <Smiles>
CNC(C)C(=O)NC(C(=O)N1Cc2cc([101O:1][101CH2:1]C(=O)CS(=N)(=O)c3ccc([100NH:0][100C:0](=O)N4CCCC(n5nc(-c6ccc(Oc7ccc(F)cc7F)cc6)c(C(N)=O)c5N)C4)cc3C)ccc2CC1C(=O)NC1CCCc2ccccc21)C(C)(C)C

> <Shape>
0.299

> <Color>
0.135

> <Negative vol penalty>
0.000

$$$$

  -OEChem-04042323073D

 85 93  0     1  0  0  0  0  0999 V2000
  -27.6666  -32.2810   22.6704 C   0  0  0  0  0  0  0  0  0  0  0  0
  -27.9021  -31.0532   23.2807 C   0  0  0  0  0  0  0  0  0  0  0  0
  -23.2297   -9.6680   20.7285 C   0  0  0  0  0  0  0  0  0  0  0  0
  -23.8753  -10.3075   22.9671 C   0  0  0  0  0  0  0  0  0  0  0  0
  -30.0166  -19.3152   22.7522 C   0  0  0  0  0  0  0  0  0  0  0  0
  -26.5959  -32.4262   21.7893 C   0  0  0  0  0  0  0  0  0  0  0  0
  -27.0662  -29.9701   23.0110 C   0  0  0  0  0  0  0  0  0  0  0  0
  -29.6406  -25.6891   22.1804 C   0  0  0  0  0  0  0  0  0  0  0  0
  -29.5159  -18.1960   22.0873 C   0  0  0  0  0  0  0  0  0  0  0  0
  -22.5275   -8.5778   21.2424 C   0  0  0  0  0  0  0  0  0  0  0  0
  -23.1731   -9.2173   23.4810 C   0  0  0  0  0  0  0  0  0  0  0  0
  -30.1377  -25.0182   23.2969 C   0  0  0  0  0  0  0  0  0  0  0  0
  -21.2513   -6.8085   25.4104 C   0  0  0  0  0  0  0  0  0  0  0  0
  -20.4414   -7.0249   26.5251 C   0  0  0  0  0  0  0  0  0  0  0  0
  -28.2787  -23.4842   23.1952 C   0  0  0  0  0  0  0  0  0  0  0  0
  -31.7632  -17.3510   21.8174 C   0  0  0  0  0  0  0  0  0  0  0  0
  -19.1475   -8.6354   25.2724 C   0  0  0  0  0  0  0  0  0  0  0  0
  -23.9036  -10.5328   21.5908 C   0  0  0  0  0  0  0  0  0  0  0  0
  -31.3906  -19.4524   22.9497 C   0  0  0  0  0  0  0  0  0  0  0  0
  -24.1360  -12.9573   20.8322 C   0  0  0  0  0  0  0  0  0  0  0  0
  -25.7523  -31.3418   21.5012 C   0  0  0  0  0  0  0  0  0  0  0  0
  -28.4510  -25.2685   21.5684 C   0  0  0  0  0  0  0  0  0  0  0  0
  -25.9824  -30.1013   22.1262 C   0  0  0  0  0  0  0  0  0  0  0  0
  -27.7700  -24.1499   22.0695 C   0  0  0  0  0  0  0  0  0  0  0  0
  -32.2639  -18.4703   22.4823 C   0  0  0  0  0  0  0  0  0  0  0  0
  -30.3892  -17.2138   21.6199 C   0  0  0  0  0  0  0  0  0  0  0  0
  -22.4992   -8.3525   22.6186 C   0  0  0  0  0  0  0  0  0  0  0  0
  -29.4552  -23.9173   23.8062 C   0  0  0  0  0  0  0  0  0  0  0  0
  -21.0094   -7.5055   24.2266 C   0  0  0  0  0  0  0  0  0  0  0  0
  -19.3895   -7.9384   26.4562 C   0  0  0  0  0  0  0  0  0  0  0  0
  -19.9575   -8.4190   24.1576 C   0  0  0  0  0  0  0  0  0  0  0  0
  -24.6296  -11.6588   21.0605 C   0  0  0  0  0  0  0  0  0  0  0  0
  -25.2095  -13.6485   20.3260 C   0  0  0  0  0  0  0  0  0  0  0  0
  -31.8960  -20.6551   23.6605 C   0  0  0  0  0  0  0  0  0  0  0  0
  -22.8245  -13.4909   21.0575 C   0  0  0  0  0  0  0  0  0  0  0  0
  -25.6003  -26.5821   21.0671 C   0  0  0  0  0  0  0  0  0  0  0  0
  -25.0848  -23.8723   19.3601 C   0  0  0  0  0  0  0  0  0  0  0  0
  -25.8907  -20.6038   18.7998 C   0  0  0  0  0  0  0  0  0  0  0  0
  -30.6076  -15.0108   20.4177 C   0  0  0  0  0  0  0  0  0  0  0  0
  -24.5794  -31.5597   20.5784 C   0  0  0  0  0  0  0  0  0  0  0  0
  -27.9423  -25.9866   20.3486 C   0  0  0  0  0  0  0  0  0  0  0  0
  -26.4995  -23.6459   21.4368 C   0  0  0  0  0  0  0  0  0  0  0  0
  -23.9648  -30.2629   20.0579 C   0  0  0  0  0  0  0  0  0  0  0  0
  -29.7210  -12.0102   18.7185 C   0  0  0  0  0  0  0  0  0  0  0  0
  -23.7708  -29.2687   21.1983 C   0  0  0  0  0  0  0  0  0  0  0  0
  -28.2768  -11.7581   19.1576 C   0  0  0  0  0  0  0  0  0  0  0  0
  -30.5649  -12.5916   19.8514 C   0  0  0  0  0  0  0  0  0  0  0  0
  -28.5617  -13.5381   20.9288 C   0  0  0  0  0  0  0  0  0  0  0  0
  -25.1128  -28.8963   21.8400 C   0  0  1  0  0  0  0  0  0  0  0  0
  -26.4481  -25.7851   20.1164 C   0  0  1  0  0  0  0  0  0  0  0  0
  -27.6566  -13.0131   19.8024 C   0  0  2  0  0  0  0  0  0  0  0  0
  -33.7397  -18.5933   22.6794 C   0  0  0  0  0  0  0  0  0  0  0  0
  -25.2717  -18.6404   17.3648 C   0  0  0  0  0  0  0  0  0  0  0  0
  -22.5668  -23.4483   21.0305 C   0  0  0  0  0  0  0  0  0  0  0  0
  -22.5261  -21.0733   20.2395 C   0  0  0  0  0  0  0  0  0  0  0  0
  -22.3025  -22.9371   18.5967 C   0  0  0  0  0  0  0  0  0  0  0  0
  -31.1287  -21.8483   27.1345 C   0  0  0  0  0  0  0  0  0  0  0  0
  -33.3372  -21.9503   25.9525 C   0  0  0  0  0  0  0  0  0  0  0  0
  -28.6080  -20.4488   17.6376 C   0  0  0  0  0  0  0  0  0  0  0  0
  -31.3527  -23.2628   25.0817 C   0  0  0  0  0  0  0  0  0  1  0  0
  -24.5470  -22.4971   19.6741 C   0  0  1  0  0  0  0  0  0  0  0  0
  -26.1873  -19.8447   17.5190 C   0  0  2  0  0  0  0  0  0  0  0  0
  -23.0085  -22.4994   19.8985 C   0  0  0  0  0  0  0  0  0  0  0  0
  -31.8145  -21.9642   25.7666 C   0  0  0  0  0  0  0  0  0  0  0  0
  -25.9164  -11.5302   20.7267 N   0  0  0  0  0  0  0  0  0  0  0  0
  -26.2406  -12.7567   20.2833 N   0  0  0  0  0  0  0  0  0  0  0  0
  -26.0390  -24.3855   20.2500 N   0  0  0  0  0  0  0  0  0  0  0  0
  -29.9175  -13.7802   20.4110 N   0  0  0  0  0  0  0  0  0  0  0  0
  -25.3627  -14.9261   19.9176 N   0  0  0  0  0  0  0  0  0  0  0  0
  -21.8395  -12.6434   21.5829 N   0  0  0  0  0  0  0  0  0  0  0  0
  -29.8796  -16.0772   20.9446 N   0  0  0  0  0  0  0  0  0  0  0  0
  -31.4315  -20.8240   24.9504 N   0  0  0  0  0  0  0  0  0  0  0  0
  -25.8223  -27.9448   21.0119 N   0  0  0  0  0  0  0  0  0  0  0  0
  -24.9914  -21.6277   18.5900 N   0  0  0  0  0  0  0  0  0  0  0  0
  -27.5985  -19.3657   17.5159 N   0  3  0  0  0  0  0  0  0  0  0  0
  -32.6581  -21.4211   23.0766 O   0  0  0  0  0  0  0  0  0  0  0  0
  -22.5301  -14.6795   20.7852 O   0  0  0  0  0  0  0  0  0  0  0  0
  -24.8027  -26.0036   21.7957 O   0  0  0  0  0  0  0  0  0  0  0  0
  -24.6786  -24.4663   18.3582 O   0  0  0  0  0  0  0  0  0  0  0  0
  -26.4024  -20.3147   19.8792 O   0  0  0  0  0  0  0  0  0  0  0  0
  -31.7494  -15.1171   19.9628 O   0  0  0  0  0  0  0  0  0  0  0  0
  -21.8139   -7.2889   23.1205 O   0  0  0  0  0  0  0  0  0  0  0  0
  -29.9378  -23.2610   24.8963 O   0  0  0  0  0  0  0  0  0  1  0  0
  -18.6108   -8.1450   27.5263 F   0  0  0  0  0  0  0  0  0  0  0  0
  -19.7195   -9.0907   23.0227 F   0  0  0  0  0  0  0  0  0  0  0  0
  1  2  1  0  0  0  0
  1  6  2  0  0  0  0
  2  7  2  0  0  0  0
  3 10  2  0  0  0  0
  3 18  1  0  0  0  0
  4 11  1  0  0  0  0
  4 18  2  0  0  0  0
  5  9  2  0  0  0  0
  5 19  1  0  0  0  0
  6 21  1  0  0  0  0
  7 23  1  0  0  0  0
  8 12  2  0  0  0  0
  8 22  1  0  0  0  0
  9 26  1  0  0  0  0
 10 27  1  0  0  0  0
 11 27  2  0  0  0  0
 12 28  1  0  0  0  0
 13 14  2  0  0  0  0
 13 29  1  0  0  0  0
 14 30  1  0  0  0  0
 15 24  1  0  0  0  0
 15 28  2  0  0  0  0
 16 25  1  0  0  0  0
 16 26  2  0  0  0  0
 17 30  2  0  0  0  0
 17 31  1  0  0  0  0
 18 32  1  0  0  0  0
 19 25  2  0  0  0  0
 19 34  1  0  0  0  0
 20 32  1  0  0  0  0
 20 33  2  0  0  0  0
 20 35  1  0  0  0  0
 21 23  2  0  0  0  0
 21 40  1  0  0  0  0
 22 24  2  0  0  0  0
 22 41  1  0  0  0  0
 23 49  1  0  0  0  0
 24 42  1  0  0  0  0
 25 52  1  0  0  0  0
 26 71  1  0  0  0  0
 27 82  1  0  0  0  0
 28 83  1  0  0  0  0
 29 31  2  0  0  0  0
 29 82  1  0  0  0  0
 30 84  1  0  0  0  0
 31 85  1  0  0  0  0
 32 65  2  0  0  0  0
 33 66  1  0  0  0  0
 33 69  1  0  0  0  0
 34 72  1  0  0  0  0
 34 76  2  0  0  0  0
 35 70  1  0  0  0  0
 35 77  2  0  0  0  0
 36 50  1  0  0  0  0
 36 73  1  0  0  0  0
 36 78  2  0  0  0  0
 37 61  1  0  0  0  0
 37 67  1  0  0  0  0
 37 79  2  0  0  0  0
 38 62  1  0  0  0  0
 38 74  1  0  0  0  0
 38 80  2  0  0  0  0
 39 68  1  0  0  0  0
 39 71  1  0  0  0  0
 39 81  2  0  0  0  0
 40 43  1  0  0  0  0
 41 50  1  0  0  0  0
 42 67  1  0  0  0  0
 43 45  1  0  0  0  0
 44 46  1  0  0  0  0
 44 47  1  0  0  0  0
 45 49  1  0  0  0  0
 46 51  1  0  0  0  0
 47 68  1  0  0  0  0
 48 51  1  0  0  0  0
 48 68  1  0  0  0  0
 49 73  1  0  0  0  0
 50 67  1  0  0  0  0
 51 66  1  0  0  0  0
 53 62  1  0  0  0  0
 54 63  1  0  0  0  0
 55 63  1  0  0  0  0
 56 63  1  0  0  0  0
 57 64  1  0  0  0  0
 58 64  1  0  0  0  0
 59 75  1  0  0  0  0
 60 64  1  0  0  0  0
 60 83  1  0  0  0  0
 61 63  1  0  0  0  0
 61 74  1  0  0  0  0
 62 75  1  0  0  0  0
 64 72  1  0  0  0  0
 65 66  1  0  0  0  0
M  CHG  1  75   1
M  ISO  4  39 100  60 101  71 100  83 101
M  END
> <Batch ID>
0061

> <Smiles>
CNC(C)C(=O)NC(C(=O)N1Cc2cc([101O:1][101CH2:1]C(C)(C)NC(=O)c3ccc([100NH:0][100C:0](=O)N4CCCC(n5nc(-c6ccc(Oc7ccc(F)cc7F)cc6)c(C(N)=O)c5N)C4)cc3C)ccc2CC1C(=O)NC1CCCc2ccccc21)C(C)(C)C

> <Shape>
0.231

> <Color>
0.170

> <Negative vol penalty>
0.000

$$$$

  -OEChem-04042323073D

 89 98  0     1  0  0  0  0  0999 V2000
  -33.7616  -11.4813   17.6543 C   0  0  0  0  0  0  0  0  0  0  0  0
  -33.3954  -12.7403   18.1193 C   0  0  0  0  0  0  0  0  0  0  0  0
  -24.7238  -31.7080   20.4776 C   0  0  0  0  0  0  0  0  0  0  0  0
  -25.1800  -29.6064   21.5786 C   0  0  0  0  0  0  0  0  0  0  0  0
  -32.7957  -10.6276   17.1230 C   0  0  0  0  0  0  0  0  0  0  0  0
  -32.0632  -13.1467   18.0523 C   0  0  0  0  0  0  0  0  0  0  0  0
  -29.0899  -16.6927   22.0637 C   0  0  0  0  0  0  0  0  0  0  0  0
  -27.9661  -24.7671   15.7617 C   0  0  0  0  0  0  0  0  0  0  0  0
  -28.7315  -25.8148   16.2735 C   0  0  0  0  0  0  0  0  0  0  0  0
  -23.4239  -31.2826   20.2041 C   0  0  0  0  0  0  0  0  0  0  0  0
  -23.8801  -29.1810   21.3051 C   0  0  0  0  0  0  0  0  0  0  0  0
  -28.7858  -18.0533   22.0675 C   0  0  0  0  0  0  0  0  0  0  0  0
  -20.7822  -29.6787   22.5605 C   0  0  0  0  0  0  0  0  0  0  0  0
  -20.0738  -29.0609   23.5911 C   0  0  0  0  0  0  0  0  0  0  0  0
  -26.6047  -17.5622   21.1616 C   0  0  0  0  0  0  0  0  0  0  0  0
  -27.7742  -25.4455   18.4609 C   0  0  0  0  0  0  0  0  0  0  0  0
  -19.8600  -27.0644   22.2474 C   0  0  0  0  0  0  0  0  0  0  0  0
  -25.6019  -30.8699   21.1648 C   0  0  0  0  0  0  0  0  0  0  0  0
  -27.3313  -32.4325   22.2017 C   0  0  0  0  0  0  0  0  0  0  0  0
  -31.4494  -11.0200   17.0583 C   0  0  0  0  0  0  0  0  0  0  0  0
  -28.1562  -15.7560   21.5978 C   0  0  0  0  0  0  0  0  0  0  0  0
  -31.0786  -12.2980   17.5184 C   0  0  0  0  0  0  0  0  0  0  0  0
  -26.8984  -16.1900   21.1553 C   0  0  0  0  0  0  0  0  0  0  0  0
  -27.1047  -24.0586   16.5994 C   0  0  0  0  0  0  0  0  0  0  0  0
  -27.0088  -24.3978   17.9490 C   0  0  0  0  0  0  0  0  0  0  0  0
  -28.6356  -26.1540   17.6231 C   0  0  0  0  0  0  0  0  0  0  0  0
  -23.0020  -30.0191   20.6179 C   0  0  0  0  0  0  0  0  0  0  0  0
  -27.5441  -18.4885   21.6137 C   0  0  0  0  0  0  0  0  0  0  0  0
  -21.0294  -28.9894   21.3733 C   0  0  0  0  0  0  0  0  0  0  0  0
  -19.6127  -27.7538   23.4346 C   0  0  0  0  0  0  0  0  0  0  0  0
  -20.5683  -27.6823   21.2168 C   0  0  0  0  0  0  0  0  0  0  0  0
  -26.9451  -31.3086   21.4471 C   0  0  0  0  0  0  0  0  0  0  0  0
  -28.7043  -32.4101   22.1728 C   0  0  0  0  0  0  0  0  0  0  0  0
  -26.1444  -24.6632   21.0789 C   0  0  0  0  0  0  0  0  0  0  0  0
  -27.4089  -22.4802   20.5325 C   0  0  0  0  0  0  0  0  0  0  0  0
  -26.5215  -33.4093   22.8693 C   0  0  0  0  0  0  0  0  0  0  0  0
  -28.0893  -13.6472   19.2204 C   0  0  0  0  0  0  0  0  0  0  0  0
  -25.2898  -12.7646   20.6010 C   0  0  0  0  0  0  0  0  0  0  0  0
  -22.6399  -13.6130   22.5772 C   0  0  0  0  0  0  0  0  0  0  0  0
  -29.4466  -27.6908   19.4588 C   0  0  0  0  0  0  0  0  0  0  0  0
  -30.4489  -10.0811   16.4322 C   0  0  0  0  0  0  0  0  0  0  0  0
  -28.4897  -14.2895   21.6251 C   0  0  0  0  0  0  0  0  0  0  0  0
  -25.8535  -15.2230   20.6640 C   0  0  0  0  0  0  0  0  0  0  0  0
  -26.9680  -24.9491   22.3023 C   0  0  0  0  0  0  0  0  0  0  0  0
  -28.9983  -10.4424   16.7414 C   0  0  0  0  0  0  0  0  0  0  0  0
  -31.9163  -30.6220   19.0405 C   0  0  0  0  0  0  0  0  0  0  0  0
  -28.7651  -11.9361   16.5375 C   0  0  0  0  0  0  0  0  0  0  0  0
  -30.9966  -31.5395   19.8363 C   0  0  0  0  0  0  0  0  0  0  0  0
  -31.1620  -29.3711   18.5980 C   0  0  0  0  0  0  0  0  0  0  0  0
  -30.5360  -29.2975   21.0135 C   0  0  0  0  0  0  0  0  0  0  0  0
  -26.5114  -22.2915   22.9262 C   0  0  0  0  0  0  0  0  0  0  0  0
  -29.6397  -12.7654   17.4855 C   0  0  1  0  0  0  0  0  0  0  0  0
  -27.7260  -22.1513   22.0026 C   0  0  1  0  0  0  0  0  0  0  0  0
  -27.6545  -13.4685   20.6475 C   0  0  1  0  0  0  0  0  0  0  0  0
  -30.4442  -30.8352   21.0917 C   0  0  2  0  0  0  0  0  0  0  0  0
  -26.2947  -22.9413   16.0283 C   0  0  0  0  0  0  0  0  0  0  0  0
  -20.4914  -12.6945   23.4923 C   0  0  0  0  0  0  0  0  0  0  0  0
  -23.9720  -13.1376   17.8745 C   0  0  0  0  0  0  0  0  0  0  0  0
  -21.7496  -13.1447   19.0273 C   0  0  0  0  0  0  0  0  0  0  0  0
  -23.2033  -11.1206   19.1375 C   0  0  0  0  0  0  0  0  0  0  0  0
  -23.5613  -13.9264   25.3721 C   0  0  0  0  0  0  0  0  0  0  0  0
  -26.0901  -23.6480   18.8699 C   0  0  0  0  0  0  0  0  0  0  0  0
  -28.2501  -20.7076   22.0965 C   0  0  0  0  0  0  0  0  0  1  0  0
  -23.8465  -13.1817   20.4529 C   0  0  1  0  0  0  0  0  0  0  0  0
  -21.9787  -12.8936   23.7389 C   0  0  2  0  0  0  0  0  0  0  0  0
  -23.2130  -12.6648   19.1304 C   0  0  0  0  0  0  0  0  0  0  0  0
  -27.9884  -30.6223   20.9732 N   0  0  0  0  0  0  0  0  0  0  0  0
  -29.0438  -31.3170   21.4311 N   0  0  0  0  0  0  0  0  0  0  0  0
  -26.5980  -23.6137   20.2407 N   0  0  0  0  0  0  0  0  0  0  0  0
  -26.2294  -13.8001   20.7044 N   0  0  0  0  0  0  0  0  0  0  0  0
  -30.3372  -28.7750   19.6592 N   0  0  0  0  0  0  0  0  0  0  0  0
  -29.6423  -33.2191   22.7095 N   0  0  0  0  0  0  0  0  0  0  0  0
  -26.1545  -33.1753   24.2015 N   0  0  0  0  0  0  0  0  0  0  0  0
  -29.4149  -27.2176   18.1443 N   0  0  0  0  0  0  0  0  0  0  0  0
  -29.0775  -12.7685   18.8191 N   0  0  0  0  0  0  0  0  0  0  0  0
  -23.1644  -12.7272   21.6598 N   0  0  0  0  0  0  0  0  0  0  0  0
  -22.1460  -13.6765   24.9959 N   0  3  0  0  0  0  0  0  0  0  0  0
  -25.1318  -25.3341   20.8582 O   0  0  0  0  0  0  0  0  0  0  0  0
  -27.8741  -21.7675   19.6337 O   0  0  0  0  0  0  0  0  0  0  0  0
  -26.1210  -34.4507   22.2960 O   0  0  0  0  0  0  0  0  0  0  0  0
  -27.5659  -14.5168   18.5337 O   0  0  0  0  0  0  0  0  0  0  0  0
  -25.5724  -11.5642   20.6313 O   0  0  0  0  0  0  0  0  0  0  0  0
  -22.6833  -14.8382   22.4902 O   0  0  0  0  0  0  0  0  0  0  0  0
  -28.7752  -27.2250   20.3818 O   0  0  0  0  0  0  0  0  0  0  0  0
  -21.7335  -29.6038   20.3514 O   0  0  0  0  0  0  0  0  0  0  0  0
  -27.2449  -19.8160   21.6158 O   0  0  0  0  0  0  0  0  0  1  0  0
  -18.9338  -27.1601   24.4249 F   0  0  0  0  0  0  0  0  0  0  0  0
  -20.8038  -27.0146   20.0790 F   0  0  0  0  0  0  0  0  0  0  0  0
  -26.3865  -23.9441   23.6803 S   0  0  0  0  0  0  0  0  0  0  0  0
  1  2  1  0  0  0  0
  1  5  2  0  0  0  0
  2  6  2  0  0  0  0
  3 10  2  0  0  0  0
  3 18  1  0  0  0  0
  4 11  1  0  0  0  0
  4 18  2  0  0  0  0
  5 20  1  0  0  0  0
  6 22  1  0  0  0  0
  7 12  2  0  0  0  0
  7 21  1  0  0  0  0
  8  9  2  0  0  0  0
  8 24  1  0  0  0  0
  9 26  1  0  0  0  0
 10 27  1  0  0  0  0
 11 27  2  0  0  0  0
 12 28  1  0  0  0  0
 13 14  2  0  0  0  0
 13 29  1  0  0  0  0
 14 30  1  0  0  0  0
 15 23  1  0  0  0  0
 15 28  2  0  0  0  0
 16 25  1  0  0  0  0
 16 26  2  0  0  0  0
 17 30  2  0  0  0  0
 17 31  1  0  0  0  0
 18 32  1  0  0  0  0
 19 32  1  0  0  0  0
 19 33  2  0  0  0  0
 19 36  1  0  0  0  0
 20 22  2  0  0  0  0
 20 41  1  0  0  0  0
 21 23  2  0  0  0  0
 21 42  1  0  0  0  0
 22 52  1  0  0  0  0
 23 43  1  0  0  0  0
 24 25  2  0  0  0  0
 24 56  1  0  0  0  0
 25 62  1  0  0  0  0
 26 74  1  0  0  0  0
 27 85  1  0  0  0  0
 28 86  1  0  0  0  0
 29 31  2  0  0  0  0
 29 85  1  0  0  0  0
 30 87  1  0  0  0  0
 31 88  1  0  0  0  0
 32 67  2  0  0  0  0
 33 68  1  0  0  0  0
 33 72  1  0  0  0  0
 34 44  1  0  0  0  0
 34 69  1  0  0  0  0
 34 78  2  0  0  0  0
 35 53  1  0  0  0  0
 35 69  1  0  0  0  0
 35 79  2  0  0  0  0
 36 73  1  0  0  0  0
 36 80  2  0  0  0  0
 37 54  1  0  0  0  0
 37 75  1  0  0  0  0
 37 81  2  0  0  0  0
 38 64  1  0  0  0  0
 38 70  1  0  0  0  0
 38 82  2  0  0  0  0
 39 65  1  0  0  0  0
 39 76  1  0  0  0  0
 39 83  2  0  0  0  0
 40 71  1  0  0  0  0
 40 74  1  0  0  0  0
 40 84  2  0  0  0  0
 41 45  1  0  0  0  0
 42 54  1  0  0  0  0
 43 70  1  0  0  0  0
 44 89  1  0  0  0  0
 45 47  1  0  0  0  0
 46 48  1  0  0  0  0
 46 49  1  0  0  0  0
 47 52  1  0  0  0  0
 48 55  1  0  0  0  0
 49 71  1  0  0  0  0
 50 55  1  0  0  0  0
 50 71  1  0  0  0  0
 51 53  1  0  0  0  0
 51 89  1  0  0  0  0
 52 75  1  0  0  0  0
 53 63  1  0  0  0  0
 54 70  1  0  0  0  0
 55 68  1  0  0  0  0
 57 65  1  0  0  0  0
 58 66  1  0  0  0  0
 59 66  1  0  0  0  0
 60 66  1  0  0  0  0
 61 77  1  0  0  0  0
 62 69  1  0  0  0  0
 63 86  1  0  0  0  0
 64 66  1  0  0  0  0
 64 76  1  0  0  0  0
 65 77  1  0  0  0  0
 67 68  1  0  0  0  0
M  CHG  1  77   1
M  ISO  4  40 100  63 101  74 100  86 101
M  END
> <Batch ID>
0061

> <Smiles>
CNC(C)C(=O)NC(C(=O)N1Cc2cc([101O:1][101CH2:1]C3CSCC(=O)N(Cc4cc([100NH:0][100C:0](=O)N5CCCC(n6nc(-c7ccc(Oc8ccc(F)cc8F)cc7)c(C(N)=O)c6N)C5)ccc4C)C3=O)ccc2CC1C(=O)NC1CCCc2ccccc21)C(C)(C)C

> <Shape>
0.244

> <Color>
0.072

> <Negative vol penalty>
0.000

$$$$

  -OEChem-04042323073D

 86 94  0     1  0  0  0  0  0999 V2000
  -16.6927  -28.8507   23.9060 C   0  0  0  0  0  0  0  0  0  0  0  0
  -17.7239  -28.4748   23.0512 C   0  0  0  0  0  0  0  0  0  0  0  0
  -24.4584   -8.4347   20.5183 C   0  0  0  0  0  0  0  0  0  0  0  0
  -22.8928  -10.2556   20.7830 C   0  0  0  0  0  0  0  0  0  0  0  0
  -16.5930  -30.1729   24.3370 C   0  0  0  0  0  0  0  0  0  0  0  0
  -18.6555  -29.4213   22.6259 C   0  0  0  0  0  0  0  0  0  0  0  0
  -23.4138  -27.7037   22.8561 C   0  0  0  0  0  0  0  0  0  0  0  0
  -23.4780   -7.5319   20.9297 C   0  0  0  0  0  0  0  0  0  0  0  0
  -21.9123   -9.3528   21.1944 C   0  0  0  0  0  0  0  0  0  0  0  0
  -23.8312  -26.8464   21.8389 C   0  0  0  0  0  0  0  0  0  0  0  0
  -22.0952   -6.5123   23.8405 C   0  0  0  0  0  0  0  0  0  0  0  0
  -22.4622   -5.5352   24.7657 C   0  0  0  0  0  0  0  0  0  0  0  0
  -24.9415  -28.6900   20.7491 C   0  0  0  0  0  0  0  0  0  0  0  0
  -27.5943  -19.7723   18.1886 C   0  0  0  0  0  0  0  0  0  0  0  0
  -28.7327  -19.1350   20.6544 C   0  0  0  0  0  0  0  0  0  0  0  0
  -21.8613   -3.8111   23.1834 C   0  0  0  0  0  0  0  0  0  0  0  0
  -24.1658   -9.7966   20.4450 C   0  0  0  0  0  0  0  0  0  0  0  0
  -25.4472  -11.1524   18.7051 C   0  0  0  0  0  0  0  0  0  0  0  0
  -17.5294  -31.1339   23.9245 C   0  0  0  0  0  0  0  0  0  0  0  0
  -23.7485  -29.0650   22.8217 C   0  0  0  0  0  0  0  0  0  0  0  0
  -18.5674  -30.7579   23.0507 C   0  0  0  0  0  0  0  0  0  0  0  0
  -24.5293  -29.5619   21.7684 C   0  0  0  0  0  0  0  0  0  0  0  0
  -27.7231  -18.4378   18.5731 C   0  0  0  0  0  0  0  0  0  0  0  0
  -28.2923  -18.1191   19.8060 C   0  0  0  0  0  0  0  0  0  0  0  0
  -22.2049   -7.9909   21.2677 C   0  0  0  0  0  0  0  0  0  0  0  0
  -24.5927  -27.3401   20.7837 C   0  0  0  0  0  0  0  0  0  0  0  0
  -21.6111   -6.1389   22.5867 C   0  0  0  0  0  0  0  0  0  0  0  0
  -22.3453   -4.1846   24.4372 C   0  0  0  0  0  0  0  0  0  0  0  0
  -21.4942   -4.7883   22.2582 C   0  0  0  0  0  0  0  0  0  0  0  0
  -28.0347  -20.7883   19.0369 C   0  0  0  0  0  0  0  0  0  0  0  0
  -28.6039  -20.4696   20.2698 C   0  0  0  0  0  0  0  0  0  0  0  0
  -25.1784  -10.7297   20.0207 C   0  0  0  0  0  0  0  0  0  0  0  0
  -26.4927  -12.0337   18.8344 C   0  0  0  0  0  0  0  0  0  0  0  0
  -24.8089  -10.7816   17.4760 C   0  0  0  0  0  0  0  0  0  0  0  0
  -22.0983  -31.7774   22.6684 C   0  0  0  0  0  0  0  0  0  0  0  0
  -25.0218  -33.1238   23.0716 C   0  0  0  0  0  0  0  0  0  0  0  0
  -28.4090  -32.8408   22.7655 C   0  0  0  0  0  0  0  0  0  0  0  0
  -28.9767  -16.3003   21.4091 C   0  0  0  0  0  0  0  0  0  0  0  0
  -17.3531  -32.5612   24.3791 C   0  0  0  0  0  0  0  0  0  0  0  0
  -23.3131  -29.9713   23.9404 C   0  0  0  0  0  0  0  0  0  0  0  0
  -24.9325  -31.0112   21.6953 C   0  0  0  0  0  0  0  0  0  0  0  0
  -18.5984  -33.4217   24.1812 C   0  0  0  0  0  0  0  0  0  0  0  0
  -29.4641  -13.0599   22.8018 C   0  0  0  0  0  0  0  0  0  0  0  0
  -19.1791  -33.2078   22.7870 C   0  0  0  0  0  0  0  0  0  0  0  0
  -28.4147  -12.1996   22.0941 C   0  0  0  0  0  0  0  0  0  0  0  0
  -28.9445  -14.4678   23.0872 C   0  0  0  0  0  0  0  0  0  0  0  0
  -27.3511  -14.3166   21.2145 C   0  0  0  0  0  0  0  0  0  0  0  0
  -19.6117  -31.7503   22.5872 C   0  0  1  0  0  0  0  0  0  0  0  0
  -23.2769  -31.4424   23.5380 C   0  0  1  0  0  0  0  0  0  0  0  0
  -27.8511  -12.9098   20.8477 C   0  0  2  0  0  0  0  0  0  0  0  0
  -28.3892  -16.6859   16.9076 C   0  0  0  0  0  0  0  0  0  0  0  0
  -30.5347  -34.1202   23.1421 C   0  0  0  0  0  0  0  0  0  0  0  0
  -24.4674  -34.7773   20.5679 C   0  0  0  0  0  0  0  0  0  0  0  0
  -26.9137  -35.2979   20.4546 C   0  0  0  0  0  0  0  0  0  0  0  0
  -25.5734  -36.0352   22.4251 C   0  0  0  0  0  0  0  0  0  0  0  0
  -29.4056  -30.8406   24.7058 C   0  0  0  0  0  0  0  0  0  0  0  0
  -27.2423  -17.3701   17.6447 C   0  0  0  0  0  0  0  0  0  0  0  0
  -26.2917  -24.5656   19.2206 C   0  0  0  0  0  0  0  0  0  0  0  0
  -25.2225  -25.1397   20.1376 C   0  0  0  0  0  0  0  0  0  1  0  0
  -26.5892  -23.1128   19.5478 C   0  0  0  0  0  0  0  0  0  0  0  0
  -26.1239  -33.5832   22.1478 C   0  0  1  0  0  0  0  0  0  0  0  0
  -29.5367  -33.1391   23.7370 C   0  0  2  0  0  0  0  0  0  0  0  0
  -25.7605  -34.8964   21.3989 C   0  0  0  0  0  0  0  0  0  0  0  0
  -25.9879  -11.2958   20.9197 N   0  0  0  0  0  0  0  0  0  0  0  0
  -26.7758  -12.0831   20.1677 N   0  0  0  0  0  0  0  0  0  0  0  0
  -24.4771  -31.8587   22.8097 N   0  0  0  0  0  0  0  0  0  0  0  0
  -28.4305  -15.0800   21.8601 N   0  0  0  0  0  0  0  0  0  0  0  0
  -27.1884  -12.7633   17.9366 N   0  0  0  0  0  0  0  0  0  0  0  0
  -23.7506   -9.8639   17.5230 N   0  0  0  0  0  0  0  0  0  0  0  0
  -28.4316  -16.7694   20.2144 N   0  0  0  0  0  0  0  0  0  0  0  0
  -20.8748  -31.5027   23.2488 N   0  0  0  0  0  0  0  0  0  0  0  0
  -27.3293  -33.6750   22.9645 N   0  0  0  0  0  0  0  0  0  0  0  0
  -30.2623  -31.8858   24.0889 N   0  3  0  0  0  0  0  0  0  0  0  0
  -25.1771  -11.2377   16.3670 O   0  0  0  0  0  0  0  0  0  0  0  0
  -22.2852  -32.2516   21.5540 O   0  0  0  0  0  0  0  0  0  0  0  0
  -24.6627  -33.8573   23.9961 O   0  0  0  0  0  0  0  0  0  0  0  0
  -28.4804  -31.9587   21.9127 O   0  0  0  0  0  0  0  0  0  0  0  0
  -29.8817  -16.8721   22.0223 O   0  0  0  0  0  0  0  0  0  0  0  0
  -29.0970  -23.1423   18.7832 O   0  0  0  0  0  0  0  0  0  0  0  0
  -27.3230  -22.4356   17.1402 O   0  0  0  0  0  0  0  0  0  0  0  0
  -21.2479   -7.1102   21.6689 O   0  0  0  0  0  0  0  0  0  0  0  0
  -25.0009  -26.5056   19.7892 O   0  0  0  0  0  0  0  0  0  1  0  0
  -22.6993   -3.2464   25.3252 F   0  0  0  0  0  0  0  0  0  0  0  0
  -21.0310   -4.4235   21.0548 F   0  0  0  0  0  0  0  0  0  0  0  0
  -27.8465  -22.4610   18.4953 S   0  0  0  0  0  0  0  0  0  0  0  0
  -29.1657  -21.6897   21.3555 Cl  0  0  0  0  0  0  0  0  0  0  0  0
  1  2  1  0  0  0  0
  1  5  2  0  0  0  0
  2  6  2  0  0  0  0
  3  8  2  0  0  0  0
  3 17  1  0  0  0  0
  4  9  1  0  0  0  0
  4 17  2  0  0  0  0
  5 19  1  0  0  0  0
  6 21  1  0  0  0  0
  7 10  2  0  0  0  0
  7 20  1  0  0  0  0
  8 25  1  0  0  0  0
  9 25  2  0  0  0  0
 10 26  1  0  0  0  0
 11 12  2  0  0  0  0
 11 27  1  0  0  0  0
 12 28  1  0  0  0  0
 13 22  1  0  0  0  0
 13 26  2  0  0  0  0
 14 23  1  0  0  0  0
 14 30  2  0  0  0  0
 15 24  1  0  0  0  0
 15 31  2  0  0  0  0
 16 28  2  0  0  0  0
 16 29  1  0  0  0  0
 17 32  1  0  0  0  0
 18 32  1  0  0  0  0
 18 33  2  0  0  0  0
 18 34  1  0  0  0  0
 19 21  2  0  0  0  0
 19 39  1  0  0  0  0
 20 22  2  0  0  0  0
 20 40  1  0  0  0  0
 21 48  1  0  0  0  0
 22 41  1  0  0  0  0
 23 24  2  0  0  0  0
 23 57  1  0  0  0  0
 24 70  1  0  0  0  0
 25 81  1  0  0  0  0
 26 82  1  0  0  0  0
 27 29  2  0  0  0  0
 27 81  1  0  0  0  0
 28 83  1  0  0  0  0
 29 84  1  0  0  0  0
 30 31  1  0  0  0  0
 30 85  1  0  0  0  0
 31 86  1  0  0  0  0
 32 64  2  0  0  0  0
 33 65  1  0  0  0  0
 33 68  1  0  0  0  0
 34 69  1  0  0  0  0
 34 74  2  0  0  0  0
 35 49  1  0  0  0  0
 35 71  1  0  0  0  0
 35 75  2  0  0  0  0
 36 61  1  0  0  0  0
 36 66  1  0  0  0  0
 36 76  2  0  0  0  0
 37 62  1  0  0  0  0
 37 72  1  0  0  0  0
 37 77  2  0  0  0  0
 38 67  1  0  0  0  0
 38 70  1  0  0  0  0
 38 78  2  0  0  0  0
 39 42  1  0  0  0  0
 40 49  1  0  0  0  0
 41 66  1  0  0  0  0
 42 44  1  0  0  0  0
 43 45  1  0  0  0  0
 43 46  1  0  0  0  0
 44 48  1  0  0  0  0
 45 50  1  0  0  0  0
 46 67  1  0  0  0  0
 47 50  1  0  0  0  0
 47 67  1  0  0  0  0
 48 71  1  0  0  0  0
 49 66  1  0  0  0  0
 50 65  1  0  0  0  0
 51 57  1  0  0  0  0
 52 62  1  0  0  0  0
 53 63  1  0  0  0  0
 54 63  1  0  0  0  0
 55 63  1  0  0  0  0
 56 73  1  0  0  0  0
 58 59  1  0  0  0  0
 58 60  1  0  0  0  0
 59 82  1  0  0  0  0
 60 85  1  0  0  0  0
 61 63  1  0  0  0  0
 61 72  1  0  0  0  0
 62 73  1  0  0  0  0
 64 65  1  0  0  0  0
 79 85  2  0  0  0  0
 80 85  2  0  0  0  0
M  CHG  1  73   1
M  ISO  4  38 100  59 101  70 100  82 101
M  END
> <Batch ID>
0061

> <Smiles>
CCc1cc(S(=O)(=O)CC[101CH2:1][101O:1]c2ccc3c(c2)CN(C(=O)C(NC(=O)C(C)NC)C(C)(C)C)C(C(=O)NC2CCCc4ccccc42)C3)c(Cl)cc1[100NH:0][100C:0](=O)N1CCCC(n2nc(-c3ccc(Oc4ccc(F)cc4F)cc3)c(C(N)=O)c2N)C1

> <Shape>
0.289

> <Color>
0.099

> <Negative vol penalty>
0.000

$$$$

  -OEChem-04042323073D

 84 92  0     1  0  0  0  0  0999 V2000
  -29.5951  -23.6146   17.8491 C   0  0  0  0  0  0  0  0  0  0  0  0
  -28.4214  -23.6840   18.5927 C   0  0  0  0  0  0  0  0  0  0  0  0
  -24.9268  -22.6881   28.2412 C   0  0  0  0  0  0  0  0  0  0  0  0
  -28.3725  -14.5950   20.6710 C   0  0  0  0  0  0  0  0  0  0  0  0
  -26.1772  -15.5975   20.7838 C   0  0  0  0  0  0  0  0  0  0  0  0
  -23.6809  -22.7774   27.6204 C   0  0  0  0  0  0  0  0  0  0  0  0
  -30.6650  -24.4538   18.1575 C   0  0  0  0  0  0  0  0  0  0  0  0
  -28.3173  -24.5920   19.6459 C   0  0  0  0  0  0  0  0  0  0  0  0
  -23.9007  -27.0696   19.6455 C   0  0  0  0  0  0  0  0  0  0  0  0
  -26.0395  -22.2645   27.5144 C   0  0  0  0  0  0  0  0  0  0  0  0
  -27.7903  -13.3316   20.5681 C   0  0  0  0  0  0  0  0  0  0  0  0
  -25.5950  -14.3341   20.6810 C   0  0  0  0  0  0  0  0  0  0  0  0
  -22.7875  -26.3867   20.1337 C   0  0  0  0  0  0  0  0  0  0  0  0
  -23.5341  -11.3432   20.8103 C   0  0  0  0  0  0  0  0  0  0  0  0
  -22.4789  -11.0435   21.6719 C   0  0  0  0  0  0  0  0  0  0  0  0
  -23.0117  -27.5398   22.2407 C   0  0  0  0  0  0  0  0  0  0  0  0
  -23.9291  -11.3986   23.5714 C   0  0  0  0  0  0  0  0  0  0  0  0
  -27.5660  -15.7279   20.7789 C   0  0  0  0  0  0  0  0  0  0  0  0
  -23.5476  -22.4429   26.2728 C   0  0  0  0  0  0  0  0  0  0  0  0
  -28.5084  -17.9007   19.8309 C   0  0  0  0  0  0  0  0  0  0  0  0
  -30.5704  -25.3792   19.2088 C   0  0  0  0  0  0  0  0  0  0  0  0
  -24.5854  -27.9862   20.4563 C   0  0  0  0  0  0  0  0  0  0  0  0
  -29.3874  -25.4434   19.9695 C   0  0  0  0  0  0  0  0  0  0  0  0
  -24.1317  -28.2348   21.7596 C   0  0  0  0  0  0  0  0  0  0  0  0
  -25.9062  -21.9300   26.1668 C   0  0  0  0  0  0  0  0  0  0  0  0
  -26.4016  -13.2012   20.5731 C   0  0  0  0  0  0  0  0  0  0  0  0
  -22.3445  -26.6196   21.4324 C   0  0  0  0  0  0  0  0  0  0  0  0
  -24.7868  -11.6705   21.3292 C   0  0  0  0  0  0  0  0  0  0  0  0
  -22.6764  -11.0712   23.0525 C   0  0  0  0  0  0  0  0  0  0  0  0
  -24.9843  -11.6982   22.7098 C   0  0  0  0  0  0  0  0  0  0  0  0
  -24.6603  -22.0193   25.5460 C   0  0  0  0  0  0  0  0  0  0  0  0
  -28.1668  -17.0332   20.8857 C   0  0  0  0  0  0  0  0  0  0  0  0
  -29.0428  -19.0029   20.4523 C   0  0  0  0  0  0  0  0  0  0  0  0
  -22.2185  -22.5400   25.6162 C   0  0  0  0  0  0  0  0  0  0  0  0
  -28.3563  -17.7258   18.4160 C   0  0  0  0  0  0  0  0  0  0  0  0
  -27.5383  -28.1865   21.6155 C   0  0  0  0  0  0  0  0  0  0  0  0
  -26.5190  -31.0885   22.6459 C   0  0  0  0  0  0  0  0  0  0  0  0
  -23.9025  -33.0974   23.5206 C   0  0  0  0  0  0  0  0  0  0  0  0
  -28.3448  -21.3573   25.8997 C   0  0  0  0  0  0  0  0  0  0  0  0
  -31.7705  -26.2326   19.5349 C   0  0  0  0  0  0  0  0  0  0  0  0
  -25.7684  -28.7344   19.9058 C   0  0  0  0  0  0  0  0  0  0  0  0
  -24.8195  -29.2239   22.6635 C   0  0  0  0  0  0  0  0  0  0  0  0
  -31.4439  -27.4273   20.4273 C   0  0  0  0  0  0  0  0  0  0  0  0
  -31.4010  -20.2915   24.4162 C   0  0  0  0  0  0  0  0  0  0  0  0
  -30.5654  -26.9954   21.5971 C   0  0  0  0  0  0  0  0  0  0  0  0
  -30.9495  -19.4189   23.2428 C   0  0  0  0  0  0  0  0  0  0  0  0
  -30.4872  -20.1277   25.6294 C   0  0  0  0  0  0  0  0  0  0  0  0
  -28.6059  -19.4555   24.1879 C   0  0  0  0  0  0  0  0  0  0  0  0
  -29.2271  -26.4324   21.1037 C   0  0  1  0  0  0  0  0  0  0  0  0
  -26.6981  -29.2652   20.9927 C   0  0  1  0  0  0  0  0  0  0  0  0
  -29.4578  -19.6353   22.9208 C   0  0  2  0  0  0  0  0  0  0  0  0
  -23.3854  -35.4061   24.3570 C   0  0  0  0  0  0  0  0  0  0  0  0
  -27.4353  -30.2784   25.4413 C   0  0  0  0  0  0  0  0  0  0  0  0
  -26.0638  -32.1606   26.3605 C   0  0  0  0  0  0  0  0  0  0  0  0
  -27.9618  -32.6416   24.8149 C   0  0  0  0  0  0  0  0  0  0  0  0
  -22.3103  -33.7396   21.1099 C   0  0  0  0  0  0  0  0  0  0  0  0
  -20.4210  -24.4228   23.5585 C   0  0  0  0  0  0  0  0  0  0  0  0
  -20.3373  -24.0486   25.0321 C   0  0  0  0  0  0  0  0  0  0  0  0
  -21.2219  -25.6960   23.3146 C   0  0  0  0  0  0  0  0  0  1  0  0
  -25.8475  -31.6038   23.8959 C   0  0  1  0  0  0  0  0  0  0  0  0
  -23.5523  -34.5221   23.1308 C   0  0  2  0  0  0  0  0  0  0  0  0
  -26.8151  -31.6510   25.1120 C   0  0  0  0  0  0  0  0  0  0  0  0
  -28.4596  -17.5406   22.0860 N   0  0  0  0  0  0  0  0  0  0  0  0
  -28.9910  -18.7388   21.7893 N   0  0  0  0  0  0  0  0  0  0  0  0
  -25.9755  -29.9258   22.0816 N   0  0  0  0  0  0  0  0  0  0  0  0
  -29.0906  -20.3515   25.2495 N   0  0  0  0  0  0  0  0  0  0  0  0
  -29.5473  -20.1625   19.9799 N   0  0  0  0  0  0  0  0  0  0  0  0
  -27.7885  -16.5332   17.9474 N   0  0  0  0  0  0  0  0  0  0  0  0
  -27.0389  -21.5001   25.4321 N   0  0  0  0  0  0  0  0  0  0  0  0
  -21.6302  -23.7997   25.6073 N   0  0  0  0  0  0  0  0  0  0  0  0
  -28.3385  -27.5072   20.7168 N   0  0  0  0  0  0  0  0  0  0  0  0
  -25.2662  -32.8949   23.5443 N   0  0  0  0  0  0  0  0  0  0  0  0
  -22.2800  -34.5491   22.3553 N   0  3  0  0  0  0  0  0  0  0  0  0
  -21.7073  -21.5280   25.1439 O   0  0  0  0  0  0  0  0  0  0  0  0
  -28.7285  -18.5943   17.5909 O   0  0  0  0  0  0  0  0  0  0  0  0
  -27.4671  -27.9863   22.8224 O   0  0  0  0  0  0  0  0  0  0  0  0
  -27.4857  -31.6992   22.1831 O   0  0  0  0  0  0  0  0  0  0  0  0
  -23.0516  -32.2499   23.7818 O   0  0  0  0  0  0  0  0  0  0  0  0
  -28.8375  -22.0600   26.7860 O   0  0  0  0  0  0  0  0  0  0  0  0
  -25.8332  -11.9686   20.4725 O   0  0  0  0  0  0  0  0  0  0  0  0
  -21.2587  -25.9539   21.9116 O   0  0  0  0  0  0  0  0  0  1  0  0
  -21.6626  -10.7849   23.8798 F   0  0  0  0  0  0  0  0  0  0  0  0
  -26.1852  -12.0131   23.2142 F   0  0  0  0  0  0  0  0  0  0  0  0
  -24.5318  -21.6962   24.2500 F   0  0  0  0  0  0  0  0  0  0  0  0
  1  2  1  0  0  0  0
  1  7  2  0  0  0  0
  2  8  2  0  0  0  0
  3  6  2  0  0  0  0
  3 10  1  0  0  0  0
  4 11  2  0  0  0  0
  4 18  1  0  0  0  0
  5 12  1  0  0  0  0
  5 18  2  0  0  0  0
  6 19  1  0  0  0  0
  7 21  1  0  0  0  0
  8 23  1  0  0  0  0
  9 13  2  0  0  0  0
  9 22  1  0  0  0  0
 10 25  2  0  0  0  0
 11 26  1  0  0  0  0
 12 26  2  0  0  0  0
 13 27  1  0  0  0  0
 14 15  2  0  0  0  0
 14 28  1  0  0  0  0
 15 29  1  0  0  0  0
 16 24  1  0  0  0  0
 16 27  2  0  0  0  0
 17 29  2  0  0  0  0
 17 30  1  0  0  0  0
 18 32  1  0  0  0  0
 19 31  2  0  0  0  0
 19 34  1  0  0  0  0
 20 32  1  0  0  0  0
 20 33  2  0  0  0  0
 20 35  1  0  0  0  0
 21 23  2  0  0  0  0
 21 40  1  0  0  0  0
 22 24  2  0  0  0  0
 22 41  1  0  0  0  0
 23 49  1  0  0  0  0
 24 42  1  0  0  0  0
 25 31  1  0  0  0  0
 25 69  1  0  0  0  0
 26 80  1  0  0  0  0
 27 81  1  0  0  0  0
 28 30  2  0  0  0  0
 28 80  1  0  0  0  0
 29 82  1  0  0  0  0
 30 83  1  0  0  0  0
 31 84  1  0  0  0  0
 32 63  2  0  0  0  0
 33 64  1  0  0  0  0
 33 67  1  0  0  0  0
 34 70  1  0  0  0  0
 34 74  2  0  0  0  0
 35 68  1  0  0  0  0
 35 75  2  0  0  0  0
 36 50  1  0  0  0  0
 36 71  1  0  0  0  0
 36 76  2  0  0  0  0
 37 60  1  0  0  0  0
 37 65  1  0  0  0  0
 37 77  2  0  0  0  0
 38 61  1  0  0  0  0
 38 72  1  0  0  0  0
 38 78  2  0  0  0  0
 39 66  1  0  0  0  0
 39 69  1  0  0  0  0
 39 79  2  0  0  0  0
 40 43  1  0  0  0  0
 41 50  1  0  0  0  0
 42 65  1  0  0  0  0
 43 45  1  0  0  0  0
 44 46  1  0  0  0  0
 44 47  1  0  0  0  0
 45 49  1  0  0  0  0
 46 51  1  0  0  0  0
 47 66  1  0  0  0  0
 48 51  1  0  0  0  0
 48 66  1  0  0  0  0
 49 71  1  0  0  0  0
 50 65  1  0  0  0  0
 51 64  1  0  0  0  0
 52 61  1  0  0  0  0
 53 62  1  0  0  0  0
 54 62  1  0  0  0  0
 55 62  1  0  0  0  0
 56 73  1  0  0  0  0
 57 58  1  0  0  0  0
 57 59  1  0  0  0  0
 58 70  1  0  0  0  0
 59 81  1  0  0  0  0
 60 62  1  0  0  0  0
 60 72  1  0  0  0  0
 61 73  1  0  0  0  0
 63 64  1  0  0  0  0
M  CHG  1  73   1
M  ISO  4  39 100  59 101  69 100  81 101
M  END
> <Batch ID>
0061

> <Smiles>
CNC(C)C(=O)NC(C(=O)N1Cc2cc([101O:1][101CH2:1]CCNC(=O)c3cccc([100NH:0][100C:0](=O)N4CCCC(n5nc(-c6ccc(Oc7ccc(F)cc7F)cc6)c(C(N)=O)c5N)C4)c3F)ccc2CC1C(=O)NC1CCCc2ccccc21)C(C)(C)C

> <Shape>
0.261

> <Color>
0.073

> <Negative vol penalty>
0.000

$$$$

  -OEChem-04042323072D

  0  0  0     0  0  0  0  0  0999 V2000
M  END
$$$$

  -OEChem-04042323073D

 91100  0     1  0  0  0  0  0999 V2000
  -24.5205  -13.7769   20.3968 C   0  0  0  0  0  0  0  0  0  0  0  0
  -24.9025  -14.9941   20.9517 C   0  0  0  0  0  0  0  0  0  0  0  0
  -28.8761  -17.6200   19.7384 C   0  0  0  0  0  0  0  0  0  0  0  0
  -30.4836  -17.9802   21.5057 C   0  0  0  0  0  0  0  0  0  0  0  0
  -23.9153  -13.7439   19.1411 C   0  0  0  0  0  0  0  0  0  0  0  0
  -24.6806  -16.1789   20.2507 C   0  0  0  0  0  0  0  0  0  0  0  0
  -23.1353  -23.0918   21.3188 C   0  0  0  0  0  0  0  0  0  0  0  0
  -26.6695  -27.4518   25.7856 C   0  0  0  0  0  0  0  0  0  0  0  0
  -27.5542  -26.6608   25.0527 C   0  0  0  0  0  0  0  0  0  0  0  0
  -29.4803  -16.3994   19.4376 C   0  0  0  0  0  0  0  0  0  0  0  0
  -31.0878  -16.7595   21.2049 C   0  0  0  0  0  0  0  0  0  0  0  0
  -23.5941  -24.3632   20.9772 C   0  0  0  0  0  0  0  0  0  0  0  0
  -29.4942  -13.2541   20.6783 C   0  0  0  0  0  0  0  0  0  0  0  0
  -28.6630  -12.1541   20.4667 C   0  0  0  0  0  0  0  0  0  0  0  0
  -22.4688  -24.1913   18.8504 C   0  0  0  0  0  0  0  0  0  0  0  0
  -27.4526  -28.2394   23.2265 C   0  0  0  0  0  0  0  0  0  0  0  0
  -29.5449  -11.9182   18.2297 C   0  0  0  0  0  0  0  0  0  0  0  0
  -29.3778  -18.4105   20.7725 C   0  0  0  0  0  0  0  0  0  0  0  0
  -27.7041  -19.8997   21.9926 C   0  0  0  0  0  0  0  0  0  0  0  0
  -23.6771  -14.9297   18.4286 C   0  0  0  0  0  0  0  0  0  0  0  0
  -22.3476  -22.3549   20.4228 C   0  0  0  0  0  0  0  0  0  0  0  0
  -24.0729  -16.1616   18.9838 C   0  0  0  0  0  0  0  0  0  0  0  0
  -21.9992  -22.9118   19.1841 C   0  0  0  0  0  0  0  0  0  0  0  0
  -26.1762  -28.6365   25.2390 C   0  0  0  0  0  0  0  0  0  0  0  0
  -26.5678  -29.0303   23.9594 C   0  0  0  0  0  0  0  0  0  0  0  0
  -27.9458  -27.0546   23.7731 C   0  0  0  0  0  0  0  0  0  0  0  0
  -30.5861  -15.9691   20.1708 C   0  0  0  0  0  0  0  0  0  0  0  0
  -23.2633  -24.9120   19.7417 C   0  0  0  0  0  0  0  0  0  0  0  0
  -30.3507  -13.6862   19.6657 C   0  0  0  0  0  0  0  0  0  0  0  0
  -28.6884  -11.4861   19.2424 C   0  0  0  0  0  0  0  0  0  0  0  0
  -30.3760  -13.0182   18.4414 C   0  0  0  0  0  0  0  0  0  0  0  0
  -28.7544  -19.6718   21.0834 C   0  0  0  0  0  0  0  0  0  0  0  0
  -27.4779  -21.2527   21.9238 C   0  0  0  0  0  0  0  0  0  0  0  0
  -25.7641  -29.9494   19.6501 C   0  0  0  0  0  0  0  0  0  0  0  0
  -24.8972  -29.0251   19.2070 C   0  0  0  0  0  0  0  0  0  0  0  0
  -25.8791  -30.6520   20.9598 C   0  0  0  0  0  0  0  0  0  0  0  0
  -24.0661  -29.4545   22.2552 C   0  0  0  0  0  0  0  0  0  0  0  0
  -26.9962  -18.9714   22.8250 C   0  0  0  0  0  0  0  0  0  0  0  0
  -22.6752  -19.5811   18.9054 C   0  0  0  0  0  0  0  0  0  0  0  0
  -19.6194  -20.1668   17.9882 C   0  0  0  0  0  0  0  0  0  0  0  0
  -17.1502  -22.4555   17.4299 C   0  0  0  0  0  0  0  0  0  0  0  0
  -29.3352  -26.4988   21.7465 C   0  0  0  0  0  0  0  0  0  0  0  0
  -23.0629  -14.8398   17.0541 C   0  0  0  0  0  0  0  0  0  0  0  0
  -21.8383  -20.9956   20.8171 C   0  0  0  0  0  0  0  0  0  0  0  0
  -21.1393  -22.1700   18.1948 C   0  0  0  0  0  0  0  0  0  0  0  0
  -23.1868  -29.4473   21.0316 C   0  0  0  0  0  0  0  0  0  0  0  0
  -22.5231  -16.1719   16.5398 C   0  0  0  0  0  0  0  0  0  0  0  0
  -29.2054  -24.7196   18.6652 C   0  0  0  0  0  0  0  0  0  0  0  0
  -23.5407  -17.2848   16.7700 C   0  0  0  0  0  0  0  0  0  0  0  0
  -28.9901  -23.2665   19.0944 C   0  0  0  0  0  0  0  0  0  0  0  0
  -30.1260  -25.4653   19.6296 C   0  0  0  0  0  0  0  0  0  0  0  0
  -29.5137  -23.9478   21.4711 C   0  0  0  0  0  0  0  0  0  0  0  0
  -23.8265  -17.4704   18.2651 C   0  0  1  0  0  0  0  0  0  0  0  0
  -23.6864  -28.5024   19.9434 C   0  0  2  0  0  0  0  0  0  0  0  0
  -21.4703  -20.1249   19.6197 C   0  0  1  0  0  0  0  0  0  0  0  0
  -28.5411  -23.1741   20.5660 C   0  0  2  0  0  0  0  0  0  0  0  0
  -25.2295  -29.4664   26.0425 C   0  0  0  0  0  0  0  0  0  0  0  0
  -24.2936  -29.3113   16.8281 C   0  0  0  0  0  0  0  0  0  0  0  0
  -14.7728  -22.6371   16.6474 C   0  0  0  0  0  0  0  0  0  0  0  0
  -20.5398  -19.7667   15.1068 C   0  0  0  0  0  0  0  0  0  0  0  0
  -18.4233  -20.8702   14.3510 C   0  0  0  0  0  0  0  0  0  0  0  0
  -18.3239  -18.7405   15.6461 C   0  0  0  0  0  0  0  0  0  0  0  0
  -16.2643  -23.5930   20.0145 C   0  0  0  0  0  0  0  0  0  0  0  0
  -26.0515  -30.3023   23.3515 C   0  0  0  0  0  0  0  0  0  0  0  0
  -25.0697  -28.4711   17.8106 C   0  0  0  0  0  0  0  0  0  0  0  0
  -23.9125  -27.0808   20.4705 C   0  0  0  0  0  0  0  0  0  1  0  0
  -18.9697  -20.8805   16.8274 C   0  0  1  0  0  0  0  0  0  0  0  0
  -15.6917  -22.4864   17.8497 C   0  0  2  0  0  0  0  0  0  0  0  0
  -19.0820  -20.0779   15.5005 C   0  0  0  0  0  0  0  0  0  0  0  0
  -29.1668  -20.7903   20.4810 N   0  0  0  0  0  0  0  0  0  0  0  0
  -28.3714  -21.7341   21.0128 N   0  0  0  0  0  0  0  0  0  0  0  0
  -25.3296  -30.0590   22.1065 N   0  0  0  0  0  0  0  0  0  0  0  0
  -20.6711  -20.8418   18.6240 N   0  0  0  0  0  0  0  0  0  0  0  0
  -29.6359  -25.3375   21.0037 N   0  0  0  0  0  0  0  0  0  0  0  0
  -26.6037  -22.0656   22.5542 N   0  0  0  0  0  0  0  0  0  0  0  0
  -27.3561  -17.6179   22.7724 N   0  0  0  0  0  0  0  0  0  0  0  0
  -28.8461  -26.2524   23.0290 N   0  0  0  0  0  0  0  0  0  0  0  0
  -22.7501  -18.2013   18.8986 N   0  0  0  0  0  0  0  0  0  0  0  0
  -17.5995  -21.1660   17.2389 N   0  0  0  0  0  0  0  0  0  0  0  0
  -15.4435  -23.6266   18.7767 N   0  3  0  0  0  0  0  0  0  0  0  0
  -26.5403  -31.6944   20.9870 O   0  0  0  0  0  0  0  0  0  0  0  0
  -23.6403  -28.9904   23.3162 O   0  0  0  0  0  0  0  0  0  0  0  0
  -26.0609  -19.3291   23.5805 O   0  0  0  0  0  0  0  0  0  0  0  0
  -23.4768  -20.3560   18.3967 O   0  0  0  0  0  0  0  0  0  0  0  0
  -19.2041  -19.0546   18.3233 O   0  0  0  0  0  0  0  0  0  0  0  0
  -17.8226  -23.4737   17.2822 O   0  0  0  0  0  0  0  0  0  0  0  0
  -29.4737  -27.6282   21.2697 O   0  0  0  0  0  0  0  0  0  0  0  0
  -31.1758  -14.7779   19.8776 O   0  0  0  0  0  0  0  0  0  0  0  0
  -23.7104  -26.1526   19.4056 O   0  0  0  0  0  0  0  0  0  1  0  0
  -27.8913  -10.4289   19.0398 F   0  0  0  0  0  0  0  0  0  0  0  0
  -31.1976  -13.4280   17.4652 F   0  0  0  0  0  0  0  0  0  0  0  0
  1  2  1  0  0  0  0
  1  5  2  0  0  0  0
  2  6  2  0  0  0  0
  3 10  2  0  0  0  0
  3 18  1  0  0  0  0
  4 11  1  0  0  0  0
  4 18  2  0  0  0  0
  5 20  1  0  0  0  0
  6 22  1  0  0  0  0
  7 12  2  0  0  0  0
  7 21  1  0  0  0  0
  8  9  2  0  0  0  0
  8 24  1  0  0  0  0
  9 26  1  0  0  0  0
 10 27  1  0  0  0  0
 11 27  2  0  0  0  0
 12 28  1  0  0  0  0
 13 14  2  0  0  0  0
 13 29  1  0  0  0  0
 14 30  1  0  0  0  0
 15 23  1  0  0  0  0
 15 28  2  0  0  0  0
 16 25  1  0  0  0  0
 16 26  2  0  0  0  0
 17 30  2  0  0  0  0
 17 31  1  0  0  0  0
 18 32  1  0  0  0  0
 19 32  1  0  0  0  0
 19 33  2  0  0  0  0
 19 38  1  0  0  0  0
 20 22  2  0  0  0  0
 20 43  1  0  0  0  0
 21 23  2  0  0  0  0
 21 44  1  0  0  0  0
 22 53  1  0  0  0  0
 23 45  1  0  0  0  0
 24 25  2  0  0  0  0
 24 57  1  0  0  0  0
 25 64  1  0  0  0  0
 26 77  1  0  0  0  0
 27 88  1  0  0  0  0
 28 89  1  0  0  0  0
 29 31  2  0  0  0  0
 29 88  1  0  0  0  0
 30 90  1  0  0  0  0
 31 91  1  0  0  0  0
 32 70  2  0  0  0  0
 33 71  1  0  0  0  0
 33 75  1  0  0  0  0
 34 35  2  0  0  0  0
 34 36  1  0  0  0  0
 35 54  1  0  0  0  0
 35 65  1  0  0  0  0
 36 72  1  0  0  0  0
 36 81  2  0  0  0  0
 37 46  1  0  0  0  0
 37 72  1  0  0  0  0
 37 82  2  0  0  0  0
 38 76  1  0  0  0  0
 38 83  2  0  0  0  0
 39 55  1  0  0  0  0
 39 78  1  0  0  0  0
 39 84  2  0  0  0  0
 40 67  1  0  0  0  0
 40 73  1  0  0  0  0
 40 85  2  0  0  0  0
 41 68  1  0  0  0  0
 41 79  1  0  0  0  0
 41 86  2  0  0  0  0
 42 74  1  0  0  0  0
 42 77  1  0  0  0  0
 42 87  2  0  0  0  0
 43 47  1  0  0  0  0
 44 55  1  0  0  0  0
 45 73  1  0  0  0  0
 46 54  1  0  0  0  0
 47 49  1  0  0  0  0
 48 50  1  0  0  0  0
 48 51  1  0  0  0  0
 49 53  1  0  0  0  0
 50 56  1  0  0  0  0
 51 74  1  0  0  0  0
 52 56  1  0  0  0  0
 52 74  1  0  0  0  0
 53 78  1  0  0  0  0
 54 66  1  0  0  0  0
 55 73  1  0  0  0  0
 56 71  1  0  0  0  0
 58 65  1  0  0  0  0
 59 68  1  0  0  0  0
 60 69  1  0  0  0  0
 61 69  1  0  0  0  0
 62 69  1  0  0  0  0
 63 80  1  0  0  0  0
 64 72  1  0  0  0  0
 66 89  1  0  0  0  0
 67 69  1  0  0  0  0
 67 79  1  0  0  0  0
 68 80  1  0  0  0  0
 70 71  1  0  0  0  0
M  CHG  1  80   1
M  ISO  4  42 100  66 101  77 100  89 101
M  END
> <Batch ID>
0061

> <Smiles>
CCC1=CC(=O)N(Cc2cc([100NH:0][100C:0](=O)N3CCCC(n4nc(-c5ccc(Oc6ccc(F)cc6F)cc5)c(C(N)=O)c4N)C3)ccc2C)C(=O)CC1[101CH2:1][101O:1]c1ccc2c(c1)CN(C(=O)C(NC(=O)C(C)NC)C(C)(C)C)C(C(=O)NC1CCCc3ccccc31)C2

> <Shape>
0.211

> <Color>
0.069

> <Negative vol penalty>
0.000

$$$$

  -OEChem-04042323073D

 89 98  0     1  0  0  0  0  0999 V2000
  -19.4719  -19.7338   26.9556 C   0  0  0  0  0  0  0  0  0  0  0  0
  -19.9261  -19.6365   25.6442 C   0  0  0  0  0  0  0  0  0  0  0  0
  -26.4484  -12.5497   21.6195 C   0  0  0  0  0  0  0  0  0  0  0  0
  -25.7336  -13.8523   19.7144 C   0  0  0  0  0  0  0  0  0  0  0  0
  -18.9318  -20.9332   27.4178 C   0  0  0  0  0  0  0  0  0  0  0  0
  -19.8394  -20.7383   24.7940 C   0  0  0  0  0  0  0  0  0  0  0  0
  -25.7273  -23.5135   21.7081 C   0  0  0  0  0  0  0  0  0  0  0  0
  -25.2363  -11.8598   21.6026 C   0  0  0  0  0  0  0  0  0  0  0  0
  -24.5215  -13.1624   19.6975 C   0  0  0  0  0  0  0  0  0  0  0  0
  -26.7793  -23.9711   20.9144 C   0  0  0  0  0  0  0  0  0  0  0  0
  -23.8282   -9.3409   19.8404 C   0  0  0  0  0  0  0  0  0  0  0  0
  -23.8698   -7.9539   19.9821 C   0  0  0  0  0  0  0  0  0  0  0  0
  -25.3414  -25.6705   19.9697 C   0  0  0  0  0  0  0  0  0  0  0  0
  -29.5694  -22.2121   14.6188 C   0  0  0  0  0  0  0  0  0  0  0  0
  -29.0212  -20.1886   15.8195 C   0  0  0  0  0  0  0  0  0  0  0  0
  -29.6876  -22.1695   17.0315 C   0  0  0  0  0  0  0  0  0  0  0  0
  -22.5167   -8.1171   21.9770 C   0  0  0  0  0  0  0  0  0  0  0  0
  -26.6971  -13.5461   20.6754 C   0  0  0  0  0  0  0  0  0  0  0  0
  -29.2393  -13.7158   20.5480 C   0  0  0  0  0  0  0  0  0  0  0  0
  -18.8473  -22.0532   26.5757 C   0  0  0  0  0  0  0  0  0  0  0  0
  -24.4811  -24.1432   21.6469 C   0  0  0  0  0  0  0  0  0  0  0  0
  -19.2964  -21.9534   25.2450 C   0  0  0  0  0  0  0  0  0  0  0  0
  -24.2874  -25.2245   20.7716 C   0  0  0  0  0  0  0  0  0  0  0  0
  -29.1646  -20.8773   14.6150 C   0  0  0  0  0  0  0  0  0  0  0  0
  -29.8309  -22.8582   15.8270 C   0  0  0  0  0  0  0  0  0  0  0  0
  -29.2827  -20.8347   17.0278 C   0  0  0  0  0  0  0  0  0  0  0  0
  -24.2728  -12.1661   20.6416 C   0  0  0  0  0  0  0  0  0  0  0  0
  -26.5867  -25.0468   20.0472 C   0  0  0  0  0  0  0  0  0  0  0  0
  -23.1310  -10.1161   20.7671 C   0  0  0  0  0  0  0  0  0  0  0  0
  -23.2140   -7.3420   21.0503 C   0  0  0  0  0  0  0  0  0  0  0  0
  -22.4752   -9.5041   21.8353 C   0  0  0  0  0  0  0  0  0  0  0  0
  -27.9488  -14.2595   20.6927 C   0  0  0  0  0  0  0  0  0  0  0  0
  -30.0799  -14.7984   20.6362 C   0  0  0  0  0  0  0  0  0  0  0  0
  -29.8515  -25.1507   14.8366 C   0  0  0  0  0  0  0  0  0  0  0  0
  -30.4183  -25.4392   17.9920 C   0  0  0  0  0  0  0  0  0  0  0  0
  -29.6421  -12.3539   20.3514 C   0  0  0  0  0  0  0  0  0  0  0  0
  -20.9519  -24.2914   22.9113 C   0  0  0  0  0  0  0  0  0  0  0  0
  -21.9192  -27.1887   22.6278 C   0  0  0  0  0  0  0  0  0  0  0  0
  -22.4577  -30.5420   22.9480 C   0  0  0  0  0  0  0  0  0  0  0  0
  -29.3578  -20.6274   19.5373 C   0  0  0  0  0  0  0  0  0  0  0  0
  -18.2123  -23.3141   27.1062 C   0  0  0  0  0  0  0  0  0  0  0  0
  -23.3025  -23.6450   22.4384 C   0  0  0  0  0  0  0  0  0  0  0  0
  -22.9201  -25.8492   20.7136 C   0  0  0  0  0  0  0  0  0  0  0  0
  -30.2236  -26.5911   15.1206 C   0  0  0  0  0  0  0  0  0  0  0  0
  -31.1459  -24.6912   16.8976 C   0  0  0  0  0  0  0  0  0  0  0  0
  -18.5004  -24.5467   26.2529 C   0  0  0  0  0  0  0  0  0  0  0  0
  -30.3857  -19.1510   22.6099 C   0  0  0  0  0  0  0  0  0  0  0  0
  -18.2864  -24.2348   24.7752 C   0  0  0  0  0  0  0  0  0  0  0  0
  -30.0004  -17.6784   22.4514 C   0  0  0  0  0  0  0  0  0  0  0  0
  -29.4371  -27.1222   16.3079 C   0  0  0  0  0  0  0  0  0  0  0  0
  -29.3600  -20.0787   21.9609 C   0  0  0  0  0  0  0  0  0  0  0  0
  -28.6657  -18.3048   20.3988 C   0  0  0  0  0  0  0  0  0  0  0  0
  -19.2421  -23.1339   24.2997 C   0  0  1  0  0  0  0  0  0  0  0  0
  -22.3719  -24.7760   22.9118 C   0  0  1  0  0  0  0  0  0  0  0  0
  -29.7020  -17.3293   20.9801 C   0  0  2  0  0  0  0  0  0  0  0  0
  -28.8863  -20.1864   13.3226 C   0  0  0  0  0  0  0  0  0  0  0  0
  -21.2447  -32.7387   22.9677 C   0  0  0  0  0  0  0  0  0  0  0  0
  -21.6293  -27.0515   19.5945 C   0  0  0  0  0  0  0  0  0  0  0  0
  -21.3296  -29.5371   19.5818 C   0  0  0  0  0  0  0  0  0  0  0  0
  -19.6894  -28.0910   20.7823 C   0  0  0  0  0  0  0  0  0  0  0  0
  -23.3385  -31.1357   25.7104 C   0  0  0  0  0  0  0  0  0  0  0  0
  -29.0580  -27.3370   18.7269 C   0  0  0  0  0  0  0  0  0  0  0  0
  -27.6268  -26.8780   18.9415 C   0  0  0  0  0  0  0  0  0  1  0  0
  -22.0004  -28.4155   21.7550 C   0  0  1  0  0  0  0  0  0  0  0  0
  -21.7826  -31.5930   23.8107 C   0  0  2  0  0  0  0  0  0  0  0  0
  -21.1855  -28.2621   20.4398 C   0  0  0  0  0  0  0  0  0  0  0  0
  -27.9634  -15.5845   20.8603 N   0  0  0  0  0  0  0  0  0  0  0  0
  -29.2732  -15.8825   20.8215 N   0  0  0  0  0  0  0  0  0  0  0  0
  -30.2508  -24.2423   15.8303 N   0  0  0  0  0  0  0  0  0  0  0  0
  -29.7120  -26.5923   17.6529 N   0  0  0  0  0  0  0  0  0  0  0  0
  -22.3723  -25.9860   22.0722 N   0  0  0  0  0  0  0  0  0  0  0  0
  -29.1313  -19.6903   20.5675 N   0  0  0  0  0  0  0  0  0  0  0  0
  -31.4229  -14.9193   20.5726 N   0  0  0  0  0  0  0  0  0  0  0  0
  -28.6496  -11.3666   20.2842 N   0  0  0  0  0  0  0  0  0  0  0  0
  -29.1384  -20.1348   18.2513 N   0  0  0  0  0  0  0  0  0  0  0  0
  -20.5679  -23.6732   24.0859 N   0  0  0  0  0  0  0  0  0  0  0  0
  -21.5837  -29.5378   22.5887 N   0  0  0  0  0  0  0  0  0  0  0  0
  -22.7486  -32.1501   24.7994 N   0  3  0  0  0  0  0  0  0  0  0  0
  -29.1783  -24.9044   13.8355 O   0  0  0  0  0  0  0  0  0  0  0  0
  -30.5678  -25.0514   19.1567 O   0  0  0  0  0  0  0  0  0  0  0  0
  -30.8475  -12.0202   20.2551 O   0  0  0  0  0  0  0  0  0  0  0  0
  -20.2542  -24.4662   21.9191 O   0  0  0  0  0  0  0  0  0  0  0  0
  -21.4615  -27.2900   23.7696 O   0  0  0  0  0  0  0  0  0  0  0  0
  -23.6409  -30.6073   22.6222 O   0  0  0  0  0  0  0  0  0  0  0  0
  -29.7460  -21.7737   19.7766 O   0  0  0  0  0  0  0  0  0  0  0  0
  -23.0900  -11.4929   20.6246 O   0  0  0  0  0  0  0  0  0  0  0  0
  -27.6193  -25.4913   19.2784 O   0  0  0  0  0  0  0  0  0  1  0  0
  -23.2527   -6.0099   21.1853 F   0  0  0  0  0  0  0  0  0  0  0  0
  -21.8027  -10.2435   22.7281 F   0  0  0  0  0  0  0  0  0  0  0  0
  1  2  1  0  0  0  0
  1  5  2  0  0  0  0
  2  6  2  0  0  0  0
  3  8  2  0  0  0  0
  3 18  1  0  0  0  0
  4  9  1  0  0  0  0
  4 18  2  0  0  0  0
  5 20  1  0  0  0  0
  6 22  1  0  0  0  0
  7 10  2  0  0  0  0
  7 21  1  0  0  0  0
  8 27  1  0  0  0  0
  9 27  2  0  0  0  0
 10 28  1  0  0  0  0
 11 12  2  0  0  0  0
 11 29  1  0  0  0  0
 12 30  1  0  0  0  0
 13 23  1  0  0  0  0
 13 28  2  0  0  0  0
 14 24  2  0  0  0  0
 14 25  1  0  0  0  0
 15 24  1  0  0  0  0
 15 26  2  0  0  0  0
 16 25  2  0  0  0  0
 16 26  1  0  0  0  0
 17 30  2  0  0  0  0
 17 31  1  0  0  0  0
 18 32  1  0  0  0  0
 19 32  1  0  0  0  0
 19 33  2  0  0  0  0
 19 36  1  0  0  0  0
 20 22  2  0  0  0  0
 20 41  1  0  0  0  0
 21 23  2  0  0  0  0
 21 42  1  0  0  0  0
 22 53  1  0  0  0  0
 23 43  1  0  0  0  0
 24 56  1  0  0  0  0
 25 69  1  0  0  0  0
 26 75  1  0  0  0  0
 27 86  1  0  0  0  0
 28 87  1  0  0  0  0
 29 31  2  0  0  0  0
 29 86  1  0  0  0  0
 30 88  1  0  0  0  0
 31 89  1  0  0  0  0
 32 67  2  0  0  0  0
 33 68  1  0  0  0  0
 33 73  1  0  0  0  0
 34 44  1  0  0  0  0
 34 69  1  0  0  0  0
 34 79  2  0  0  0  0
 35 45  1  0  0  0  0
 35 70  1  0  0  0  0
 35 80  2  0  0  0  0
 36 74  1  0  0  0  0
 36 81  2  0  0  0  0
 37 54  1  0  0  0  0
 37 76  1  0  0  0  0
 37 82  2  0  0  0  0
 38 64  1  0  0  0  0
 38 71  1  0  0  0  0
 38 83  2  0  0  0  0
 39 65  1  0  0  0  0
 39 77  1  0  0  0  0
 39 84  2  0  0  0  0
 40 72  1  0  0  0  0
 40 75  1  0  0  0  0
 40 85  2  0  0  0  0
 41 46  1  0  0  0  0
 42 54  1  0  0  0  0
 43 71  1  0  0  0  0
 44 50  1  0  0  0  0
 45 69  1  0  0  0  0
 46 48  1  0  0  0  0
 47 49  1  0  0  0  0
 47 51  1  0  0  0  0
 48 53  1  0  0  0  0
 49 55  1  0  0  0  0
 50 70  1  0  0  0  0
 51 72  1  0  0  0  0
 52 55  1  0  0  0  0
 52 72  1  0  0  0  0
 53 76  1  0  0  0  0
 54 71  1  0  0  0  0
 55 68  1  0  0  0  0
 57 65  1  0  0  0  0
 58 66  1  0  0  0  0
 59 66  1  0  0  0  0
 60 66  1  0  0  0  0
 61 78  1  0  0  0  0
 62 63  1  0  0  0  0
 62 70  1  0  0  0  0
 63 87  1  0  0  0  0
 64 66  1  0  0  0  0
 64 77  1  0  0  0  0
 65 78  1  0  0  0  0
 67 68  1  0  0  0  0
M  CHG  1  78   1
M  ISO  4  40 100  63 101  75 100  87 101
M  END
> <Batch ID>
0061

> <Smiles>
CNC(C)C(=O)NC(C(=O)N1Cc2cc([101O:1][101CH2:1]CN3CCC(=O)N(c4cc(C)cc([100NH:0][100C:0](=O)N5CCCC(n6nc(-c7ccc(Oc8ccc(F)cc8F)cc7)c(C(N)=O)c6N)C5)c4)CC3=O)ccc2CC1C(=O)NC1CCCc2ccccc21)C(C)(C)C

> <Shape>
0.229

> <Color>
0.081

> <Negative vol penalty>
0.000

$$$$

  -OEChem-04042323073D

 87 96  0     1  0  0  0  0  0999 V2000
  -23.7019  -29.3812   20.2865 C   0  0  0  0  0  0  0  0  0  0  0  0
  -24.5247  -28.3921   20.8156 C   0  0  0  0  0  0  0  0  0  0  0  0
  -23.0979   -9.8813   19.9214 C   0  0  0  0  0  0  0  0  0  0  0  0
  -23.8635   -9.8695   22.2129 C   0  0  0  0  0  0  0  0  0  0  0  0
  -24.0735  -30.7214   20.3842 C   0  0  0  0  0  0  0  0  0  0  0  0
  -25.7204  -28.7426   21.4418 C   0  0  0  0  0  0  0  0  0  0  0  0
  -26.4379  -26.2523   25.7925 C   0  0  0  0  0  0  0  0  0  0  0  0
  -32.5678  -17.6014   23.5115 C   0  0  0  0  0  0  0  0  0  0  0  0
  -31.9908  -16.7206   22.5967 C   0  0  0  0  0  0  0  0  0  0  0  0
  -22.3719   -8.7141   20.1580 C   0  0  0  0  0  0  0  0  0  0  0  0
  -23.1374   -8.7023   22.4495 C   0  0  0  0  0  0  0  0  0  0  0  0
  -26.8788  -24.9326   25.7054 C   0  0  0  0  0  0  0  0  0  0  0  0
  -19.4395   -7.8548   21.6057 C   0  0  0  0  0  0  0  0  0  0  0  0
  -18.1322   -7.7955   21.1229 C   0  0  0  0  0  0  0  0  0  0  0  0
  -29.1296  -25.6596   26.1793 C   0  0  0  0  0  0  0  0  0  0  0  0
  -28.2550  -20.0145   26.5080 C   0  0  0  0  0  0  0  0  0  0  0  0
  -29.7962  -17.5292   23.2026 C   0  0  0  0  0  0  0  0  0  0  0  0
  -18.7173   -5.8784   19.7739 C   0  0  0  0  0  0  0  0  0  0  0  0
  -23.8438  -10.4590   20.9489 C   0  0  0  0  0  0  0  0  0  0  0  0
  -24.1478  -12.9904   20.8612 C   0  0  0  0  0  0  0  0  0  0  0  0
  -25.2696  -31.0893   21.0203 C   0  0  0  0  0  0  0  0  0  0  0  0
  -27.3429  -27.2887   26.0632 C   0  0  0  0  0  0  0  0  0  0  0  0
  -26.1090  -30.0890   21.5468 C   0  0  0  0  0  0  0  0  0  0  0  0
  -28.6972  -26.9914   26.2717 C   0  0  0  0  0  0  0  0  0  0  0  0
  -31.7590  -18.4460   24.2719 C   0  0  0  0  0  0  0  0  0  0  0  0
  -28.3425  -21.0064   25.5002 C   0  0  0  0  0  0  0  0  0  0  0  0
  -30.3732  -18.4099   24.1174 C   0  0  0  0  0  0  0  0  0  0  0  0
  -30.6050  -16.6845   22.4422 C   0  0  0  0  0  0  0  0  0  0  0  0
  -22.3916   -8.1245   21.4220 C   0  0  0  0  0  0  0  0  0  0  0  0
  -28.2253  -24.6363   25.8960 C   0  0  0  0  0  0  0  0  0  0  0  0
  -20.3858   -6.9260   21.1725 C   0  0  0  0  0  0  0  0  0  0  0  0
  -17.7711   -6.8073   20.2071 C   0  0  0  0  0  0  0  0  0  0  0  0
  -20.0246   -5.9378   20.2566 C   0  0  0  0  0  0  0  0  0  0  0  0
  -24.5944  -11.6645   20.7050 C   0  0  0  0  0  0  0  0  0  0  0  0
  -25.2278  -13.7607   20.5053 C   0  0  0  0  0  0  0  0  0  0  0  0
  -29.0077  -18.9384   26.0924 C   0  0  0  0  0  0  0  0  0  0  0  0
  -29.1459  -20.5061   24.4994 C   0  0  0  0  0  0  0  0  0  0  0  0
  -22.8709  -13.4817   21.2899 C   0  0  0  0  0  0  0  0  0  0  0  0
  -28.3154  -29.8820   24.5035 C   0  0  0  0  0  0  0  0  0  0  0  0
  -29.8866  -30.4848   27.2766 C   0  0  0  0  0  0  0  0  0  0  0  0
  -31.2632  -29.2641   30.1510 C   0  0  0  0  0  0  0  0  0  0  0  0
  -30.6783  -14.8851   20.6807 C   0  0  0  0  0  0  0  0  0  0  0  0
  -25.6522  -32.5476   21.0597 C   0  0  0  0  0  0  0  0  0  0  0  0
  -26.8469  -28.7039   26.1802 C   0  0  0  0  0  0  0  0  0  0  0  0
  -29.7058  -28.0652   26.5849 C   0  0  0  0  0  0  0  0  0  0  0  0
  -26.7531  -32.8614   22.0696 C   0  0  0  0  0  0  0  0  0  0  0  0
  -29.5937  -12.4862   18.2835 C   0  0  0  0  0  0  0  0  0  0  0  0
  -27.8906  -31.8522   21.9501 C   0  0  0  0  0  0  0  0  0  0  0  0
  -28.1597  -12.1676   18.7127 C   0  0  0  0  0  0  0  0  0  0  0  0
  -30.5084  -12.7128   19.4859 C   0  0  0  0  0  0  0  0  0  0  0  0
  -28.5945  -13.3907   20.8811 C   0  0  0  0  0  0  0  0  0  0  0  0
  -27.4017  -30.4312   22.2553 C   0  0  1  0  0  0  0  0  0  0  0  0
  -27.9417  -29.7415   25.9520 C   0  0  1  0  0  0  0  0  0  0  0  0
  -27.6213  -13.2184   19.7034 C   0  0  2  0  0  0  0  0  0  0  0  0
  -32.8621  -18.6643   26.5129 C   0  0  0  0  0  0  0  0  0  0  0  0
  -32.5095  -29.9942   32.2030 C   0  0  0  0  0  0  0  0  0  0  0  0
  -32.4368  -30.7653   25.6250 C   0  0  0  0  0  0  0  0  0  0  0  0
  -33.7509  -30.5417   27.7442 C   0  0  0  0  0  0  0  0  0  0  0  0
  -32.1827  -32.4588   27.4475 C   0  0  0  0  0  0  0  0  0  0  0  0
  -29.1091  -28.3075   31.9410 C   0  0  0  0  0  0  0  0  0  0  0  0
  -32.4094  -19.3778   25.2432 C   0  0  0  0  0  0  0  0  0  0  0  0
  -27.6789  -22.3519   25.5235 C   0  0  0  0  0  0  0  0  0  1  0  0
  -31.2483  -30.1410   27.8304 C   0  0  1  0  0  0  0  0  0  0  0  0
  -31.1436  -29.7148   31.5956 C   0  0  2  0  0  0  0  0  0  0  0  0
  -32.3862  -30.9565   27.1540 C   0  0  0  0  0  0  0  0  0  0  0  0
  -25.8595  -11.5930   20.2825 N   0  0  0  0  0  0  0  0  0  0  0  0
  -29.5443  -19.2483   24.8700 N   0  0  0  0  0  0  0  0  0  0  0  0
  -26.2170  -12.8836   20.1701 N   0  0  0  0  0  0  0  0  0  0  0  0
  -29.1729  -29.4342   26.6827 N   0  0  0  0  0  0  0  0  0  0  0  0
  -29.9365  -13.7236   20.3781 N   0  0  0  0  0  0  0  0  0  0  0  0
  -25.4182  -15.0960   20.4492 N   0  0  0  0  0  0  0  0  0  0  0  0
  -21.8734  -12.5532   21.6176 N   0  0  0  0  0  0  0  0  0  0  0  0
  -30.0194  -15.7896   21.5127 N   0  0  0  0  0  0  0  0  0  0  0  0
  -27.2627  -30.2403   23.6831 N   0  0  0  0  0  0  0  0  0  0  0  0
  -31.1595  -30.3239   29.2750 N   0  0  0  0  0  0  0  0  0  0  0  0
  -30.4721  -28.6643   32.4121 N   0  3  0  0  0  0  0  0  0  0  0  0
  -22.6166  -14.7078   21.3640 O   0  0  0  0  0  0  0  0  0  0  0  0
  -29.4734  -29.6817   24.1560 O   0  0  0  0  0  0  0  0  0  0  0  0
  -29.4685  -31.6412   27.3740 O   0  0  0  0  0  0  0  0  0  0  0  0
  -31.4353  -28.0898   29.8316 O   0  0  0  0  0  0  0  0  0  0  0  0
  -31.8036  -15.0767   20.2126 O   0  0  0  0  0  0  0  0  0  0  0  0
  -29.2398  -17.7715   26.6816 O   0  0  0  0  0  0  0  0  0  0  0  0
  -29.5298  -21.0453   23.3478 O   0  0  0  0  0  0  0  0  0  0  0  0
  -21.6831   -6.9857   21.6532 O   0  0  0  0  0  0  0  0  0  0  0  0
  -28.6584  -23.3491   25.8110 O   0  0  0  0  0  0  0  0  0  1  0  0
  -16.5152   -6.7495   19.7448 F   0  0  0  0  0  0  0  0  0  0  0  0
  -20.9290   -5.0420   19.8377 F   0  0  0  0  0  0  0  0  0  0  0  0
  1  2  1  0  0  0  0
  1  5  2  0  0  0  0
  2  6  2  0  0  0  0
  3 10  2  0  0  0  0
  3 19  1  0  0  0  0
  4 11  1  0  0  0  0
  4 19  2  0  0  0  0
  5 21  1  0  0  0  0
  6 23  1  0  0  0  0
  7 12  2  0  0  0  0
  7 22  1  0  0  0  0
  8  9  2  0  0  0  0
  8 25  1  0  0  0  0
  9 28  1  0  0  0  0
 10 29  1  0  0  0  0
 11 29  2  0  0  0  0
 12 30  1  0  0  0  0
 13 14  2  0  0  0  0
 13 31  1  0  0  0  0
 14 32  1  0  0  0  0
 15 24  1  0  0  0  0
 15 30  2  0  0  0  0
 16 26  1  0  0  0  0
 16 36  2  0  0  0  0
 17 27  1  0  0  0  0
 17 28  2  0  0  0  0
 18 32  2  0  0  0  0
 18 33  1  0  0  0  0
 19 34  1  0  0  0  0
 20 34  1  0  0  0  0
 20 35  2  0  0  0  0
 20 38  1  0  0  0  0
 21 23  2  0  0  0  0
 21 43  1  0  0  0  0
 22 24  2  0  0  0  0
 22 44  1  0  0  0  0
 23 52  1  0  0  0  0
 24 45  1  0  0  0  0
 25 27  2  0  0  0  0
 25 61  1  0  0  0  0
 26 37  2  0  0  0  0
 26 62  1  0  0  0  0
 27 67  1  0  0  0  0
 28 73  1  0  0  0  0
 29 84  1  0  0  0  0
 30 85  1  0  0  0  0
 31 33  2  0  0  0  0
 31 84  1  0  0  0  0
 32 86  1  0  0  0  0
 33 87  1  0  0  0  0
 34 66  2  0  0  0  0
 35 68  1  0  0  0  0
 35 71  1  0  0  0  0
 36 67  1  0  0  0  0
 36 82  1  0  0  0  0
 37 67  1  0  0  0  0
 37 83  1  0  0  0  0
 38 72  1  0  0  0  0
 38 77  2  0  0  0  0
 39 53  1  0  0  0  0
 39 74  1  0  0  0  0
 39 78  2  0  0  0  0
 40 63  1  0  0  0  0
 40 69  1  0  0  0  0
 40 79  2  0  0  0  0
 41 64  1  0  0  0  0
 41 75  1  0  0  0  0
 41 80  2  0  0  0  0
 42 70  1  0  0  0  0
 42 73  1  0  0  0  0
 42 81  2  0  0  0  0
 43 46  1  0  0  0  0
 44 53  1  0  0  0  0
 45 69  1  0  0  0  0
 46 48  1  0  0  0  0
 47 49  1  0  0  0  0
 47 50  1  0  0  0  0
 48 52  1  0  0  0  0
 49 54  1  0  0  0  0
 50 70  1  0  0  0  0
 51 54  1  0  0  0  0
 51 70  1  0  0  0  0
 52 74  1  0  0  0  0
 53 69  1  0  0  0  0
 54 68  1  0  0  0  0
 55 61  1  0  0  0  0
 56 64  1  0  0  0  0
 57 65  1  0  0  0  0
 58 65  1  0  0  0  0
 59 65  1  0  0  0  0
 60 76  1  0  0  0  0
 62 85  1  0  0  0  0
 63 65  1  0  0  0  0
 63 75  1  0  0  0  0
 64 76  1  0  0  0  0
 66 68  1  0  0  0  0
M  CHG  1  76   1
M  ISO  4  42 100  62 101  73 100  85 101
M  END
> <Batch ID>
0061

> <Smiles>
CCc1ccc([100NH:0][100C:0](=O)N2CCCC(n3nc(-c4ccc(Oc5ccc(F)cc5F)cc4)c(C(N)=O)c3N)C2)cc1N1C(=O)CC([101CH2:1][101O:1]c2ccc3c(c2)CN(C(=O)C(NC(=O)C(C)NC)C(C)(C)C)C(C(=O)NC2CCCc4ccccc42)C3)C1=O

> <Shape>
0.215

> <Color>
0.195

> <Negative vol penalty>
0.000

$$$$

  -OEChem-04042323073D

 82 90  0     1  0  0  0  0  0999 V2000
  -18.4661  -31.6189   22.9097 C   0  0  0  0  0  0  0  0  0  0  0  0
  -19.8544  -31.5393   22.8695 C   0  0  0  0  0  0  0  0  0  0  0  0
  -30.4729  -22.9162   17.1667 C   0  0  0  0  0  0  0  0  0  0  0  0
  -28.0160  -12.6991   22.4229 C   0  0  0  0  0  0  0  0  0  0  0  0
  -26.8072  -12.9677   20.3484 C   0  0  0  0  0  0  0  0  0  0  0  0
  -17.6998  -30.4567   22.8330 C   0  0  0  0  0  0  0  0  0  0  0  0
  -20.4773  -30.2971   22.7535 C   0  0  0  0  0  0  0  0  0  0  0  0
  -25.6617  -29.0451   19.7435 C   0  0  0  0  0  0  0  0  0  0  0  0
  -30.7116  -24.1213   17.8272 C   0  0  0  0  0  0  0  0  0  0  0  0
  -29.5335  -22.0177   17.6726 C   0  0  0  0  0  0  0  0  0  0  0  0
  -27.4894  -11.4151   22.5635 C   0  0  0  0  0  0  0  0  0  0  0  0
  -26.2806  -11.6837   20.4890 C   0  0  0  0  0  0  0  0  0  0  0  0
  -26.9808  -28.8957   20.1693 C   0  0  0  0  0  0  0  0  0  0  0  0
  -23.8173  -10.1804   22.2505 C   0  0  0  0  0  0  0  0  0  0  0  0
  -22.4548  -10.0084   22.0064 C   0  0  0  0  0  0  0  0  0  0  0  0
  -26.6729  -26.5050   20.2647 C   0  0  0  0  0  0  0  0  0  0  0  0
  -29.0716  -23.5294   19.4997 C   0  0  0  0  0  0  0  0  0  0  0  0
  -22.9688   -8.4421   20.2402 C   0  0  0  0  0  0  0  0  0  0  0  0
  -27.6748  -13.4754   21.3154 C   0  0  0  0  0  0  0  0  0  0  0  0
  -29.4131  -15.1647   20.5202 C   0  0  0  0  0  0  0  0  0  0  0  0
  -18.3134  -29.2004   22.7064 C   0  0  0  0  0  0  0  0  0  0  0  0
  -24.8336  -27.9246   19.5853 C   0  0  0  0  0  0  0  0  0  0  0  0
  -19.7185  -29.1169   22.6764 C   0  0  0  0  0  0  0  0  0  0  0  0
  -25.3444  -26.6427   19.8343 C   0  0  0  0  0  0  0  0  0  0  0  0
  -30.0109  -24.4279   18.9938 C   0  0  0  0  0  0  0  0  0  0  0  0
  -28.8329  -22.3243   18.8391 C   0  0  0  0  0  0  0  0  0  0  0  0
  -26.6218  -10.9074   21.5966 C   0  0  0  0  0  0  0  0  0  0  0  0
  -27.4858  -27.6257   20.4327 C   0  0  0  0  0  0  0  0  0  0  0  0
  -24.7556   -9.4833   21.4893 C   0  0  0  0  0  0  0  0  0  0  0  0
  -22.0305   -9.1393   21.0013 C   0  0  0  0  0  0  0  0  0  0  0  0
  -24.3313   -8.6142   20.4842 C   0  0  0  0  0  0  0  0  0  0  0  0
  -28.2180  -14.8020   21.1698 C   0  0  0  0  0  0  0  0  0  0  0  0
  -29.4782  -16.5297   20.6581 C   0  0  0  0  0  0  0  0  0  0  0  0
  -30.3781  -14.3414   19.8519 C   0  0  0  0  0  0  0  0  0  0  0  0
  -22.1242  -26.9316   20.9184 C   0  0  0  0  0  0  0  0  0  0  0  0
  -22.3259  -24.6036   18.6685 C   0  0  0  0  0  0  0  0  0  0  0  0
  -31.1474  -26.6547   19.3003 C   0  0  0  0  0  0  0  0  0  0  0  0
  -24.2899  -22.7721   16.5625 C   0  0  0  0  0  0  0  0  0  0  0  0
  -27.0974  -21.5606   20.4978 C   0  0  0  0  0  0  0  0  0  0  0  0
  -17.4445  -27.9681   22.6745 C   0  0  0  0  0  0  0  0  0  0  0  0
  -23.4209  -28.1005   19.0996 C   0  0  0  0  0  0  0  0  0  0  0  0
  -24.5025  -25.4060   19.6604 C   0  0  0  0  0  0  0  0  0  0  0  0
  -18.1724  -26.7224   22.1758 C   0  0  0  0  0  0  0  0  0  0  0  0
  -26.7303  -19.6878   23.5037 C   0  0  0  0  0  0  0  0  0  0  0  0
  -19.5322  -26.5911   22.8543 C   0  0  0  0  0  0  0  0  0  0  0  0
  -27.1830  -18.2796   23.1110 C   0  0  0  0  0  0  0  0  0  0  0  0
  -25.9720  -20.3765   22.3703 C   0  0  0  0  0  0  0  0  0  0  0  0
  -27.1264  -18.9957   20.6880 C   0  0  0  0  0  0  0  0  0  0  0  0
  -20.4304  -27.7899   22.5263 C   0  0  1  0  0  0  0  0  0  0  0  0
  -22.5127  -26.9311   19.4669 C   0  0  1  0  0  0  0  0  0  0  0  0
  -27.9509  -18.2866   21.7747 C   0  0  2  0  0  0  0  0  0  0  0  0
  -24.1749  -20.9175   14.8760 C   0  0  0  0  0  0  0  0  0  0  0  0
  -22.0473  -22.5707   20.9267 C   0  0  0  0  0  0  0  0  0  0  0  0
  -22.8794  -20.8114   19.3518 C   0  0  0  0  0  0  0  0  0  0  0  0
  -20.7523  -22.0180   18.8598 C   0  0  0  0  0  0  0  0  0  0  0  0
  -25.3048  -24.5192   14.4000 C   0  0  0  0  0  0  0  0  0  0  0  0
  -31.0931  -27.8045   20.2997 C   0  0  0  0  0  0  0  0  0  0  0  0
  -29.7175  -28.4466   20.3976 C   0  0  0  0  0  0  0  0  0  1  0  0
  -22.9545  -23.2328   18.6019 C   0  0  1  0  0  0  0  0  0  0  0  0
  -24.1383  -22.4222   15.0932 C   0  0  2  0  0  0  0  0  0  0  0  0
  -22.1739  -22.1815   19.4403 C   0  0  0  0  0  0  0  0  0  0  0  0
  -27.5706  -15.8518   21.6824 N   0  0  0  0  0  0  0  0  0  0  0  0
  -28.3618  -16.8877   21.3550 N   0  0  0  0  0  0  0  0  0  0  0  0
  -23.1258  -25.6305   19.1895 N   0  0  0  0  0  0  0  0  0  0  0  0
  -26.7622  -20.3485   21.1376 N   0  0  0  0  0  0  0  0  0  0  0  0
  -30.3809  -17.4468   20.2499 N   0  0  0  0  0  0  0  0  0  0  0  0
  -30.1567  -12.9584   19.8026 N   0  0  0  0  0  0  0  0  0  0  0  0
  -30.2532  -25.6510   19.6631 N   0  0  0  0  0  0  0  0  0  0  0  0
  -27.8787  -21.4111   19.3525 N   0  0  0  0  0  0  0  0  0  0  0  0
  -20.9821  -27.6587   21.1948 N   0  0  0  0  0  0  0  0  0  0  0  0
  -23.0666  -22.9034   17.1851 N   0  0  0  0  0  0  0  0  0  0  0  0
  -25.2376  -23.0387   14.2978 N   0  3  0  0  0  0  0  0  0  0  0  0
  -31.4144  -14.8163   19.3284 O   0  0  0  0  0  0  0  0  0  0  0  0
  -22.8090  -26.3166   21.7274 O   0  0  0  0  0  0  0  0  0  0  0  0
  -21.1702  -24.7591   18.2662 O   0  0  0  0  0  0  0  0  0  0  0  0
  -31.8968  -26.6684   18.3295 O   0  0  0  0  0  0  0  0  0  0  0  0
  -25.3841  -22.9112   17.1047 O   0  0  0  0  0  0  0  0  0  0  0  0
  -26.7421  -22.6524   20.9491 O   0  0  0  0  0  0  0  0  0  0  0  0
  -26.1079   -9.6545   21.7333 O   0  0  0  0  0  0  0  0  0  0  0  0
  -28.7728  -27.4771   20.8491 O   0  0  0  0  0  0  0  0  0  1  0  0
  -20.7220   -8.9731   20.7681 F   0  0  0  0  0  0  0  0  0  0  0  0
  -25.2280   -7.9408   19.7505 F   0  0  0  0  0  0  0  0  0  0  0  0
  1  2  1  0  0  0  0
  1  6  2  0  0  0  0
  2  7  2  0  0  0  0
  3  9  2  0  0  0  0
  3 10  1  0  0  0  0
  4 11  2  0  0  0  0
  4 19  1  0  0  0  0
  5 12  1  0  0  0  0
  5 19  2  0  0  0  0
  6 21  1  0  0  0  0
  7 23  1  0  0  0  0
  8 13  2  0  0  0  0
  8 22  1  0  0  0  0
  9 25  1  0  0  0  0
 10 26  2  0  0  0  0
 11 27  1  0  0  0  0
 12 27  2  0  0  0  0
 13 28  1  0  0  0  0
 14 15  2  0  0  0  0
 14 29  1  0  0  0  0
 15 30  1  0  0  0  0
 16 24  1  0  0  0  0
 16 28  2  0  0  0  0
 17 25  2  0  0  0  0
 17 26  1  0  0  0  0
 18 30  2  0  0  0  0
 18 31  1  0  0  0  0
 19 32  1  0  0  0  0
 20 32  1  0  0  0  0
 20 33  2  0  0  0  0
 20 34  1  0  0  0  0
 21 23  2  0  0  0  0
 21 40  1  0  0  0  0
 22 24  2  0  0  0  0
 22 41  1  0  0  0  0
 23 49  1  0  0  0  0
 24 42  1  0  0  0  0
 25 68  1  0  0  0  0
 26 69  1  0  0  0  0
 27 79  1  0  0  0  0
 28 80  1  0  0  0  0
 29 31  2  0  0  0  0
 29 79  1  0  0  0  0
 30 81  1  0  0  0  0
 31 82  1  0  0  0  0
 32 62  2  0  0  0  0
 33 63  1  0  0  0  0
 33 66  1  0  0  0  0
 34 67  1  0  0  0  0
 34 73  2  0  0  0  0
 35 50  1  0  0  0  0
 35 70  1  0  0  0  0
 35 74  2  0  0  0  0
 36 59  1  0  0  0  0
 36 64  1  0  0  0  0
 36 75  2  0  0  0  0
 37 57  1  0  0  0  0
 37 68  1  0  0  0  0
 37 76  2  0  0  0  0
 38 60  1  0  0  0  0
 38 71  1  0  0  0  0
 38 77  2  0  0  0  0
 39 65  1  0  0  0  0
 39 69  1  0  0  0  0
 39 78  2  0  0  0  0
 40 43  1  0  0  0  0
 41 50  1  0  0  0  0
 42 64  1  0  0  0  0
 43 45  1  0  0  0  0
 44 46  1  0  0  0  0
 44 47  1  0  0  0  0
 45 49  1  0  0  0  0
 46 51  1  0  0  0  0
 47 65  1  0  0  0  0
 48 51  1  0  0  0  0
 48 65  1  0  0  0  0
 49 70  1  0  0  0  0
 50 64  1  0  0  0  0
 51 63  1  0  0  0  0
 52 60  1  0  0  0  0
 53 61  1  0  0  0  0
 54 61  1  0  0  0  0
 55 61  1  0  0  0  0
 56 72  1  0  0  0  0
 57 58  1  0  0  0  0
 58 80  1  0  0  0  0
 59 61  1  0  0  0  0
 59 71  1  0  0  0  0
 60 72  1  0  0  0  0
 62 63  1  0  0  0  0
M  CHG  1  72   1
M  ISO  4  39 100  58 101  69 100  80 101
M  END
> <Batch ID>
0061

> <Smiles>
CNC(C)C(=O)NC(C(=O)N1Cc2cc([101O:1][101CH2:1]CC(=O)Nc3cccc([100NH:0][100C:0](=O)N4CCCC(n5nc(-c6ccc(Oc7ccc(F)cc7F)cc6)c(C(N)=O)c5N)C4)c3)ccc2CC1C(=O)NC1CCCc2ccccc21)C(C)(C)C

> <Shape>
0.268

> <Color>
0.082

> <Negative vol penalty>
0.000

$$$$

  -OEChem-04042323073D

 91101  0     1  0  0  0  0  0999 V2000
  -27.5447  -37.6778   23.2948 C   0  0  0  0  0  0  0  0  0  0  0  0
  -28.0760  -36.7026   22.4569 C   0  0  0  0  0  0  0  0  0  0  0  0
  -23.2069   -6.8569   18.4750 C   0  0  0  0  0  0  0  0  0  0  0  0
  -25.3335   -8.0034   18.4860 C   0  0  0  0  0  0  0  0  0  0  0  0
  -26.7336  -37.3078   24.3667 C   0  0  0  0  0  0  0  0  0  0  0  0
  -27.7974  -35.3565   22.6912 C   0  0  0  0  0  0  0  0  0  0  0  0
  -26.8039  -29.1734   19.2130 C   0  0  0  0  0  0  0  0  0  0  0  0
  -29.3009  -16.9330   20.4293 C   0  0  0  0  0  0  0  0  0  0  0  0
  -23.7473   -5.8625   17.6597 C   0  0  0  0  0  0  0  0  0  0  0  0
  -25.8739   -7.0090   17.6707 C   0  0  0  0  0  0  0  0  0  0  0  0
  -27.2607  -27.8562   19.2058 C   0  0  0  0  0  0  0  0  0  0  0  0
  -24.4907   -5.4560   14.3876 C   0  0  0  0  0  0  0  0  0  0  0  0
  -29.1376  -15.6944   21.0495 C   0  0  0  0  0  0  0  0  0  0  0  0
  -23.7334   -5.0316   13.2958 C   0  0  0  0  0  0  0  0  0  0  0  0
  -28.0388  -22.9394   18.3484 C   0  0  0  0  0  0  0  0  0  0  0  0
  -25.7824  -27.3398   21.0408 C   0  0  0  0  0  0  0  0  0  0  0  0
  -29.3237  -23.4211   20.3367 C   0  0  0  0  0  0  0  0  0  0  0  0
  -26.9731  -16.9161   19.7827 C   0  0  0  0  0  0  0  0  0  0  0  0
  -23.7089   -2.7856   14.1858 C   0  0  0  0  0  0  0  0  0  0  0  0
  -24.0001   -7.9274   18.8881 C   0  0  0  0  0  0  0  0  0  0  0  0
  -22.8854   -8.7942   21.0126 C   0  0  0  0  0  0  0  0  0  0  0  0
  -26.4370  -35.9571   24.6086 C   0  0  0  0  0  0  0  0  0  0  0  0
  -25.8392  -29.5871   20.1428 C   0  0  0  0  0  0  0  0  0  0  0  0
  -26.9827  -34.9680   23.7682 C   0  0  0  0  0  0  0  0  0  0  0  0
  -28.3446  -21.5805   18.4760 C   0  0  0  0  0  0  0  0  0  0  0  0
  -25.3131  -28.6622   21.0560 C   0  0  0  0  0  0  0  0  0  0  0  0
  -29.1480  -21.1452   19.5335 C   0  0  0  0  0  0  0  0  0  0  0  0
  -28.5216  -23.8557   19.2826 C   0  0  0  0  0  0  0  0  0  0  0  0
  -29.6438  -22.0692   20.4592 C   0  0  0  0  0  0  0  0  0  0  0  0
  -28.2186  -17.5439   19.7959 C   0  0  0  0  0  0  0  0  0  0  0  0
  -26.8098  -15.6774   20.4028 C   0  0  0  0  0  0  0  0  0  0  0  0
  -25.0807   -5.9385   17.2575 C   0  0  0  0  0  0  0  0  0  0  0  0
  -26.7521  -26.9399   20.1216 C   0  0  0  0  0  0  0  0  0  0  0  0
  -24.8572   -4.5451   15.3785 C   0  0  0  0  0  0  0  0  0  0  0  0
  -23.3425   -3.6965   13.1949 C   0  0  0  0  0  0  0  0  0  0  0  0
  -27.8921  -15.0665   21.0362 C   0  0  0  0  0  0  0  0  0  0  0  0
  -24.4663   -3.2100   15.2775 C   0  0  0  0  0  0  0  0  0  0  0  0
  -23.4423   -8.9553   19.7298 C   0  0  0  0  0  0  0  0  0  0  0  0
  -22.5024  -10.0604   21.3822 C   0  0  0  0  0  0  0  0  0  0  0  0
  -27.6154  -19.1933   18.0357 C   0  0  0  0  0  0  0  0  0  0  0  0
  -22.7283   -7.6062   21.7999 C   0  0  0  0  0  0  0  0  0  0  0  0
  -25.7646  -31.7182   22.5001 C   0  0  0  0  0  0  0  0  0  0  0  0
  -22.6303  -30.8916   22.6246 C   0  0  0  0  0  0  0  0  0  0  0  0
  -20.2196  -28.5651   21.9747 C   0  0  0  0  0  0  0  0  0  0  0  0
  -24.3683  -15.5133   19.8042 C   0  0  0  0  0  0  0  0  0  0  0  0
  -27.8922  -20.5737   17.4629 C   0  0  0  0  0  0  0  0  0  0  0  0
  -25.5939  -35.6025   25.8078 C   0  0  0  0  0  0  0  0  0  0  0  0
  -25.3373  -31.0049   20.1201 C   0  0  0  0  0  0  0  0  0  0  0  0
  -24.2613  -29.0509   22.0615 C   0  0  0  0  0  0  0  0  0  0  0  0
  -29.4972  -19.6860   19.6039 C   0  0  0  0  0  0  0  0  0  0  0  0
  -25.0417  -34.1800   25.7649 C   0  0  0  0  0  0  0  0  0  0  0  0
  -21.0594  -14.2297   19.5195 C   0  0  0  0  0  0  0  0  0  0  0  0
  -26.1379  -33.1933   25.3753 C   0  0  0  0  0  0  0  0  0  0  0  0
  -21.2436  -12.7173   19.6640 C   0  0  0  0  0  0  0  0  0  0  0  0
  -22.2124  -14.8703   18.7488 C   0  0  0  0  0  0  0  0  0  0  0  0
  -23.7359  -13.0513   19.4114 C   0  0  0  0  0  0  0  0  0  0  0  0
  -26.6832  -33.4991   23.9751 C   0  0  1  0  0  0  0  0  0  0  0  0
  -24.7277  -31.4443   21.4477 C   0  0  1  0  0  0  0  0  0  0  0  0
  -22.6318  -12.3708   20.2370 C   0  0  2  0  0  0  0  0  0  0  0  0
  -30.5285  -21.6527   21.5889 C   0  0  0  0  0  0  0  0  0  0  0  0
  -17.7557  -28.1591   22.2234 C   0  0  0  0  0  0  0  0  0  0  0  0
  -23.0253  -30.3308   25.5977 C   0  0  0  0  0  0  0  0  0  0  0  0
  -20.8688  -29.0591   25.5731 C   0  0  0  0  0  0  0  0  0  0  0  0
  -20.8852  -31.4939   25.0308 C   0  0  0  0  0  0  0  0  0  0  0  0
  -19.8448  -28.3319   19.0483 C   0  0  0  0  0  0  0  0  0  0  0  0
  -28.1855  -25.3117   19.1468 C   0  0  0  0  0  0  0  0  0  1  0  0
  -21.8289  -29.8460   23.3617 C   0  0  1  0  0  0  0  0  0  0  0  0
  -18.8573  -28.6833   21.3154 C   0  0  2  0  0  0  0  0  0  0  0  0
  -21.6733  -30.1753   24.8733 C   0  0  0  0  0  0  0  0  0  0  0  0
  -23.4172  -10.2238   19.3124 N   0  0  0  0  0  0  0  0  0  0  0  0
  -22.8398  -10.8713   20.3387 N   0  0  0  0  0  0  0  0  0  0  0  0
  -28.3878  -18.8252   19.1544 N   0  0  0  0  0  0  0  0  0  0  0  0
  -23.8074  -30.4503   22.0036 N   0  0  0  0  0  0  0  0  0  0  0  0
  -23.4953  -14.5015   19.3512 N   0  0  0  0  0  0  0  0  0  0  0  0
  -21.9133  -10.5481   22.4946 N   0  0  0  0  0  0  0  0  0  0  0  0
  -23.7632   -7.2406   22.6714 N   0  0  0  0  0  0  0  0  0  0  0  0
  -25.5435  -15.0418   20.3883 N   0  0  0  0  0  0  0  0  0  0  0  0
  -25.7682  -33.0209   22.9608 N   0  0  0  0  0  0  0  0  0  0  0  0
  -20.5648  -29.7199   22.6444 N   0  0  0  0  0  0  0  0  0  0  0  0
  -18.8279  -27.9063   20.0441 N   0  3  0  0  0  0  0  0  0  0  0  0
  -26.8042  -18.4715   17.4507 O   0  0  0  0  0  0  0  0  0  0  0  0
  -21.7077   -6.8813   21.7204 O   0  0  0  0  0  0  0  0  0  0  0  0
  -26.5055  -30.8141   22.8680 O   0  0  0  0  0  0  0  0  0  0  0  0
  -22.2232  -32.0557   22.5947 O   0  0  0  0  0  0  0  0  0  0  0  0
  -20.9070  -27.5486   21.9059 O   0  0  0  0  0  0  0  0  0  0  0  0
  -24.0813  -16.7092   19.7074 O   0  0  0  0  0  0  0  0  0  0  0  0
  -25.6084   -4.9681   16.4622 O   0  0  0  0  0  0  0  0  0  0  0  0
  -27.1968  -25.6538   20.1172 O   0  0  0  0  0  0  0  0  0  1  0  0
  -22.6139   -3.2894   12.1472 F   0  0  0  0  0  0  0  0  0  0  0  0
  -27.7472  -13.8761   21.6352 F   0  0  0  0  0  0  0  0  0  0  0  0
  -24.8143   -2.3306   16.2269 F   0  0  0  0  0  0  0  0  0  0  0  0
  1  2  1  0  0  0  0
  1  5  2  0  0  0  0
  2  6  2  0  0  0  0
  3  9  2  0  0  0  0
  3 20  1  0  0  0  0
  4 10  1  0  0  0  0
  4 20  2  0  0  0  0
  5 22  1  0  0  0  0
  6 24  1  0  0  0  0
  7 11  2  0  0  0  0
  7 23  1  0  0  0  0
  8 13  2  0  0  0  0
  8 30  1  0  0  0  0
  9 32  1  0  0  0  0
 10 32  2  0  0  0  0
 11 33  1  0  0  0  0
 12 14  2  0  0  0  0
 12 34  1  0  0  0  0
 13 36  1  0  0  0  0
 14 35  1  0  0  0  0
 15 25  1  0  0  0  0
 15 28  2  0  0  0  0
 16 26  1  0  0  0  0
 16 33  2  0  0  0  0
 17 28  1  0  0  0  0
 17 29  2  0  0  0  0
 18 30  2  0  0  0  0
 18 31  1  0  0  0  0
 19 35  2  0  0  0  0
 19 37  1  0  0  0  0
 20 38  1  0  0  0  0
 21 38  1  0  0  0  0
 21 39  2  0  0  0  0
 21 41  1  0  0  0  0
 22 24  2  0  0  0  0
 22 47  1  0  0  0  0
 23 26  2  0  0  0  0
 23 48  1  0  0  0  0
 24 57  1  0  0  0  0
 25 27  2  0  0  0  0
 25 46  1  0  0  0  0
 26 49  1  0  0  0  0
 27 29  1  0  0  0  0
 27 50  1  0  0  0  0
 28 66  1  0  0  0  0
 29 60  1  0  0  0  0
 30 72  1  0  0  0  0
 31 36  2  0  0  0  0
 31 77  1  0  0  0  0
 32 87  1  0  0  0  0
 33 88  1  0  0  0  0
 34 37  2  0  0  0  0
 34 87  1  0  0  0  0
 35 89  1  0  0  0  0
 36 90  1  0  0  0  0
 37 91  1  0  0  0  0
 38 70  2  0  0  0  0
 39 71  1  0  0  0  0
 39 75  1  0  0  0  0
 40 46  1  0  0  0  0
 40 72  1  0  0  0  0
 40 81  2  0  0  0  0
 41 76  1  0  0  0  0
 41 82  2  0  0  0  0
 42 58  1  0  0  0  0
 42 78  1  0  0  0  0
 42 83  2  0  0  0  0
 43 67  1  0  0  0  0
 43 73  1  0  0  0  0
 43 84  2  0  0  0  0
 44 68  1  0  0  0  0
 44 79  1  0  0  0  0
 44 85  2  0  0  0  0
 45 74  1  0  0  0  0
 45 77  1  0  0  0  0
 45 86  2  0  0  0  0
 47 51  1  0  0  0  0
 48 58  1  0  0  0  0
 49 73  1  0  0  0  0
 50 72  1  0  0  0  0
 51 53  1  0  0  0  0
 52 54  1  0  0  0  0
 52 55  1  0  0  0  0
 53 57  1  0  0  0  0
 54 59  1  0  0  0  0
 55 74  1  0  0  0  0
 56 59  1  0  0  0  0
 56 74  1  0  0  0  0
 57 78  1  0  0  0  0
 58 73  1  0  0  0  0
 59 71  1  0  0  0  0
 61 68  1  0  0  0  0
 62 69  1  0  0  0  0
 63 69  1  0  0  0  0
 64 69  1  0  0  0  0
 65 80  1  0  0  0  0
 66 88  1  0  0  0  0
 67 69  1  0  0  0  0
 67 79  1  0  0  0  0
 68 80  1  0  0  0  0
 70 71  1  0  0  0  0
M  CHG  1  80   1
M  ISO  4  45 100  66 101  77 100  88 101
M  END
> <Batch ID>
0061

> <Smiles>
CNC(C)C(=O)NC(C(=O)N1Cc2cc([101O:1][101CH2:1]c3cc(C)c4c(c3)CC(=O)N(c3ccc(F)c([100NH:0][100C:0](=O)N5CCCC(n6nc(-c7ccc(Oc8ccc(F)cc8F)cc7)c(C(N)=O)c6N)C5)c3)C4)ccc2CC1C(=O)NC1CCCc2ccccc21)C(C)(C)C

> <Shape>
0.290

> <Color>
0.091

> <Negative vol penalty>
0.000

$$$$

  -OEChem-04042323073D

 85 93  0     1  0  0  0  0  0999 V2000
  -28.2324  -10.6049   17.0731 C   0  0  0  0  0  0  0  0  0  0  0  0
  -27.0173  -10.6239   17.7503 C   0  0  0  0  0  0  0  0  0  0  0  0
  -18.0020  -28.3470   23.4078 C   0  0  0  0  0  0  0  0  0  0  0  0
  -29.4743  -28.2364   19.6005 C   0  0  0  0  0  0  0  0  0  0  0  0
  -27.7925  -26.6079   19.0033 C   0  0  0  0  0  0  0  0  0  0  0  0
  -17.6941  -27.2749   22.5702 C   0  0  0  0  0  0  0  0  0  0  0  0
  -29.2429  -11.4961   17.4316 C   0  0  0  0  0  0  0  0  0  0  0  0
  -26.8125  -11.5333   18.7873 C   0  0  0  0  0  0  0  0  0  0  0  0
  -21.4286  -16.3118   18.5193 C   0  0  0  0  0  0  0  0  0  0  0  0
  -19.2716  -28.9233   23.3649 C   0  0  0  0  0  0  0  0  0  0  0  0
  -30.4412  -27.2312   19.6189 C   0  0  0  0  0  0  0  0  0  0  0  0
  -28.7594  -25.6027   19.0217 C   0  0  0  0  0  0  0  0  0  0  0  0
  -20.2948  -17.1157   18.6393 C   0  0  0  0  0  0  0  0  0  0  0  0
  -30.3783  -23.7452   21.3368 C   0  0  0  0  0  0  0  0  0  0  0  0
  -30.0568  -22.5485   21.9772 C   0  0  0  0  0  0  0  0  0  0  0  0
  -21.1285  -17.9976   20.7310 C   0  0  0  0  0  0  0  0  0  0  0  0
  -30.3934  -21.3501   19.9066 C   0  0  0  0  0  0  0  0  0  0  0  0
  -28.1500  -27.9248   19.2927 C   0  0  0  0  0  0  0  0  0  0  0  0
  -18.6557  -26.7791   21.6899 C   0  0  0  0  0  0  0  0  0  0  0  0
  -26.7708  -29.7573   18.1759 C   0  0  0  0  0  0  0  0  0  0  0  0
  -29.0469  -12.4235   18.4670 C   0  0  0  0  0  0  0  0  0  0  0  0
  -22.4251  -16.3592   19.4982 C   0  0  0  0  0  0  0  0  0  0  0  0
  -27.8218  -12.4369   19.1609 C   0  0  0  0  0  0  0  0  0  0  0  0
  -22.2722  -17.2039   20.6099 C   0  0  0  0  0  0  0  0  0  0  0  0
  -19.9253  -27.3553   21.6470 C   0  0  0  0  0  0  0  0  0  0  0  0
  -20.2332  -28.4274   22.4845 C   0  0  0  0  0  0  0  0  0  0  0  0
  -30.0837  -25.9144   19.3295 C   0  0  0  0  0  0  0  0  0  0  0  0
  -20.1451  -17.9563   19.7426 C   0  0  0  0  0  0  0  0  0  0  0  0
  -30.7073  -23.7444   19.9813 C   0  0  0  0  0  0  0  0  0  0  0  0
  -30.0644  -21.3509   21.2621 C   0  0  0  0  0  0  0  0  0  0  0  0
  -30.7149  -22.5469   19.2662 C   0  0  0  0  0  0  0  0  0  0  0  0
  -27.1507  -28.9626   19.2740 C   0  0  0  0  0  0  0  0  0  0  0  0
  -25.7928  -30.5841   18.6723 C   0  0  0  0  0  0  0  0  0  0  0  0
  -18.3058  -25.6772   20.8441 C   0  0  0  0  0  0  0  0  0  0  0  0
  -17.8768  -24.4881   21.2968 C   0  0  0  0  0  0  0  0  0  0  0  0
  -27.2584  -29.7489   16.8276 C   0  0  0  0  0  0  0  0  0  0  0  0
  -25.7576  -15.1008   20.6759 C   0  0  0  0  0  0  0  0  0  0  0  0
  -25.6891  -18.1135   21.2500 C   0  0  0  0  0  0  0  0  0  0  0  0
  -18.2028  -21.0063   20.0218 C   0  0  0  0  0  0  0  0  0  0  0  0
  -25.3796  -21.5098   21.3280 C   0  0  0  0  0  0  0  0  0  0  0  0
  -21.9641  -30.0973   23.2340 C   0  0  0  0  0  0  0  0  0  0  0  0
  -30.1856  -13.3353   18.8502 C   0  0  0  0  0  0  0  0  0  0  0  0
  -23.6342  -15.4655   19.4410 C   0  0  0  0  0  0  0  0  0  0  0  0
  -23.3535  -17.1964   21.6557 C   0  0  0  0  0  0  0  0  0  0  0  0
  -29.7543  -14.5194   19.7116 C   0  0  0  0  0  0  0  0  0  0  0  0
  -24.3665  -32.6777   22.7364 C   0  0  0  0  0  0  0  0  0  0  0  0
  -28.8336  -14.0547   20.8355 C   0  0  0  0  0  0  0  0  0  0  0  0
  -25.3150  -32.0925   21.6876 C   0  0  0  0  0  0  0  0  0  0  0  0
  -23.8749  -31.6117   23.7141 C   0  0  0  0  0  0  0  0  0  0  0  0
  -24.2278  -29.8385   22.0406 C   0  0  0  0  0  0  0  0  0  0  0  0
  -27.5527  -13.4253   20.2748 C   0  0  1  0  0  0  0  0  0  0  0  0
  -24.9045  -16.1326   19.9982 C   0  0  1  0  0  0  0  0  0  0  0  0
  -24.6984  -30.8619   20.9942 C   0  0  2  0  0  0  0  0  0  0  0  0
  -20.9633  -26.8280   20.7038 C   0  0  0  0  0  0  0  0  0  0  0  0
  -26.6110  -23.5846   22.0181 C   0  0  0  0  0  0  0  0  0  0  0  0
  -25.0436  -17.5203   24.1716 C   0  0  0  0  0  0  0  0  0  0  0  0
  -25.4043  -19.9471   24.6702 C   0  0  0  0  0  0  0  0  0  0  0  0
  -27.2839  -18.5639   23.7889 C   0  0  0  0  0  0  0  0  0  0  0  0
  -25.3948  -22.5609   18.5614 C   0  0  0  0  0  0  0  0  0  0  0  0
  -17.4926  -23.3610   20.3916 C   0  0  0  0  0  0  0  0  0  0  0  0
  -19.1872  -19.9811   20.5428 C   0  0  0  0  0  0  0  0  0  1  0  0
  -25.3868  -19.2049   22.2454 C   0  0  1  0  0  0  0  0  0  0  0  0
  -26.3171  -22.6175   20.8819 C   0  0  2  0  0  0  0  0  0  0  0  0
  -25.7606  -18.8010   23.6995 C   0  0  0  0  0  0  0  0  0  0  0  0
  -26.4696  -29.2580   20.3844 N   0  0  0  0  0  0  0  0  0  0  0  0
  -25.6520  -30.2476   19.9865 N   0  0  0  0  0  0  0  0  0  0  0  0
  -24.6759  -17.1772   21.0109 N   0  0  0  0  0  0  0  0  0  0  0  0
  -23.2997  -30.4787   22.9860 N   0  0  0  0  0  0  0  0  0  0  0  0
  -25.0481  -31.5588   18.1085 N   0  0  0  0  0  0  0  0  0  0  0  0
  -28.2651  -28.8353   16.4868 N   0  0  0  0  0  0  0  0  0  0  0  0
  -21.5164  -29.0278   22.4593 N   0  0  0  0  0  0  0  0  0  0  0  0
  -26.6373  -14.4538   19.8292 N   0  0  0  0  0  0  0  0  0  0  0  0
  -18.3173  -22.2137   20.6928 N   0  0  0  0  0  0  0  0  0  0  0  0
  -26.0716  -20.3991   21.7622 N   0  0  0  0  0  0  0  0  0  0  0  0
  -25.7135  -23.3847   19.7559 N   0  3  0  0  0  0  0  0  0  0  0  0
  -26.8260  -30.5397   15.9551 O   0  0  0  0  0  0  0  0  0  0  0  0
  -25.6291  -14.9061   21.8789 O   0  0  0  0  0  0  0  0  0  0  0  0
  -26.7947  -18.0861   20.7022 O   0  0  0  0  0  0  0  0  0  0  0  0
  -17.4109  -20.7658   19.1146 O   0  0  0  0  0  0  0  0  0  0  0  0
  -24.1560  -21.6204   21.2979 O   0  0  0  0  0  0  0  0  0  0  0  0
  -21.2601  -30.6944   24.0525 O   0  0  0  0  0  0  0  0  0  0  0  0
  -31.0270  -24.9333   19.3472 O   0  0  0  0  0  0  0  0  0  0  0  0
  -19.0379  -18.7418   19.8513 O   0  0  0  0  0  0  0  0  0  1  0  0
  -29.7572  -20.2016   21.8775 F   0  0  0  0  0  0  0  0  0  0  0  0
  -31.0313  -22.5396   17.9640 F   0  0  0  0  0  0  0  0  0  0  0  0
  1  2  1  0  0  0  0
  1  7  2  0  0  0  0
  2  8  2  0  0  0  0
  3  6  2  0  0  0  0
  3 10  1  0  0  0  0
  4 11  2  0  0  0  0
  4 18  1  0  0  0  0
  5 12  1  0  0  0  0
  5 18  2  0  0  0  0
  6 19  1  0  0  0  0
  7 21  1  0  0  0  0
  8 23  1  0  0  0  0
  9 13  2  0  0  0  0
  9 22  1  0  0  0  0
 10 26  2  0  0  0  0
 11 27  1  0  0  0  0
 12 27  2  0  0  0  0
 13 28  1  0  0  0  0
 14 15  2  0  0  0  0
 14 29  1  0  0  0  0
 15 30  1  0  0  0  0
 16 24  1  0  0  0  0
 16 28  2  0  0  0  0
 17 30  2  0  0  0  0
 17 31  1  0  0  0  0
 18 32  1  0  0  0  0
 19 25  2  0  0  0  0
 19 34  1  0  0  0  0
 20 32  1  0  0  0  0
 20 33  2  0  0  0  0
 20 36  1  0  0  0  0
 21 23  2  0  0  0  0
 21 42  1  0  0  0  0
 22 24  2  0  0  0  0
 22 43  1  0  0  0  0
 23 51  1  0  0  0  0
 24 44  1  0  0  0  0
 25 26  1  0  0  0  0
 25 54  1  0  0  0  0
 26 71  1  0  0  0  0
 27 82  1  0  0  0  0
 28 83  1  0  0  0  0
 29 31  2  0  0  0  0
 29 82  1  0  0  0  0
 30 84  1  0  0  0  0
 31 85  1  0  0  0  0
 32 65  2  0  0  0  0
 33 66  1  0  0  0  0
 33 69  1  0  0  0  0
 34 35  2  0  0  0  0
 35 60  1  0  0  0  0
 36 70  1  0  0  0  0
 36 76  2  0  0  0  0
 37 52  1  0  0  0  0
 37 72  1  0  0  0  0
 37 77  2  0  0  0  0
 38 62  1  0  0  0  0
 38 67  1  0  0  0  0
 38 78  2  0  0  0  0
 39 61  1  0  0  0  0
 39 73  1  0  0  0  0
 39 79  2  0  0  0  0
 40 63  1  0  0  0  0
 40 74  1  0  0  0  0
 40 80  2  0  0  0  0
 41 68  1  0  0  0  0
 41 71  1  0  0  0  0
 41 81  2  0  0  0  0
 42 45  1  0  0  0  0
 43 52  1  0  0  0  0
 44 67  1  0  0  0  0
 45 47  1  0  0  0  0
 46 48  1  0  0  0  0
 46 49  1  0  0  0  0
 47 51  1  0  0  0  0
 48 53  1  0  0  0  0
 49 68  1  0  0  0  0
 50 53  1  0  0  0  0
 50 68  1  0  0  0  0
 51 72  1  0  0  0  0
 52 67  1  0  0  0  0
 53 66  1  0  0  0  0
 55 63  1  0  0  0  0
 56 64  1  0  0  0  0
 57 64  1  0  0  0  0
 58 64  1  0  0  0  0
 59 75  1  0  0  0  0
 60 73  1  0  0  0  0
 61 83  1  0  0  0  0
 62 64  1  0  0  0  0
 62 74  1  0  0  0  0
 63 75  1  0  0  0  0
 65 66  1  0  0  0  0
M  CHG  1  75   1
M  ISO  4  41 100  61 101  71 100  83 101
M  END
> <Batch ID>
0061

> <Smiles>
CNC(C)C(=O)NC(C(=O)N1Cc2cc([101O:1][101CH2:1]C(=O)NCC=Cc3cccc([100NH:0][100C:0](=O)N4CCCC(n5nc(-c6ccc(Oc7ccc(F)cc7F)cc6)c(C(N)=O)c5N)C4)c3C)ccc2CC1C(=O)NC1CCCc2ccccc21)C(C)(C)C

> <Shape>
0.235

> <Color>
0.066

> <Negative vol penalty>
0.000

$$$$

  -OEChem-04042323073D

 87 96  0     1  0  0  0  0  0999 V2000
  -22.8338   -7.9888   20.6121 C   0  0  0  0  0  0  0  0  0  0  0  0
  -21.8786   -8.9274   20.2354 C   0  0  0  0  0  0  0  0  0  0  0  0
  -17.9801  -28.2892   22.3234 C   0  0  0  0  0  0  0  0  0  0  0  0
  -29.9152  -26.9314   21.1161 C   0  0  0  0  0  0  0  0  0  0  0  0
  -28.3117  -25.1360   21.3224 C   0  0  0  0  0  0  0  0  0  0  0  0
  -23.9214   -8.3776   21.3930 C   0  0  0  0  0  0  0  0  0  0  0  0
  -22.0098  -10.2553   20.6404 C   0  0  0  0  0  0  0  0  0  0  0  0
  -20.6263  -16.9281   18.4322 C   0  0  0  0  0  0  0  0  0  0  0  0
  -17.8449  -26.9808   22.7874 C   0  0  0  0  0  0  0  0  0  0  0  0
  -19.2500  -28.8319   22.1269 C   0  0  0  0  0  0  0  0  0  0  0  0
  -30.8651  -26.1599   21.7853 C   0  0  0  0  0  0  0  0  0  0  0  0
  -29.2617  -24.3644   21.9916 C   0  0  0  0  0  0  0  0  0  0  0  0
  -19.9999  -18.0969   18.8626 C   0  0  0  0  0  0  0  0  0  0  0  0
  -31.3771  -21.7845   23.4364 C   0  0  0  0  0  0  0  0  0  0  0  0
  -31.5091  -20.4477   23.0610 C   0  0  0  0  0  0  0  0  0  0  0  0
  -21.9620  -18.6697   20.1436 C   0  0  0  0  0  0  0  0  0  0  0  0
  -18.9495  -22.7306   20.5894 C   0  0  0  0  0  0  0  0  0  0  0  0
  -32.0790  -21.1344   20.8158 C   0  0  0  0  0  0  0  0  0  0  0  0
  -28.6384  -26.4195   20.8846 C   0  0  0  0  0  0  0  0  0  0  0  0
  -27.4241  -27.2640   18.8062 C   0  0  0  0  0  0  0  0  0  0  0  0
  -24.0712   -9.7129   21.7997 C   0  0  0  0  0  0  0  0  0  0  0  0
  -21.9234  -16.6154   18.8637 C   0  0  0  0  0  0  0  0  0  0  0  0
  -23.0997  -10.6621   21.4286 C   0  0  0  0  0  0  0  0  0  0  0  0
  -22.6037  -17.4976   19.7152 C   0  0  0  0  0  0  0  0  0  0  0  0
  -18.9796  -26.2150   23.0550 C   0  0  0  0  0  0  0  0  0  0  0  0
  -19.9522  -22.1348   21.3936 C   0  0  0  0  0  0  0  0  0  0  0  0
  -20.2495  -26.7577   22.8586 C   0  0  0  0  0  0  0  0  0  0  0  0
  -20.3847  -28.0662   22.3946 C   0  0  0  0  0  0  0  0  0  0  0  0
  -30.5384  -24.8764   22.2231 C   0  0  0  0  0  0  0  0  0  0  0  0
  -20.6666  -18.9665   19.7207 C   0  0  0  0  0  0  0  0  0  0  0  0
  -31.5959  -22.7964   22.5015 C   0  0  0  0  0  0  0  0  0  0  0  0
  -31.8601  -20.1226   21.7507 C   0  0  0  0  0  0  0  0  0  0  0  0
  -31.9469  -22.4713   21.1913 C   0  0  0  0  0  0  0  0  0  0  0  0
  -27.6565  -27.2162   20.1938 C   0  0  0  0  0  0  0  0  0  0  0  0
  -26.3966  -28.1638   18.6610 C   0  0  0  0  0  0  0  0  0  0  0  0
  -18.4197  -23.7821   21.3044 C   0  0  0  0  0  0  0  0  0  0  0  0
  -20.0045  -22.8401   22.5756 C   0  0  0  0  0  0  0  0  0  0  0  0
  -28.0784  -26.5581   17.7435 C   0  0  0  0  0  0  0  0  0  0  0  0
  -23.2194  -14.2470   20.5415 C   0  0  0  0  0  0  0  0  0  0  0  0
  -25.9952  -15.7299   19.7551 C   0  0  0  0  0  0  0  0  0  0  0  0
  -27.5820  -18.6055   18.8278 C   0  0  0  0  0  0  0  0  0  0  0  0
  -22.0178  -29.9818   22.2978 C   0  0  0  0  0  0  0  0  0  0  0  0
  -25.2386  -10.0762   22.6828 C   0  0  0  0  0  0  0  0  0  0  0  0
  -22.5954  -15.3639   18.3691 C   0  0  0  0  0  0  0  0  0  0  0  0
  -24.0050  -17.2179   20.1913 C   0  0  0  0  0  0  0  0  0  0  0  0
  -25.5024  -11.5780   22.7565 C   0  0  0  0  0  0  0  0  0  0  0  0
  -24.4811  -32.0284   20.7419 C   0  0  0  0  0  0  0  0  0  0  0  0
  -24.2000  -12.3381   22.9862 C   0  0  0  0  0  0  0  0  0  0  0  0
  -25.5509  -31.0303   20.2931 C   0  0  0  0  0  0  0  0  0  0  0  0
  -23.8625  -31.6327   22.0815 C   0  0  0  0  0  0  0  0  0  0  0  0
  -24.4127  -29.2626   21.6954 C   0  0  0  0  0  0  0  0  0  0  0  0
  -23.2203  -12.1169   21.8274 C   0  0  1  0  0  0  0  0  0  0  0  0
  -23.7234  -14.8911   19.2810 C   0  0  1  0  0  0  0  0  0  0  0  0
  -25.0188  -29.5840   20.3196 C   0  0  2  0  0  0  0  0  0  0  0  0
  -21.4641  -25.9322   23.1471 C   0  0  0  0  0  0  0  0  0  0  0  0
  -29.8595  -19.5150   18.2958 C   0  0  0  0  0  0  0  0  0  0  0  0
  -26.6729  -15.7660   22.7299 C   0  0  0  0  0  0  0  0  0  0  0  0
  -28.4305  -17.4797   22.2375 C   0  0  0  0  0  0  0  0  0  0  0  0
  -28.5930  -15.2038   21.2293 C   0  0  0  0  0  0  0  0  0  0  0  0
  -26.7785  -19.3241   16.0715 C   0  0  0  0  0  0  0  0  0  0  0  0
  -18.8053  -24.8063   23.5547 C   0  0  0  0  0  0  0  0  0  0  0  0
  -20.7987  -20.9532   21.0213 C   0  0  0  0  0  0  0  0  0  1  0  0
  -26.8410  -16.8149   20.3767 C   0  0  1  0  0  0  0  0  0  0  0  0
  -28.5932  -18.8894   17.7318 C   0  0  2  0  0  0  0  0  0  0  0  0
  -27.6072  -16.3207   21.6361 C   0  0  0  0  0  0  0  0  0  0  0  0
  -26.8423  -28.0216   20.8811 N   0  0  0  0  0  0  0  0  0  0  0  0
  -26.0883  -28.5842   19.9213 N   0  0  0  0  0  0  0  0  0  0  0  0
  -19.0684  -23.8389   22.5103 N   0  0  0  0  0  0  0  0  0  0  0  0
  -24.6171  -15.9784   19.6850 N   0  0  0  0  0  0  0  0  0  0  0  0
  -23.3766  -30.2521   22.0305 N   0  0  0  0  0  0  0  0  0  0  0  0
  -25.7359  -28.6287   17.5794 N   0  0  0  0  0  0  0  0  0  0  0  0
  -29.1140  -25.6715   18.0687 N   0  0  0  0  0  0  0  0  0  0  0  0
  -21.6648  -28.6373   22.1874 N   0  0  0  0  0  0  0  0  0  0  0  0
  -23.5955  -12.9253   20.6871 N   0  0  0  0  0  0  0  0  0  0  0  0
  -27.7023  -17.3206   19.3134 N   0  0  0  0  0  0  0  0  0  0  0  0
  -28.0163  -19.8234   16.7239 N   0  3  0  0  0  0  0  0  0  0  0  0
  -27.7653  -26.7215   16.5399 O   0  0  0  0  0  0  0  0  0  0  0  0
  -22.5409  -14.9011   21.3246 O   0  0  0  0  0  0  0  0  0  0  0  0
  -26.5381  -14.7028   19.3404 O   0  0  0  0  0  0  0  0  0  0  0  0
  -26.7691  -19.4412   19.2169 O   0  0  0  0  0  0  0  0  0  0  0  0
  -21.2198  -30.8808   22.5755 O   0  0  0  0  0  0  0  0  0  0  0  0
  -17.4629  -24.6467   20.9943 O   0  0  0  0  0  0  0  0  0  0  0  0
  -20.7684  -22.6841   23.6495 O   0  0  0  0  0  0  0  0  0  0  0  0
  -31.4652  -24.1232   22.8760 O   0  0  0  0  0  0  0  0  0  0  0  0
  -20.0572  -20.1077   20.1428 O   0  0  0  0  0  0  0  0  0  1  0  0
  -31.9883  -18.8388   21.3908 F   0  0  0  0  0  0  0  0  0  0  0  0
  -32.1596  -23.4390   20.2890 F   0  0  0  0  0  0  0  0  0  0  0  0
  1  2  1  0  0  0  0
  1  6  2  0  0  0  0
  2  7  2  0  0  0  0
  3  9  2  0  0  0  0
  3 10  1  0  0  0  0
  4 11  2  0  0  0  0
  4 19  1  0  0  0  0
  5 12  1  0  0  0  0
  5 19  2  0  0  0  0
  6 21  1  0  0  0  0
  7 23  1  0  0  0  0
  8 13  2  0  0  0  0
  8 22  1  0  0  0  0
  9 25  1  0  0  0  0
 10 28  2  0  0  0  0
 11 29  1  0  0  0  0
 12 29  2  0  0  0  0
 13 30  1  0  0  0  0
 14 15  2  0  0  0  0
 14 31  1  0  0  0  0
 15 32  1  0  0  0  0
 16 24  1  0  0  0  0
 16 30  2  0  0  0  0
 17 26  1  0  0  0  0
 17 36  2  0  0  0  0
 18 32  2  0  0  0  0
 18 33  1  0  0  0  0
 19 34  1  0  0  0  0
 20 34  1  0  0  0  0
 20 35  2  0  0  0  0
 20 38  1  0  0  0  0
 21 23  2  0  0  0  0
 21 43  1  0  0  0  0
 22 24  2  0  0  0  0
 22 44  1  0  0  0  0
 23 52  1  0  0  0  0
 24 45  1  0  0  0  0
 25 27  2  0  0  0  0
 25 61  1  0  0  0  0
 26 37  2  0  0  0  0
 26 62  1  0  0  0  0
 27 28  1  0  0  0  0
 27 55  1  0  0  0  0
 28 73  1  0  0  0  0
 29 84  1  0  0  0  0
 30 85  1  0  0  0  0
 31 33  2  0  0  0  0
 31 84  1  0  0  0  0
 32 86  1  0  0  0  0
 33 87  1  0  0  0  0
 34 66  2  0  0  0  0
 35 67  1  0  0  0  0
 35 71  1  0  0  0  0
 36 68  1  0  0  0  0
 36 82  1  0  0  0  0
 37 68  1  0  0  0  0
 37 83  1  0  0  0  0
 38 72  1  0  0  0  0
 38 77  2  0  0  0  0
 39 53  1  0  0  0  0
 39 74  1  0  0  0  0
 39 78  2  0  0  0  0
 40 63  1  0  0  0  0
 40 69  1  0  0  0  0
 40 79  2  0  0  0  0
 41 64  1  0  0  0  0
 41 75  1  0  0  0  0
 41 80  2  0  0  0  0
 42 70  1  0  0  0  0
 42 73  1  0  0  0  0
 42 81  2  0  0  0  0
 43 46  1  0  0  0  0
 44 53  1  0  0  0  0
 45 69  1  0  0  0  0
 46 48  1  0  0  0  0
 47 49  1  0  0  0  0
 47 50  1  0  0  0  0
 48 52  1  0  0  0  0
 49 54  1  0  0  0  0
 50 70  1  0  0  0  0
 51 54  1  0  0  0  0
 51 70  1  0  0  0  0
 52 74  1  0  0  0  0
 53 69  1  0  0  0  0
 54 67  1  0  0  0  0
 56 64  1  0  0  0  0
 57 65  1  0  0  0  0
 58 65  1  0  0  0  0
 59 65  1  0  0  0  0
 60 76  1  0  0  0  0
 61 68  1  0  0  0  0
 62 85  1  0  0  0  0
 63 65  1  0  0  0  0
 63 75  1  0  0  0  0
 64 76  1  0  0  0  0
 66 67  1  0  0  0  0
M  CHG  1  76   1
M  ISO  4  42 100  62 101  73 100  85 101
M  END
> <Batch ID>
0061

> <Smiles>
CNC(C)C(=O)NC(C(=O)N1Cc2cc([101O:1][101CH2:1]C3CC(=O)N(Cc4cccc([100NH:0][100C:0](=O)N5CCCC(n6nc(-c7ccc(Oc8ccc(F)cc8F)cc7)c(C(N)=O)c6N)C5)c4C)C3=O)ccc2CC1C(=O)NC1CCCc2ccccc21)C(C)(C)C

> <Shape>
0.229

> <Color>
0.075

> <Negative vol penalty>
0.000

$$$$

  -OEChem-04042323073D

 87 95  0     1  0  0  0  0  0999 V2000
  -28.4892  -25.2257   16.5397 C   0  0  0  0  0  0  0  0  0  0  0  0
  -27.3128  -25.3039   17.2782 C   0  0  0  0  0  0  0  0  0  0  0  0
  -21.4414  -25.4798   26.8133 C   0  0  0  0  0  0  0  0  0  0  0  0
  -27.7167  -17.1021   19.5615 C   0  0  0  0  0  0  0  0  0  0  0  0
  -25.4098  -16.6971   20.1541 C   0  0  0  0  0  0  0  0  0  0  0  0
  -20.6128  -25.9393   25.7896 C   0  0  0  0  0  0  0  0  0  0  0  0
  -29.6535  -25.8235   17.0201 C   0  0  0  0  0  0  0  0  0  0  0  0
  -27.3004  -25.9792   18.4982 C   0  0  0  0  0  0  0  0  0  0  0  0
  -23.2675  -28.9997   19.0058 C   0  0  0  0  0  0  0  0  0  0  0  0
  -22.5875  -24.7461   26.5066 C   0  0  0  0  0  0  0  0  0  0  0  0
  -27.8283  -15.7908   19.0995 C   0  0  0  0  0  0  0  0  0  0  0  0
  -25.5214  -15.3857   19.6921 C   0  0  0  0  0  0  0  0  0  0  0  0
  -22.0561  -28.3941   19.3369 C   0  0  0  0  0  0  0  0  0  0  0  0
  -28.2423  -12.7097   20.4263 C   0  0  0  0  0  0  0  0  0  0  0  0
  -29.3778  -11.9881   20.7945 C   0  0  0  0  0  0  0  0  0  0  0  0
  -22.3685  -29.0420   21.6395 C   0  0  0  0  0  0  0  0  0  0  0  0
  -29.9615  -11.7184   18.4656 C   0  0  0  0  0  0  0  0  0  0  0  0
  -26.5075  -17.5553   20.0888 C   0  0  0  0  0  0  0  0  0  0  0  0
  -20.9301  -25.6650   24.4593 C   0  0  0  0  0  0  0  0  0  0  0  0
  -26.0026  -20.0421   19.8264 C   0  0  0  0  0  0  0  0  0  0  0  0
  -29.6530  -26.5147   18.2420 C   0  0  0  0  0  0  0  0  0  0  0  0
  -24.0451  -29.6225   19.9927 C   0  0  0  0  0  0  0  0  0  0  0  0
  -28.4661  -26.5857   18.9960 C   0  0  0  0  0  0  0  0  0  0  0  0
  -23.5881  -29.6569   21.3179 C   0  0  0  0  0  0  0  0  0  0  0  0
  -22.9047  -24.4718   25.1763 C   0  0  0  0  0  0  0  0  0  0  0  0
  -26.7306  -14.9326   19.1648 C   0  0  0  0  0  0  0  0  0  0  0  0
  -21.6078  -28.4127   20.6544 C   0  0  0  0  0  0  0  0  0  0  0  0
  -27.9664  -12.9356   19.0778 C   0  0  0  0  0  0  0  0  0  0  0  0
  -30.2374  -11.4925   19.8141 C   0  0  0  0  0  0  0  0  0  0  0  0
  -28.8260  -12.4400   18.0974 C   0  0  0  0  0  0  0  0  0  0  0  0
  -22.0761  -24.9313   24.1526 C   0  0  0  0  0  0  0  0  0  0  0  0
  -26.3918  -18.9097   20.5667 C   0  0  0  0  0  0  0  0  0  0  0  0
  -26.0521  -21.0761   20.7290 C   0  0  0  0  0  0  0  0  0  0  0  0
  -20.0444  -26.1570   23.3727 C   0  0  0  0  0  0  0  0  0  0  0  0
  -25.6296  -20.1496   18.4461 C   0  0  0  0  0  0  0  0  0  0  0  0
  -26.9588  -29.1603   21.1760 C   0  0  0  0  0  0  0  0  0  0  0  0
  -26.3145  -31.8996   22.7896 C   0  0  0  0  0  0  0  0  0  0  0  0
  -23.9714  -34.0314   24.0593 C   0  0  0  0  0  0  0  0  0  0  0  0
  -24.9964  -23.1982   25.7674 C   0  0  0  0  0  0  0  0  0  0  0  0
  -30.9477  -27.1043   18.7430 C   0  0  0  0  0  0  0  0  0  0  0  0
  -25.3365  -30.2944   19.6146 C   0  0  0  0  0  0  0  0  0  0  0  0
  -24.3757  -30.3301   22.4111 C   0  0  0  0  0  0  0  0  0  0  0  0
  -30.7595  -28.1218   19.8653 C   0  0  0  0  0  0  0  0  0  0  0  0
  -27.9708  -21.2743   25.4089 C   0  0  0  0  0  0  0  0  0  0  0  0
  -29.7930  -27.5848   20.9162 C   0  0  0  0  0  0  0  0  0  0  0  0
  -27.7931  -20.5807   24.0563 C   0  0  0  0  0  0  0  0  0  0  0  0
  -26.6491  -21.3861   26.1668 C   0  0  0  0  0  0  0  0  0  0  0  0
  -25.3739  -21.3117   24.0603 C   0  0  0  0  0  0  0  0  0  0  0  0
  -28.4067  -27.3305   20.3120 C   0  0  1  0  0  0  0  0  0  0  0  0
  -26.2949  -30.4521   20.7911 C   0  0  1  0  0  0  0  0  0  0  0  0
  -26.6666  -21.2339   23.2317 C   0  0  2  0  0  0  0  0  0  0  0  0
  -23.7492  -36.1659   25.3600 C   0  0  0  0  0  0  0  0  0  0  0  0
  -27.0208  -30.4068   25.3552 C   0  0  0  0  0  0  0  0  0  0  0  0
  -25.8916  -32.2314   26.6452 C   0  0  0  0  0  0  0  0  0  0  0  0
  -27.8862  -32.7503   25.2399 C   0  0  0  0  0  0  0  0  0  0  0  0
  -17.7140  -24.9057   19.1898 C   0  0  0  0  0  0  0  0  0  0  0  0
  -19.8295  -23.6924   19.6849 C   0  0  0  0  0  0  0  0  0  0  0  0
  -17.9036  -23.5245   21.2706 C   0  0  0  0  0  0  0  0  0  0  0  0
  -22.5606  -35.3772   21.8328 C   0  0  0  0  0  0  0  0  0  0  0  0
  -20.0228  -26.6998   20.1962 C   0  0  0  0  0  0  0  0  0  1  0  0
  -25.6802  -32.2338   24.1180 C   0  0  1  0  0  0  0  0  0  0  0  0
  -23.8326  -35.5408   23.9762 C   0  0  2  0  0  0  0  0  0  0  0  0
  -19.2114  -25.7383   21.0734 C   0  0  1  0  0  0  0  0  0  0  0  0
  -26.6056  -31.8911   25.3196 C   0  0  0  0  0  0  0  0  0  0  0  0
  -18.6654  -24.4753   20.3284 C   0  0  0  0  0  0  0  0  0  0  0  0
  -26.6682  -19.1971   21.8414 N   0  0  0  0  0  0  0  0  0  0  0  0
  -26.4526  -20.5219   21.9091 N   0  0  0  0  0  0  0  0  0  0  0  0
  -25.6350  -30.9675   21.9924 N   0  0  0  0  0  0  0  0  0  0  0  0
  -25.6308  -22.0181   25.3252 N   0  0  0  0  0  0  0  0  0  0  0  0
  -25.7917  -22.3963   20.6205 N   0  0  0  0  0  0  0  0  0  0  0  0
  -25.6325  -18.9887   17.6609 N   0  0  0  0  0  0  0  0  0  0  0  0
  -24.0697  -23.7261   24.8689 N   0  0  0  0  0  0  0  0  0  0  0  0
  -20.0096  -25.3778   22.2316 N   0  0  0  0  0  0  0  0  0  0  0  0
  -27.6867  -28.5763   20.1569 N   0  0  0  0  0  0  0  0  0  0  0  0
  -25.2930  -33.6385   24.0436 N   0  0  0  0  0  0  0  0  0  0  0  0
  -22.6015  -35.9068   23.2201 N   0  3  0  0  0  0  0  0  0  0  0  0
  -19.4260  -27.2062   23.5315 O   0  0  0  0  0  0  0  0  0  0  0  0
  -25.3194  -21.2455   17.9206 O   0  0  0  0  0  0  0  0  0  0  0  0
  -26.8221  -28.7263   22.3138 O   0  0  0  0  0  0  0  0  0  0  0  0
  -27.3702  -32.4506   22.4678 O   0  0  0  0  0  0  0  0  0  0  0  0
  -23.0044  -33.2766   24.1346 O   0  0  0  0  0  0  0  0  0  0  0  0
  -25.2757  -23.7184   26.8506 O   0  0  0  0  0  0  0  0  0  0  0  0
  -26.8391  -13.6529   18.7139 O   0  0  0  0  0  0  0  0  0  0  0  0
  -20.4261  -27.8218   20.9804 O   0  0  0  0  0  0  0  0  0  1  0  0
  -31.3286  -10.8008   20.1679 F   0  0  0  0  0  0  0  0  0  0  0  0
  -28.5667  -12.6549   16.8003 F   0  0  0  0  0  0  0  0  0  0  0  0
  -22.3806  -24.6662   22.8729 F   0  0  0  0  0  0  0  0  0  0  0  0
  1  2  1  0  0  0  0
  1  7  2  0  0  0  0
  2  8  2  0  0  0  0
  3  6  2  0  0  0  0
  3 10  1  0  0  0  0
  4 11  2  0  0  0  0
  4 18  1  0  0  0  0
  5 12  1  0  0  0  0
  5 18  2  0  0  0  0
  6 19  1  0  0  0  0
  7 21  1  0  0  0  0
  8 23  1  0  0  0  0
  9 13  2  0  0  0  0
  9 22  1  0  0  0  0
 10 25  2  0  0  0  0
 11 26  1  0  0  0  0
 12 26  2  0  0  0  0
 13 27  1  0  0  0  0
 14 15  2  0  0  0  0
 14 28  1  0  0  0  0
 15 29  1  0  0  0  0
 16 24  1  0  0  0  0
 16 27  2  0  0  0  0
 17 29  2  0  0  0  0
 17 30  1  0  0  0  0
 18 32  1  0  0  0  0
 19 31  2  0  0  0  0
 19 34  1  0  0  0  0
 20 32  1  0  0  0  0
 20 33  2  0  0  0  0
 20 35  1  0  0  0  0
 21 23  2  0  0  0  0
 21 40  1  0  0  0  0
 22 24  2  0  0  0  0
 22 41  1  0  0  0  0
 23 49  1  0  0  0  0
 24 42  1  0  0  0  0
 25 31  1  0  0  0  0
 25 72  1  0  0  0  0
 26 83  1  0  0  0  0
 27 84  1  0  0  0  0
 28 30  2  0  0  0  0
 28 83  1  0  0  0  0
 29 85  1  0  0  0  0
 30 86  1  0  0  0  0
 31 87  1  0  0  0  0
 32 66  2  0  0  0  0
 33 67  1  0  0  0  0
 33 70  1  0  0  0  0
 34 73  1  0  0  0  0
 34 77  2  0  0  0  0
 35 71  1  0  0  0  0
 35 78  2  0  0  0  0
 36 50  1  0  0  0  0
 36 74  1  0  0  0  0
 36 79  2  0  0  0  0
 37 61  1  0  0  0  0
 37 68  1  0  0  0  0
 37 80  2  0  0  0  0
 38 62  1  0  0  0  0
 38 75  1  0  0  0  0
 38 81  2  0  0  0  0
 39 69  1  0  0  0  0
 39 72  1  0  0  0  0
 39 82  2  0  0  0  0
 40 43  1  0  0  0  0
 41 50  1  0  0  0  0
 42 68  1  0  0  0  0
 43 45  1  0  0  0  0
 44 46  1  0  0  0  0
 44 47  1  0  0  0  0
 45 49  1  0  0  0  0
 46 51  1  0  0  0  0
 47 69  1  0  0  0  0
 48 51  1  0  0  0  0
 48 69  1  0  0  0  0
 49 74  1  0  0  0  0
 50 68  1  0  0  0  0
 51 67  1  0  0  0  0
 52 62  1  0  0  0  0
 53 64  1  0  0  0  0
 54 64  1  0  0  0  0
 55 64  1  0  0  0  0
 56 65  1  0  0  0  0
 57 65  1  0  0  0  0
 58 65  1  0  0  0  0
 59 76  1  0  0  0  0
 60 63  1  0  0  0  0
 60 84  1  0  0  0  0
 61 64  1  0  0  0  0
 61 75  1  0  0  0  0
 62 76  1  0  0  0  0
 63 65  1  0  0  0  0
 63 73  1  0  0  0  0
 66 67  1  0  0  0  0
M  CHG  1  76   1
M  ISO  4  39 100  60 101  72 100  84 101
M  END
> <Batch ID>
0061

> <Smiles>
CNC(C)C(=O)NC(C(=O)N1Cc2cc([101O:1][101CH2:1]C(NC(=O)c3cccc([100NH:0][100C:0](=O)N4CCCC(n5nc(-c6ccc(Oc7ccc(F)cc7F)cc6)c(C(N)=O)c5N)C4)c3F)C(C)(C)C)ccc2CC1C(=O)NC1CCCc2ccccc21)C(C)(C)C

> <Shape>
0.265

> <Color>
0.065

> <Negative vol penalty>
0.000

$$$$

  -OEChem-04042323073D

 81 89  0     1  0  0  0  0  0999 V2000
  -20.7402  -28.1398   20.0869 C   0  0  0  0  0  0  0  0  0  0  0  0
  -21.6965  -27.2952   20.6414 C   0  0  0  0  0  0  0  0  0  0  0  0
  -32.6818  -17.4068   23.4349 C   0  0  0  0  0  0  0  0  0  0  0  0
  -22.9989   -9.8987   19.9806 C   0  0  0  0  0  0  0  0  0  0  0  0
  -23.7303   -9.9410   22.2829 C   0  0  0  0  0  0  0  0  0  0  0  0
  -19.5274  -27.6183   19.6382 C   0  0  0  0  0  0  0  0  0  0  0  0
  -21.4402  -25.9287   20.7485 C   0  0  0  0  0  0  0  0  0  0  0  0
  -25.4908  -21.3688   20.1957 C   0  0  0  0  0  0  0  0  0  0  0  0
  -32.0688  -16.5231   22.5467 C   0  0  0  0  0  0  0  0  0  0  0  0
  -22.2323   -8.7637   20.2450 C   0  0  0  0  0  0  0  0  0  0  0  0
  -22.9637   -8.8060   22.5473 C   0  0  0  0  0  0  0  0  0  0  0  0
  -26.1850  -20.6114   21.1382 C   0  0  0  0  0  0  0  0  0  0  0  0
  -23.2047   -5.4686   22.0628 C   0  0  0  0  0  0  0  0  0  0  0  0
  -31.9092  -18.3106   24.1643 C   0  0  0  0  0  0  0  0  0  0  0  0
  -23.7936   -4.4484   22.8097 C   0  0  0  0  0  0  0  0  0  0  0  0
  -24.5011  -18.8907   20.9867 C   0  0  0  0  0  0  0  0  0  0  0  0
  -22.0744   -4.6864   24.4904 C   0  0  0  0  0  0  0  0  0  0  0  0
  -23.7479  -10.4873   20.9996 C   0  0  0  0  0  0  0  0  0  0  0  0
  -29.9105  -17.4470   23.1171 C   0  0  0  0  0  0  0  0  0  0  0  0
  -24.1343  -13.0033   20.8315 C   0  0  0  0  0  0  0  0  0  0  0  0
  -19.2600  -26.2434   19.7310 C   0  0  0  0  0  0  0  0  0  0  0  0
  -24.2889  -20.8969   19.6488 C   0  0  0  0  0  0  0  0  0  0  0  0
  -20.2222  -25.3886   20.3018 C   0  0  0  0  0  0  0  0  0  0  0  0
  -23.7950  -19.6429   20.0356 C   0  0  0  0  0  0  0  0  0  0  0  0
  -30.6832  -16.5432   22.3878 C   0  0  0  0  0  0  0  0  0  0  0  0
  -22.2147   -8.2174   21.5283 C   0  0  0  0  0  0  0  0  0  0  0  0
  -25.6887  -19.3735   21.5360 C   0  0  0  0  0  0  0  0  0  0  0  0
  -22.0506   -6.0979   22.5298 C   0  0  0  0  0  0  0  0  0  0  0  0
  -23.2285   -4.0573   24.0235 C   0  0  0  0  0  0  0  0  0  0  0  0
  -30.5236  -18.3307   24.0054 C   0  0  0  0  0  0  0  0  0  0  0  0
  -21.4855   -5.7067   23.7435 C   0  0  0  0  0  0  0  0  0  0  0  0
  -24.5404  -11.6594   20.7270 C   0  0  0  0  0  0  0  0  0  0  0  0
  -25.2436  -13.7264   20.4667 C   0  0  0  0  0  0  0  0  0  0  0  0
  -28.4276  -17.4932   22.9668 C   0  0  0  0  0  0  0  0  0  0  0  0
  -22.8678  -13.5491   21.2234 C   0  0  0  0  0  0  0  0  0  0  0  0
  -21.2753  -21.9076   19.6483 C   0  0  0  0  0  0  0  0  0  0  0  0
  -20.8533  -19.4273   17.6008 C   0  0  0  0  0  0  0  0  0  0  0  0
  -21.9309  -16.3969   16.4597 C   0  0  0  0  0  0  0  0  0  0  0  0
  -30.7243  -14.6832   20.6892 C   0  0  0  0  0  0  0  0  0  0  0  0
  -17.9158  -25.7330   19.2758 C   0  0  0  0  0  0  0  0  0  0  0  0
  -23.5660  -21.7140   18.6134 C   0  0  0  0  0  0  0  0  0  0  0  0
  -22.5196  -19.0821   19.4635 C   0  0  0  0  0  0  0  0  0  0  0  0
  -17.8727  -24.2194   19.0821 C   0  0  0  0  0  0  0  0  0  0  0  0
  -29.5981  -12.2394   18.3576 C   0  0  0  0  0  0  0  0  0  0  0  0
  -18.5140  -23.5106   20.2710 C   0  0  0  0  0  0  0  0  0  0  0  0
  -28.1485  -11.9812   18.7748 C   0  0  0  0  0  0  0  0  0  0  0  0
  -30.5021  -12.4779   19.5658 C   0  0  0  0  0  0  0  0  0  0  0  0
  -28.5908  -13.2632   20.9073 C   0  0  0  0  0  0  0  0  0  0  0  0
  -19.9912  -23.8971   20.4125 C   0  0  1  0  0  0  0  0  0  0  0  0
  -22.0848  -21.3654   18.5044 C   0  0  1  0  0  0  0  0  0  0  0  0
  -27.6298  -13.0817   19.7210 C   0  0  2  0  0  0  0  0  0  0  0  0
  -21.3594  -14.5979   14.8062 C   0  0  0  0  0  0  0  0  0  0  0  0
  -18.6100  -18.4620   19.4300 C   0  0  0  0  0  0  0  0  0  0  0  0
  -18.7293  -16.2378   18.2868 C   0  0  0  0  0  0  0  0  0  0  0  0
  -18.1159  -18.2756   16.9855 C   0  0  0  0  0  0  0  0  0  0  0  0
  -24.4928  -16.7455   15.0196 C   0  0  0  0  0  0  0  0  0  0  0  0
  -27.7826  -18.7819   22.4961 C   0  0  0  0  0  0  0  0  0  1  0  0
  -20.5060  -17.9657   17.7492 C   0  0  1  0  0  0  0  0  0  0  0  0
  -22.1533  -15.8713   15.0531 C   0  0  2  0  0  0  0  0  0  0  0  0
  -19.0133  -17.7464   18.1253 C   0  0  0  0  0  0  0  0  0  0  0  0
  -25.8085  -11.5335   20.3269 N   0  0  0  0  0  0  0  0  0  0  0  0
  -26.2089  -12.8076   20.1768 N   0  0  0  0  0  0  0  0  0  0  0  0
  -21.8458  -19.9214   18.4590 N   0  0  0  0  0  0  0  0  0  0  0  0
  -29.9500  -13.5362   20.4144 N   0  0  0  0  0  0  0  0  0  0  0  0
  -25.4776  -15.0523   20.3687 N   0  0  0  0  0  0  0  0  0  0  0  0
  -21.8364  -12.6644   21.5665 N   0  0  0  0  0  0  0  0  0  0  0  0
  -30.0827  -15.6360   21.4799 N   0  0  0  0  0  0  0  0  0  0  0  0
  -20.7948  -23.1866   19.4410 N   0  0  0  0  0  0  0  0  0  0  0  0
  -20.9092  -17.3218   16.5038 N   0  0  0  0  0  0  0  0  0  0  0  0
  -23.5972  -15.5750   14.8330 N   0  3  0  0  0  0  0  0  0  0  0  0
  -27.7602  -16.4938   23.2241 O   0  0  0  0  0  0  0  0  0  0  0  0
  -22.6519  -14.7844   21.2521 O   0  0  0  0  0  0  0  0  0  0  0  0
  -21.0984  -21.2163   20.6445 O   0  0  0  0  0  0  0  0  0  0  0  0
  -20.2705  -20.1039   16.7497 O   0  0  0  0  0  0  0  0  0  0  0  0
  -22.5945  -16.0216   17.4237 O   0  0  0  0  0  0  0  0  0  0  0  0
  -31.8618  -14.8231   20.2326 O   0  0  0  0  0  0  0  0  0  0  0  0
  -21.4667   -7.1101   21.7867 O   0  0  0  0  0  0  0  0  0  0  0  0
  -26.3639  -18.6325   22.4562 O   0  0  0  0  0  0  0  0  0  1  0  0
  -23.7933   -3.0765   24.7399 F   0  0  0  0  0  0  0  0  0  0  0  0
  -29.7920  -19.2041   24.7122 F   0  0  0  0  0  0  0  0  0  0  0  0
  -20.3762   -6.3067   24.1967 F   0  0  0  0  0  0  0  0  0  0  0  0
  1  2  1  0  0  0  0
  1  6  2  0  0  0  0
  2  7  2  0  0  0  0
  3  9  2  0  0  0  0
  3 14  1  0  0  0  0
  4 10  2  0  0  0  0
  4 18  1  0  0  0  0
  5 11  1  0  0  0  0
  5 18  2  0  0  0  0
  6 21  1  0  0  0  0
  7 23  1  0  0  0  0
  8 12  2  0  0  0  0
  8 22  1  0  0  0  0
  9 25  1  0  0  0  0
 10 26  1  0  0  0  0
 11 26  2  0  0  0  0
 12 27  1  0  0  0  0
 13 15  2  0  0  0  0
 13 28  1  0  0  0  0
 14 30  2  0  0  0  0
 15 29  1  0  0  0  0
 16 24  1  0  0  0  0
 16 27  2  0  0  0  0
 17 29  2  0  0  0  0
 17 31  1  0  0  0  0
 18 32  1  0  0  0  0
 19 25  2  0  0  0  0
 19 30  1  0  0  0  0
 19 34  1  0  0  0  0
 20 32  1  0  0  0  0
 20 33  2  0  0  0  0
 20 35  1  0  0  0  0
 21 23  2  0  0  0  0
 21 40  1  0  0  0  0
 22 24  2  0  0  0  0
 22 41  1  0  0  0  0
 23 49  1  0  0  0  0
 24 42  1  0  0  0  0
 25 67  1  0  0  0  0
 26 77  1  0  0  0  0
 27 78  1  0  0  0  0
 28 31  2  0  0  0  0
 28 77  1  0  0  0  0
 29 79  1  0  0  0  0
 30 80  1  0  0  0  0
 31 81  1  0  0  0  0
 32 61  2  0  0  0  0
 33 62  1  0  0  0  0
 33 65  1  0  0  0  0
 34 57  1  0  0  0  0
 34 71  2  0  0  0  0
 35 66  1  0  0  0  0
 35 72  2  0  0  0  0
 36 50  1  0  0  0  0
 36 68  1  0  0  0  0
 36 73  2  0  0  0  0
 37 58  1  0  0  0  0
 37 63  1  0  0  0  0
 37 74  2  0  0  0  0
 38 59  1  0  0  0  0
 38 69  1  0  0  0  0
 38 75  2  0  0  0  0
 39 64  1  0  0  0  0
 39 67  1  0  0  0  0
 39 76  2  0  0  0  0
 40 43  1  0  0  0  0
 41 50  1  0  0  0  0
 42 63  1  0  0  0  0
 43 45  1  0  0  0  0
 44 46  1  0  0  0  0
 44 47  1  0  0  0  0
 45 49  1  0  0  0  0
 46 51  1  0  0  0  0
 47 64  1  0  0  0  0
 48 51  1  0  0  0  0
 48 64  1  0  0  0  0
 49 68  1  0  0  0  0
 50 63  1  0  0  0  0
 51 62  1  0  0  0  0
 52 59  1  0  0  0  0
 53 60  1  0  0  0  0
 54 60  1  0  0  0  0
 55 60  1  0  0  0  0
 56 70  1  0  0  0  0
 57 78  1  0  0  0  0
 58 60  1  0  0  0  0
 58 69  1  0  0  0  0
 59 70  1  0  0  0  0
 61 62  1  0  0  0  0
M  CHG  1  70   1
M  ISO  4  39 100  57 101  67 100  78 101
M  END
> <Batch ID>
0061

> <Smiles>
CNC(C)C(=O)NC(C(=O)N1Cc2cc([101O:1][101CH2:1]C(=O)c3c(F)cccc3[100NH:0][100C:0](=O)N3CCCC(n4nc(-c5ccc(Oc6ccc(F)cc6F)cc5)c(C(N)=O)c4N)C3)ccc2CC1C(=O)NC1CCCc2ccccc21)C(C)(C)C

> <Shape>
0.195

> <Color>
0.202

> <Negative vol penalty>
0.000

$$$$

  -OEChem-04042323073D

 85 93  0     1  0  0  0  0  0999 V2000
  -21.2869  -30.4525   14.5406 C   0  0  0  0  0  0  0  0  0  0  0  0
  -22.4691  -29.9337   15.0591 C   0  0  0  0  0  0  0  0  0  0  0  0
  -23.5029   -9.3171   20.1552 C   0  0  0  0  0  0  0  0  0  0  0  0
  -23.3012  -10.9309   21.9419 C   0  0  0  0  0  0  0  0  0  0  0  0
  -20.7773  -31.6521   15.0356 C   0  0  0  0  0  0  0  0  0  0  0  0
  -23.1429  -30.6149   16.0721 C   0  0  0  0  0  0  0  0  0  0  0  0
  -24.6958  -27.5379   19.7823 C   0  0  0  0  0  0  0  0  0  0  0  0
  -28.9434  -18.4869   19.5140 C   0  0  0  0  0  0  0  0  0  0  0  0
  -22.6535   -8.4500   20.8424 C   0  0  0  0  0  0  0  0  0  0  0  0
  -22.4518  -10.0638   22.6291 C   0  0  0  0  0  0  0  0  0  0  0  0
  -25.8398  -26.7780   19.5424 C   0  0  0  0  0  0  0  0  0  0  0  0
  -22.7401   -7.2992   24.5540 C   0  0  0  0  0  0  0  0  0  0  0  0
  -22.9626   -7.1210   25.9194 C   0  0  0  0  0  0  0  0  0  0  0  0
  -29.1794  -19.8447   19.7287 C   0  0  0  0  0  0  0  0  0  0  0  0
  -27.1488  -28.3596   20.8090 C   0  0  0  0  0  0  0  0  0  0  0  0
  -31.1293  -17.9665   20.4017 C   0  0  0  0  0  0  0  0  0  0  0  0
  -20.7417   -7.9481   26.3891 C   0  0  0  0  0  0  0  0  0  0  0  0
  -23.8267  -10.5576   20.7050 C   0  0  0  0  0  0  0  0  0  0  0  0
  -24.3376  -12.4414   19.0624 C   0  0  0  0  0  0  0  0  0  0  0  0
  -21.4401  -32.3435   16.0619 C   0  0  0  0  0  0  0  0  0  0  0  0
  -24.7718  -28.7222   20.5295 C   0  0  0  0  0  0  0  0  0  0  0  0
  -22.6424  -31.8256   16.5804 C   0  0  0  0  0  0  0  0  0  0  0  0
  -26.0039  -29.1314   21.0592 C   0  0  0  0  0  0  0  0  0  0  0  0
  -31.3654  -19.3244   20.6163 C   0  0  0  0  0  0  0  0  0  0  0  0
  -29.9183  -17.5477   19.8505 C   0  0  0  0  0  0  0  0  0  0  0  0
  -22.1279   -8.8233   22.0794 C   0  0  0  0  0  0  0  0  0  0  0  0
  -27.0671  -27.1903   20.0532 C   0  0  0  0  0  0  0  0  0  0  0  0
  -21.5185   -7.8020   24.1061 C   0  0  0  0  0  0  0  0  0  0  0  0
  -21.9634   -7.4454   26.8370 C   0  0  0  0  0  0  0  0  0  0  0  0
  -20.5193   -8.1264   25.0237 C   0  0  0  0  0  0  0  0  0  0  0  0
  -30.3904  -20.2635   20.2798 C   0  0  0  0  0  0  0  0  0  0  0  0
  -24.7045  -11.4535   19.9958 C   0  0  0  0  0  0  0  0  0  0  0  0
  -25.5271  -13.0128   18.6817 C   0  0  0  0  0  0  0  0  0  0  0  0
  -23.0377  -12.8096   18.5825 C   0  0  0  0  0  0  0  0  0  0  0  0
  -24.1870  -31.7898   19.9369 C   0  0  0  0  0  0  0  0  0  0  0  0
  -29.2515  -24.2943   20.1127 C   0  0  0  0  0  0  0  0  0  0  0  0
  -24.7660  -32.1114   23.1124 C   0  0  0  0  0  0  0  0  0  0  0  0
  -26.2596  -30.8824   25.9240 C   0  0  0  0  0  0  0  0  0  0  0  0
  -30.5382  -15.1067   19.9093 C   0  0  0  0  0  0  0  0  0  0  0  0
  -20.8758  -33.6608   16.5320 C   0  0  0  0  0  0  0  0  0  0  0  0
  -23.5240  -29.5165   20.8021 C   0  0  0  0  0  0  0  0  0  0  0  0
  -26.1354  -30.3842   21.8848 C   0  0  0  0  0  0  0  0  0  0  0  0
  -21.4522  -34.1292   17.8656 C   0  0  0  0  0  0  0  0  0  0  0  0
  -30.3010  -11.5722   19.5516 C   0  0  0  0  0  0  0  0  0  0  0  0
  -22.9710  -33.9878   17.8699 C   0  0  0  0  0  0  0  0  0  0  0  0
  -28.7936  -11.3075   19.5585 C   0  0  0  0  0  0  0  0  0  0  0  0
  -30.6832  -12.6996   20.5090 C   0  0  0  0  0  0  0  0  0  0  0  0
  -28.4339  -13.6880   20.3272 C   0  0  0  0  0  0  0  0  0  0  0  0
  -23.3892  -32.5226   17.6969 C   0  0  1  0  0  0  0  0  0  0  0  0
  -23.8074  -30.9765   21.1419 C   0  0  1  0  0  0  0  0  0  0  0  0
  -27.9927  -12.6043   19.3298 C   0  0  2  0  0  0  0  0  0  0  0  0
  -32.6726  -19.7401   21.2076 C   0  0  0  0  0  0  0  0  0  0  0  0
  -26.5863  -31.3844   28.3609 C   0  0  0  0  0  0  0  0  0  0  0  0
  -26.8206  -34.2497   22.3939 C   0  0  0  0  0  0  0  0  0  0  0  0
  -27.7592  -34.0250   24.7040 C   0  0  0  0  0  0  0  0  0  0  0  0
  -25.4061  -34.7891   24.3846 C   0  0  0  0  0  0  0  0  0  0  0  0
  -24.9059  -28.3803   26.7401 C   0  0  0  0  0  0  0  0  0  0  0  0
  -28.0120  -25.0430   19.6632 C   0  0  0  0  0  0  0  0  0  1  0  0
  -29.1880  -22.7913   19.9790 C   0  0  0  0  0  0  0  0  0  0  0  0
  -25.9921  -32.3675   23.9549 C   0  0  1  0  0  0  0  0  0  0  0  0
  -25.7324  -30.6622   27.3304 C   0  0  2  0  0  0  0  0  0  0  0  0
  -26.4927  -33.8352   23.8422 C   0  0  0  0  0  0  0  0  0  0  0  0
  -26.0240  -11.3978   20.1957 N   0  0  0  0  0  0  0  0  0  0  0  0
  -31.8000  -22.3823   19.5676 N   0  0  0  0  0  0  0  0  0  0  0  0
  -26.4965  -12.3578   19.3826 N   0  0  0  0  0  0  0  0  0  0  0  0
  -24.8878  -31.1301   22.1183 N   0  0  0  0  0  0  0  0  0  0  0  0
  -29.8871  -13.8969   20.2303 N   0  0  0  0  0  0  0  0  0  0  0  0
  -25.8280  -14.0066   17.8190 N   0  0  0  0  0  0  0  0  0  0  0  0
  -21.9225  -12.1203   19.0781 N   0  0  0  0  0  0  0  0  0  0  0  0
  -29.6779  -16.1686   19.6320 N   0  0  0  0  0  0  0  0  0  0  0  0
  -23.2289  -31.8010   18.9411 N   0  0  0  0  0  0  0  0  0  0  0  0
  -25.6483  -31.9560   25.3117 N   0  0  0  0  0  0  0  0  0  0  0  0
  -25.7270  -29.2088   27.6600 N   0  3  0  0  0  0  0  0  0  0  0  0
  -22.8714  -13.7117   17.7268 O   0  0  0  0  0  0  0  0  0  0  0  0
  -25.2683  -32.3658   19.9129 O   0  0  0  0  0  0  0  0  0  0  0  0
  -30.2364  -24.8836   20.5546 O   0  0  0  0  0  0  0  0  0  0  0  0
  -23.7358  -32.7531   23.3329 O   0  0  0  0  0  0  0  0  0  0  0  0
  -27.1295  -30.1752   25.4204 O   0  0  0  0  0  0  0  0  0  0  0  0
  -31.7681  -15.1875   19.8559 O   0  0  0  0  0  0  0  0  0  0  0  0
  -30.6863  -22.1969   21.9820 O   0  0  0  0  0  0  0  0  0  0  0  0
  -21.2989   -7.9776   22.7502 O   0  0  0  0  0  0  0  0  0  0  0  0
  -28.1853  -26.4507   19.8199 O   0  0  0  0  0  0  0  0  0  1  0  0
  -22.1766   -7.2728   28.1480 F   0  0  0  0  0  0  0  0  0  0  0  0
  -19.3432   -8.6086   24.5994 F   0  0  0  0  0  0  0  0  0  0  0  0
  -30.6572  -21.9998   20.5389 S   0  0  2  0  0  0  0  0  0  0  0  0
  1  2  1  0  0  0  0
  1  5  2  0  0  0  0
  2  6  2  0  0  0  0
  3  9  2  0  0  0  0
  3 18  1  0  0  0  0
  4 10  1  0  0  0  0
  4 18  2  0  0  0  0
  5 20  1  0  0  0  0
  6 22  1  0  0  0  0
  7 11  2  0  0  0  0
  7 21  1  0  0  0  0
  8 14  2  0  0  0  0
  8 25  1  0  0  0  0
  9 26  1  0  0  0  0
 10 26  2  0  0  0  0
 11 27  1  0  0  0  0
 12 13  2  0  0  0  0
 12 28  1  0  0  0  0
 13 29  1  0  0  0  0
 14 31  1  0  0  0  0
 15 23  1  0  0  0  0
 15 27  2  0  0  0  0
 16 24  1  0  0  0  0
 16 25  2  0  0  0  0
 17 29  2  0  0  0  0
 17 30  1  0  0  0  0
 18 32  1  0  0  0  0
 19 32  1  0  0  0  0
 19 33  2  0  0  0  0
 19 34  1  0  0  0  0
 20 22  2  0  0  0  0
 20 40  1  0  0  0  0
 21 23  2  0  0  0  0
 21 41  1  0  0  0  0
 22 49  1  0  0  0  0
 23 42  1  0  0  0  0
 24 31  2  0  0  0  0
 24 52  1  0  0  0  0
 25 70  1  0  0  0  0
 26 81  1  0  0  0  0
 27 82  1  0  0  0  0
 28 30  2  0  0  0  0
 28 81  1  0  0  0  0
 29 83  1  0  0  0  0
 30 84  1  0  0  0  0
 31 85  1  0  0  0  0
 32 63  2  0  0  0  0
 33 65  1  0  0  0  0
 33 68  1  0  0  0  0
 34 69  1  0  0  0  0
 34 74  2  0  0  0  0
 35 50  1  0  0  0  0
 35 71  1  0  0  0  0
 35 75  2  0  0  0  0
 36 58  1  0  0  0  0
 36 59  1  0  0  0  0
 36 76  2  0  0  0  0
 37 60  1  0  0  0  0
 37 66  1  0  0  0  0
 37 77  2  0  0  0  0
 38 61  1  0  0  0  0
 38 72  1  0  0  0  0
 38 78  2  0  0  0  0
 39 67  1  0  0  0  0
 39 70  1  0  0  0  0
 39 79  2  0  0  0  0
 40 43  1  0  0  0  0
 41 50  1  0  0  0  0
 42 66  1  0  0  0  0
 43 45  1  0  0  0  0
 44 46  1  0  0  0  0
 44 47  1  0  0  0  0
 45 49  1  0  0  0  0
 46 51  1  0  0  0  0
 47 67  1  0  0  0  0
 48 51  1  0  0  0  0
 48 67  1  0  0  0  0
 49 71  1  0  0  0  0
 50 66  1  0  0  0  0
 51 65  1  0  0  0  0
 53 61  1  0  0  0  0
 54 62  1  0  0  0  0
 55 62  1  0  0  0  0
 56 62  1  0  0  0  0
 57 73  1  0  0  0  0
 58 82  1  0  0  0  0
 59 85  1  0  0  0  0
 60 62  1  0  0  0  0
 60 72  1  0  0  0  0
 61 73  1  0  0  0  0
 63 65  1  0  0  0  0
 64 85  2  0  0  0  0
 80 85  2  0  0  0  0
M  CHG  1  73   1
M  ISO  4  39 100  58 101  70 100  82 101
M  END
> <Batch ID>
0061

> <Smiles>
CNC(C)C(=O)NC(C(=O)N1Cc2cc([101O:1][101CH2:1]C(=O)CS(=N)(=O)c3ccc([100NH:0][100C:0](=O)N4CCCC(n5nc(-c6ccc(Oc7ccc(F)cc7F)cc6)c(C(N)=O)c5N)C4)cc3C)ccc2CC1C(=O)NC1CCCc2ccccc21)C(C)(C)C

> <Shape>
0.299

> <Color>
0.135

> <Negative vol penalty>
0.000

$$$$

  -OEChem-04042323073D

 85 94  0     1  0  0  0  0  0999 V2000
  -29.5260  -21.6772   19.7344 C   0  0  0  0  0  0  0  0  0  0  0  0
  -28.1609  -21.7688   19.9865 C   0  0  0  0  0  0  0  0  0  0  0  0
  -29.8057  -28.1183   21.2144 C   0  0  0  0  0  0  0  0  0  0  0  0
  -28.4960  -26.2930   22.1032 C   0  0  0  0  0  0  0  0  0  0  0  0
  -30.0524  -20.5183   19.1654 C   0  0  0  0  0  0  0  0  0  0  0  0
  -27.3213  -20.7018   19.6687 C   0  0  0  0  0  0  0  0  0  0  0  0
  -24.0103  -19.6695   23.3588 C   0  0  0  0  0  0  0  0  0  0  0  0
  -17.9350  -28.1838   22.0788 C   0  0  0  0  0  0  0  0  0  0  0  0
  -19.1122  -28.9291   22.1446 C   0  0  0  0  0  0  0  0  0  0  0  0
  -30.9009  -27.7007   21.9704 C   0  0  0  0  0  0  0  0  0  0  0  0
  -29.5913  -25.8753   22.8593 C   0  0  0  0  0  0  0  0  0  0  0  0
  -22.8980  -20.5030   23.4677 C   0  0  0  0  0  0  0  0  0  0  0  0
  -32.4585  -24.1604   22.3508 C   0  0  0  0  0  0  0  0  0  0  0  0
  -32.7546  -22.7974   22.3617 C   0  0  0  0  0  0  0  0  0  0  0  0
  -21.5610  -18.8596   22.3140 C   0  0  0  0  0  0  0  0  0  0  0  0
  -32.4473  -22.7499   24.7577 C   0  0  0  0  0  0  0  0  0  0  0  0
  -28.6032  -27.4145   21.2808 C   0  0  0  0  0  0  0  0  0  0  0  0
  -27.1392  -27.4466   19.1919 C   0  0  0  0  0  0  0  0  0  0  0  0
  -29.2202  -19.4328   18.8494 C   0  0  0  0  0  0  0  0  0  0  0  0
  -23.9087  -18.4274   22.7159 C   0  0  0  0  0  0  0  0  0  0  0  0
  -27.8369  -19.5278   19.0938 C   0  0  0  0  0  0  0  0  0  0  0  0
  -22.6729  -18.0111   22.2005 C   0  0  0  0  0  0  0  0  0  0  0  0
  -17.9414  -26.8365   22.4397 C   0  0  0  0  0  0  0  0  0  0  0  0
  -19.1250  -26.2344   22.8664 C   0  0  0  0  0  0  0  0  0  0  0  0
  -20.2958  -28.3270   22.5713 C   0  0  0  0  0  0  0  0  0  0  0  0
  -30.7937  -26.5792   22.7929 C   0  0  0  0  0  0  0  0  0  0  0  0
  -21.6738  -20.0994   22.9428 C   0  0  0  0  0  0  0  0  0  0  0  0
  -32.1568  -24.8182   23.5433 C   0  0  0  0  0  0  0  0  0  0  0  0
  -32.7489  -22.0921   23.5651 C   0  0  0  0  0  0  0  0  0  0  0  0
  -32.1512  -24.1129   24.7467 C   0  0  0  0  0  0  0  0  0  0  0  0
  -20.3023  -26.9796   22.9322 C   0  0  0  0  0  0  0  0  0  0  0  0
  -27.4713  -27.8457   20.5004 C   0  0  0  0  0  0  0  0  0  0  0  0
  -25.9851  -28.1341   18.9057 C   0  0  0  0  0  0  0  0  0  0  0  0
  -19.4724  -24.2938   24.3940 C   0  0  0  0  0  0  0  0  0  0  0  0
  -27.8135  -26.5357   18.3138 C   0  0  0  0  0  0  0  0  0  0  0  0
  -25.2435  -17.1155   20.1467 C   0  0  0  0  0  0  0  0  0  0  0  0
  -23.6679  -14.4675   21.1605 C   0  0  0  0  0  0  0  0  0  0  0  0
  -21.0810  -13.1425   22.9491 C   0  0  0  0  0  0  0  0  0  0  0  0
  -21.6516  -30.4349   22.3163 C   0  0  0  0  0  0  0  0  0  0  0  0
  -29.8282  -18.2192   18.1921 C   0  0  0  0  0  0  0  0  0  0  0  0
  -25.1116  -17.5284   22.6303 C   0  0  0  0  0  0  0  0  0  0  0  0
  -22.5064  -16.6784   21.5190 C   0  0  0  0  0  0  0  0  0  0  0  0
  -28.9252  -16.9890   18.2306 C   0  0  0  0  0  0  0  0  0  0  0  0
  -23.6807  -32.1930   19.9777 C   0  0  0  0  0  0  0  0  0  0  0  0
  -27.5033  -17.3575   17.8192 C   0  0  0  0  0  0  0  0  0  0  0  0
  -24.8497  -31.2388   19.7226 C   0  0  0  0  0  0  0  0  0  0  0  0
  -23.2196  -32.1487   21.4334 C   0  0  0  0  0  0  0  0  0  0  0  0
  -19.1054  -23.6986   22.4118 C   0  0  0  0  0  0  0  0  0  0  0  0
  -24.0778  -29.8538   21.6906 C   0  0  0  0  0  0  0  0  0  0  0  0
  -26.8973  -18.3821   18.7859 C   0  0  1  0  0  0  0  0  0  0  0  0
  -19.4541  -22.9132   23.7018 C   0  0  1  0  0  0  0  0  0  0  0  0
  -25.0149  -16.5069   21.5013 C   0  0  1  0  0  0  0  0  0  0  0  0
  -24.5348  -29.8154   20.2232 C   0  0  2  0  0  0  0  0  0  0  0  0
  -16.6652  -26.0630   22.3596 C   0  0  0  0  0  0  0  0  0  0  0  0
  -20.0290  -10.9477   23.5602 C   0  0  0  0  0  0  0  0  0  0  0  0
  -22.4463  -14.2791   18.3709 C   0  0  0  0  0  0  0  0  0  0  0  0
  -20.7370  -12.7043   19.3017 C   0  0  0  0  0  0  0  0  0  0  0  0
  -23.1540  -12.0893   19.3499 C   0  0  0  0  0  0  0  0  0  0  0  0
  -21.5555  -13.5868   25.8363 C   0  0  0  0  0  0  0  0  0  0  0  0
  -20.7718  -22.1629   23.7070 C   0  0  0  0  0  0  0  0  0  1  0  0
  -22.2990  -13.8793   20.9173 C   0  0  1  0  0  0  0  0  0  0  0  0
  -21.0319  -12.0164   23.9659 C   0  0  2  0  0  0  0  0  0  0  0  0
  -22.1623  -13.2640   19.4960 C   0  0  0  0  0  0  0  0  0  0  0  0
  -26.5989  -28.7193   21.0102 N   0  0  0  0  0  0  0  0  0  0  0  0
  -25.7072  -28.8747   20.0168 N   0  0  0  0  0  0  0  0  0  0  0  0
  -19.1479  -24.9063   23.2264 N   0  0  0  0  0  0  0  0  0  0  0  0
  -23.7133  -15.8377   21.4545 N   0  0  0  0  0  0  0  0  0  0  0  0
  -22.9355  -30.7696   21.8363 N   0  0  0  0  0  0  0  0  0  0  0  0
  -25.1912  -28.1714   17.8145 N   0  0  0  0  0  0  0  0  0  0  0  0
  -28.9862  -25.9157   18.7664 N   0  0  0  0  0  0  0  0  0  0  0  0
  -21.4894  -29.0877   22.6379 N   0  0  0  0  0  0  0  0  0  0  0  0
  -26.4715  -17.7339   20.0078 N   0  0  0  0  0  0  0  0  0  0  0  0
  -22.0622  -12.9340   22.0030 N   0  0  0  0  0  0  0  0  0  0  0  0
  -20.6416  -12.5435   25.3041 N   0  3  0  0  0  0  0  0  0  0  0  0
  -19.7129  -24.7086   25.5049 O   0  0  0  0  0  0  0  0  0  0  0  0
  -27.3978  -26.2916   17.1557 O   0  0  0  0  0  0  0  0  0  0  0  0
  -24.3711  -17.0292   19.2905 O   0  0  0  0  0  0  0  0  0  0  0  0
  -24.6598  -13.7367   21.0991 O   0  0  0  0  0  0  0  0  0  0  0  0
  -20.3221  -14.1085   22.9878 O   0  0  0  0  0  0  0  0  0  0  0  0
  -20.7535  -31.2757   22.4077 O   0  0  0  0  0  0  0  0  0  0  0  0
  -31.8623  -26.1712   23.5306 O   0  0  0  0  0  0  0  0  0  0  0  0
  -20.5867  -20.9113   23.0471 O   0  0  0  0  0  0  0  0  0  1  0  0
  -33.0318  -20.7829   23.5753 F   0  0  0  0  0  0  0  0  0  0  0  0
  -31.8610  -24.7392   25.8953 F   0  0  0  0  0  0  0  0  0  0  0  0
  -21.4417  -26.4019   23.3433 F   0  0  0  0  0  0  0  0  0  0  0  0
  1  2  1  0  0  0  0
  1  5  2  0  0  0  0
  2  6  2  0  0  0  0
  3 10  2  0  0  0  0
  3 17  1  0  0  0  0
  4 11  1  0  0  0  0
  4 17  2  0  0  0  0
  5 19  1  0  0  0  0
  6 21  1  0  0  0  0
  7 12  2  0  0  0  0
  7 20  1  0  0  0  0
  8  9  1  0  0  0  0
  8 23  2  0  0  0  0
  9 25  2  0  0  0  0
 10 26  1  0  0  0  0
 11 26  2  0  0  0  0
 12 27  1  0  0  0  0
 13 14  2  0  0  0  0
 13 28  1  0  0  0  0
 14 29  1  0  0  0  0
 15 22  1  0  0  0  0
 15 27  2  0  0  0  0
 16 29  2  0  0  0  0
 16 30  1  0  0  0  0
 17 32  1  0  0  0  0
 18 32  1  0  0  0  0
 18 33  2  0  0  0  0
 18 35  1  0  0  0  0
 19 21  2  0  0  0  0
 19 40  1  0  0  0  0
 20 22  2  0  0  0  0
 20 41  1  0  0  0  0
 21 50  1  0  0  0  0
 22 42  1  0  0  0  0
 23 24  1  0  0  0  0
 23 54  1  0  0  0  0
 24 31  2  0  0  0  0
 24 66  1  0  0  0  0
 25 31  1  0  0  0  0
 25 71  1  0  0  0  0
 26 81  1  0  0  0  0
 27 82  1  0  0  0  0
 28 30  2  0  0  0  0
 28 81  1  0  0  0  0
 29 83  1  0  0  0  0
 30 84  1  0  0  0  0
 31 85  1  0  0  0  0
 32 64  2  0  0  0  0
 33 65  1  0  0  0  0
 33 69  1  0  0  0  0
 34 51  1  0  0  0  0
 34 66  1  0  0  0  0
 34 75  2  0  0  0  0
 35 70  1  0  0  0  0
 35 76  2  0  0  0  0
 36 52  1  0  0  0  0
 36 72  1  0  0  0  0
 36 77  2  0  0  0  0
 37 61  1  0  0  0  0
 37 67  1  0  0  0  0
 37 78  2  0  0  0  0
 38 62  1  0  0  0  0
 38 73  1  0  0  0  0
 38 79  2  0  0  0  0
 39 68  1  0  0  0  0
 39 71  1  0  0  0  0
 39 80  2  0  0  0  0
 40 43  1  0  0  0  0
 41 52  1  0  0  0  0
 42 67  1  0  0  0  0
 43 45  1  0  0  0  0
 44 46  1  0  0  0  0
 44 47  1  0  0  0  0
 45 50  1  0  0  0  0
 46 53  1  0  0  0  0
 47 68  1  0  0  0  0
 48 51  1  0  0  0  0
 48 66  1  0  0  0  0
 49 53  1  0  0  0  0
 49 68  1  0  0  0  0
 50 72  1  0  0  0  0
 51 60  1  0  0  0  0
 52 67  1  0  0  0  0
 53 65  1  0  0  0  0
 55 62  1  0  0  0  0
 56 63  1  0  0  0  0
 57 63  1  0  0  0  0
 58 63  1  0  0  0  0
 59 74  1  0  0  0  0
 60 82  1  0  0  0  0
 61 63  1  0  0  0  0
 61 73  1  0  0  0  0
 62 74  1  0  0  0  0
 64 65  1  0  0  0  0
M  CHG  1  74   1
M  ISO  4  39 100  60 101  71 100  82 101
M  END
> <Batch ID>
0061

> <Smiles>
CNC(C)C(=O)NC(C(=O)N1Cc2cc([101O:1][101CH2:1]C3CN(c4c(C)ccc([100NH:0][100C:0](=O)N5CCCC(n6nc(-c7ccc(Oc8ccc(F)cc8F)cc7)c(C(N)=O)c6N)C5)c4F)C3=O)ccc2CC1C(=O)NC1CCCc2ccccc21)C(C)(C)C

> <Shape>
0.207

> <Color>
0.072

> <Negative vol penalty>
0.000

$$$$

  -OEChem-04042323073D

 87 96  0     1  0  0  0  0  0999 V2000
  -45.3146  -23.9884   26.0710 C   0  0  0  0  0  0  0  0  0  0  0  0
  -43.9309  -23.8644   25.9966 C   0  0  0  0  0  0  0  0  0  0  0  0
  -23.2426  -10.1684   22.1501 C   0  0  0  0  0  0  0  0  0  0  0  0
  -23.5327   -9.5455   19.8339 C   0  0  0  0  0  0  0  0  0  0  0  0
  -46.0745  -24.0176   24.9023 C   0  0  0  0  0  0  0  0  0  0  0  0
  -43.3062  -23.7706   24.7535 C   0  0  0  0  0  0  0  0  0  0  0  0
  -39.7668  -20.1511   24.6260 C   0  0  0  0  0  0  0  0  0  0  0  0
  -32.6890  -17.2707   23.5803 C   0  0  0  0  0  0  0  0  0  0  0  0
  -32.0751  -16.4283   22.6535 C   0  0  0  0  0  0  0  0  0  0  0  0
  -22.4826   -9.0185   22.3642 C   0  0  0  0  0  0  0  0  0  0  0  0
  -22.7728   -8.3956   20.0480 C   0  0  0  0  0  0  0  0  0  0  0  0
  -38.5368  -20.4423   25.2141 C   0  0  0  0  0  0  0  0  0  0  0  0
  -23.0401   -5.7197   22.8539 C   0  0  0  0  0  0  0  0  0  0  0  0
  -23.3083   -4.9693   23.9987 C   0  0  0  0  0  0  0  0  0  0  0  0
  -37.6121  -20.9078   23.0352 C   0  0  0  0  0  0  0  0  0  0  0  0
  -30.5291  -18.1499   24.2120 C   0  0  0  0  0  0  0  0  0  0  0  0
  -21.0389   -5.3106   24.7540 C   0  0  0  0  0  0  0  0  0  0  0  0
  -23.7676  -10.4319   20.8850 C   0  0  0  0  0  0  0  0  0  0  0  0
  -24.1411  -12.9550   20.8371 C   0  0  0  0  0  0  0  0  0  0  0  0
  -45.4596  -23.9145   23.6446 C   0  0  0  0  0  0  0  0  0  0  0  0
  -39.9320  -20.2467   23.2367 C   0  0  0  0  0  0  0  0  0  0  0  0
  -44.0585  -23.7999   23.5669 C   0  0  0  0  0  0  0  0  0  0  0  0
  -38.8445  -20.6148   22.4317 C   0  0  0  0  0  0  0  0  0  0  0  0
  -29.9152  -17.3076   23.2850 C   0  0  0  0  0  0  0  0  0  0  0  0
  -31.9160  -18.1315   24.3596 C   0  0  0  0  0  0  0  0  0  0  0  0
  -30.6882  -16.4468   22.5058 C   0  0  0  0  0  0  0  0  0  0  0  0
  -22.2478   -8.1321   21.3132 C   0  0  0  0  0  0  0  0  0  0  0  0
  -37.4600  -20.8236   24.4190 C   0  0  0  0  0  0  0  0  0  0  0  0
  -21.7714   -6.2657   22.6592 C   0  0  0  0  0  0  0  0  0  0  0  0
  -22.3077   -4.7647   24.9487 C   0  0  0  0  0  0  0  0  0  0  0  0
  -20.7708   -6.0611   23.6093 C   0  0  0  0  0  0  0  0  0  0  0  0
  -24.5522  -11.6199   20.6631 C   0  0  0  0  0  0  0  0  0  0  0  0
  -25.2436  -13.7007   20.4982 C   0  0  0  0  0  0  0  0  0  0  0  0
  -32.5296  -19.5911   27.6993 C   0  0  0  0  0  0  0  0  0  0  0  0
  -33.8595  -19.4840   25.1048 C   0  0  0  0  0  0  0  0  0  0  0  0
  -22.8758  -13.4747   21.2669 C   0  0  0  0  0  0  0  0  0  0  0  0
  -41.7500  -22.0031   21.3096 C   0  0  0  0  0  0  0  0  0  0  0  0
  -40.4803  -20.0955   19.0136 C   0  0  0  0  0  0  0  0  0  0  0  0
  -37.2420  -18.7067   18.2380 C   0  0  0  0  0  0  0  0  0  0  0  0
  -30.7218  -14.6726   20.7177 C   0  0  0  0  0  0  0  0  0  0  0  0
  -46.3185  -23.9984   22.4076 C   0  0  0  0  0  0  0  0  0  0  0  0
  -41.2580  -19.9033   22.6152 C   0  0  0  0  0  0  0  0  0  0  0  0
  -38.9643  -20.7129   20.9335 C   0  0  0  0  0  0  0  0  0  0  0  0
  -34.0311  -19.5598   27.5863 C   0  0  0  0  0  0  0  0  0  0  0  0
  -31.7390  -19.5555   26.4088 C   0  0  0  0  0  0  0  0  0  0  0  0
  -45.6131  -23.5166   21.1425 C   0  0  0  0  0  0  0  0  0  0  0  0
  -29.5850  -12.3405   18.2792 C   0  0  0  0  0  0  0  0  0  0  0  0
  -44.2122  -24.1135   21.0522 C   0  0  0  0  0  0  0  0  0  0  0  0
  -28.1405  -12.0550   18.6963 C   0  0  0  0  0  0  0  0  0  0  0  0
  -30.4991  -12.5239   19.4893 C   0  0  0  0  0  0  0  0  0  0  0  0
  -28.5969  -13.2330   20.8851 C   0  0  0  0  0  0  0  0  0  0  0  0
  -43.3464  -23.6706   22.2379 C   0  0  1  0  0  0  0  0  0  0  0  0
  -34.4183  -20.2701   26.2924 C   0  0  1  0  0  0  0  0  0  0  0  0
  -41.4535  -20.5318   21.2390 C   0  0  1  0  0  0  0  0  0  0  0  0
  -27.6258  -13.1051   19.7002 C   0  0  2  0  0  0  0  0  0  0  0  0
  -28.4276  -17.3466   23.1492 C   0  0  0  0  0  0  0  0  0  0  0  0
  -36.6177  -16.6220   16.9883 C   0  0  0  0  0  0  0  0  0  0  0  0
  -40.2942  -21.9479   16.5962 C   0  0  0  0  0  0  0  0  0  0  0  0
  -38.2981  -20.6416   15.8365 C   0  0  0  0  0  0  0  0  0  0  0  0
  -40.5177  -19.5208   16.0360 C   0  0  0  0  0  0  0  0  0  0  0  0
  -35.6195  -17.6983   20.4985 C   0  0  0  0  0  0  0  0  0  0  0  0
  -35.9341  -20.4219   26.1984 C   0  0  0  0  0  0  0  0  0  1  0  0
  -39.2552  -20.1525   18.1334 C   0  0  1  0  0  0  0  0  0  0  0  0
  -36.8249  -17.2519   18.3569 C   0  0  2  0  0  0  0  0  0  0  0  0
  -39.5917  -20.5779   16.6762 C   0  0  0  0  0  0  0  0  0  0  0  0
  -25.8171  -11.5201   20.2458 N   0  0  0  0  0  0  0  0  0  0  0  0
  -26.2103  -12.8019   20.1548 N   0  0  0  0  0  0  0  0  0  0  0  0
  -32.5503  -18.9998   25.3192 N   0  0  0  0  0  0  0  0  0  0  0  0
  -40.2829  -20.3732   20.3737 N   0  0  0  0  0  0  0  0  0  0  0  0
  -29.9502  -13.5366   20.3939 N   0  0  0  0  0  0  0  0  0  0  0  0
  -25.4708  -15.0310   20.4633 N   0  0  0  0  0  0  0  0  0  0  0  0
  -21.8516  -12.5691   21.5755 N   0  0  0  0  0  0  0  0  0  0  0  0
  -30.0834  -15.5822   21.5600 N   0  0  0  0  0  0  0  0  0  0  0  0
  -42.8785  -22.3150   22.0436 N   0  0  0  0  0  0  0  0  0  0  0  0
  -38.6137  -18.8467   18.2416 N   0  0  0  0  0  0  0  0  0  0  0  0
  -35.5522  -17.1389   19.1239 N   0  3  0  0  0  0  0  0  0  0  0  0
  -31.9712  -19.7139   28.7892 O   0  0  0  0  0  0  0  0  0  0  0  0
  -34.5153  -19.3522   24.0713 O   0  0  0  0  0  0  0  0  0  0  0  0
  -22.6547  -14.7060   21.3582 O   0  0  0  0  0  0  0  0  0  0  0  0
  -41.0106  -22.7965   20.7391 O   0  0  0  0  0  0  0  0  0  0  0  0
  -41.5710  -19.8081   18.5142 O   0  0  0  0  0  0  0  0  0  0  0  0
  -36.4320  -19.6265   18.1469 O   0  0  0  0  0  0  0  0  0  0  0  0
  -31.8544  -14.8403   20.2581 O   0  0  0  0  0  0  0  0  0  0  0  0
  -21.5065   -7.0098   21.5218 O   0  0  0  0  0  0  0  0  0  0  0  0
  -36.2584  -21.1091   24.9905 O   0  0  0  0  0  0  0  0  0  1  0  0
  -22.5649   -4.0427   26.0473 F   0  0  0  0  0  0  0  0  0  0  0  0
  -19.5496   -6.5821   23.4271 F   0  0  0  0  0  0  0  0  0  0  0  0
  1  2  1  0  0  0  0
  1  5  2  0  0  0  0
  2  6  2  0  0  0  0
  3 10  2  0  0  0  0
  3 18  1  0  0  0  0
  4 11  1  0  0  0  0
  4 18  2  0  0  0  0
  5 20  1  0  0  0  0
  6 22  1  0  0  0  0
  7 12  2  0  0  0  0
  7 21  1  0  0  0  0
  8  9  2  0  0  0  0
  8 25  1  0  0  0  0
  9 26  1  0  0  0  0
 10 27  1  0  0  0  0
 11 27  2  0  0  0  0
 12 28  1  0  0  0  0
 13 14  2  0  0  0  0
 13 29  1  0  0  0  0
 14 30  1  0  0  0  0
 15 23  1  0  0  0  0
 15 28  2  0  0  0  0
 16 24  1  0  0  0  0
 16 25  2  0  0  0  0
 17 30  2  0  0  0  0
 17 31  1  0  0  0  0
 18 32  1  0  0  0  0
 19 32  1  0  0  0  0
 19 33  2  0  0  0  0
 19 36  1  0  0  0  0
 20 22  2  0  0  0  0
 20 41  1  0  0  0  0
 21 23  2  0  0  0  0
 21 42  1  0  0  0  0
 22 52  1  0  0  0  0
 23 43  1  0  0  0  0
 24 26  2  0  0  0  0
 24 56  1  0  0  0  0
 25 68  1  0  0  0  0
 26 73  1  0  0  0  0
 27 84  1  0  0  0  0
 28 85  1  0  0  0  0
 29 31  2  0  0  0  0
 29 84  1  0  0  0  0
 30 86  1  0  0  0  0
 31 87  1  0  0  0  0
 32 66  2  0  0  0  0
 33 67  1  0  0  0  0
 33 71  1  0  0  0  0
 34 44  1  0  0  0  0
 34 45  1  0  0  0  0
 34 77  2  0  0  0  0
 35 53  1  0  0  0  0
 35 68  1  0  0  0  0
 35 78  2  0  0  0  0
 36 72  1  0  0  0  0
 36 79  2  0  0  0  0
 37 54  1  0  0  0  0
 37 74  1  0  0  0  0
 37 80  2  0  0  0  0
 38 63  1  0  0  0  0
 38 69  1  0  0  0  0
 38 81  2  0  0  0  0
 39 64  1  0  0  0  0
 39 75  1  0  0  0  0
 39 82  2  0  0  0  0
 40 70  1  0  0  0  0
 40 73  1  0  0  0  0
 40 83  2  0  0  0  0
 41 46  1  0  0  0  0
 42 54  1  0  0  0  0
 43 69  1  0  0  0  0
 44 53  1  0  0  0  0
 45 68  1  0  0  0  0
 46 48  1  0  0  0  0
 47 49  1  0  0  0  0
 47 50  1  0  0  0  0
 48 52  1  0  0  0  0
 49 55  1  0  0  0  0
 50 70  1  0  0  0  0
 51 55  1  0  0  0  0
 51 70  1  0  0  0  0
 52 74  1  0  0  0  0
 53 62  1  0  0  0  0
 54 69  1  0  0  0  0
 55 67  1  0  0  0  0
 57 64  1  0  0  0  0
 58 65  1  0  0  0  0
 59 65  1  0  0  0  0
 60 65  1  0  0  0  0
 61 76  1  0  0  0  0
 62 85  1  0  0  0  0
 63 65  1  0  0  0  0
 63 75  1  0  0  0  0
 64 76  1  0  0  0  0
 66 67  1  0  0  0  0
M  CHG  1  76   1
M  ISO  4  40 100  62 101  73 100  85 101
M  END
> <Batch ID>
0061

> <Smiles>
CNC(C)C(=O)NC(C(=O)N1Cc2cc([101O:1][101CH2:1]C3CC(=O)CN(c4ccc([100NH:0][100C:0](=O)N5CCCC(n6nc(-c7ccc(Oc8ccc(F)cc8F)cc7)c(C(N)=O)c6N)C5)c(C)c4)C3=O)ccc2CC1C(=O)NC1CCCc2ccccc21)C(C)(C)C

> <Shape>
0.167

> <Color>
0.204

> <Negative vol penalty>
0.000

$$$$

  -OEChem-04042323073D

 88 97  0     1  0  0  0  0  0999 V2000
  -16.1025  -29.1389   20.0269 C   0  0  0  0  0  0  0  0  0  0  0  0
  -17.0835  -28.1582   19.9214 C   0  0  0  0  0  0  0  0  0  0  0  0
  -32.0066  -19.1998   16.4749 C   0  0  0  0  0  0  0  0  0  0  0  0
  -22.6920  -10.3241   20.3022 C   0  0  0  0  0  0  0  0  0  0  0  0
  -24.4292   -9.3430   21.6648 C   0  0  0  0  0  0  0  0  0  0  0  0
  -16.4641  -30.4853   20.0506 C   0  0  0  0  0  0  0  0  0  0  0  0
  -18.4268  -28.5233   19.8384 C   0  0  0  0  0  0  0  0  0  0  0  0
  -23.2148  -25.4980   22.1681 C   0  0  0  0  0  0  0  0  0  0  0  0
  -31.8708  -19.9503   17.6427 C   0  0  0  0  0  0  0  0  0  0  0  0
  -31.5633  -17.8777   16.4400 C   0  0  0  0  0  0  0  0  0  0  0  0
  -21.9687   -9.1332   20.3669 C   0  0  0  0  0  0  0  0  0  0  0  0
  -23.7059   -8.1521   21.7295 C   0  0  0  0  0  0  0  0  0  0  0  0
  -24.1329  -24.6153   21.6008 C   0  0  0  0  0  0  0  0  0  0  0  0
  -21.0573   -6.9384   23.4421 C   0  0  0  0  0  0  0  0  0  0  0  0
  -20.9453   -6.3168   24.6857 C   0  0  0  0  0  0  0  0  0  0  0  0
  -25.6765  -26.4402   21.2743 C   0  0  0  0  0  0  0  0  0  0  0  0
  -22.0362   -4.3509   23.8012 C   0  0  0  0  0  0  0  0  0  0  0  0
  -23.9223  -10.4289   20.9511 C   0  0  0  0  0  0  0  0  0  0  0  0
  -24.2588  -12.9292   21.3292 C   0  0  0  0  0  0  0  0  0  0  0  0
  -17.8131  -30.8667   19.9776 C   0  0  0  0  0  0  0  0  0  0  0  0
  -23.5169  -26.8625   22.2830 C   0  0  0  0  0  0  0  0  0  0  0  0
  -18.8066  -29.8761   19.8598 C   0  0  0  0  0  0  0  0  0  0  0  0
  -24.7615  -27.3376   21.8458 C   0  0  0  0  0  0  0  0  0  0  0  0
  -31.2918  -19.3787   18.7758 C   0  0  0  0  0  0  0  0  0  0  0  0
  -30.8486  -18.0566   18.7409 C   0  0  0  0  0  0  0  0  0  0  0  0
  -30.9844  -17.3061   17.5730 C   0  0  0  0  0  0  0  0  0  0  0  0
  -22.4756   -8.0472   21.0806 C   0  0  0  0  0  0  0  0  0  0  0  0
  -25.3628  -25.0868   21.1511 C   0  0  0  0  0  0  0  0  0  0  0  0
  -21.6587   -6.2663   22.3780 C   0  0  0  0  0  0  0  0  0  0  0  0
  -21.4347   -5.0230   24.8653 C   0  0  0  0  0  0  0  0  0  0  0  0
  -22.1482   -4.9725   22.5576 C   0  0  0  0  0  0  0  0  0  0  0  0
  -24.6703  -11.6586   20.8841 C   0  0  0  0  0  0  0  0  0  0  0  0
  -25.3191  -13.7537   21.0418 C   0  0  0  0  0  0  0  0  0  0  0  0
  -29.1058  -20.3333   21.4060 C   0  0  0  0  0  0  0  0  0  0  0  0
  -23.0282  -13.3285   21.9472 C   0  0  0  0  0  0  0  0  0  0  0  0
  -22.2633  -29.5429   21.1221 C   0  0  0  0  0  0  0  0  0  0  0  0
  -24.4428  -30.9464   23.0720 C   0  0  0  0  0  0  0  0  0  0  0  0
  -27.3988  -30.7061   24.7607 C   0  0  0  0  0  0  0  0  0  0  0  0
  -29.1798  -15.6012   17.7410 C   0  0  0  0  0  0  0  0  0  0  0  0
  -18.1520  -32.3362   19.9593 C   0  0  0  0  0  0  0  0  0  0  0  0
  -22.5264  -27.7971   22.9217 C   0  0  0  0  0  0  0  0  0  0  0  0
  -25.1424  -28.7899   21.9649 C   0  0  0  0  0  0  0  0  0  0  0  0
  -27.6773  -20.8399   21.4288 C   0  0  0  0  0  0  0  0  0  0  0  0
  -19.6235  -32.6255   20.2442 C   0  0  0  0  0  0  0  0  0  0  0  0
  -30.0340  -12.6825   19.5835 C   0  0  0  0  0  0  0  0  0  0  0  0
  -20.5178  -31.7005   19.4249 C   0  0  0  0  0  0  0  0  0  0  0  0
  -28.6688  -12.2506   20.1178 C   0  0  0  0  0  0  0  0  0  0  0  0
  -28.1712  -22.3991   19.5018 C   0  0  0  0  0  0  0  0  0  0  0  0
  -29.9477  -13.2075   18.1501 C   0  0  0  0  0  0  0  0  0  0  0  0
  -29.0835  -21.2407   19.1021 C   0  0  0  0  0  0  0  0  0  0  0  0
  -27.5848  -13.8551   18.4987 C   0  0  0  0  0  0  0  0  0  0  0  0
  -20.2761  -30.2315   19.7925 C   0  0  1  0  0  0  0  0  0  0  0  0
  -22.7341  -29.2539   22.5194 C   0  0  1  0  0  0  0  0  0  0  0  0
  -27.6388  -22.2868   20.9385 C   0  0  1  0  0  0  0  0  0  0  0  0
  -27.6319  -13.3765   19.9582 C   0  0  1  0  0  0  0  0  0  0  0  0
  -30.2279  -17.4477   19.9591 C   0  0  0  0  0  0  0  0  0  0  0  0
  -28.9376  -32.0295   26.2365 C   0  0  0  0  0  0  0  0  0  0  0  0
  -25.4235  -32.5106   20.6427 C   0  0  0  0  0  0  0  0  0  0  0  0
  -27.5009  -33.0650   21.9254 C   0  0  0  0  0  0  0  0  0  0  0  0
  -25.2805  -33.8439   22.7537 C   0  0  0  0  0  0  0  0  0  0  0  0
  -31.4442  -14.9206   16.9763 C   0  0  0  0  0  0  0  0  0  0  0  0
  -27.1006  -28.7842   26.9915 C   0  0  0  0  0  0  0  0  0  0  0  0
  -31.1577  -20.2089   20.0195 C   0  0  0  0  0  0  0  0  0  0  0  0
  -26.2365  -22.8770   21.0564 C   0  0  0  0  0  0  0  0  0  1  0  0
  -25.8774  -31.3931   22.9255 C   0  0  1  0  0  0  0  0  0  0  0  0
  -27.7731  -31.0525   26.1905 C   0  0  2  0  0  0  0  0  0  0  0  0
  -26.0129  -32.6761   22.0577 C   0  0  0  0  0  0  0  0  0  0  0  0
  -25.8963  -11.6700   20.3541 N   0  0  0  0  0  0  0  0  0  0  0  0
  -26.2642  -12.9579   20.4643 N   0  0  0  0  0  0  0  0  0  0  0  0
  -29.7901  -20.6520   20.2329 N   0  0  0  0  0  0  0  0  0  0  0  0
  -24.1377  -29.6654   22.5907 N   0  0  0  0  0  0  0  0  0  0  0  0
  -28.9181  -14.2503   18.0382 N   0  0  0  0  0  0  0  0  0  0  0  0
  -25.5257  -15.0745   21.2293 N   0  0  0  0  0  0  0  0  0  0  0  0
  -22.9366  -13.2819   23.3449 N   0  0  0  0  0  0  0  0  0  0  0  0
  -20.9331  -29.9082   21.0408 N   0  0  0  0  0  0  0  0  0  0  0  0
  -26.4028  -31.5294   24.2797 N   0  0  0  0  0  0  0  0  0  0  0  0
  -30.5321  -15.9359   17.5140 N   0  0  0  0  0  0  0  0  0  0  0  0
  -28.1618  -29.8224   26.9367 N   0  3  0  0  0  0  0  0  0  0  0  0
  -29.5657  -19.6889   22.3471 O   0  0  0  0  0  0  0  0  0  0  0  0
  -22.0337  -13.6995   21.2788 O   0  0  0  0  0  0  0  0  0  0  0  0
  -23.0491  -29.4434   20.1870 O   0  0  0  0  0  0  0  0  0  0  0  0
  -23.6248  -31.7033   23.6007 O   0  0  0  0  0  0  0  0  0  0  0  0
  -27.9387  -29.7984   24.1320 O   0  0  0  0  0  0  0  0  0  0  0  0
  -28.2730  -16.4384   17.6589 O   0  0  0  0  0  0  0  0  0  0  0  0
  -21.7699   -6.8851   21.1441 O   0  0  0  0  0  0  0  0  0  0  0  0
  -26.2604  -24.2276   20.5964 O   0  0  0  0  0  0  0  0  0  1  0  0
  -21.3285   -4.4268   26.0600 F   0  0  0  0  0  0  0  0  0  0  0  0
  -22.7280   -4.3222   21.5394 F   0  0  0  0  0  0  0  0  0  0  0  0
  1  2  1  0  0  0  0
  1  6  2  0  0  0  0
  2  7  2  0  0  0  0
  3  9  2  0  0  0  0
  3 10  1  0  0  0  0
  4 11  2  0  0  0  0
  4 18  1  0  0  0  0
  5 12  1  0  0  0  0
  5 18  2  0  0  0  0
  6 20  1  0  0  0  0
  7 22  1  0  0  0  0
  8 13  2  0  0  0  0
  8 21  1  0  0  0  0
  9 24  1  0  0  0  0
 10 26  2  0  0  0  0
 11 27  1  0  0  0  0
 12 27  2  0  0  0  0
 13 28  1  0  0  0  0
 14 15  2  0  0  0  0
 14 29  1  0  0  0  0
 15 30  1  0  0  0  0
 16 23  1  0  0  0  0
 16 28  2  0  0  0  0
 17 30  2  0  0  0  0
 17 31  1  0  0  0  0
 18 32  1  0  0  0  0
 19 32  1  0  0  0  0
 19 33  2  0  0  0  0
 19 35  1  0  0  0  0
 20 22  2  0  0  0  0
 20 40  1  0  0  0  0
 21 23  2  0  0  0  0
 21 41  1  0  0  0  0
 22 52  1  0  0  0  0
 23 42  1  0  0  0  0
 24 25  2  0  0  0  0
 24 63  1  0  0  0  0
 25 26  1  0  0  0  0
 25 56  1  0  0  0  0
 26 77  1  0  0  0  0
 27 85  1  0  0  0  0
 28 86  1  0  0  0  0
 29 31  2  0  0  0  0
 29 85  1  0  0  0  0
 30 87  1  0  0  0  0
 31 88  1  0  0  0  0
 32 68  2  0  0  0  0
 33 69  1  0  0  0  0
 33 73  1  0  0  0  0
 34 43  1  0  0  0  0
 34 70  1  0  0  0  0
 34 79  2  0  0  0  0
 35 74  1  0  0  0  0
 35 80  2  0  0  0  0
 36 53  1  0  0  0  0
 36 75  1  0  0  0  0
 36 81  2  0  0  0  0
 37 65  1  0  0  0  0
 37 71  1  0  0  0  0
 37 82  2  0  0  0  0
 38 66  1  0  0  0  0
 38 76  1  0  0  0  0
 38 83  2  0  0  0  0
 39 72  1  0  0  0  0
 39 77  1  0  0  0  0
 39 84  2  0  0  0  0
 40 44  1  0  0  0  0
 41 53  1  0  0  0  0
 42 71  1  0  0  0  0
 43 54  1  0  0  0  0
 44 46  1  0  0  0  0
 45 47  1  0  0  0  0
 45 49  1  0  0  0  0
 46 52  1  0  0  0  0
 47 55  1  0  0  0  0
 48 50  1  0  0  0  0
 48 54  1  0  0  0  0
 49 72  1  0  0  0  0
 50 70  1  0  0  0  0
 51 55  1  0  0  0  0
 51 72  1  0  0  0  0
 52 75  1  0  0  0  0
 53 71  1  0  0  0  0
 54 64  1  0  0  0  0
 55 69  1  0  0  0  0
 57 66  1  0  0  0  0
 58 67  1  0  0  0  0
 59 67  1  0  0  0  0
 60 67  1  0  0  0  0
 61 77  1  0  0  0  0
 62 78  1  0  0  0  0
 63 70  1  0  0  0  0
 64 86  1  0  0  0  0
 65 67  1  0  0  0  0
 65 76  1  0  0  0  0
 66 78  1  0  0  0  0
 68 69  1  0  0  0  0
M  CHG  1  78   1
M  ISO  4  39 100  64 101  77 100  86 101
M  END
> <Batch ID>
0061

> <Smiles>
CNC(C)C(=O)NC(C(=O)N1Cc2cc([101O:1][101CH2:1]C3CCN(Cc4cccc([100N:0](C)[100C:0](=O)N5CCCC(n6nc(-c7ccc(Oc8ccc(F)cc8F)cc7)c(C(N)=O)c6N)C5)c4C)C(=O)C3)ccc2CC1C(=O)NC1CCCc2ccccc21)C(C)(C)C

> <Shape>
0.308

> <Color>
0.155

> <Negative vol penalty>
0.000

$$$$

  -OEChem-04042323073D

 82 90  0     1  0  0  0  0  0999 V2000
  -18.4661  -31.6189   22.9097 C   0  0  0  0  0  0  0  0  0  0  0  0
  -19.8544  -31.5393   22.8695 C   0  0  0  0  0  0  0  0  0  0  0  0
  -30.4729  -22.9162   17.1667 C   0  0  0  0  0  0  0  0  0  0  0  0
  -28.0160  -12.6991   22.4229 C   0  0  0  0  0  0  0  0  0  0  0  0
  -26.8072  -12.9677   20.3484 C   0  0  0  0  0  0  0  0  0  0  0  0
  -17.6998  -30.4567   22.8330 C   0  0  0  0  0  0  0  0  0  0  0  0
  -20.4773  -30.2971   22.7535 C   0  0  0  0  0  0  0  0  0  0  0  0
  -25.6617  -29.0451   19.7435 C   0  0  0  0  0  0  0  0  0  0  0  0
  -30.7116  -24.1213   17.8272 C   0  0  0  0  0  0  0  0  0  0  0  0
  -29.5335  -22.0177   17.6726 C   0  0  0  0  0  0  0  0  0  0  0  0
  -27.4894  -11.4151   22.5635 C   0  0  0  0  0  0  0  0  0  0  0  0
  -26.2806  -11.6837   20.4890 C   0  0  0  0  0  0  0  0  0  0  0  0
  -26.9808  -28.8957   20.1693 C   0  0  0  0  0  0  0  0  0  0  0  0
  -23.8173  -10.1804   22.2505 C   0  0  0  0  0  0  0  0  0  0  0  0
  -22.4548  -10.0084   22.0064 C   0  0  0  0  0  0  0  0  0  0  0  0
  -26.6729  -26.5050   20.2647 C   0  0  0  0  0  0  0  0  0  0  0  0
  -29.0716  -23.5294   19.4997 C   0  0  0  0  0  0  0  0  0  0  0  0
  -22.9688   -8.4421   20.2402 C   0  0  0  0  0  0  0  0  0  0  0  0
  -27.6748  -13.4754   21.3154 C   0  0  0  0  0  0  0  0  0  0  0  0
  -29.4131  -15.1647   20.5202 C   0  0  0  0  0  0  0  0  0  0  0  0
  -18.3134  -29.2004   22.7064 C   0  0  0  0  0  0  0  0  0  0  0  0
  -24.8336  -27.9246   19.5853 C   0  0  0  0  0  0  0  0  0  0  0  0
  -19.7185  -29.1169   22.6764 C   0  0  0  0  0  0  0  0  0  0  0  0
  -25.3444  -26.6427   19.8343 C   0  0  0  0  0  0  0  0  0  0  0  0
  -30.0109  -24.4279   18.9938 C   0  0  0  0  0  0  0  0  0  0  0  0
  -28.8329  -22.3243   18.8391 C   0  0  0  0  0  0  0  0  0  0  0  0
  -26.6218  -10.9074   21.5966 C   0  0  0  0  0  0  0  0  0  0  0  0
  -27.4858  -27.6257   20.4327 C   0  0  0  0  0  0  0  0  0  0  0  0
  -24.7556   -9.4833   21.4893 C   0  0  0  0  0  0  0  0  0  0  0  0
  -22.0305   -9.1393   21.0013 C   0  0  0  0  0  0  0  0  0  0  0  0
  -24.3313   -8.6142   20.4842 C   0  0  0  0  0  0  0  0  0  0  0  0
  -28.2180  -14.8020   21.1698 C   0  0  0  0  0  0  0  0  0  0  0  0
  -29.4782  -16.5297   20.6581 C   0  0  0  0  0  0  0  0  0  0  0  0
  -30.3781  -14.3414   19.8519 C   0  0  0  0  0  0  0  0  0  0  0  0
  -22.1242  -26.9316   20.9184 C   0  0  0  0  0  0  0  0  0  0  0  0
  -22.3259  -24.6036   18.6685 C   0  0  0  0  0  0  0  0  0  0  0  0
  -31.1474  -26.6547   19.3003 C   0  0  0  0  0  0  0  0  0  0  0  0
  -24.2899  -22.7721   16.5625 C   0  0  0  0  0  0  0  0  0  0  0  0
  -27.0974  -21.5606   20.4978 C   0  0  0  0  0  0  0  0  0  0  0  0
  -17.4445  -27.9681   22.6745 C   0  0  0  0  0  0  0  0  0  0  0  0
  -23.4209  -28.1005   19.0996 C   0  0  0  0  0  0  0  0  0  0  0  0
  -24.5025  -25.4060   19.6604 C   0  0  0  0  0  0  0  0  0  0  0  0
  -18.1724  -26.7224   22.1758 C   0  0  0  0  0  0  0  0  0  0  0  0
  -26.7303  -19.6878   23.5037 C   0  0  0  0  0  0  0  0  0  0  0  0
  -19.5322  -26.5911   22.8543 C   0  0  0  0  0  0  0  0  0  0  0  0
  -27.1830  -18.2796   23.1110 C   0  0  0  0  0  0  0  0  0  0  0  0
  -25.9720  -20.3765   22.3703 C   0  0  0  0  0  0  0  0  0  0  0  0
  -27.1264  -18.9957   20.6880 C   0  0  0  0  0  0  0  0  0  0  0  0
  -20.4304  -27.7899   22.5263 C   0  0  1  0  0  0  0  0  0  0  0  0
  -22.5127  -26.9311   19.4669 C   0  0  1  0  0  0  0  0  0  0  0  0
  -27.9509  -18.2866   21.7747 C   0  0  2  0  0  0  0  0  0  0  0  0
  -24.1749  -20.9175   14.8760 C   0  0  0  0  0  0  0  0  0  0  0  0
  -22.0473  -22.5707   20.9267 C   0  0  0  0  0  0  0  0  0  0  0  0
  -22.8794  -20.8114   19.3518 C   0  0  0  0  0  0  0  0  0  0  0  0
  -20.7523  -22.0180   18.8598 C   0  0  0  0  0  0  0  0  0  0  0  0
  -25.3048  -24.5192   14.4000 C   0  0  0  0  0  0  0  0  0  0  0  0
  -31.0931  -27.8045   20.2997 C   0  0  0  0  0  0  0  0  0  0  0  0
  -29.7175  -28.4466   20.3976 C   0  0  0  0  0  0  0  0  0  1  0  0
  -22.9545  -23.2328   18.6019 C   0  0  1  0  0  0  0  0  0  0  0  0
  -24.1383  -22.4222   15.0932 C   0  0  2  0  0  0  0  0  0  0  0  0
  -22.1739  -22.1815   19.4403 C   0  0  0  0  0  0  0  0  0  0  0  0
  -27.5706  -15.8518   21.6824 N   0  0  0  0  0  0  0  0  0  0  0  0
  -28.3618  -16.8877   21.3550 N   0  0  0  0  0  0  0  0  0  0  0  0
  -23.1258  -25.6305   19.1895 N   0  0  0  0  0  0  0  0  0  0  0  0
  -26.7622  -20.3485   21.1376 N   0  0  0  0  0  0  0  0  0  0  0  0
  -30.3809  -17.4468   20.2499 N   0  0  0  0  0  0  0  0  0  0  0  0
  -30.1567  -12.9584   19.8026 N   0  0  0  0  0  0  0  0  0  0  0  0
  -30.2532  -25.6510   19.6631 N   0  0  0  0  0  0  0  0  0  0  0  0
  -27.8787  -21.4111   19.3525 N   0  0  0  0  0  0  0  0  0  0  0  0
  -20.9821  -27.6587   21.1948 N   0  0  0  0  0  0  0  0  0  0  0  0
  -23.0666  -22.9034   17.1851 N   0  0  0  0  0  0  0  0  0  0  0  0
  -25.2376  -23.0387   14.2978 N   0  3  0  0  0  0  0  0  0  0  0  0
  -31.4144  -14.8163   19.3284 O   0  0  0  0  0  0  0  0  0  0  0  0
  -22.8090  -26.3166   21.7274 O   0  0  0  0  0  0  0  0  0  0  0  0
  -21.1702  -24.7591   18.2662 O   0  0  0  0  0  0  0  0  0  0  0  0
  -31.8968  -26.6684   18.3295 O   0  0  0  0  0  0  0  0  0  0  0  0
  -25.3841  -22.9112   17.1047 O   0  0  0  0  0  0  0  0  0  0  0  0
  -26.7421  -22.6524   20.9491 O   0  0  0  0  0  0  0  0  0  0  0  0
  -26.1079   -9.6545   21.7333 O   0  0  0  0  0  0  0  0  0  0  0  0
  -28.7728  -27.4771   20.8491 O   0  0  0  0  0  0  0  0  0  1  0  0
  -20.7220   -8.9731   20.7681 F   0  0  0  0  0  0  0  0  0  0  0  0
  -25.2280   -7.9408   19.7505 F   0  0  0  0  0  0  0  0  0  0  0  0
  1  2  1  0  0  0  0
  1  6  2  0  0  0  0
  2  7  2  0  0  0  0
  3  9  2  0  0  0  0
  3 10  1  0  0  0  0
  4 11  2  0  0  0  0
  4 19  1  0  0  0  0
  5 12  1  0  0  0  0
  5 19  2  0  0  0  0
  6 21  1  0  0  0  0
  7 23  1  0  0  0  0
  8 13  2  0  0  0  0
  8 22  1  0  0  0  0
  9 25  1  0  0  0  0
 10 26  2  0  0  0  0
 11 27  1  0  0  0  0
 12 27  2  0  0  0  0
 13 28  1  0  0  0  0
 14 15  2  0  0  0  0
 14 29  1  0  0  0  0
 15 30  1  0  0  0  0
 16 24  1  0  0  0  0
 16 28  2  0  0  0  0
 17 25  2  0  0  0  0
 17 26  1  0  0  0  0
 18 30  2  0  0  0  0
 18 31  1  0  0  0  0
 19 32  1  0  0  0  0
 20 32  1  0  0  0  0
 20 33  2  0  0  0  0
 20 34  1  0  0  0  0
 21 23  2  0  0  0  0
 21 40  1  0  0  0  0
 22 24  2  0  0  0  0
 22 41  1  0  0  0  0
 23 49  1  0  0  0  0
 24 42  1  0  0  0  0
 25 68  1  0  0  0  0
 26 69  1  0  0  0  0
 27 79  1  0  0  0  0
 28 80  1  0  0  0  0
 29 31  2  0  0  0  0
 29 79  1  0  0  0  0
 30 81  1  0  0  0  0
 31 82  1  0  0  0  0
 32 62  2  0  0  0  0
 33 63  1  0  0  0  0
 33 66  1  0  0  0  0
 34 67  1  0  0  0  0
 34 73  2  0  0  0  0
 35 50  1  0  0  0  0
 35 70  1  0  0  0  0
 35 74  2  0  0  0  0
 36 59  1  0  0  0  0
 36 64  1  0  0  0  0
 36 75  2  0  0  0  0
 37 57  1  0  0  0  0
 37 68  1  0  0  0  0
 37 76  2  0  0  0  0
 38 60  1  0  0  0  0
 38 71  1  0  0  0  0
 38 77  2  0  0  0  0
 39 65  1  0  0  0  0
 39 69  1  0  0  0  0
 39 78  2  0  0  0  0
 40 43  1  0  0  0  0
 41 50  1  0  0  0  0
 42 64  1  0  0  0  0
 43 45  1  0  0  0  0
 44 46  1  0  0  0  0
 44 47  1  0  0  0  0
 45 49  1  0  0  0  0
 46 51  1  0  0  0  0
 47 65  1  0  0  0  0
 48 51  1  0  0  0  0
 48 65  1  0  0  0  0
 49 70  1  0  0  0  0
 50 64  1  0  0  0  0
 51 63  1  0  0  0  0
 52 60  1  0  0  0  0
 53 61  1  0  0  0  0
 54 61  1  0  0  0  0
 55 61  1  0  0  0  0
 56 72  1  0  0  0  0
 57 58  1  0  0  0  0
 58 80  1  0  0  0  0
 59 61  1  0  0  0  0
 59 71  1  0  0  0  0
 60 72  1  0  0  0  0
 62 63  1  0  0  0  0
M  CHG  1  72   1
M  ISO  4  39 100  58 101  69 100  80 101
M  END
> <Batch ID>
0061

> <Smiles>
CNC(C)C(=O)NC(C(=O)N1Cc2cc([101O:1][101CH2:1]CC(=O)Nc3cccc([100NH:0][100C:0](=O)N4CCCC(n5nc(-c6ccc(Oc7ccc(F)cc7F)cc6)c(C(N)=O)c5N)C4)c3)ccc2CC1C(=O)NC1CCCc2ccccc21)C(C)(C)C

> <Shape>
0.268

> <Color>
0.082

> <Negative vol penalty>
0.000

$$$$

  -OEChem-04042323073D

 86 95  0     1  0  0  0  0  0999 V2000
  -30.2206  -11.7286   18.8962 C   0  0  0  0  0  0  0  0  0  0  0  0
  -30.0715  -13.1102   18.8315 C   0  0  0  0  0  0  0  0  0  0  0  0
  -28.9072  -25.9451   18.2426 C   0  0  0  0  0  0  0  0  0  0  0  0
  -27.3845  -24.8450   19.7619 C   0  0  0  0  0  0  0  0  0  0  0  0
  -29.1910  -10.9408   19.4094 C   0  0  0  0  0  0  0  0  0  0  0  0
  -28.8923  -13.7049   19.2789 C   0  0  0  0  0  0  0  0  0  0  0  0
  -26.4945  -19.6845   22.4112 C   0  0  0  0  0  0  0  0  0  0  0  0
  -18.6020  -26.8033   22.2313 C   0  0  0  0  0  0  0  0  0  0  0  0
  -29.8539  -24.9458   18.4678 C   0  0  0  0  0  0  0  0  0  0  0  0
  -28.3313  -23.8456   19.9871 C   0  0  0  0  0  0  0  0  0  0  0  0
  -25.5372  -20.6828   22.2358 C   0  0  0  0  0  0  0  0  0  0  0  0
  -29.4563  -21.0803   18.4035 C   0  0  0  0  0  0  0  0  0  0  0  0
  -17.6912  -27.8470   22.3950 C   0  0  0  0  0  0  0  0  0  0  0  0
  -29.0151  -19.7572   18.3919 C   0  0  0  0  0  0  0  0  0  0  0  0
  -23.8576  -19.2289   23.1762 C   0  0  0  0  0  0  0  0  0  0  0  0
  -19.5211  -29.4021   22.6608 C   0  0  0  0  0  0  0  0  0  0  0  0
  -29.7660  -19.4866   20.6722 C   0  0  0  0  0  0  0  0  0  0  0  0
  -27.6725  -25.8947   18.8897 C   0  0  0  0  0  0  0  0  0  0  0  0
  -26.1042  -27.2785   17.4292 C   0  0  0  0  0  0  0  0  0  0  0  0
  -28.0024  -11.5269   19.8723 C   0  0  0  0  0  0  0  0  0  0  0  0
  -26.1377  -18.4449   22.9612 C   0  0  0  0  0  0  0  0  0  0  0  0
  -27.8453  -12.9241   19.7975 C   0  0  0  0  0  0  0  0  0  0  0  0
  -24.8128  -18.2174   23.3598 C   0  0  0  0  0  0  0  0  0  0  0  0
  -19.9723  -27.0589   22.2825 C   0  0  0  0  0  0  0  0  0  0  0  0
  -20.4318  -28.3583   22.4972 C   0  0  0  0  0  0  0  0  0  0  0  0
  -29.5660  -23.8961   19.3400 C   0  0  0  0  0  0  0  0  0  0  0  0
  -24.2179  -20.4540   22.6157 C   0  0  0  0  0  0  0  0  0  0  0  0
  -30.0526  -21.6066   19.5495 C   0  0  0  0  0  0  0  0  0  0  0  0
  -18.1508  -29.1464   22.6097 C   0  0  0  0  0  0  0  0  0  0  0  0
  -29.1699  -18.9603   19.5262 C   0  0  0  0  0  0  0  0  0  0  0  0
  -30.2073  -20.8098   20.6839 C   0  0  0  0  0  0  0  0  0  0  0  0
  -26.6944  -26.9270   18.6580 C   0  0  0  0  0  0  0  0  0  0  0  0
  -25.2499  -28.3079   17.7406 C   0  0  0  0  0  0  0  0  0  0  0  0
  -21.8286  -25.9567   21.0605 C   0  0  0  0  0  0  0  0  0  0  0  0
  -26.3098  -26.7240   16.1231 C   0  0  0  0  0  0  0  0  0  0  0  0
  -26.1770  -15.4385   21.9300 C   0  0  0  0  0  0  0  0  0  0  0  0
  -25.3002  -14.7896   24.9849 C   0  0  0  0  0  0  0  0  0  0  0  0
  -23.8499  -15.8778   27.8761 C   0  0  0  0  0  0  0  0  0  0  0  0
  -22.4178  -29.8858   22.7600 C   0  0  0  0  0  0  0  0  0  0  0  0
  -26.8987  -10.6303   20.3749 C   0  0  0  0  0  0  0  0  0  0  0  0
  -27.1876  -17.3880   23.1685 C   0  0  0  0  0  0  0  0  0  0  0  0
  -24.3825  -16.9112   23.9739 C   0  0  0  0  0  0  0  0  0  0  0  0
  -22.9476  -24.9347   21.1518 C   0  0  0  0  0  0  0  0  0  0  0  0
  -25.8297  -11.3702   21.1749 C   0  0  0  0  0  0  0  0  0  0  0  0
  -24.6813  -31.8848   20.8738 C   0  0  0  0  0  0  0  0  0  0  0  0
  -25.4080  -12.6450   20.4511 C   0  0  0  0  0  0  0  0  0  0  0  0
  -25.3964  -30.8730   19.9754 C   0  0  0  0  0  0  0  0  0  0  0  0
  -21.9042  -23.8722   23.1097 C   0  0  0  0  0  0  0  0  0  0  0  0
  -24.3925  -31.3086   22.2589 C   0  0  0  0  0  0  0  0  0  0  0  0
  -20.6826  -24.7626   22.9456 C   0  0  0  0  0  0  0  0  0  0  0  0
  -24.3932  -29.0139   21.3625 C   0  0  0  0  0  0  0  0  0  0  0  0
  -26.5909  -13.6083   20.2960 C   0  0  1  0  0  0  0  0  0  0  0  0
  -26.6077  -15.9802   23.2637 C   0  0  1  0  0  0  0  0  0  0  0  0
  -22.5276  -23.6021   21.7500 C   0  0  2  0  0  0  0  0  0  0  0  0
  -24.6474  -29.5266   19.9356 C   0  0  2  0  0  0  0  0  0  0  0  0
  -23.2440  -15.1090   30.1868 C   0  0  0  0  0  0  0  0  0  0  0  0
  -22.9414  -13.2265   23.8437 C   0  0  0  0  0  0  0  0  0  0  0  0
  -21.8838  -13.3020   26.1117 C   0  0  0  0  0  0  0  0  0  0  0  0
  -24.0678  -12.1392   25.7939 C   0  0  0  0  0  0  0  0  0  0  0  0
  -25.5838  -17.9190   29.1355 C   0  0  0  0  0  0  0  0  0  0  0  0
  -23.7200  -22.6570   21.8708 C   0  0  0  0  0  0  0  0  0  1  0  0
  -23.9855  -14.6649   25.7163 C   0  0  1  0  0  0  0  0  0  0  0  0
  -24.2972  -15.7864   29.3239 C   0  0  2  0  0  0  0  0  0  0  0  0
  -23.2270  -13.3572   25.3531 C   0  0  0  0  0  0  0  0  0  0  0  0
  -26.2525  -27.6727   19.6742 N   0  0  0  0  0  0  0  0  0  0  0  0
  -25.3756  -28.5031   19.0846 N   0  0  0  0  0  0  0  0  0  0  0  0
  -20.8968  -25.9582   22.1127 N   0  0  0  0  0  0  0  0  0  0  0  0
  -25.4445  -15.9068   24.1501 N   0  0  0  0  0  0  0  0  0  0  0  0
  -23.6775  -30.0358   22.1425 N   0  0  0  0  0  0  0  0  0  0  0  0
  -24.4109  -29.0562   16.9931 N   0  0  0  0  0  0  0  0  0  0  0  0
  -25.5011  -25.6539   15.7167 N   0  0  0  0  0  0  0  0  0  0  0  0
  -21.8186  -28.6437   22.5535 N   0  0  0  0  0  0  0  0  0  0  0  0
  -26.8501  -14.2954   21.5430 N   0  0  0  0  0  0  0  0  0  0  0  0
  -24.2934  -14.8025   27.1357 N   0  0  0  0  0  0  0  0  0  0  0  0
  -24.5512  -17.1478   29.8745 N   0  3  0  0  0  0  0  0  0  0  0  0
  -21.8416  -26.7480   20.1136 O   0  0  0  0  0  0  0  0  0  0  0  0
  -27.1957  -27.1537   15.3459 O   0  0  0  0  0  0  0  0  0  0  0  0
  -25.2979  -16.0141   21.2994 O   0  0  0  0  0  0  0  0  0  0  0  0
  -26.1700  -13.9313   25.1538 O   0  0  0  0  0  0  0  0  0  0  0  0
  -23.1715  -16.8081   27.4460 O   0  0  0  0  0  0  0  0  0  0  0  0
  -21.8959  -30.8020   23.4005 O   0  0  0  0  0  0  0  0  0  0  0  0
  -30.4894  -22.9207   19.5598 O   0  0  0  0  0  0  0  0  0  0  0  0
  -23.2814  -21.4265   22.4451 O   0  0  0  0  0  0  0  0  0  1  0  0
  -17.2754  -30.1481   22.7670 F   0  0  0  0  0  0  0  0  0  0  0  0
  -28.7446  -17.6902   19.5154 F   0  0  0  0  0  0  0  0  0  0  0  0
  -30.7783  -21.3102   21.7881 F   0  0  0  0  0  0  0  0  0  0  0  0
  1  2  1  0  0  0  0
  1  5  2  0  0  0  0
  2  6  2  0  0  0  0
  3  9  2  0  0  0  0
  3 18  1  0  0  0  0
  4 10  1  0  0  0  0
  4 18  2  0  0  0  0
  5 20  1  0  0  0  0
  6 22  1  0  0  0  0
  7 11  2  0  0  0  0
  7 21  1  0  0  0  0
  8 13  2  0  0  0  0
  8 24  1  0  0  0  0
  9 26  1  0  0  0  0
 10 26  2  0  0  0  0
 11 27  1  0  0  0  0
 12 14  2  0  0  0  0
 12 28  1  0  0  0  0
 13 29  1  0  0  0  0
 14 30  1  0  0  0  0
 15 23  1  0  0  0  0
 15 27  2  0  0  0  0
 16 25  1  0  0  0  0
 16 29  2  0  0  0  0
 17 30  2  0  0  0  0
 17 31  1  0  0  0  0
 18 32  1  0  0  0  0
 19 32  1  0  0  0  0
 19 33  2  0  0  0  0
 19 35  1  0  0  0  0
 20 22  2  0  0  0  0
 20 40  1  0  0  0  0
 21 23  2  0  0  0  0
 21 41  1  0  0  0  0
 22 52  1  0  0  0  0
 23 42  1  0  0  0  0
 24 25  2  0  0  0  0
 24 67  1  0  0  0  0
 25 72  1  0  0  0  0
 26 82  1  0  0  0  0
 27 83  1  0  0  0  0
 28 31  2  0  0  0  0
 28 82  1  0  0  0  0
 29 84  1  0  0  0  0
 30 85  1  0  0  0  0
 31 86  1  0  0  0  0
 32 65  2  0  0  0  0
 33 66  1  0  0  0  0
 33 70  1  0  0  0  0
 34 43  1  0  0  0  0
 34 67  1  0  0  0  0
 34 76  2  0  0  0  0
 35 71  1  0  0  0  0
 35 77  2  0  0  0  0
 36 53  1  0  0  0  0
 36 73  1  0  0  0  0
 36 78  2  0  0  0  0
 37 62  1  0  0  0  0
 37 68  1  0  0  0  0
 37 79  2  0  0  0  0
 38 63  1  0  0  0  0
 38 74  1  0  0  0  0
 38 80  2  0  0  0  0
 39 69  1  0  0  0  0
 39 72  1  0  0  0  0
 39 81  2  0  0  0  0
 40 44  1  0  0  0  0
 41 53  1  0  0  0  0
 42 68  1  0  0  0  0
 43 54  1  0  0  0  0
 44 46  1  0  0  0  0
 45 47  1  0  0  0  0
 45 49  1  0  0  0  0
 46 52  1  0  0  0  0
 47 55  1  0  0  0  0
 48 50  1  0  0  0  0
 48 54  1  0  0  0  0
 49 69  1  0  0  0  0
 50 67  1  0  0  0  0
 51 55  1  0  0  0  0
 51 69  1  0  0  0  0
 52 73  1  0  0  0  0
 53 68  1  0  0  0  0
 54 61  1  0  0  0  0
 55 66  1  0  0  0  0
 56 63  1  0  0  0  0
 57 64  1  0  0  0  0
 58 64  1  0  0  0  0
 59 64  1  0  0  0  0
 60 75  1  0  0  0  0
 61 83  1  0  0  0  0
 62 64  1  0  0  0  0
 62 74  1  0  0  0  0
 63 75  1  0  0  0  0
 65 66  1  0  0  0  0
M  CHG  1  75   1
M  ISO  4  39 100  61 101  72 100  83 101
M  END
> <Batch ID>
0061

> <Smiles>
CNC(C)C(=O)NC(C(=O)N1Cc2cc([101O:1][101CH2:1]C3CCN(c4ccc(F)cc4[100NH:0][100C:0](=O)N4CCCC(n5nc(-c6ccc(Oc7ccc(F)cc7F)cc6)c(C(N)=O)c5N)C4)C(=O)C3)ccc2CC1C(=O)NC1CCCc2ccccc21)C(C)(C)C

> <Shape>
0.239

> <Color>
0.063

> <Negative vol penalty>
0.000

$$$$

  -OEChem-04042323073D

 87 95  0     1  0  0  0  0  0999 V2000
  -16.4356  -26.3411   24.5954 C   0  0  0  0  0  0  0  0  0  0  0  0
  -17.4360  -25.4541   24.9797 C   0  0  0  0  0  0  0  0  0  0  0  0
  -32.2473  -18.8401   21.2210 C   0  0  0  0  0  0  0  0  0  0  0  0
  -23.3011   -9.7975   21.7438 C   0  0  0  0  0  0  0  0  0  0  0  0
  -23.9049  -11.0132   23.7425 C   0  0  0  0  0  0  0  0  0  0  0  0
  -16.7376  -27.4059   23.7475 C   0  0  0  0  0  0  0  0  0  0  0  0
  -18.7390  -25.6308   24.5155 C   0  0  0  0  0  0  0  0  0  0  0  0
  -23.9222  -24.4269   27.5470 C   0  0  0  0  0  0  0  0  0  0  0  0
  -31.7446  -17.5872   20.8703 C   0  0  0  0  0  0  0  0  0  0  0  0
  -22.6016   -8.8719   22.5181 C   0  0  0  0  0  0  0  0  0  0  0  0
  -23.2054  -10.0876   24.5168 C   0  0  0  0  0  0  0  0  0  0  0  0
  -24.7947  -23.3399   27.5185 C   0  0  0  0  0  0  0  0  0  0  0  0
  -19.6073   -8.6856   24.0777 C   0  0  0  0  0  0  0  0  0  0  0  0
  -18.3397   -8.3011   23.6407 C   0  0  0  0  0  0  0  0  0  0  0  0
  -31.3767  -19.9142   21.4057 C   0  0  0  0  0  0  0  0  0  0  0  0
  -26.1996  -24.5163   25.9495 C   0  0  0  0  0  0  0  0  0  0  0  0
  -19.0842   -6.0069   23.5000 C   0  0  0  0  0  0  0  0  0  0  0  0
  -23.9528  -10.8682   22.3560 C   0  0  0  0  0  0  0  0  0  0  0  0
  -24.1734  -13.0098   20.9877 C   0  0  0  0  0  0  0  0  0  0  0  0
  -18.0469  -27.6014   23.2804 C   0  0  0  0  0  0  0  0  0  0  0  0
  -24.1766  -25.5644   26.7674 C   0  0  0  0  0  0  0  0  0  0  0  0
  -19.0585  -26.6985   23.6595 C   0  0  0  0  0  0  0  0  0  0  0  0
  -25.3301  -25.6175   25.9719 C   0  0  0  0  0  0  0  0  0  0  0  0
  -29.5006  -18.4824   20.8887 C   0  0  0  0  0  0  0  0  0  0  0  0
  -30.3712  -17.4083   20.7041 C   0  0  0  0  0  0  0  0  0  0  0  0
  -22.5537   -9.0169   23.9046 C   0  0  0  0  0  0  0  0  0  0  0  0
  -25.9321  -23.3833   26.7174 C   0  0  0  0  0  0  0  0  0  0  0  0
  -20.6134   -7.7308   24.2258 C   0  0  0  0  0  0  0  0  0  0  0  0
  -18.0781   -6.9617   23.3518 C   0  0  0  0  0  0  0  0  0  0  0  0
  -20.3518   -6.3915   23.9369 C   0  0  0  0  0  0  0  0  0  0  0  0
  -30.0033  -19.7354   21.2395 C   0  0  0  0  0  0  0  0  0  0  0  0
  -24.6760  -11.8243   21.5567 C   0  0  0  0  0  0  0  0  0  0  0  0
  -25.2479  -13.5578   20.3308 C   0  0  0  0  0  0  0  0  0  0  0  0
  -22.8533  -13.5660   21.0477 C   0  0  0  0  0  0  0  0  0  0  0  0
  -22.6635  -27.0415   24.3941 C   0  0  0  0  0  0  0  0  0  0  0  0
  -25.0188  -29.2383   24.7796 C   0  0  0  0  0  0  0  0  0  0  0  0
  -28.1805  -29.9373   25.8576 C   0  0  0  0  0  0  0  0  0  0  0  0
  -30.6302  -14.9695   20.1284 C   0  0  0  0  0  0  0  0  0  0  0  0
  -18.3155  -28.7394   22.3278 C   0  0  0  0  0  0  0  0  0  0  0  0
  -23.2396  -26.7394   26.8298 C   0  0  0  0  0  0  0  0  0  0  0  0
  -25.6592  -26.8235   25.1318 C   0  0  0  0  0  0  0  0  0  0  0  0
  -19.7976  -29.0737   22.1808 C   0  0  0  0  0  0  0  0  0  0  0  0
  -29.8002  -11.6153   19.2697 C   0  0  0  0  0  0  0  0  0  0  0  0
  -20.6150  -27.8009   21.9839 C   0  0  0  0  0  0  0  0  0  0  0  0
  -28.3517  -11.4682   19.7414 C   0  0  0  0  0  0  0  0  0  0  0  0
  -30.6203  -12.4863   20.2198 C   0  0  0  0  0  0  0  0  0  0  0  0
  -28.5911  -13.6559   20.9838 C   0  0  0  0  0  0  0  0  0  0  0  0
  -20.4890  -26.8712   23.1968 C   0  0  1  0  0  0  0  0  0  0  0  0
  -23.3279  -27.6400   25.6016 C   0  0  1  0  0  0  0  0  0  0  0  0
  -27.7091  -12.8402   20.0245 C   0  0  2  0  0  0  0  0  0  0  0  0
  -27.6310  -18.2309   19.2371 C   0  0  0  0  0  0  0  0  0  0  0  0
  -29.8420  -31.8121   26.0052 C   0  0  0  0  0  0  0  0  0  0  0  0
  -26.5551  -19.7594   25.2996 C   0  0  0  0  0  0  0  0  0  0  0  0
  -25.5986  -28.9560   21.7973 C   0  0  0  0  0  0  0  0  0  0  0  0
  -27.8015  -30.0789   22.1902 C   0  0  0  0  0  0  0  0  0  0  0  0
  -25.6787  -31.3027   22.6580 C   0  0  0  0  0  0  0  0  0  0  0  0
  -28.2659  -29.7838   28.8119 C   0  0  0  0  0  0  0  0  0  0  0  0
  -28.0276  -18.2863   20.7079 C   0  0  0  0  0  0  0  0  0  0  0  0
  -28.7291  -20.3385   24.1169 C   0  0  0  0  0  0  0  0  0  0  0  0
  -27.5025  -22.1014   25.4738 C   0  0  0  0  0  0  0  0  0  1  0  0
  -26.4002  -29.4368   24.2040 C   0  0  1  0  0  0  0  0  0  0  0  0
  -28.7258  -31.0637   26.7169 C   0  0  2  0  0  0  0  0  0  0  0  0
  -27.8297  -20.6101   25.3290 C   0  0  1  0  0  0  0  0  0  0  0  0
  -26.3628  -29.9200   22.7266 C   0  0  0  0  0  0  0  0  0  0  0  0
  -25.9691  -11.6298   21.2849 N   0  0  0  0  0  0  0  0  0  0  0  0
  -26.2882  -12.7004   20.5379 N   0  0  0  0  0  0  0  0  0  0  0  0
  -24.7090  -27.9444   25.2220 N   0  0  0  0  0  0  0  0  0  0  0  0
  -29.9524  -13.7713   20.4377 N   0  0  0  0  0  0  0  0  0  0  0  0
  -25.3950  -14.6845   19.6019 N   0  0  0  0  0  0  0  0  0  0  0  0
  -21.8685  -12.8737   21.7654 N   0  0  0  0  0  0  0  0  0  0  0  0
  -29.8836  -16.1270   20.3461 N   0  0  0  0  0  0  0  0  0  0  0  0
  -21.3195  -27.3433   24.2839 N   0  0  0  0  0  0  0  0  0  0  0  0
  -27.0943  -30.3437   25.1118 N   0  0  0  0  0  0  0  0  0  0  0  0
  -28.0363  -20.6350   22.8428 N   0  0  0  0  0  0  0  0  0  0  0  0
  -29.2638  -30.5242   27.9977 N   0  3  0  0  0  0  0  0  0  0  0  0
  -22.5516  -14.6367   20.4678 O   0  0  0  0  0  0  0  0  0  0  0  0
  -23.3217  -26.3577   23.6189 O   0  0  0  0  0  0  0  0  0  0  0  0
  -24.2458  -30.1975   24.8412 O   0  0  0  0  0  0  0  0  0  0  0  0
  -28.6715  -28.8106   25.8461 O   0  0  0  0  0  0  0  0  0  0  0  0
  -31.7780  -14.9677   19.6760 O   0  0  0  0  0  0  0  0  0  0  0  0
  -29.7545  -22.2646   21.8322 O   0  0  0  0  0  0  0  0  0  0  0  0
  -28.0494  -21.1802   20.3351 O   0  0  0  0  0  0  0  0  0  0  0  0
  -21.8711   -8.1141   24.6605 O   0  0  0  0  0  0  0  0  0  0  0  0
  -26.7850  -22.3233   26.6872 O   0  0  0  0  0  0  0  0  0  1  0  0
  -16.8604   -6.5924   22.9337 F   0  0  0  0  0  0  0  0  0  0  0  0
  -21.3140   -5.4695   24.0785 F   0  0  0  0  0  0  0  0  0  0  0  0
  -28.9332  -21.1210   21.4836 S   0  0  0  0  0  0  0  0  0  0  0  0
  1  2  1  0  0  0  0
  1  6  2  0  0  0  0
  2  7  2  0  0  0  0
  3  9  1  0  0  0  0
  3 15  2  0  0  0  0
  4 10  2  0  0  0  0
  4 18  1  0  0  0  0
  5 11  1  0  0  0  0
  5 18  2  0  0  0  0
  6 20  1  0  0  0  0
  7 22  1  0  0  0  0
  8 12  2  0  0  0  0
  8 21  1  0  0  0  0
  9 25  2  0  0  0  0
 10 26  1  0  0  0  0
 11 26  2  0  0  0  0
 12 27  1  0  0  0  0
 13 14  2  0  0  0  0
 13 28  1  0  0  0  0
 14 29  1  0  0  0  0
 15 31  1  0  0  0  0
 16 23  1  0  0  0  0
 16 27  2  0  0  0  0
 17 29  2  0  0  0  0
 17 30  1  0  0  0  0
 18 32  1  0  0  0  0
 19 32  1  0  0  0  0
 19 33  2  0  0  0  0
 19 34  1  0  0  0  0
 20 22  2  0  0  0  0
 20 39  1  0  0  0  0
 21 23  2  0  0  0  0
 21 40  1  0  0  0  0
 22 48  1  0  0  0  0
 23 41  1  0  0  0  0
 24 25  1  0  0  0  0
 24 31  2  0  0  0  0
 24 58  1  0  0  0  0
 25 71  1  0  0  0  0
 26 83  1  0  0  0  0
 27 84  1  0  0  0  0
 28 30  2  0  0  0  0
 28 83  1  0  0  0  0
 29 85  1  0  0  0  0
 30 86  1  0  0  0  0
 31 87  1  0  0  0  0
 32 65  2  0  0  0  0
 33 66  1  0  0  0  0
 33 69  1  0  0  0  0
 34 70  1  0  0  0  0
 34 76  2  0  0  0  0
 35 49  1  0  0  0  0
 35 72  1  0  0  0  0
 35 77  2  0  0  0  0
 36 61  1  0  0  0  0
 36 67  1  0  0  0  0
 36 78  2  0  0  0  0
 37 62  1  0  0  0  0
 37 73  1  0  0  0  0
 37 79  2  0  0  0  0
 38 68  1  0  0  0  0
 38 71  1  0  0  0  0
 38 80  2  0  0  0  0
 39 42  1  0  0  0  0
 40 49  1  0  0  0  0
 41 67  1  0  0  0  0
 42 44  1  0  0  0  0
 43 45  1  0  0  0  0
 43 46  1  0  0  0  0
 44 48  1  0  0  0  0
 45 50  1  0  0  0  0
 46 68  1  0  0  0  0
 47 50  1  0  0  0  0
 47 68  1  0  0  0  0
 48 72  1  0  0  0  0
 49 67  1  0  0  0  0
 50 66  1  0  0  0  0
 51 58  1  0  0  0  0
 52 62  1  0  0  0  0
 53 63  1  0  0  0  0
 54 64  1  0  0  0  0
 55 64  1  0  0  0  0
 56 64  1  0  0  0  0
 57 75  1  0  0  0  0
 59 63  1  0  0  0  0
 59 74  1  0  0  0  0
 60 63  1  0  0  0  0
 60 84  1  0  0  0  0
 61 64  1  0  0  0  0
 61 73  1  0  0  0  0
 62 75  1  0  0  0  0
 65 66  1  0  0  0  0
 74 87  1  0  0  0  0
 81 87  2  0  0  0  0
 82 87  2  0  0  0  0
M  CHG  1  75   1
M  ISO  4  38 100  60 101  71 100  84 101
M  END
> <Batch ID>
0061

> <Smiles>
CCc1c([100NH:0][100C:0](=O)N2CCCC(n3nc(-c4ccc(Oc5ccc(F)cc5F)cc4)c(C(N)=O)c3N)C2)cccc1S(=O)(=O)NCC(C)[101CH2:1][101O:1]c1ccc2c(c1)CN(C(=O)C(NC(=O)C(C)NC)C(C)(C)C)C(C(=O)NC1CCCc3ccccc31)C2

> <Shape>
0.255

> <Color>
0.130

> <Negative vol penalty>
0.000

$$$$

  -OEChem-04042323073D

 90 99  0     1  0  0  0  0  0999 V2000
  -16.8899  -22.2176   20.6817 C   0  0  0  0  0  0  0  0  0  0  0  0
  -17.3751  -20.9138   20.6706 C   0  0  0  0  0  0  0  0  0  0  0  0
  -28.5158  -23.7454   18.5416 C   0  0  0  0  0  0  0  0  0  0  0  0
  -30.4296  -23.9189   20.0060 C   0  0  0  0  0  0  0  0  0  0  0  0
  -17.0031  -23.0121   19.5415 C   0  0  0  0  0  0  0  0  0  0  0  0
  -17.9728  -20.4034   19.5188 C   0  0  0  0  0  0  0  0  0  0  0  0
  -22.2507  -17.8792   20.5056 C   0  0  0  0  0  0  0  0  0  0  0  0
  -29.4388  -13.1265   18.5611 C   0  0  0  0  0  0  0  0  0  0  0  0
  -28.1261  -12.7441   18.8371 C   0  0  0  0  0  0  0  0  0  0  0  0
  -28.2255  -25.0918   18.7615 C   0  0  0  0  0  0  0  0  0  0  0  0
  -30.1393  -25.2654   20.2258 C   0  0  0  0  0  0  0  0  0  0  0  0
  -22.1248  -16.5839   21.0057 C   0  0  0  0  0  0  0  0  0  0  0  0
  -26.7750  -26.9654   21.1719 C   0  0  0  0  0  0  0  0  0  0  0  0
  -25.4471  -27.3081   21.4265 C   0  0  0  0  0  0  0  0  0  0  0  0
  -22.5469  -15.6985   18.8018 C   0  0  0  0  0  0  0  0  0  0  0  0
  -28.4268  -13.3803   21.1483 C   0  0  0  0  0  0  0  0  0  0  0  0
  -25.4417  -28.7353   19.4771 C   0  0  0  0  0  0  0  0  0  0  0  0
  -29.6178  -23.1589   19.1640 C   0  0  0  0  0  0  0  0  0  0  0  0
  -30.7387  -21.2284   17.9293 C   0  0  0  0  0  0  0  0  0  0  0  0
  -17.6112  -22.5143   18.3783 C   0  0  0  0  0  0  0  0  0  0  0  0
  -22.5153  -18.0945   19.1455 C   0  0  0  0  0  0  0  0  0  0  0  0
  -18.0931  -21.1914   18.3616 C   0  0  0  0  0  0  0  0  0  0  0  0
  -22.6783  -16.9975   18.2875 C   0  0  0  0  0  0  0  0  0  0  0  0
  -30.2455  -13.6358   19.5787 C   0  0  0  0  0  0  0  0  0  0  0  0
  -27.6201  -12.8710   20.1307 C   0  0  0  0  0  0  0  0  0  0  0  0
  -29.7395  -13.7627   20.8723 C   0  0  0  0  0  0  0  0  0  0  0  0
  -29.0372  -25.8519   19.6035 C   0  0  0  0  0  0  0  0  0  0  0  0
  -22.2700  -15.4934   20.1532 C   0  0  0  0  0  0  0  0  0  0  0  0
  -27.4363  -27.5077   20.0699 C   0  0  0  0  0  0  0  0  0  0  0  0
  -24.7804  -28.1931   20.5791 C   0  0  0  0  0  0  0  0  0  0  0  0
  -26.7696  -28.3926   19.2225 C   0  0  0  0  0  0  0  0  0  0  0  0
  -29.9179  -21.7679   18.9377 C   0  0  0  0  0  0  0  0  0  0  0  0
  -30.6991  -19.8722   18.1432 C   0  0  0  0  0  0  0  0  0  0  0  0
  -24.2793  -11.3866   20.3295 C   0  0  0  0  0  0  0  0  0  0  0  0
  -24.2154  -12.3101   21.2912 C   0  0  0  0  0  0  0  0  0  0  0  0
  -25.6265  -11.4700   19.7310 C   0  0  0  0  0  0  0  0  0  0  0  0
  -31.4716  -21.8937   16.8919 C   0  0  0  0  0  0  0  0  0  0  0  0
  -20.9794  -19.5298   16.7613 C   0  0  0  0  0  0  0  0  0  0  0  0
  -23.7168  -18.9027   15.1379 C   0  0  0  0  0  0  0  0  0  0  0  0
  -26.5183  -16.8123   14.2437 C   0  0  0  0  0  0  0  0  0  0  0  0
  -31.0581  -15.6473   21.7371 C   0  0  0  0  0  0  0  0  0  0  0  0
  -17.6682  -23.3949   17.1552 C   0  0  0  0  0  0  0  0  0  0  0  0
  -22.6747  -19.4974   18.6269 C   0  0  0  0  0  0  0  0  0  0  0  0
  -22.9831  -17.1744   16.8232 C   0  0  0  0  0  0  0  0  0  0  0  0
  -25.4806  -13.0848   21.4290 C   0  0  0  0  0  0  0  0  0  0  0  0
  -18.6515  -22.9033   16.0961 C   0  0  0  0  0  0  0  0  0  0  0  0
  -27.7314  -17.0892   21.1436 C   0  0  0  0  0  0  0  0  0  0  0  0
  -18.4789  -21.4060   15.8614 C   0  0  0  0  0  0  0  0  0  0  0  0
  -28.0855  -18.4101   20.4585 C   0  0  0  0  0  0  0  0  0  0  0  0
  -28.7883  -16.7037   22.1716 C   0  0  0  0  0  0  0  0  0  0  0  0
  -30.5350  -17.9443   20.9417 C   0  0  0  0  0  0  0  0  0  0  0  0
  -18.7701  -20.6101   17.1394 C   0  0  1  0  0  0  0  0  0  0  0  0
  -22.4352  -19.6099   17.1245 C   0  0  1  0  0  0  0  0  0  0  0  0
  -29.5103  -18.3717   19.8756 C   0  0  2  0  0  0  0  0  0  0  0  0
  -31.6475  -14.0386   19.2555 C   0  0  0  0  0  0  0  0  0  0  0  0
  -28.4679  -17.2577   12.7278 C   0  0  0  0  0  0  0  0  0  0  0  0
  -21.9973  -17.5545   13.0082 C   0  0  0  0  0  0  0  0  0  0  0  0
  -24.0724  -16.4753   12.1152 C   0  0  0  0  0  0  0  0  0  0  0  0
  -23.8596  -18.9608   12.1089 C   0  0  0  0  0  0  0  0  0  0  0  0
  -28.4701  -16.1720   16.3743 C   0  0  0  0  0  0  0  0  0  0  0  0
  -30.2683  -12.6962   24.0567 C   0  0  0  0  0  0  0  0  0  0  0  0
  -23.0431  -12.5949   22.1710 C   0  0  0  0  0  0  0  0  0  0  0  0
  -22.5211  -14.0150   21.9991 C   0  0  0  0  0  0  0  0  0  1  0  0
  -24.2237  -17.7535   14.3003 C   0  0  1  0  0  0  0  0  0  0  0  0
  -27.9757  -17.2300   14.1664 C   0  0  2  0  0  0  0  0  0  0  0  0
  -23.5306  -17.6824   12.9103 C   0  0  0  0  0  0  0  0  0  0  0  0
  -29.3949  -20.8309   19.7331 N   0  0  0  0  0  0  0  0  0  0  0  0
  -29.8882  -19.6890   19.2244 N   0  0  0  0  0  0  0  0  0  0  0  0
  -26.3134  -12.4869   20.4059 N   0  0  0  0  0  0  0  0  0  0  0  0
  -23.1234  -18.5658   16.3627 N   0  0  0  0  0  0  0  0  0  0  0  0
  -30.1249  -16.6876   21.5713 N   0  0  0  0  0  0  0  0  0  0  0  0
  -31.2790  -18.8306   17.5099 N   0  0  0  0  0  0  0  0  0  0  0  0
  -31.4021  -23.2914   16.8158 N   0  0  0  0  0  0  0  0  0  0  0  0
  -20.1973  -20.5028   17.3538 N   0  0  0  0  0  0  0  0  0  0  0  0
  -25.6737  -17.9022   14.2380 N   0  0  0  0  0  0  0  0  0  0  0  0
  -30.5658  -14.2923   21.9487 N   0  0  0  0  0  0  0  0  0  0  0  0
  -28.8282  -16.2808   14.9367 N   0  3  0  0  0  0  0  0  0  0  0  0
  -26.0108  -10.7565   18.8187 O   0  0  0  0  0  0  0  0  0  0  0  0
  -32.1542  -21.2660   16.0472 O   0  0  0  0  0  0  0  0  0  0  0  0
  -20.5944  -18.6513   15.9986 O   0  0  0  0  0  0  0  0  0  0  0  0
  -23.8492  -20.0571   14.7240 O   0  0  0  0  0  0  0  0  0  0  0  0
  -26.1644  -15.6367   14.2995 O   0  0  0  0  0  0  0  0  0  0  0  0
  -32.2703  -15.8690   21.7112 O   0  0  0  0  0  0  0  0  0  0  0  0
  -31.6472  -11.8825   21.9992 O   0  0  0  0  0  0  0  0  0  0  0  0
  -32.6026  -13.6738   23.4920 O   0  0  0  0  0  0  0  0  0  0  0  0
  -28.7544  -27.1658   19.8181 O   0  0  0  0  0  0  0  0  0  0  0  0
  -22.1470  -14.2280   20.6386 O   0  0  0  0  0  0  0  0  0  1  0  0
  -23.5048  -28.5209   20.8228 F   0  0  0  0  0  0  0  0  0  0  0  0
  -27.3993  -28.9159   18.1616 F   0  0  0  0  0  0  0  0  0  0  0  0
  -31.4732  -13.0741   22.8076 S   0  0  0  0  0  0  0  0  0  0  0  0
  1  2  1  0  0  0  0
  1  5  2  0  0  0  0
  2  6  2  0  0  0  0
  3 10  2  0  0  0  0
  3 18  1  0  0  0  0
  4 11  1  0  0  0  0
  4 18  2  0  0  0  0
  5 20  1  0  0  0  0
  6 22  1  0  0  0  0
  7 12  2  0  0  0  0
  7 21  1  0  0  0  0
  8  9  2  0  0  0  0
  8 24  1  0  0  0  0
  9 25  1  0  0  0  0
 10 27  1  0  0  0  0
 11 27  2  0  0  0  0
 12 28  1  0  0  0  0
 13 14  2  0  0  0  0
 13 29  1  0  0  0  0
 14 30  1  0  0  0  0
 15 23  1  0  0  0  0
 15 28  2  0  0  0  0
 16 25  2  0  0  0  0
 16 26  1  0  0  0  0
 17 30  2  0  0  0  0
 17 31  1  0  0  0  0
 18 32  1  0  0  0  0
 19 32  1  0  0  0  0
 19 33  2  0  0  0  0
 19 37  1  0  0  0  0
 20 22  2  0  0  0  0
 20 42  1  0  0  0  0
 21 23  2  0  0  0  0
 21 43  1  0  0  0  0
 22 52  1  0  0  0  0
 23 44  1  0  0  0  0
 24 26  2  0  0  0  0
 24 55  1  0  0  0  0
 25 69  1  0  0  0  0
 26 76  1  0  0  0  0
 27 86  1  0  0  0  0
 28 87  1  0  0  0  0
 29 31  2  0  0  0  0
 29 86  1  0  0  0  0
 30 88  1  0  0  0  0
 31 89  1  0  0  0  0
 32 67  2  0  0  0  0
 33 68  1  0  0  0  0
 33 72  1  0  0  0  0
 34 35  2  0  0  0  0
 34 36  1  0  0  0  0
 35 45  1  0  0  0  0
 35 62  1  0  0  0  0
 36 69  1  0  0  0  0
 36 78  2  0  0  0  0
 37 73  1  0  0  0  0
 37 79  2  0  0  0  0
 38 53  1  0  0  0  0
 38 74  1  0  0  0  0
 38 80  2  0  0  0  0
 39 64  1  0  0  0  0
 39 70  1  0  0  0  0
 39 81  2  0  0  0  0
 40 65  1  0  0  0  0
 40 75  1  0  0  0  0
 40 82  2  0  0  0  0
 41 71  1  0  0  0  0
 41 76  1  0  0  0  0
 41 83  2  0  0  0  0
 42 46  1  0  0  0  0
 43 53  1  0  0  0  0
 44 70  1  0  0  0  0
 45 69  1  0  0  0  0
 46 48  1  0  0  0  0
 47 49  1  0  0  0  0
 47 50  1  0  0  0  0
 48 52  1  0  0  0  0
 49 54  1  0  0  0  0
 50 71  1  0  0  0  0
 51 54  1  0  0  0  0
 51 71  1  0  0  0  0
 52 74  1  0  0  0  0
 53 70  1  0  0  0  0
 54 68  1  0  0  0  0
 56 65  1  0  0  0  0
 57 66  1  0  0  0  0
 58 66  1  0  0  0  0
 59 66  1  0  0  0  0
 60 77  1  0  0  0  0
 61 90  1  0  0  0  0
 62 63  1  0  0  0  0
 63 87  1  0  0  0  0
 64 66  1  0  0  0  0
 64 75  1  0  0  0  0
 65 77  1  0  0  0  0
 67 68  1  0  0  0  0
 76 90  1  0  0  0  0
 84 90  2  0  0  0  0
 85 90  2  0  0  0  0
M  CHG  1  77   1
M  ISO  4  41 100  63 101  76 100  87 101
M  END
> <Batch ID>
0061

> <Smiles>
CNC(C)C(=O)NC(C(=O)N1Cc2cc([101O:1][101CH2:1]C=C3CC(=O)N(c4ccc(C)c([100N:0]([100C:0](=O)N5CCCC(n6nc(-c7ccc(Oc8ccc(F)cc8F)cc7)c(C(N)=O)c6N)C5)S(C)(=O)=O)c4)C3)ccc2CC1C(=O)NC1CCCc2ccccc21)C(C)(C)C

> <Shape>
0.200

> <Color>
0.089

> <Negative vol penalty>
0.000

$$$$

  -OEChem-04042323073D

 87 96  0     1  0  0  0  0  0999 V2000
  -19.0850  -24.3438   22.2186 C   0  0  0  0  0  0  0  0  0  0  0  0
  -20.3130  -24.5999   21.6171 C   0  0  0  0  0  0  0  0  0  0  0  0
  -26.9539  -11.8328   17.1041 C   0  0  0  0  0  0  0  0  0  0  0  0
  -25.8205  -12.1255   19.2176 C   0  0  0  0  0  0  0  0  0  0  0  0
  -31.3715  -20.2406   15.8313 C   0  0  0  0  0  0  0  0  0  0  0  0
  -18.2759  -25.4032   22.6275 C   0  0  0  0  0  0  0  0  0  0  0  0
  -20.7322  -25.9156   21.4231 C   0  0  0  0  0  0  0  0  0  0  0  0
  -25.5782  -26.6209   22.7132 C   0  0  0  0  0  0  0  0  0  0  0  0
  -31.2710  -19.1957   16.7499 C   0  0  0  0  0  0  0  0  0  0  0  0
  -25.7483  -11.4613   16.5090 C   0  0  0  0  0  0  0  0  0  0  0  0
  -24.6149  -11.7539   18.6225 C   0  0  0  0  0  0  0  0  0  0  0  0
  -26.5472  -26.1866   21.8098 C   0  0  0  0  0  0  0  0  0  0  0  0
  -23.7928   -8.7089   16.3519 C   0  0  0  0  0  0  0  0  0  0  0  0
  -23.8013   -7.5947   15.5129 C   0  0  0  0  0  0  0  0  0  0  0  0
  -26.8139  -28.4493   21.0172 C   0  0  0  0  0  0  0  0  0  0  0  0
  -30.9868  -20.7952   18.5382 C   0  0  0  0  0  0  0  0  0  0  0  0
  -23.0433   -8.9709   13.6775 C   0  0  0  0  0  0  0  0  0  0  0  0
  -26.9900  -12.1649   18.4584 C   0  0  0  0  0  0  0  0  0  0  0  0
  -31.2797  -21.5628   16.2662 C   0  0  0  0  0  0  0  0  0  0  0  0
  -29.4091  -11.7770   19.1694 C   0  0  0  0  0  0  0  0  0  0  0  0
  -18.6897  -26.7324   22.4471 C   0  0  0  0  0  0  0  0  0  0  0  0
  -25.2112  -27.9733   22.7678 C   0  0  0  0  0  0  0  0  0  0  0  0
  -19.9273  -26.9937   21.8287 C   0  0  0  0  0  0  0  0  0  0  0  0
  -25.8418  -28.8987   21.9239 C   0  0  0  0  0  0  0  0  0  0  0  0
  -31.0874  -21.8401   17.6197 C   0  0  0  0  0  0  0  0  0  0  0  0
  -31.0786  -19.4730   18.1033 C   0  0  0  0  0  0  0  0  0  0  0  0
  -24.5788  -11.4219   17.2682 C   0  0  0  0  0  0  0  0  0  0  0  0
  -27.1632  -27.1003   20.9597 C   0  0  0  0  0  0  0  0  0  0  0  0
  -23.4094   -9.9542   15.8538 C   0  0  0  0  0  0  0  0  0  0  0  0
  -23.4266   -7.7256   14.1757 C   0  0  0  0  0  0  0  0  0  0  0  0
  -23.0347  -10.0851   14.5166 C   0  0  0  0  0  0  0  0  0  0  0  0
  -28.2352  -12.5482   19.0738 C   0  0  0  0  0  0  0  0  0  0  0  0
  -30.2971  -12.5848   19.8367 C   0  0  0  0  0  0  0  0  0  0  0  0
  -32.0482  -24.1067   17.9185 C   0  0  0  0  0  0  0  0  0  0  0  0
  -32.4403  -22.7902   14.4881 C   0  0  0  0  0  0  0  0  0  0  0  0
  -31.3892  -22.6282   15.2765 C   0  0  0  0  0  0  0  0  0  0  0  0
  -29.6732  -10.4493   18.6970 C   0  0  0  0  0  0  0  0  0  0  0  0
  -22.5202  -29.5893   22.2678 C   0  0  0  0  0  0  0  0  0  0  0  0
  -24.2838  -32.0932   23.3367 C   0  0  0  0  0  0  0  0  0  0  0  0
  -27.3699  -33.4727   23.8057 C   0  0  0  0  0  0  0  0  0  0  0  0
  -30.7860  -18.5121   20.4136 C   0  0  0  0  0  0  0  0  0  0  0  0
  -17.7598  -27.8449   22.8624 C   0  0  0  0  0  0  0  0  0  0  0  0
  -24.1833  -28.4301   23.7664 C   0  0  0  0  0  0  0  0  0  0  0  0
  -25.4982  -30.3647   21.9573 C   0  0  0  0  0  0  0  0  0  0  0  0
  -31.7359  -25.5699   18.1696 C   0  0  0  0  0  0  0  0  0  0  0  0
  -18.4440  -29.2060   22.9604 C   0  0  0  0  0  0  0  0  0  0  0  0
  -30.7481  -25.8143   19.2891 C   0  0  0  0  0  0  0  0  0  0  0  0
  -30.4468  -16.1374   23.0447 C   0  0  0  0  0  0  0  0  0  0  0  0
  -19.3142  -29.4556   21.7327 C   0  0  0  0  0  0  0  0  0  0  0  0
  -29.9538  -14.8755   22.3328 C   0  0  0  0  0  0  0  0  0  0  0  0
  -29.8514  -17.4037   22.4317 C   0  0  0  0  0  0  0  0  0  0  0  0
  -29.8394  -23.5314   18.9639 C   0  0  0  0  0  0  0  0  0  0  0  0
  -29.5338  -16.2702   20.2675 C   0  0  0  0  0  0  0  0  0  0  0  0
  -20.4278  -28.4071   21.6234 C   0  0  1  0  0  0  0  0  0  0  0  0
  -23.5186  -29.7475   23.3795 C   0  0  1  0  0  0  0  0  0  0  0  0
  -29.4844  -25.0167   19.0119 C   0  0  1  0  0  0  0  0  0  0  0  0
  -30.1569  -14.9728   20.8081 C   0  0  2  0  0  0  0  0  0  0  0  0
  -28.4905  -35.5463   24.6669 C   0  0  0  0  0  0  0  0  0  0  0  0
  -23.4975  -33.5739   20.7874 C   0  0  0  0  0  0  0  0  0  0  0  0
  -25.3543  -35.1919   21.2375 C   0  0  0  0  0  0  0  0  0  0  0  0
  -23.4706  -34.9756   22.8584 C   0  0  0  0  0  0  0  0  0  0  0  0
  -28.8108  -31.9625   25.9038 C   0  0  0  0  0  0  0  0  0  0  0  0
  -28.4214  -25.2866   20.0747 C   0  0  0  0  0  0  0  0  0  1  0  0
  -25.1813  -33.1215   22.6917 C   0  0  1  0  0  0  0  0  0  0  0  0
  -27.9983  -34.1491   25.0107 C   0  0  2  0  0  0  0  0  0  0  0  0
  -24.3812  -34.1879   21.8915 C   0  0  0  0  0  0  0  0  0  0  0  0
  -28.3627  -13.7532   19.6357 N   0  0  0  0  0  0  0  0  0  0  0  0
  -29.6272  -13.7453   20.0908 N   0  0  0  0  0  0  0  0  0  0  0  0
  -30.9887  -23.2014   18.1013 N   0  0  0  0  0  0  0  0  0  0  0  0
  -24.4825  -30.7613   22.9466 N   0  0  0  0  0  0  0  0  0  0  0  0
  -30.0860  -17.4292   20.9863 N   0  0  0  0  0  0  0  0  0  0  0  0
  -31.5779  -12.4084   20.2253 N   0  0  0  0  0  0  0  0  0  0  0  0
  -28.6496   -9.7610   18.0315 N   0  0  0  0  0  0  0  0  0  0  0  0
  -30.9773  -18.4111   19.0360 N   0  0  0  0  0  0  0  0  0  0  0  0
  -21.4964  -28.7060   22.5525 N   0  0  0  0  0  0  0  0  0  0  0  0
  -26.0062  -33.6720   23.7616 N   0  0  0  0  0  0  0  0  0  0  0  0
  -29.1556  -33.3520   25.5071 N   0  3  0  0  0  0  0  0  0  0  0  0
  -33.1786  -23.8157   17.5182 O   0  0  0  0  0  0  0  0  0  0  0  0
  -30.7786   -9.8837   18.8747 O   0  0  0  0  0  0  0  0  0  0  0  0
  -22.6669  -30.2230   21.2292 O   0  0  0  0  0  0  0  0  0  0  0  0
  -23.4423  -32.4575   24.1619 O   0  0  0  0  0  0  0  0  0  0  0  0
  -28.0238  -32.8347   22.9836 O   0  0  0  0  0  0  0  0  0  0  0  0
  -31.2101  -19.4461   21.0991 O   0  0  0  0  0  0  0  0  0  0  0  0
  -23.4022  -11.0596   16.6878 O   0  0  0  0  0  0  0  0  0  0  0  0
  -28.1089  -26.6790   20.0766 O   0  0  0  0  0  0  0  0  0  1  0  0
  -23.4364   -6.6558   13.3698 F   0  0  0  0  0  0  0  0  0  0  0  0
  -22.6666  -11.2791   14.0320 F   0  0  0  0  0  0  0  0  0  0  0  0
  1  2  1  0  0  0  0
  1  6  2  0  0  0  0
  2  7  2  0  0  0  0
  3 10  2  0  0  0  0
  3 18  1  0  0  0  0
  4 11  1  0  0  0  0
  4 18  2  0  0  0  0
  5  9  2  0  0  0  0
  5 19  1  0  0  0  0
  6 21  1  0  0  0  0
  7 23  1  0  0  0  0
  8 12  2  0  0  0  0
  8 22  1  0  0  0  0
  9 26  1  0  0  0  0
 10 27  1  0  0  0  0
 11 27  2  0  0  0  0
 12 28  1  0  0  0  0
 13 14  2  0  0  0  0
 13 29  1  0  0  0  0
 14 30  1  0  0  0  0
 15 24  1  0  0  0  0
 15 28  2  0  0  0  0
 16 25  1  0  0  0  0
 16 26  2  0  0  0  0
 17 30  2  0  0  0  0
 17 31  1  0  0  0  0
 18 32  1  0  0  0  0
 19 25  2  0  0  0  0
 19 36  1  0  0  0  0
 20 32  1  0  0  0  0
 20 33  2  0  0  0  0
 20 37  1  0  0  0  0
 21 23  2  0  0  0  0
 21 42  1  0  0  0  0
 22 24  2  0  0  0  0
 22 43  1  0  0  0  0
 23 54  1  0  0  0  0
 24 44  1  0  0  0  0
 25 69  1  0  0  0  0
 26 74  1  0  0  0  0
 27 84  1  0  0  0  0
 28 85  1  0  0  0  0
 29 31  2  0  0  0  0
 29 84  1  0  0  0  0
 30 86  1  0  0  0  0
 31 87  1  0  0  0  0
 32 67  2  0  0  0  0
 33 68  1  0  0  0  0
 33 72  1  0  0  0  0
 34 45  1  0  0  0  0
 34 69  1  0  0  0  0
 34 78  2  0  0  0  0
 35 36  2  0  0  0  0
 37 73  1  0  0  0  0
 37 79  2  0  0  0  0
 38 55  1  0  0  0  0
 38 75  1  0  0  0  0
 38 80  2  0  0  0  0
 39 64  1  0  0  0  0
 39 70  1  0  0  0  0
 39 81  2  0  0  0  0
 40 65  1  0  0  0  0
 40 76  1  0  0  0  0
 40 82  2  0  0  0  0
 41 71  1  0  0  0  0
 41 74  1  0  0  0  0
 41 83  2  0  0  0  0
 42 46  1  0  0  0  0
 43 55  1  0  0  0  0
 44 70  1  0  0  0  0
 45 47  1  0  0  0  0
 46 49  1  0  0  0  0
 47 56  1  0  0  0  0
 48 50  1  0  0  0  0
 48 51  1  0  0  0  0
 49 54  1  0  0  0  0
 50 57  1  0  0  0  0
 51 71  1  0  0  0  0
 52 56  1  0  0  0  0
 52 69  1  0  0  0  0
 53 57  1  0  0  0  0
 53 71  1  0  0  0  0
 54 75  1  0  0  0  0
 55 70  1  0  0  0  0
 56 63  1  0  0  0  0
 57 68  1  0  0  0  0
 58 65  1  0  0  0  0
 59 66  1  0  0  0  0
 60 66  1  0  0  0  0
 61 66  1  0  0  0  0
 62 77  1  0  0  0  0
 63 85  1  0  0  0  0
 64 66  1  0  0  0  0
 64 76  1  0  0  0  0
 65 77  1  0  0  0  0
 67 68  1  0  0  0  0
M  CHG  1  77   1
M  ISO  4  41 100  63 101  74 100  85 101
M  END
> <Batch ID>
0061

> <Smiles>
C=Cc1ccc([100NH:0][100C:0](=O)N2CCCC(n3nc(-c4ccc(Oc5ccc(F)cc5F)cc4)c(C(N)=O)c3N)C2)cc1N1CC([101CH2:1][101O:1]c2ccc3c(c2)CN(C(=O)C(NC(=O)C(C)NC)C(C)(C)C)C(C(=O)NC2CCCc4ccccc42)C3)CCC1=O

> <Shape>
0.275

> <Color>
0.090

> <Negative vol penalty>
0.000

$$$$

  -OEChem-04042323073D

 83 91  0     1  0  0  0  0  0999 V2000
  -21.6852  -11.5139   20.2672 C   0  0  0  0  0  0  0  0  0  0  0  0
  -21.5819  -12.7352   20.9254 C   0  0  0  0  0  0  0  0  0  0  0  0
  -29.6807  -30.4458   23.7127 C   0  0  0  0  0  0  0  0  0  0  0  0
  -28.5447  -28.4849   24.5502 C   0  0  0  0  0  0  0  0  0  0  0  0
  -22.9412  -10.9961   19.9541 C   0  0  0  0  0  0  0  0  0  0  0  0
  -22.7349  -13.4388   21.2719 C   0  0  0  0  0  0  0  0  0  0  0  0
  -22.3951  -18.3755   20.1957 C   0  0  0  0  0  0  0  0  0  0  0  0
  -30.5711  -30.3879   24.7848 C   0  0  0  0  0  0  0  0  0  0  0  0
  -29.4351  -28.4269   25.6223 C   0  0  0  0  0  0  0  0  0  0  0  0
  -21.6562  -19.1689   21.0722 C   0  0  0  0  0  0  0  0  0  0  0  0
  -31.6308  -27.5501   28.3842 C   0  0  0  0  0  0  0  0  0  0  0  0
  -32.1659  -26.3058   28.7173 C   0  0  0  0  0  0  0  0  0  0  0  0
  -23.7012  -19.9143   22.1120 C   0  0  0  0  0  0  0  0  0  0  0  0
  -18.4404  -26.5889   22.0843 C   0  0  0  0  0  0  0  0  0  0  0  0
  -19.2215  -28.8473   21.7286 C   0  0  0  0  0  0  0  0  0  0  0  0
  -33.1362  -26.1326   26.5114 C   0  0  0  0  0  0  0  0  0  0  0  0
  -28.6674  -29.4943   23.5954 C   0  0  0  0  0  0  0  0  0  0  0  0
  -27.8877  -28.9355   21.2316 C   0  0  0  0  0  0  0  0  0  0  0  0
  -24.1099  -11.6983   20.2883 C   0  0  0  0  0  0  0  0  0  0  0  0
  -23.7944  -18.3371   20.2780 C   0  0  0  0  0  0  0  0  0  0  0  0
  -24.0078  -12.9292   20.9642 C   0  0  0  0  0  0  0  0  0  0  0  0
  -24.4557  -19.1216   21.2337 C   0  0  0  0  0  0  0  0  0  0  0  0
  -19.5441  -26.3354   22.8986 C   0  0  0  0  0  0  0  0  0  0  0  0
  -20.3253  -28.5939   22.5430 C   0  0  0  0  0  0  0  0  0  0  0  0
  -30.4483  -29.3784   25.7396 C   0  0  0  0  0  0  0  0  0  0  0  0
  -22.3090  -19.9362   22.0324 C   0  0  0  0  0  0  0  0  0  0  0  0
  -31.8483  -28.0856   27.1147 C   0  0  0  0  0  0  0  0  0  0  0  0
  -32.9186  -25.5970   27.7809 C   0  0  0  0  0  0  0  0  0  0  0  0
  -18.2792  -27.8449   21.4992 C   0  0  0  0  0  0  0  0  0  0  0  0
  -32.6010  -27.3769   26.1783 C   0  0  0  0  0  0  0  0  0  0  0  0
  -20.4865  -27.3379   23.1280 C   0  0  0  0  0  0  0  0  0  0  0  0
  -27.7470  -29.5539   22.4884 C   0  0  0  0  0  0  0  0  0  0  0  0
  -26.7555  -29.2962   20.5428 C   0  0  0  0  0  0  0  0  0  0  0  0
  -20.6172  -22.8354   23.2850 C   0  0  0  0  0  0  0  0  0  0  0  0
  -21.3137  -21.9966   22.5172 C   0  0  0  0  0  0  0  0  0  1  0  0
  -20.3715  -24.2044   22.7936 C   0  0  0  0  0  0  0  0  0  0  0  0
  -28.9470  -28.1087   20.7316 C   0  0  0  0  0  0  0  0  0  0  0  0
  -25.9449  -16.0746   20.8782 C   0  0  0  0  0  0  0  0  0  0  0  0
  -28.0523  -18.4257   20.1342 C   0  0  0  0  0  0  0  0  0  0  0  0
  -28.7001  -21.7682   19.8999 C   0  0  0  0  0  0  0  0  0  0  0  0
  -21.2684  -30.9138   22.2692 C   0  0  0  0  0  0  0  0  0  0  0  0
  -25.4466  -11.0759   19.9713 C   0  0  0  0  0  0  0  0  0  0  0  0
  -24.5785  -17.4967   19.3077 C   0  0  0  0  0  0  0  0  0  0  0  0
  -25.9573  -19.1313   21.3502 C   0  0  0  0  0  0  0  0  0  0  0  0
  -26.6094  -12.0625   20.0396 C   0  0  0  0  0  0  0  0  0  0  0  0
  -23.5091  -32.8046   20.2491 C   0  0  0  0  0  0  0  0  0  0  0  0
  -26.5228  -12.9026   21.3099 C   0  0  0  0  0  0  0  0  0  0  0  0
  -24.8619  -32.1256   20.4750 C   0  0  0  0  0  0  0  0  0  0  0  0
  -22.6665  -32.8279   21.5231 C   0  0  0  0  0  0  0  0  0  0  0  0
  -23.8364  -30.8434   22.3963 C   0  0  0  0  0  0  0  0  0  0  0  0
  -25.2346  -13.7341   21.3346 C   0  0  1  0  0  0  0  0  0  0  0  0
  -25.9711  -17.1382   19.8172 C   0  0  1  0  0  0  0  0  0  0  0  0
  -24.6944  -30.7381   21.1249 C   0  0  2  0  0  0  0  0  0  0  0  0
  -30.5236  -23.3839   19.2987 C   0  0  0  0  0  0  0  0  0  0  0  0
  -29.4174  -17.8759   22.8070 C   0  0  0  0  0  0  0  0  0  0  0  0
  -30.5853  -20.0792   22.5846 C   0  0  0  0  0  0  0  0  0  0  0  0
  -30.9834  -18.2829   20.9001 C   0  0  0  0  0  0  0  0  0  0  0  0
  -27.1067  -22.9236   17.6898 C   0  0  0  0  0  0  0  0  0  0  0  0
  -28.7694  -19.5036   20.9106 C   0  0  1  0  0  0  0  0  0  0  0  0
  -29.3240  -22.5981   18.7925 C   0  0  2  0  0  0  0  0  0  0  0  0
  -29.9105  -18.9339   21.7999 C   0  0  0  0  0  0  0  0  0  0  0  0
  -26.6148  -30.2546   22.5945 N   0  0  0  0  0  0  0  0  0  0  0  0
  -19.7033  -25.0690   23.4869 N   0  0  0  0  0  0  0  0  0  0  0  0
  -26.0338  -30.0786   21.3955 N   0  0  0  0  0  0  0  0  0  0  0  0
  -26.6793  -18.2883   20.3830 N   0  0  0  0  0  0  0  0  0  0  0  0
  -22.5474  -31.4786   22.0801 N   0  0  0  0  0  0  0  0  0  0  0  0
  -26.3169  -29.0173   19.2969 N   0  0  0  0  0  0  0  0  0  0  0  0
  -30.0359  -27.8374   21.5713 N   0  0  0  0  0  0  0  0  0  0  0  0
  -21.2810  -29.6140   22.7743 N   0  0  0  0  0  0  0  0  0  0  0  0
  -25.3621  -14.8892   20.4722 N   0  0  0  0  0  0  0  0  0  0  0  0
  -29.2117  -20.4880   19.9290 N   0  0  0  0  0  0  0  0  0  0  0  0
  -28.3285  -23.5618   18.2438 N   0  3  0  0  0  0  0  0  0  0  0  0
  -28.9363  -27.6384   19.5688 O   0  0  0  0  0  0  0  0  0  0  0  0
  -26.4197  -16.3112   21.9828 O   0  0  0  0  0  0  0  0  0  0  0  0
  -28.6855  -17.7359   19.3312 O   0  0  0  0  0  0  0  0  0  0  0  0
  -27.8471  -22.2123   20.6652 O   0  0  0  0  0  0  0  0  0  0  0  0
  -20.2385  -31.5269   21.9770 O   0  0  0  0  0  0  0  0  0  0  0  0
  -31.3171  -29.3215   26.7858 O   0  0  0  0  0  0  0  0  0  0  0  0
  -21.5901  -20.7110   22.8896 O   0  0  0  0  0  0  0  0  0  1  0  0
  -33.4337  -24.4028   28.1014 F   0  0  0  0  0  0  0  0  0  0  0  0
  -17.2188  -28.0880   20.7178 F   0  0  0  0  0  0  0  0  0  0  0  0
  -32.8144  -27.8868   24.9575 F   0  0  0  0  0  0  0  0  0  0  0  0
  -21.5467  -27.0924   23.9127 F   0  0  0  0  0  0  0  0  0  0  0  0
  1  2  1  0  0  0  0
  1  5  2  0  0  0  0
  2  6  2  0  0  0  0
  3  8  2  0  0  0  0
  3 17  1  0  0  0  0
  4  9  1  0  0  0  0
  4 17  2  0  0  0  0
  5 19  1  0  0  0  0
  6 21  1  0  0  0  0
  7 10  2  0  0  0  0
  7 20  1  0  0  0  0
  8 25  1  0  0  0  0
  9 25  2  0  0  0  0
 10 26  1  0  0  0  0
 11 12  2  0  0  0  0
 11 27  1  0  0  0  0
 12 28  1  0  0  0  0
 13 22  1  0  0  0  0
 13 26  2  0  0  0  0
 14 23  1  0  0  0  0
 14 29  2  0  0  0  0
 15 24  2  0  0  0  0
 15 29  1  0  0  0  0
 16 28  2  0  0  0  0
 16 30  1  0  0  0  0
 17 32  1  0  0  0  0
 18 32  1  0  0  0  0
 18 33  2  0  0  0  0
 18 37  1  0  0  0  0
 19 21  2  0  0  0  0
 19 42  1  0  0  0  0
 20 22  2  0  0  0  0
 20 43  1  0  0  0  0
 21 51  1  0  0  0  0
 22 44  1  0  0  0  0
 23 31  2  0  0  0  0
 23 63  1  0  0  0  0
 24 31  1  0  0  0  0
 24 69  1  0  0  0  0
 25 78  1  0  0  0  0
 26 79  1  0  0  0  0
 27 30  2  0  0  0  0
 27 78  1  0  0  0  0
 28 80  1  0  0  0  0
 29 81  1  0  0  0  0
 30 82  1  0  0  0  0
 31 83  1  0  0  0  0
 32 62  2  0  0  0  0
 33 64  1  0  0  0  0
 33 67  1  0  0  0  0
 34 35  2  0  0  0  0
 34 36  1  0  0  0  0
 35 79  1  0  0  0  0
 36 63  2  0  0  0  0
 37 68  1  0  0  0  0
 37 73  2  0  0  0  0
 38 52  1  0  0  0  0
 38 70  1  0  0  0  0
 38 74  2  0  0  0  0
 39 59  1  0  0  0  0
 39 65  1  0  0  0  0
 39 75  2  0  0  0  0
 40 60  1  0  0  0  0
 40 71  1  0  0  0  0
 40 76  2  0  0  0  0
 41 66  1  0  0  0  0
 41 69  1  0  0  0  0
 41 77  2  0  0  0  0
 42 45  1  0  0  0  0
 43 52  1  0  0  0  0
 44 65  1  0  0  0  0
 45 47  1  0  0  0  0
 46 48  1  0  0  0  0
 46 49  1  0  0  0  0
 47 51  1  0  0  0  0
 48 53  1  0  0  0  0
 49 66  1  0  0  0  0
 50 53  1  0  0  0  0
 50 66  1  0  0  0  0
 51 70  1  0  0  0  0
 52 65  1  0  0  0  0
 53 64  1  0  0  0  0
 54 60  1  0  0  0  0
 55 61  1  0  0  0  0
 56 61  1  0  0  0  0
 57 61  1  0  0  0  0
 58 72  1  0  0  0  0
 59 61  1  0  0  0  0
 59 71  1  0  0  0  0
 60 72  1  0  0  0  0
 62 64  1  0  0  0  0
M  CHG  1  72   1
M  ISO  4  35 101  41 100  69 100  79 101
M  END
> <Batch ID>
0061

> <Smiles>
CNC(C)C(=O)NC(C(=O)N1Cc2cc([101O:1][101CH:1]=CC=Nc3cc(F)cc([100NH:0][100C:0](=O)N4CCCC(n5nc(-c6ccc(Oc7ccc(F)cc7F)cc6)c(C(N)=O)c5N)C4)c3F)ccc2CC1C(=O)NC1CCCc2ccccc21)C(C)(C)C

> <Shape>
0.246

> <Color>
0.077

> <Negative vol penalty>
0.000

$$$$

  -OEChem-04042323073D

 84 92  0     1  0  0  0  0  0999 V2000
  -33.6879  -11.1960   31.1570 C   0  0  0  0  0  0  0  0  0  0  0  0
  -33.6032  -12.3416   30.3723 C   0  0  0  0  0  0  0  0  0  0  0  0
  -31.3437  -19.0550   20.5778 C   0  0  0  0  0  0  0  0  0  0  0  0
  -23.0732   -9.8693   19.9429 C   0  0  0  0  0  0  0  0  0  0  0  0
  -23.8305   -9.8788   22.2371 C   0  0  0  0  0  0  0  0  0  0  0  0
  -30.6217  -19.8624   21.4567 C   0  0  0  0  0  0  0  0  0  0  0  0
  -32.6259  -10.2931   31.1874 C   0  0  0  0  0  0  0  0  0  0  0  0
  -32.4567  -12.5845   29.6165 C   0  0  0  0  0  0  0  0  0  0  0  0
  -30.8785  -17.3835   29.9681 C   0  0  0  0  0  0  0  0  0  0  0  0
  -31.1593  -17.6724   20.5896 C   0  0  0  0  0  0  0  0  0  0  0  0
  -22.3281   -8.7172   20.1935 C   0  0  0  0  0  0  0  0  0  0  0  0
  -23.0853   -8.7266   22.4878 C   0  0  0  0  0  0  0  0  0  0  0  0
  -31.5661  -18.3364   29.2180 C   0  0  0  0  0  0  0  0  0  0  0  0
  -20.5113   -5.5676   20.1374 C   0  0  0  0  0  0  0  0  0  0  0  0
  -20.5747   -4.5359   19.2009 C   0  0  0  0  0  0  0  0  0  0  0  0
  -29.8228  -18.2740   27.5518 C   0  0  0  0  0  0  0  0  0  0  0  0
  -22.9590   -4.3642   19.5516 C   0  0  0  0  0  0  0  0  0  0  0  0
  -23.8245  -10.4501   20.9646 C   0  0  0  0  0  0  0  0  0  0  0  0
  -29.7154  -19.2872   22.3474 C   0  0  0  0  0  0  0  0  0  0  0  0
  -24.1686  -12.9748   20.8416 C   0  0  0  0  0  0  0  0  0  0  0  0
  -31.4620  -10.5299   30.4392 C   0  0  0  0  0  0  0  0  0  0  0  0
  -29.6611  -16.8597   29.5097 C   0  0  0  0  0  0  0  0  0  0  0  0
  -31.3787  -11.6832   29.6359 C   0  0  0  0  0  0  0  0  0  0  0  0
  -29.1204  -17.3163   28.2993 C   0  0  0  0  0  0  0  0  0  0  0  0
  -29.5310  -17.9046   22.3592 C   0  0  0  0  0  0  0  0  0  0  0  0
  -30.2530  -17.0972   21.4803 C   0  0  0  0  0  0  0  0  0  0  0  0
  -22.3341   -8.1458   21.4660 C   0  0  0  0  0  0  0  0  0  0  0  0
  -31.0397  -18.7797   28.0082 C   0  0  0  0  0  0  0  0  0  0  0  0
  -21.6717   -5.9977   20.7809 C   0  0  0  0  0  0  0  0  0  0  0  0
  -21.7985   -3.9341   18.9080 C   0  0  0  0  0  0  0  0  0  0  0  0
  -22.8955   -5.3960   20.4880 C   0  0  0  0  0  0  0  0  0  0  0  0
  -24.5949  -11.6400   20.7061 C   0  0  0  0  0  0  0  0  0  0  0  0
  -25.2618  -13.7229   20.4785 C   0  0  0  0  0  0  0  0  0  0  0  0
  -22.8981  -13.4923   21.2584 C   0  0  0  0  0  0  0  0  0  0  0  0
  -28.9687  -20.1649   23.2606 C   0  0  0  0  0  0  0  0  0  0  0  0
  -28.6288  -13.9654   28.6966 C   0  0  0  0  0  0  0  0  0  0  0  0
  -25.7697  -15.4789   28.4572 C   0  0  0  0  0  0  0  0  0  0  0  0
  -30.7457  -20.0165   25.0739 C   0  0  0  0  0  0  0  0  0  0  0  0
  -24.0680  -18.3990   27.9839 C   0  0  0  0  0  0  0  0  0  0  0  0
  -30.7287  -14.7640   20.6579 C   0  0  0  0  0  0  0  0  0  0  0  0
  -30.3593   -9.5013   30.4672 C   0  0  0  0  0  0  0  0  0  0  0  0
  -28.9185  -15.8519   30.3437 C   0  0  0  0  0  0  0  0  0  0  0  0
  -27.8069  -16.8005   27.7728 C   0  0  0  0  0  0  0  0  0  0  0  0
  -29.0285  -10.0203   29.9288 C   0  0  0  0  0  0  0  0  0  0  0  0
  -29.6149  -12.3480   18.2917 C   0  0  0  0  0  0  0  0  0  0  0  0
  -29.2392  -10.7711   28.6179 C   0  0  0  0  0  0  0  0  0  0  0  0
  -28.1745  -12.0582   18.7200 C   0  0  0  0  0  0  0  0  0  0  0  0
  -30.5288  -12.5776   19.4940 C   0  0  0  0  0  0  0  0  0  0  0  0
  -28.6210  -13.3056   20.8722 C   0  0  0  0  0  0  0  0  0  0  0  0
  -30.1417  -11.9941   28.8214 C   0  0  1  0  0  0  0  0  0  0  0  0
  -27.9409  -15.0083   29.5314 C   0  0  1  0  0  0  0  0  0  0  0  0
  -27.6493  -13.1316   19.6935 C   0  0  2  0  0  0  0  0  0  0  0  0
  -28.5581  -17.2885   23.3160 C   0  0  0  0  0  0  0  0  0  0  0  0
  -21.7386  -19.3141   27.8011 C   0  0  0  0  0  0  0  0  0  0  0  0
  -25.5517  -14.3527   25.6298 C   0  0  0  0  0  0  0  0  0  0  0  0
  -23.7443  -16.0251   25.1779 C   0  0  0  0  0  0  0  0  0  0  0  0
  -23.4245  -14.2924   26.9436 C   0  0  0  0  0  0  0  0  0  0  0  0
  -24.4454  -20.1475   30.3417 C   0  0  0  0  0  0  0  0  0  0  0  0
  -30.9251  -20.5868   26.4664 C   0  0  0  0  0  0  0  0  0  1  0  0
  -25.0310  -16.2006   27.3561 C   0  0  1  0  0  0  0  0  0  0  0  0
  -22.9028  -19.0188   28.7339 C   0  0  2  0  0  0  0  0  0  0  0  0
  -24.4636  -15.2262   26.2856 C   0  0  0  0  0  0  0  0  0  0  0  0
  -25.8601  -11.5425   20.2894 N   0  0  0  0  0  0  0  0  0  0  0  0
  -26.2383  -12.8256   20.1598 N   0  0  0  0  0  0  0  0  0  0  0  0
  -27.1218  -15.8116   28.6214 N   0  0  0  0  0  0  0  0  0  0  0  0
  -29.9698  -13.6101   20.3694 N   0  0  0  0  0  0  0  0  0  0  0  0
  -25.4734  -15.0541   20.4040 N   0  0  0  0  0  0  0  0  0  0  0  0
  -21.8850  -12.5844   21.5958 N   0  0  0  0  0  0  0  0  0  0  0  0
  -30.0812  -15.6907   21.4744 N   0  0  0  0  0  0  0  0  0  0  0  0
  -29.5309  -20.4459   24.5089 N   0  0  0  0  0  0  0  0  0  0  0  0
  -29.3963  -13.0774   29.4258 N   0  0  0  0  0  0  0  0  0  0  0  0
  -24.0194  -17.0213   28.0130 N   0  0  0  0  0  0  0  0  0  0  0  0
  -23.3224  -20.2943   29.3803 N   0  3  0  0  0  0  0  0  0  0  0  0
  -22.6628  -14.7232   21.3138 O   0  0  0  0  0  0  0  0  0  0  0  0
  -28.4735  -13.9655   27.4810 O   0  0  0  0  0  0  0  0  0  0  0  0
  -25.1674  -14.6556   29.1508 O   0  0  0  0  0  0  0  0  0  0  0  0
  -31.5767  -19.2808   24.5513 O   0  0  0  0  0  0  0  0  0  0  0  0
  -24.9327  -19.0699   27.4247 O   0  0  0  0  0  0  0  0  0  0  0  0
  -31.8584  -14.9312   20.1913 O   0  0  0  0  0  0  0  0  0  0  0  0
  -21.6069   -7.0216   21.7110 O   0  0  0  0  0  0  0  0  0  0  0  0
  -31.7091  -19.7094   27.2737 O   0  0  0  0  0  0  0  0  0  1  0  0
  -21.8591   -2.9423   18.0098 F   0  0  0  0  0  0  0  0  0  0  0  0
  -24.0135   -5.8041   21.1040 F   0  0  0  0  0  0  0  0  0  0  0  0
  -27.4839  -20.8202   22.8277 S   0  0  0  0  0  0  0  0  0  0  0  0
  1  2  1  0  0  0  0
  1  7  2  0  0  0  0
  2  8  2  0  0  0  0
  3  6  2  0  0  0  0
  3 10  1  0  0  0  0
  4 11  2  0  0  0  0
  4 18  1  0  0  0  0
  5 12  1  0  0  0  0
  5 18  2  0  0  0  0
  6 19  1  0  0  0  0
  7 21  1  0  0  0  0
  8 23  1  0  0  0  0
  9 13  2  0  0  0  0
  9 22  1  0  0  0  0
 10 26  2  0  0  0  0
 11 27  1  0  0  0  0
 12 27  2  0  0  0  0
 13 28  1  0  0  0  0
 14 15  2  0  0  0  0
 14 29  1  0  0  0  0
 15 30  1  0  0  0  0
 16 24  1  0  0  0  0
 16 28  2  0  0  0  0
 17 30  2  0  0  0  0
 17 31  1  0  0  0  0
 18 32  1  0  0  0  0
 19 25  2  0  0  0  0
 19 35  1  0  0  0  0
 20 32  1  0  0  0  0
 20 33  2  0  0  0  0
 20 34  1  0  0  0  0
 21 23  2  0  0  0  0
 21 41  1  0  0  0  0
 22 24  2  0  0  0  0
 22 42  1  0  0  0  0
 23 50  1  0  0  0  0
 24 43  1  0  0  0  0
 25 26  1  0  0  0  0
 25 53  1  0  0  0  0
 26 69  1  0  0  0  0
 27 80  1  0  0  0  0
 28 81  1  0  0  0  0
 29 31  2  0  0  0  0
 29 80  1  0  0  0  0
 30 82  1  0  0  0  0
 31 83  1  0  0  0  0
 32 63  2  0  0  0  0
 33 64  1  0  0  0  0
 33 67  1  0  0  0  0
 34 68  1  0  0  0  0
 34 74  2  0  0  0  0
 35 70  1  0  0  0  0
 35 84  2  0  0  0  0
 36 51  1  0  0  0  0
 36 71  1  0  0  0  0
 36 75  2  0  0  0  0
 37 60  1  0  0  0  0
 37 65  1  0  0  0  0
 37 76  2  0  0  0  0
 38 59  1  0  0  0  0
 38 70  1  0  0  0  0
 38 77  2  0  0  0  0
 39 61  1  0  0  0  0
 39 72  1  0  0  0  0
 39 78  2  0  0  0  0
 40 66  1  0  0  0  0
 40 69  1  0  0  0  0
 40 79  2  0  0  0  0
 41 44  1  0  0  0  0
 42 51  1  0  0  0  0
 43 65  1  0  0  0  0
 44 46  1  0  0  0  0
 45 47  1  0  0  0  0
 45 48  1  0  0  0  0
 46 50  1  0  0  0  0
 47 52  1  0  0  0  0
 48 66  1  0  0  0  0
 49 52  1  0  0  0  0
 49 66  1  0  0  0  0
 50 71  1  0  0  0  0
 51 65  1  0  0  0  0
 52 64  1  0  0  0  0
 54 61  1  0  0  0  0
 55 62  1  0  0  0  0
 56 62  1  0  0  0  0
 57 62  1  0  0  0  0
 58 73  1  0  0  0  0
 59 81  1  0  0  0  0
 60 62  1  0  0  0  0
 60 72  1  0  0  0  0
 61 73  1  0  0  0  0
 63 64  1  0  0  0  0
M  CHG  1  73   1
M  ISO  4  40 100  59 101  69 100  81 101
M  END
> <Batch ID>
0061

> <Smiles>
CNC(C)C(=O)NC(C(=O)N1Cc2cc([101O:1][101CH2:1]C(=O)NC(=S)c3cccc([100NH:0][100C:0](=O)N4CCCC(n5nc(-c6ccc(Oc7ccc(F)cc7F)cc6)c(C(N)=O)c5N)C4)c3C)ccc2CC1C(=O)NC1CCCc2ccccc21)C(C)(C)C

> <Shape>
0.161

> <Color>
0.187

> <Negative vol penalty>
0.000

$$$$

  -OEChem-04042323073D

 85 93  0     1  0  0  0  0  0999 V2000
  -26.7908  -34.2957   25.5316 C   0  0  0  0  0  0  0  0  0  0  0  0
  -27.2077  -33.1072   24.9408 C   0  0  0  0  0  0  0  0  0  0  0  0
  -26.4504  -11.6228   21.2376 C   0  0  0  0  0  0  0  0  0  0  0  0
  -25.6521  -13.2004   19.5911 C   0  0  0  0  0  0  0  0  0  0  0  0
  -25.4640  -34.4453   25.9331 C   0  0  0  0  0  0  0  0  0  0  0  0
  -26.2983  -32.0672   24.7521 C   0  0  0  0  0  0  0  0  0  0  0  0
  -26.6657  -29.9752   20.1550 C   0  0  0  0  0  0  0  0  0  0  0  0
  -25.1341  -11.2889   21.5559 C   0  0  0  0  0  0  0  0  0  0  0  0
  -24.3357  -12.8664   19.9094 C   0  0  0  0  0  0  0  0  0  0  0  0
  -27.7172  -29.0846   19.9429 C   0  0  0  0  0  0  0  0  0  0  0  0
  -21.9894   -9.7592   22.5487 C   0  0  0  0  0  0  0  0  0  0  0  0
  -21.6786   -8.4064   22.6862 C   0  0  0  0  0  0  0  0  0  0  0  0
  -26.2042  -27.2325   20.2590 C   0  0  0  0  0  0  0  0  0  0  0  0
  -29.4066  -20.3039   18.3204 C   0  0  0  0  0  0  0  0  0  0  0  0
  -30.6169  -21.2489   20.1857 C   0  0  0  0  0  0  0  0  0  0  0  0
  -22.3560   -8.0184   20.3997 C   0  0  0  0  0  0  0  0  0  0  0  0
  -26.7094  -12.5786   20.2551 C   0  0  0  0  0  0  0  0  0  0  0  0
  -29.3512  -22.6870   18.7137 C   0  0  0  0  0  0  0  0  0  0  0  0
  -28.8874  -12.3221   18.9520 C   0  0  0  0  0  0  0  0  0  0  0  0
  -24.5356  -33.4102   25.7405 C   0  0  0  0  0  0  0  0  0  0  0  0
  -25.3756  -29.5004   20.4319 C   0  0  0  0  0  0  0  0  0  0  0  0
  -24.9582  -32.2026   25.1527 C   0  0  0  0  0  0  0  0  0  0  0  0
  -25.1376  -28.1191   20.4716 C   0  0  0  0  0  0  0  0  0  0  0  0
  -28.9662  -21.5777   17.9609 C   0  0  0  0  0  0  0  0  0  0  0  0
  -30.2319  -20.1395   19.4329 C   0  0  0  0  0  0  0  0  0  0  0  0
  -24.0768  -11.9106   20.8918 C   0  0  0  0  0  0  0  0  0  0  0  0
  -27.4871  -27.7130   19.9978 C   0  0  0  0  0  0  0  0  0  0  0  0
  -22.4834  -10.2417   21.3367 C   0  0  0  0  0  0  0  0  0  0  0  0
  -21.8619   -7.5360   21.6117 C   0  0  0  0  0  0  0  0  0  0  0  0
  -30.1766  -22.5227   19.8261 C   0  0  0  0  0  0  0  0  0  0  0  0
  -22.6667   -9.3713   20.2623 C   0  0  0  0  0  0  0  0  0  0  0  0
  -28.0690  -12.9244   19.9262 C   0  0  0  0  0  0  0  0  0  0  0  0
  -30.0755  -13.0067   19.0306 C   0  0  0  0  0  0  0  0  0  0  0  0
  -28.8939  -24.0530   18.3503 C   0  0  0  0  0  0  0  0  0  0  0  0
  -28.5995  -11.2405   18.0560 C   0  0  0  0  0  0  0  0  0  0  0  0
  -23.3693  -29.7569   22.8839 C   0  0  0  0  0  0  0  0  0  0  0  0
  -21.3358  -28.2202   20.8775 C   0  0  0  0  0  0  0  0  0  0  0  0
  -20.9248  -26.1671   18.1826 C   0  0  0  0  0  0  0  0  0  0  0  0
  -31.5019  -18.5090   20.8733 C   0  0  0  0  0  0  0  0  0  0  0  0
  -23.1232  -33.6007   26.2339 C   0  0  0  0  0  0  0  0  0  0  0  0
  -24.2467  -30.4740   20.6319 C   0  0  0  0  0  0  0  0  0  0  0  0
  -23.7668  -27.5582   20.7452 C   0  0  0  0  0  0  0  0  0  0  0  0
  -22.1350  -32.5901   25.6573 C   0  0  0  0  0  0  0  0  0  0  0  0
  -32.7973  -15.4399   22.1300 C   0  0  0  0  0  0  0  0  0  0  0  0
  -22.7088  -31.1788   25.7342 C   0  0  0  0  0  0  0  0  0  0  0  0
  -31.8096  -14.3910   21.6137 C   0  0  0  0  0  0  0  0  0  0  0  0
  -32.0940  -16.7401   22.5151 C   0  0  0  0  0  0  0  0  0  0  0  0
  -30.2473  -16.2652   20.9551 C   0  0  0  0  0  0  0  0  0  0  0  0
  -23.9956  -31.0606   24.9085 C   0  0  1  0  0  0  0  0  0  0  0  0
  -23.0789  -29.8821   21.4151 C   0  0  1  0  0  0  0  0  0  0  0  0
  -30.9171  -14.9605   20.4936 C   0  0  2  0  0  0  0  0  0  0  0  0
  -28.0833  -21.7250   16.7646 C   0  0  0  0  0  0  0  0  0  0  0  0
  -19.1448  -25.0595   16.8033 C   0  0  0  0  0  0  0  0  0  0  0  0
  -30.8743  -27.3156   19.6967 C   0  0  0  0  0  0  0  0  0  0  0  0
  -20.8988  -26.1685   23.0933 C   0  0  0  0  0  0  0  0  0  0  0  0
  -19.9093  -24.6332   21.3810 C   0  0  0  0  0  0  0  0  0  0  0  0
  -18.8261  -26.8288   21.8593 C   0  0  0  0  0  0  0  0  0  0  0  0
  -21.7803  -27.5849   15.7297 C   0  0  0  0  0  0  0  0  0  0  0  0
  -29.6099  -26.3412   17.7117 C   0  0  0  0  0  0  0  0  0  0  0  0
  -21.0098  -26.7752   20.5862 C   0  0  1  0  0  0  0  0  0  0  0  0
  -20.0382  -26.2808   16.9556 C   0  0  2  0  0  0  0  0  0  0  0  0
  -29.5622  -27.2673   18.9248 C   0  0  1  0  0  0  0  0  0  1  0  0
  -20.1873  -26.1117   21.7267 C   0  0  0  0  0  0  0  0  0  0  0  0
  -28.6851  -13.9153   20.5762 N   0  0  0  0  0  0  0  0  0  0  0  0
  -29.9033  -13.9409   20.0093 N   0  0  0  0  0  0  0  0  0  0  0  0
  -22.6969  -28.5506   20.9403 N   0  0  0  0  0  0  0  0  0  0  0  0
  -31.2704  -17.2225   21.4043 N   0  0  0  0  0  0  0  0  0  0  0  0
  -31.2403  -12.8947   18.3575 N   0  0  0  0  0  0  0  0  0  0  0  0
  -27.3293  -10.6503   18.1075 N   0  0  0  0  0  0  0  0  0  0  0  0
  -30.6794  -18.8459   19.7987 N   0  0  0  0  0  0  0  0  0  0  0  0
  -29.8925  -24.9732   18.0568 N   0  0  0  0  0  0  0  0  0  0  0  0
  -23.6838  -30.9535   23.4993 N   0  0  0  0  0  0  0  0  0  0  0  0
  -20.3484  -26.7602   19.2859 N   0  0  0  0  0  0  0  0  0  0  0  0
  -20.8699  -26.4110   15.7259 N   0  3  0  0  0  0  0  0  0  0  0  0
  -27.6912  -24.3020   18.3468 O   0  0  0  0  0  0  0  0  0  0  0  0
  -29.4490  -10.7993   17.2453 O   0  0  0  0  0  0  0  0  0  0  0  0
  -23.3109  -28.6563   23.4197 O   0  0  0  0  0  0  0  0  0  0  0  0
  -20.4166  -29.0274   21.0363 O   0  0  0  0  0  0  0  0  0  0  0  0
  -22.0175  -25.6049   18.1650 O   0  0  0  0  0  0  0  0  0  0  0  0
  -32.3845  -19.2463   21.3200 O   0  0  0  0  0  0  0  0  0  0  0  0
  -22.7922  -11.5849   21.2021 O   0  0  0  0  0  0  0  0  0  0  0  0
  -28.5118  -26.8415   19.7918 O   0  0  0  0  0  0  0  0  0  1  0  0
  -21.5649   -6.2366   21.7444 F   0  0  0  0  0  0  0  0  0  0  0  0
  -30.5533  -23.5810   20.5579 F   0  0  0  0  0  0  0  0  0  0  0  0
  -23.1421   -9.8287   19.0958 F   0  0  0  0  0  0  0  0  0  0  0  0
  1  2  1  0  0  0  0
  1  5  2  0  0  0  0
  2  6  2  0  0  0  0
  3  8  2  0  0  0  0
  3 17  1  0  0  0  0
  4  9  1  0  0  0  0
  4 17  2  0  0  0  0
  5 20  1  0  0  0  0
  6 22  1  0  0  0  0
  7 10  2  0  0  0  0
  7 21  1  0  0  0  0
  8 26  1  0  0  0  0
  9 26  2  0  0  0  0
 10 27  1  0  0  0  0
 11 12  2  0  0  0  0
 11 28  1  0  0  0  0
 12 29  1  0  0  0  0
 13 23  1  0  0  0  0
 13 27  2  0  0  0  0
 14 24  2  0  0  0  0
 14 25  1  0  0  0  0
 15 25  2  0  0  0  0
 15 30  1  0  0  0  0
 16 29  2  0  0  0  0
 16 31  1  0  0  0  0
 17 32  1  0  0  0  0
 18 24  1  0  0  0  0
 18 30  2  0  0  0  0
 18 34  1  0  0  0  0
 19 32  1  0  0  0  0
 19 33  2  0  0  0  0
 19 35  1  0  0  0  0
 20 22  2  0  0  0  0
 20 40  1  0  0  0  0
 21 23  2  0  0  0  0
 21 41  1  0  0  0  0
 22 49  1  0  0  0  0
 23 42  1  0  0  0  0
 24 52  1  0  0  0  0
 25 70  1  0  0  0  0
 26 81  1  0  0  0  0
 27 82  1  0  0  0  0
 28 31  2  0  0  0  0
 28 81  1  0  0  0  0
 29 83  1  0  0  0  0
 30 84  1  0  0  0  0
 31 85  1  0  0  0  0
 32 64  2  0  0  0  0
 33 65  1  0  0  0  0
 33 68  1  0  0  0  0
 34 71  1  0  0  0  0
 34 75  2  0  0  0  0
 35 69  1  0  0  0  0
 35 76  2  0  0  0  0
 36 50  1  0  0  0  0
 36 72  1  0  0  0  0
 36 77  2  0  0  0  0
 37 60  1  0  0  0  0
 37 66  1  0  0  0  0
 37 78  2  0  0  0  0
 38 61  1  0  0  0  0
 38 73  1  0  0  0  0
 38 79  2  0  0  0  0
 39 67  1  0  0  0  0
 39 70  1  0  0  0  0
 39 80  2  0  0  0  0
 40 43  1  0  0  0  0
 41 50  1  0  0  0  0
 42 66  1  0  0  0  0
 43 45  1  0  0  0  0
 44 46  1  0  0  0  0
 44 47  1  0  0  0  0
 45 49  1  0  0  0  0
 46 51  1  0  0  0  0
 47 67  1  0  0  0  0
 48 51  1  0  0  0  0
 48 67  1  0  0  0  0
 49 72  1  0  0  0  0
 50 66  1  0  0  0  0
 51 65  1  0  0  0  0
 53 61  1  0  0  0  0
 54 62  1  0  0  0  0
 55 63  1  0  0  0  0
 56 63  1  0  0  0  0
 57 63  1  0  0  0  0
 58 74  1  0  0  0  0
 59 62  1  0  0  0  0
 59 71  1  0  0  0  0
 60 63  1  0  0  0  0
 60 73  1  0  0  0  0
 61 74  1  0  0  0  0
 62 82  1  0  0  0  0
 64 65  1  0  0  0  0
M  CHG  1  74   1
M  ISO  4  39 100  62 101  70 100  82 101
M  END
> <Batch ID>
0061

> <Smiles>
CNC(C)C(=O)NC(C(=O)N1Cc2cc([101O:1][101CH:1](C)CNC(=O)c3c(C)cc([100NH:0][100C:0](=O)N4CCCC(n5nc(-c6ccc(Oc7ccc(F)cc7F)cc6)c(C(N)=O)c5N)C4)cc3F)ccc2CC1C(=O)NC1CCCc2ccccc21)C(C)(C)C

> <Shape>
0.361

> <Color>
0.093

> <Negative vol penalty>
0.000

$$$$

  -OEChem-04042323073D

 86 95  0     1  0  0  0  0  0999 V2000
  -29.3340  -30.8040   26.8737 C   0  0  0  0  0  0  0  0  0  0  0  0
  -28.8213  -29.7985   26.0604 C   0  0  0  0  0  0  0  0  0  0  0  0
  -24.7213  -15.4488   23.7107 C   0  0  0  0  0  0  0  0  0  0  0  0
  -24.4655  -16.5310   21.5658 C   0  0  0  0  0  0  0  0  0  0  0  0
  -28.5503  -31.9140   27.1858 C   0  0  0  0  0  0  0  0  0  0  0  0
  -27.5241  -29.9020   25.5595 C   0  0  0  0  0  0  0  0  0  0  0  0
  -27.2350  -28.6944   20.6500 C   0  0  0  0  0  0  0  0  0  0  0  0
  -24.3273  -16.6238   24.3506 C   0  0  0  0  0  0  0  0  0  0  0  0
  -24.0714  -17.7061   22.2057 C   0  0  0  0  0  0  0  0  0  0  0  0
  -27.2441  -27.3383   20.3263 C   0  0  0  0  0  0  0  0  0  0  0  0
  -25.5521  -20.2756   23.8293 C   0  0  0  0  0  0  0  0  0  0  0  0
  -26.1105  -21.4741   23.3850 C   0  0  0  0  0  0  0  0  0  0  0  0
  -24.8455  -27.3884   20.0752 C   0  0  0  0  0  0  0  0  0  0  0  0
  -30.6482  -20.6923   19.6449 C   0  0  0  0  0  0  0  0  0  0  0  0
  -31.4570  -18.4357   19.9459 C   0  0  0  0  0  0  0  0  0  0  0  0
  -29.2162  -18.8166   19.1269 C   0  0  0  0  0  0  0  0  0  0  0  0
  -23.9059  -22.3001   22.8423 C   0  0  0  0  0  0  0  0  0  0  0  0
  -24.7904  -15.4023   22.3182 C   0  0  0  0  0  0  0  0  0  0  0  0
  -24.5715  -12.9302   21.7280 C   0  0  0  0  0  0  0  0  0  0  0  0
  -27.2462  -32.0358   26.6807 C   0  0  0  0  0  0  0  0  0  0  0  0
  -26.0279  -29.4063   20.6995 C   0  0  0  0  0  0  0  0  0  0  0  0
  -26.7217  -31.0141   25.8663 C   0  0  0  0  0  0  0  0  0  0  0  0
  -24.8240  -28.7540   20.3973 C   0  0  0  0  0  0  0  0  0  0  0  0
  -31.6647  -19.8131   20.0183 C   0  0  0  0  0  0  0  0  0  0  0  0
  -29.4239  -20.1940   19.1993 C   0  0  0  0  0  0  0  0  0  0  0  0
  -30.2327  -17.9374   19.5003 C   0  0  0  0  0  0  0  0  0  0  0  0
  -24.0023  -17.7525   23.5981 C   0  0  0  0  0  0  0  0  0  0  0  0
  -26.0489  -26.6844   20.0416 C   0  0  0  0  0  0  0  0  0  0  0  0
  -24.1705  -20.0893   23.7800 C   0  0  0  0  0  0  0  0  0  0  0  0
  -25.2874  -22.4863   22.8915 C   0  0  0  0  0  0  0  0  0  0  0  0
  -23.3475  -21.1016   23.2866 C   0  0  0  0  0  0  0  0  0  0  0  0
  -25.1979  -14.1889   21.6566 C   0  0  0  0  0  0  0  0  0  0  0  0
  -25.3388  -12.1191   20.9281 C   0  0  0  0  0  0  0  0  0  0  0  0
  -27.4327  -20.7465   17.8282 C   0  0  0  0  0  0  0  0  0  0  0  0
  -23.4007  -12.5300   22.4524 C   0  0  0  0  0  0  0  0  0  0  0  0
  -24.4325  -30.9620   22.9663 C   0  0  0  0  0  0  0  0  0  0  0  0
  -22.5039  -31.7930   20.4940 C   0  0  0  0  0  0  0  0  0  0  0  0
  -21.3265  -31.0795   17.3713 C   0  0  0  0  0  0  0  0  0  0  0  0
  -28.8687  -15.8667   19.0092 C   0  0  0  0  0  0  0  0  0  0  0  0
  -26.4201  -33.2315   27.0841 C   0  0  0  0  0  0  0  0  0  0  0  0
  -26.0379  -30.8749   21.0243 C   0  0  0  0  0  0  0  0  0  0  0  0
  -23.5033  -29.4778   20.4167 C   0  0  0  0  0  0  0  0  0  0  0  0
  -26.2001  -21.6239   17.7169 C   0  0  0  0  0  0  0  0  0  0  0  0
  -25.1887  -33.4448   26.2076 C   0  0  0  0  0  0  0  0  0  0  0  0
  -26.4516  -23.0911   17.9870 C   0  0  0  0  0  0  0  0  0  0  0  0
  -29.9809  -12.2224   19.5993 C   0  0  0  0  0  0  0  0  0  0  0  0
  -24.4448  -32.1289   26.0028 C   0  0  0  0  0  0  0  0  0  0  0  0
  -28.6570  -11.9059   20.2836 C   0  0  0  0  0  0  0  0  0  0  0  0
  -30.1773  -13.7327   19.4998 C   0  0  0  0  0  0  0  0  0  0  0  0
  -28.4457  -22.4855   19.3288 C   0  0  0  0  0  0  0  0  0  0  0  0
  -27.8719  -13.6357   18.5468 C   0  0  0  0  0  0  0  0  0  0  0  0
  -25.3278  -31.1021   25.2835 C   0  0  1  0  0  0  0  0  0  0  0  0
  -24.6969  -31.3802   21.5475 C   0  0  1  0  0  0  0  0  0  0  0  0
  -27.1134  -23.2335   19.3477 C   0  0  1  0  0  0  0  0  0  0  0  0
  -27.4641  -12.5014   19.5093 C   0  0  2  0  0  0  0  0  0  0  0  0
  -32.9733  -20.3464   20.4961 C   0  0  0  0  0  0  0  0  0  0  0  0
  -19.7304  -31.9221   15.6277 C   0  0  0  0  0  0  0  0  0  0  0  0
  -20.1588  -30.7251   22.1281 C   0  0  0  0  0  0  0  0  0  0  0  0
  -18.7942  -30.7082   20.0290 C   0  0  0  0  0  0  0  0  0  0  0  0
  -19.6958  -32.8603   20.9111 C   0  0  0  0  0  0  0  0  0  0  0  0
  -23.4986  -31.4500   15.3956 C   0  0  0  0  0  0  0  0  0  0  0  0
  -27.3215  -24.7037   19.7051 C   0  0  0  0  0  0  0  0  0  1  0  0
  -21.2760  -31.1971   19.8488 C   0  0  1  0  0  0  0  0  0  0  0  0
  -21.1643  -31.9441   16.1341 C   0  0  2  0  0  0  0  0  0  0  0  0
  -20.0057  -31.3583   20.7307 C   0  0  0  0  0  0  0  0  0  0  0  0
  -26.2799  -14.1828   20.8735 N   0  0  0  0  0  0  0  0  0  0  0  0
  -26.3394  -12.9103   20.4454 N   0  0  0  0  0  0  0  0  0  0  0  0
  -28.3694  -21.1068   18.8122 N   0  0  0  0  0  0  0  0  0  0  0  0
  -23.5645  -30.9114   20.7461 N   0  0  0  0  0  0  0  0  0  0  0  0
  -28.9763  -14.4542   19.0537 N   0  0  0  0  0  0  0  0  0  0  0  0
  -25.2485  -10.8133   20.5977 N   0  0  0  0  0  0  0  0  0  0  0  0
  -22.1546  -12.6372   21.8200 N   0  0  0  0  0  0  0  0  0  0  0  0
  -30.0210  -16.5374   19.4280 N   0  0  0  0  0  0  0  0  0  0  0  0
  -25.3884  -31.3917   23.8669 N   0  0  0  0  0  0  0  0  0  0  0  0
  -21.1695  -31.8109   18.5296 N   0  0  0  0  0  0  0  0  0  0  0  0
  -22.0556  -31.4590   15.0427 N   0  3  0  0  0  0  0  0  0  0  0  0
  -27.5049  -19.7532   17.0994 O   0  0  0  0  0  0  0  0  0  0  0  0
  -23.4563  -12.1059   23.6316 O   0  0  0  0  0  0  0  0  0  0  0  0
  -23.4344  -30.2998   23.2250 O   0  0  0  0  0  0  0  0  0  0  0  0
  -22.5240  -32.9979   20.7579 O   0  0  0  0  0  0  0  0  0  0  0  0
  -21.5646  -29.8751   17.3157 O   0  0  0  0  0  0  0  0  0  0  0  0
  -27.8389  -16.4262   18.6268 O   0  0  0  0  0  0  0  0  0  0  0  0
  -23.6176  -18.8992   24.2222 O   0  0  0  0  0  0  0  0  0  0  0  0
  -26.0549  -25.3607   19.7260 O   0  0  0  0  0  0  0  0  0  1  0  0
  -25.8237  -23.6378   22.4664 F   0  0  0  0  0  0  0  0  0  0  0  0
  -22.0194  -20.9289   23.2379 F   0  0  0  0  0  0  0  0  0  0  0  0
  1  2  1  0  0  0  0
  1  5  2  0  0  0  0
  2  6  2  0  0  0  0
  3  8  2  0  0  0  0
  3 18  1  0  0  0  0
  4  9  1  0  0  0  0
  4 18  2  0  0  0  0
  5 20  1  0  0  0  0
  6 22  1  0  0  0  0
  7 10  2  0  0  0  0
  7 21  1  0  0  0  0
  8 27  1  0  0  0  0
  9 27  2  0  0  0  0
 10 28  1  0  0  0  0
 11 12  2  0  0  0  0
 11 29  1  0  0  0  0
 12 30  1  0  0  0  0
 13 23  1  0  0  0  0
 13 28  2  0  0  0  0
 14 24  2  0  0  0  0
 14 25  1  0  0  0  0
 15 24  1  0  0  0  0
 15 26  2  0  0  0  0
 16 25  2  0  0  0  0
 16 26  1  0  0  0  0
 17 30  2  0  0  0  0
 17 31  1  0  0  0  0
 18 32  1  0  0  0  0
 19 32  1  0  0  0  0
 19 33  2  0  0  0  0
 19 35  1  0  0  0  0
 20 22  2  0  0  0  0
 20 40  1  0  0  0  0
 21 23  2  0  0  0  0
 21 41  1  0  0  0  0
 22 52  1  0  0  0  0
 23 42  1  0  0  0  0
 24 56  1  0  0  0  0
 25 68  1  0  0  0  0
 26 73  1  0  0  0  0
 27 83  1  0  0  0  0
 28 84  1  0  0  0  0
 29 31  2  0  0  0  0
 29 83  1  0  0  0  0
 30 85  1  0  0  0  0
 31 86  1  0  0  0  0
 32 66  2  0  0  0  0
 33 67  1  0  0  0  0
 33 71  1  0  0  0  0
 34 43  1  0  0  0  0
 34 68  1  0  0  0  0
 34 77  2  0  0  0  0
 35 72  1  0  0  0  0
 35 78  2  0  0  0  0
 36 53  1  0  0  0  0
 36 74  1  0  0  0  0
 36 79  2  0  0  0  0
 37 63  1  0  0  0  0
 37 69  1  0  0  0  0
 37 80  2  0  0  0  0
 38 64  1  0  0  0  0
 38 75  1  0  0  0  0
 38 81  2  0  0  0  0
 39 70  1  0  0  0  0
 39 73  1  0  0  0  0
 39 82  2  0  0  0  0
 40 44  1  0  0  0  0
 41 53  1  0  0  0  0
 42 69  1  0  0  0  0
 43 45  1  0  0  0  0
 44 47  1  0  0  0  0
 45 54  1  0  0  0  0
 46 48  1  0  0  0  0
 46 49  1  0  0  0  0
 47 52  1  0  0  0  0
 48 55  1  0  0  0  0
 49 70  1  0  0  0  0
 50 54  1  0  0  0  0
 50 68  1  0  0  0  0
 51 55  1  0  0  0  0
 51 70  1  0  0  0  0
 52 74  1  0  0  0  0
 53 69  1  0  0  0  0
 54 62  1  0  0  0  0
 55 67  1  0  0  0  0
 57 64  1  0  0  0  0
 58 65  1  0  0  0  0
 59 65  1  0  0  0  0
 60 65  1  0  0  0  0
 61 76  1  0  0  0  0
 62 84  1  0  0  0  0
 63 65  1  0  0  0  0
 63 75  1  0  0  0  0
 64 76  1  0  0  0  0
 66 67  1  0  0  0  0
M  CHG  1  76   1
M  ISO  4  39 100  62 101  73 100  84 101
M  END
> <Batch ID>
0061

> <Smiles>
CNC(C)C(=O)NC(C(=O)N1Cc2cc([101O:1][101CH2:1]C3CCC(=O)N(c4cc(C)cc([100NH:0][100C:0](=O)N5CCCC(n6nc(-c7ccc(Oc8ccc(F)cc8F)cc7)c(C(N)=O)c6N)C5)c4)C3)ccc2CC1C(=O)NC1CCCc2ccccc21)C(C)(C)C

> <Shape>
0.243

> <Color>
0.092

> <Negative vol penalty>
0.000

$$$$

  -OEChem-04042323073D

 88 97  0     1  0  0  0  0  0999 V2000
  -29.6701  -24.3812   18.5145 C   0  0  0  0  0  0  0  0  0  0  0  0
  -28.3121  -24.6689   18.4219 C   0  0  0  0  0  0  0  0  0  0  0  0
  -23.8422  -13.0315   21.9246 C   0  0  0  0  0  0  0  0  0  0  0  0
  -25.1611  -14.8771   21.0931 C   0  0  0  0  0  0  0  0  0  0  0  0
  -30.3935  -24.7910   19.6337 C   0  0  0  0  0  0  0  0  0  0  0  0
  -27.6765  -25.3656   19.4490 C   0  0  0  0  0  0  0  0  0  0  0  0
  -23.1078  -29.4041   18.8805 C   0  0  0  0  0  0  0  0  0  0  0  0
  -24.6019  -12.1448   21.1616 C   0  0  0  0  0  0  0  0  0  0  0  0
  -25.9209  -13.9904   20.3301 C   0  0  0  0  0  0  0  0  0  0  0  0
  -21.7275  -29.2872   19.0383 C   0  0  0  0  0  0  0  0  0  0  0  0
  -28.4606  -11.8184   20.8328 C   0  0  0  0  0  0  0  0  0  0  0  0
  -29.8463  -11.9773   20.8460 C   0  0  0  0  0  0  0  0  0  0  0  0
  -21.9232  -30.1017   21.3005 C   0  0  0  0  0  0  0  0  0  0  0  0
  -19.7067  -23.6776   23.5305 C   0  0  0  0  0  0  0  0  0  0  0  0
  -21.4388  -22.9597   25.0542 C   0  0  0  0  0  0  0  0  0  0  0  0
  -29.8284  -12.3324   18.4563 C   0  0  0  0  0  0  0  0  0  0  0  0
  -24.1217  -14.3977   21.8903 C   0  0  0  0  0  0  0  0  0  0  0  0
  -23.5879  -15.7304   23.9990 C   0  0  0  0  0  0  0  0  0  0  0  0
  -29.7685  -25.5015   20.6707 C   0  0  0  0  0  0  0  0  0  0  0  0
  -23.9088  -29.8611   19.9369 C   0  0  0  0  0  0  0  0  0  0  0  0
  -28.3919  -25.7840   20.5838 C   0  0  0  0  0  0  0  0  0  0  0  0
  -23.3131  -30.2259   21.1527 C   0  0  0  0  0  0  0  0  0  0  0  0
  -20.9629  -25.3134   24.7885 C   0  0  0  0  0  0  0  0  0  0  0  0
  -19.9668  -25.0074   23.8613 C   0  0  0  0  0  0  0  0  0  0  0  0
  -20.4426  -22.6537   24.1270 C   0  0  0  0  0  0  0  0  0  0  0  0
  -25.6413  -12.6242   20.3644 C   0  0  0  0  0  0  0  0  0  0  0  0
  -21.1353  -29.6333   20.2494 C   0  0  0  0  0  0  0  0  0  0  0  0
  -27.7588  -11.9164   19.6313 C   0  0  0  0  0  0  0  0  0  0  0  0
  -21.6989  -24.2896   25.3849 C   0  0  0  0  0  0  0  0  0  0  0  0
  -30.5302  -12.2343   19.6578 C   0  0  0  0  0  0  0  0  0  0  0  0
  -28.4427  -12.1735   18.4431 C   0  0  0  0  0  0  0  0  0  0  0  0
  -23.3369  -15.3142   22.6777 C   0  0  0  0  0  0  0  0  0  0  0  0
  -22.5608  -16.5954   24.2874 C   0  0  0  0  0  0  0  0  0  0  0  0
  -17.8130  -27.8179   22.9305 C   0  0  0  0  0  0  0  0  0  0  0  0
  -18.2524  -27.4152   21.7361 C   0  0  0  0  0  0  0  0  0  0  0  0
  -18.4216  -26.9316   23.9426 C   0  0  0  0  0  0  0  0  0  0  0  0
  -24.6541  -15.3675   24.8861 C   0  0  0  0  0  0  0  0  0  0  0  0
  -26.2804  -28.6217   21.6524 C   0  0  0  0  0  0  0  0  0  0  0  0
  -26.4193  -31.6122   22.9015 C   0  0  0  0  0  0  0  0  0  0  0  0
  -24.8197  -34.5541   23.5600 C   0  0  0  0  0  0  0  0  0  0  0  0
  -19.2204  -20.8272   22.8956 C   0  0  0  0  0  0  0  0  0  0  0  0
  -30.5816  -25.8823   21.8826 C   0  0  0  0  0  0  0  0  0  0  0  0
  -25.3931  -30.0069   19.7419 C   0  0  0  0  0  0  0  0  0  0  0  0
  -24.1262  -30.7411   22.3111 C   0  0  0  0  0  0  0  0  0  0  0  0
  -19.1748  -26.2487   21.8264 C   0  0  0  0  0  0  0  0  0  0  0  0
  -29.9148  -26.9430   22.7547 C   0  0  0  0  0  0  0  0  0  0  0  0
  -18.2803  -17.5820   21.7722 C   0  0  0  0  0  0  0  0  0  0  0  0
  -28.4477  -26.5968   22.9884 C   0  0  0  0  0  0  0  0  0  0  0  0
  -19.5327  -16.7369   22.0163 C   0  0  0  0  0  0  0  0  0  0  0  0
  -18.6312  -18.9983   21.3198 C   0  0  0  0  0  0  0  0  0  0  0  0
  -20.8233  -18.8688   22.4364 C   0  0  0  0  0  0  0  0  0  0  0  0
  -27.6723  -26.5593   21.6660 C   0  0  1  0  0  0  0  0  0  0  0  0
  -26.1720  -29.9955   21.0536 C   0  0  1  0  0  0  0  0  0  0  0  0
  -20.5218  -17.4537   22.9563 C   0  0  2  0  0  0  0  0  0  0  0  0
  -21.2498  -26.7366   25.1507 C   0  0  0  0  0  0  0  0  0  0  0  0
  -25.1809  -36.7971   24.6256 C   0  0  0  0  0  0  0  0  0  0  0  0
  -26.1927  -30.3341   25.6629 C   0  0  0  0  0  0  0  0  0  0  0  0
  -25.6068  -32.5882   26.5815 C   0  0  0  0  0  0  0  0  0  0  0  0
  -27.8318  -32.2172   25.5163 C   0  0  0  0  0  0  0  0  0  0  0  0
  -24.2950  -35.9757   21.0178 C   0  0  0  0  0  0  0  0  0  0  0  0
  -22.2842  -24.6342   27.6641 C   0  0  0  0  0  0  0  0  0  0  0  0
  -17.9029  -28.0150   20.4141 C   0  0  0  0  0  0  0  0  0  0  0  0
  -19.1308  -28.4998   19.6551 C   0  0  0  0  0  0  0  0  0  1  0  0
  -25.7639  -32.3163   24.0651 C   0  0  1  0  0  0  0  0  0  0  0  0
  -25.2318  -35.9974   23.3331 C   0  0  2  0  0  0  0  0  0  0  0  0
  -26.3334  -31.8524   25.4354 C   0  0  0  0  0  0  0  0  0  0  0  0
  -22.2365  -15.8691   22.1626 N   0  0  0  0  0  0  0  0  0  0  0  0
  -21.7870  -16.6427   23.1653 N   0  0  0  0  0  0  0  0  0  0  0  0
  -19.2234  -26.0124   23.2545 N   0  0  0  0  0  0  0  0  0  0  0  0
  -25.5743  -30.8599   22.0734 N   0  0  0  0  0  0  0  0  0  0  0  0
  -19.5683  -19.6163   22.2603 N   0  0  0  0  0  0  0  0  0  0  0  0
  -22.2530  -17.3126   25.3890 N   0  0  0  0  0  0  0  0  0  0  0  0
  -25.6258  -14.4665   24.4296 N   0  0  0  0  0  0  0  0  0  0  0  0
  -20.1758  -21.3027   23.7931 N   0  0  0  0  0  0  0  0  0  0  0  0
  -27.3763  -27.9024   21.2154 N   0  0  0  0  0  0  0  0  0  0  0  0
  -25.9081  -33.7456   23.8110 N   0  0  0  0  0  0  0  0  0  0  0  0
  -24.3253  -36.6455   22.3435 N   0  3  0  0  0  0  0  0  0  0  0  0
  -18.2231  -27.0324   25.1424 O   0  0  0  0  0  0  0  0  0  0  0  0
  -24.7336  -15.8159   26.0549 O   0  0  0  0  0  0  0  0  0  0  0  0
  -25.4334  -28.2430   22.4529 O   0  0  0  0  0  0  0  0  0  0  0  0
  -27.6349  -31.7313   22.7295 O   0  0  0  0  0  0  0  0  0  0  0  0
  -23.6490  -34.1818   23.5223 O   0  0  0  0  0  0  0  0  0  0  0  0
  -18.1416  -21.3859   22.6810 O   0  0  0  0  0  0  0  0  0  0  0  0
  -26.3830  -11.7592   19.6199 O   0  0  0  0  0  0  0  0  0  0  0  0
  -22.6747  -24.5691   26.2940 O   0  0  0  0  0  0  0  0  0  0  0  0
  -19.7883  -29.5195   20.4062 O   0  0  0  0  0  0  0  0  0  1  0  0
  -31.8607  -12.3884   19.6709 F   0  0  0  0  0  0  0  0  0  0  0  0
  -27.7737  -12.2699   17.2859 F   0  0  0  0  0  0  0  0  0  0  0  0
  1  2  1  0  0  0  0
  1  5  2  0  0  0  0
  2  6  2  0  0  0  0
  3  8  2  0  0  0  0
  3 17  1  0  0  0  0
  4  9  1  0  0  0  0
  4 17  2  0  0  0  0
  5 19  1  0  0  0  0
  6 21  1  0  0  0  0
  7 10  2  0  0  0  0
  7 20  1  0  0  0  0
  8 26  1  0  0  0  0
  9 26  2  0  0  0  0
 10 27  1  0  0  0  0
 11 12  2  0  0  0  0
 11 28  1  0  0  0  0
 12 30  1  0  0  0  0
 13 22  1  0  0  0  0
 13 27  2  0  0  0  0
 14 24  1  0  0  0  0
 14 25  2  0  0  0  0
 15 25  1  0  0  0  0
 15 29  2  0  0  0  0
 16 30  2  0  0  0  0
 16 31  1  0  0  0  0
 17 32  1  0  0  0  0
 18 32  1  0  0  0  0
 18 33  2  0  0  0  0
 18 37  1  0  0  0  0
 19 21  2  0  0  0  0
 19 42  1  0  0  0  0
 20 22  2  0  0  0  0
 20 43  1  0  0  0  0
 21 52  1  0  0  0  0
 22 44  1  0  0  0  0
 23 24  2  0  0  0  0
 23 29  1  0  0  0  0
 23 55  1  0  0  0  0
 24 69  1  0  0  0  0
 25 74  1  0  0  0  0
 26 84  1  0  0  0  0
 27 86  1  0  0  0  0
 28 31  2  0  0  0  0
 28 84  1  0  0  0  0
 29 85  1  0  0  0  0
 30 87  1  0  0  0  0
 31 88  1  0  0  0  0
 32 67  2  0  0  0  0
 33 68  1  0  0  0  0
 33 72  1  0  0  0  0
 34 35  2  0  0  0  0
 34 36  1  0  0  0  0
 35 45  1  0  0  0  0
 35 62  1  0  0  0  0
 36 69  1  0  0  0  0
 36 78  2  0  0  0  0
 37 73  1  0  0  0  0
 37 79  2  0  0  0  0
 38 53  1  0  0  0  0
 38 75  1  0  0  0  0
 38 80  2  0  0  0  0
 39 64  1  0  0  0  0
 39 70  1  0  0  0  0
 39 81  2  0  0  0  0
 40 65  1  0  0  0  0
 40 76  1  0  0  0  0
 40 82  2  0  0  0  0
 41 71  1  0  0  0  0
 41 74  1  0  0  0  0
 41 83  2  0  0  0  0
 42 46  1  0  0  0  0
 43 53  1  0  0  0  0
 44 70  1  0  0  0  0
 45 69  1  0  0  0  0
 46 48  1  0  0  0  0
 47 49  1  0  0  0  0
 47 50  1  0  0  0  0
 48 52  1  0  0  0  0
 49 54  1  0  0  0  0
 50 71  1  0  0  0  0
 51 54  1  0  0  0  0
 51 71  1  0  0  0  0
 52 75  1  0  0  0  0
 53 70  1  0  0  0  0
 54 68  1  0  0  0  0
 56 65  1  0  0  0  0
 57 66  1  0  0  0  0
 58 66  1  0  0  0  0
 59 66  1  0  0  0  0
 60 77  1  0  0  0  0
 61 85  1  0  0  0  0
 62 63  1  0  0  0  0
 63 86  1  0  0  0  0
 64 66  1  0  0  0  0
 64 76  1  0  0  0  0
 65 77  1  0  0  0  0
 67 68  1  0  0  0  0
M  CHG  1  77   1
M  ISO  4  41 100  63 101  74 100  86 101
M  END
> <Batch ID>
0061

> <Smiles>
CNC(C)C(=O)NC(C(=O)N1Cc2cc([101O:1][101CH2:1]C=C3CC(=O)N(c4cc([100NH:0][100C:0](=O)N5CCCC(n6nc(-c7ccc(Oc8ccc(F)cc8F)cc7)c(C(N)=O)c6N)C5)cc(OC)c4C)C3)ccc2CC1C(=O)NC1CCCc2ccccc21)C(C)(C)C

> <Shape>
0.285

> <Color>
0.077

> <Negative vol penalty>
0.000

$$$$

  -OEChem-04042323073D

 84 92  0     1  0  0  0  0  0999 V2000
  -30.5208  -35.7786   23.6444 C   0  0  0  0  0  0  0  0  0  0  0  0
  -30.4622  -34.4357   23.2856 C   0  0  0  0  0  0  0  0  0  0  0  0
  -23.9919   -9.3880   21.3568 C   0  0  0  0  0  0  0  0  0  0  0  0
  -24.6062  -10.4288   23.4488 C   0  0  0  0  0  0  0  0  0  0  0  0
  -29.3991  -36.4031   24.1883 C   0  0  0  0  0  0  0  0  0  0  0  0
  -29.2822  -33.7164   23.4715 C   0  0  0  0  0  0  0  0  0  0  0  0
  -27.0998  -29.2393   19.9080 C   0  0  0  0  0  0  0  0  0  0  0  0
  -31.1864  -19.8955   21.3704 C   0  0  0  0  0  0  0  0  0  0  0  0
  -30.8833  -18.6237   20.8845 C   0  0  0  0  0  0  0  0  0  0  0  0
  -23.5446   -8.2622   22.0482 C   0  0  0  0  0  0  0  0  0  0  0  0
  -24.1588   -9.3030   24.1403 C   0  0  0  0  0  0  0  0  0  0  0  0
  -27.1512  -27.8498   20.0103 C   0  0  0  0  0  0  0  0  0  0  0  0
  -20.8139   -7.3499   23.8213 C   0  0  0  0  0  0  0  0  0  0  0  0
  -19.5861   -6.8044   23.4464 C   0  0  0  0  0  0  0  0  0  0  0  0
  -24.9676  -27.8505   21.0354 C   0  0  0  0  0  0  0  0  0  0  0  0
  -28.5298  -19.0585   21.2150 C   0  0  0  0  0  0  0  0  0  0  0  0
  -20.6772   -4.7159   22.9124 C   0  0  0  0  0  0  0  0  0  0  0  0
  -24.5228  -10.4713   22.0571 C   0  0  0  0  0  0  0  0  0  0  0  0
  -24.2348  -12.7737   20.9971 C   0  0  0  0  0  0  0  0  0  0  0  0
  -28.2019  -35.6936   24.3720 C   0  0  0  0  0  0  0  0  0  0  0  0
  -25.9847  -29.9469   20.3794 C   0  0  0  0  0  0  0  0  0  0  0  0
  -28.1439  -34.3317   24.0196 C   0  0  0  0  0  0  0  0  0  0  0  0
  -24.9034  -29.2487   20.9356 C   0  0  0  0  0  0  0  0  0  0  0  0
  -30.1613  -20.7489   21.7787 C   0  0  0  0  0  0  0  0  0  0  0  0
  -29.5550  -18.2052   20.8068 C   0  0  0  0  0  0  0  0  0  0  0  0
  -23.6280   -8.2197   23.4400 C   0  0  0  0  0  0  0  0  0  0  0  0
  -26.0862  -27.1554   20.5766 C   0  0  0  0  0  0  0  0  0  0  0  0
  -21.9733   -6.5785   23.7417 C   0  0  0  0  0  0  0  0  0  0  0  0
  -19.5178   -5.4874   22.9920 C   0  0  0  0  0  0  0  0  0  0  0  0
  -21.9050   -5.2616   23.2872 C   0  0  0  0  0  0  0  0  0  0  0  0
  -28.8330  -20.3303   21.7010 C   0  0  0  0  0  0  0  0  0  0  0  0
  -24.9855  -11.6343   21.3434 C   0  0  0  0  0  0  0  0  0  0  0  0
  -25.1249  -13.5829   20.3342 C   0  0  0  0  0  0  0  0  0  0  0  0
  -27.3060  -23.9453   21.6275 C   0  0  0  0  0  0  0  0  0  0  0  0
  -27.6905  -22.7489   21.1688 C   0  0  0  0  0  0  0  0  0  0  0  0
  -22.8562  -13.0739   21.2521 C   0  0  0  0  0  0  0  0  0  0  0  0
  -25.5098  -32.1511   22.6198 C   0  0  0  0  0  0  0  0  0  0  0  0
  -22.5095  -32.1971   21.3877 C   0  0  0  0  0  0  0  0  0  0  0  0
  -20.0616  -30.5632   19.6599 C   0  0  0  0  0  0  0  0  0  0  0  0
  -30.1456  -15.9442   19.8657 C   0  0  0  0  0  0  0  0  0  0  0  0
  -27.0301  -36.3991   25.0075 C   0  0  0  0  0  0  0  0  0  0  0  0
  -25.9332  -31.4434   20.2374 C   0  0  0  0  0  0  0  0  0  0  0  0
  -23.6745  -29.9598   21.4382 C   0  0  0  0  0  0  0  0  0  0  0  0
  -25.7045  -35.6645   24.8244 C   0  0  0  0  0  0  0  0  0  0  0  0
  -29.7879  -12.6319   18.6096 C   0  0  0  0  0  0  0  0  0  0  0  0
  -25.8691  -34.1805   25.1367 C   0  0  0  0  0  0  0  0  0  0  0  0
  -28.4448  -12.1708   19.1804 C   0  0  0  0  0  0  0  0  0  0  0  0
  -30.5542  -13.5076   19.5994 C   0  0  0  0  0  0  0  0  0  0  0  0
  -28.4581  -14.1910   20.6988 C   0  0  0  0  0  0  0  0  0  0  0  0
  -26.8745  -33.5242   24.1829 C   0  0  1  0  0  0  0  0  0  0  0  0
  -24.9696  -32.1039   21.2186 C   0  0  1  0  0  0  0  0  0  0  0  0
  -27.6210  -13.3595   19.7132 C   0  0  2  0  0  0  0  0  0  0  0  0
  -30.5200  -22.1044   22.2936 C   0  0  0  0  0  0  0  0  0  0  0  0
  -17.7053  -30.8425   18.8432 C   0  0  0  0  0  0  0  0  0  0  0  0
  -21.4745  -31.7210   24.2183 C   0  0  0  0  0  0  0  0  0  0  0  0
  -19.2693  -31.0699   23.2277 C   0  0  0  0  0  0  0  0  0  0  0  0
  -20.1538  -33.3777   22.8896 C   0  0  0  0  0  0  0  0  0  0  0  0
  -20.8843  -30.2726   16.8319 C   0  0  0  0  0  0  0  0  0  0  0  0
  -27.4223  -25.2043   20.8295 C   0  0  0  0  0  0  0  0  0  1  0  0
  -21.2291  -31.4461   21.6629 C   0  0  1  0  0  0  0  0  0  0  0  0
  -19.1794  -31.0022   18.5051 C   0  0  2  0  0  0  0  0  0  0  0  0
  -20.5555  -31.8902   22.9920 C   0  0  0  0  0  0  0  0  0  0  0  0
  -26.2548  -11.7090   20.9341 N   0  0  0  0  0  0  0  0  0  0  0  0
  -27.8194  -21.6577   23.7159 N   0  0  0  0  0  0  0  0  0  0  0  0
  -26.3084  -12.9052   20.3238 N   0  0  0  0  0  0  0  0  0  0  0  0
  -23.6743  -31.4239   21.2830 N   0  0  0  0  0  0  0  0  0  0  0  0
  -29.7126  -14.6152   20.0577 N   0  0  0  0  0  0  0  0  0  0  0  0
  -25.0028  -14.8008   19.7649 N   0  0  0  0  0  0  0  0  0  0  0  0
  -22.0846  -12.1321   21.9463 N   0  0  0  0  0  0  0  0  0  0  0  0
  -29.2478  -16.9133   20.3123 N   0  0  0  0  0  0  0  0  0  0  0  0
  -26.2623  -33.2770   22.8951 N   0  0  0  0  0  0  0  0  0  0  0  0
  -20.3916  -31.6206   20.4811 N   0  0  0  0  0  0  0  0  0  0  0  0
  -19.4737  -30.1901   17.2907 N   0  3  0  0  0  0  0  0  0  0  0  0
  -22.3201  -14.1384   20.8610 O   0  0  0  0  0  0  0  0  0  0  0  0
  -25.2611  -31.2347   23.3945 O   0  0  0  0  0  0  0  0  0  0  0  0
  -22.4761  -33.4239   21.2630 O   0  0  0  0  0  0  0  0  0  0  0  0
  -20.4191  -29.3982   19.8196 O   0  0  0  0  0  0  0  0  0  0  0  0
  -31.2206  -16.2040   19.3189 O   0  0  0  0  0  0  0  0  0  0  0  0
  -26.2764  -20.7166   21.7837 O   0  0  0  0  0  0  0  0  0  0  0  0
  -23.1914   -7.1214   24.1150 O   0  0  0  0  0  0  0  0  0  0  0  0
  -26.1341  -25.7992   20.6782 O   0  0  0  0  0  0  0  0  0  1  0  0
  -18.3385   -4.9631   22.6334 F   0  0  0  0  0  0  0  0  0  0  0  0
  -23.0153   -4.5152   23.2097 F   0  0  0  0  0  0  0  0  0  0  0  0
  -27.4949  -21.3980   22.2140 S   0  0  2  0  0  0  0  0  0  0  0  0
  1  2  1  0  0  0  0
  1  5  2  0  0  0  0
  2  6  2  0  0  0  0
  3 10  2  0  0  0  0
  3 18  1  0  0  0  0
  4 11  1  0  0  0  0
  4 18  2  0  0  0  0
  5 20  1  0  0  0  0
  6 22  1  0  0  0  0
  7 12  2  0  0  0  0
  7 21  1  0  0  0  0
  8  9  2  0  0  0  0
  8 24  1  0  0  0  0
  9 25  1  0  0  0  0
 10 26  1  0  0  0  0
 11 26  2  0  0  0  0
 12 27  1  0  0  0  0
 13 14  2  0  0  0  0
 13 28  1  0  0  0  0
 14 29  1  0  0  0  0
 15 23  1  0  0  0  0
 15 27  2  0  0  0  0
 16 25  2  0  0  0  0
 16 31  1  0  0  0  0
 17 29  2  0  0  0  0
 17 30  1  0  0  0  0
 18 32  1  0  0  0  0
 19 32  1  0  0  0  0
 19 33  2  0  0  0  0
 19 36  1  0  0  0  0
 20 22  2  0  0  0  0
 20 41  1  0  0  0  0
 21 23  2  0  0  0  0
 21 42  1  0  0  0  0
 22 50  1  0  0  0  0
 23 43  1  0  0  0  0
 24 31  2  0  0  0  0
 24 53  1  0  0  0  0
 25 70  1  0  0  0  0
 26 80  1  0  0  0  0
 27 81  1  0  0  0  0
 28 30  2  0  0  0  0
 28 80  1  0  0  0  0
 29 82  1  0  0  0  0
 30 83  1  0  0  0  0
 31 84  1  0  0  0  0
 32 63  2  0  0  0  0
 33 65  1  0  0  0  0
 33 68  1  0  0  0  0
 34 35  2  0  0  0  0
 34 59  1  0  0  0  0
 35 84  1  0  0  0  0
 36 69  1  0  0  0  0
 36 74  2  0  0  0  0
 37 51  1  0  0  0  0
 37 71  1  0  0  0  0
 37 75  2  0  0  0  0
 38 60  1  0  0  0  0
 38 66  1  0  0  0  0
 38 76  2  0  0  0  0
 39 61  1  0  0  0  0
 39 72  1  0  0  0  0
 39 77  2  0  0  0  0
 40 67  1  0  0  0  0
 40 70  1  0  0  0  0
 40 78  2  0  0  0  0
 41 44  1  0  0  0  0
 42 51  1  0  0  0  0
 43 66  1  0  0  0  0
 44 46  1  0  0  0  0
 45 47  1  0  0  0  0
 45 48  1  0  0  0  0
 46 50  1  0  0  0  0
 47 52  1  0  0  0  0
 48 67  1  0  0  0  0
 49 52  1  0  0  0  0
 49 67  1  0  0  0  0
 50 71  1  0  0  0  0
 51 66  1  0  0  0  0
 52 65  1  0  0  0  0
 54 61  1  0  0  0  0
 55 62  1  0  0  0  0
 56 62  1  0  0  0  0
 57 62  1  0  0  0  0
 58 73  1  0  0  0  0
 59 81  1  0  0  0  0
 60 62  1  0  0  0  0
 60 72  1  0  0  0  0
 61 73  1  0  0  0  0
 63 65  1  0  0  0  0
 64 84  2  0  0  0  0
 79 84  2  0  0  0  0
M  CHG  1  73   1
M  ISO  4  40 100  59 101  70 100  81 101
M  END
> <Batch ID>
0061

> <Smiles>
CNC(C)C(=O)NC(C(=O)N1Cc2cc([101O:1][101CH2:1]C=CS(=N)(=O)c3cc([100NH:0][100C:0](=O)N4CCCC(n5nc(-c6ccc(Oc7ccc(F)cc7F)cc6)c(C(N)=O)c5N)C4)ccc3C)ccc2CC1C(=O)NC1CCCc2ccccc21)C(C)(C)C

> <Shape>
0.296

> <Color>
0.140

> <Negative vol penalty>
0.000

$$$$

  -OEChem-04042323073D

 84 92  0     1  0  0  0  0  0999 V2000
  -32.7276  -19.1908   14.6421 C   0  0  0  0  0  0  0  0  0  0  0  0
  -31.7665  -19.3102   15.6407 C   0  0  0  0  0  0  0  0  0  0  0  0
  -23.0745   -9.8673   19.9438 C   0  0  0  0  0  0  0  0  0  0  0  0
  -23.8314   -9.8794   22.2381 C   0  0  0  0  0  0  0  0  0  0  0  0
  -34.0451  -19.5703   14.8952 C   0  0  0  0  0  0  0  0  0  0  0  0
  -32.1226  -19.8083   16.8935 C   0  0  0  0  0  0  0  0  0  0  0  0
  -28.6801  -23.2656   20.5952 C   0  0  0  0  0  0  0  0  0  0  0  0
  -32.6477  -17.4974   23.4512 C   0  0  0  0  0  0  0  0  0  0  0  0
  -32.0607  -16.6114   22.5478 C   0  0  0  0  0  0  0  0  0  0  0  0
  -22.3299   -8.7150   20.1955 C   0  0  0  0  0  0  0  0  0  0  0  0
  -23.0867   -8.7272   22.4899 C   0  0  0  0  0  0  0  0  0  0  0  0
  -27.8955  -22.9571   21.7056 C   0  0  0  0  0  0  0  0  0  0  0  0
  -19.3794   -7.9230   21.6448 C   0  0  0  0  0  0  0  0  0  0  0  0
  -18.0731   -7.8760   21.1579 C   0  0  0  0  0  0  0  0  0  0  0  0
  -29.7287  -23.5484   23.1577 C   0  0  0  0  0  0  0  0  0  0  0  0
  -29.8764  -17.4623   23.1324 C   0  0  0  0  0  0  0  0  0  0  0  0
  -18.6339   -5.9296   19.8411 C   0  0  0  0  0  0  0  0  0  0  0  0
  -23.8253  -10.4495   20.9651 C   0  0  0  0  0  0  0  0  0  0  0  0
  -24.1682  -12.9742   20.8394 C   0  0  0  0  0  0  0  0  0  0  0  0
  -34.4156  -20.0823   16.1486 C   0  0  0  0  0  0  0  0  0  0  0  0
  -30.0008  -23.7083   20.7577 C   0  0  0  0  0  0  0  0  0  0  0  0
  -33.4466  -20.1938   17.1641 C   0  0  0  0  0  0  0  0  0  0  0  0
  -30.5272  -23.8644   22.0479 C   0  0  0  0  0  0  0  0  0  0  0  0
  -31.8490  -18.3658   24.1952 C   0  0  0  0  0  0  0  0  0  0  0  0
  -30.6751  -16.5939   22.3884 C   0  0  0  0  0  0  0  0  0  0  0  0
  -30.4634  -18.3483   24.0358 C   0  0  0  0  0  0  0  0  0  0  0  0
  -22.3359   -8.1450   21.4685 C   0  0  0  0  0  0  0  0  0  0  0  0
  -28.4207  -23.0957   22.9870 C   0  0  0  0  0  0  0  0  0  0  0  0
  -20.3130   -6.9732   21.2297 C   0  0  0  0  0  0  0  0  0  0  0  0
  -17.7003   -6.8794   20.2561 C   0  0  0  0  0  0  0  0  0  0  0  0
  -19.9402   -5.9766   20.3279 C   0  0  0  0  0  0  0  0  0  0  0  0
  -24.5952  -11.6394   20.7055 C   0  0  0  0  0  0  0  0  0  0  0  0
  -25.2611  -13.7224   20.4758 C   0  0  0  0  0  0  0  0  0  0  0  0
  -22.8974  -13.4915   21.2554 C   0  0  0  0  0  0  0  0  0  0  0  0
  -32.8566  -22.6100   19.8966 C   0  0  0  0  0  0  0  0  0  0  0  0
  -33.8767  -25.4462   21.0957 C   0  0  0  0  0  0  0  0  0  0  0  0
  -28.2487  -19.3224   24.7350 C   0  0  0  0  0  0  0  0  0  0  0  0
  -33.3119  -28.0737   23.1990 C   0  0  0  0  0  0  0  0  0  0  0  0
  -30.7275  -14.7664   20.6552 C   0  0  0  0  0  0  0  0  0  0  0  0
  -35.8619  -20.4350   16.3901 C   0  0  0  0  0  0  0  0  0  0  0  0
  -30.8253  -24.0625   19.5506 C   0  0  0  0  0  0  0  0  0  0  0  0
  -31.9325  -24.3553   22.2770 C   0  0  0  0  0  0  0  0  0  0  0  0
  -36.0787  -21.3044   17.6260 C   0  0  0  0  0  0  0  0  0  0  0  0
  -29.6153  -12.3473   18.2913 C   0  0  0  0  0  0  0  0  0  0  0  0
  -35.2957  -20.7506   18.8122 C   0  0  0  0  0  0  0  0  0  0  0  0
  -28.1750  -12.0573   18.7196 C   0  0  0  0  0  0  0  0  0  0  0  0
  -30.5289  -12.5786   19.4936 C   0  0  0  0  0  0  0  0  0  0  0  0
  -28.6204  -13.3071   20.8706 C   0  0  0  0  0  0  0  0  0  0  0  0
  -33.7888  -20.7529   18.5280 C   0  0  1  0  0  0  0  0  0  0  0  0
  -32.3266  -24.0137   19.8172 C   0  0  1  0  0  0  0  0  0  0  0  0
  -27.6491  -13.1314   19.6919 C   0  0  2  0  0  0  0  0  0  0  0  0
  -32.5050  -19.3041   25.1555 C   0  0  0  0  0  0  0  0  0  0  0  0
  -34.3427  -30.2205   23.9903 C   0  0  0  0  0  0  0  0  0  0  0  0
  -35.8205  -23.8674   22.8390 C   0  0  0  0  0  0  0  0  0  0  0  0
  -36.1197  -25.9193   24.2421 C   0  0  0  0  0  0  0  0  0  0  0  0
  -36.7746  -25.9499   21.8353 C   0  0  0  0  0  0  0  0  0  0  0  0
  -31.0407  -29.6748   22.1805 C   0  0  0  0  0  0  0  0  0  0  0  0
  -27.7586  -20.3914   25.7019 C   0  0  0  0  0  0  0  0  0  0  0  0
  -26.4716  -21.0616   25.2334 C   0  0  0  0  0  0  0  0  0  0  0  0
  -26.6639  -21.7834   23.9076 C   0  0  0  0  0  0  0  0  0  1  0  0
  -34.3229  -25.9348   22.4526 C   0  0  1  0  0  0  0  0  0  0  0  0
  -33.4035  -29.5737   22.9841 C   0  0  2  0  0  0  0  0  0  0  0  0
  -35.7335  -25.4067   22.8382 C   0  0  0  0  0  0  0  0  0  0  0  0
  -25.8605  -11.5421   20.2891 N   0  0  0  0  0  0  0  0  0  0  0  0
  -26.2381  -12.8253   20.1582 N   0  0  0  0  0  0  0  0  0  0  0  0
  -32.7011  -24.6828   21.0647 N   0  0  0  0  0  0  0  0  0  0  0  0
  -29.9692  -13.6118   20.3677 N   0  0  0  0  0  0  0  0  0  0  0  0
  -25.4721  -15.0536   20.3999 N   0  0  0  0  0  0  0  0  0  0  0  0
  -21.8847  -12.5835   21.5936 N   0  0  0  0  0  0  0  0  0  0  0  0
  -29.6363  -19.2215   24.7817 N   0  0  0  0  0  0  0  0  0  0  0  0
  -30.0794  -15.6936   21.4705 N   0  0  0  0  0  0  0  0  0  0  0  0
  -33.2480  -22.0867   18.6790 N   0  0  0  0  0  0  0  0  0  0  0  0
  -34.2185  -27.3895   22.4173 N   0  0  0  0  0  0  0  0  0  0  0  0
  -32.0589  -30.2004   23.1261 N   0  3  0  0  0  0  0  0  0  0  0  0
  -22.6615  -14.7223   21.3095 O   0  0  0  0  0  0  0  0  0  0  0  0
  -32.9082  -22.0442   20.9823 O   0  0  0  0  0  0  0  0  0  0  0  0
  -34.5427  -25.7374   20.0991 O   0  0  0  0  0  0  0  0  0  0  0  0
  -27.4774  -18.6728   24.0370 O   0  0  0  0  0  0  0  0  0  0  0  0
  -32.5182  -27.5606   23.9846 O   0  0  0  0  0  0  0  0  0  0  0  0
  -31.8573  -14.9335   20.1887 O   0  0  0  0  0  0  0  0  0  0  0  0
  -21.6092   -7.0207   21.7146 O   0  0  0  0  0  0  0  0  0  0  0  0
  -27.6572  -22.7946   24.0725 O   0  0  0  0  0  0  0  0  0  1  0  0
  -16.4455   -6.8335   19.7898 F   0  0  0  0  0  0  0  0  0  0  0  0
  -20.8323   -5.0607   19.9265 F   0  0  0  0  0  0  0  0  0  0  0  0
  1  2  1  0  0  0  0
  1  5  2  0  0  0  0
  2  6  2  0  0  0  0
  3 10  2  0  0  0  0
  3 18  1  0  0  0  0
  4 11  1  0  0  0  0
  4 18  2  0  0  0  0
  5 20  1  0  0  0  0
  6 22  1  0  0  0  0
  7 12  2  0  0  0  0
  7 21  1  0  0  0  0
  8  9  2  0  0  0  0
  8 24  1  0  0  0  0
  9 25  1  0  0  0  0
 10 27  1  0  0  0  0
 11 27  2  0  0  0  0
 12 28  1  0  0  0  0
 13 14  2  0  0  0  0
 13 29  1  0  0  0  0
 14 30  1  0  0  0  0
 15 23  1  0  0  0  0
 15 28  2  0  0  0  0
 16 25  2  0  0  0  0
 16 26  1  0  0  0  0
 17 30  2  0  0  0  0
 17 31  1  0  0  0  0
 18 32  1  0  0  0  0
 19 32  1  0  0  0  0
 19 33  2  0  0  0  0
 19 34  1  0  0  0  0
 20 22  2  0  0  0  0
 20 40  1  0  0  0  0
 21 23  2  0  0  0  0
 21 41  1  0  0  0  0
 22 49  1  0  0  0  0
 23 42  1  0  0  0  0
 24 26  2  0  0  0  0
 24 52  1  0  0  0  0
 25 71  1  0  0  0  0
 26 70  1  0  0  0  0
 27 81  1  0  0  0  0
 28 82  1  0  0  0  0
 29 31  2  0  0  0  0
 29 81  1  0  0  0  0
 30 83  1  0  0  0  0
 31 84  1  0  0  0  0
 32 64  2  0  0  0  0
 33 65  1  0  0  0  0
 33 68  1  0  0  0  0
 34 69  1  0  0  0  0
 34 75  2  0  0  0  0
 35 50  1  0  0  0  0
 35 72  1  0  0  0  0
 35 76  2  0  0  0  0
 36 61  1  0  0  0  0
 36 66  1  0  0  0  0
 36 77  2  0  0  0  0
 37 58  1  0  0  0  0
 37 70  1  0  0  0  0
 37 78  2  0  0  0  0
 38 62  1  0  0  0  0
 38 73  1  0  0  0  0
 38 79  2  0  0  0  0
 39 67  1  0  0  0  0
 39 71  1  0  0  0  0
 39 80  2  0  0  0  0
 40 43  1  0  0  0  0
 41 50  1  0  0  0  0
 42 66  1  0  0  0  0
 43 45  1  0  0  0  0
 44 46  1  0  0  0  0
 44 47  1  0  0  0  0
 45 49  1  0  0  0  0
 46 51  1  0  0  0  0
 47 67  1  0  0  0  0
 48 51  1  0  0  0  0
 48 67  1  0  0  0  0
 49 72  1  0  0  0  0
 50 66  1  0  0  0  0
 51 65  1  0  0  0  0
 53 62  1  0  0  0  0
 54 63  1  0  0  0  0
 55 63  1  0  0  0  0
 56 63  1  0  0  0  0
 57 74  1  0  0  0  0
 58 59  1  0  0  0  0
 59 60  1  0  0  0  0
 60 82  1  0  0  0  0
 61 63  1  0  0  0  0
 61 73  1  0  0  0  0
 62 74  1  0  0  0  0
 64 65  1  0  0  0  0
M  CHG  1  74   1
M  ISO  4  39 100  60 101  71 100  82 101
M  END
> <Batch ID>
0061

> <Smiles>
CNC(C)C(=O)NC(C(=O)N1Cc2cc([101O:1][101CH2:1]CCC(=O)Nc3cc([100NH:0][100C:0](=O)N4CCCC(n5nc(-c6ccc(Oc7ccc(F)cc7F)cc6)c(C(N)=O)c5N)C4)ccc3C)ccc2CC1C(=O)NC1CCCc2ccccc21)C(C)(C)C

> <Shape>
0.170

> <Color>
0.191

> <Negative vol penalty>
0.000

$$$$

  -OEChem-04042323073D

 87 96  0     1  0  0  0  0  0999 V2000
  -18.6469  -31.1909   24.2348 C   0  0  0  0  0  0  0  0  0  0  0  0
  -20.0248  -31.0556   24.0996 C   0  0  0  0  0  0  0  0  0  0  0  0
  -27.5426  -13.3011   22.5540 C   0  0  0  0  0  0  0  0  0  0  0  0
  -26.9386  -12.9549   20.2405 C   0  0  0  0  0  0  0  0  0  0  0  0
  -17.8028  -30.1592   23.8260 C   0  0  0  0  0  0  0  0  0  0  0  0
  -20.5596  -29.8879   23.5566 C   0  0  0  0  0  0  0  0  0  0  0  0
  -25.5519  -29.4130   20.0411 C   0  0  0  0  0  0  0  0  0  0  0  0
  -26.9765  -12.0703   22.8860 C   0  0  0  0  0  0  0  0  0  0  0  0
  -26.3725  -11.7240   20.5725 C   0  0  0  0  0  0  0  0  0  0  0  0
  -26.8708  -29.0636   20.3274 C   0  0  0  0  0  0  0  0  0  0  0  0
  -23.5027  -10.5943   21.9578 C   0  0  0  0  0  0  0  0  0  0  0  0
  -22.2528  -10.2894   21.4190 C   0  0  0  0  0  0  0  0  0  0  0  0
  -26.4074  -26.7920   19.6606 C   0  0  0  0  0  0  0  0  0  0  0  0
  -31.5603  -23.2729   15.9774 C   0  0  0  0  0  0  0  0  0  0  0  0
  -30.4316  -21.1392   16.0782 C   0  0  0  0  0  0  0  0  0  0  0  0
  -29.5217  -23.0438   17.2537 C   0  0  0  0  0  0  0  0  0  0  0  0
  -23.1955   -8.3498   20.3297 C   0  0  0  0  0  0  0  0  0  0  0  0
  -27.5236  -13.7434   21.2312 C   0  0  0  0  0  0  0  0  0  0  0  0
  -29.4390  -15.2627   20.5028 C   0  0  0  0  0  0  0  0  0  0  0  0
  -18.3270  -28.9823   23.2687 C   0  0  0  0  0  0  0  0  0  0  0  0
  -24.6463  -28.4505   19.5720 C   0  0  0  0  0  0  0  0  0  0  0  0
  -19.7219  -28.8389   23.1411 C   0  0  0  0  0  0  0  0  0  0  0  0
  -25.0782  -27.1323   19.3667 C   0  0  0  0  0  0  0  0  0  0  0  0
  -31.4873  -21.9269   15.6193 C   0  0  0  0  0  0  0  0  0  0  0  0
  -30.5775  -23.8314   16.7947 C   0  0  0  0  0  0  0  0  0  0  0  0
  -29.4487  -21.6977   16.8955 C   0  0  0  0  0  0  0  0  0  0  0  0
  -26.3915  -11.2817   21.8953 C   0  0  0  0  0  0  0  0  0  0  0  0
  -27.2981  -27.7523   20.1399 C   0  0  0  0  0  0  0  0  0  0  0  0
  -24.5991   -9.7770   21.6825 C   0  0  0  0  0  0  0  0  0  0  0  0
  -22.0991   -9.1672   20.6050 C   0  0  0  0  0  0  0  0  0  0  0  0
  -24.4454   -8.6547   20.8685 C   0  0  0  0  0  0  0  0  0  0  0  0
  -28.1077  -15.0150   20.8877 C   0  0  0  0  0  0  0  0  0  0  0  0
  -29.4873  -16.6182   20.2865 C   0  0  0  0  0  0  0  0  0  0  0  0
  -30.8014  -26.9902   18.6040 C   0  0  0  0  0  0  0  0  0  0  0  0
  -30.7402  -25.6547   18.4710 C   0  0  0  0  0  0  0  0  0  0  0  0
  -30.6058  -26.2239   16.1981 C   0  0  0  0  0  0  0  0  0  0  0  0
  -30.5340  -14.3493   20.3541 C   0  0  0  0  0  0  0  0  0  0  0  0
  -21.9201  -27.2219   20.6500 C   0  0  0  0  0  0  0  0  0  0  0  0
  -21.8954  -25.7467   17.7611 C   0  0  0  0  0  0  0  0  0  0  0  0
  -23.6658  -24.6002   15.0782 C   0  0  0  0  0  0  0  0  0  0  0  0
  -27.3199  -21.2950   18.1809 C   0  0  0  0  0  0  0  0  0  0  0  0
  -17.3774  -27.8752   22.8849 C   0  0  0  0  0  0  0  0  0  0  0  0
  -23.2340  -28.8494   19.2425 C   0  0  0  0  0  0  0  0  0  0  0  0
  -24.1507  -26.0660   18.8459 C   0  0  0  0  0  0  0  0  0  0  0  0
  -18.0046  -26.8233   21.9736 C   0  0  0  0  0  0  0  0  0  0  0  0
  -26.1299  -20.2483   21.3692 C   0  0  0  0  0  0  0  0  0  0  0  0
  -19.3734  -26.4066   22.5024 C   0  0  0  0  0  0  0  0  0  0  0  0
  -26.6479  -18.8139   21.4965 C   0  0  0  0  0  0  0  0  0  0  0  0
  -25.7145  -20.5762   19.9361 C   0  0  0  0  0  0  0  0  0  0  0  0
  -27.2545  -18.8729   19.0438 C   0  0  0  0  0  0  0  0  0  0  0  0
  -20.3387  -27.5976   22.5338 C   0  0  1  0  0  0  0  0  0  0  0  0
  -22.2619  -27.6737   19.2583 C   0  0  1  0  0  0  0  0  0  0  0  0
  -27.7459  -18.5168   20.4564 C   0  0  2  0  0  0  0  0  0  0  0  0
  -32.5393  -21.3298   14.7464 C   0  0  0  0  0  0  0  0  0  0  0  0
  -23.3745  -23.4050   12.8910 C   0  0  0  0  0  0  0  0  0  0  0  0
  -21.5531  -23.1067   19.2522 C   0  0  0  0  0  0  0  0  0  0  0  0
  -22.2163  -21.9151   17.1525 C   0  0  0  0  0  0  0  0  0  0  0  0
  -20.1598  -23.3266   17.1870 C   0  0  0  0  0  0  0  0  0  0  0  0
  -24.7264  -26.9003   13.5474 C   0  0  0  0  0  0  0  0  0  0  0  0
  -30.9029  -27.7815   19.8662 C   0  0  0  0  0  0  0  0  0  0  0  0
  -29.5774  -28.4208   20.2574 C   0  0  0  0  0  0  0  0  0  1  0  0
  -22.4289  -24.4411   17.2228 C   0  0  1  0  0  0  0  0  0  0  0  0
  -23.4451  -24.7566   13.5845 C   0  0  2  0  0  0  0  0  0  0  0  0
  -21.6067  -23.2168   17.7153 C   0  0  0  0  0  0  0  0  0  0  0  0
  -27.3641  -16.1241   20.9154 N   0  0  0  0  0  0  0  0  0  0  0  0
  -28.2310  -17.0820   20.5452 N   0  0  0  0  0  0  0  0  0  0  0  0
  -30.6514  -25.1855   17.1549 N   0  0  0  0  0  0  0  0  0  0  0  0
  -22.7779  -26.5041   18.5443 N   0  0  0  0  0  0  0  0  0  0  0  0
  -26.8056  -20.2735   19.0073 N   0  0  0  0  0  0  0  0  0  0  0  0
  -30.4814  -17.4468   19.9022 N   0  0  0  0  0  0  0  0  0  0  0  0
  -30.3111  -12.9907   20.6163 N   0  0  0  0  0  0  0  0  0  0  0  0
  -28.3770  -20.8973   17.3629 N   0  0  0  0  0  0  0  0  0  0  0  0
  -20.8383  -27.8785   21.2049 N   0  0  0  0  0  0  0  0  0  0  0  0
  -22.4742  -24.5859   15.7718 N   0  0  0  0  0  0  0  0  0  0  0  0
  -24.5574  -25.5396   12.9757 N   0  3  0  0  0  0  0  0  0  0  0  0
  -31.6805  -14.7290   20.0149 O   0  0  0  0  0  0  0  0  0  0  0  0
  -22.5875  -26.3416   21.1804 O   0  0  0  0  0  0  0  0  0  0  0  0
  -20.7405  -26.0855   17.4906 O   0  0  0  0  0  0  0  0  0  0  0  0
  -24.7833  -24.4970   15.5793 O   0  0  0  0  0  0  0  0  0  0  0  0
  -26.8747  -22.4450   18.2172 O   0  0  0  0  0  0  0  0  0  0  0  0
  -30.7657  -24.7825   19.5303 O   0  0  0  0  0  0  0  0  0  0  0  0
  -25.8392  -10.0806   22.2188 O   0  0  0  0  0  0  0  0  0  0  0  0
  -28.5848  -27.4084   20.4191 O   0  0  0  0  0  0  0  0  0  1  0  0
  -20.8984   -8.8736   20.0889 F   0  0  0  0  0  0  0  0  0  0  0  0
  -25.4947   -7.8651   20.6015 F   0  0  0  0  0  0  0  0  0  0  0  0
  -30.4567  -26.1060   14.5388 S   0  0  0  0  0  0  0  0  0  0  0  0
  -30.7576  -27.7773   17.0538 S   0  0  0  0  0  0  0  0  0  0  0  0
  1  2  1  0  0  0  0
  1  5  2  0  0  0  0
  2  6  2  0  0  0  0
  3  8  2  0  0  0  0
  3 18  1  0  0  0  0
  4  9  1  0  0  0  0
  4 18  2  0  0  0  0
  5 20  1  0  0  0  0
  6 22  1  0  0  0  0
  7 10  2  0  0  0  0
  7 21  1  0  0  0  0
  8 27  1  0  0  0  0
  9 27  2  0  0  0  0
 10 28  1  0  0  0  0
 11 12  2  0  0  0  0
 11 29  1  0  0  0  0
 12 30  1  0  0  0  0
 13 23  1  0  0  0  0
 13 28  2  0  0  0  0
 14 24  2  0  0  0  0
 14 25  1  0  0  0  0
 15 24  1  0  0  0  0
 15 26  2  0  0  0  0
 16 25  2  0  0  0  0
 16 26  1  0  0  0  0
 17 30  2  0  0  0  0
 17 31  1  0  0  0  0
 18 32  1  0  0  0  0
 19 32  1  0  0  0  0
 19 33  2  0  0  0  0
 19 37  1  0  0  0  0
 20 22  2  0  0  0  0
 20 42  1  0  0  0  0
 21 23  2  0  0  0  0
 21 43  1  0  0  0  0
 22 51  1  0  0  0  0
 23 44  1  0  0  0  0
 24 54  1  0  0  0  0
 25 67  1  0  0  0  0
 26 72  1  0  0  0  0
 27 82  1  0  0  0  0
 28 83  1  0  0  0  0
 29 31  2  0  0  0  0
 29 82  1  0  0  0  0
 30 84  1  0  0  0  0
 31 85  1  0  0  0  0
 32 65  2  0  0  0  0
 33 66  1  0  0  0  0
 33 70  1  0  0  0  0
 34 35  2  0  0  0  0
 34 60  1  0  0  0  0
 34 87  1  0  0  0  0
 35 67  1  0  0  0  0
 35 81  1  0  0  0  0
 36 67  1  0  0  0  0
 36 86  2  0  0  0  0
 36 87  1  0  0  0  0
 37 71  1  0  0  0  0
 37 76  2  0  0  0  0
 38 52  1  0  0  0  0
 38 73  1  0  0  0  0
 38 77  2  0  0  0  0
 39 62  1  0  0  0  0
 39 68  1  0  0  0  0
 39 78  2  0  0  0  0
 40 63  1  0  0  0  0
 40 74  1  0  0  0  0
 40 79  2  0  0  0  0
 41 69  1  0  0  0  0
 41 72  1  0  0  0  0
 41 80  2  0  0  0  0
 42 45  1  0  0  0  0
 43 52  1  0  0  0  0
 44 68  1  0  0  0  0
 45 47  1  0  0  0  0
 46 48  1  0  0  0  0
 46 49  1  0  0  0  0
 47 51  1  0  0  0  0
 48 53  1  0  0  0  0
 49 69  1  0  0  0  0
 50 53  1  0  0  0  0
 50 69  1  0  0  0  0
 51 73  1  0  0  0  0
 52 68  1  0  0  0  0
 53 66  1  0  0  0  0
 55 63  1  0  0  0  0
 56 64  1  0  0  0  0
 57 64  1  0  0  0  0
 58 64  1  0  0  0  0
 59 75  1  0  0  0  0
 60 61  1  0  0  0  0
 61 83  1  0  0  0  0
 62 64  1  0  0  0  0
 62 74  1  0  0  0  0
 63 75  1  0  0  0  0
 65 66  1  0  0  0  0
M  CHG  1  75   1
M  ISO  4  41 100  61 101  72 100  83 101
M  END
> <Batch ID>
0061

> <Smiles>
CNC(C)C(=O)NC(C(=O)N1Cc2cc([101O:1][101CH2:1]CC3SC(=S)N(c4cc(C)cc([100NH:0][100C:0](=O)N5CCCC(n6nc(-c7ccc(Oc8ccc(F)cc8F)cc7)c(C(N)=O)c6N)C5)c4)C3=O)ccc2CC1C(=O)NC1CCCc2ccccc21)C(C)(C)C

> <Shape>
0.267

> <Color>
0.114

> <Negative vol penalty>
0.000

$$$$

  -OEChem-04042323073D

 90 99  0     1  0  0  0  0  0999 V2000
  -28.6344  -33.9827   26.4667 C   0  0  0  0  0  0  0  0  0  0  0  0
  -28.5793  -32.7335   25.8568 C   0  0  0  0  0  0  0  0  0  0  0  0
  -22.8349   -9.5996   19.9572 C   0  0  0  0  0  0  0  0  0  0  0  0
  -24.5674   -8.7513   21.4119 C   0  0  0  0  0  0  0  0  0  0  0  0
  -27.4662  -34.7229   26.6437 C   0  0  0  0  0  0  0  0  0  0  0  0
  -27.3556  -32.2234   25.4244 C   0  0  0  0  0  0  0  0  0  0  0  0
  -27.6272  -30.1833   20.7974 C   0  0  0  0  0  0  0  0  0  0  0  0
  -21.8627   -9.0867   20.8159 C   0  0  0  0  0  0  0  0  0  0  0  0
  -23.5951   -8.2385   22.2707 C   0  0  0  0  0  0  0  0  0  0  0  0
  -28.1861  -28.9102   20.6946 C   0  0  0  0  0  0  0  0  0  0  0  0
  -21.5498   -5.5492   22.3956 C   0  0  0  0  0  0  0  0  0  0  0  0
  -21.7281   -4.2516   22.8751 C   0  0  0  0  0  0  0  0  0  0  0  0
  -25.9739  -27.9547   20.5828 C   0  0  0  0  0  0  0  0  0  0  0  0
  -30.6756  -19.9962   20.0919 C   0  0  0  0  0  0  0  0  0  0  0  0
  -28.2742  -18.5792   20.0015 C   0  0  0  0  0  0  0  0  0  0  0  0
  -21.7509   -5.0917   25.1402 C   0  0  0  0  0  0  0  0  0  0  0  0
  -24.1873   -9.4319   20.2552 C   0  0  0  0  0  0  0  0  0  0  0  0
  -25.3877   -9.6331   18.0133 C   0  0  0  0  0  0  0  0  0  0  0  0
  -26.2290  -34.2258   26.2046 C   0  0  0  0  0  0  0  0  0  0  0  0
  -26.2350  -30.3511   20.8046 C   0  0  0  0  0  0  0  0  0  0  0  0
  -26.1696  -32.9571   25.5969 C   0  0  0  0  0  0  0  0  0  0  0  0
  -25.3999  -29.2312   20.6832 C   0  0  0  0  0  0  0  0  0  0  0  0
  -30.6898  -18.6023   20.0420 C   0  0  0  0  0  0  0  0  0  0  0  0
  -29.4608  -20.6816   20.0967 C   0  0  0  0  0  0  0  0  0  0  0  0
  -29.4891  -17.8938   19.9968 C   0  0  0  0  0  0  0  0  0  0  0  0
  -22.2428   -8.4062   21.9726 C   0  0  0  0  0  0  0  0  0  0  0  0
  -27.3594  -27.7954   20.5902 C   0  0  0  0  0  0  0  0  0  0  0  0
  -21.4722   -6.6181   23.2884 C   0  0  0  0  0  0  0  0  0  0  0  0
  -21.8286   -4.0228   24.2474 C   0  0  0  0  0  0  0  0  0  0  0  0
  -21.5727   -6.3893   24.6607 C   0  0  0  0  0  0  0  0  0  0  0  0
  -28.2601  -19.9731   20.0515 C   0  0  0  0  0  0  0  0  0  0  0  0
  -25.1920   -9.9610   19.3683 C   0  0  0  0  0  0  0  0  0  0  0  0
  -26.4587  -10.4005   17.6255 C   0  0  0  0  0  0  0  0  0  0  0  0
  -29.5029  -22.8910   18.9694 C   0  0  0  0  0  0  0  0  0  0  0  0
  -24.6657   -8.7169   17.1796 C   0  0  0  0  0  0  0  0  0  0  0  0
  -24.1251  -31.5018   22.8848 C   0  0  0  0  0  0  0  0  0  0  0  0
  -22.0496  -31.0590   20.4315 C   0  0  0  0  0  0  0  0  0  0  0  0
  -21.2914  -29.4139   17.5392 C   0  0  0  0  0  0  0  0  0  0  0  0
  -28.3739  -15.6288   19.8957 C   0  0  0  0  0  0  0  0  0  0  0  0
  -24.9866  -35.0417   26.4604 C   0  0  0  0  0  0  0  0  0  0  0  0
  -25.6481  -31.7334   20.8892 C   0  0  0  0  0  0  0  0  0  0  0  0
  -23.8993  -29.3592   20.6657 C   0  0  0  0  0  0  0  0  0  0  0  0
  -29.1978  -24.3711   19.1159 C   0  0  0  0  0  0  0  0  0  0  0  0
  -23.7826  -34.5928   25.6363 C   0  0  0  0  0  0  0  0  0  0  0  0
  -30.1572  -12.2403   20.1457 C   0  0  0  0  0  0  0  0  0  0  0  0
  -23.6352  -33.0755   25.6895 C   0  0  0  0  0  0  0  0  0  0  0  0
  -29.2979  -11.4297   19.1783 C   0  0  0  0  0  0  0  0  0  0  0  0
  -29.1953  -24.1934   21.5693 C   0  0  0  0  0  0  0  0  0  0  0  0
  -30.0826  -13.7367   19.8694 C   0  0  0  0  0  0  0  0  0  0  0  0
  -29.6722  -22.7531   21.4685 C   0  0  0  0  0  0  0  0  0  0  0  0
  -27.6285  -13.2573   19.8133 C   0  0  0  0  0  0  0  0  0  0  0  0
  -24.8647  -32.3805   25.0921 C   0  0  1  0  0  0  0  0  0  0  0  0
  -24.2121  -31.7423   21.4042 C   0  0  1  0  0  0  0  0  0  0  0  0
  -29.7328  -24.9943   20.3946 C   0  0  2  0  0  0  0  0  0  0  0  0
  -27.9598  -12.1159   18.8393 C   0  0  2  0  0  0  0  0  0  0  0  0
  -32.0058  -17.8947   20.0387 C   0  0  0  0  0  0  0  0  0  0  0  0
  -19.5084  -29.2385   15.7821 C   0  0  0  0  0  0  0  0  0  0  0  0
  -20.3191  -29.4391   22.3527 C   0  0  0  0  0  0  0  0  0  0  0  0
  -19.0983  -28.5212   20.3689 C   0  0  0  0  0  0  0  0  0  0  0  0
  -19.0457  -30.9703   20.8400 C   0  0  0  0  0  0  0  0  0  0  0  0
  -23.1486  -30.2782   15.4032 C   0  0  0  0  0  0  0  0  0  0  0  0
  -26.3562  -21.0638   18.3371 C   0  0  0  0  0  0  0  0  0  0  0  0
  -29.3265  -26.4619   20.4991 C   0  0  0  0  0  0  0  0  0  1  0  0
  -21.1733  -29.9219   19.9646 C   0  0  1  0  0  0  0  0  0  0  0  0
  -20.8063  -29.9170   16.1916 C   0  0  2  0  0  0  0  0  0  0  0  0
  -19.9373  -29.7102   20.8838 C   0  0  0  0  0  0  0  0  0  0  0  0
  -26.0686  -10.8660   19.8116 N   0  0  0  0  0  0  0  0  0  0  0  0
  -26.8255  -11.1134   18.7289 N   0  0  0  0  0  0  0  0  0  0  0  0
  -29.4756  -22.1280   20.1495 N   0  0  0  0  0  0  0  0  0  0  0  0
  -23.3734  -30.7313   20.7574 N   0  0  0  0  0  0  0  0  0  0  0  0
  -28.7061  -14.2526   19.8511 N   0  0  0  0  0  0  0  0  0  0  0  0
  -27.1132  -10.5283   16.4517 N   0  0  0  0  0  0  0  0  0  0  0  0
  -25.0972   -7.3847   17.1211 N   0  0  0  0  0  0  0  0  0  0  0  0
  -29.4829  -16.4774   19.9451 N   0  0  0  0  0  0  0  0  0  0  0  0
  -24.8172  -32.4241   23.6463 N   0  0  0  0  0  0  0  0  0  0  0  0
  -20.8411  -30.2075   18.5730 N   0  0  0  0  0  0  0  0  0  0  0  0
  -21.8283  -29.6499   15.1405 N   0  3  0  0  0  0  0  0  0  0  0  0
  -29.6940  -22.4478   17.8337 O   0  0  0  0  0  0  0  0  0  0  0  0
  -23.6775   -9.0728   16.4939 O   0  0  0  0  0  0  0  0  0  0  0  0
  -23.4766  -30.5509   23.3054 O   0  0  0  0  0  0  0  0  0  0  0  0
  -21.5791  -32.1974   20.4977 O   0  0  0  0  0  0  0  0  0  0  0  0
  -21.9960  -28.4145   17.6628 O   0  0  0  0  0  0  0  0  0  0  0  0
  -27.2027  -16.0134   19.8779 O   0  0  0  0  0  0  0  0  0  0  0  0
  -25.7226  -19.8738   20.5859 O   0  0  0  0  0  0  0  0  0  0  0  0
  -26.8861  -22.1067   20.6663 O   0  0  0  0  0  0  0  0  0  0  0  0
  -21.2944   -7.9058   22.8109 O   0  0  0  0  0  0  0  0  0  0  0  0
  -27.9023  -26.5515   20.4905 O   0  0  0  0  0  0  0  0  0  1  0  0
  -21.9983   -2.7764   24.7077 F   0  0  0  0  0  0  0  0  0  0  0  0
  -21.4976   -7.4121   25.5234 F   0  0  0  0  0  0  0  0  0  0  0  0
  -26.7144  -20.7968   20.0572 S   0  0  0  0  0  0  0  0  0  0  0  0
  1  2  1  0  0  0  0
  1  5  2  0  0  0  0
  2  6  2  0  0  0  0
  3  8  2  0  0  0  0
  3 17  1  0  0  0  0
  4  9  1  0  0  0  0
  4 17  2  0  0  0  0
  5 19  1  0  0  0  0
  6 21  1  0  0  0  0
  7 10  2  0  0  0  0
  7 20  1  0  0  0  0
  8 26  1  0  0  0  0
  9 26  2  0  0  0  0
 10 27  1  0  0  0  0
 11 12  2  0  0  0  0
 11 28  1  0  0  0  0
 12 29  1  0  0  0  0
 13 22  1  0  0  0  0
 13 27  2  0  0  0  0
 14 23  2  0  0  0  0
 14 24  1  0  0  0  0
 15 25  2  0  0  0  0
 15 31  1  0  0  0  0
 16 29  2  0  0  0  0
 16 30  1  0  0  0  0
 17 32  1  0  0  0  0
 18 32  1  0  0  0  0
 18 33  2  0  0  0  0
 18 35  1  0  0  0  0
 19 21  2  0  0  0  0
 19 40  1  0  0  0  0
 20 22  2  0  0  0  0
 20 41  1  0  0  0  0
 21 52  1  0  0  0  0
 22 42  1  0  0  0  0
 23 25  1  0  0  0  0
 23 56  1  0  0  0  0
 24 31  2  0  0  0  0
 24 69  1  0  0  0  0
 25 74  1  0  0  0  0
 26 86  1  0  0  0  0
 27 87  1  0  0  0  0
 28 30  2  0  0  0  0
 28 86  1  0  0  0  0
 29 88  1  0  0  0  0
 30 89  1  0  0  0  0
 31 90  1  0  0  0  0
 32 67  2  0  0  0  0
 33 68  1  0  0  0  0
 33 72  1  0  0  0  0
 34 43  1  0  0  0  0
 34 69  1  0  0  0  0
 34 78  2  0  0  0  0
 35 73  1  0  0  0  0
 35 79  2  0  0  0  0
 36 53  1  0  0  0  0
 36 75  1  0  0  0  0
 36 80  2  0  0  0  0
 37 64  1  0  0  0  0
 37 70  1  0  0  0  0
 37 81  2  0  0  0  0
 38 65  1  0  0  0  0
 38 76  1  0  0  0  0
 38 82  2  0  0  0  0
 39 71  1  0  0  0  0
 39 74  1  0  0  0  0
 39 83  2  0  0  0  0
 40 44  1  0  0  0  0
 41 53  1  0  0  0  0
 42 70  1  0  0  0  0
 43 54  1  0  0  0  0
 44 46  1  0  0  0  0
 45 47  1  0  0  0  0
 45 49  1  0  0  0  0
 46 52  1  0  0  0  0
 47 55  1  0  0  0  0
 48 50  1  0  0  0  0
 48 54  1  0  0  0  0
 49 71  1  0  0  0  0
 50 69  1  0  0  0  0
 51 55  1  0  0  0  0
 51 71  1  0  0  0  0
 52 75  1  0  0  0  0
 53 70  1  0  0  0  0
 54 63  1  0  0  0  0
 55 68  1  0  0  0  0
 57 65  1  0  0  0  0
 58 66  1  0  0  0  0
 59 66  1  0  0  0  0
 60 66  1  0  0  0  0
 61 77  1  0  0  0  0
 62 90  1  0  0  0  0
 63 87  1  0  0  0  0
 64 66  1  0  0  0  0
 64 76  1  0  0  0  0
 65 77  1  0  0  0  0
 67 68  1  0  0  0  0
 84 90  2  0  0  0  0
 85 90  2  0  0  0  0
M  CHG  1  77   1
M  ISO  4  39 100  63 101  74 100  87 101
M  END
> <Batch ID>
0061

> <Smiles>
CNC(C)C(=O)NC(C(=O)N1Cc2cc([101O:1][101CH2:1]C3CCN(c4cc(C)c([100NH:0][100C:0](=O)N5CCCC(n6nc(-c7ccc(Oc8ccc(F)cc8F)cc7)c(C(N)=O)c6N)C5)cc4S(C)(=O)=O)C(=O)C3)ccc2CC1C(=O)NC1CCCc2ccccc21)C(C)(C)C

> <Shape>
0.347

> <Color>
0.098

> <Negative vol penalty>
0.000

$$$$

  -OEChem-04042323073D

 87 96  0     1  0  0  0  0  0999 V2000
  -24.5220  -35.3748   23.5777 C   0  0  0  0  0  0  0  0  0  0  0  0
  -25.3091  -34.2595   23.3092 C   0  0  0  0  0  0  0  0  0  0  0  0
  -27.5554  -13.0595   22.6073 C   0  0  0  0  0  0  0  0  0  0  0  0
  -26.8861  -12.7607   20.3052 C   0  0  0  0  0  0  0  0  0  0  0  0
  -23.2092  -35.2105   24.0176 C   0  0  0  0  0  0  0  0  0  0  0  0
  -24.7841  -32.9792   23.4815 C   0  0  0  0  0  0  0  0  0  0  0  0
  -25.8947  -29.8891   19.6263 C   0  0  0  0  0  0  0  0  0  0  0  0
  -26.9682  -11.8379   22.9366 C   0  0  0  0  0  0  0  0  0  0  0  0
  -26.2989  -11.5391   20.6345 C   0  0  0  0  0  0  0  0  0  0  0  0
  -27.1799  -29.3498   19.5925 C   0  0  0  0  0  0  0  0  0  0  0  0
  -24.3098   -8.5121   20.9365 C   0  0  0  0  0  0  0  0  0  0  0  0
  -23.0415   -8.2429   20.4223 C   0  0  0  0  0  0  0  0  0  0  0  0
  -26.3328  -27.2888   20.5165 C   0  0  0  0  0  0  0  0  0  0  0  0
  -31.6450  -23.0303   16.0695 C   0  0  0  0  0  0  0  0  0  0  0  0
  -29.6338  -22.8271   17.3927 C   0  0  0  0  0  0  0  0  0  0  0  0
  -22.1678  -10.1875   21.5590 C   0  0  0  0  0  0  0  0  0  0  0  0
  -27.5143  -13.5210   21.2916 C   0  0  0  0  0  0  0  0  0  0  0  0
  -29.4471  -15.0046   20.5362 C   0  0  0  0  0  0  0  0  0  0  0  0
  -22.6647  -33.9276   24.1862 C   0  0  0  0  0  0  0  0  0  0  0  0
  -24.8190  -29.1349   20.1165 C   0  0  0  0  0  0  0  0  0  0  0  0
  -23.4632  -32.7976   23.9254 C   0  0  0  0  0  0  0  0  0  0  0  0
  -25.0345  -27.8200   20.5531 C   0  0  0  0  0  0  0  0  0  0  0  0
  -31.5337  -21.6914   15.6946 C   0  0  0  0  0  0  0  0  0  0  0  0
  -30.6951  -23.5982   16.9186 C   0  0  0  0  0  0  0  0  0  0  0  0
  -29.5225  -21.4882   17.0178 C   0  0  0  0  0  0  0  0  0  0  0  0
  -26.3400  -11.0777   21.9502 C   0  0  0  0  0  0  0  0  0  0  0  0
  -27.3996  -28.0504   20.0403 C   0  0  0  0  0  0  0  0  0  0  0  0
  -24.5072   -9.6190   21.7621 C   0  0  0  0  0  0  0  0  0  0  0  0
  -21.9705   -9.0805   20.7335 C   0  0  0  0  0  0  0  0  0  0  0  0
  -23.4362  -10.4567   22.0733 C   0  0  0  0  0  0  0  0  0  0  0  0
  -30.4724  -20.9204   16.1687 C   0  0  0  0  0  0  0  0  0  0  0  0
  -28.1202  -14.7831   20.9509 C   0  0  0  0  0  0  0  0  0  0  0  0
  -29.5226  -16.3615   20.3372 C   0  0  0  0  0  0  0  0  0  0  0  0
  -31.8176  -25.8711   16.9082 C   0  0  0  0  0  0  0  0  0  0  0  0
  -30.5158  -14.0676   20.3475 C   0  0  0  0  0  0  0  0  0  0  0  0
  -22.7866  -29.4391   22.5415 C   0  0  0  0  0  0  0  0  0  0  0  0
  -21.3927  -26.8403   21.1904 C   0  0  0  0  0  0  0  0  0  0  0  0
  -21.7148  -24.0839   19.2040 C   0  0  0  0  0  0  0  0  0  0  0  0
  -27.4170  -21.1179   18.3506 C   0  0  0  0  0  0  0  0  0  0  0  0
  -21.2559  -33.7998   24.7090 C   0  0  0  0  0  0  0  0  0  0  0  0
  -23.4341  -29.7218   20.1214 C   0  0  0  0  0  0  0  0  0  0  0  0
  -23.9099  -26.9615   21.0696 C   0  0  0  0  0  0  0  0  0  0  0  0
  -20.6548  -32.4112   24.5071 C   0  0  0  0  0  0  0  0  0  0  0  0
  -26.2814  -20.0545   21.5532 C   0  0  0  0  0  0  0  0  0  0  0  0
  -21.6482  -31.3331   24.9287 C   0  0  0  0  0  0  0  0  0  0  0  0
  -26.7677  -18.6065   21.6479 C   0  0  0  0  0  0  0  0  0  0  0  0
  -25.8387  -20.4125   20.1356 C   0  0  0  0  0  0  0  0  0  0  0  0
  -29.8138  -25.6220   18.1317 C   0  0  0  0  0  0  0  0  0  0  0  0
  -27.3147  -18.6860   19.1818 C   0  0  0  0  0  0  0  0  0  0  0  0
  -22.9216  -31.3926   24.0765 C   0  0  1  0  0  0  0  0  0  0  0  0
  -31.4366  -27.2354   17.4643 C   0  0  1  0  0  0  0  0  0  0  0  0
  -22.5013  -29.0438   21.1202 C   0  0  1  0  0  0  0  0  0  0  0  0
  -30.5098  -26.8819   18.6284 C   0  0  1  0  0  0  0  0  0  0  0  0
  -27.8322  -18.2983   20.5766 C   0  0  2  0  0  0  0  0  0  0  0  0
  -32.5510  -21.0880   14.7857 C   0  0  0  0  0  0  0  0  0  0  0  0
  -32.6477  -28.0525   17.8812 C   0  0  0  0  0  0  0  0  0  0  0  0
  -20.4111  -22.1317   18.3171 C   0  0  0  0  0  0  0  0  0  0  0  0
  -21.5900  -25.4751   23.9120 C   0  0  0  0  0  0  0  0  0  0  0  0
  -21.1786  -23.2872   22.7665 C   0  0  0  0  0  0  0  0  0  0  0  0
  -19.4405  -25.0752   22.6977 C   0  0  0  0  0  0  0  0  0  0  0  0
  -22.1216  -24.9378   16.3997 C   0  0  0  0  0  0  0  0  0  0  0  0
  -29.5296  -27.9888   18.9843 C   0  0  0  0  0  0  0  0  0  1  0  0
  -21.5520  -25.3459   21.3336 C   0  0  1  0  0  0  0  0  0  0  0  0
  -20.8636  -23.5609   18.0611 C   0  0  2  0  0  0  0  0  0  0  0  0
  -20.9620  -24.8124   22.6696 C   0  0  0  0  0  0  0  0  0  0  0  0
  -27.4043  -15.9091   21.0124 N   0  0  0  0  0  0  0  0  0  0  0  0
  -28.2847  -16.8512   20.6337 N   0  0  0  0  0  0  0  0  0  0  0  0
  -30.8090  -24.9684   17.3019 N   0  0  0  0  0  0  0  0  0  0  0  0
  -22.5750  -27.5826   21.0604 N   0  0  0  0  0  0  0  0  0  0  0  0
  -26.8988  -20.0973   19.1756 N   0  0  0  0  0  0  0  0  0  0  0  0
  -30.5266  -17.1717   19.9394 N   0  0  0  0  0  0  0  0  0  0  0  0
  -30.2668  -12.7111   20.5968 N   0  0  0  0  0  0  0  0  0  0  0  0
  -28.4436  -20.7069   17.5010 N   0  0  0  0  0  0  0  0  0  0  0  0
  -22.6892  -30.7970   22.7781 N   0  0  0  0  0  0  0  0  0  0  0  0
  -20.9568  -24.7556   20.1396 N   0  0  0  0  0  0  0  0  0  0  0  0
  -21.6347  -23.5885   16.7861 N   0  3  0  0  0  0  0  0  0  0  0  0
  -32.8002  -25.6864   16.2044 O   0  0  0  0  0  0  0  0  0  0  0  0
  -31.6623  -14.4249   19.9850 O   0  0  0  0  0  0  0  0  0  0  0  0
  -23.0724  -28.5758   23.3629 O   0  0  0  0  0  0  0  0  0  0  0  0
  -20.2606  -27.3301   21.1865 O   0  0  0  0  0  0  0  0  0  0  0  0
  -22.9302  -23.9105   19.2630 O   0  0  0  0  0  0  0  0  0  0  0  0
  -27.0007  -22.2775   18.4137 O   0  0  0  0  0  0  0  0  0  0  0  0
  -25.7671   -9.8854   22.2712 O   0  0  0  0  0  0  0  0  0  0  0  0
  -28.6532  -27.5218   20.0090 O   0  0  0  0  0  0  0  0  0  1  0  0
  -20.7529   -8.8227   20.2383 F   0  0  0  0  0  0  0  0  0  0  0  0
  -23.6198  -11.5223   22.8649 F   0  0  0  0  0  0  0  0  0  0  0  0
  -30.3677  -19.6327   15.8072 F   0  0  0  0  0  0  0  0  0  0  0  0
  1  2  1  0  0  0  0
  1  5  2  0  0  0  0
  2  6  2  0  0  0  0
  3  8  2  0  0  0  0
  3 17  1  0  0  0  0
  4  9  1  0  0  0  0
  4 17  2  0  0  0  0
  5 19  1  0  0  0  0
  6 21  1  0  0  0  0
  7 10  2  0  0  0  0
  7 20  1  0  0  0  0
  8 26  1  0  0  0  0
  9 26  2  0  0  0  0
 10 27  1  0  0  0  0
 11 12  2  0  0  0  0
 11 28  1  0  0  0  0
 12 29  1  0  0  0  0
 13 22  1  0  0  0  0
 13 27  2  0  0  0  0
 14 23  2  0  0  0  0
 14 24  1  0  0  0  0
 15 24  2  0  0  0  0
 15 25  1  0  0  0  0
 16 29  2  0  0  0  0
 16 30  1  0  0  0  0
 17 32  1  0  0  0  0
 18 32  1  0  0  0  0
 18 33  2  0  0  0  0
 18 35  1  0  0  0  0
 19 21  2  0  0  0  0
 19 40  1  0  0  0  0
 20 22  2  0  0  0  0
 20 41  1  0  0  0  0
 21 50  1  0  0  0  0
 22 42  1  0  0  0  0
 23 31  1  0  0  0  0
 23 55  1  0  0  0  0
 24 68  1  0  0  0  0
 25 31  2  0  0  0  0
 25 73  1  0  0  0  0
 26 83  1  0  0  0  0
 27 84  1  0  0  0  0
 28 30  2  0  0  0  0
 28 83  1  0  0  0  0
 29 85  1  0  0  0  0
 30 86  1  0  0  0  0
 31 87  1  0  0  0  0
 32 66  2  0  0  0  0
 33 67  1  0  0  0  0
 33 71  1  0  0  0  0
 34 51  1  0  0  0  0
 34 68  1  0  0  0  0
 34 77  2  0  0  0  0
 35 72  1  0  0  0  0
 35 78  2  0  0  0  0
 36 52  1  0  0  0  0
 36 74  1  0  0  0  0
 36 79  2  0  0  0  0
 37 63  1  0  0  0  0
 37 69  1  0  0  0  0
 37 80  2  0  0  0  0
 38 64  1  0  0  0  0
 38 75  1  0  0  0  0
 38 81  2  0  0  0  0
 39 70  1  0  0  0  0
 39 73  1  0  0  0  0
 39 82  2  0  0  0  0
 40 43  1  0  0  0  0
 41 52  1  0  0  0  0
 42 69  1  0  0  0  0
 43 45  1  0  0  0  0
 44 46  1  0  0  0  0
 44 47  1  0  0  0  0
 45 50  1  0  0  0  0
 46 54  1  0  0  0  0
 47 70  1  0  0  0  0
 48 53  1  0  0  0  0
 48 68  1  0  0  0  0
 49 54  1  0  0  0  0
 49 70  1  0  0  0  0
 50 74  1  0  0  0  0
 51 53  1  0  0  0  0
 51 56  1  0  0  0  0
 52 69  1  0  0  0  0
 53 62  1  0  0  0  0
 54 67  1  0  0  0  0
 57 64  1  0  0  0  0
 58 65  1  0  0  0  0
 59 65  1  0  0  0  0
 60 65  1  0  0  0  0
 61 76  1  0  0  0  0
 62 84  1  0  0  0  0
 63 65  1  0  0  0  0
 63 75  1  0  0  0  0
 64 76  1  0  0  0  0
 66 67  1  0  0  0  0
M  CHG  1  76   1
M  ISO  4  39 100  62 101  73 100  84 101
M  END
> <Batch ID>
0061

> <Smiles>
CNC(C)C(=O)NC(C(=O)N1Cc2cc([101O:1][101CH2:1]C3CN(c4cc(C)c(F)c([100NH:0][100C:0](=O)N5CCCC(n6nc(-c7ccc(Oc8ccc(F)cc8F)cc7)c(C(N)=O)c6N)C5)c4)C(=O)C3C)ccc2CC1C(=O)NC1CCCc2ccccc21)C(C)(C)C

> <Shape>
0.253

> <Color>
0.097

> <Negative vol penalty>
0.000

$$$$

  -OEChem-04042323073D

 89 98  0     1  0  0  0  0  0999 V2000
  -30.2171  -32.8104   31.3867 C   0  0  0  0  0  0  0  0  0  0  0  0
  -30.0265  -31.4868   31.0028 C   0  0  0  0  0  0  0  0  0  0  0  0
  -32.7283  -18.1395   22.3574 C   0  0  0  0  0  0  0  0  0  0  0  0
  -22.6170  -10.3352   20.3215 C   0  0  0  0  0  0  0  0  0  0  0  0
  -24.2116   -9.6530   22.0034 C   0  0  0  0  0  0  0  0  0  0  0  0
  -29.4063  -33.8127   30.8557 C   0  0  0  0  0  0  0  0  0  0  0  0
  -29.0242  -31.1647   30.0884 C   0  0  0  0  0  0  0  0  0  0  0  0
  -29.2025  -26.7699   25.8270 C   0  0  0  0  0  0  0  0  0  0  0  0
  -31.9114  -19.2454   22.5921 C   0  0  0  0  0  0  0  0  0  0  0  0
  -32.1656  -16.9321   21.9433 C   0  0  0  0  0  0  0  0  0  0  0  0
  -21.8362   -9.2154   20.6075 C   0  0  0  0  0  0  0  0  0  0  0  0
  -23.4307   -8.5331   22.2895 C   0  0  0  0  0  0  0  0  0  0  0  0
  -28.6925  -25.4728   25.7954 C   0  0  0  0  0  0  0  0  0  0  0  0
  -22.8639   -5.4823   20.9471 C   0  0  0  0  0  0  0  0  0  0  0  0
  -23.5149   -4.2565   21.0854 C   0  0  0  0  0  0  0  0  0  0  0  0
  -26.7410  -26.2750   24.6261 C   0  0  0  0  0  0  0  0  0  0  0  0
  -22.6931   -4.0757   23.3502 C   0  0  0  0  0  0  0  0  0  0  0  0
  -23.8048  -10.5540   21.0194 C   0  0  0  0  0  0  0  0  0  0  0  0
  -24.2316  -13.0617   20.8273 C   0  0  0  0  0  0  0  0  0  0  0  0
  -28.3999  -33.5039   29.9270 C   0  0  0  0  0  0  0  0  0  0  0  0
  -28.4794  -27.8329   25.2670 C   0  0  0  0  0  0  0  0  0  0  0  0
  -28.1983  -32.1636   29.5455 C   0  0  0  0  0  0  0  0  0  0  0  0
  -27.2452  -27.5843   24.6496 C   0  0  0  0  0  0  0  0  0  0  0  0
  -29.9691  -17.9367   21.9989 C   0  0  0  0  0  0  0  0  0  0  0  0
  -30.5318  -19.1440   22.4129 C   0  0  0  0  0  0  0  0  0  0  0  0
  -30.7861  -16.8307   21.7641 C   0  0  0  0  0  0  0  0  0  0  0  0
  -22.2430   -8.3143   21.5915 C   0  0  0  0  0  0  0  0  0  0  0  0
  -27.4602  -25.2256   25.1975 C   0  0  0  0  0  0  0  0  0  0  0  0
  -22.1275   -6.0049   22.0103 C   0  0  0  0  0  0  0  0  0  0  0  0
  -23.4295   -3.5532   22.2870 C   0  0  0  0  0  0  0  0  0  0  0  0
  -22.0421   -5.3016   23.2118 C   0  0  0  0  0  0  0  0  0  0  0  0
  -24.6121  -11.7103   20.7240 C   0  0  0  0  0  0  0  0  0  0  0  0
  -25.3460  -13.7630   20.4366 C   0  0  0  0  0  0  0  0  0  0  0  0
  -28.9072  -20.8604   21.6503 C   0  0  0  0  0  0  0  0  0  0  0  0
  -28.4767  -21.3636   24.4601 C   0  0  0  0  0  0  0  0  0  0  0  0
  -22.9824  -13.6320   21.2397 C   0  0  0  0  0  0  0  0  0  0  0  0
  -27.1962  -30.5133   26.3951 C   0  0  0  0  0  0  0  0  0  0  0  0
  -26.6021  -31.0885   23.2585 C   0  0  0  0  0  0  0  0  0  0  0  0
  -25.4661  -29.1974   20.4035 C   0  0  0  0  0  0  0  0  0  0  0  0
  -30.8458  -14.6252   20.5483 C   0  0  0  0  0  0  0  0  0  0  0  0
  -27.5175  -34.6153   29.4163 C   0  0  0  0  0  0  0  0  0  0  0  0
  -29.0557  -29.2221   25.2856 C   0  0  0  0  0  0  0  0  0  0  0  0
  -26.4390  -28.6875   24.0161 C   0  0  0  0  0  0  0  0  0  0  0  0
  -28.0672  -22.0247   22.1299 C   0  0  0  0  0  0  0  0  0  0  0  0
  -29.8540  -21.0335   23.9209 C   0  0  0  0  0  0  0  0  0  0  0  0
  -26.7233  -34.2380   28.1685 C   0  0  0  0  0  0  0  0  0  0  0  0
  -29.6328  -12.1868   18.2548 C   0  0  0  0  0  0  0  0  0  0  0  0
  -26.0768  -32.8673   28.3414 C   0  0  0  0  0  0  0  0  0  0  0  0
  -28.1872  -11.9566   18.7012 C   0  0  0  0  0  0  0  0  0  0  0  0
  -30.5638  -12.4170   19.4439 C   0  0  0  0  0  0  0  0  0  0  0  0
  -28.6926  -13.2441   20.8164 C   0  0  0  0  0  0  0  0  0  0  0  0
  -27.1378  -31.7776   28.5373 C   0  0  1  0  0  0  0  0  0  0  0  0
  -27.9966  -30.3104   25.1398 C   0  0  1  0  0  0  0  0  0  0  0  0
  -27.7060  -13.0720   19.6499 C   0  0  2  0  0  0  0  0  0  0  0  0
  -27.7446  -17.7058   23.1324 C   0  0  0  0  0  0  0  0  0  0  0  0
  -25.8808  -29.5368   17.9520 C   0  0  0  0  0  0  0  0  0  0  0  0
  -23.9676  -32.6266   23.3212 C   0  0  0  0  0  0  0  0  0  0  0  0
  -23.4195  -31.6413   21.0858 C   0  0  0  0  0  0  0  0  0  0  0  0
  -25.4148  -33.1166   21.3413 C   0  0  0  0  0  0  0  0  0  0  0  0
  -26.5244  -26.4521   20.0842 C   0  0  0  0  0  0  0  0  0  0  0  0
  -28.4878  -17.8276   21.8073 C   0  0  0  0  0  0  0  0  0  0  0  0
  -26.2181  -22.1310   23.7936 C   0  0  0  0  0  0  0  0  0  0  0  0
  -26.1196  -23.6218   24.0632 C   0  0  0  0  0  0  0  0  0  1  0  0
  -25.4666  -30.7826   22.3118 C   0  0  1  0  0  0  0  0  0  0  0  0
  -26.2952  -28.7780   19.2031 C   0  0  2  0  0  0  0  0  0  0  0  0
  -24.5729  -32.0250   22.0372 C   0  0  0  0  0  0  0  0  0  0  0  0
  -25.8699  -11.5597   20.3007 N   0  0  0  0  0  0  0  0  0  0  0  0
  -26.2894  -12.8256   20.1345 N   0  0  0  0  0  0  0  0  0  0  0  0
  -29.7088  -20.2972   22.6623 N   0  0  0  0  0  0  0  0  0  0  0  0
  -27.5754  -21.7301   23.4643 N   0  0  0  0  0  0  0  0  0  0  0  0
  -27.0420  -30.0297   24.0654 N   0  0  0  0  0  0  0  0  0  0  0  0
  -30.0465  -13.4901   20.2958 N   0  0  0  0  0  0  0  0  0  0  0  0
  -25.6011  -15.0840   20.3255 N   0  0  0  0  0  0  0  0  0  0  0  0
  -22.7956  -13.9199   22.5986 N   0  0  0  0  0  0  0  0  0  0  0  0
  -30.2362  -15.5940   21.3447 N   0  0  0  0  0  0  0  0  0  0  0  0
  -27.7456  -31.4304   27.2706 N   0  0  0  0  0  0  0  0  0  0  0  0
  -26.0750  -30.2083   21.1167 N   0  0  0  0  0  0  0  0  0  0  0  0
  -26.1309  -27.3195   18.9442 N   0  3  0  0  0  0  0  0  0  0  0  0
  -28.9449  -20.5850   20.4513 O   0  0  0  0  0  0  0  0  0  0  0  0
  -28.2538  -21.3964   25.6688 O   0  0  0  0  0  0  0  0  0  0  0  0
  -22.0532  -13.8639   20.4296 O   0  0  0  0  0  0  0  0  0  0  0  0
  -26.1563  -29.8854   26.5568 O   0  0  0  0  0  0  0  0  0  0  0  0
  -27.0857  -32.2232   23.2761 O   0  0  0  0  0  0  0  0  0  0  0  0
  -24.3846  -28.6826   20.6788 O   0  0  0  0  0  0  0  0  0  0  0  0
  -31.9766  -14.7422   20.0691 O   0  0  0  0  0  0  0  0  0  0  0  0
  -21.4811   -7.2216   21.8711 O   0  0  0  0  0  0  0  0  0  0  0  0
  -26.9597  -23.9605   25.1658 O   0  0  0  0  0  0  0  0  0  1  0  0
  -24.0534   -2.3753   22.4192 F   0  0  0  0  0  0  0  0  0  0  0  0
  -21.3352   -5.7980   24.2363 F   0  0  0  0  0  0  0  0  0  0  0  0
  1  2  1  0  0  0  0
  1  6  2  0  0  0  0
  2  7  2  0  0  0  0
  3  9  2  0  0  0  0
  3 10  1  0  0  0  0
  4 11  2  0  0  0  0
  4 18  1  0  0  0  0
  5 12  1  0  0  0  0
  5 18  2  0  0  0  0
  6 20  1  0  0  0  0
  7 22  1  0  0  0  0
  8 13  2  0  0  0  0
  8 21  1  0  0  0  0
  9 25  1  0  0  0  0
 10 26  2  0  0  0  0
 11 27  1  0  0  0  0
 12 27  2  0  0  0  0
 13 28  1  0  0  0  0
 14 15  2  0  0  0  0
 14 29  1  0  0  0  0
 15 30  1  0  0  0  0
 16 23  1  0  0  0  0
 16 28  2  0  0  0  0
 17 30  2  0  0  0  0
 17 31  1  0  0  0  0
 18 32  1  0  0  0  0
 19 32  1  0  0  0  0
 19 33  2  0  0  0  0
 19 36  1  0  0  0  0
 20 22  2  0  0  0  0
 20 41  1  0  0  0  0
 21 23  2  0  0  0  0
 21 42  1  0  0  0  0
 22 52  1  0  0  0  0
 23 43  1  0  0  0  0
 24 25  2  0  0  0  0
 24 26  1  0  0  0  0
 24 61  1  0  0  0  0
 25 69  1  0  0  0  0
 26 75  1  0  0  0  0
 27 86  1  0  0  0  0
 28 87  1  0  0  0  0
 29 31  2  0  0  0  0
 29 86  1  0  0  0  0
 30 88  1  0  0  0  0
 31 89  1  0  0  0  0
 32 67  2  0  0  0  0
 33 68  1  0  0  0  0
 33 73  1  0  0  0  0
 34 44  1  0  0  0  0
 34 69  1  0  0  0  0
 34 79  2  0  0  0  0
 35 45  1  0  0  0  0
 35 70  1  0  0  0  0
 35 80  2  0  0  0  0
 36 74  1  0  0  0  0
 36 81  2  0  0  0  0
 37 53  1  0  0  0  0
 37 76  1  0  0  0  0
 37 82  2  0  0  0  0
 38 64  1  0  0  0  0
 38 71  1  0  0  0  0
 38 83  2  0  0  0  0
 39 65  1  0  0  0  0
 39 77  1  0  0  0  0
 39 84  2  0  0  0  0
 40 72  1  0  0  0  0
 40 75  1  0  0  0  0
 40 85  2  0  0  0  0
 41 46  1  0  0  0  0
 42 53  1  0  0  0  0
 43 71  1  0  0  0  0
 44 70  1  0  0  0  0
 45 69  1  0  0  0  0
 46 48  1  0  0  0  0
 47 49  1  0  0  0  0
 47 50  1  0  0  0  0
 48 52  1  0  0  0  0
 49 54  1  0  0  0  0
 50 72  1  0  0  0  0
 51 54  1  0  0  0  0
 51 72  1  0  0  0  0
 52 76  1  0  0  0  0
 53 71  1  0  0  0  0
 54 68  1  0  0  0  0
 55 61  1  0  0  0  0
 56 65  1  0  0  0  0
 57 66  1  0  0  0  0
 58 66  1  0  0  0  0
 59 66  1  0  0  0  0
 60 78  1  0  0  0  0
 62 63  1  0  0  0  0
 62 70  1  0  0  0  0
 63 87  1  0  0  0  0
 64 66  1  0  0  0  0
 64 77  1  0  0  0  0
 65 78  1  0  0  0  0
 67 68  1  0  0  0  0
M  CHG  1  78   1
M  ISO  4  40 100  63 101  75 100  87 101
M  END
> <Batch ID>
0061

> <Smiles>
CCc1c([100NH:0][100C:0](=O)N2CCCC(n3nc(-c4ccc(Oc5ccc(F)cc5F)cc4)c(C(N)=O)c3N)C2)cccc1N1CC(=O)N(C[101CH2:1][101O:1]c2ccc3c(c2)CN(C(=O)C(NC(=O)C(C)NC)C(C)(C)C)C(C(=O)NC2CCCc4ccccc42)C3)CC1=O

> <Shape>
0.309

> <Color>
0.176

> <Negative vol penalty>
0.000

$$$$

  -OEChem-04042323073D

 87 96  0     1  0  0  0  0  0999 V2000
  -19.5311  -28.8230   26.3053 C   0  0  0  0  0  0  0  0  0  0  0  0
  -20.8466  -28.5239   25.9654 C   0  0  0  0  0  0  0  0  0  0  0  0
  -24.4160  -11.3847   18.2344 C   0  0  0  0  0  0  0  0  0  0  0  0
  -22.6064  -12.8775   18.8124 C   0  0  0  0  0  0  0  0  0  0  0  0
  -18.5112  -28.6326   25.3739 C   0  0  0  0  0  0  0  0  0  0  0  0
  -21.1427  -28.0332   24.6942 C   0  0  0  0  0  0  0  0  0  0  0  0
  -26.1843  -29.1465   21.4005 C   0  0  0  0  0  0  0  0  0  0  0  0
  -23.6333  -10.8274   17.2233 C   0  0  0  0  0  0  0  0  0  0  0  0
  -21.8237  -12.3202   17.8012 C   0  0  0  0  0  0  0  0  0  0  0  0
  -27.3551  -28.4161   21.2016 C   0  0  0  0  0  0  0  0  0  0  0  0
  -21.1119   -8.5905   16.9727 C   0  0  0  0  0  0  0  0  0  0  0  0
  -21.0944   -7.2004   16.8595 C   0  0  0  0  0  0  0  0  0  0  0  0
  -26.4396  -27.5162   19.1592 C   0  0  0  0  0  0  0  0  0  0  0  0
  -30.1438  -21.6822   20.1724 C   0  0  0  0  0  0  0  0  0  0  0  0
  -30.5346  -19.9352   18.5500 C   0  0  0  0  0  0  0  0  0  0  0  0
  -21.9650   -7.3725   14.6123 C   0  0  0  0  0  0  0  0  0  0  0  0
  -23.9026  -12.4098   19.0290 C   0  0  0  0  0  0  0  0  0  0  0  0
  -25.2647  -12.3205   21.1840 C   0  0  0  0  0  0  0  0  0  0  0  0
  -18.7962  -28.1484   24.0875 C   0  0  0  0  0  0  0  0  0  0  0  0
  -25.1263  -29.0587   20.4843 C   0  0  0  0  0  0  0  0  0  0  0  0
  -20.1255  -27.8349   23.7452 C   0  0  0  0  0  0  0  0  0  0  0  0
  -25.2575  -28.2485   19.3474 C   0  0  0  0  0  0  0  0  0  0  0  0
  -31.9064  -21.9239   18.5380 C   0  0  0  0  0  0  0  0  0  0  0  0
  -31.1886  -22.4256   19.6236 C   0  0  0  0  0  0  0  0  0  0  0  0
  -29.8168  -20.4369   19.6357 C   0  0  0  0  0  0  0  0  0  0  0  0
  -22.3372  -11.2951   17.0067 C   0  0  0  0  0  0  0  0  0  0  0  0
  -27.4817  -27.5986   20.0824 C   0  0  0  0  0  0  0  0  0  0  0  0
  -21.5558   -9.3717   15.9057 C   0  0  0  0  0  0  0  0  0  0  0  0
  -21.5210   -6.5914   15.6793 C   0  0  0  0  0  0  0  0  0  0  0  0
  -31.5794  -20.6786   18.0012 C   0  0  0  0  0  0  0  0  0  0  0  0
  -21.9824   -8.7627   14.7256 C   0  0  0  0  0  0  0  0  0  0  0  0
  -24.7104  -12.9855   20.0740 C   0  0  0  0  0  0  0  0  0  0  0  0
  -25.9387  -13.3009   21.8703 C   0  0  0  0  0  0  0  0  0  0  0  0
  -32.7881  -23.9643   20.7300 C   0  0  0  0  0  0  0  0  0  0  0  0
  -25.1781  -10.9399   21.5611 C   0  0  0  0  0  0  0  0  0  0  0  0
  -22.1039  -28.0861   20.6346 C   0  0  0  0  0  0  0  0  0  0  0  0
  -21.9979  -29.2148   17.5954 C   0  0  0  0  0  0  0  0  0  0  0  0
  -23.6883  -30.0080   14.7388 C   0  0  0  0  0  0  0  0  0  0  0  0
  -28.2939  -18.4264   19.7874 C   0  0  0  0  0  0  0  0  0  0  0  0
  -17.6543  -27.9143   23.1305 C   0  0  0  0  0  0  0  0  0  0  0  0
  -23.8805  -29.8737   20.6994 C   0  0  0  0  0  0  0  0  0  0  0  0
  -24.1588  -28.1351   18.3235 C   0  0  0  0  0  0  0  0  0  0  0  0
  -33.1294  -25.4151   21.0132 C   0  0  0  0  0  0  0  0  0  0  0  0
  -18.0999  -27.7447   21.6803 C   0  0  0  0  0  0  0  0  0  0  0  0
  -31.9603  -26.2506   21.4867 C   0  0  0  0  0  0  0  0  0  0  0  0
  -25.2578  -18.0856   22.1091 C   0  0  0  0  0  0  0  0  0  0  0  0
  -19.2814  -26.7838   21.5938 C   0  0  0  0  0  0  0  0  0  0  0  0
  -25.3557  -16.5977   22.4376 C   0  0  0  0  0  0  0  0  0  0  0  0
  -26.5956  -18.6701   21.6733 C   0  0  0  0  0  0  0  0  0  0  0  0
  -30.4039  -24.6691   20.3823 C   0  0  0  0  0  0  0  0  0  0  0  0
  -26.6225  -16.6356   20.2186 C   0  0  0  0  0  0  0  0  0  0  0  0
  -20.4898  -27.3241   22.3681 C   0  0  1  0  0  0  0  0  0  0  0  0
  -22.6650  -29.3109   19.9692 C   0  0  1  0  0  0  0  0  0  0  0  0
  -30.8315  -26.1330   20.4759 C   0  0  1  0  0  0  0  0  0  0  0  0
  -26.2929  -15.8297   21.4848 C   0  0  2  0  0  0  0  0  0  0  0  0
  -33.0290  -22.7019   17.9312 C   0  0  0  0  0  0  0  0  0  0  0  0
  -23.3259  -30.8723   12.4109 C   0  0  0  0  0  0  0  0  0  0  0  0
  -20.9200  -26.4874   16.7531 C   0  0  0  0  0  0  0  0  0  0  0  0
  -21.4751  -27.0772   14.3841 C   0  0  0  0  0  0  0  0  0  0  0  0
  -19.8074  -28.4354   15.6478 C   0  0  0  0  0  0  0  0  0  0  0  0
  -25.3866  -32.3813   15.2309 C   0  0  0  0  0  0  0  0  0  0  0  0
  -29.6508  -27.0194   20.8670 C   0  0  0  0  0  0  0  0  0  1  0  0
  -22.2604  -28.6307   16.2283 C   0  0  1  0  0  0  0  0  0  0  0  0
  -23.6453  -31.2392   13.8518 C   0  0  2  0  0  0  0  0  0  0  0  0
  -21.1358  -27.6581   15.7734 C   0  0  0  0  0  0  0  0  0  0  0  0
  -25.0065  -14.2878   20.0524 N   0  0  0  0  0  0  0  0  0  0  0  0
  -25.7541  -14.4489   21.1575 N   0  0  0  0  0  0  0  0  0  0  0  0
  -31.5125  -23.7155   20.1948 N   0  0  0  0  0  0  0  0  0  0  0  0
  -22.9578  -28.9466   18.5815 N   0  0  0  0  0  0  0  0  0  0  0  0
  -27.2090  -17.9378   20.5558 N   0  0  0  0  0  0  0  0  0  0  0  0
  -26.6653  -13.2843   23.0079 N   0  0  0  0  0  0  0  0  0  0  0  0
  -24.1211  -10.5386   22.3894 N   0  0  0  0  0  0  0  0  0  0  0  0
  -28.7552  -19.6814   20.1934 N   0  0  0  0  0  0  0  0  0  0  0  0
  -21.1583  -28.3564   21.6054 N   0  0  0  0  0  0  0  0  0  0  0  0
  -22.4684  -29.7640   15.3333 N   0  0  0  0  0  0  0  0  0  0  0  0
  -24.9590  -31.9424   13.8776 N   0  3  0  0  0  0  0  0  0  0  0  0
  -33.6604  -23.1143   20.9285 O   0  0  0  0  0  0  0  0  0  0  0  0
  -26.0225  -10.0905   21.1884 O   0  0  0  0  0  0  0  0  0  0  0  0
  -22.4985  -26.9778   20.2916 O   0  0  0  0  0  0  0  0  0  0  0  0
  -20.9822  -29.8902   17.7796 O   0  0  0  0  0  0  0  0  0  0  0  0
  -24.7017  -29.3285   14.8863 O   0  0  0  0  0  0  0  0  0  0  0  0
  -28.7751  -17.7745   18.8582 O   0  0  0  0  0  0  0  0  0  0  0  0
  -21.5733  -10.7516   16.0200 O   0  0  0  0  0  0  0  0  0  0  0  0
  -28.6232  -26.8840   19.8862 O   0  0  0  0  0  0  0  0  0  1  0  0
  -21.5057   -5.2563   15.5713 F   0  0  0  0  0  0  0  0  0  0  0  0
  -32.2619  -20.1881   16.9569 F   0  0  0  0  0  0  0  0  0  0  0  0
  -22.4111   -9.5078   13.6976 F   0  0  0  0  0  0  0  0  0  0  0  0
  1  2  1  0  0  0  0
  1  5  2  0  0  0  0
  2  6  2  0  0  0  0
  3  8  2  0  0  0  0
  3 17  1  0  0  0  0
  4  9  1  0  0  0  0
  4 17  2  0  0  0  0
  5 19  1  0  0  0  0
  6 21  1  0  0  0  0
  7 10  2  0  0  0  0
  7 20  1  0  0  0  0
  8 26  1  0  0  0  0
  9 26  2  0  0  0  0
 10 27  1  0  0  0  0
 11 12  2  0  0  0  0
 11 28  1  0  0  0  0
 12 29  1  0  0  0  0
 13 22  1  0  0  0  0
 13 27  2  0  0  0  0
 14 24  1  0  0  0  0
 14 25  2  0  0  0  0
 15 25  1  0  0  0  0
 15 30  2  0  0  0  0
 16 29  2  0  0  0  0
 16 31  1  0  0  0  0
 17 32  1  0  0  0  0
 18 32  1  0  0  0  0
 18 33  2  0  0  0  0
 18 35  1  0  0  0  0
 19 21  2  0  0  0  0
 19 40  1  0  0  0  0
 20 22  2  0  0  0  0
 20 41  1  0  0  0  0
 21 52  1  0  0  0  0
 22 42  1  0  0  0  0
 23 24  2  0  0  0  0
 23 30  1  0  0  0  0
 23 56  1  0  0  0  0
 24 68  1  0  0  0  0
 25 73  1  0  0  0  0
 26 83  1  0  0  0  0
 27 84  1  0  0  0  0
 28 31  2  0  0  0  0
 28 83  1  0  0  0  0
 29 85  1  0  0  0  0
 30 86  1  0  0  0  0
 31 87  1  0  0  0  0
 32 66  2  0  0  0  0
 33 67  1  0  0  0  0
 33 71  1  0  0  0  0
 34 43  1  0  0  0  0
 34 68  1  0  0  0  0
 34 77  2  0  0  0  0
 35 72  1  0  0  0  0
 35 78  2  0  0  0  0
 36 53  1  0  0  0  0
 36 74  1  0  0  0  0
 36 79  2  0  0  0  0
 37 63  1  0  0  0  0
 37 69  1  0  0  0  0
 37 80  2  0  0  0  0
 38 64  1  0  0  0  0
 38 75  1  0  0  0  0
 38 81  2  0  0  0  0
 39 70  1  0  0  0  0
 39 73  1  0  0  0  0
 39 82  2  0  0  0  0
 40 44  1  0  0  0  0
 41 53  1  0  0  0  0
 42 69  1  0  0  0  0
 43 45  1  0  0  0  0
 44 47  1  0  0  0  0
 45 54  1  0  0  0  0
 46 48  1  0  0  0  0
 46 49  1  0  0  0  0
 47 52  1  0  0  0  0
 48 55  1  0  0  0  0
 49 70  1  0  0  0  0
 50 54  1  0  0  0  0
 50 68  1  0  0  0  0
 51 55  1  0  0  0  0
 51 70  1  0  0  0  0
 52 74  1  0  0  0  0
 53 69  1  0  0  0  0
 54 62  1  0  0  0  0
 55 67  1  0  0  0  0
 57 64  1  0  0  0  0
 58 65  1  0  0  0  0
 59 65  1  0  0  0  0
 60 65  1  0  0  0  0
 61 76  1  0  0  0  0
 62 84  1  0  0  0  0
 63 65  1  0  0  0  0
 63 75  1  0  0  0  0
 64 76  1  0  0  0  0
 66 67  1  0  0  0  0
M  CHG  1  76   1
M  ISO  4  39 100  62 101  73 100  84 101
M  END
> <Batch ID>
0061

> <Smiles>
CNC(C)C(=O)NC(C(=O)N1Cc2cc([101O:1][101CH2:1]C3CCC(=O)N(c4cc([100NH:0][100C:0](=O)N5CCCC(n6nc(-c7ccc(Oc8ccc(F)cc8F)cc7)c(C(N)=O)c6N)C5)cc(F)c4C)C3)ccc2CC1C(=O)NC1CCCc2ccccc21)C(C)(C)C

> <Shape>
0.197

> <Color>
0.074

> <Negative vol penalty>
0.000

$$$$

  -OEChem-04042323073D

 84 92  0     1  0  0  0  0  0999 V2000
  -28.6499  -37.3458   19.6924 C   0  0  0  0  0  0  0  0  0  0  0  0
  -28.9483  -36.0049   19.4722 C   0  0  0  0  0  0  0  0  0  0  0  0
  -24.9427   -8.4658   21.4701 C   0  0  0  0  0  0  0  0  0  0  0  0
  -23.6039   -9.5939   19.8051 C   0  0  0  0  0  0  0  0  0  0  0  0
  -27.8386  -37.7109   20.7659 C   0  0  0  0  0  0  0  0  0  0  0  0
  -28.4365  -35.0285   20.3260 C   0  0  0  0  0  0  0  0  0  0  0  0
  -26.6938  -29.3571   18.8082 C   0  0  0  0  0  0  0  0  0  0  0  0
  -29.2595  -17.7274   15.1936 C   0  0  0  0  0  0  0  0  0  0  0  0
  -29.1331  -19.1019   15.3948 C   0  0  0  0  0  0  0  0  0  0  0  0
  -23.8812   -7.6015   21.7381 C   0  0  0  0  0  0  0  0  0  0  0  0
  -22.5424   -8.7296   20.0731 C   0  0  0  0  0  0  0  0  0  0  0  0
  -27.3343  -28.1223   18.9020 C   0  0  0  0  0  0  0  0  0  0  0  0
  -21.3997   -5.3270   23.1139 C   0  0  0  0  0  0  0  0  0  0  0  0
  -21.0949   -5.0665   24.4498 C   0  0  0  0  0  0  0  0  0  0  0  0
  -26.2167  -27.7088   20.9995 C   0  0  0  0  0  0  0  0  0  0  0  0
  -28.6488  -18.7156   17.7300 C   0  0  0  0  0  0  0  0  0  0  0  0
  -20.6764   -7.4181   24.8129 C   0  0  0  0  0  0  0  0  0  0  0  0
  -24.8040   -9.4620   20.5037 C   0  0  0  0  0  0  0  0  0  0  0  0
  -26.9256  -10.1749   19.2795 C   0  0  0  0  0  0  0  0  0  0  0  0
  -27.3087  -36.7377   21.6277 C   0  0  0  0  0  0  0  0  0  0  0  0
  -25.8168  -29.7825   19.8164 C   0  0  0  0  0  0  0  0  0  0  0  0
  -27.6185  -35.3811   21.4129 C   0  0  0  0  0  0  0  0  0  0  0  0
  -25.5644  -28.9483   20.9148 C   0  0  0  0  0  0  0  0  0  0  0  0
  -29.0805  -16.8470   16.2607 C   0  0  0  0  0  0  0  0  0  0  0  0
  -28.8278  -19.5960   16.6629 C   0  0  0  0  0  0  0  0  0  0  0  0
  -28.7752  -17.3411   17.5289 C   0  0  0  0  0  0  0  0  0  0  0  0
  -22.6811   -7.7334   21.0396 C   0  0  0  0  0  0  0  0  0  0  0  0
  -27.0980  -27.2992   19.9992 C   0  0  0  0  0  0  0  0  0  0  0  0
  -21.3430   -6.6331   22.6274 C   0  0  0  0  0  0  0  0  0  0  0  0
  -20.7333   -6.1120   25.2994 C   0  0  0  0  0  0  0  0  0  0  0  0
  -20.9813   -7.6786   23.4769 C   0  0  0  0  0  0  0  0  0  0  0  0
  -25.9000  -10.3555   20.2268 C   0  0  0  0  0  0  0  0  0  0  0  0
  -27.7107  -11.2947   19.4058 C   0  0  0  0  0  0  0  0  0  0  0  0
  -27.1486   -9.0917   18.3670 C   0  0  0  0  0  0  0  0  0  0  0  0
  -25.7562  -32.2205   21.8550 C   0  0  0  0  0  0  0  0  0  0  0  0
  -22.8258  -31.0343   22.5812 C   0  0  0  0  0  0  0  0  0  0  0  0
  -28.4015  -21.6509   18.0552 C   0  0  0  0  0  0  0  0  0  0  0  0
  -20.7176  -28.3510   22.6323 C   0  0  0  0  0  0  0  0  0  0  0  0
  -28.2827  -16.8074   19.9411 C   0  0  0  0  0  0  0  0  0  0  0  0
  -26.4753  -37.1847   22.8025 C   0  0  0  0  0  0  0  0  0  0  0  0
  -25.1133  -31.1056   19.6872 C   0  0  0  0  0  0  0  0  0  0  0  0
  -24.6163  -29.3497   22.0141 C   0  0  0  0  0  0  0  0  0  0  0  0
  -25.6669  -36.0575   23.4399 C   0  0  0  0  0  0  0  0  0  0  0  0
  -27.7092  -14.9399   22.9178 C   0  0  0  0  0  0  0  0  0  0  0  0
  -26.5399  -34.8231   23.6424 C   0  0  0  0  0  0  0  0  0  0  0  0
  -27.2717  -13.5659   22.4051 C   0  0  0  0  0  0  0  0  0  0  0  0
  -27.1745  -16.0696   22.0393 C   0  0  0  0  0  0  0  0  0  0  0  0
  -27.0357  -14.5631   20.0950 C   0  0  0  0  0  0  0  0  0  0  0  0
  -27.0620  -34.2907   22.3025 C   0  0  1  0  0  0  0  0  0  0  0  0
  -24.6354  -31.6614   21.0251 C   0  0  1  0  0  0  0  0  0  0  0  0
  -27.6040  -13.3901   20.9104 C   0  0  2  0  0  0  0  0  0  0  0  0
  -29.2220  -15.3797   16.0160 C   0  0  0  0  0  0  0  0  0  0  0  0
  -18.3989  -27.6804   23.3188 C   0  0  0  0  0  0  0  0  0  0  0  0
  -23.7070  -30.9862   25.5020 C   0  0  0  0  0  0  0  0  0  0  0  0
  -21.7791  -29.4641   25.9861 C   0  0  0  0  0  0  0  0  0  0  0  0
  -21.3612  -31.7706   25.1329 C   0  0  0  0  0  0  0  0  0  0  0  0
  -19.9797  -27.6303   19.8583 C   0  0  0  0  0  0  0  0  0  0  0  0
  -28.3591  -23.1564   17.8332 C   0  0  0  0  0  0  0  0  0  0  0  0
  -28.0357  -23.9291   19.1073 C   0  0  0  0  0  0  0  0  0  0  0  0
  -28.0458  -25.4323   18.8711 C   0  0  0  0  0  0  0  0  0  1  0  0
  -22.2970  -30.0203   23.5668 C   0  0  1  0  0  0  0  0  0  0  0  0
  -19.2748  -28.1950   22.1871 C   0  0  2  0  0  0  0  0  0  0  0  0
  -22.3055  -30.5533   25.0274 C   0  0  0  0  0  0  0  0  0  0  0  0
  -26.0201  -11.4999   20.9049 N   0  0  0  0  0  0  0  0  0  0  0  0
  -27.1305  -12.0485   20.3832 N   0  0  0  0  0  0  0  0  0  0  0  0
  -23.9575  -30.6555   21.8453 N   0  0  0  0  0  0  0  0  0  0  0  0
  -27.5310  -15.8377   20.6379 N   0  0  0  0  0  0  0  0  0  0  0  0
  -28.8340  -11.6983   18.7750 N   0  0  0  0  0  0  0  0  0  0  0  0
  -26.2452   -8.0201   18.3685 N   0  0  0  0  0  0  0  0  0  0  0  0
  -28.6996  -20.9905   16.8665 N   0  0  0  0  0  0  0  0  0  0  0  0
  -28.5896  -16.4628   18.6252 N   0  0  0  0  0  0  0  0  0  0  0  0
  -26.0247  -33.5542   21.6125 N   0  0  0  0  0  0  0  0  0  0  0  0
  -20.9783  -29.6284   23.0813 N   0  0  0  0  0  0  0  0  0  0  0  0
  -19.1845  -27.2363   21.0497 N   0  3  0  0  0  0  0  0  0  0  0  0
  -28.1293   -9.0668   17.5853 O   0  0  0  0  0  0  0  0  0  0  0  0
  -26.3337  -31.4960   22.6571 O   0  0  0  0  0  0  0  0  0  0  0  0
  -22.2514  -32.1196   22.4633 O   0  0  0  0  0  0  0  0  0  0  0  0
  -28.1925  -21.1485   19.1544 O   0  0  0  0  0  0  0  0  0  0  0  0
  -21.5311  -27.4307   22.5898 O   0  0  0  0  0  0  0  0  0  0  0  0
  -28.6520  -17.8534   20.4810 O   0  0  0  0  0  0  0  0  0  0  0  0
  -21.6451   -6.8900   21.3006 O   0  0  0  0  0  0  0  0  0  0  0  0
  -27.7224  -26.0938   20.0935 O   0  0  0  0  0  0  0  0  0  1  0  0
  -20.4391   -5.8615   26.5819 F   0  0  0  0  0  0  0  0  0  0  0  0
  -20.9238   -8.9353   23.0151 F   0  0  0  0  0  0  0  0  0  0  0  0
  1  2  1  0  0  0  0
  1  5  2  0  0  0  0
  2  6  2  0  0  0  0
  3 10  2  0  0  0  0
  3 18  1  0  0  0  0
  4 11  1  0  0  0  0
  4 18  2  0  0  0  0
  5 20  1  0  0  0  0
  6 22  1  0  0  0  0
  7 12  2  0  0  0  0
  7 21  1  0  0  0  0
  8  9  2  0  0  0  0
  8 24  1  0  0  0  0
  9 25  1  0  0  0  0
 10 27  1  0  0  0  0
 11 27  2  0  0  0  0
 12 28  1  0  0  0  0
 13 14  2  0  0  0  0
 13 29  1  0  0  0  0
 14 30  1  0  0  0  0
 15 23  1  0  0  0  0
 15 28  2  0  0  0  0
 16 25  2  0  0  0  0
 16 26  1  0  0  0  0
 17 30  2  0  0  0  0
 17 31  1  0  0  0  0
 18 32  1  0  0  0  0
 19 32  1  0  0  0  0
 19 33  2  0  0  0  0
 19 34  1  0  0  0  0
 20 22  2  0  0  0  0
 20 40  1  0  0  0  0
 21 23  2  0  0  0  0
 21 41  1  0  0  0  0
 22 49  1  0  0  0  0
 23 42  1  0  0  0  0
 24 26  2  0  0  0  0
 24 52  1  0  0  0  0
 25 70  1  0  0  0  0
 26 71  1  0  0  0  0
 27 81  1  0  0  0  0
 28 82  1  0  0  0  0
 29 31  2  0  0  0  0
 29 81  1  0  0  0  0
 30 83  1  0  0  0  0
 31 84  1  0  0  0  0
 32 64  2  0  0  0  0
 33 65  1  0  0  0  0
 33 68  1  0  0  0  0
 34 69  1  0  0  0  0
 34 75  2  0  0  0  0
 35 50  1  0  0  0  0
 35 72  1  0  0  0  0
 35 76  2  0  0  0  0
 36 61  1  0  0  0  0
 36 66  1  0  0  0  0
 36 77  2  0  0  0  0
 37 58  1  0  0  0  0
 37 70  1  0  0  0  0
 37 78  2  0  0  0  0
 38 62  1  0  0  0  0
 38 73  1  0  0  0  0
 38 79  2  0  0  0  0
 39 67  1  0  0  0  0
 39 71  1  0  0  0  0
 39 80  2  0  0  0  0
 40 43  1  0  0  0  0
 41 50  1  0  0  0  0
 42 66  1  0  0  0  0
 43 45  1  0  0  0  0
 44 46  1  0  0  0  0
 44 47  1  0  0  0  0
 45 49  1  0  0  0  0
 46 51  1  0  0  0  0
 47 67  1  0  0  0  0
 48 51  1  0  0  0  0
 48 67  1  0  0  0  0
 49 72  1  0  0  0  0
 50 66  1  0  0  0  0
 51 65  1  0  0  0  0
 53 62  1  0  0  0  0
 54 63  1  0  0  0  0
 55 63  1  0  0  0  0
 56 63  1  0  0  0  0
 57 74  1  0  0  0  0
 58 59  1  0  0  0  0
 59 60  1  0  0  0  0
 60 82  1  0  0  0  0
 61 63  1  0  0  0  0
 61 73  1  0  0  0  0
 62 74  1  0  0  0  0
 64 65  1  0  0  0  0
M  CHG  1  74   1
M  ISO  4  39 100  60 101  71 100  82 101
M  END
> <Batch ID>
0061

> <Smiles>
CNC(C)C(=O)NC(C(=O)N1Cc2cc([101O:1][101CH2:1]CCC(=O)Nc3ccc(C)c([100NH:0][100C:0](=O)N4CCCC(n5nc(-c6ccc(Oc7ccc(F)cc7F)cc6)c(C(N)=O)c5N)C4)c3)ccc2CC1C(=O)NC1CCCc2ccccc21)C(C)(C)C

> <Shape>
0.277

> <Color>
0.101

> <Negative vol penalty>
0.000

$$$$

  -OEChem-04042323073D

 90 99  0     1  0  0  0  0  0999 V2000
  -17.7173  -23.9717   22.3771 C   0  0  0  0  0  0  0  0  0  0  0  0
  -18.8837  -23.5831   21.7260 C   0  0  0  0  0  0  0  0  0  0  0  0
  -22.9022  -10.3403   21.9840 C   0  0  0  0  0  0  0  0  0  0  0  0
  -24.5149  -10.7707   23.7307 C   0  0  0  0  0  0  0  0  0  0  0  0
  -17.6230  -25.2463   22.9343 C   0  0  0  0  0  0  0  0  0  0  0  0
  -19.9561  -24.4693   21.6307 C   0  0  0  0  0  0  0  0  0  0  0  0
  -25.9155  -23.0636   21.7515 C   0  0  0  0  0  0  0  0  0  0  0  0
  -32.0142  -18.9652   18.8453 C   0  0  0  0  0  0  0  0  0  0  0  0
  -31.5913  -17.6668   19.1296 C   0  0  0  0  0  0  0  0  0  0  0  0
  -22.2322   -9.4491   22.8221 C   0  0  0  0  0  0  0  0  0  0  0  0
  -23.8449   -9.8796   24.5689 C   0  0  0  0  0  0  0  0  0  0  0  0
  -26.8598  -22.8932   20.7399 C   0  0  0  0  0  0  0  0  0  0  0  0
  -22.6093   -6.2603   23.8775 C   0  0  0  0  0  0  0  0  0  0  0  0
  -22.2132   -5.0369   23.3373 C   0  0  0  0  0  0  0  0  0  0  0  0
  -27.5786  -25.1770   21.0347 C   0  0  0  0  0  0  0  0  0  0  0  0
  -29.9142  -19.8299   19.6695 C   0  0  0  0  0  0  0  0  0  0  0  0
  -19.9086   -5.5623   23.8371 C   0  0  0  0  0  0  0  0  0  0  0  0
  -24.0436  -11.0011   22.4382 C   0  0  0  0  0  0  0  0  0  0  0  0
  -24.2180  -13.0919   20.9871 C   0  0  0  0  0  0  0  0  0  0  0  0
  -18.6983  -26.1451   22.8543 C   0  0  0  0  0  0  0  0  0  0  0  0
  -25.7881  -24.2973   22.4058 C   0  0  0  0  0  0  0  0  0  0  0  0
  -19.8755  -25.7575   22.1862 C   0  0  0  0  0  0  0  0  0  0  0  0
  -26.6337  -25.3597   22.0559 C   0  0  0  0  0  0  0  0  0  0  0  0
  -29.4912  -18.5315   19.9538 C   0  0  0  0  0  0  0  0  0  0  0  0
  -31.1757  -20.0468   19.1152 C   0  0  0  0  0  0  0  0  0  0  0  0
  -30.3298  -17.4499   19.6839 C   0  0  0  0  0  0  0  0  0  0  0  0
  -22.7035   -9.2188   24.1146 C   0  0  0  0  0  0  0  0  0  0  0  0
  -27.6895  -23.9509   20.3794 C   0  0  0  0  0  0  0  0  0  0  0  0
  -21.6551   -7.1348   24.3976 C   0  0  0  0  0  0  0  0  0  0  0  0
  -20.8629   -4.6878   23.3171 C   0  0  0  0  0  0  0  0  0  0  0  0
  -20.3047   -6.7858   24.3773 C   0  0  0  0  0  0  0  0  0  0  0  0
  -24.7364  -11.9213   21.5727 C   0  0  0  0  0  0  0  0  0  0  0  0
  -25.2649  -13.6053   20.2612 C   0  0  0  0  0  0  0  0  0  0  0  0
  -31.1427  -22.4637   19.6057 C   0  0  0  0  0  0  0  0  0  0  0  0
  -32.4747  -21.5793   17.7268 C   0  0  0  0  0  0  0  0  0  0  0  0
  -22.9074  -13.6640   21.0901 C   0  0  0  0  0  0  0  0  0  0  0  0
  -23.4681  -26.4497   22.7032 C   0  0  0  0  0  0  0  0  0  0  0  0
  -25.5561  -27.8431   24.7577 C   0  0  0  0  0  0  0  0  0  0  0  0
  -29.1056  -28.4785   24.8771 C   0  0  0  0  0  0  0  0  0  0  0  0
  -30.6440  -14.9514   19.7547 C   0  0  0  0  0  0  0  0  0  0  0  0
  -18.5321  -27.5289   23.4306 C   0  0  0  0  0  0  0  0  0  0  0  0
  -24.7828  -24.4568   23.5132 C   0  0  0  0  0  0  0  0  0  0  0  0
  -26.5508  -26.6981   22.7415 C   0  0  0  0  0  0  0  0  0  0  0  0
  -19.8513  -28.2752   23.6130 C   0  0  0  0  0  0  0  0  0  0  0  0
  -29.7434  -11.5787   19.0540 C   0  0  0  0  0  0  0  0  0  0  0  0
  -20.7143  -28.1474   22.3617 C   0  0  0  0  0  0  0  0  0  0  0  0
  -28.3179  -11.4635   19.5986 C   0  0  0  0  0  0  0  0  0  0  0  0
  -30.6158  -12.4730   19.9331 C   0  0  0  0  0  0  0  0  0  0  0  0
  -28.6362  -13.6899   20.7512 C   0  0  0  0  0  0  0  0  0  0  0  0
  -32.2369  -24.6179   18.8873 C   0  0  0  0  0  0  0  0  0  0  0  0
  -21.0695  -26.6817   22.0838 C   0  0  1  0  0  0  0  0  0  0  0  0
  -30.9602  -23.7801   18.8470 C   0  0  2  0  0  0  0  0  0  0  0  0
  -24.3907  -25.9105   23.7594 C   0  0  1  0  0  0  0  0  0  0  0  0
  -27.7020  -12.8513   19.8638 C   0  0  2  0  0  0  0  0  0  0  0  0
  -33.7563  -22.3931   17.9913 C   0  0  0  0  0  0  0  0  0  0  0  0
  -28.1358  -18.3284   20.5492 C   0  0  0  0  0  0  0  0  0  0  0  0
  -34.3551  -22.1997   19.3902 C   0  0  0  0  0  0  0  0  0  0  0  0
  -34.8235  -21.9349   16.9723 C   0  0  0  0  0  0  0  0  0  0  0  0
  -30.6476  -28.7604   26.8367 C   0  0  0  0  0  0  0  0  0  0  0  0
  -25.0083  -30.8222   24.3906 C   0  0  0  0  0  0  0  0  0  0  0  0
  -27.4092  -31.2612   24.9483 C   0  0  0  0  0  0  0  0  0  0  0  0
  -25.9130  -30.1968   26.6367 C   0  0  0  0  0  0  0  0  0  0  0  0
  -30.9030  -26.3311   23.9196 C   0  0  0  0  0  0  0  0  0  0  0  0
  -29.8058  -24.5633   19.4836 C   0  0  0  0  0  0  0  0  0  1  0  0
  -26.6665  -28.8576   24.6291 C   0  0  1  0  0  0  0  0  0  0  0  0
  -30.1202  -27.8014   25.7808 C   0  0  2  0  0  0  0  0  0  0  0  0
  -26.2423  -30.2672   25.1297 C   0  0  0  0  0  0  0  0  0  0  0  0
  -26.0133  -11.7037   21.2468 N   0  0  0  0  0  0  0  0  0  0  0  0
  -26.3061  -12.7445   20.4486 N   0  0  0  0  0  0  0  0  0  0  0  0
  -31.6161  -21.3946   18.8226 N   0  0  0  0  0  0  0  0  0  0  0  0
  -25.5476  -26.8065   23.8137 N   0  0  0  0  0  0  0  0  0  0  0  0
  -29.9709  -13.7719   20.1375 N   0  0  0  0  0  0  0  0  0  0  0  0
  -25.3872  -14.7046   19.4873 N   0  0  0  0  0  0  0  0  0  0  0  0
  -21.9518  -13.0073   21.8775 N   0  0  0  0  0  0  0  0  0  0  0  0
  -29.9192  -16.1236   19.9670 N   0  0  0  0  0  0  0  0  0  0  0  0
  -22.1278  -26.2418   22.9675 N   0  0  0  0  0  0  0  0  0  0  0  0
  -27.8161  -28.2956   25.3298 N   0  0  0  0  0  0  0  0  0  0  0  0
  -31.2742  -27.3020   24.9810 N   0  3  0  0  0  0  0  0  0  0  0  0
  -30.9350  -22.3977   20.8195 O   0  0  0  0  0  0  0  0  0  0  0  0
  -32.2030  -21.1571   16.5979 O   0  0  0  0  0  0  0  0  0  0  0  0
  -22.5881  -14.7172   20.4882 O   0  0  0  0  0  0  0  0  0  0  0  0
  -23.9374  -27.0139   21.7218 O   0  0  0  0  0  0  0  0  0  0  0  0
  -24.7308  -27.9618   25.6669 O   0  0  0  0  0  0  0  0  0  0  0  0
  -29.4253  -29.1099   23.8723 O   0  0  0  0  0  0  0  0  0  0  0  0
  -31.7688  -14.9216   19.2488 O   0  0  0  0  0  0  0  0  0  0  0  0
  -22.0499   -8.3494   24.9328 O   0  0  0  0  0  0  0  0  0  0  0  0
  -28.6116  -23.7875   19.3920 O   0  0  0  0  0  0  0  0  0  1  0  0
  -20.4825   -3.5136   22.7969 F   0  0  0  0  0  0  0  0  0  0  0  0
  -19.3833   -7.6223   24.8744 F   0  0  0  0  0  0  0  0  0  0  0  0
  -33.4357  -24.1554   17.6008 S   0  0  0  0  0  0  0  0  0  0  0  0
  1  2  1  0  0  0  0
  1  5  2  0  0  0  0
  2  6  2  0  0  0  0
  3 10  2  0  0  0  0
  3 18  1  0  0  0  0
  4 11  1  0  0  0  0
  4 18  2  0  0  0  0
  5 20  1  0  0  0  0
  6 22  1  0  0  0  0
  7 12  2  0  0  0  0
  7 21  1  0  0  0  0
  8  9  2  0  0  0  0
  8 25  1  0  0  0  0
  9 26  1  0  0  0  0
 10 27  1  0  0  0  0
 11 27  2  0  0  0  0
 12 28  1  0  0  0  0
 13 14  2  0  0  0  0
 13 29  1  0  0  0  0
 14 30  1  0  0  0  0
 15 23  1  0  0  0  0
 15 28  2  0  0  0  0
 16 24  1  0  0  0  0
 16 25  2  0  0  0  0
 17 30  2  0  0  0  0
 17 31  1  0  0  0  0
 18 32  1  0  0  0  0
 19 32  1  0  0  0  0
 19 33  2  0  0  0  0
 19 36  1  0  0  0  0
 20 22  2  0  0  0  0
 20 41  1  0  0  0  0
 21 23  2  0  0  0  0
 21 42  1  0  0  0  0
 22 51  1  0  0  0  0
 23 43  1  0  0  0  0
 24 26  2  0  0  0  0
 24 56  1  0  0  0  0
 25 70  1  0  0  0  0
 26 75  1  0  0  0  0
 27 86  1  0  0  0  0
 28 87  1  0  0  0  0
 29 31  2  0  0  0  0
 29 86  1  0  0  0  0
 30 88  1  0  0  0  0
 31 89  1  0  0  0  0
 32 68  2  0  0  0  0
 33 69  1  0  0  0  0
 33 73  1  0  0  0  0
 34 52  1  0  0  0  0
 34 70  1  0  0  0  0
 34 79  2  0  0  0  0
 35 55  1  0  0  0  0
 35 70  1  0  0  0  0
 35 80  2  0  0  0  0
 36 74  1  0  0  0  0
 36 81  2  0  0  0  0
 37 53  1  0  0  0  0
 37 76  1  0  0  0  0
 37 82  2  0  0  0  0
 38 65  1  0  0  0  0
 38 71  1  0  0  0  0
 38 83  2  0  0  0  0
 39 66  1  0  0  0  0
 39 77  1  0  0  0  0
 39 84  2  0  0  0  0
 40 72  1  0  0  0  0
 40 75  1  0  0  0  0
 40 85  2  0  0  0  0
 41 44  1  0  0  0  0
 42 53  1  0  0  0  0
 43 71  1  0  0  0  0
 44 46  1  0  0  0  0
 45 47  1  0  0  0  0
 45 48  1  0  0  0  0
 46 51  1  0  0  0  0
 47 54  1  0  0  0  0
 48 72  1  0  0  0  0
 49 54  1  0  0  0  0
 49 72  1  0  0  0  0
 50 52  1  0  0  0  0
 50 90  1  0  0  0  0
 51 76  1  0  0  0  0
 52 64  1  0  0  0  0
 53 71  1  0  0  0  0
 54 69  1  0  0  0  0
 55 57  1  0  0  0  0
 55 58  1  0  0  0  0
 55 90  1  0  0  0  0
 59 66  1  0  0  0  0
 60 67  1  0  0  0  0
 61 67  1  0  0  0  0
 62 67  1  0  0  0  0
 63 78  1  0  0  0  0
 64 87  1  0  0  0  0
 65 67  1  0  0  0  0
 65 77  1  0  0  0  0
 66 78  1  0  0  0  0
 68 69  1  0  0  0  0
M  CHG  1  78   1
M  ISO  4  40 100  64 101  75 100  87 101
M  END
> <Batch ID>
0061

> <Smiles>
CNC(C)C(=O)NC(C(=O)N1Cc2cc([101O:1][101CH2:1]C3CSC(C)(C)C(=O)N(c4ccc([100NH:0][100C:0](=O)N5CCCC(n6nc(-c7ccc(Oc8ccc(F)cc8F)cc7)c(C(N)=O)c6N)C5)c(C)c4)C3=O)ccc2CC1C(=O)NC1CCCc2ccccc21)C(C)(C)C

> <Shape>
0.257

> <Color>
0.145

> <Negative vol penalty>
0.000

$$$$

  -OEChem-04042323073D

 85 94  0     1  0  0  0  0  0999 V2000
  -25.4592  -34.8119   30.1899 C   0  0  0  0  0  0  0  0  0  0  0  0
  -26.1949  -33.6381   30.0617 C   0  0  0  0  0  0  0  0  0  0  0  0
  -25.4434  -13.1326   19.4371 C   0  0  0  0  0  0  0  0  0  0  0  0
  -26.3993  -11.9606   21.3212 C   0  0  0  0  0  0  0  0  0  0  0  0
  -24.2075  -34.9182   29.5852 C   0  0  0  0  0  0  0  0  0  0  0  0
  -25.6787  -32.5695   29.3295 C   0  0  0  0  0  0  0  0  0  0  0  0
  -28.7280  -28.7422   23.2402 C   0  0  0  0  0  0  0  0  0  0  0  0
  -24.1651  -12.7647   19.8567 C   0  0  0  0  0  0  0  0  0  0  0  0
  -25.1209  -11.5927   21.7409 C   0  0  0  0  0  0  0  0  0  0  0  0
  -29.0925  -28.0928   22.0605 C   0  0  0  0  0  0  0  0  0  0  0  0
  -22.7947   -9.2837   20.9114 C   0  0  0  0  0  0  0  0  0  0  0  0
  -22.5980   -7.9606   21.3065 C   0  0  0  0  0  0  0  0  0  0  0  0
  -26.7644  -27.6690   21.5620 C   0  0  0  0  0  0  0  0  0  0  0  0
  -31.9147  -20.9358   20.9970 C   0  0  0  0  0  0  0  0  0  0  0  0
  -21.9351   -8.7152   23.5038 C   0  0  0  0  0  0  0  0  0  0  0  0
  -29.9111  -20.6133   19.7568 C   0  0  0  0  0  0  0  0  0  0  0  0
  -26.5605  -12.7305   20.1693 C   0  0  0  0  0  0  0  0  0  0  0  0
  -28.4966  -12.7952   18.5095 C   0  0  0  0  0  0  0  0  0  0  0  0
  -23.6799  -33.8540   28.8371 C   0  0  0  0  0  0  0  0  0  0  0  0
  -27.3779  -28.8710   23.5780 C   0  0  0  0  0  0  0  0  0  0  0  0
  -24.4181  -32.6613   28.7153 C   0  0  0  0  0  0  0  0  0  0  0  0
  -26.3927  -28.3293   22.7361 C   0  0  0  0  0  0  0  0  0  0  0  0
  -30.9147  -20.0798   20.5492 C   0  0  0  0  0  0  0  0  0  0  0  0
  -24.0038  -11.9948   21.0087 C   0  0  0  0  0  0  0  0  0  0  0  0
  -28.1131  -27.5574   21.2237 C   0  0  0  0  0  0  0  0  0  0  0  0
  -22.5616  -10.3227   21.8126 C   0  0  0  0  0  0  0  0  0  0  0  0
  -22.1682   -7.6763   22.6027 C   0  0  0  0  0  0  0  0  0  0  0  0
  -31.8809  -22.2802   20.6438 C   0  0  0  0  0  0  0  0  0  0  0  0
  -22.1318  -10.0384   23.1088 C   0  0  0  0  0  0  0  0  0  0  0  0
  -27.8813  -13.1097   19.7360 C   0  0  0  0  0  0  0  0  0  0  0  0
  -30.8341  -22.7152   19.8470 C   0  0  0  0  0  0  0  0  0  0  0  0
  -29.7357  -13.3828   18.5863 C   0  0  0  0  0  0  0  0  0  0  0  0
  -31.8417  -24.7233   18.7720 C   0  0  0  0  0  0  0  0  0  0  0  0
  -32.7044  -24.1173   17.9330 C   0  0  0  0  0  0  0  0  0  0  0  0
  -27.9931  -12.0395   17.3999 C   0  0  0  0  0  0  0  0  0  0  0  0
  -24.8437  -30.1683   26.0215 C   0  0  0  0  0  0  0  0  0  0  0  0
  -23.7188  -30.6817   23.2141 C   0  0  0  0  0  0  0  0  0  0  0  0
  -23.0305  -31.4453   19.9613 C   0  0  0  0  0  0  0  0  0  0  0  0
  -31.8630  -18.0350   21.6744 C   0  0  0  0  0  0  0  0  0  0  0  0
  -22.3019  -33.9984   28.2413 C   0  0  0  0  0  0  0  0  0  0  0  0
  -26.9422  -29.5085   24.8693 C   0  0  0  0  0  0  0  0  0  0  0  0
  -24.9546  -28.4613   23.1571 C   0  0  0  0  0  0  0  0  0  0  0  0
  -31.9633  -26.2257   18.9386 C   0  0  0  0  0  0  0  0  0  0  0  0
  -21.9895  -32.9571   27.1696 C   0  0  0  0  0  0  0  0  0  0  0  0
  -30.6084  -26.9160   18.9904 C   0  0  0  0  0  0  0  0  0  0  0  0
  -33.0711  -14.6870   21.7657 C   0  0  0  0  0  0  0  0  0  0  0  0
  -22.3943  -31.5650   27.6438 C   0  0  0  0  0  0  0  0  0  0  0  0
  -31.9359  -13.8747   21.1384 C   0  0  0  0  0  0  0  0  0  0  0  0
  -32.5407  -15.8384   22.6181 C   0  0  0  0  0  0  0  0  0  0  0  0
  -30.4536  -15.9143   21.3115 C   0  0  0  0  0  0  0  0  0  0  0  0
  -29.5418  -24.7850   19.7829 C   0  0  0  0  0  0  0  0  0  0  0  0
  -23.9029  -31.4892   27.9085 C   0  0  1  0  0  0  0  0  0  0  0  0
  -25.6197  -30.2856   24.7426 C   0  0  1  0  0  0  0  0  0  0  0  0
  -30.9394  -14.7826   20.3912 C   0  0  2  0  0  0  0  0  0  0  0  0
  -29.7400  -26.2737   20.0615 C   0  0  2  0  0  0  0  0  0  1  0  0
  -21.2925  -32.5411   18.5205 C   0  0  0  0  0  0  0  0  0  0  0  0
  -21.9354  -28.2241   23.5025 C   0  0  0  0  0  0  0  0  0  0  0  0
  -20.7628  -28.9161   21.4015 C   0  0  0  0  0  0  0  0  0  0  0  0
  -20.7062  -30.3999   23.4059 C   0  0  0  0  0  0  0  0  0  0  0  0
  -24.9447  -33.4906   19.0066 C   0  0  0  0  0  0  0  0  0  0  0  0
  -22.8520  -30.1793   22.0873 C   0  0  1  0  0  0  0  0  0  0  0  0
  -22.5817  -32.7374   19.3030 C   0  0  2  0  0  0  0  0  0  0  0  0
  -21.5922  -29.4256   22.5995 C   0  0  0  0  0  0  0  0  0  0  0  0
  -29.8448  -21.9135   19.3929 N   0  0  0  0  0  0  0  0  0  0  0  0
  -28.6650  -13.8403   20.5336 N   0  0  0  0  0  0  0  0  0  0  0  0
  -29.7854  -13.9896   19.8067 N   0  0  0  0  0  0  0  0  0  0  0  0
  -30.8114  -24.0944   19.4919 N   0  0  0  0  0  0  0  0  0  0  0  0
  -24.7082  -29.8114   23.6874 N   0  0  0  0  0  0  0  0  0  0  0  0
  -31.6064  -16.6579   21.8433 N   0  0  0  0  0  0  0  0  0  0  0  0
  -30.7767  -13.4344   17.7283 N   0  0  0  0  0  0  0  0  0  0  0  0
  -26.6999  -11.5063   17.4866 N   0  0  0  0  0  0  0  0  0  0  0  0
  -30.9231  -18.7049   20.8918 N   0  0  0  0  0  0  0  0  0  0  0  0
  -24.6294  -31.3737   26.6622 N   0  0  0  0  0  0  0  0  0  0  0  0
  -22.5565  -31.3381   21.2517 N   0  0  0  0  0  0  0  0  0  0  0  0
  -23.6295  -33.2324   18.3659 N   0  3  0  0  0  0  0  0  0  0  0  0
  -28.6762  -11.8290   16.3691 O   0  0  0  0  0  0  0  0  0  0  0  0
  -24.4651  -29.0658   26.3995 O   0  0  0  0  0  0  0  0  0  0  0  0
  -23.5224  -31.8125   23.6680 O   0  0  0  0  0  0  0  0  0  0  0  0
  -23.7284  -30.6125   19.3870 O   0  0  0  0  0  0  0  0  0  0  0  0
  -32.8588  -18.5744   22.1636 O   0  0  0  0  0  0  0  0  0  0  0  0
  -22.7565  -11.6358   21.4186 O   0  0  0  0  0  0  0  0  0  0  0  0
  -28.4756  -26.9287   20.0712 O   0  0  0  0  0  0  0  0  0  1  0  0
  -21.9779   -6.4056   22.9815 F   0  0  0  0  0  0  0  0  0  0  0  0
  -32.8373  -23.1163   21.0676 F   0  0  0  0  0  0  0  0  0  0  0  0
  -21.9051  -11.0323   23.9786 F   0  0  0  0  0  0  0  0  0  0  0  0
  1  2  1  0  0  0  0
  1  5  2  0  0  0  0
  2  6  2  0  0  0  0
  3  8  2  0  0  0  0
  3 17  1  0  0  0  0
  4  9  1  0  0  0  0
  4 17  2  0  0  0  0
  5 19  1  0  0  0  0
  6 21  1  0  0  0  0
  7 10  2  0  0  0  0
  7 20  1  0  0  0  0
  8 24  1  0  0  0  0
  9 24  2  0  0  0  0
 10 25  1  0  0  0  0
 11 12  2  0  0  0  0
 11 26  1  0  0  0  0
 12 27  1  0  0  0  0
 13 22  1  0  0  0  0
 13 25  2  0  0  0  0
 14 23  2  0  0  0  0
 14 28  1  0  0  0  0
 15 27  2  0  0  0  0
 15 29  1  0  0  0  0
 16 23  1  0  0  0  0
 16 64  2  0  0  0  0
 17 30  1  0  0  0  0
 18 30  1  0  0  0  0
 18 32  2  0  0  0  0
 18 35  1  0  0  0  0
 19 21  2  0  0  0  0
 19 40  1  0  0  0  0
 20 22  2  0  0  0  0
 20 41  1  0  0  0  0
 21 52  1  0  0  0  0
 22 42  1  0  0  0  0
 23 72  1  0  0  0  0
 24 81  1  0  0  0  0
 25 82  1  0  0  0  0
 26 29  2  0  0  0  0
 26 81  1  0  0  0  0
 27 83  1  0  0  0  0
 28 31  2  0  0  0  0
 28 84  1  0  0  0  0
 29 85  1  0  0  0  0
 30 65  2  0  0  0  0
 31 64  1  0  0  0  0
 31 67  1  0  0  0  0
 32 66  1  0  0  0  0
 32 70  1  0  0  0  0
 33 34  2  0  0  0  0
 33 43  1  0  0  0  0
 33 67  1  0  0  0  0
 35 71  1  0  0  0  0
 35 76  2  0  0  0  0
 36 53  1  0  0  0  0
 36 73  1  0  0  0  0
 36 77  2  0  0  0  0
 37 61  1  0  0  0  0
 37 68  1  0  0  0  0
 37 78  2  0  0  0  0
 38 62  1  0  0  0  0
 38 74  1  0  0  0  0
 38 79  2  0  0  0  0
 39 69  1  0  0  0  0
 39 72  1  0  0  0  0
 39 80  2  0  0  0  0
 40 44  1  0  0  0  0
 41 53  1  0  0  0  0
 42 68  1  0  0  0  0
 43 45  1  0  0  0  0
 44 47  1  0  0  0  0
 45 55  1  0  0  0  0
 46 48  1  0  0  0  0
 46 49  1  0  0  0  0
 47 52  1  0  0  0  0
 48 54  1  0  0  0  0
 49 69  1  0  0  0  0
 50 54  1  0  0  0  0
 50 69  1  0  0  0  0
 51 55  1  0  0  0  0
 51 67  1  0  0  0  0
 52 73  1  0  0  0  0
 53 68  1  0  0  0  0
 54 66  1  0  0  0  0
 55 82  1  0  0  0  0
 56 62  1  0  0  0  0
 57 63  1  0  0  0  0
 58 63  1  0  0  0  0
 59 63  1  0  0  0  0
 60 75  1  0  0  0  0
 61 63  1  0  0  0  0
 61 74  1  0  0  0  0
 62 75  1  0  0  0  0
 65 66  1  0  0  0  0
M  CHG  1  75   1
M  ISO  4  39 100  55 101  72 100  82 101
M  END
> <Batch ID>
0061

> <Smiles>
C=C1CC[101CH:1]([101O:1]c2ccc3c(c2)CN(C(=O)C(NC(=O)C(C)NC)C(C)(C)C)C(C(=O)NC2CCCc4ccccc42)C3)CN1c1ncc([100NH:0][100C:0](=O)N2CCCC(n3nc(-c4ccc(Oc5ccc(F)cc5F)cc4)c(C(N)=O)c3N)C2)cc1F

> <Shape>
0.283

> <Color>
0.072

> <Negative vol penalty>
0.000

$$$$

  -OEChem-04042323073D

 84 93  0     1  0  0  0  0  0999 V2000
  -27.5734  -34.6436   23.9570 C   0  0  0  0  0  0  0  0  0  0  0  0
  -27.8765  -33.2989   24.1455 C   0  0  0  0  0  0  0  0  0  0  0  0
  -23.5185   -9.7038   21.6313 C   0  0  0  0  0  0  0  0  0  0  0  0
  -24.1218  -10.8688   23.6600 C   0  0  0  0  0  0  0  0  0  0  0  0
  -26.2592  -35.0312   23.6995 C   0  0  0  0  0  0  0  0  0  0  0  0
  -26.8653  -32.3413   24.0777 C   0  0  0  0  0  0  0  0  0  0  0  0
  -28.2126  -28.2819   21.3665 C   0  0  0  0  0  0  0  0  0  0  0  0
  -31.8247  -19.3474   21.2082 C   0  0  0  0  0  0  0  0  0  0  0  0
  -29.5184  -20.0556   21.3372 C   0  0  0  0  0  0  0  0  0  0  0  0
  -31.4118  -18.0740   20.8164 C   0  0  0  0  0  0  0  0  0  0  0  0
  -29.1055  -18.7822   20.9454 C   0  0  0  0  0  0  0  0  0  0  0  0
  -22.9089   -8.7027   22.3874 C   0  0  0  0  0  0  0  0  0  0  0  0
  -23.5121   -9.8677   24.4162 C   0  0  0  0  0  0  0  0  0  0  0  0
  -29.0438  -27.3497   21.9860 C   0  0  0  0  0  0  0  0  0  0  0  0
  -19.9947   -8.2573   24.0432 C   0  0  0  0  0  0  0  0  0  0  0  0
  -18.7378   -7.8111   23.6349 C   0  0  0  0  0  0  0  0  0  0  0  0
  -27.1300  -25.9527   22.4385 C   0  0  0  0  0  0  0  0  0  0  0  0
  -19.6187   -5.5778   23.3637 C   0  0  0  0  0  0  0  0  0  0  0  0
  -24.1250  -10.7869   22.2676 C   0  0  0  0  0  0  0  0  0  0  0  0
  -24.1579  -12.9951   20.9908 C   0  0  0  0  0  0  0  0  0  0  0  0
  -25.2329  -34.0769   23.6189 C   0  0  0  0  0  0  0  0  0  0  0  0
  -26.8300  -28.0612   21.2878 C   0  0  0  0  0  0  0  0  0  0  0  0
  -25.5358  -32.7167   23.8202 C   0  0  0  0  0  0  0  0  0  0  0  0
  -26.2837  -26.8824   21.8152 C   0  0  0  0  0  0  0  0  0  0  0  0
  -30.8780  -20.3382   21.4687 C   0  0  0  0  0  0  0  0  0  0  0  0
  -30.0522  -17.7914   20.6849 C   0  0  0  0  0  0  0  0  0  0  0  0
  -22.9057   -8.7846   23.7798 C   0  0  0  0  0  0  0  0  0  0  0  0
  -28.5022  -26.1862   22.5247 C   0  0  0  0  0  0  0  0  0  0  0  0
  -21.0637   -7.3637   24.1117 C   0  0  0  0  0  0  0  0  0  0  0  0
  -18.5498   -6.4714   23.2952 C   0  0  0  0  0  0  0  0  0  0  0  0
  -20.8756   -6.0240   23.7720 C   0  0  0  0  0  0  0  0  0  0  0  0
  -24.7554  -11.8210   21.4871 C   0  0  0  0  0  0  0  0  0  0  0  0
  -25.1698  -13.6388   20.3213 C   0  0  0  0  0  0  0  0  0  0  0  0
  -32.6273  -22.0757   22.0457 C   0  0  0  0  0  0  0  0  0  0  0  0
  -22.8088  -13.4621   21.1232 C   0  0  0  0  0  0  0  0  0  0  0  0
  -24.2528  -29.5609   22.3891 C   0  0  0  0  0  0  0  0  0  0  0  0
  -22.6839  -27.3484   20.6099 C   0  0  0  0  0  0  0  0  0  0  0  0
  -22.7100  -24.2749   19.1267 C   0  0  0  0  0  0  0  0  0  0  0  0
  -30.4411  -15.4013   19.9903 C   0  0  0  0  0  0  0  0  0  0  0  0
  -23.8196  -34.5487   23.3851 C   0  0  0  0  0  0  0  0  0  0  0  0
  -25.9504  -29.0639   20.5926 C   0  0  0  0  0  0  0  0  0  0  0  0
  -24.8084  -26.5886   21.7387 C   0  0  0  0  0  0  0  0  0  0  0  0
  -32.5794  -23.5502   22.3751 C   0  0  0  0  0  0  0  0  0  0  0  0
  -22.8682  -33.4340   22.9577 C   0  0  0  0  0  0  0  0  0  0  0  0
  -29.7904  -12.0406   19.0108 C   0  0  0  0  0  0  0  0  0  0  0  0
  -23.0486  -32.2079   23.8470 C   0  0  0  0  0  0  0  0  0  0  0  0
  -28.3733  -11.7805   19.5269 C   0  0  0  0  0  0  0  0  0  0  0  0
  -30.5904  -12.9209   19.9693 C   0  0  0  0  0  0  0  0  0  0  0  0
  -30.3611  -22.7274   22.0759 C   0  0  0  0  0  0  0  0  0  0  0  0
  -28.5230  -13.9236   20.8579 C   0  0  0  0  0  0  0  0  0  0  0  0
  -24.4705  -31.6457   23.7296 C   0  0  1  0  0  0  0  0  0  0  0  0
  -24.4897  -28.9783   21.0245 C   0  0  1  0  0  0  0  0  0  0  0  0
  -31.1528  -23.7612   22.8619 C   0  0  2  0  0  0  0  0  0  0  0  0
  -27.6574  -13.0949   19.8947 C   0  0  2  0  0  0  0  0  0  0  0  0
  -21.2689  -22.7275   17.7754 C   0  0  0  0  0  0  0  0  0  0  0  0
  -21.0983  -26.6384   23.1183 C   0  0  0  0  0  0  0  0  0  0  0  0
  -20.3934  -24.5184   21.9882 C   0  0  0  0  0  0  0  0  0  0  0  0
  -19.7444  -26.7227   21.0173 C   0  0  0  0  0  0  0  0  0  0  0  0
  -24.6121  -24.2959   16.8595 C   0  0  0  0  0  0  0  0  0  0  0  0
  -30.6534  -25.1806   22.6550 C   0  0  0  0  0  0  0  0  0  1  0  0
  -22.1493  -25.9589   20.8600 C   0  0  1  0  0  0  0  0  0  0  0  0
  -22.3184  -23.8271   17.7301 C   0  0  2  0  0  0  0  0  0  0  0  0
  -20.8740  -25.9657   21.7493 C   0  0  0  0  0  0  0  0  0  0  0  0
  -26.0468  -11.7220   21.1606 N   0  0  0  0  0  0  0  0  0  0  0  0
  -26.2690  -12.8420   20.4519 N   0  0  0  0  0  0  0  0  0  0  0  0
  -31.3002  -21.6409   21.8699 N   0  0  0  0  0  0  0  0  0  0  0  0
  -23.9890  -27.6026   21.0548 N   0  0  0  0  0  0  0  0  0  0  0  0
  -29.8523  -14.1498   20.2691 N   0  0  0  0  0  0  0  0  0  0  0  0
  -25.2176  -14.8029   19.6394 N   0  0  0  0  0  0  0  0  0  0  0  0
  -21.8979  -12.6777   21.8437 N   0  0  0  0  0  0  0  0  0  0  0  0
  -29.6324  -16.4979   20.2869 N   0  0  0  0  0  0  0  0  0  0  0  0
  -24.6154  -30.8893   22.5043 N   0  0  0  0  0  0  0  0  0  0  0  0
  -21.9590  -25.3523   19.5469 N   0  0  0  0  0  0  0  0  0  0  0  0
  -23.5096  -23.3100   16.9989 N   0  3  0  0  0  0  0  0  0  0  0  0
  -33.6793  -21.4665   21.9160 O   0  0  0  0  0  0  0  0  0  0  0  0
  -22.4184  -14.5351   20.6037 O   0  0  0  0  0  0  0  0  0  0  0  0
  -23.7751  -28.8577   23.2717 O   0  0  0  0  0  0  0  0  0  0  0  0
  -21.9723  -28.1756   20.0344 O   0  0  0  0  0  0  0  0  0  0  0  0
  -23.5911  -23.7218   19.7811 O   0  0  0  0  0  0  0  0  0  0  0  0
  -31.5684  -15.4927   19.4975 O   0  0  0  0  0  0  0  0  0  0  0  0
  -22.3107   -7.8081   24.5179 O   0  0  0  0  0  0  0  0  0  0  0  0
  -29.3113  -25.2750   23.1305 O   0  0  0  0  0  0  0  0  0  1  0  0
  -17.3423   -6.0428   22.9047 F   0  0  0  0  0  0  0  0  0  0  0  0
  -21.8984   -5.1606   23.8369 F   0  0  0  0  0  0  0  0  0  0  0  0
  1  2  1  0  0  0  0
  1  5  2  0  0  0  0
  2  6  2  0  0  0  0
  3 12  2  0  0  0  0
  3 19  1  0  0  0  0
  4 13  1  0  0  0  0
  4 19  2  0  0  0  0
  5 21  1  0  0  0  0
  6 23  1  0  0  0  0
  7 14  2  0  0  0  0
  7 22  1  0  0  0  0
  8 10  2  0  0  0  0
  8 25  1  0  0  0  0
  9 11  1  0  0  0  0
  9 25  2  0  0  0  0
 10 26  1  0  0  0  0
 11 26  2  0  0  0  0
 12 27  1  0  0  0  0
 13 27  2  0  0  0  0
 14 28  1  0  0  0  0
 15 16  2  0  0  0  0
 15 29  1  0  0  0  0
 16 30  1  0  0  0  0
 17 24  1  0  0  0  0
 17 28  2  0  0  0  0
 18 30  2  0  0  0  0
 18 31  1  0  0  0  0
 19 32  1  0  0  0  0
 20 32  1  0  0  0  0
 20 33  2  0  0  0  0
 20 35  1  0  0  0  0
 21 23  2  0  0  0  0
 21 40  1  0  0  0  0
 22 24  2  0  0  0  0
 22 41  1  0  0  0  0
 23 51  1  0  0  0  0
 24 42  1  0  0  0  0
 25 66  1  0  0  0  0
 26 71  1  0  0  0  0
 27 81  1  0  0  0  0
 28 82  1  0  0  0  0
 29 31  2  0  0  0  0
 29 81  1  0  0  0  0
 30 83  1  0  0  0  0
 31 84  1  0  0  0  0
 32 64  2  0  0  0  0
 33 65  1  0  0  0  0
 33 69  1  0  0  0  0
 34 43  1  0  0  0  0
 34 66  1  0  0  0  0
 34 75  2  0  0  0  0
 35 70  1  0  0  0  0
 35 76  2  0  0  0  0
 36 52  1  0  0  0  0
 36 72  1  0  0  0  0
 36 77  2  0  0  0  0
 37 61  1  0  0  0  0
 37 67  1  0  0  0  0
 37 78  2  0  0  0  0
 38 62  1  0  0  0  0
 38 73  1  0  0  0  0
 38 79  2  0  0  0  0
 39 68  1  0  0  0  0
 39 71  1  0  0  0  0
 39 80  2  0  0  0  0
 40 44  1  0  0  0  0
 41 52  1  0  0  0  0
 42 67  1  0  0  0  0
 43 53  1  0  0  0  0
 44 46  1  0  0  0  0
 45 47  1  0  0  0  0
 45 48  1  0  0  0  0
 46 51  1  0  0  0  0
 47 54  1  0  0  0  0
 48 68  1  0  0  0  0
 49 53  1  0  0  0  0
 49 66  1  0  0  0  0
 50 54  1  0  0  0  0
 50 68  1  0  0  0  0
 51 72  1  0  0  0  0
 52 67  1  0  0  0  0
 53 60  1  0  0  0  0
 54 65  1  0  0  0  0
 55 62  1  0  0  0  0
 56 63  1  0  0  0  0
 57 63  1  0  0  0  0
 58 63  1  0  0  0  0
 59 74  1  0  0  0  0
 60 82  1  0  0  0  0
 61 63  1  0  0  0  0
 61 73  1  0  0  0  0
 62 74  1  0  0  0  0
 64 65  1  0  0  0  0
M  CHG  1  74   1
M  ISO  4  39 100  60 101  71 100  82 101
M  END
> <Batch ID>
0061

> <Smiles>
CNC(C)C(=O)NC(C(=O)N1Cc2cc([101O:1][101CH2:1]C3CC(=O)N(c4ccc([100NH:0][100C:0](=O)N5CCCC(n6nc(-c7ccc(Oc8ccc(F)cc8F)cc7)c(C(N)=O)c6N)C5)cc4)C3)ccc2CC1C(=O)NC1CCCc2ccccc21)C(C)(C)C

> <Shape>
0.274

> <Color>
0.138

> <Negative vol penalty>
0.000

$$$$

  -OEChem-04042323073D

 84 92  0     1  0  0  0  0  0999 V2000
  -26.0278  -29.4985   27.9494 C   0  0  0  0  0  0  0  0  0  0  0  0
  -25.6299  -28.6201   26.9466 C   0  0  0  0  0  0  0  0  0  0  0  0
  -25.6696  -18.9882   16.3110 C   0  0  0  0  0  0  0  0  0  0  0  0
  -23.0621  -10.1939   19.8825 C   0  0  0  0  0  0  0  0  0  0  0  0
  -23.8730   -9.7722   22.1189 C   0  0  0  0  0  0  0  0  0  0  0  0
  -26.7885  -18.1588   16.3865 C   0  0  0  0  0  0  0  0  0  0  0  0
  -25.6239  -30.8323   27.9069 C   0  0  0  0  0  0  0  0  0  0  0  0
  -24.8269  -29.0748   25.9012 C   0  0  0  0  0  0  0  0  0  0  0  0
  -26.4034  -27.4243   21.3807 C   0  0  0  0  0  0  0  0  0  0  0  0
  -25.5931  -20.1305   17.1079 C   0  0  0  0  0  0  0  0  0  0  0  0
  -22.2685   -9.0491   19.9543 C   0  0  0  0  0  0  0  0  0  0  0  0
  -23.0793   -8.6274   22.1908 C   0  0  0  0  0  0  0  0  0  0  0  0
  -26.0913  -26.1092   21.0388 C   0  0  0  0  0  0  0  0  0  0  0  0
  -19.8304   -7.8819   22.7467 C   0  0  0  0  0  0  0  0  0  0  0  0
  -19.0990   -7.6746   23.9162 C   0  0  0  0  0  0  0  0  0  0  0  0
  -24.2513  -26.9016   19.6950 C   0  0  0  0  0  0  0  0  0  0  0  0
  -20.2602   -5.5861   24.2723 C   0  0  0  0  0  0  0  0  0  0  0  0
  -23.8644  -10.5554   20.9647 C   0  0  0  0  0  0  0  0  0  0  0  0
  -27.8310  -18.4717   17.2589 C   0  0  0  0  0  0  0  0  0  0  0  0
  -24.3268  -13.0458   21.2676 C   0  0  0  0  0  0  0  0  0  0  0  0
  -24.8234  -31.3058   26.8554 C   0  0  0  0  0  0  0  0  0  0  0  0
  -25.6337  -28.4890   20.8903 C   0  0  0  0  0  0  0  0  0  0  0  0
  -24.4107  -30.4159   25.8454 C   0  0  0  0  0  0  0  0  0  0  0  0
  -24.5572  -28.2294   20.0302 C   0  0  0  0  0  0  0  0  0  0  0  0
  -27.7545  -19.6140   18.0558 C   0  0  0  0  0  0  0  0  0  0  0  0
  -26.6355  -20.4433   17.9803 C   0  0  0  0  0  0  0  0  0  0  0  0
  -22.2770   -8.2659   21.1085 C   0  0  0  0  0  0  0  0  0  0  0  0
  -25.0134  -25.8475   20.1981 C   0  0  0  0  0  0  0  0  0  0  0  0
  -20.7767   -6.9412   22.3400 C   0  0  0  0  0  0  0  0  0  0  0  0
  -19.3139   -6.5268   24.6790 C   0  0  0  0  0  0  0  0  0  0  0  0
  -20.9916   -5.7934   23.1028 C   0  0  0  0  0  0  0  0  0  0  0  0
  -24.6849  -11.7375   20.8909 C   0  0  0  0  0  0  0  0  0  0  0  0
  -25.4459  -13.7974   21.0045 C   0  0  0  0  0  0  0  0  0  0  0  0
  -29.0095  -17.5690   17.3154 C   0  0  0  0  0  0  0  0  0  0  0  0
  -23.0929  -13.5377   21.8073 C   0  0  0  0  0  0  0  0  0  0  0  0
  -23.8285  -30.7471   22.2116 C   0  0  0  0  0  0  0  0  0  0  0  0
  -23.6520  -31.8430   19.1637 C   0  0  0  0  0  0  0  0  0  0  0  0
  -25.4923  -22.5247   18.8139 C   0  0  0  0  0  0  0  0  0  0  0  0
  -23.8570  -31.1661   15.8250 C   0  0  0  0  0  0  0  0  0  0  0  0
  -29.7001  -15.2345   17.7589 C   0  0  0  0  0  0  0  0  0  0  0  0
  -24.3727  -32.7449   26.8775 C   0  0  0  0  0  0  0  0  0  0  0  0
  -25.9997  -29.9037   21.2471 C   0  0  0  0  0  0  0  0  0  0  0  0
  -23.7120  -29.3383   19.4606 C   0  0  0  0  0  0  0  0  0  0  0  0
  -23.8321  -33.2345   25.5364 C   0  0  0  0  0  0  0  0  0  0  0  0
  -30.1582  -12.3844   19.7995 C   0  0  0  0  0  0  0  0  0  0  0  0
  -22.8610  -32.2157   24.9483 C   0  0  0  0  0  0  0  0  0  0  0  0
  -28.7471  -12.0716   20.3049 C   0  0  0  0  0  0  0  0  0  0  0  0
  -30.1475  -12.8690   18.3504 C   0  0  0  0  0  0  0  0  0  0  0  0
  -27.8323  -13.6730   18.5778 C   0  0  0  0  0  0  0  0  0  0  0  0
  -23.5601  -30.8772   24.6818 C   0  0  1  0  0  0  0  0  0  0  0  0
  -24.8339  -30.8770   21.1026 C   0  0  1  0  0  0  0  0  0  0  0  0
  -27.7827  -13.2483   20.0544 C   0  0  1  0  0  0  0  0  0  0  0  0
  -28.8740  -19.9484   18.9920 C   0  0  0  0  0  0  0  0  0  0  0  0
  -23.6270  -32.2560   13.5763 C   0  0  0  0  0  0  0  0  0  0  0  0
  -20.6153  -31.8043   19.4582 C   0  0  0  0  0  0  0  0  0  0  0  0
  -20.4413  -31.9688   16.9660 C   0  0  0  0  0  0  0  0  0  0  0  0
  -21.5220  -33.8052   18.2630 C   0  0  0  0  0  0  0  0  0  0  0  0
  -26.6669  -30.5642   15.1169 C   0  0  0  0  0  0  0  0  0  0  0  0
  -25.7845  -23.6314   19.8101 C   0  0  0  0  0  0  0  0  0  1  0  0
  -22.7310  -31.6013   17.9923 C   0  0  1  0  0  0  0  0  0  0  0  0
  -24.5830  -31.8754   14.6961 C   0  0  2  0  0  0  0  0  0  0  0  0
  -21.3419  -32.2737   18.1820 C   0  0  0  0  0  0  0  0  0  0  0  0
  -25.9338  -11.6591   20.4238 N   0  0  0  0  0  0  0  0  0  0  0  0
  -26.3702  -12.9276   20.5053 N   0  0  0  0  0  0  0  0  0  0  0  0
  -24.1059  -30.7041   19.8439 N   0  0  0  0  0  0  0  0  0  0  0  0
  -29.2177  -13.9896   18.1992 N   0  0  0  0  0  0  0  0  0  0  0  0
  -25.7196  -15.1109   21.1537 N   0  0  0  0  0  0  0  0  0  0  0  0
  -22.0455  -12.6299   22.0150 N   0  0  0  0  0  0  0  0  0  0  0  0
  -26.5370  -21.6074   18.7788 N   0  0  0  0  0  0  0  0  0  0  0  0
  -28.7416  -16.2516   17.6882 N   0  0  0  0  0  0  0  0  0  0  0  0
  -24.3529  -30.9527   23.4734 N   0  0  0  0  0  0  0  0  0  0  0  0
  -23.4536  -32.0472   16.8060 N   0  0  0  0  0  0  0  0  0  0  0  0
  -25.6443  -30.9959   14.1295 N   0  3  0  0  0  0  0  0  0  0  0  0
  -30.1134  -18.0065   17.0026 O   0  0  0  0  0  0  0  0  0  0  0  0
  -22.9186  -14.7493   22.0813 O   0  0  0  0  0  0  0  0  0  0  0  0
  -22.6629  -30.4814   21.9424 O   0  0  0  0  0  0  0  0  0  0  0  0
  -23.9632  -32.9994   19.4597 O   0  0  0  0  0  0  0  0  0  0  0  0
  -24.4539  -22.5054   18.1613 O   0  0  0  0  0  0  0  0  0  0  0  0
  -23.6636  -29.9524   15.8338 O   0  0  0  0  0  0  0  0  0  0  0  0
  -30.8886  -15.4339   17.4888 O   0  0  0  0  0  0  0  0  0  0  0  0
  -21.5025   -7.1488   21.1791 O   0  0  0  0  0  0  0  0  0  0  0  0
  -24.7063  -24.5647   19.8633 O   0  0  0  0  0  0  0  0  0  1  0  0
  -18.6126   -6.3286   25.8029 F   0  0  0  0  0  0  0  0  0  0  0  0
  -21.9002   -4.8868   22.7177 F   0  0  0  0  0  0  0  0  0  0  0  0
  1  2  1  0  0  0  0
  1  7  2  0  0  0  0
  2  8  2  0  0  0  0
  3  6  1  0  0  0  0
  3 10  2  0  0  0  0
  4 11  2  0  0  0  0
  4 18  1  0  0  0  0
  5 12  1  0  0  0  0
  5 18  2  0  0  0  0
  6 19  2  0  0  0  0
  7 21  1  0  0  0  0
  8 23  1  0  0  0  0
  9 13  2  0  0  0  0
  9 22  1  0  0  0  0
 10 26  1  0  0  0  0
 11 27  1  0  0  0  0
 12 27  2  0  0  0  0
 13 28  1  0  0  0  0
 14 15  2  0  0  0  0
 14 29  1  0  0  0  0
 15 30  1  0  0  0  0
 16 24  1  0  0  0  0
 16 28  2  0  0  0  0
 17 30  2  0  0  0  0
 17 31  1  0  0  0  0
 18 32  1  0  0  0  0
 19 25  1  0  0  0  0
 19 34  1  0  0  0  0
 20 32  1  0  0  0  0
 20 33  2  0  0  0  0
 20 35  1  0  0  0  0
 21 23  2  0  0  0  0
 21 41  1  0  0  0  0
 22 24  2  0  0  0  0
 22 42  1  0  0  0  0
 23 50  1  0  0  0  0
 24 43  1  0  0  0  0
 25 26  2  0  0  0  0
 25 53  1  0  0  0  0
 26 69  1  0  0  0  0
 27 81  1  0  0  0  0
 28 82  1  0  0  0  0
 29 31  2  0  0  0  0
 29 81  1  0  0  0  0
 30 83  1  0  0  0  0
 31 84  1  0  0  0  0
 32 63  2  0  0  0  0
 33 64  1  0  0  0  0
 33 67  1  0  0  0  0
 34 70  1  0  0  0  0
 34 74  2  0  0  0  0
 35 68  1  0  0  0  0
 35 75  2  0  0  0  0
 36 51  1  0  0  0  0
 36 71  1  0  0  0  0
 36 76  2  0  0  0  0
 37 60  1  0  0  0  0
 37 65  1  0  0  0  0
 37 77  2  0  0  0  0
 38 59  1  0  0  0  0
 38 69  1  0  0  0  0
 38 78  2  0  0  0  0
 39 61  1  0  0  0  0
 39 72  1  0  0  0  0
 39 79  2  0  0  0  0
 40 66  1  0  0  0  0
 40 70  1  0  0  0  0
 40 80  2  0  0  0  0
 41 44  1  0  0  0  0
 42 51  1  0  0  0  0
 43 65  1  0  0  0  0
 44 46  1  0  0  0  0
 45 47  1  0  0  0  0
 45 48  1  0  0  0  0
 46 50  1  0  0  0  0
 47 52  1  0  0  0  0
 48 66  1  0  0  0  0
 49 52  1  0  0  0  0
 49 66  1  0  0  0  0
 50 71  1  0  0  0  0
 51 65  1  0  0  0  0
 52 64  1  0  0  0  0
 54 61  1  0  0  0  0
 55 62  1  0  0  0  0
 56 62  1  0  0  0  0
 57 62  1  0  0  0  0
 58 73  1  0  0  0  0
 59 82  1  0  0  0  0
 60 62  1  0  0  0  0
 60 72  1  0  0  0  0
 61 73  1  0  0  0  0
 63 64  1  0  0  0  0
M  CHG  1  73   1
M  ISO  4  40 100  59 101  70 100  82 101
M  END
> <Batch ID>
0061

> <Smiles>
CNC(C)C(=O)NC(C(=O)N1Cc2cc([101O:1][101CH2:1]C(=O)Nc3cccc(C(=O)[100NH:0][100C:0](=O)N4CCCC(n5nc(-c6ccc(Oc7ccc(F)cc7F)cc6)c(C(N)=O)c5N)C4)c3C)ccc2CC1C(=O)NC1CCCc2ccccc21)C(C)(C)C

> <Shape>
0.246

> <Color>
0.149

> <Negative vol penalty>
0.000

$$$$

  -OEChem-04042323073D

 87 96  0     1  0  0  0  0  0999 V2000
  -19.7545  -25.0858   24.2496 C   0  0  0  0  0  0  0  0  0  0  0  0
  -20.6998  -25.0941   23.2290 C   0  0  0  0  0  0  0  0  0  0  0  0
  -28.9257  -16.0275   19.9282 C   0  0  0  0  0  0  0  0  0  0  0  0
  -27.4928  -16.3213   18.0054 C   0  0  0  0  0  0  0  0  0  0  0  0
  -18.9662  -26.2131   24.4773 C   0  0  0  0  0  0  0  0  0  0  0  0
  -20.8565  -26.2294   22.4346 C   0  0  0  0  0  0  0  0  0  0  0  0
  -25.7211  -27.4315   21.7025 C   0  0  0  0  0  0  0  0  0  0  0  0
  -25.5153  -20.4130   18.7553 C   0  0  0  0  0  0  0  0  0  0  0  0
  -24.6407  -19.4302   19.2185 C   0  0  0  0  0  0  0  0  0  0  0  0
  -29.7957  -16.9962   19.4280 C   0  0  0  0  0  0  0  0  0  0  0  0
  -28.3627  -17.2902   17.5052 C   0  0  0  0  0  0  0  0  0  0  0  0
  -26.4269  -26.6840   20.7608 C   0  0  0  0  0  0  0  0  0  0  0  0
  -31.3229  -17.3767   15.8741 C   0  0  0  0  0  0  0  0  0  0  0  0
  -31.6551  -17.3128   14.5210 C   0  0  0  0  0  0  0  0  0  0  0  0
  -26.1307  -28.4507   19.1452 C   0  0  0  0  0  0  0  0  0  0  0  0
  -26.8862  -20.1208   20.7231 C   0  0  0  0  0  0  0  0  0  0  0  0
  -30.7240  -19.5172   14.1882 C   0  0  0  0  0  0  0  0  0  0  0  0
  -27.7743  -15.6900   19.2169 C   0  0  0  0  0  0  0  0  0  0  0  0
  -27.1729  -13.3410   20.0095 C   0  0  0  0  0  0  0  0  0  0  0  0
  -19.1201  -27.3662   23.6916 C   0  0  0  0  0  0  0  0  0  0  0  0
  -25.2045  -28.6918   21.3686 C   0  0  0  0  0  0  0  0  0  0  0  0
  -20.0686  -27.3727   22.6511 C   0  0  0  0  0  0  0  0  0  0  0  0
  -25.4209  -29.2133   20.0852 C   0  0  0  0  0  0  0  0  0  0  0  0
  -26.0116  -19.1380   21.1864 C   0  0  0  0  0  0  0  0  0  0  0  0
  -26.6381  -20.7583   19.5075 C   0  0  0  0  0  0  0  0  0  0  0  0
  -24.8888  -18.7927   20.4341 C   0  0  0  0  0  0  0  0  0  0  0  0
  -29.5142  -17.6276   18.2165 C   0  0  0  0  0  0  0  0  0  0  0  0
  -26.6293  -27.1923   19.4811 C   0  0  0  0  0  0  0  0  0  0  0  0
  -30.6912  -18.5109   16.3844 C   0  0  0  0  0  0  0  0  0  0  0  0
  -31.3557  -18.3830   13.6780 C   0  0  0  0  0  0  0  0  0  0  0  0
  -30.3917  -19.5811   15.5414 C   0  0  0  0  0  0  0  0  0  0  0  0
  -26.8755  -14.6889   19.7328 C   0  0  0  0  0  0  0  0  0  0  0  0
  -25.9919  -12.8177   20.4765 C   0  0  0  0  0  0  0  0  0  0  0  0
  -27.5648  -24.1351   18.4100 C   0  0  0  0  0  0  0  0  0  0  0  0
  -28.9164  -21.7396   19.3481 C   0  0  0  0  0  0  0  0  0  0  0  0
  -28.4063  -12.6258   19.8579 C   0  0  0  0  0  0  0  0  0  0  0  0
  -26.8262  -25.2375   18.2120 C   0  0  0  0  0  0  0  0  0  1  0  0
  -22.2909  -29.9535   21.2181 C   0  0  0  0  0  0  0  0  0  0  0  0
  -23.9303  -32.6919   20.6386 C   0  0  0  0  0  0  0  0  0  0  0  0
  -26.7949  -34.1723   19.5209 C   0  0  0  0  0  0  0  0  0  0  0  0
  -22.8348  -17.3451   20.2498 C   0  0  0  0  0  0  0  0  0  0  0  0
  -18.2123  -28.5436   23.9449 C   0  0  0  0  0  0  0  0  0  0  0  0
  -24.4684  -29.4971   22.4040 C   0  0  0  0  0  0  0  0  0  0  0  0
  -24.9043  -30.5698   19.6830 C   0  0  0  0  0  0  0  0  0  0  0  0
  -28.9386  -24.2166   19.0128 C   0  0  0  0  0  0  0  0  0  0  0  0
  -27.0597  -22.7611   18.0500 C   0  0  0  0  0  0  0  0  0  0  0  0
  -29.6984  -22.9170   18.7930 C   0  0  0  0  0  0  0  0  0  0  0  0
  -18.7002  -29.8386   23.3003 C   0  0  0  0  0  0  0  0  0  0  0  0
  -21.3067  -13.8986   19.8718 C   0  0  0  0  0  0  0  0  0  0  0  0
  -19.1217  -29.5899   21.8555 C   0  0  0  0  0  0  0  0  0  0  0  0
  -22.7158  -13.3329   19.7174 C   0  0  0  0  0  0  0  0  0  0  0  0
  -21.3301  -15.4271   19.8567 C   0  0  0  0  0  0  0  0  0  0  0  0
  -23.1665  -15.1256   21.4987 C   0  0  0  0  0  0  0  0  0  0  0  0
  -20.2855  -28.5938   21.7841 C   0  0  1  0  0  0  0  0  0  0  0  0
  -23.5436  -30.5478   21.7973 C   0  0  1  0  0  0  0  0  0  0  0  0
  -23.6345  -13.7979   20.8689 C   0  0  2  0  0  0  0  0  0  0  0  0
  -26.3028  -18.4699   22.4909 C   0  0  0  0  0  0  0  0  0  0  0  0
  -25.4550  -25.2194   17.6172 C   0  0  0  0  0  0  0  0  0  0  0  0
  -27.8244  -36.4275   19.1315 C   0  0  0  0  0  0  0  0  0  0  0  0
  -22.2236  -33.0358   18.1328 C   0  0  0  0  0  0  0  0  0  0  0  0
  -23.8886  -34.7165   17.3138 C   0  0  0  0  0  0  0  0  0  0  0  0
  -22.6224  -35.1422   19.4205 C   0  0  0  0  0  0  0  0  0  0  0  0
  -28.9896  -33.6288   21.4306 C   0  0  0  0  0  0  0  0  0  0  0  0
  -24.4440  -33.3891   19.4020 C   0  0  1  0  0  0  0  0  0  0  0  0
  -27.6546  -35.2760   20.1103 C   0  0  2  0  0  0  0  0  0  0  0  0
  -23.3029  -34.0445   18.5740 C   0  0  0  0  0  0  0  0  0  0  0  0
  -25.6053  -15.0023   20.0016 N   0  0  0  0  0  0  0  0  0  0  0  0
  -25.0940  -13.8440   20.4519 N   0  0  0  0  0  0  0  0  0  0  0  0
  -27.5423  -21.7710   19.0277 N   0  0  0  0  0  0  0  0  0  0  0  0
  -24.1853  -31.3162   20.7286 N   0  0  0  0  0  0  0  0  0  0  0  0
  -22.5101  -15.9960   20.5142 N   0  0  0  0  0  0  0  0  0  0  0  0
  -25.6444  -11.5845   20.9017 N   0  0  0  0  0  0  0  0  0  0  0  0
  -29.5222  -13.3155   19.3646 N   0  0  0  0  0  0  0  0  0  0  0  0
  -23.9896  -17.7961   20.8866 N   0  0  0  0  0  0  0  0  0  0  0  0
  -21.5306  -29.2457   22.1294 N   0  0  0  0  0  0  0  0  0  0  0  0
  -25.4663  -34.3255   19.8563 N   0  0  0  0  0  0  0  0  0  0  0  0
  -29.0055  -34.7510   20.4572 N   0  3  0  0  0  0  0  0  0  0  0  0
  -29.5090  -20.8494   19.9571 O   0  0  0  0  0  0  0  0  0  0  0  0
  -28.5113  -11.4071   20.1357 O   0  0  0  0  0  0  0  0  0  0  0  0
  -22.0325  -30.1258   20.0327 O   0  0  0  0  0  0  0  0  0  0  0  0
  -23.3314  -33.3453   21.4964 O   0  0  0  0  0  0  0  0  0  0  0  0
  -27.2554  -33.2671   18.8288 O   0  0  0  0  0  0  0  0  0  0  0  0
  -22.1499  -18.0330   19.4881 O   0  0  0  0  0  0  0  0  0  0  0  0
  -30.3627  -18.5732   17.7282 O   0  0  0  0  0  0  0  0  0  0  0  0
  -27.3174  -26.4645   18.5598 O   0  0  0  0  0  0  0  0  0  1  0  0
  -31.6762  -18.3221   12.3788 F   0  0  0  0  0  0  0  0  0  0  0  0
  -29.7860  -20.6738   16.0260 F   0  0  0  0  0  0  0  0  0  0  0  0
  1  2  1  0  0  0  0
  1  5  2  0  0  0  0
  2  6  2  0  0  0  0
  3 10  2  0  0  0  0
  3 18  1  0  0  0  0
  4 11  1  0  0  0  0
  4 18  2  0  0  0  0
  5 20  1  0  0  0  0
  6 22  1  0  0  0  0
  7 12  2  0  0  0  0
  7 21  1  0  0  0  0
  8  9  2  0  0  0  0
  8 25  1  0  0  0  0
  9 26  1  0  0  0  0
 10 27  1  0  0  0  0
 11 27  2  0  0  0  0
 12 28  1  0  0  0  0
 13 14  2  0  0  0  0
 13 29  1  0  0  0  0
 14 30  1  0  0  0  0
 15 23  1  0  0  0  0
 15 28  2  0  0  0  0
 16 24  1  0  0  0  0
 16 25  2  0  0  0  0
 17 30  2  0  0  0  0
 17 31  1  0  0  0  0
 18 32  1  0  0  0  0
 19 32  1  0  0  0  0
 19 33  2  0  0  0  0
 19 36  1  0  0  0  0
 20 22  2  0  0  0  0
 20 42  1  0  0  0  0
 21 23  2  0  0  0  0
 21 43  1  0  0  0  0
 22 54  1  0  0  0  0
 23 44  1  0  0  0  0
 24 26  2  0  0  0  0
 24 57  1  0  0  0  0
 25 69  1  0  0  0  0
 26 74  1  0  0  0  0
 27 84  1  0  0  0  0
 28 85  1  0  0  0  0
 29 31  2  0  0  0  0
 29 84  1  0  0  0  0
 30 86  1  0  0  0  0
 31 87  1  0  0  0  0
 32 67  2  0  0  0  0
 33 68  1  0  0  0  0
 33 72  1  0  0  0  0
 34 37  2  0  0  0  0
 34 45  1  0  0  0  0
 34 46  1  0  0  0  0
 35 47  1  0  0  0  0
 35 69  1  0  0  0  0
 35 78  2  0  0  0  0
 36 73  1  0  0  0  0
 36 79  2  0  0  0  0
 37 58  1  0  0  0  0
 37 85  1  0  0  0  0
 38 55  1  0  0  0  0
 38 75  1  0  0  0  0
 38 80  2  0  0  0  0
 39 64  1  0  0  0  0
 39 70  1  0  0  0  0
 39 81  2  0  0  0  0
 40 65  1  0  0  0  0
 40 76  1  0  0  0  0
 40 82  2  0  0  0  0
 41 71  1  0  0  0  0
 41 74  1  0  0  0  0
 41 83  2  0  0  0  0
 42 48  1  0  0  0  0
 43 55  1  0  0  0  0
 44 70  1  0  0  0  0
 45 47  1  0  0  0  0
 46 69  1  0  0  0  0
 48 50  1  0  0  0  0
 49 51  1  0  0  0  0
 49 52  1  0  0  0  0
 50 54  1  0  0  0  0
 51 56  1  0  0  0  0
 52 71  1  0  0  0  0
 53 56  1  0  0  0  0
 53 71  1  0  0  0  0
 54 75  1  0  0  0  0
 55 70  1  0  0  0  0
 56 68  1  0  0  0  0
 59 65  1  0  0  0  0
 60 66  1  0  0  0  0
 61 66  1  0  0  0  0
 62 66  1  0  0  0  0
 63 77  1  0  0  0  0
 64 66  1  0  0  0  0
 64 76  1  0  0  0  0
 65 77  1  0  0  0  0
 67 68  1  0  0  0  0
M  CHG  1  77   1
M  ISO  4  37 101  41 100  74 100  85 101
M  END
> <Batch ID>
0061

> <Smiles>
CNC(C)C(=O)NC(C(=O)N1Cc2cc([101O:1][101C:1](C)=C3CCC(=O)N(c4ccc([100NH:0][100C:0](=O)N5CCCC(n6nc(-c7ccc(Oc8ccc(F)cc8F)cc7)c(C(N)=O)c6N)C5)c(C)c4)C3)ccc2CC1C(=O)NC1CCCc2ccccc21)C(C)(C)C

> <Shape>
0.220

> <Color>
0.114

> <Negative vol penalty>
0.000

$$$$

  -OEChem-04042323073D

 86 94  0     1  0  0  0  0  0999 V2000
  -24.5768  -15.7886   17.9953 C   0  0  0  0  0  0  0  0  0  0  0  0
  -23.9270  -16.9029   17.4742 C   0  0  0  0  0  0  0  0  0  0  0  0
  -29.1138  -17.5828   19.2223 C   0  0  0  0  0  0  0  0  0  0  0  0
  -30.2842  -18.0799   21.2766 C   0  0  0  0  0  0  0  0  0  0  0  0
  -24.2020  -15.2829   19.2394 C   0  0  0  0  0  0  0  0  0  0  0  0
  -22.9012  -17.5115   18.1965 C   0  0  0  0  0  0  0  0  0  0  0  0
  -23.3225  -24.4426   20.1132 C   0  0  0  0  0  0  0  0  0  0  0  0
  -28.7902  -28.9574   21.7386 C   0  0  0  0  0  0  0  0  0  0  0  0
  -29.6666  -16.3022   19.2171 C   0  0  0  0  0  0  0  0  0  0  0  0
  -30.8370  -16.7993   21.2715 C   0  0  0  0  0  0  0  0  0  0  0  0
  -23.2334  -25.8171   20.3346 C   0  0  0  0  0  0  0  0  0  0  0  0
  -29.1223  -13.3479   20.7691 C   0  0  0  0  0  0  0  0  0  0  0  0
  -28.2746  -12.2770   20.4859 C   0  0  0  0  0  0  0  0  0  0  0  0
  -28.2776  -30.0357   22.4599 C   0  0  0  0  0  0  0  0  0  0  0  0
  -21.1297  -25.5061   21.4860 C   0  0  0  0  0  0  0  0  0  0  0  0
  -27.7319  -27.4249   23.2775 C   0  0  0  0  0  0  0  0  0  0  0  0
  -29.6355  -11.7056   18.5731 C   0  0  0  0  0  0  0  0  0  0  0  0
  -29.4226  -18.4717   20.2519 C   0  0  0  0  0  0  0  0  0  0  0  0
  -27.6404  -20.1958   20.8511 C   0  0  0  0  0  0  0  0  0  0  0  0
  -23.1776  -15.8915   19.9816 C   0  0  0  0  0  0  0  0  0  0  0  0
  -22.3220  -23.5920   20.5915 C   0  0  0  0  0  0  0  0  0  0  0  0
  -22.5114  -17.0127   19.4510 C   0  0  0  0  0  0  0  0  0  0  0  0
  -21.2198  -24.1271   21.2782 C   0  0  0  0  0  0  0  0  0  0  0  0
  -27.2193  -28.5031   23.9989 C   0  0  0  0  0  0  0  0  0  0  0  0
  -28.5172  -27.6520   22.1474 C   0  0  0  0  0  0  0  0  0  0  0  0
  -30.5282  -15.9104   20.2418 C   0  0  0  0  0  0  0  0  0  0  0  0
  -22.1396  -26.3475   21.0191 C   0  0  0  0  0  0  0  0  0  0  0  0
  -30.2265  -13.5977   19.9543 C   0  0  0  0  0  0  0  0  0  0  0  0
  -28.5312  -11.4559   19.3879 C   0  0  0  0  0  0  0  0  0  0  0  0
  -30.4831  -12.7766   18.8563 C   0  0  0  0  0  0  0  0  0  0  0  0
  -27.4923  -29.8086   23.5900 C   0  0  0  0  0  0  0  0  0  0  0  0
  -28.8523  -19.7949   20.2575 C   0  0  0  0  0  0  0  0  0  0  0  0
  -27.5519  -21.5388   20.5776 C   0  0  0  0  0  0  0  0  0  0  0  0
  -26.6806  -19.4232   21.5844 C   0  0  0  0  0  0  0  0  0  0  0  0
  -21.0614  -20.0742   20.9267 C   0  0  0  0  0  0  0  0  0  0  0  0
  -20.5098  -21.4768   23.5985 C   0  0  0  0  0  0  0  0  0  0  0  0
  -23.1255  -29.5951   22.2794 C   0  0  0  0  0  0  0  0  0  0  0  0
  -24.4817  -31.4389   23.2104 C   0  0  0  0  0  0  0  0  0  0  0  0
  -20.4623  -23.2533   26.5104 C   0  0  0  0  0  0  0  0  0  0  0  0
  -29.8346  -26.6082   20.2709 C   0  0  0  0  0  0  0  0  0  0  0  0
  -22.7754  -15.2805   21.3005 C   0  0  0  0  0  0  0  0  0  0  0  0
  -22.3459  -22.1118   20.3225 C   0  0  0  0  0  0  0  0  0  0  0  0
  -20.1501  -23.1777   21.7443 C   0  0  0  0  0  0  0  0  0  0  0  0
  -21.9321  -16.2093   22.1702 C   0  0  0  0  0  0  0  0  0  0  0  0
  -30.2847  -24.4550   17.4712 C   0  0  0  0  0  0  0  0  0  0  0  0
  -20.8258  -16.8566   21.3431 C   0  0  0  0  0  0  0  0  0  0  0  0
  -29.8525  -23.0836   17.9953 C   0  0  0  0  0  0  0  0  0  0  0  0
  -31.0118  -25.2676   18.5411 C   0  0  0  0  0  0  0  0  0  0  0  0
  -29.8570  -24.0370   20.3359 C   0  0  0  0  0  0  0  0  0  0  0  0
  -21.4107  -17.7156   20.2155 C   0  0  1  0  0  0  0  0  0  0  0  0
  -21.7651  -21.2788   21.4792 C   0  0  1  0  0  0  0  0  0  0  0  0
  -29.0633  -23.2072   19.3135 C   0  0  2  0  0  0  0  0  0  0  0  0
  -26.3833  -28.2087   25.2032 C   0  0  0  0  0  0  0  0  0  0  0  0
  -19.7591  -23.0789   28.9130 C   0  0  0  0  0  0  0  0  0  0  0  0
  -17.5993  -21.8620   22.7709 C   0  0  0  0  0  0  0  0  0  0  0  0
  -17.1095  -22.6196   25.1064 C   0  0  0  0  0  0  0  0  0  0  0  0
  -17.9391  -20.3030   24.6966 C   0  0  0  0  0  0  0  0  0  0  0  0
  -23.2350  -23.6391   27.4706 C   0  0  0  0  0  0  0  0  0  0  0  0
  -23.2927  -28.3986   21.3668 C   0  0  0  0  0  0  0  0  0  1  0  0
  -25.8876  -31.9896   23.1643 C   0  0  0  0  0  0  0  0  0  0  0  0
  -19.5290  -22.2521   24.4413 C   0  0  1  0  0  0  0  0  0  0  0  0
  -20.8949  -22.8901   27.9194 C   0  0  2  0  0  0  0  0  0  0  0  0
  -18.0641  -21.7723   24.2382 C   0  0  0  0  0  0  0  0  0  0  0  0
  -29.4879  -20.8018   19.6523 N   0  0  0  0  0  0  0  0  0  0  0  0
  -28.6723  -21.8486   19.8642 N   0  0  0  0  0  0  0  0  0  0  0  0
  -20.7650  -21.9678   22.3123 N   0  0  0  0  0  0  0  0  0  0  0  0
  -30.2027  -25.3458   19.7593 N   0  0  0  0  0  0  0  0  0  0  0  0
  -26.6256  -22.4732   20.8800 N   0  0  0  0  0  0  0  0  0  0  0  0
  -26.9272  -18.0566   21.7737 N   0  0  0  0  0  0  0  0  0  0  0  0
  -29.0381  -26.5569   21.4144 N   0  0  0  0  0  0  0  0  0  0  0  0
  -21.8837  -18.9801   20.7369 N   0  0  0  0  0  0  0  0  0  0  0  0
  -24.3236  -30.2941   22.4308 N   0  0  0  0  0  0  0  0  0  0  0  0
  -20.0050  -22.1528   25.8168 N   0  0  0  0  0  0  0  0  0  0  0  0
  -22.0394  -23.7438   28.3462 N   0  3  0  0  0  0  0  0  0  0  0  0
  -25.6273  -19.9264   22.0435 O   0  0  0  0  0  0  0  0  0  0  0  0
  -19.8602  -20.1315   20.6909 O   0  0  0  0  0  0  0  0  0  0  0  0
  -21.0326  -20.4600   24.0633 O   0  0  0  0  0  0  0  0  0  0  0  0
  -22.0546  -29.8859   22.8050 O   0  0  0  0  0  0  0  0  0  0  0  0
  -23.5943  -31.9833   23.8648 O   0  0  0  0  0  0  0  0  0  0  0  0
  -20.5204  -24.3994   26.0704 O   0  0  0  0  0  0  0  0  0  0  0  0
  -30.1764  -27.6570   19.7186 O   0  0  0  0  0  0  0  0  0  0  0  0
  -31.0676  -14.6608   20.2372 O   0  0  0  0  0  0  0  0  0  0  0  0
  -22.0611  -27.6898   21.2357 O   0  0  0  0  0  0  0  0  0  1  0  0
  -27.7179  -10.4266   19.1170 F   0  0  0  0  0  0  0  0  0  0  0  0
  -31.5431  -13.0109   18.0706 F   0  0  0  0  0  0  0  0  0  0  0  0
  -26.8656  -31.2078   24.4696 S   0  0  0  0  0  0  0  0  0  0  0  0
  1  2  1  0  0  0  0
  1  5  2  0  0  0  0
  2  6  2  0  0  0  0
  3  9  2  0  0  0  0
  3 18  1  0  0  0  0
  4 10  1  0  0  0  0
  4 18  2  0  0  0  0
  5 20  1  0  0  0  0
  6 22  1  0  0  0  0
  7 11  2  0  0  0  0
  7 21  1  0  0  0  0
  8 14  2  0  0  0  0
  8 25  1  0  0  0  0
  9 26  1  0  0  0  0
 10 26  2  0  0  0  0
 11 27  1  0  0  0  0
 12 13  2  0  0  0  0
 12 28  1  0  0  0  0
 13 29  1  0  0  0  0
 14 31  1  0  0  0  0
 15 23  1  0  0  0  0
 15 27  2  0  0  0  0
 16 24  1  0  0  0  0
 16 25  2  0  0  0  0
 17 29  2  0  0  0  0
 17 30  1  0  0  0  0
 18 32  1  0  0  0  0
 19 32  1  0  0  0  0
 19 33  2  0  0  0  0
 19 34  1  0  0  0  0
 20 22  2  0  0  0  0
 20 41  1  0  0  0  0
 21 23  2  0  0  0  0
 21 42  1  0  0  0  0
 22 50  1  0  0  0  0
 23 43  1  0  0  0  0
 24 31  2  0  0  0  0
 24 53  1  0  0  0  0
 25 70  1  0  0  0  0
 26 82  1  0  0  0  0
 27 83  1  0  0  0  0
 28 30  2  0  0  0  0
 28 82  1  0  0  0  0
 29 84  1  0  0  0  0
 30 85  1  0  0  0  0
 31 86  1  0  0  0  0
 32 64  2  0  0  0  0
 33 65  1  0  0  0  0
 33 68  1  0  0  0  0
 34 69  1  0  0  0  0
 34 75  2  0  0  0  0
 35 51  1  0  0  0  0
 35 71  1  0  0  0  0
 35 76  2  0  0  0  0
 36 61  1  0  0  0  0
 36 66  1  0  0  0  0
 36 77  2  0  0  0  0
 37 59  1  0  0  0  0
 37 72  1  0  0  0  0
 37 78  2  0  0  0  0
 38 60  1  0  0  0  0
 38 72  1  0  0  0  0
 38 79  2  0  0  0  0
 39 62  1  0  0  0  0
 39 73  1  0  0  0  0
 39 80  2  0  0  0  0
 40 67  1  0  0  0  0
 40 70  1  0  0  0  0
 40 81  2  0  0  0  0
 41 44  1  0  0  0  0
 42 51  1  0  0  0  0
 43 66  1  0  0  0  0
 44 46  1  0  0  0  0
 45 47  1  0  0  0  0
 45 48  1  0  0  0  0
 46 50  1  0  0  0  0
 47 52  1  0  0  0  0
 48 67  1  0  0  0  0
 49 52  1  0  0  0  0
 49 67  1  0  0  0  0
 50 71  1  0  0  0  0
 51 66  1  0  0  0  0
 52 65  1  0  0  0  0
 54 62  1  0  0  0  0
 55 63  1  0  0  0  0
 56 63  1  0  0  0  0
 57 63  1  0  0  0  0
 58 74  1  0  0  0  0
 59 83  1  0  0  0  0
 60 86  1  0  0  0  0
 61 63  1  0  0  0  0
 61 73  1  0  0  0  0
 62 74  1  0  0  0  0
 64 65  1  0  0  0  0
M  CHG  1  74   1
M  ISO  4  40 100  59 101  70 100  83 101
M  END
> <Batch ID>
0061

> <Smiles>
CNC(C)C(=O)NC(C(=O)N1Cc2cc([101O:1][101CH2:1]C(=O)NC(=O)CSc3ccc([100NH:0][100C:0](=O)N4CCCC(n5nc(-c6ccc(Oc7ccc(F)cc7F)cc6)c(C(N)=O)c5N)C4)cc3C)ccc2CC1C(=O)NC1CCCc2ccccc21)C(C)(C)C

> <Shape>
0.237

> <Color>
0.060

> <Negative vol penalty>
0.000

$$$$

  -OEChem-04042323073D

 87 96  0     1  0  0  0  0  0999 V2000
  -35.3900  -29.8489   17.3867 C   0  0  0  0  0  0  0  0  0  0  0  0
  -34.4294  -29.1394   18.1003 C   0  0  0  0  0  0  0  0  0  0  0  0
  -23.0005   -9.8930   19.9815 C   0  0  0  0  0  0  0  0  0  0  0  0
  -23.7251   -9.9455   22.2857 C   0  0  0  0  0  0  0  0  0  0  0  0
  -36.2409  -29.1786   16.5088 C   0  0  0  0  0  0  0  0  0  0  0  0
  -34.3185  -27.7591   17.9357 C   0  0  0  0  0  0  0  0  0  0  0  0
  -32.8139  -23.6498   22.2200 C   0  0  0  0  0  0  0  0  0  0  0  0
  -22.2340   -8.7587   20.2484 C   0  0  0  0  0  0  0  0  0  0  0  0
  -22.9586   -8.8112   22.5526 C   0  0  0  0  0  0  0  0  0  0  0  0
  -31.6118  -23.0153   22.5301 C   0  0  0  0  0  0  0  0  0  0  0  0
  -23.2032   -5.4719   22.0829 C   0  0  0  0  0  0  0  0  0  0  0  0
  -23.7906   -4.4552   22.8359 C   0  0  0  0  0  0  0  0  0  0  0  0
  -32.2785  -21.1157   21.2011 C   0  0  0  0  0  0  0  0  0  0  0  0
  -29.8779  -17.4505   23.0957 C   0  0  0  0  0  0  0  0  0  0  0  0
  -32.0565  -16.5525   22.5627 C   0  0  0  0  0  0  0  0  0  0  0  0
  -22.0662   -4.6992   24.5105 C   0  0  0  0  0  0  0  0  0  0  0  0
  -23.7462  -10.4864   21.0002 C   0  0  0  0  0  0  0  0  0  0  0  0
  -24.1314  -13.0019   20.8226 C   0  0  0  0  0  0  0  0  0  0  0  0
  -36.1467  -27.7881   16.3406 C   0  0  0  0  0  0  0  0  0  0  0  0
  -33.7543  -23.0254   21.3879 C   0  0  0  0  0  0  0  0  0  0  0  0
  -35.1681  -27.0698   17.0538 C   0  0  0  0  0  0  0  0  0  0  0  0
  -33.4929  -21.7433   20.8840 C   0  0  0  0  0  0  0  0  0  0  0  0
  -31.8490  -18.3471   24.1668 C   0  0  0  0  0  0  0  0  0  0  0  0
  -30.4657  -18.3475   23.9875 C   0  0  0  0  0  0  0  0  0  0  0  0
  -30.6733  -16.5529   22.3834 C   0  0  0  0  0  0  0  0  0  0  0  0
  -22.2130   -8.2177   21.5340 C   0  0  0  0  0  0  0  0  0  0  0  0
  -31.3427  -21.7493   22.0183 C   0  0  0  0  0  0  0  0  0  0  0  0
  -22.0473   -6.1023   22.5438 C   0  0  0  0  0  0  0  0  0  0  0  0
  -23.2221   -4.0688   24.0496 C   0  0  0  0  0  0  0  0  0  0  0  0
  -32.6445  -17.4496   23.4544 C   0  0  0  0  0  0  0  0  0  0  0  0
  -21.4789   -5.7159   23.7576 C   0  0  0  0  0  0  0  0  0  0  0  0
  -24.5387  -11.6579   20.7250 C   0  0  0  0  0  0  0  0  0  0  0  0
  -25.2412  -13.7243   20.4581 C   0  0  0  0  0  0  0  0  0  0  0  0
  -28.4611  -20.2453   26.3810 C   0  0  0  0  0  0  0  0  0  0  0  0
  -29.5700  -19.2857   26.0742 C   0  0  0  0  0  0  0  0  0  0  0  0
  -22.8633  -13.5485   21.2085 C   0  0  0  0  0  0  0  0  0  0  0  0
  -35.0475  -23.6995   18.5635 C   0  0  0  0  0  0  0  0  0  0  0  0
  -36.8742  -21.0997   19.2165 C   0  0  0  0  0  0  0  0  0  0  0  0
  -37.2268  -18.1578   20.9100 C   0  0  0  0  0  0  0  0  0  0  0  0
  -30.7206  -14.6858   20.6928 C   0  0  0  0  0  0  0  0  0  0  0  0
  -37.0571  -27.1141   15.3449 C   0  0  0  0  0  0  0  0  0  0  0  0
  -35.0578  -23.7120   21.0845 C   0  0  0  0  0  0  0  0  0  0  0  0
  -34.4781  -21.0216   20.0026 C   0  0  0  0  0  0  0  0  0  0  0  0
  -27.7577  -20.6368   25.1249 C   0  0  0  0  0  0  0  0  0  0  0  0
  -37.1227  -25.5978   15.5087 C   0  0  0  0  0  0  0  0  0  0  0  0
  -29.6030  -12.2314   18.3682 C   0  0  0  0  0  0  0  0  0  0  0  0
  -35.7212  -25.0168   15.6664 C   0  0  0  0  0  0  0  0  0  0  0  0
  -28.1523  -11.9739   18.7821 C   0  0  0  0  0  0  0  0  0  0  0  0
  -30.5032  -12.4756   19.5780 C   0  0  0  0  0  0  0  0  0  0  0  0
  -28.5875  -13.2652   20.9105 C   0  0  0  0  0  0  0  0  0  0  0  0
  -35.0332  -25.5684   16.9210 C   0  0  1  0  0  0  0  0  0  0  0  0
  -35.7208  -23.1989   19.8100 C   0  0  1  0  0  0  0  0  0  0  0  0
  -27.6301  -13.0781   19.7222 C   0  0  2  0  0  0  0  0  0  0  0  0
  -28.7863  -20.2343   24.0572 C   0  0  1  0  0  0  0  0  0  0  0  0
  -32.5029  -19.2994   25.1152 C   0  0  0  0  0  0  0  0  0  0  0  0
  -38.8118  -16.2357   21.2107 C   0  0  0  0  0  0  0  0  0  0  0  0
  -36.0220  -19.9767   16.5104 C   0  0  0  0  0  0  0  0  0  0  0  0
  -36.8285  -17.7305   17.2668 C   0  0  0  0  0  0  0  0  0  0  0  0
  -38.4343  -19.6294   17.0711 C   0  0  0  0  0  0  0  0  0  0  0  0
  -37.5442  -18.7205   23.7981 C   0  0  0  0  0  0  0  0  0  0  0  0
  -29.5780  -21.4334   23.5810 C   0  0  0  0  0  0  0  0  0  1  0  0
  -36.7540  -19.6168   18.9601 C   0  0  1  0  0  0  0  0  0  0  0  0
  -38.3765  -17.5979   21.7279 C   0  0  2  0  0  0  0  0  0  0  0  0
  -36.9901  -19.2525   17.4671 C   0  0  0  0  0  0  0  0  0  0  0  0
  -25.8080  -11.5312   20.3292 N   0  0  0  0  0  0  0  0  0  0  0  0
  -26.2080  -12.8049   20.1749 N   0  0  0  0  0  0  0  0  0  0  0  0
  -29.6561  -19.2349   24.6889 N   0  0  0  0  0  0  0  0  0  0  0  0
  -35.7356  -21.7369   19.7296 N   0  0  0  0  0  0  0  0  0  0  0  0
  -29.9479  -13.5371   20.4205 N   0  0  0  0  0  0  0  0  0  0  0  0
  -25.4747  -15.0500   20.3552 N   0  0  0  0  0  0  0  0  0  0  0  0
  -21.8315  -12.6646   21.5523 N   0  0  0  0  0  0  0  0  0  0  0  0
  -30.0761  -15.6415   21.4776 N   0  0  0  0  0  0  0  0  0  0  0  0
  -35.5375  -24.9077   18.1058 N   0  0  0  0  0  0  0  0  0  0  0  0
  -37.6742  -18.9664   19.8866 N   0  0  0  0  0  0  0  0  0  0  0  0
  -37.9739  -17.4520   23.1553 N   0  3  0  0  0  0  0  0  0  0  0  0
  -28.1926  -20.5679   27.5201 O   0  0  0  0  0  0  0  0  0  0  0  0
  -30.1866  -18.7100   26.9462 O   0  0  0  0  0  0  0  0  0  0  0  0
  -22.6466  -14.7838   21.2314 O   0  0  0  0  0  0  0  0  0  0  0  0
  -34.1508  -23.0377   18.0539 O   0  0  0  0  0  0  0  0  0  0  0  0
  -37.9414  -21.6701   18.9772 O   0  0  0  0  0  0  0  0  0  0  0  0
  -36.0496  -17.9004   21.1521 O   0  0  0  0  0  0  0  0  0  0  0  0
  -31.8594  -14.8245   20.2390 O   0  0  0  0  0  0  0  0  0  0  0  0
  -21.4649   -7.1110   21.7948 O   0  0  0  0  0  0  0  0  0  0  0  0
  -30.1698  -21.1281   22.3189 O   0  0  0  0  0  0  0  0  0  1  0  0
  -23.7854   -3.0914   24.7718 F   0  0  0  0  0  0  0  0  0  0  0  0
  -33.9748  -17.4422   23.6182 F   0  0  0  0  0  0  0  0  0  0  0  0
  -20.3678   -6.3170   24.2049 F   0  0  0  0  0  0  0  0  0  0  0  0
  1  2  1  0  0  0  0
  1  5  2  0  0  0  0
  2  6  2  0  0  0  0
  3  8  2  0  0  0  0
  3 17  1  0  0  0  0
  4  9  1  0  0  0  0
  4 17  2  0  0  0  0
  5 19  1  0  0  0  0
  6 21  1  0  0  0  0
  7 10  2  0  0  0  0
  7 20  1  0  0  0  0
  8 26  1  0  0  0  0
  9 26  2  0  0  0  0
 10 27  1  0  0  0  0
 11 12  2  0  0  0  0
 11 28  1  0  0  0  0
 12 29  1  0  0  0  0
 13 22  1  0  0  0  0
 13 27  2  0  0  0  0
 14 24  1  0  0  0  0
 14 25  2  0  0  0  0
 15 25  1  0  0  0  0
 15 30  2  0  0  0  0
 16 29  2  0  0  0  0
 16 31  1  0  0  0  0
 17 32  1  0  0  0  0
 18 32  1  0  0  0  0
 18 33  2  0  0  0  0
 18 36  1  0  0  0  0
 19 21  2  0  0  0  0
 19 41  1  0  0  0  0
 20 22  2  0  0  0  0
 20 42  1  0  0  0  0
 21 51  1  0  0  0  0
 22 43  1  0  0  0  0
 23 24  2  0  0  0  0
 23 30  1  0  0  0  0
 23 55  1  0  0  0  0
 24 67  1  0  0  0  0
 25 72  1  0  0  0  0
 26 83  1  0  0  0  0
 27 84  1  0  0  0  0
 28 31  2  0  0  0  0
 28 83  1  0  0  0  0
 29 85  1  0  0  0  0
 30 86  1  0  0  0  0
 31 87  1  0  0  0  0
 32 65  2  0  0  0  0
 33 66  1  0  0  0  0
 33 70  1  0  0  0  0
 34 35  1  0  0  0  0
 34 44  1  0  0  0  0
 34 76  2  0  0  0  0
 35 67  1  0  0  0  0
 35 77  2  0  0  0  0
 36 71  1  0  0  0  0
 36 78  2  0  0  0  0
 37 52  1  0  0  0  0
 37 73  1  0  0  0  0
 37 79  2  0  0  0  0
 38 62  1  0  0  0  0
 38 68  1  0  0  0  0
 38 80  2  0  0  0  0
 39 63  1  0  0  0  0
 39 74  1  0  0  0  0
 39 81  2  0  0  0  0
 40 69  1  0  0  0  0
 40 72  1  0  0  0  0
 40 82  2  0  0  0  0
 41 45  1  0  0  0  0
 42 52  1  0  0  0  0
 43 68  1  0  0  0  0
 44 54  1  0  0  0  0
 45 47  1  0  0  0  0
 46 48  1  0  0  0  0
 46 49  1  0  0  0  0
 47 51  1  0  0  0  0
 48 53  1  0  0  0  0
 49 69  1  0  0  0  0
 50 53  1  0  0  0  0
 50 69  1  0  0  0  0
 51 73  1  0  0  0  0
 52 68  1  0  0  0  0
 53 66  1  0  0  0  0
 54 61  1  0  0  0  0
 54 67  1  0  0  0  0
 56 63  1  0  0  0  0
 57 64  1  0  0  0  0
 58 64  1  0  0  0  0
 59 64  1  0  0  0  0
 60 75  1  0  0  0  0
 61 84  1  0  0  0  0
 62 64  1  0  0  0  0
 62 74  1  0  0  0  0
 63 75  1  0  0  0  0
 65 66  1  0  0  0  0
M  CHG  1  75   1
M  ISO  4  40 100  61 101  72 100  84 101
M  END
> <Batch ID>
0061

> <Smiles>
CNC(C)C(=O)NC(C(=O)N1Cc2cc([101O:1][101CH2:1]C3CC(=O)C(=O)N3c3cc([100NH:0][100C:0](=O)N4CCCC(n5nc(-c6ccc(Oc7ccc(F)cc7F)cc6)c(C(N)=O)c5N)C4)cc(F)c3C)ccc2CC1C(=O)NC1CCCc2ccccc21)C(C)(C)C

> <Shape>
0.173

> <Color>
0.193

> <Negative vol penalty>
0.000

$$$$

  -OEChem-04042323073D

 85 93  0     1  0  0  0  0  0999 V2000
  -22.0911  -24.2139   23.4933 C   0  0  0  0  0  0  0  0  0  0  0  0
  -22.8364  -23.2547   24.1714 C   0  0  0  0  0  0  0  0  0  0  0  0
  -26.1845  -27.7275   18.8783 C   0  0  0  0  0  0  0  0  0  0  0  0
  -26.2549  -27.0383   21.1928 C   0  0  0  0  0  0  0  0  0  0  0  0
  -20.8338  -23.8881   22.9864 C   0  0  0  0  0  0  0  0  0  0  0  0
  -22.3242  -21.9692   24.3439 C   0  0  0  0  0  0  0  0  0  0  0  0
  -25.7509  -18.3673   23.3801 C   0  0  0  0  0  0  0  0  0  0  0  0
  -29.9995  -18.0501   21.3048 C   0  0  0  0  0  0  0  0  0  0  0  0
  -25.6034  -28.9379   19.2563 C   0  0  0  0  0  0  0  0  0  0  0  0
  -25.6738  -28.2487   21.5709 C   0  0  0  0  0  0  0  0  0  0  0  0
  -26.7022  -18.1130   24.3671 C   0  0  0  0  0  0  0  0  0  0  0  0
  -26.6609  -31.4482   22.0283 C   0  0  0  0  0  0  0  0  0  0  0  0
  -27.2117  -32.1161   23.1220 C   0  0  0  0  0  0  0  0  0  0  0  0
  -30.6436  -17.0966   22.0932 C   0  0  0  0  0  0  0  0  0  0  0  0
  -25.4318  -16.1934   25.0884 C   0  0  0  0  0  0  0  0  0  0  0  0
  -28.1106  -16.5651   21.0520 C   0  0  0  0  0  0  0  0  0  0  0  0
  -25.0936  -31.9739   24.2755 C   0  0  0  0  0  0  0  0  0  0  0  0
  -26.5102  -26.7777   19.8465 C   0  0  0  0  0  0  0  0  0  0  0  0
  -28.4836  -25.2454   19.3312 C   0  0  0  0  0  0  0  0  0  0  0  0
  -20.3101  -22.5953   23.1444 C   0  0  0  0  0  0  0  0  0  0  0  0
  -24.6254  -17.5415   23.2467 C   0  0  0  0  0  0  0  0  0  0  0  0
  -21.0582  -21.6262   23.8398 C   0  0  0  0  0  0  0  0  0  0  0  0
  -24.4690  -16.4378   24.0973 C   0  0  0  0  0  0  0  0  0  0  0  0
  -28.7548  -15.6115   21.8403 C   0  0  0  0  0  0  0  0  0  0  0  0
  -28.7329  -17.7844   20.7843 C   0  0  0  0  0  0  0  0  0  0  0  0
  -25.3481  -29.1985   20.6026 C   0  0  0  0  0  0  0  0  0  0  0  0
  -26.5412  -17.0276   25.2233 C   0  0  0  0  0  0  0  0  0  0  0  0
  -25.3264  -31.0432   22.0582 C   0  0  0  0  0  0  0  0  0  0  0  0
  -26.4281  -32.3790   24.2456 C   0  0  0  0  0  0  0  0  0  0  0  0
  -24.5428  -31.3061   23.1818 C   0  0  0  0  0  0  0  0  0  0  0  0
  -30.0213  -15.8773   22.3609 C   0  0  0  0  0  0  0  0  0  0  0  0
  -27.1100  -25.5270   19.4566 C   0  0  0  0  0  0  0  0  0  0  0  0
  -28.5300  -23.9299   18.9390 C   0  0  0  0  0  0  0  0  0  0  0  0
  -29.6163  -26.0968   19.5498 C   0  0  0  0  0  0  0  0  0  0  0  0
  -21.4855  -17.9728   23.4883 C   0  0  0  0  0  0  0  0  0  0  0  0
  -21.3768  -14.9006   22.4529 C   0  0  0  0  0  0  0  0  0  0  0  0
  -22.9494  -11.8866   22.1544 C   0  0  0  0  0  0  0  0  0  0  0  0
  -26.8218  -18.6496   19.3895 C   0  0  0  0  0  0  0  0  0  0  0  0
  -18.9263  -22.3035   22.6203 C   0  0  0  0  0  0  0  0  0  0  0  0
  -23.6221  -17.8137   22.1596 C   0  0  0  0  0  0  0  0  0  0  0  0
  -23.2889  -15.5091   23.9824 C   0  0  0  0  0  0  0  0  0  0  0  0
  -18.6151  -20.8124   22.5191 C   0  0  0  0  0  0  0  0  0  0  0  0
  -24.8488  -20.8262   17.3778 C   0  0  0  0  0  0  0  0  0  0  0  0
  -19.0362  -20.0914   23.7957 C   0  0  0  0  0  0  0  0  0  0  0  0
  -25.3742  -22.2200   17.7290 C   0  0  0  0  0  0  0  0  0  0  0  0
  -24.8291  -19.9041   18.5956 C   0  0  0  0  0  0  0  0  0  0  0  0
  -26.6280  -21.1988   19.6712 C   0  0  0  0  0  0  0  0  0  0  0  0
  -20.5474  -20.2138   24.0256 C   0  0  1  0  0  0  0  0  0  0  0  0
  -22.2515  -17.2081   22.4462 C   0  0  1  0  0  0  0  0  0  0  0  0
  -26.7276  -22.1438   18.4626 C   0  0  2  0  0  0  0  0  0  0  0  0
  -28.0616  -14.3157   22.1079 C   0  0  0  0  0  0  0  0  0  0  0  0
  -22.5934   -9.5553   21.2964 C   0  0  0  0  0  0  0  0  0  0  0  0
  -19.6358  -14.2760   24.8796 C   0  0  0  0  0  0  0  0  0  0  0  0
  -20.1032  -11.8455   24.5020 C   0  0  0  0  0  0  0  0  0  0  0  0
  -18.9058  -13.1689   22.7592 C   0  0  0  0  0  0  0  0  0  0  0  0
  -25.1809  -12.1312   20.2258 C   0  0  0  0  0  0  0  0  0  0  0  0
  -29.1039  -15.2183   26.9949 C   0  0  0  0  0  0  0  0  0  0  0  0
  -30.0913  -15.5155   25.8750 C   0  0  0  0  0  0  0  0  0  0  0  0
  -27.6525  -15.4161   26.5739 C   0  0  0  0  0  0  0  0  0  1  0  0
  -21.3794  -13.5467   23.1206 C   0  0  1  0  0  0  0  0  0  0  0  0
  -23.1119  -10.9478   20.9725 C   0  0  2  0  0  0  0  0  0  0  0  0
  -20.0274  -13.2277   23.8190 C   0  0  0  0  0  0  0  0  0  0  0  0
  -26.3395  -24.4750   19.1673 N   0  0  0  0  0  0  0  0  0  0  0  0
  -27.2320  -23.5196   18.8561 N   0  0  0  0  0  0  0  0  0  0  0  0
  -22.3320  -15.8207   22.9078 N   0  0  0  0  0  0  0  0  0  0  0  0
  -26.1455  -19.8784   19.2369 N   0  0  0  0  0  0  0  0  0  0  0  0
  -29.5542  -23.0958   18.6602 N   0  0  0  0  0  0  0  0  0  0  0  0
  -29.3896  -27.4207   19.9501 N   0  0  0  0  0  0  0  0  0  0  0  0
  -28.0793  -18.7534   19.9833 N   0  0  0  0  0  0  0  0  0  0  0  0
  -21.2653  -19.2982   23.1651 N   0  0  0  0  0  0  0  0  0  0  0  0
  -21.7623  -12.5852   22.0923 N   0  0  0  0  0  0  0  0  0  0  0  0
  -29.8594  -14.6083   24.7302 N   0  0  0  0  0  0  0  0  0  0  0  0
  -24.5486  -10.8377   20.5922 N   0  3  0  0  0  0  0  0  0  0  0  0
  -30.7940  -25.7002   19.3789 O   0  0  0  0  0  0  0  0  0  0  0  0
  -21.1199  -17.4023   24.5094 O   0  0  0  0  0  0  0  0  0  0  0  0
  -20.5622  -15.1309   21.5557 O   0  0  0  0  0  0  0  0  0  0  0  0
  -23.7897  -11.9871   23.0457 O   0  0  0  0  0  0  0  0  0  0  0  0
  -26.3339  -17.5871   18.9958 O   0  0  0  0  0  0  0  0  0  0  0  0
  -30.8412  -13.4190   22.6683 O   0  0  0  0  0  0  0  0  0  0  0  0
  -32.1317  -15.2884   23.7474 O   0  0  0  0  0  0  0  0  0  0  0  0
  -24.7813  -30.3796   20.9719 O   0  0  0  0  0  0  0  0  0  0  0  0
  -27.4679  -16.7775   26.1880 O   0  0  0  0  0  0  0  0  0  1  0  0
  -26.9576  -33.0190   25.2964 F   0  0  0  0  0  0  0  0  0  0  0  0
  -23.2605  -30.9184   23.2168 F   0  0  0  0  0  0  0  0  0  0  0  0
  -30.8667  -14.6919   23.3633 S   0  0  0  0  0  0  0  0  0  0  0  0
  1  2  1  0  0  0  0
  1  5  2  0  0  0  0
  2  6  2  0  0  0  0
  3  9  2  0  0  0  0
  3 18  1  0  0  0  0
  4 10  1  0  0  0  0
  4 18  2  0  0  0  0
  5 20  1  0  0  0  0
  6 22  1  0  0  0  0
  7 11  2  0  0  0  0
  7 21  1  0  0  0  0
  8 14  2  0  0  0  0
  8 25  1  0  0  0  0
  9 26  1  0  0  0  0
 10 26  2  0  0  0  0
 11 27  1  0  0  0  0
 12 13  2  0  0  0  0
 12 28  1  0  0  0  0
 13 29  1  0  0  0  0
 14 31  1  0  0  0  0
 15 23  1  0  0  0  0
 15 27  2  0  0  0  0
 16 24  1  0  0  0  0
 16 25  2  0  0  0  0
 17 29  2  0  0  0  0
 17 30  1  0  0  0  0
 18 32  1  0  0  0  0
 19 32  1  0  0  0  0
 19 33  2  0  0  0  0
 19 34  1  0  0  0  0
 20 22  2  0  0  0  0
 20 39  1  0  0  0  0
 21 23  2  0  0  0  0
 21 40  1  0  0  0  0
 22 48  1  0  0  0  0
 23 41  1  0  0  0  0
 24 31  2  0  0  0  0
 24 51  1  0  0  0  0
 25 69  1  0  0  0  0
 26 81  1  0  0  0  0
 27 82  1  0  0  0  0
 28 30  2  0  0  0  0
 28 81  1  0  0  0  0
 29 83  1  0  0  0  0
 30 84  1  0  0  0  0
 31 85  1  0  0  0  0
 32 63  2  0  0  0  0
 33 64  1  0  0  0  0
 33 67  1  0  0  0  0
 34 68  1  0  0  0  0
 34 74  2  0  0  0  0
 35 49  1  0  0  0  0
 35 70  1  0  0  0  0
 35 75  2  0  0  0  0
 36 60  1  0  0  0  0
 36 65  1  0  0  0  0
 36 76  2  0  0  0  0
 37 61  1  0  0  0  0
 37 71  1  0  0  0  0
 37 77  2  0  0  0  0
 38 66  1  0  0  0  0
 38 69  1  0  0  0  0
 38 78  2  0  0  0  0
 39 42  1  0  0  0  0
 40 49  1  0  0  0  0
 41 65  1  0  0  0  0
 42 44  1  0  0  0  0
 43 45  1  0  0  0  0
 43 46  1  0  0  0  0
 44 48  1  0  0  0  0
 45 50  1  0  0  0  0
 46 66  1  0  0  0  0
 47 50  1  0  0  0  0
 47 66  1  0  0  0  0
 48 70  1  0  0  0  0
 49 65  1  0  0  0  0
 50 64  1  0  0  0  0
 52 61  1  0  0  0  0
 53 62  1  0  0  0  0
 54 62  1  0  0  0  0
 55 62  1  0  0  0  0
 56 73  1  0  0  0  0
 57 58  1  0  0  0  0
 57 59  1  0  0  0  0
 58 72  1  0  0  0  0
 59 82  1  0  0  0  0
 60 62  1  0  0  0  0
 60 71  1  0  0  0  0
 61 73  1  0  0  0  0
 63 64  1  0  0  0  0
 72 85  1  0  0  0  0
 79 85  2  0  0  0  0
 80 85  2  0  0  0  0
M  CHG  1  73   1
M  ISO  4  38 100  59 101  69 100  82 101
M  END
> <Batch ID>
0061

> <Smiles>
CNC(C)C(=O)NC(C(=O)N1Cc2cc([101O:1][101CH2:1]CCNS(=O)(=O)c3ccc([100NH:0][100C:0](=O)N4CCCC(n5nc(-c6ccc(Oc7ccc(F)cc7F)cc6)c(C(N)=O)c5N)C4)cc3C)ccc2CC1C(=O)NC1CCCc2ccccc21)C(C)(C)C

> <Shape>
0.195

> <Color>
0.062

> <Negative vol penalty>
0.000

$$$$

  -OEChem-04042323073D

 87 95  0     1  0  0  0  0  0999 V2000
  -17.5630  -18.9446   28.3439 C   0  0  0  0  0  0  0  0  0  0  0  0
  -17.4171  -20.3066   28.1010 C   0  0  0  0  0  0  0  0  0  0  0  0
  -29.0740  -17.7766   19.4707 C   0  0  0  0  0  0  0  0  0  0  0  0
  -30.7559  -18.1495   21.1646 C   0  0  0  0  0  0  0  0  0  0  0  0
  -18.5902  -18.2335   27.7250 C   0  0  0  0  0  0  0  0  0  0  0  0
  -18.2991  -20.9586   27.2399 C   0  0  0  0  0  0  0  0  0  0  0  0
  -18.5276  -26.3153   22.4891 C   0  0  0  0  0  0  0  0  0  0  0  0
  -27.5459  -27.8908   23.0172 C   0  0  0  0  0  0  0  0  0  0  0  0
  -26.2578  -28.4086   22.8818 C   0  0  0  0  0  0  0  0  0  0  0  0
  -29.5288  -16.4682   19.3071 C   0  0  0  0  0  0  0  0  0  0  0  0
  -31.2107  -16.8411   21.0010 C   0  0  0  0  0  0  0  0  0  0  0  0
  -19.2571  -27.4676   22.1994 C   0  0  0  0  0  0  0  0  0  0  0  0
  -30.0139  -12.9170   18.6998 C   0  0  0  0  0  0  0  0  0  0  0  0
  -29.0590  -11.9032   18.6241 C   0  0  0  0  0  0  0  0  0  0  0  0
  -20.9456  -26.1211   21.1246 C   0  0  0  0  0  0  0  0  0  0  0  0
  -28.3880  -29.5958   21.5270 C   0  0  0  0  0  0  0  0  0  0  0  0
  -28.2620  -12.4893   20.8283 C   0  0  0  0  0  0  0  0  0  0  0  0
  -29.6876  -18.6173   20.3994 C   0  0  0  0  0  0  0  0  0  0  0  0
  -28.2239  -20.4190   21.4574 C   0  0  0  0  0  0  0  0  0  0  0  0
  -19.4793  -18.8750   26.8483 C   0  0  0  0  0  0  0  0  0  0  0  0
  -19.0078  -25.0542   22.1078 C   0  0  0  0  0  0  0  0  0  0  0  0
  -19.3400  -20.2556   26.6097 C   0  0  0  0  0  0  0  0  0  0  0  0
  -20.2190  -24.9546   21.4085 C   0  0  0  0  0  0  0  0  0  0  0  0
  -28.6110  -28.4844   22.3398 C   0  0  0  0  0  0  0  0  0  0  0  0
  -26.0348  -29.5200   22.0690 C   0  0  0  0  0  0  0  0  0  0  0  0
  -30.5972  -16.0004   20.0722 C   0  0  0  0  0  0  0  0  0  0  0  0
  -20.4676  -27.3703   21.5196 C   0  0  0  0  0  0  0  0  0  0  0  0
  -30.0930  -13.7170   19.8397 C   0  0  0  0  0  0  0  0  0  0  0  0
  -28.1830  -11.6893   19.6883 C   0  0  0  0  0  0  0  0  0  0  0  0
  -29.2170  -13.5031   20.9040 C   0  0  0  0  0  0  0  0  0  0  0  0
  -27.0999  -30.1137   21.3916 C   0  0  0  0  0  0  0  0  0  0  0  0
  -29.2185  -19.9692   20.5685 C   0  0  0  0  0  0  0  0  0  0  0  0
  -28.1501  -21.7721   21.2339 C   0  0  0  0  0  0  0  0  0  0  0  0
  -27.4370  -19.6797   22.4008 C   0  0  0  0  0  0  0  0  0  0  0  0
  -19.8701  -22.4185   23.6612 C   0  0  0  0  0  0  0  0  0  0  0  0
  -20.1262  -21.2041   20.6642 C   0  0  0  0  0  0  0  0  0  0  0  0
  -23.5645  -29.5409   22.5601 C   0  0  0  0  0  0  0  0  0  0  0  0
  -20.5840  -21.7843   17.3325 C   0  0  0  0  0  0  0  0  0  0  0  0
  -30.6163  -26.7114   20.4171 C   0  0  0  0  0  0  0  0  0  0  0  0
  -20.6030  -18.0742   26.2395 C   0  0  0  0  0  0  0  0  0  0  0  0
  -18.1959  -23.8232   22.4043 C   0  0  0  0  0  0  0  0  0  0  0  0
  -20.7684  -23.6261   20.9591 C   0  0  0  0  0  0  0  0  0  0  0  0
  -21.2662  -18.7625   25.0492 C   0  0  0  0  0  0  0  0  0  0  0  0
  -30.1676  -24.6189   17.5716 C   0  0  0  0  0  0  0  0  0  0  0  0
  -21.5564  -20.2249   25.3719 C   0  0  0  0  0  0  0  0  0  0  0  0
  -29.8050  -23.2591   18.1711 C   0  0  0  0  0  0  0  0  0  0  0  0
  -31.1962  -25.3562   18.4262 C   0  0  0  0  0  0  0  0  0  0  0  0
  -30.4648  -24.1477   20.4457 C   0  0  0  0  0  0  0  0  0  0  0  0
  -20.2615  -20.9932   25.6627 C   0  0  1  0  0  0  0  0  0  0  0  0
  -19.0310  -22.5466   22.4214 C   0  0  1  0  0  0  0  0  0  0  0  0
  -29.3889  -23.3906   19.6485 C   0  0  2  0  0  0  0  0  0  0  0  0
  -20.7844  -20.5904   15.1343 C   0  0  0  0  0  0  0  0  0  0  0  0
  -22.9700  -20.3637   21.3827 C   0  0  0  0  0  0  0  0  0  0  0  0
  -23.4235  -20.0610   18.9391 C   0  0  0  0  0  0  0  0  0  0  0  0
  -21.6838  -18.6718   20.0645 C   0  0  0  0  0  0  0  0  0  0  0  0
  -18.1999  -23.1549   16.2387 C   0  0  0  0  0  0  0  0  0  0  0  0
  -28.1078  -31.3950   19.0963 C   0  0  0  0  0  0  0  0  0  0  0  0
  -29.9882  -27.9310   22.4853 C   0  0  0  0  0  0  0  0  0  0  0  0
  -22.3565  -30.3802   22.1598 C   0  0  0  0  0  0  0  0  0  0  0  0
  -21.0578  -29.5883   22.1428 C   0  0  0  0  0  0  0  0  0  1  0  0
  -21.2273  -21.1211   19.6348 C   0  0  1  0  0  0  0  0  0  0  0  0
  -19.8409  -21.2763   16.1101 C   0  0  2  0  0  0  0  0  0  0  0  0
  -22.3170  -20.0794   20.0153 C   0  0  0  0  0  0  0  0  0  0  0  0
  -29.7392  -20.9564   19.8349 N   0  0  0  0  0  0  0  0  0  0  0  0
  -27.2108  -32.7486   21.2229 N   0  0  0  0  0  0  0  0  0  0  0  0
  -29.0691  -22.0401   20.2623 N   0  0  0  0  0  0  0  0  0  0  0  0
  -19.9409  -22.4510   21.2782 N   0  0  0  0  0  0  0  0  0  0  0  0
  -30.7404  -25.4483   19.8153 N   0  0  0  0  0  0  0  0  0  0  0  0
  -27.3895  -22.7470   21.7755 N   0  0  0  0  0  0  0  0  0  0  0  0
  -27.6404  -18.2967   22.5022 N   0  0  0  0  0  0  0  0  0  0  0  0
  -24.7182  -30.0250   21.9493 N   0  0  0  0  0  0  0  0  0  0  0  0
  -19.5733  -21.3089   24.4294 N   0  0  0  0  0  0  0  0  0  0  0  0
  -20.5728  -20.8616   18.3570 N   0  0  0  0  0  0  0  0  0  0  0  0
  -30.1721  -26.7095   21.7337 N   0  0  0  0  0  0  0  0  0  0  0  0
  -19.1734  -22.4057   15.4032 N   0  3  0  0  0  0  0  0  0  0  0  0
  -26.5674  -20.2267   23.1205 O   0  0  0  0  0  0  0  0  0  0  0  0
  -20.7247  -23.2631   23.9023 O   0  0  0  0  0  0  0  0  0  0  0  0
  -19.4506  -20.2016   20.9092 O   0  0  0  0  0  0  0  0  0  0  0  0
  -23.4706  -28.5821   23.3193 O   0  0  0  0  0  0  0  0  0  0  0  0
  -21.1239  -22.8877   17.3729 O   0  0  0  0  0  0  0  0  0  0  0  0
  -30.8766  -27.7633   19.8232 O   0  0  0  0  0  0  0  0  0  0  0  0
  -25.5992  -31.3185   19.6540 O   0  0  0  0  0  0  0  0  0  0  0  0
  -31.0411  -14.7236   19.9130 O   0  0  0  0  0  0  0  0  0  0  0  0
  -21.1820  -28.4934   21.2361 O   0  0  0  0  0  0  0  0  0  1  0  0
  -27.2650  -10.7166   19.6149 F   0  0  0  0  0  0  0  0  0  0  0  0
  -29.2874  -14.2692   22.0012 F   0  0  0  0  0  0  0  0  0  0  0  0
  -26.8611  -31.5096   20.3612 S   0  0  2  0  0  0  0  0  0  0  0  0
  1  2  1  0  0  0  0
  1  5  2  0  0  0  0
  2  6  2  0  0  0  0
  3 10  2  0  0  0  0
  3 18  1  0  0  0  0
  4 11  1  0  0  0  0
  4 18  2  0  0  0  0
  5 20  1  0  0  0  0
  6 22  1  0  0  0  0
  7 12  2  0  0  0  0
  7 21  1  0  0  0  0
  8  9  2  0  0  0  0
  8 24  1  0  0  0  0
  9 25  1  0  0  0  0
 10 26  1  0  0  0  0
 11 26  2  0  0  0  0
 12 27  1  0  0  0  0
 13 14  2  0  0  0  0
 13 28  1  0  0  0  0
 14 29  1  0  0  0  0
 15 23  1  0  0  0  0
 15 27  2  0  0  0  0
 16 24  2  0  0  0  0
 16 31  1  0  0  0  0
 17 29  2  0  0  0  0
 17 30  1  0  0  0  0
 18 32  1  0  0  0  0
 19 32  1  0  0  0  0
 19 33  2  0  0  0  0
 19 34  1  0  0  0  0
 20 22  2  0  0  0  0
 20 40  1  0  0  0  0
 21 23  2  0  0  0  0
 21 41  1  0  0  0  0
 22 49  1  0  0  0  0
 23 42  1  0  0  0  0
 24 58  1  0  0  0  0
 25 31  2  0  0  0  0
 25 71  1  0  0  0  0
 26 83  1  0  0  0  0
 27 84  1  0  0  0  0
 28 30  2  0  0  0  0
 28 83  1  0  0  0  0
 29 85  1  0  0  0  0
 30 86  1  0  0  0  0
 31 87  1  0  0  0  0
 32 64  2  0  0  0  0
 33 66  1  0  0  0  0
 33 69  1  0  0  0  0
 34 70  1  0  0  0  0
 34 76  2  0  0  0  0
 35 50  1  0  0  0  0
 35 72  1  0  0  0  0
 35 77  2  0  0  0  0
 36 61  1  0  0  0  0
 36 67  1  0  0  0  0
 36 78  2  0  0  0  0
 37 59  1  0  0  0  0
 37 71  1  0  0  0  0
 37 79  2  0  0  0  0
 38 62  1  0  0  0  0
 38 73  1  0  0  0  0
 38 80  2  0  0  0  0
 39 68  1  0  0  0  0
 39 74  1  0  0  0  0
 39 81  2  0  0  0  0
 40 43  1  0  0  0  0
 41 50  1  0  0  0  0
 42 67  1  0  0  0  0
 43 45  1  0  0  0  0
 44 46  1  0  0  0  0
 44 47  1  0  0  0  0
 45 49  1  0  0  0  0
 46 51  1  0  0  0  0
 47 68  1  0  0  0  0
 48 51  1  0  0  0  0
 48 68  1  0  0  0  0
 49 72  1  0  0  0  0
 50 67  1  0  0  0  0
 51 66  1  0  0  0  0
 52 62  1  0  0  0  0
 53 63  1  0  0  0  0
 54 63  1  0  0  0  0
 55 63  1  0  0  0  0
 56 75  1  0  0  0  0
 57 87  1  0  0  0  0
 58 74  1  0  0  0  0
 59 60  1  0  0  0  0
 60 84  1  0  0  0  0
 61 63  1  0  0  0  0
 61 73  1  0  0  0  0
 62 75  1  0  0  0  0
 64 66  1  0  0  0  0
 65 87  2  0  0  0  0
 82 87  2  0  0  0  0
M  CHG  1  75   1
M  ISO  4  39 100  60 101  74 100  84 101
M  END
> <Batch ID>
0061

> <Smiles>
CNC(C)C(=O)NC(C(=O)N1Cc2cc([101O:1][101CH2:1]CC(=O)Nc3ccc(C[100NH:0][100C:0](=O)N4CCCC(n5nc(-c6ccc(Oc7ccc(F)cc7F)cc6)c(C(N)=O)c5N)C4)cc3S(C)(=N)=O)ccc2CC1C(=O)NC1CCCc2ccccc21)C(C)(C)C

> <Shape>
0.244

> <Color>
0.059

> <Negative vol penalty>
0.000

$$$$

  -OEChem-04042323073D

 90 99  0     1  0  0  0  0  0999 V2000
  -20.1393  -30.0463   27.0060 C   0  0  0  0  0  0  0  0  0  0  0  0
  -21.3512  -29.5214   26.5686 C   0  0  0  0  0  0  0  0  0  0  0  0
  -19.7180  -12.7104   20.1631 C   0  0  0  0  0  0  0  0  0  0  0  0
  -21.3121  -13.0733   18.3843 C   0  0  0  0  0  0  0  0  0  0  0  0
  -19.0295  -30.0316   26.1622 C   0  0  0  0  0  0  0  0  0  0  0  0
  -21.4536  -28.9805   25.2874 C   0  0  0  0  0  0  0  0  0  0  0  0
  -26.3267  -29.1845   21.5838 C   0  0  0  0  0  0  0  0  0  0  0  0
  -18.7702  -12.2932   19.2286 C   0  0  0  0  0  0  0  0  0  0  0  0
  -20.3643  -12.6560   17.4498 C   0  0  0  0  0  0  0  0  0  0  0  0
  -27.3334  -28.2607   21.3065 C   0  0  0  0  0  0  0  0  0  0  0  0
  -18.0927   -9.5025   17.4437 C   0  0  0  0  0  0  0  0  0  0  0  0
  -17.3577   -8.3533   17.7347 C   0  0  0  0  0  0  0  0  0  0  0  0
  -26.1130  -27.5238   19.3606 C   0  0  0  0  0  0  0  0  0  0  0  0
  -28.8229  -21.1421   20.1891 C   0  0  0  0  0  0  0  0  0  0  0  0
  -28.7680  -19.3436   18.5767 C   0  0  0  0  0  0  0  0  0  0  0  0
  -15.3129   -9.6364   17.6372 C   0  0  0  0  0  0  0  0  0  0  0  0
  -20.9889  -13.1005   19.7409 C   0  0  0  0  0  0  0  0  0  0  0  0
  -22.4879  -12.7872   21.7811 C   0  0  0  0  0  0  0  0  0  0  0  0
  -19.1208  -29.4990   24.8666 C   0  0  0  0  0  0  0  0  0  0  0  0
  -25.1984  -29.2775   20.7562 C   0  0  0  0  0  0  0  0  0  0  0  0
  -20.3435  -28.9575   24.4260 C   0  0  0  0  0  0  0  0  0  0  0  0
  -25.0945  -28.4513   19.6281 C   0  0  0  0  0  0  0  0  0  0  0  0
  -30.4595  -21.0610   18.4137 C   0  0  0  0  0  0  0  0  0  0  0  0
  -29.9323  -21.6875   19.5430 C   0  0  0  0  0  0  0  0  0  0  0  0
  -28.2408  -19.9701   19.7060 C   0  0  0  0  0  0  0  0  0  0  0  0
  -19.0934  -12.2659   17.8720 C   0  0  0  0  0  0  0  0  0  0  0  0
  -27.2253  -27.4282   20.1964 C   0  0  0  0  0  0  0  0  0  0  0  0
  -17.4378  -10.7187   17.2495 C   0  0  0  0  0  0  0  0  0  0  0  0
  -15.9678   -8.4202   17.8314 C   0  0  0  0  0  0  0  0  0  0  0  0
  -16.0479  -10.7856   17.3462 C   0  0  0  0  0  0  0  0  0  0  0  0
  -29.8774  -19.8890   17.9306 C   0  0  0  0  0  0  0  0  0  0  0  0
  -21.9682  -13.5322   20.7056 C   0  0  0  0  0  0  0  0  0  0  0  0
  -23.3768  -13.6384   22.3907 C   0  0  0  0  0  0  0  0  0  0  0  0
  -31.8584  -22.9300   20.4897 C   0  0  0  0  0  0  0  0  0  0  0  0
  -22.1936  -11.4455   22.1922 C   0  0  0  0  0  0  0  0  0  0  0  0
  -22.0758  -28.8458   21.1641 C   0  0  0  0  0  0  0  0  0  0  0  0
  -21.9195  -29.9610   18.1220 C   0  0  0  0  0  0  0  0  0  0  0  0
  -23.4834  -30.4344   15.1259 C   0  0  0  0  0  0  0  0  0  0  0  0
  -26.4087  -18.2587   20.0207 C   0  0  0  0  0  0  0  0  0  0  0  0
  -17.8816  -29.4622   24.0078 C   0  0  0  0  0  0  0  0  0  0  0  0
  -24.1339  -30.2976   21.0539 C   0  0  0  0  0  0  0  0  0  0  0  0
  -23.9132  -28.5257   18.6968 C   0  0  0  0  0  0  0  0  0  0  0  0
  -32.4672  -24.3007   20.7176 C   0  0  0  0  0  0  0  0  0  0  0  0
  -18.1716  -29.2108   22.5303 C   0  0  0  0  0  0  0  0  0  0  0  0
  -31.5027  -25.3290   21.2664 C   0  0  0  0  0  0  0  0  0  0  0  0
  -23.5620  -18.4699   22.5850 C   0  0  0  0  0  0  0  0  0  0  0  0
  -19.1582  -28.0587   22.3685 C   0  0  0  0  0  0  0  0  0  0  0  0
  -23.4259  -16.9899   22.9352 C   0  0  0  0  0  0  0  0  0  0  0  0
  -24.9405  -18.8080   22.0314 C   0  0  0  0  0  0  0  0  0  0  0  0
  -29.6116  -24.0369   20.3190 C   0  0  0  0  0  0  0  0  0  0  0  0
  -24.4923  -16.7913   20.6213 C   0  0  0  0  0  0  0  0  0  0  0  0
  -20.5007  -28.3844   23.0342 C   0  0  1  0  0  0  0  0  0  0  0  0
  -22.7841  -29.9512   20.4333 C   0  0  1  0  0  0  0  0  0  0  0  0
  -30.2920  -25.4046   20.3507 C   0  0  1  0  0  0  0  0  0  0  0  0
  -24.1331  -16.0635   21.9262 C   0  0  2  0  0  0  0  0  0  0  0  0
  -31.6502  -21.6501   17.7235 C   0  0  0  0  0  0  0  0  0  0  0  0
  -23.0876  -31.3373   12.8182 C   0  0  0  0  0  0  0  0  0  0  0  0
  -20.3214  -27.4584   17.4197 C   0  0  0  0  0  0  0  0  0  0  0  0
  -20.7754  -27.9313   15.0034 C   0  0  0  0  0  0  0  0  0  0  0  0
  -19.4761  -29.5648   16.3695 C   0  0  0  0  0  0  0  0  0  0  0  0
  -25.6007  -32.4787   15.4368 C   0  0  0  0  0  0  0  0  0  0  0  0
  -29.6244  -19.8029   15.1589 C   0  0  0  0  0  0  0  0  0  0  0  0
  -29.3181  -26.4845   20.8173 C   0  0  0  0  0  0  0  0  0  1  0  0
  -21.9649  -29.3336   16.7497 C   0  0  1  0  0  0  0  0  0  0  0  0
  -23.5818  -31.6500   14.2220 C   0  0  2  0  0  0  0  0  0  0  0  0
  -20.6559  -28.5690   16.4040 C   0  0  0  0  0  0  0  0  0  0  0  0
  -22.4839  -14.7622   20.6336 N   0  0  0  0  0  0  0  0  0  0  0  0
  -23.3368  -14.7966   21.6716 N   0  0  0  0  0  0  0  0  0  0  0  0
  -30.5197  -22.9042   20.0622 N   0  0  0  0  0  0  0  0  0  0  0  0
  -22.8956  -29.5349   19.0338 N   0  0  0  0  0  0  0  0  0  0  0  0
  -25.3225  -17.9726   20.8836 N   0  0  0  0  0  0  0  0  0  0  0  0
  -24.1809  -13.5018   23.4665 N   0  0  0  0  0  0  0  0  0  0  0  0
  -22.9578  -10.3998   21.6568 N   0  0  0  0  0  0  0  0  0  0  0  0
  -27.1136  -19.4158   20.3625 N   0  0  0  0  0  0  0  0  0  0  0  0
  -21.2734  -29.2811   22.2015 N   0  0  0  0  0  0  0  0  0  0  0  0
  -22.2921  -30.4090   15.8198 N   0  0  0  0  0  0  0  0  0  0  0  0
  -24.9949  -32.1143   14.1302 N   0  3  0  0  0  0  0  0  0  0  0  0
  -32.5837  -21.9422   20.6345 O   0  0  0  0  0  0  0  0  0  0  0  0
  -21.2691  -11.1804   22.9975 O   0  0  0  0  0  0  0  0  0  0  0  0
  -22.2436  -27.6842   20.8120 O   0  0  0  0  0  0  0  0  0  0  0  0
  -21.0543  -30.8036   18.3734 O   0  0  0  0  0  0  0  0  0  0  0  0
  -24.3726  -29.5898   15.2054 O   0  0  0  0  0  0  0  0  0  0  0  0
  -26.6906  -17.5267   19.0695 O   0  0  0  0  0  0  0  0  0  0  0  0
  -31.9126  -19.4365   16.3854 O   0  0  0  0  0  0  0  0  0  0  0  0
  -30.1248  -17.6719   16.5738 O   0  0  0  0  0  0  0  0  0  0  0  0
  -18.1688  -11.8586   16.9599 O   0  0  0  0  0  0  0  0  0  0  0  0
  -28.2062  -26.5252   19.9238 O   0  0  0  0  0  0  0  0  0  1  0  0
  -15.2620   -7.3162   18.1094 F   0  0  0  0  0  0  0  0  0  0  0  0
  -15.4131  -11.9509   17.1595 F   0  0  0  0  0  0  0  0  0  0  0  0
  -30.5101  -19.0738   16.5165 S   0  0  0  0  0  0  0  0  0  0  0  0
  1  2  1  0  0  0  0
  1  5  2  0  0  0  0
  2  6  2  0  0  0  0
  3  8  2  0  0  0  0
  3 17  1  0  0  0  0
  4  9  1  0  0  0  0
  4 17  2  0  0  0  0
  5 19  1  0  0  0  0
  6 21  1  0  0  0  0
  7 10  2  0  0  0  0
  7 20  1  0  0  0  0
  8 26  1  0  0  0  0
  9 26  2  0  0  0  0
 10 27  1  0  0  0  0
 11 12  2  0  0  0  0
 11 28  1  0  0  0  0
 12 29  1  0  0  0  0
 13 22  1  0  0  0  0
 13 27  2  0  0  0  0
 14 24  1  0  0  0  0
 14 25  2  0  0  0  0
 15 25  1  0  0  0  0
 15 31  2  0  0  0  0
 16 29  2  0  0  0  0
 16 30  1  0  0  0  0
 17 32  1  0  0  0  0
 18 32  1  0  0  0  0
 18 33  2  0  0  0  0
 18 35  1  0  0  0  0
 19 21  2  0  0  0  0
 19 40  1  0  0  0  0
 20 22  2  0  0  0  0
 20 41  1  0  0  0  0
 21 52  1  0  0  0  0
 22 42  1  0  0  0  0
 23 24  2  0  0  0  0
 23 31  1  0  0  0  0
 23 56  1  0  0  0  0
 24 69  1  0  0  0  0
 25 74  1  0  0  0  0
 26 86  1  0  0  0  0
 27 87  1  0  0  0  0
 28 30  2  0  0  0  0
 28 86  1  0  0  0  0
 29 88  1  0  0  0  0
 30 89  1  0  0  0  0
 31 90  1  0  0  0  0
 32 67  2  0  0  0  0
 33 68  1  0  0  0  0
 33 72  1  0  0  0  0
 34 43  1  0  0  0  0
 34 69  1  0  0  0  0
 34 78  2  0  0  0  0
 35 73  1  0  0  0  0
 35 79  2  0  0  0  0
 36 53  1  0  0  0  0
 36 75  1  0  0  0  0
 36 80  2  0  0  0  0
 37 64  1  0  0  0  0
 37 70  1  0  0  0  0
 37 81  2  0  0  0  0
 38 65  1  0  0  0  0
 38 76  1  0  0  0  0
 38 82  2  0  0  0  0
 39 71  1  0  0  0  0
 39 74  1  0  0  0  0
 39 83  2  0  0  0  0
 40 44  1  0  0  0  0
 41 53  1  0  0  0  0
 42 70  1  0  0  0  0
 43 45  1  0  0  0  0
 44 47  1  0  0  0  0
 45 54  1  0  0  0  0
 46 48  1  0  0  0  0
 46 49  1  0  0  0  0
 47 52  1  0  0  0  0
 48 55  1  0  0  0  0
 49 71  1  0  0  0  0
 50 54  1  0  0  0  0
 50 69  1  0  0  0  0
 51 55  1  0  0  0  0
 51 71  1  0  0  0  0
 52 75  1  0  0  0  0
 53 70  1  0  0  0  0
 54 63  1  0  0  0  0
 55 68  1  0  0  0  0
 57 65  1  0  0  0  0
 58 66  1  0  0  0  0
 59 66  1  0  0  0  0
 60 66  1  0  0  0  0
 61 77  1  0  0  0  0
 62 90  1  0  0  0  0
 63 87  1  0  0  0  0
 64 66  1  0  0  0  0
 64 76  1  0  0  0  0
 65 77  1  0  0  0  0
 67 68  1  0  0  0  0
 84 90  2  0  0  0  0
 85 90  2  0  0  0  0
M  CHG  1  77   1
M  ISO  4  39 100  63 101  74 100  87 101
M  END
> <Batch ID>
0061

> <Smiles>
CNC(C)C(=O)NC(C(=O)N1Cc2cc([101O:1][101CH2:1]C3CCC(=O)N(c4cc([100NH:0][100C:0](=O)N5CCCC(n6nc(-c7ccc(Oc8ccc(F)cc8F)cc7)c(C(N)=O)c6N)C5)cc(S(C)(=O)=O)c4C)C3)ccc2CC1C(=O)NC1CCCc2ccccc21)C(C)(C)C

> <Shape>
0.187

> <Color>
0.074

> <Negative vol penalty>
0.000

$$$$

  -OEChem-04042323073D

 86 95  0     1  0  0  0  0  0999 V2000
  -16.5461  -25.9799   22.7779 C   0  0  0  0  0  0  0  0  0  0  0  0
  -17.6484  -25.8804   21.9350 C   0  0  0  0  0  0  0  0  0  0  0  0
  -26.6314  -13.0506   19.0546 C   0  0  0  0  0  0  0  0  0  0  0  0
  -26.3257  -13.2722   21.4409 C   0  0  0  0  0  0  0  0  0  0  0  0
  -16.2836  -27.1775   23.4418 C   0  0  0  0  0  0  0  0  0  0  0  0
  -18.4882  -26.9788   21.7546 C   0  0  0  0  0  0  0  0  0  0  0  0
  -23.3916  -25.7300   21.9606 C   0  0  0  0  0  0  0  0  0  0  0  0
  -30.7698  -25.3113   20.5545 C   0  0  0  0  0  0  0  0  0  0  0  0
  -30.8037  -24.0440   21.1362 C   0  0  0  0  0  0  0  0  0  0  0  0
  -25.3838  -12.4354   18.9519 C   0  0  0  0  0  0  0  0  0  0  0  0
  -25.0780  -12.6570   21.3382 C   0  0  0  0  0  0  0  0  0  0  0  0
  -23.9441  -25.1310   20.8294 C   0  0  0  0  0  0  0  0  0  0  0  0
  -23.8674   -9.5161   21.0221 C   0  0  0  0  0  0  0  0  0  0  0  0
  -23.5524   -8.5295   21.9563 C   0  0  0  0  0  0  0  0  0  0  0  0
  -24.8920  -27.2512   20.1770 C   0  0  0  0  0  0  0  0  0  0  0  0
  -29.5450  -23.1561   19.2749 C   0  0  0  0  0  0  0  0  0  0  0  0
  -21.6543   -9.8311   22.6911 C   0  0  0  0  0  0  0  0  0  0  0  0
  -27.1024  -13.4689   20.2991 C   0  0  0  0  0  0  0  0  0  0  0  0
  -29.6395  -13.5594   20.0490 C   0  0  0  0  0  0  0  0  0  0  0  0
  -17.1260  -28.2882   23.2770 C   0  0  0  0  0  0  0  0  0  0  0  0
  -23.5763  -27.0988   22.2032 C   0  0  0  0  0  0  0  0  0  0  0  0
  -18.2359  -28.1929   22.4159 C   0  0  0  0  0  0  0  0  0  0  0  0
  -24.3429  -27.8646   21.3133 C   0  0  0  0  0  0  0  0  0  0  0  0
  -30.1235  -25.5010   19.3330 C   0  0  0  0  0  0  0  0  0  0  0  0
  -29.5111  -24.4234   18.6932 C   0  0  0  0  0  0  0  0  0  0  0  0
  -30.1913  -22.9664   20.4964 C   0  0  0  0  0  0  0  0  0  0  0  0
  -24.6071  -12.2387   20.0936 C   0  0  0  0  0  0  0  0  0  0  0  0
  -24.6920  -25.8922   19.9359 C   0  0  0  0  0  0  0  0  0  0  0  0
  -23.0759  -10.6604   20.9223 C   0  0  0  0  0  0  0  0  0  0  0  0
  -22.4459   -8.6869   22.7908 C   0  0  0  0  0  0  0  0  0  0  0  0
  -21.9693  -10.8178   21.7568 C   0  0  0  0  0  0  0  0  0  0  0  0
  -28.3914  -14.1039   20.4060 C   0  0  0  0  0  0  0  0  0  0  0  0
  -30.5432  -14.5516   20.3410 C   0  0  0  0  0  0  0  0  0  0  0  0
  -29.5392  -25.0680   16.3006 C   0  0  0  0  0  0  0  0  0  0  0  0
  -29.9539  -12.2718   19.5023 C   0  0  0  0  0  0  0  0  0  0  0  0
  -21.6471  -29.6123   22.4564 C   0  0  0  0  0  0  0  0  0  0  0  0
  -24.3853  -31.1389   23.2896 C   0  0  0  0  0  0  0  0  0  0  0  0
  -27.7932  -31.2580   23.1515 C   0  0  0  0  0  0  0  0  0  0  0  0
  -29.6709  -20.4957   20.5930 C   0  0  0  0  0  0  0  0  0  0  0  0
  -16.7749  -29.5762   23.9788 C   0  0  0  0  0  0  0  0  0  0  0  0
  -22.9961  -27.7242   23.4420 C   0  0  0  0  0  0  0  0  0  0  0  0
  -24.5877  -29.3335   21.5389 C   0  0  0  0  0  0  0  0  0  0  0  0
  -17.9258  -30.5780   24.0252 C   0  0  0  0  0  0  0  0  0  0  0  0
  -30.3999  -18.1668   23.5543 C   0  0  0  0  0  0  0  0  0  0  0  0
  -18.5864  -30.6960   22.6553 C   0  0  0  0  0  0  0  0  0  0  0  0
  -30.7543  -16.8917   22.7927 C   0  0  0  0  0  0  0  0  0  0  0  0
  -30.5995  -19.4185   22.7092 C   0  0  0  0  0  0  0  0  0  0  0  0
  -27.4328  -24.1787   17.3037 C   0  0  0  0  0  0  0  0  0  0  0  0
  -29.3321  -18.0700   21.0265 C   0  0  0  0  0  0  0  0  0  0  0  0
  -27.1689  -26.2222   15.7477 C   0  0  0  0  0  0  0  0  0  0  0  0
  -19.1843  -29.3547   22.2138 C   0  0  1  0  0  0  0  0  0  0  0  0
  -22.8165  -29.2344   23.3209 C   0  0  1  0  0  0  0  0  0  0  0  0
  -26.5175  -25.3084   16.7924 C   0  0  2  0  0  0  0  0  0  0  0  0
  -30.3277  -16.9348   21.3120 C   0  0  2  0  0  0  0  0  0  0  0  0
  -30.1030  -26.8696   18.7334 C   0  0  0  0  0  0  0  0  0  0  0  0
  -29.7475  -32.6452   23.8954 C   0  0  0  0  0  0  0  0  0  0  0  0
  -23.7622  -33.1813   21.1100 C   0  0  0  0  0  0  0  0  0  0  0  0
  -26.1393  -33.9542   21.2518 C   0  0  0  0  0  0  0  0  0  0  0  0
  -24.6421  -34.1604   23.2363 C   0  0  0  0  0  0  0  0  0  0  0  0
  -28.9177  -29.0298   24.7419 C   0  0  0  0  0  0  0  0  0  0  0  0
  -25.9868  -26.1494   17.9576 C   0  0  0  0  0  0  0  0  0  1  0  0
  -25.4694  -31.8751   22.5401 C   0  0  1  0  0  0  0  0  0  0  0  0
  -28.8381  -31.4735   24.2314 C   0  0  2  0  0  0  0  0  0  0  0  0
  -24.9972  -33.2655   22.0290 C   0  0  0  0  0  0  0  0  0  0  0  0
  -28.4895  -15.3457   20.8881 N   0  0  0  0  0  0  0  0  0  0  0  0
  -29.8100  -15.5896   20.8362 N   0  0  0  0  0  0  0  0  0  0  0  0
  -28.8386  -24.5991   17.4315 N   0  0  0  0  0  0  0  0  0  0  0  0
  -23.9943  -29.9005   22.7611 N   0  0  0  0  0  0  0  0  0  0  0  0
  -29.8808  -19.3706   21.4276 N   0  0  0  0  0  0  0  0  0  0  0  0
  -31.8855  -14.6287   20.2200 N   0  0  0  0  0  0  0  0  0  0  0  0
  -30.2288  -11.2195   20.3863 N   0  0  0  0  0  0  0  0  0  0  0  0
  -30.2259  -21.6788   21.0879 N   0  0  0  0  0  0  0  0  0  0  0  0
  -20.4370  -29.1107   22.8961 N   0  0  0  0  0  0  0  0  0  0  0  0
  -26.6210  -31.9267   23.4343 N   0  0  0  0  0  0  0  0  0  0  0  0
  -29.6807  -30.2542   24.3875 N   0  3  0  0  0  0  0  0  0  0  0  0
  -30.7500  -25.2358   16.2039 O   0  0  0  0  0  0  0  0  0  0  0  0
  -30.0061  -12.0646   18.2662 O   0  0  0  0  0  0  0  0  0  0  0  0
  -21.8290  -30.3088   21.4647 O   0  0  0  0  0  0  0  0  0  0  0  0
  -23.9081  -31.6408   24.3104 O   0  0  0  0  0  0  0  0  0  0  0  0
  -27.9977  -30.5686   22.1548 O   0  0  0  0  0  0  0  0  0  0  0  0
  -29.0609  -20.4055   19.5255 O   0  0  0  0  0  0  0  0  0  0  0  0
  -23.3895  -11.6386   19.9937 O   0  0  0  0  0  0  0  0  0  0  0  0
  -25.2319  -25.3101   18.8306 O   0  0  0  0  0  0  0  0  0  1  0  0
  -22.1426   -7.7387   23.6869 F   0  0  0  0  0  0  0  0  0  0  0  0
  -21.2045  -11.9143   21.6648 F   0  0  0  0  0  0  0  0  0  0  0  0
  -28.5298  -25.4019   14.8809 S   0  0  0  0  0  0  0  0  0  0  0  0
  1  2  1  0  0  0  0
  1  5  2  0  0  0  0
  2  6  2  0  0  0  0
  3 10  2  0  0  0  0
  3 18  1  0  0  0  0
  4 11  1  0  0  0  0
  4 18  2  0  0  0  0
  5 20  1  0  0  0  0
  6 22  1  0  0  0  0
  7 12  2  0  0  0  0
  7 21  1  0  0  0  0
  8  9  2  0  0  0  0
  8 24  1  0  0  0  0
  9 26  1  0  0  0  0
 10 27  1  0  0  0  0
 11 27  2  0  0  0  0
 12 28  1  0  0  0  0
 13 14  2  0  0  0  0
 13 29  1  0  0  0  0
 14 30  1  0  0  0  0
 15 23  1  0  0  0  0
 15 28  2  0  0  0  0
 16 25  1  0  0  0  0
 16 26  2  0  0  0  0
 17 30  2  0  0  0  0
 17 31  1  0  0  0  0
 18 32  1  0  0  0  0
 19 32  1  0  0  0  0
 19 33  2  0  0  0  0
 19 35  1  0  0  0  0
 20 22  2  0  0  0  0
 20 40  1  0  0  0  0
 21 23  2  0  0  0  0
 21 41  1  0  0  0  0
 22 51  1  0  0  0  0
 23 42  1  0  0  0  0
 24 25  2  0  0  0  0
 24 55  1  0  0  0  0
 25 67  1  0  0  0  0
 26 72  1  0  0  0  0
 27 82  1  0  0  0  0
 28 83  1  0  0  0  0
 29 31  2  0  0  0  0
 29 82  1  0  0  0  0
 30 84  1  0  0  0  0
 31 85  1  0  0  0  0
 32 65  2  0  0  0  0
 33 66  1  0  0  0  0
 33 70  1  0  0  0  0
 34 67  1  0  0  0  0
 34 76  2  0  0  0  0
 34 86  1  0  0  0  0
 35 71  1  0  0  0  0
 35 77  2  0  0  0  0
 36 52  1  0  0  0  0
 36 73  1  0  0  0  0
 36 78  2  0  0  0  0
 37 62  1  0  0  0  0
 37 68  1  0  0  0  0
 37 79  2  0  0  0  0
 38 63  1  0  0  0  0
 38 74  1  0  0  0  0
 38 80  2  0  0  0  0
 39 69  1  0  0  0  0
 39 72  1  0  0  0  0
 39 81  2  0  0  0  0
 40 43  1  0  0  0  0
 41 52  1  0  0  0  0
 42 68  1  0  0  0  0
 43 45  1  0  0  0  0
 44 46  1  0  0  0  0
 44 47  1  0  0  0  0
 45 51  1  0  0  0  0
 46 54  1  0  0  0  0
 47 69  1  0  0  0  0
 48 53  1  0  0  0  0
 48 67  1  0  0  0  0
 49 54  1  0  0  0  0
 49 69  1  0  0  0  0
 50 53  1  0  0  0  0
 50 86  1  0  0  0  0
 51 73  1  0  0  0  0
 52 68  1  0  0  0  0
 53 61  1  0  0  0  0
 54 66  1  0  0  0  0
 56 63  1  0  0  0  0
 57 64  1  0  0  0  0
 58 64  1  0  0  0  0
 59 64  1  0  0  0  0
 60 75  1  0  0  0  0
 61 83  1  0  0  0  0
 62 64  1  0  0  0  0
 62 74  1  0  0  0  0
 63 75  1  0  0  0  0
 65 66  1  0  0  0  0
M  CHG  1  75   1
M  ISO  4  39 100  61 101  72 100  83 101
M  END
> <Batch ID>
0061

> <Smiles>
CNC(C)C(=O)NC(C(=O)N1Cc2cc([101O:1][101CH2:1]C3CSC(=O)N(c4cc([100NH:0][100C:0](=O)N5CCCC(n6nc(-c7ccc(Oc8ccc(F)cc8F)cc7)c(C(N)=O)c6N)C5)ccc4C)C3)ccc2CC1C(=O)NC1CCCc2ccccc21)C(C)(C)C

> <Shape>
0.361

> <Color>
0.087

> <Negative vol penalty>
0.000

$$$$

  -OEChem-04042323073D

 89 98  0     1  0  0  0  0  0999 V2000
  -16.4862  -29.8641   23.1859 C   0  0  0  0  0  0  0  0  0  0  0  0
  -17.4901  -30.3543   22.3568 C   0  0  0  0  0  0  0  0  0  0  0  0
  -21.8332  -15.6994   23.1194 C   0  0  0  0  0  0  0  0  0  0  0  0
  -23.2658  -15.2965   25.0227 C   0  0  0  0  0  0  0  0  0  0  0  0
  -29.4799  -23.1625   18.4549 C   0  0  0  0  0  0  0  0  0  0  0  0
  -16.8175  -29.0895   24.2968 C   0  0  0  0  0  0  0  0  0  0  0  0
  -18.8260  -30.0709   22.6388 C   0  0  0  0  0  0  0  0  0  0  0  0
  -25.0915  -28.8871   19.3741 C   0  0  0  0  0  0  0  0  0  0  0  0
  -29.6205  -24.4934   18.8479 C   0  0  0  0  0  0  0  0  0  0  0  0
  -20.8741  -16.2634   23.9606 C   0  0  0  0  0  0  0  0  0  0  0  0
  -22.3067  -15.8605   25.8639 C   0  0  0  0  0  0  0  0  0  0  0  0
  -26.4134  -29.3301   19.3871 C   0  0  0  0  0  0  0  0  0  0  0  0
  -20.3668  -19.2122   25.5354 C   0  0  0  0  0  0  0  0  0  0  0  0
  -19.7709  -20.4064   25.1301 C   0  0  0  0  0  0  0  0  0  0  0  0
  -26.8624  -27.9154   21.2888 C   0  0  0  0  0  0  0  0  0  0  0  0
  -31.4149  -23.8638   20.3382 C   0  0  0  0  0  0  0  0  0  0  0  0
  -17.6057  -19.3347   25.1560 C   0  0  0  0  0  0  0  0  0  0  0  0
  -23.0290  -15.2159   23.6504 C   0  0  0  0  0  0  0  0  0  0  0  0
  -30.3068  -22.1822   19.0035 C   0  0  0  0  0  0  0  0  0  0  0  0
  -23.8645  -13.5081   21.9495 C   0  0  0  0  0  0  0  0  0  0  0  0
  -18.1575  -28.7885   24.5871 C   0  0  0  0  0  0  0  0  0  0  0  0
  -24.6416  -27.9617   20.3267 C   0  0  0  0  0  0  0  0  0  0  0  0
  -19.1756  -29.2927   23.7554 C   0  0  0  0  0  0  0  0  0  0  0  0
  -25.5350  -27.4604   21.2842 C   0  0  0  0  0  0  0  0  0  0  0  0
  -31.2743  -22.5328   19.9451 C   0  0  0  0  0  0  0  0  0  0  0  0
  -30.5880  -24.8440   19.7896 C   0  0  0  0  0  0  0  0  0  0  0  0
  -21.1109  -16.3440   25.3329 C   0  0  0  0  0  0  0  0  0  0  0  0
  -27.2983  -28.8464   20.3463 C   0  0  0  0  0  0  0  0  0  0  0  0
  -19.5823  -18.0792   25.7509 C   0  0  0  0  0  0  0  0  0  0  0  0
  -18.3903  -20.4677   24.9405 C   0  0  0  0  0  0  0  0  0  0  0  0
  -18.2017  -18.1405   25.5612 C   0  0  0  0  0  0  0  0  0  0  0  0
  -24.0199  -14.6326   22.7820 C   0  0  0  0  0  0  0  0  0  0  0  0
  -25.0851  -13.3634   21.3366 C   0  0  0  0  0  0  0  0  0  0  0  0
  -31.9805  -26.7297   20.6039 C   0  0  0  0  0  0  0  0  0  0  0  0
  -30.1358  -20.8011   18.5723 C   0  0  0  0  0  0  0  0  0  0  0  0
  -29.0021  -20.0738   18.6824 C   0  0  0  0  0  0  0  0  0  0  0  0
  -22.7191  -12.6695   21.7480 C   0  0  0  0  0  0  0  0  0  0  0  0
  -22.4454  -27.9958   22.6245 C   0  0  0  0  0  0  0  0  0  0  0  0
  -23.2333  -24.8601   22.8869 C   0  0  0  0  0  0  0  0  0  0  0  0
  -25.5499  -22.4036   22.3914 C   0  0  0  0  0  0  0  0  0  0  0  0
  -29.5132  -17.2028   20.1110 C   0  0  0  0  0  0  0  0  0  0  0  0
  -18.4695  -27.9867   25.8259 C   0  0  0  0  0  0  0  0  0  0  0  0
  -23.2195  -27.4737   20.2826 C   0  0  0  0  0  0  0  0  0  0  0  0
  -25.1069  -26.4505   22.3162 C   0  0  0  0  0  0  0  0  0  0  0  0
  -31.9693  -28.0757   21.3059 C   0  0  0  0  0  0  0  0  0  0  0  0
  -19.8864  -27.4190   25.8432 C   0  0  0  0  0  0  0  0  0  0  0  0
  -30.9261  -29.0366   20.7855 C   0  0  0  0  0  0  0  0  0  0  0  0
  -29.7438  -14.2087   22.0239 C   0  0  0  0  0  0  0  0  0  0  0  0
  -20.8956  -28.4899   25.4415 C   0  0  0  0  0  0  0  0  0  0  0  0
  -28.2890  -13.8764   22.3599 C   0  0  0  0  0  0  0  0  0  0  0  0
  -29.9951  -15.7150   22.0321 C   0  0  0  0  0  0  0  0  0  0  0  0
  -27.6283  -16.1673   21.5151 C   0  0  0  0  0  0  0  0  0  0  0  0
  -29.5814  -27.1173   19.9803 C   0  0  0  0  0  0  0  0  0  0  0  0
  -20.6348  -28.9862   24.0142 C   0  0  1  0  0  0  0  0  0  0  0  0
  -22.7367  -26.9180   21.6189 C   0  0  1  0  0  0  0  0  0  0  0  0
  -27.3129  -14.6626   21.4642 C   0  0  2  0  0  0  0  0  0  0  0  0
  -29.5700  -28.3680   20.8469 C   0  0  2  0  0  0  0  0  0  1  0  0
  -31.4758  -20.6846   21.6274 C   0  0  0  0  0  0  0  0  0  0  0  0
  -26.5055  -20.0843   22.3202 C   0  0  0  0  0  0  0  0  0  0  0  0
  -23.7161  -25.3590   25.8581 C   0  0  0  0  0  0  0  0  0  0  0  0
  -24.9639  -23.1903   25.9482 C   0  0  0  0  0  0  0  0  0  0  0  0
  -22.5453  -23.2112   25.3377 C   0  0  0  0  0  0  0  0  0  0  0  0
  -24.5760  -21.9619   19.6318 C   0  0  0  0  0  0  0  0  0  0  0  0
  -32.1781  -21.5092   20.5536 C   0  0  0  0  0  0  0  0  0  0  0  0
  -28.8716  -18.6618   18.2087 C   0  0  0  0  0  0  0  0  0  0  0  0
  -24.2491  -24.0759   23.6820 C   0  0  1  0  0  0  0  0  0  0  0  0
  -25.4348  -21.0191   21.7794 C   0  0  2  0  0  0  0  0  0  0  0  0
  -23.8765  -23.9796   25.1884 C   0  0  0  0  0  0  0  0  0  0  0  0
  -25.2428  -15.1644   22.7074 N   0  0  0  0  0  0  0  0  0  0  0  0
  -25.8670  -14.3705   21.8207 N   0  0  0  0  0  0  0  0  0  0  0  0
  -30.7318  -26.2248   20.1995 N   0  0  0  0  0  0  0  0  0  0  0  0
  -23.7047  -26.0088   22.2358 N   0  0  0  0  0  0  0  0  0  0  0  0
  -29.0372  -16.4014   21.1619 N   0  0  0  0  0  0  0  0  0  0  0  0
  -25.5551  -12.4741   20.4362 N   0  0  0  0  0  0  0  0  0  0  0  0
  -22.5596  -11.5472   22.5723 N   0  0  0  0  0  0  0  0  0  0  0  0
  -21.1306  -28.0296   23.0481 N   0  0  0  0  0  0  0  0  0  0  0  0
  -24.3809  -22.7849   23.0153 N   0  0  0  0  0  0  0  0  0  0  0  0
  -28.5386  -17.8123   19.3304 N   0  0  0  0  0  0  0  0  0  0  0  0
  -25.5807  -21.0938   20.2982 N   0  3  0  0  0  0  0  0  0  0  0  0
  -33.0616  -26.1462   20.4868 O   0  0  0  0  0  0  0  0  0  0  0  0
  -21.8712  -12.8990   20.8526 O   0  0  0  0  0  0  0  0  0  0  0  0
  -23.3472  -28.7406   22.9902 O   0  0  0  0  0  0  0  0  0  0  0  0
  -22.0660  -24.4639   22.8393 O   0  0  0  0  0  0  0  0  0  0  0  0
  -26.5755  -23.0776   22.3259 O   0  0  0  0  0  0  0  0  0  0  0  0
  -30.7174  -17.3589   19.8819 O   0  0  0  0  0  0  0  0  0  0  0  0
  -20.1753  -16.8945   26.1540 O   0  0  0  0  0  0  0  0  0  0  0  0
  -28.5890  -29.2776   20.3617 O   0  0  0  0  0  0  0  0  0  1  0  0
  -17.8180  -21.6150   24.5528 F   0  0  0  0  0  0  0  0  0  0  0  0
  -17.4427  -17.0556   25.7678 F   0  0  0  0  0  0  0  0  0  0  0  0
  1  2  1  0  0  0  0
  1  6  2  0  0  0  0
  2  7  2  0  0  0  0
  3 10  2  0  0  0  0
  3 18  1  0  0  0  0
  4 11  1  0  0  0  0
  4 18  2  0  0  0  0
  5  9  2  0  0  0  0
  5 19  1  0  0  0  0
  6 21  1  0  0  0  0
  7 23  1  0  0  0  0
  8 12  2  0  0  0  0
  8 22  1  0  0  0  0
  9 26  1  0  0  0  0
 10 27  1  0  0  0  0
 11 27  2  0  0  0  0
 12 28  1  0  0  0  0
 13 14  2  0  0  0  0
 13 29  1  0  0  0  0
 14 30  1  0  0  0  0
 15 24  1  0  0  0  0
 15 28  2  0  0  0  0
 16 25  1  0  0  0  0
 16 26  2  0  0  0  0
 17 30  2  0  0  0  0
 17 31  1  0  0  0  0
 18 32  1  0  0  0  0
 19 25  2  0  0  0  0
 19 35  1  0  0  0  0
 20 32  1  0  0  0  0
 20 33  2  0  0  0  0
 20 37  1  0  0  0  0
 21 23  2  0  0  0  0
 21 42  1  0  0  0  0
 22 24  2  0  0  0  0
 22 43  1  0  0  0  0
 23 54  1  0  0  0  0
 24 44  1  0  0  0  0
 25 64  1  0  0  0  0
 26 71  1  0  0  0  0
 27 86  1  0  0  0  0
 28 87  1  0  0  0  0
 29 31  2  0  0  0  0
 29 86  1  0  0  0  0
 30 88  1  0  0  0  0
 31 89  1  0  0  0  0
 32 69  2  0  0  0  0
 33 70  1  0  0  0  0
 33 74  1  0  0  0  0
 34 45  1  0  0  0  0
 34 71  1  0  0  0  0
 34 80  2  0  0  0  0
 35 36  2  0  0  0  0
 36 65  1  0  0  0  0
 37 75  1  0  0  0  0
 37 81  2  0  0  0  0
 38 55  1  0  0  0  0
 38 76  1  0  0  0  0
 38 82  2  0  0  0  0
 39 66  1  0  0  0  0
 39 72  1  0  0  0  0
 39 83  2  0  0  0  0
 40 67  1  0  0  0  0
 40 77  1  0  0  0  0
 40 84  2  0  0  0  0
 41 73  1  0  0  0  0
 41 78  1  0  0  0  0
 41 85  2  0  0  0  0
 42 46  1  0  0  0  0
 43 55  1  0  0  0  0
 44 72  1  0  0  0  0
 45 47  1  0  0  0  0
 46 49  1  0  0  0  0
 47 57  1  0  0  0  0
 48 50  1  0  0  0  0
 48 51  1  0  0  0  0
 49 54  1  0  0  0  0
 50 56  1  0  0  0  0
 51 73  1  0  0  0  0
 52 56  1  0  0  0  0
 52 73  1  0  0  0  0
 53 57  1  0  0  0  0
 53 71  1  0  0  0  0
 54 76  1  0  0  0  0
 55 72  1  0  0  0  0
 56 70  1  0  0  0  0
 57 87  1  0  0  0  0
 58 64  1  0  0  0  0
 59 67  1  0  0  0  0
 60 68  1  0  0  0  0
 61 68  1  0  0  0  0
 62 68  1  0  0  0  0
 63 79  1  0  0  0  0
 65 78  1  0  0  0  0
 66 68  1  0  0  0  0
 66 77  1  0  0  0  0
 67 79  1  0  0  0  0
 69 70  1  0  0  0  0
M  CHG  1  79   1
M  ISO  4  41 100  57 101  78 100  87 101
M  END
> <Batch ID>
0061

> <Smiles>
CCc1cc(N2C[101CH:1]([101O:1]c3ccc4c(c3)CN(C(=O)C(NC(=O)C(C)NC)C(C)(C)C)C(C(=O)NC3CCCc5ccccc53)C4)CCC2=O)ccc1C=CC[100NH:0][100C:0](=O)N1CCCC(n2nc(-c3ccc(Oc4ccc(F)cc4F)cc3)c(C(N)=O)c2N)C1

> <Shape>
0.209

> <Color>
0.082

> <Negative vol penalty>
0.000

$$$$

  -OEChem-04042323073D

 86 95  0     1  0  0  0  0  0999 V2000
  -29.8518  -32.4996   25.8354 C   0  0  0  0  0  0  0  0  0  0  0  0
  -29.8127  -31.1448   25.5215 C   0  0  0  0  0  0  0  0  0  0  0  0
  -30.8173  -18.8516   17.6590 C   0  0  0  0  0  0  0  0  0  0  0  0
  -23.3779   -9.8842   21.8333 C   0  0  0  0  0  0  0  0  0  0  0  0
  -24.0411  -11.1203   23.8004 C   0  0  0  0  0  0  0  0  0  0  0  0
  -28.7193  -33.2906   25.6468 C   0  0  0  0  0  0  0  0  0  0  0  0
  -28.6405  -30.5800   25.0200 C   0  0  0  0  0  0  0  0  0  0  0  0
  -28.1967  -26.0716   20.8990 C   0  0  0  0  0  0  0  0  0  0  0  0
  -29.9962  -19.9215   18.0146 C   0  0  0  0  0  0  0  0  0  0  0  0
  -30.7493  -17.6537   18.3705 C   0  0  0  0  0  0  0  0  0  0  0  0
  -22.7228   -8.9532   22.6393 C   0  0  0  0  0  0  0  0  0  0  0  0
  -23.3860  -10.1893   24.6063 C   0  0  0  0  0  0  0  0  0  0  0  0
  -27.9849  -24.6997   21.0287 C   0  0  0  0  0  0  0  0  0  0  0  0
  -19.7945   -8.7328   24.3153 C   0  0  0  0  0  0  0  0  0  0  0  0
  -18.5167   -8.3274   23.9301 C   0  0  0  0  0  0  0  0  0  0  0  0
  -25.6264  -25.0339   20.6480 C   0  0  0  0  0  0  0  0  0  0  0  0
  -19.2887   -6.0434   23.7728 C   0  0  0  0  0  0  0  0  0  0  0  0
  -24.0372  -10.9678   22.4139 C   0  0  0  0  0  0  0  0  0  0  0  0
  -24.1729  -13.1043   21.0266 C   0  0  0  0  0  0  0  0  0  0  0  0
  -27.5356  -32.7373   25.1336 C   0  0  0  0  0  0  0  0  0  0  0  0
  -27.1215  -26.9377   20.6532 C   0  0  0  0  0  0  0  0  0  0  0  0
  -27.4907  -31.3641   24.8256 C   0  0  0  0  0  0  0  0  0  0  0  0
  -25.8275  -26.4161   20.5130 C   0  0  0  0  0  0  0  0  0  0  0  0
  -29.1071  -19.7937   19.0817 C   0  0  0  0  0  0  0  0  0  0  0  0
  -29.0391  -18.5959   19.7933 C   0  0  0  0  0  0  0  0  0  0  0  0
  -29.8603  -17.5259   19.4377 C   0  0  0  0  0  0  0  0  0  0  0  0
  -22.7268   -9.1057   24.0258 C   0  0  0  0  0  0  0  0  0  0  0  0
  -26.6992  -24.1810   20.9061 C   0  0  0  0  0  0  0  0  0  0  0  0
  -20.8195   -7.7936   24.4292 C   0  0  0  0  0  0  0  0  0  0  0  0
  -18.2638   -6.9827   23.6589 C   0  0  0  0  0  0  0  0  0  0  0  0
  -20.5666   -6.4489   24.1580 C   0  0  0  0  0  0  0  0  0  0  0  0
  -24.7146  -11.9296   21.5819 C   0  0  0  0  0  0  0  0  0  0  0  0
  -25.2129  -13.6638   20.3253 C   0  0  0  0  0  0  0  0  0  0  0  0
  -26.4705  -20.5444   17.6920 C   0  0  0  0  0  0  0  0  0  0  0  0
  -22.8481  -13.6417   21.1350 C   0  0  0  0  0  0  0  0  0  0  0  0
  -25.8006  -29.3723   22.2124 C   0  0  0  0  0  0  0  0  0  0  0  0
  -24.0331  -29.6400   19.5056 C   0  0  0  0  0  0  0  0  0  0  0  0
  -22.7554  -28.1393   16.7195 C   0  0  0  0  0  0  0  0  0  0  0  0
  -30.5619  -15.1521   19.9057 C   0  0  0  0  0  0  0  0  0  0  0  0
  -26.3226  -33.6222   24.9915 C   0  0  0  0  0  0  0  0  0  0  0  0
  -27.3704  -28.4120   20.4892 C   0  0  0  0  0  0  0  0  0  0  0  0
  -24.6423  -27.3010   20.2289 C   0  0  0  0  0  0  0  0  0  0  0  0
  -24.9653  -20.4360   17.6921 C   0  0  0  0  0  0  0  0  0  0  0  0
  -25.2340  -33.0255   24.1032 C   0  0  0  0  0  0  0  0  0  0  0  0
  -24.6285  -20.1620   19.1549 C   0  0  0  0  0  0  0  0  0  0  0  0
  -29.7485  -11.7812   19.0981 C   0  0  0  0  0  0  0  0  0  0  0  0
  -24.9848  -31.5663   24.4714 C   0  0  0  0  0  0  0  0  0  0  0  0
  -28.3218  -11.6159   19.6266 C   0  0  0  0  0  0  0  0  0  0  0  0
  -30.5920  -12.6695   20.0107 C   0  0  0  0  0  0  0  0  0  0  0  0
  -28.5772  -13.8141   20.8471 C   0  0  0  0  0  0  0  0  0  0  0  0
  -26.2454  -30.7200   24.2561 C   0  0  1  0  0  0  0  0  0  0  0  0
  -26.1296  -29.2601   20.7506 C   0  0  1  0  0  0  0  0  0  0  0  0
  -27.6706  -12.9802   19.9272 C   0  0  2  0  0  0  0  0  0  0  0  0
  -25.7496  -20.8424   19.9345 C   0  0  2  0  0  0  0  0  0  0  0  0
  -28.0835  -18.4635   20.9375 C   0  0  0  0  0  0  0  0  0  0  0  0
  -21.3180  -28.6037   14.7156 C   0  0  0  0  0  0  0  0  0  0  0  0
  -21.5453  -29.5364   21.2692 C   0  0  0  0  0  0  0  0  0  0  0  0
  -20.1964  -29.0476   19.2175 C   0  0  0  0  0  0  0  0  0  0  0  0
  -21.4363  -31.2037   19.4084 C   0  0  0  0  0  0  0  0  0  0  0  0
  -24.9591  -27.5077   14.8476 C   0  0  0  0  0  0  0  0  0  0  0  0
  -28.2347  -20.9609   19.4433 C   0  0  0  0  0  0  0  0  0  0  0  0
  -25.4024  -22.2826   20.2974 C   0  0  0  0  0  0  0  0  0  1  0  0
  -22.7247  -29.0630   19.0217 C   0  0  1  0  0  0  0  0  0  0  0  0
  -22.7362  -28.5682   15.2634 C   0  0  2  0  0  0  0  0  0  0  0  0
  -21.4975  -29.6959   19.7365 C   0  0  0  0  0  0  0  0  0  0  0  0
  -25.9990  -11.7522   21.2610 N   0  0  0  0  0  0  0  0  0  0  0  0
  -26.2730  -12.8228   20.4963 N   0  0  0  0  0  0  0  0  0  0  0  0
  -26.8659  -20.7698   19.0089 N   0  0  0  0  0  0  0  0  0  0  0  0
  -24.9360  -28.7362   20.0833 N   0  0  0  0  0  0  0  0  0  0  0  0
  -29.9144  -13.9461   20.2477 N   0  0  0  0  0  0  0  0  0  0  0  0
  -25.3149  -14.7882   19.5852 N   0  0  0  0  0  0  0  0  0  0  0  0
  -21.9023  -12.9394   21.8943 N   0  0  0  0  0  0  0  0  0  0  0  0
  -29.8074  -16.2999   20.1462 N   0  0  0  0  0  0  0  0  0  0  0  0
  -26.4239  -30.4280   22.8499 N   0  0  0  0  0  0  0  0  0  0  0  0
  -22.7196  -29.2228   17.5716 N   0  0  0  0  0  0  0  0  0  0  0  0
  -23.5368  -27.6233   14.4345 N   0  3  0  0  0  0  0  0  0  0  0  0
  -27.1708  -20.4776   16.6929 O   0  0  0  0  0  0  0  0  0  0  0  0
  -22.5084  -14.7044   20.5616 O   0  0  0  0  0  0  0  0  0  0  0  0
  -25.0365  -28.5621   22.7237 O   0  0  0  0  0  0  0  0  0  0  0  0
  -24.2491  -30.8468   19.3693 O   0  0  0  0  0  0  0  0  0  0  0  0
  -22.7943  -26.9609   17.0663 O   0  0  0  0  0  0  0  0  0  0  0  0
  -31.6911  -15.1641   19.4090 O   0  0  0  0  0  0  0  0  0  0  0  0
  -22.0874   -8.1975   24.8125 O   0  0  0  0  0  0  0  0  0  0  0  0
  -26.4896  -22.8424   21.0329 O   0  0  0  0  0  0  0  0  0  1  0  0
  -17.0362   -6.5933   23.2905 F   0  0  0  0  0  0  0  0  0  0  0  0
  -21.5470   -5.5418   24.2668 F   0  0  0  0  0  0  0  0  0  0  0  0
  1  2  1  0  0  0  0
  1  6  2  0  0  0  0
  2  7  2  0  0  0  0
  3  9  2  0  0  0  0
  3 10  1  0  0  0  0
  4 11  2  0  0  0  0
  4 18  1  0  0  0  0
  5 12  1  0  0  0  0
  5 18  2  0  0  0  0
  6 20  1  0  0  0  0
  7 22  1  0  0  0  0
  8 13  2  0  0  0  0
  8 21  1  0  0  0  0
  9 24  1  0  0  0  0
 10 26  2  0  0  0  0
 11 27  1  0  0  0  0
 12 27  2  0  0  0  0
 13 28  1  0  0  0  0
 14 15  2  0  0  0  0
 14 29  1  0  0  0  0
 15 30  1  0  0  0  0
 16 23  1  0  0  0  0
 16 28  2  0  0  0  0
 17 30  2  0  0  0  0
 17 31  1  0  0  0  0
 18 32  1  0  0  0  0
 19 32  1  0  0  0  0
 19 33  2  0  0  0  0
 19 35  1  0  0  0  0
 20 22  2  0  0  0  0
 20 40  1  0  0  0  0
 21 23  2  0  0  0  0
 21 41  1  0  0  0  0
 22 51  1  0  0  0  0
 23 42  1  0  0  0  0
 24 25  2  0  0  0  0
 24 61  1  0  0  0  0
 25 26  1  0  0  0  0
 25 55  1  0  0  0  0
 26 73  1  0  0  0  0
 27 83  1  0  0  0  0
 28 84  1  0  0  0  0
 29 31  2  0  0  0  0
 29 83  1  0  0  0  0
 30 85  1  0  0  0  0
 31 86  1  0  0  0  0
 32 66  2  0  0  0  0
 33 67  1  0  0  0  0
 33 71  1  0  0  0  0
 34 43  1  0  0  0  0
 34 68  1  0  0  0  0
 34 77  2  0  0  0  0
 35 72  1  0  0  0  0
 35 78  2  0  0  0  0
 36 52  1  0  0  0  0
 36 74  1  0  0  0  0
 36 79  2  0  0  0  0
 37 63  1  0  0  0  0
 37 69  1  0  0  0  0
 37 80  2  0  0  0  0
 38 64  1  0  0  0  0
 38 75  1  0  0  0  0
 38 81  2  0  0  0  0
 39 70  1  0  0  0  0
 39 73  1  0  0  0  0
 39 82  2  0  0  0  0
 40 44  1  0  0  0  0
 41 52  1  0  0  0  0
 42 69  1  0  0  0  0
 43 45  1  0  0  0  0
 44 47  1  0  0  0  0
 45 54  1  0  0  0  0
 46 48  1  0  0  0  0
 46 49  1  0  0  0  0
 47 51  1  0  0  0  0
 48 53  1  0  0  0  0
 49 70  1  0  0  0  0
 50 53  1  0  0  0  0
 50 70  1  0  0  0  0
 51 74  1  0  0  0  0
 52 69  1  0  0  0  0
 53 67  1  0  0  0  0
 54 62  1  0  0  0  0
 54 68  1  0  0  0  0
 56 64  1  0  0  0  0
 57 65  1  0  0  0  0
 58 65  1  0  0  0  0
 59 65  1  0  0  0  0
 60 76  1  0  0  0  0
 61 68  1  0  0  0  0
 62 84  1  0  0  0  0
 63 65  1  0  0  0  0
 63 75  1  0  0  0  0
 64 76  1  0  0  0  0
 66 67  1  0  0  0  0
M  CHG  1  76   1
M  ISO  4  39 100  62 101  73 100  84 101
M  END
> <Batch ID>
0061

> <Smiles>
CNC(C)C(=O)NC(C(=O)N1Cc2cc([101O:1][101CH2:1]C3CCC(=O)N3Cc3cccc([100NH:0][100C:0](=O)N4CCCC(n5nc(-c6ccc(Oc7ccc(F)cc7F)cc6)c(C(N)=O)c5N)C4)c3C)ccc2CC1C(=O)NC1CCCc2ccccc21)C(C)(C)C

> <Shape>
0.286

> <Color>
0.132

> <Negative vol penalty>
0.000

$$$$

  -OEChem-04042323073D

 85 93  0     1  0  0  0  0  0999 V2000
  -29.4036  -23.8202   17.1683 C   0  0  0  0  0  0  0  0  0  0  0  0
  -28.2261  -23.6536   17.8904 C   0  0  0  0  0  0  0  0  0  0  0  0
  -27.5433  -15.8689   18.9940 C   0  0  0  0  0  0  0  0  0  0  0  0
  -27.5921  -16.0561   21.4022 C   0  0  0  0  0  0  0  0  0  0  0  0
  -30.3496  -24.7553   17.5859 C   0  0  0  0  0  0  0  0  0  0  0  0
  -27.9946  -24.4213   19.0312 C   0  0  0  0  0  0  0  0  0  0  0  0
  -22.6020  -26.5510   21.0034 C   0  0  0  0  0  0  0  0  0  0  0  0
  -20.8291  -19.4746   24.6766 C   0  0  0  0  0  0  0  0  0  0  0  0
  -20.9076  -20.8239   25.0213 C   0  0  0  0  0  0  0  0  0  0  0  0
  -28.7697  -16.5289   18.9177 C   0  0  0  0  0  0  0  0  0  0  0  0
  -28.8186  -16.7161   21.3260 C   0  0  0  0  0  0  0  0  0  0  0  0
  -21.7093  -26.0919   21.9709 C   0  0  0  0  0  0  0  0  0  0  0  0
  -31.7885  -18.7688   21.7458 C   0  0  0  0  0  0  0  0  0  0  0  0
  -31.9613  -19.9085   22.5311 C   0  0  0  0  0  0  0  0  0  0  0  0
  -22.6875  -27.5995   23.5801 C   0  0  0  0  0  0  0  0  0  0  0  0
  -18.6896  -20.7099   25.9725 C   0  0  0  0  0  0  0  0  0  0  0  0
  -30.1073  -20.9683   21.4013 C   0  0  0  0  0  0  0  0  0  0  0  0
  -26.9544  -15.6325   20.2362 C   0  0  0  0  0  0  0  0  0  0  0  0
  -25.4733  -13.5644   20.4280 C   0  0  0  0  0  0  0  0  0  0  0  0
  -30.1252  -25.5417   18.7269 C   0  0  0  0  0  0  0  0  0  0  0  0
  -23.5529  -27.5316   21.3204 C   0  0  0  0  0  0  0  0  0  0  0  0
  -28.9392  -25.3669   19.4652 C   0  0  0  0  0  0  0  0  0  0  0  0
  -23.5894  -28.0712   22.6141 C   0  0  0  0  0  0  0  0  0  0  0  0
  -19.6808  -18.7430   24.9797 C   0  0  0  0  0  0  0  0  0  0  0  0
  -18.6111  -19.3606   25.6277 C   0  0  0  0  0  0  0  0  0  0  0  0
  -19.8379  -21.4415   25.6693 C   0  0  0  0  0  0  0  0  0  0  0  0
  -29.4074  -16.9525   20.0837 C   0  0  0  0  0  0  0  0  0  0  0  0
  -21.7538  -26.6141   23.2603 C   0  0  0  0  0  0  0  0  0  0  0  0
  -30.7751  -18.7289   20.7881 C   0  0  0  0  0  0  0  0  0  0  0  0
  -31.1207  -21.0082   22.3589 C   0  0  0  0  0  0  0  0  0  0  0  0
  -29.9345  -19.8286   20.6159 C   0  0  0  0  0  0  0  0  0  0  0  0
  -25.6873  -14.9513   20.3156 C   0  0  0  0  0  0  0  0  0  0  0  0
  -24.1070  -13.4299   20.4670 C   0  0  0  0  0  0  0  0  0  0  0  0
  -26.4245  -12.4935   20.4915 C   0  0  0  0  0  0  0  0  0  0  0  0
  -26.7292  -27.6487   21.3526 C   0  0  0  0  0  0  0  0  0  0  0  0
  -26.2185  -30.7832   22.0130 C   0  0  0  0  0  0  0  0  0  0  0  0
  -20.9794  -23.6830   25.7984 C   0  0  0  0  0  0  0  0  0  0  0  0
  -24.1309  -33.1791   23.2577 C   0  0  0  0  0  0  0  0  0  0  0  0
  -19.6923  -17.1191   22.1259 C   0  0  0  0  0  0  0  0  0  0  0  0
  -31.1983  -26.5062   19.1663 C   0  0  0  0  0  0  0  0  0  0  0  0
  -24.4912  -28.0354   20.2582 C   0  0  0  0  0  0  0  0  0  0  0  0
  -24.5778  -29.1401   22.9999 C   0  0  0  0  0  0  0  0  0  0  0  0
  -30.7090  -27.5444   20.1728 C   0  0  0  0  0  0  0  0  0  0  0  0
  -20.0913  -15.5471   18.9563 C   0  0  0  0  0  0  0  0  0  0  0  0
  -29.8884  -26.8771   21.2719 C   0  0  0  0  0  0  0  0  0  0  0  0
  -21.5514  -15.0910   18.9554 C   0  0  0  0  0  0  0  0  0  0  0  0
  -19.9187  -16.8860   19.6701 C   0  0  0  0  0  0  0  0  0  0  0  0
  -21.9283  -16.4779   21.0370 C   0  0  0  0  0  0  0  0  0  0  0  0
  -28.6406  -26.1984   20.6938 C   0  0  1  0  0  0  0  0  0  0  0  0
  -25.7566  -28.6676   20.8297 C   0  0  1  0  0  0  0  0  0  0  0  0
  -22.1441  -15.1051   20.3772 C   0  0  2  0  0  0  0  0  0  0  0  0
  -17.3726  -18.5967   25.9641 C   0  0  0  0  0  0  0  0  0  0  0  0
  -20.1405  -16.3716   25.7057 C   0  0  0  0  0  0  0  0  0  0  0  0
  -24.0056  -35.6460   23.7000 C   0  0  0  0  0  0  0  0  0  0  0  0
  -28.0275  -30.4365   24.4456 C   0  0  0  0  0  0  0  0  0  0  0  0
  -27.1182  -32.5902   25.3417 C   0  0  0  0  0  0  0  0  0  0  0  0
  -28.3716  -32.5689   23.1851 C   0  0  0  0  0  0  0  0  0  0  0  0
  -21.8178  -33.5050   21.4404 C   0  0  0  0  0  0  0  0  0  0  0  0
  -20.6505  -25.0709   26.3366 C   0  0  0  0  0  0  0  0  0  0  0  0
  -21.3312  -26.1890   25.5617 C   0  0  0  0  0  0  0  0  0  1  0  0
  -19.6196  -17.2998   24.6000 C   0  0  2  0  0  0  0  0  0  0  0  0
  -26.0401  -31.5950   23.2733 C   0  0  1  0  0  0  0  0  0  0  0  0
  -23.7087  -34.5305   22.7100 C   0  0  2  0  0  0  0  0  0  0  0  0
  -27.3719  -31.7762   24.0550 C   0  0  0  0  0  0  0  0  0  0  0  0
  -24.5481  -15.6480   20.2850 N   0  0  0  0  0  0  0  0  0  0  0  0
  -23.6052  -14.6950   20.3787 N   0  0  0  0  0  0  0  0  0  0  0  0
  -25.4785  -29.5954   21.9279 N   0  0  0  0  0  0  0  0  0  0  0  0
  -20.5004  -16.8320   21.0134 N   0  0  0  0  0  0  0  0  0  0  0  0
  -23.2978  -12.3540   20.5678 N   0  0  0  0  0  0  0  0  0  0  0  0
  -27.7893  -12.8081   20.4386 N   0  0  0  0  0  0  0  0  0  0  0  0
  -19.9179  -22.8100   26.0211 N   0  0  0  0  0  0  0  0  0  0  0  0
  -27.6190  -27.1816   20.4041 N   0  0  0  0  0  0  0  0  0  0  0  0
  -25.4108  -32.8469   22.8668 N   0  0  0  0  0  0  0  0  0  0  0  0
  -20.3207  -17.0387   23.3626 N   0  0  0  0  0  0  0  0  0  0  0  0
  -22.2472  -34.5375   22.4184 N   0  3  0  0  0  0  0  0  0  0  0  0
  -26.0743  -11.2919   20.5756 O   0  0  0  0  0  0  0  0  0  0  0  0
  -26.6774  -27.3124   22.5299 O   0  0  0  0  0  0  0  0  0  0  0  0
  -26.9806  -31.1917   21.1334 O   0  0  0  0  0  0  0  0  0  0  0  0
  -22.0492  -23.4304   25.2544 O   0  0  0  0  0  0  0  0  0  0  0  0
  -23.4000  -32.4889   23.9647 O   0  0  0  0  0  0  0  0  0  0  0  0
  -18.4979  -17.4192   22.0248 O   0  0  0  0  0  0  0  0  0  0  0  0
  -30.6043  -17.5964   20.0097 O   0  0  0  0  0  0  0  0  0  0  0  0
  -20.8841  -26.1673   24.2067 O   0  0  0  0  0  0  0  0  0  1  0  0
  -31.2858  -22.1020   23.1143 F   0  0  0  0  0  0  0  0  0  0  0  0
  -28.9584  -19.7956   19.6983 F   0  0  0  0  0  0  0  0  0  0  0  0
  1  2  1  0  0  0  0
  1  5  2  0  0  0  0
  2  6  2  0  0  0  0
  3 10  2  0  0  0  0
  3 18  1  0  0  0  0
  4 11  1  0  0  0  0
  4 18  2  0  0  0  0
  5 20  1  0  0  0  0
  6 22  1  0  0  0  0
  7 12  2  0  0  0  0
  7 21  1  0  0  0  0
  8  9  2  0  0  0  0
  8 24  1  0  0  0  0
  9 26  1  0  0  0  0
 10 27  1  0  0  0  0
 11 27  2  0  0  0  0
 12 28  1  0  0  0  0
 13 14  2  0  0  0  0
 13 29  1  0  0  0  0
 14 30  1  0  0  0  0
 15 23  1  0  0  0  0
 15 28  2  0  0  0  0
 16 25  1  0  0  0  0
 16 26  2  0  0  0  0
 17 30  2  0  0  0  0
 17 31  1  0  0  0  0
 18 32  1  0  0  0  0
 19 32  1  0  0  0  0
 19 33  2  0  0  0  0
 19 34  1  0  0  0  0
 20 22  2  0  0  0  0
 20 40  1  0  0  0  0
 21 23  2  0  0  0  0
 21 41  1  0  0  0  0
 22 49  1  0  0  0  0
 23 42  1  0  0  0  0
 24 25  2  0  0  0  0
 24 61  1  0  0  0  0
 25 52  1  0  0  0  0
 26 71  1  0  0  0  0
 27 82  1  0  0  0  0
 28 83  1  0  0  0  0
 29 31  2  0  0  0  0
 29 82  1  0  0  0  0
 30 84  1  0  0  0  0
 31 85  1  0  0  0  0
 32 65  2  0  0  0  0
 33 66  1  0  0  0  0
 33 69  1  0  0  0  0
 34 70  1  0  0  0  0
 34 76  2  0  0  0  0
 35 50  1  0  0  0  0
 35 72  1  0  0  0  0
 35 77  2  0  0  0  0
 36 62  1  0  0  0  0
 36 67  1  0  0  0  0
 36 78  2  0  0  0  0
 37 59  1  0  0  0  0
 37 71  1  0  0  0  0
 37 79  2  0  0  0  0
 38 63  1  0  0  0  0
 38 73  1  0  0  0  0
 38 80  2  0  0  0  0
 39 68  1  0  0  0  0
 39 74  1  0  0  0  0
 39 81  2  0  0  0  0
 40 43  1  0  0  0  0
 41 50  1  0  0  0  0
 42 67  1  0  0  0  0
 43 45  1  0  0  0  0
 44 46  1  0  0  0  0
 44 47  1  0  0  0  0
 45 49  1  0  0  0  0
 46 51  1  0  0  0  0
 47 68  1  0  0  0  0
 48 51  1  0  0  0  0
 48 68  1  0  0  0  0
 49 72  1  0  0  0  0
 50 67  1  0  0  0  0
 51 66  1  0  0  0  0
 53 61  1  0  0  0  0
 54 63  1  0  0  0  0
 55 64  1  0  0  0  0
 56 64  1  0  0  0  0
 57 64  1  0  0  0  0
 58 75  1  0  0  0  0
 59 60  1  0  0  0  0
 60 83  1  0  0  0  0
 61 74  1  0  0  0  0
 62 64  1  0  0  0  0
 62 73  1  0  0  0  0
 63 75  1  0  0  0  0
 65 66  1  0  0  0  0
M  CHG  1  75   1
M  ISO  4  39 100  60 101  74 100  83 101
M  END
> <Batch ID>
0061

> <Smiles>
CNC(C)C(=O)NC(C(=O)N1Cc2cc([101O:1][101CH2:1]CC(=O)Nc3ccc(C(C)[100NH:0][100C:0](=O)N4CCCC(n5nc(-c6ccc(Oc7ccc(F)cc7F)cc6)c(C(N)=O)c5N)C4)c(C)c3)ccc2CC1C(=O)NC1CCCc2ccccc21)C(C)(C)C

> <Shape>
0.248

> <Color>
0.061

> <Negative vol penalty>
0.000

$$$$

  -OEChem-04042323073D

 91100  0     1  0  0  0  0  0999 V2000
  -21.6629  -36.3151   24.5749 C   0  0  0  0  0  0  0  0  0  0  0  0
  -22.1670  -36.0018   23.3166 C   0  0  0  0  0  0  0  0  0  0  0  0
  -22.9686  -10.0084   19.8866 C   0  0  0  0  0  0  0  0  0  0  0  0
  -23.8976   -9.6814   22.0928 C   0  0  0  0  0  0  0  0  0  0  0  0
  -22.4554  -36.1326   25.7073 C   0  0  0  0  0  0  0  0  0  0  0  0
  -23.4645  -35.5067   23.1901 C   0  0  0  0  0  0  0  0  0  0  0  0
  -24.7065  -29.0912   20.1585 C   0  0  0  0  0  0  0  0  0  0  0  0
  -31.5825  -18.8125   21.1059 C   0  0  0  0  0  0  0  0  0  0  0  0
  -31.3518  -17.4467   20.9417 C   0  0  0  0  0  0  0  0  0  0  0  0
  -22.2042   -8.8514   20.0370 C   0  0  0  0  0  0  0  0  0  0  0  0
  -23.1331   -8.5243   22.2432 C   0  0  0  0  0  0  0  0  0  0  0  0
  -25.0429  -27.9690   19.4012 C   0  0  0  0  0  0  0  0  0  0  0  0
  -19.9323   -7.7347   22.9858 C   0  0  0  0  0  0  0  0  0  0  0  0
  -19.2640   -7.5541   24.1968 C   0  0  0  0  0  0  0  0  0  0  0  0
  -27.3806  -28.3067   19.9197 C   0  0  0  0  0  0  0  0  0  0  0  0
  -30.1021  -18.8332   23.0151 C   0  0  0  0  0  0  0  0  0  0  0  0
  -20.4860   -5.5027   24.5652 C   0  0  0  0  0  0  0  0  0  0  0  0
  -23.8153  -10.4234   20.9145 C   0  0  0  0  0  0  0  0  0  0  0  0
  -24.2385  -12.9315   21.1091 C   0  0  0  0  0  0  0  0  0  0  0  0
  -23.7598  -35.6260   25.5955 C   0  0  0  0  0  0  0  0  0  0  0  0
  -25.7056  -29.8174   20.8127 C   0  0  0  0  0  0  0  0  0  0  0  0
  -24.2757  -35.3186   24.3220 C   0  0  0  0  0  0  0  0  0  0  0  0
  -27.0484  -29.4244   20.6899 C   0  0  0  0  0  0  0  0  0  0  0  0
  -30.9577  -19.5057   22.1426 C   0  0  0  0  0  0  0  0  0  0  0  0
  -29.8713  -17.4673   22.8509 C   0  0  0  0  0  0  0  0  0  0  0  0
  -30.4962  -16.7741   21.8142 C   0  0  0  0  0  0  0  0  0  0  0  0
  -22.2865   -8.1094   21.2152 C   0  0  0  0  0  0  0  0  0  0  0  0
  -26.3767  -27.5779   19.2819 C   0  0  0  0  0  0  0  0  0  0  0  0
  -20.8774   -6.7993   22.5645 C   0  0  0  0  0  0  0  0  0  0  0  0
  -19.5409   -6.4382   24.9865 C   0  0  0  0  0  0  0  0  0  0  0  0
  -21.1542   -5.6833   23.3542 C   0  0  0  0  0  0  0  0  0  0  0  0
  -24.6056  -11.6182   20.7596 C   0  0  0  0  0  0  0  0  0  0  0  0
  -25.3269  -13.6954   20.7650 C   0  0  0  0  0  0  0  0  0  0  0  0
  -28.7968  -23.0007   20.1373 C   0  0  0  0  0  0  0  0  0  0  0  0
  -29.9960  -22.1727   20.5334 C   0  0  0  0  0  0  0  0  0  0  0  0
  -23.0224  -13.4175   21.6927 C   0  0  0  0  0  0  0  0  0  0  0  0
  -26.5611  -32.7150   23.0371 C   0  0  0  0  0  0  0  0  0  0  0  0
  -27.7002  -24.2808   18.5934 C   0  0  0  0  0  0  0  0  0  0  0  0
  -28.3322  -30.3676   23.9108 C   0  0  0  0  0  0  0  0  0  0  0  0
  -29.2177  -27.5463   24.9872 C   0  0  0  0  0  0  0  0  0  0  0  0
  -30.8251  -14.5662   20.6466 C   0  0  0  0  0  0  0  0  0  0  0  0
  -24.5954  -35.4904   26.8437 C   0  0  0  0  0  0  0  0  0  0  0  0
  -25.3956  -31.0686   21.5888 C   0  0  0  0  0  0  0  0  0  0  0  0
  -28.0931  -30.2559   21.3828 C   0  0  0  0  0  0  0  0  0  0  0  0
  -27.6660  -23.2314   21.0997 C   0  0  0  0  0  0  0  0  0  0  0  0
  -25.8275  -34.6082   26.6591 C   0  0  0  0  0  0  0  0  0  0  0  0
  -27.7061  -22.2698   22.2689 C   0  0  0  0  0  0  0  0  0  0  0  0
  -29.4501  -12.5293   18.0703 C   0  0  0  0  0  0  0  0  0  0  0  0
  -26.5611  -34.9780   25.3739 C   0  0  0  0  0  0  0  0  0  0  0  0
  -28.0370  -12.2187   18.5690 C   0  0  0  0  0  0  0  0  0  0  0  0
  -30.4601  -12.5676   19.2157 C   0  0  0  0  0  0  0  0  0  0  0  0
  -28.6893  -13.1447   20.8282 C   0  0  0  0  0  0  0  0  0  0  0  0
  -25.6695  -34.7560   24.1462 C   0  0  1  0  0  0  0  0  0  0  0  0
  -26.2987  -31.2535   22.8214 C   0  0  1  0  0  0  0  0  0  0  0  0
  -27.6255  -13.1596   19.7184 C   0  0  2  0  0  0  0  0  0  0  0  0
  -29.1029  -22.1968   22.8800 C   0  0  2  0  0  0  0  0  0  0  0  0
  -28.9476  -16.7731   23.7986 C   0  0  0  0  0  0  0  0  0  0  0  0
  -29.5281  -23.5108   23.5376 C   0  0  0  0  0  0  0  0  0  0  0  0
  -30.7427  -25.9804   26.2200 C   0  0  0  0  0  0  0  0  0  0  0  0
  -30.6625  -31.5753   22.3567 C   0  0  0  0  0  0  0  0  0  0  0  0
  -32.1615  -29.8773   23.4236 C   0  0  0  0  0  0  0  0  0  0  0  0
  -30.9662  -31.5478   24.8390 C   0  0  0  0  0  0  0  0  0  0  0  0
  -27.0591  -26.7107   26.8316 C   0  0  0  0  0  0  0  0  0  0  0  0
  -31.2043  -20.9763   22.3178 C   0  0  0  0  0  0  0  0  0  0  0  0
  -27.8546  -25.7450   18.9444 C   0  0  0  0  0  0  0  0  0  1  0  0
  -29.6588  -29.6644   23.7734 C   0  0  1  0  0  0  0  0  0  0  0  0
  -29.4971  -26.8486   26.3062 C   0  0  2  0  0  0  0  0  0  0  0  0
  -30.8395  -30.6580   23.5832 C   0  0  0  0  0  0  0  0  0  0  0  0
  -25.8314  -11.5481   20.2336 N   0  0  0  0  0  0  0  0  0  0  0  0
  -28.7953  -23.5247   18.9553 N   0  0  0  0  0  0  0  0  0  0  0  0
  -26.2439  -12.8270   20.2500 N   0  0  0  0  0  0  0  0  0  0  0  0
  -30.0745  -21.7764   21.8642 N   0  0  0  0  0  0  0  0  0  0  0  0
  -27.6284  -30.6271   22.7285 N   0  0  0  0  0  0  0  0  0  0  0  0
  -30.0060  -13.4825   20.2653 N   0  0  0  0  0  0  0  0  0  0  0  0
  -25.5793  -15.0184   20.8556 N   0  0  0  0  0  0  0  0  0  0  0  0
  -22.0063  -12.4970   21.9833 N   0  0  0  0  0  0  0  0  0  0  0  0
  -30.2747  -15.3867   21.6307 N   0  0  0  0  0  0  0  0  0  0  0  0
  -25.6095  -33.3489   23.8130 N   0  0  0  0  0  0  0  0  0  0  0  0
  -29.7865  -28.8015   24.9429 N   0  0  0  0  0  0  0  0  0  0  0  0
  -28.3460  -25.9825   26.6882 N   0  3  0  0  0  0  0  0  0  0  0  0
  -30.8007  -21.9083   19.6469 O   0  0  0  0  0  0  0  0  0  0  0  0
  -22.8359  -14.6343   21.9338 O   0  0  0  0  0  0  0  0  0  0  0  0
  -27.5545  -33.2306   22.5380 O   0  0  0  0  0  0  0  0  0  0  0  0
  -26.6947  -23.8846   18.0060 O   0  0  0  0  0  0  0  0  0  0  0  0
  -27.9311  -30.6845   25.0342 O   0  0  0  0  0  0  0  0  0  0  0  0
  -28.5636  -27.0279   24.0850 O   0  0  0  0  0  0  0  0  0  0  0  0
  -31.9215  -14.7684   20.1182 O   0  0  0  0  0  0  0  0  0  0  0  0
  -21.5405   -6.9804   21.3624 O   0  0  0  0  0  0  0  0  0  0  0  0
  -26.6977  -26.4787   18.5447 O   0  0  0  0  0  0  0  0  0  1  0  0
  -18.9002   -6.2657   26.1500 F   0  0  0  0  0  0  0  0  0  0  0  0
  -22.0620   -4.7819   22.9552 F   0  0  0  0  0  0  0  0  0  0  0  0
  1  2  1  0  0  0  0
  1  5  2  0  0  0  0
  2  6  2  0  0  0  0
  3 10  2  0  0  0  0
  3 18  1  0  0  0  0
  4 11  1  0  0  0  0
  4 18  2  0  0  0  0
  5 20  1  0  0  0  0
  6 22  1  0  0  0  0
  7 12  2  0  0  0  0
  7 21  1  0  0  0  0
  8  9  2  0  0  0  0
  8 24  1  0  0  0  0
  9 26  1  0  0  0  0
 10 27  1  0  0  0  0
 11 27  2  0  0  0  0
 12 28  1  0  0  0  0
 13 14  2  0  0  0  0
 13 29  1  0  0  0  0
 14 30  1  0  0  0  0
 15 23  1  0  0  0  0
 15 28  2  0  0  0  0
 16 24  2  0  0  0  0
 16 25  1  0  0  0  0
 17 30  2  0  0  0  0
 17 31  1  0  0  0  0
 18 32  1  0  0  0  0
 19 32  1  0  0  0  0
 19 33  2  0  0  0  0
 19 36  1  0  0  0  0
 20 22  2  0  0  0  0
 20 42  1  0  0  0  0
 21 23  2  0  0  0  0
 21 43  1  0  0  0  0
 22 53  1  0  0  0  0
 23 44  1  0  0  0  0
 24 64  1  0  0  0  0
 25 26  2  0  0  0  0
 25 57  1  0  0  0  0
 26 77  1  0  0  0  0
 27 88  1  0  0  0  0
 28 89  1  0  0  0  0
 29 31  2  0  0  0  0
 29 88  1  0  0  0  0
 30 90  1  0  0  0  0
 31 91  1  0  0  0  0
 32 69  2  0  0  0  0
 33 71  1  0  0  0  0
 33 75  1  0  0  0  0
 34 35  1  0  0  0  0
 34 45  1  0  0  0  0
 34 70  2  0  0  0  0
 35 72  1  0  0  0  0
 35 81  2  0  0  0  0
 36 76  1  0  0  0  0
 36 82  2  0  0  0  0
 37 54  1  0  0  0  0
 37 78  1  0  0  0  0
 37 83  2  0  0  0  0
 38 65  1  0  0  0  0
 38 70  1  0  0  0  0
 38 84  2  0  0  0  0
 39 66  1  0  0  0  0
 39 73  1  0  0  0  0
 39 85  2  0  0  0  0
 40 67  1  0  0  0  0
 40 79  1  0  0  0  0
 40 86  2  0  0  0  0
 41 74  1  0  0  0  0
 41 77  1  0  0  0  0
 41 87  2  0  0  0  0
 42 46  1  0  0  0  0
 43 54  1  0  0  0  0
 44 73  1  0  0  0  0
 45 47  1  0  0  0  0
 46 49  1  0  0  0  0
 47 56  1  0  0  0  0
 48 50  1  0  0  0  0
 48 51  1  0  0  0  0
 49 53  1  0  0  0  0
 50 55  1  0  0  0  0
 51 74  1  0  0  0  0
 52 55  1  0  0  0  0
 52 74  1  0  0  0  0
 53 78  1  0  0  0  0
 54 73  1  0  0  0  0
 55 71  1  0  0  0  0
 56 58  1  0  0  0  0
 56 72  1  0  0  0  0
 59 67  1  0  0  0  0
 60 68  1  0  0  0  0
 61 68  1  0  0  0  0
 62 68  1  0  0  0  0
 63 80  1  0  0  0  0
 64 72  1  0  0  0  0
 65 89  1  0  0  0  0
 66 68  1  0  0  0  0
 66 79  1  0  0  0  0
 67 80  1  0  0  0  0
 69 71  1  0  0  0  0
M  CHG  1  80   1
M  ISO  4  41 100  65 101  77 100  89 101
M  END
> <Batch ID>
0061

> <Smiles>
C=C1CCC(NC(=O)[101CH2:1][101O:1]c2ccc3c(c2)CN(C(=O)C(NC(=O)C(C)NC)C(C)(C)C)C(C(=O)NC2CCCc4ccccc42)C3)C(=O)N1Cc1ccc([100NH:0][100C:0](=O)N2CCCC(n3nc(-c4ccc(Oc5ccc(F)cc5F)cc4)c(C(N)=O)c3N)C2)c(C)c1

> <Shape>
0.344

> <Color>
0.219

> <Negative vol penalty>
0.000

$$$$

  -OEChem-04042323073D

 85 94  0     1  0  0  0  0  0999 V2000
  -27.6653  -38.2351   23.7842 C   0  0  0  0  0  0  0  0  0  0  0  0
  -28.4257  -37.1020   23.5134 C   0  0  0  0  0  0  0  0  0  0  0  0
  -22.9749   -9.6949   19.8453 C   0  0  0  0  0  0  0  0  0  0  0  0
  -24.6038   -8.8797   21.4325 C   0  0  0  0  0  0  0  0  0  0  0  0
  -26.4831  -38.1216   24.5147 C   0  0  0  0  0  0  0  0  0  0  0  0
  -28.0049  -35.8549   23.9739 C   0  0  0  0  0  0  0  0  0  0  0  0
  -26.6500  -29.2580   20.0150 C   0  0  0  0  0  0  0  0  0  0  0  0
  -27.6327  -19.4808   19.6742 C   0  0  0  0  0  0  0  0  0  0  0  0
  -25.6508  -18.7944   18.4750 C   0  0  0  0  0  0  0  0  0  0  0  0
  -28.1302  -18.1800   19.5967 C   0  0  0  0  0  0  0  0  0  0  0  0
  -26.1483  -17.4936   18.3974 C   0  0  0  0  0  0  0  0  0  0  0  0
  -21.9448   -9.2796   20.6890 C   0  0  0  0  0  0  0  0  0  0  0  0
  -23.5736   -8.4644   22.2763 C   0  0  0  0  0  0  0  0  0  0  0  0
  -26.2269  -28.0772   19.4044 C   0  0  0  0  0  0  0  0  0  0  0  0
  -21.4132   -5.8717   22.4810 C   0  0  0  0  0  0  0  0  0  0  0  0
  -21.5152   -4.6034   23.0525 C   0  0  0  0  0  0  0  0  0  0  0  0
  -24.7283  -27.6459   21.2527 C   0  0  0  0  0  0  0  0  0  0  0  0
  -21.4728   -5.5930   25.2562 C   0  0  0  0  0  0  0  0  0  0  0  0
  -24.3044   -9.4949   20.2170 C   0  0  0  0  0  0  0  0  0  0  0  0
  -25.6106   -9.4973   18.0257 C   0  0  0  0  0  0  0  0  0  0  0  0
  -26.0426  -36.8711   24.9760 C   0  0  0  0  0  0  0  0  0  0  0  0
  -26.1019  -29.6455   21.2409 C   0  0  0  0  0  0  0  0  0  0  0  0
  -26.8164  -35.7248   24.7123 C   0  0  0  0  0  0  0  0  0  0  0  0
  -25.1391  -28.8339   21.8631 C   0  0  0  0  0  0  0  0  0  0  0  0
  -26.3930  -19.7880   19.1135 C   0  0  0  0  0  0  0  0  0  0  0  0
  -27.3880  -17.1864   18.9582 C   0  0  0  0  0  0  0  0  0  0  0  0
  -22.2441   -8.6643   21.9045 C   0  0  0  0  0  0  0  0  0  0  0  0
  -25.2686  -27.2731   20.0219 C   0  0  0  0  0  0  0  0  0  0  0  0
  -21.3411   -7.0007   23.2971 C   0  0  0  0  0  0  0  0  0  0  0  0
  -21.5449   -4.4640   24.4401 C   0  0  0  0  0  0  0  0  0  0  0  0
  -21.3709   -6.8613   24.6847 C   0  0  0  0  0  0  0  0  0  0  0  0
  -25.3690   -9.9232   19.3456 C   0  0  0  0  0  0  0  0  0  0  0  0
  -26.7292  -10.1943   17.6393 C   0  0  0  0  0  0  0  0  0  0  0  0
  -26.5441  -22.2298   18.6496 C   0  0  0  0  0  0  0  0  0  0  0  0
  -27.4169  -22.2083   17.6233 C   0  0  0  0  0  0  0  0  0  0  0  0
  -24.8884   -8.5557   17.2210 C   0  0  0  0  0  0  0  0  0  0  0  0
  -26.0096  -32.1909   23.9956 C   0  0  0  0  0  0  0  0  0  0  0  0
  -23.1133  -31.3107   23.4983 C   0  0  0  0  0  0  0  0  0  0  0  0
  -20.0345  -30.3873   22.3558 C   0  0  0  0  0  0  0  0  0  0  0  0
  -29.1048  -15.3924   19.3831 C   0  0  0  0  0  0  0  0  0  0  0  0
  -24.7826  -36.8049   25.8022 C   0  0  0  0  0  0  0  0  0  0  0  0
  -26.5726  -30.8779   21.9645 C   0  0  0  0  0  0  0  0  0  0  0  0
  -24.6025  -29.2729   23.1982 C   0  0  0  0  0  0  0  0  0  0  0  0
  -26.2115  -23.5772   19.2622 C   0  0  0  0  0  0  0  0  0  0  0  0
  -24.2133  -35.3945   25.9327 C   0  0  0  0  0  0  0  0  0  0  0  0
  -30.6913  -12.2052   19.4259 C   0  0  0  0  0  0  0  0  0  0  0  0
  -25.3190  -34.4025   26.2791 C   0  0  0  0  0  0  0  0  0  0  0  0
  -29.5291  -11.2198   19.2840 C   0  0  0  0  0  0  0  0  0  0  0  0
  -24.2721  -22.5526   20.4426 C   0  0  0  0  0  0  0  0  0  0  0  0
  -30.3098  -13.4129   20.2801 C   0  0  0  0  0  0  0  0  0  0  0  0
  -24.5175  -21.2206   19.7387 C   0  0  0  0  0  0  0  0  0  0  0  0
  -27.9293  -13.1286   19.7130 C   0  0  0  0  0  0  0  0  0  0  0  0
  -26.3803  -34.3510   25.1735 C   0  0  1  0  0  0  0  0  0  0  0  0
  -25.4492  -31.5878   22.7412 C   0  0  1  0  0  0  0  0  0  0  0  0
  -24.7197  -23.7268   19.5729 C   0  0  1  0  0  0  0  0  0  0  0  0
  -28.2454  -11.9272   18.8072 C   0  0  2  0  0  0  0  0  0  0  0  0
  -17.5872  -30.7438   22.7812 C   0  0  0  0  0  0  0  0  0  0  0  0
  -23.2739  -29.4810   25.9336 C   0  0  0  0  0  0  0  0  0  0  0  0
  -20.8057  -29.1133   25.7316 C   0  0  0  0  0  0  0  0  0  0  0  0
  -21.6917  -31.4027   26.1746 C   0  0  0  0  0  0  0  0  0  0  0  0
  -19.6107  -31.5168   19.6533 C   0  0  0  0  0  0  0  0  0  0  0  0
  -24.4408  -25.0570   20.2697 C   0  0  0  0  0  0  0  0  0  1  0  0
  -21.9905  -30.3803   23.8817 C   0  0  1  0  0  0  0  0  0  0  0  0
  -18.8062  -31.2042   21.9972 C   0  0  2  0  0  0  0  0  0  0  0  0
  -21.9577  -30.0885   25.4086 C   0  0  0  0  0  0  0  0  0  0  0  0
  -26.2624  -10.8212   19.7693 N   0  0  0  0  0  0  0  0  0  0  0  0
  -27.0763  -10.9651   18.7096 N   0  0  0  0  0  0  0  0  0  0  0  0
  -25.8840  -21.1160   19.1943 N   0  0  0  0  0  0  0  0  0  0  0  0
  -24.3438  -30.7212   23.1840 N   0  0  0  0  0  0  0  0  0  0  0  0
  -29.0873  -14.0347   19.7665 N   0  0  0  0  0  0  0  0  0  0  0  0
  -27.4400  -10.2168   16.4918 N   0  0  0  0  0  0  0  0  0  0  0  0
  -25.2655   -7.2068   17.2704 N   0  0  0  0  0  0  0  0  0  0  0  0
  -27.8934  -15.8650   18.8794 N   0  0  0  0  0  0  0  0  0  0  0  0
  -25.9055  -33.5676   24.0531 N   0  0  0  0  0  0  0  0  0  0  0  0
  -20.7669  -30.9812   23.3618 N   0  0  0  0  0  0  0  0  0  0  0  0
  -18.5056  -31.0764   20.5431 N   0  3  0  0  0  0  0  0  0  0  0  0
  -23.9475   -8.9030   16.4676 O   0  0  0  0  0  0  0  0  0  0  0  0
  -26.4993  -31.4618   24.8502 O   0  0  0  0  0  0  0  0  0  0  0  0
  -22.9093  -32.5278   23.4826 O   0  0  0  0  0  0  0  0  0  0  0  0
  -20.3140  -29.3265   21.8017 O   0  0  0  0  0  0  0  0  0  0  0  0
  -30.1272  -16.0776   19.4680 O   0  0  0  0  0  0  0  0  0  0  0  0
  -21.2392   -8.2591   22.7282 O   0  0  0  0  0  0  0  0  0  0  0  0
  -24.8568  -26.1239   19.4182 O   0  0  0  0  0  0  0  0  0  1  0  0
  -21.6413   -3.2459   24.9888 F   0  0  0  0  0  0  0  0  0  0  0  0
  -21.3008   -7.9421   25.4738 F   0  0  0  0  0  0  0  0  0  0  0  0
  1  2  1  0  0  0  0
  1  5  2  0  0  0  0
  2  6  2  0  0  0  0
  3 12  2  0  0  0  0
  3 19  1  0  0  0  0
  4 13  1  0  0  0  0
  4 19  2  0  0  0  0
  5 21  1  0  0  0  0
  6 23  1  0  0  0  0
  7 14  2  0  0  0  0
  7 22  1  0  0  0  0
  8 10  2  0  0  0  0
  8 25  1  0  0  0  0
  9 11  1  0  0  0  0
  9 25  2  0  0  0  0
 10 26  1  0  0  0  0
 11 26  2  0  0  0  0
 12 27  1  0  0  0  0
 13 27  2  0  0  0  0
 14 28  1  0  0  0  0
 15 16  2  0  0  0  0
 15 29  1  0  0  0  0
 16 30  1  0  0  0  0
 17 24  1  0  0  0  0
 17 28  2  0  0  0  0
 18 30  2  0  0  0  0
 18 31  1  0  0  0  0
 19 32  1  0  0  0  0
 20 32  1  0  0  0  0
 20 33  2  0  0  0  0
 20 36  1  0  0  0  0
 21 23  2  0  0  0  0
 21 41  1  0  0  0  0
 22 24  2  0  0  0  0
 22 42  1  0  0  0  0
 23 53  1  0  0  0  0
 24 43  1  0  0  0  0
 25 68  1  0  0  0  0
 26 73  1  0  0  0  0
 27 82  1  0  0  0  0
 28 83  1  0  0  0  0
 29 31  2  0  0  0  0
 29 82  1  0  0  0  0
 30 84  1  0  0  0  0
 31 85  1  0  0  0  0
 32 66  2  0  0  0  0
 33 67  1  0  0  0  0
 33 71  1  0  0  0  0
 34 35  2  0  0  0  0
 34 44  1  0  0  0  0
 34 68  1  0  0  0  0
 36 72  1  0  0  0  0
 36 77  2  0  0  0  0
 37 54  1  0  0  0  0
 37 74  1  0  0  0  0
 37 78  2  0  0  0  0
 38 63  1  0  0  0  0
 38 69  1  0  0  0  0
 38 79  2  0  0  0  0
 39 64  1  0  0  0  0
 39 75  1  0  0  0  0
 39 80  2  0  0  0  0
 40 70  1  0  0  0  0
 40 73  1  0  0  0  0
 40 81  2  0  0  0  0
 41 45  1  0  0  0  0
 42 54  1  0  0  0  0
 43 69  1  0  0  0  0
 44 55  1  0  0  0  0
 45 47  1  0  0  0  0
 46 48  1  0  0  0  0
 46 50  1  0  0  0  0
 47 53  1  0  0  0  0
 48 56  1  0  0  0  0
 49 51  1  0  0  0  0
 49 55  1  0  0  0  0
 50 70  1  0  0  0  0
 51 68  1  0  0  0  0
 52 56  1  0  0  0  0
 52 70  1  0  0  0  0
 53 74  1  0  0  0  0
 54 69  1  0  0  0  0
 55 62  1  0  0  0  0
 56 67  1  0  0  0  0
 57 64  1  0  0  0  0
 58 65  1  0  0  0  0
 59 65  1  0  0  0  0
 60 65  1  0  0  0  0
 61 76  1  0  0  0  0
 62 83  1  0  0  0  0
 63 65  1  0  0  0  0
 63 75  1  0  0  0  0
 64 76  1  0  0  0  0
 66 67  1  0  0  0  0
M  CHG  1  76   1
M  ISO  4  40 100  62 101  73 100  83 101
M  END
> <Batch ID>
0061

> <Smiles>
C=C1CC([101CH2:1][101O:1]c2ccc3c(c2)CN(C(=O)C(NC(=O)C(C)NC)C(C)(C)C)C(C(=O)NC2CCCc4ccccc42)C3)CCN1c1ccc([100NH:0][100C:0](=O)N2CCCC(n3nc(-c4ccc(Oc5ccc(F)cc5F)cc4)c(C(N)=O)c3N)C2)cc1

> <Shape>
0.278

> <Color>
0.099

> <Negative vol penalty>
0.000

$$$$

  -OEChem-04042323073D

 93102  0     1  0  0  0  0  0999 V2000
  -30.1540  -24.3324   16.6709 C   0  0  0  0  0  0  0  0  0  0  0  0
  -28.8563  -24.3929   17.1685 C   0  0  0  0  0  0  0  0  0  0  0  0
  -22.3216  -10.1009   20.0652 C   0  0  0  0  0  0  0  0  0  0  0  0
  -23.7031   -9.9560   22.0420 C   0  0  0  0  0  0  0  0  0  0  0  0
  -31.2078  -24.8711   17.4081 C   0  0  0  0  0  0  0  0  0  0  0  0
  -28.6116  -24.9911   18.4040 C   0  0  0  0  0  0  0  0  0  0  0  0
  -24.5922  -28.0702   18.3099 C   0  0  0  0  0  0  0  0  0  0  0  0
  -26.4550  -21.5528   21.4646 C   0  0  0  0  0  0  0  0  0  0  0  0
  -22.0401   -8.7382   20.1621 C   0  0  0  0  0  0  0  0  0  0  0  0
  -23.4215   -8.5933   22.1389 C   0  0  0  0  0  0  0  0  0  0  0  0
  -23.3326  -27.4745   18.3570 C   0  0  0  0  0  0  0  0  0  0  0  0
  -22.7771   -5.1509   23.1150 C   0  0  0  0  0  0  0  0  0  0  0  0
  -22.4523   -4.6429   24.3728 C   0  0  0  0  0  0  0  0  0  0  0  0
  -27.6399  -20.8185   21.4148 C   0  0  0  0  0  0  0  0  0  0  0  0
  -23.1930  -27.9703   20.7137 C   0  0  0  0  0  0  0  0  0  0  0  0
  -26.1903  -21.2875   19.0778 C   0  0  0  0  0  0  0  0  0  0  0  0
  -20.5568   -6.1367   24.4866 C   0  0  0  0  0  0  0  0  0  0  0  0
  -23.1532  -10.7098   21.0051 C   0  0  0  0  0  0  0  0  0  0  0  0
  -22.7246  -13.1780   21.4866 C   0  0  0  0  0  0  0  0  0  0  0  0
  -30.9746  -25.4848   18.6489 C   0  0  0  0  0  0  0  0  0  0  0  0
  -25.1674  -28.6116   19.4685 C   0  0  0  0  0  0  0  0  0  0  0  0
  -29.6634  -25.5373   19.1591 C   0  0  0  0  0  0  0  0  0  0  0  0
  -24.4589  -28.5746   20.6780 C   0  0  0  0  0  0  0  0  0  0  0  0
  -27.3752  -20.5532   19.0280 C   0  0  0  0  0  0  0  0  0  0  0  0
  -25.7302  -21.7873   20.2961 C   0  0  0  0  0  0  0  0  0  0  0  0
  -22.5900   -7.9844   21.1989 C   0  0  0  0  0  0  0  0  0  0  0  0
  -22.6340  -27.4219   19.5596 C   0  0  0  0  0  0  0  0  0  0  0  0
  -21.9919   -6.1519   22.5430 C   0  0  0  0  0  0  0  0  0  0  0  0
  -21.3421   -5.1358   25.0586 C   0  0  0  0  0  0  0  0  0  0  0  0
  -20.8818   -6.6448   23.2288 C   0  0  0  0  0  0  0  0  0  0  0  0
  -28.1000  -20.3188   20.1966 C   0  0  0  0  0  0  0  0  0  0  0  0
  -23.4448  -12.1173   20.9053 C   0  0  0  0  0  0  0  0  0  0  0  0
  -23.4022  -14.3074   21.0968 C   0  0  0  0  0  0  0  0  0  0  0  0
  -23.7008  -22.5383   21.4795 C   0  0  0  0  0  0  0  0  0  0  0  0
  -22.5445  -23.2124   21.6269 C   0  0  0  0  0  0  0  0  0  0  0  0
  -24.1245  -23.3422   19.2570 C   0  0  0  0  0  0  0  0  0  0  0  0
  -22.8007  -24.0518   19.3389 C   0  0  0  0  0  0  0  0  0  0  0  0
  -21.5483  -13.1454   22.3057 C   0  0  0  0  0  0  0  0  0  0  0  0
  -27.7858  -28.0070   21.1662 C   0  0  0  0  0  0  0  0  0  0  0  0
  -26.8676  -30.6553   22.7987 C   0  0  0  0  0  0  0  0  0  0  0  0
  -24.3447  -32.7598   23.7226 C   0  0  0  0  0  0  0  0  0  0  0  0
  -28.0707  -17.0668   20.4209 C   0  0  0  0  0  0  0  0  0  0  0  0
  -32.1519  -26.0109   19.4312 C   0  0  0  0  0  0  0  0  0  0  0  0
  -26.5155  -29.2746   19.3954 C   0  0  0  0  0  0  0  0  0  0  0  0
  -25.0235  -29.1595   21.9460 C   0  0  0  0  0  0  0  0  0  0  0  0
  -31.7581  -26.9609   20.5593 C   0  0  0  0  0  0  0  0  0  0  0  0
  -27.0818  -14.9325   17.6860 C   0  0  0  0  0  0  0  0  0  0  0  0
  -30.5976  -26.3831   21.3631 C   0  0  0  0  0  0  0  0  0  0  0  0
  -25.9836  -14.0901   18.3367 C   0  0  0  0  0  0  0  0  0  0  0  0
  -28.2213  -15.2135   18.6623 C   0  0  0  0  0  0  0  0  0  0  0  0
  -26.6968  -15.0068   20.5891 C   0  0  0  0  0  0  0  0  0  0  0  0
  -29.3545  -26.2002   20.4840 C   0  0  1  0  0  0  0  0  0  0  0  0
  -27.2253  -29.3357   20.7444 C   0  0  1  0  0  0  0  0  0  0  0  0
  -25.5057  -14.7206   19.6577 C   0  0  2  0  0  0  0  0  0  0  0  0
  -27.8410  -20.0324   17.7077 C   0  0  0  0  0  0  0  0  0  0  0  0
  -23.8950  -34.8140   25.0919 C   0  0  0  0  0  0  0  0  0  0  0  0
  -19.7887  -26.9213   21.3966 C   0  0  0  0  0  0  0  0  0  0  0  0
  -27.0380  -28.9895   25.3494 C   0  0  0  0  0  0  0  0  0  0  0  0
  -25.6978  -30.7570   26.5103 C   0  0  0  0  0  0  0  0  0  0  0  0
  -27.9358  -31.3142   25.5598 C   0  0  0  0  0  0  0  0  0  0  0  0
  -23.4151  -34.2748   21.3563 C   0  0  0  0  0  0  0  0  0  0  0  0
  -20.8233  -24.7315   20.6072 C   0  0  0  0  0  0  0  0  0  0  0  0
  -25.9880  -30.9215   23.9964 C   0  0  1  0  0  0  0  0  0  0  0  0
  -24.2420  -34.2743   23.7131 C   0  0  2  0  0  0  0  0  0  0  0  0
  -21.0247  -26.2272   20.8397 C   0  0  1  0  0  0  0  0  0  1  0  0
  -26.6548  -30.4827   25.3307 C   0  0  0  0  0  0  0  0  0  0  0  0
  -24.4990  -12.5354   20.1997 N   0  0  0  0  0  0  0  0  0  0  0  0
  -24.4462  -13.8715   20.3351 N   0  0  0  0  0  0  0  0  0  0  0  0
  -24.4984  -22.5511   20.3486 N   0  0  0  0  0  0  0  0  0  0  0  0
  -22.0894  -23.9817   20.5400 N   0  0  0  0  0  0  0  0  0  0  0  0
  -26.3478  -29.7912   21.8246 N   0  0  0  0  0  0  0  0  0  0  0  0
  -27.7039  -15.8170   19.8959 N   0  0  0  0  0  0  0  0  0  0  0  0
  -23.2008  -15.6209   21.3347 N   0  0  0  0  0  0  0  0  0  0  0  0
  -20.9806  -11.9007   22.6104 N   0  0  0  0  0  0  0  0  0  0  0  0
  -28.6934  -27.4701   20.2731 N   0  0  0  0  0  0  0  0  0  0  0  0
  -25.6390  -32.3370   23.9401 N   0  0  0  0  0  0  0  0  0  0  0  0
  -29.0331  -17.8474   19.6919 N   0  0  0  0  0  0  0  0  0  0  0  0
  -23.1882  -34.7161   22.7565 N   0  3  0  0  0  0  0  0  0  0  0  0
  -21.7906  -23.2237   22.6413 O   0  5  0  0  0  0  0  0  0  0  0  0
  -24.7686  -23.5695   18.2370 O   0  0  0  0  0  0  0  0  0  0  0  0
  -22.4556  -24.6542   18.3259 O   0  0  0  0  0  0  0  0  0  0  0  0
  -21.0070  -14.1901   22.7407 O   0  0  0  0  0  0  0  0  0  0  0  0
  -27.4229  -27.5065   22.2243 O   0  0  0  0  0  0  0  0  0  0  0  0
  -27.9721  -31.1998   22.7267 O   0  0  0  0  0  0  0  0  0  0  0  0
  -23.3733  -32.0252   23.5575 O   0  0  0  0  0  0  0  0  0  0  0  0
  -27.5890  -17.5052   21.4663 O   0  0  0  0  0  0  0  0  0  0  0  0
  -30.4190  -19.9503   19.1069 O   0  0  0  0  0  0  0  0  0  0  0  0
  -30.1151  -19.3171   21.5257 O   0  0  0  0  0  0  0  0  0  0  0  0
  -22.3153   -6.6547   21.2939 O   0  0  0  0  0  0  0  0  0  0  0  0
  -21.4046  -26.8405   19.6085 O   0  0  0  0  0  0  0  0  0  1  0  0
  -21.0294   -4.6467   26.2657 F   0  0  0  0  0  0  0  0  0  0  0  0
  -20.1229   -7.6056   22.6839 F   0  0  0  0  0  0  0  0  0  0  0  0
  -29.6053  -19.3931   20.1702 S   0  0  0  0  0  0  0  0  0  0  0  0
  1  2  1  0  0  0  0
  1  5  2  0  0  0  0
  2  6  2  0  0  0  0
  3  9  2  0  0  0  0
  3 18  1  0  0  0  0
  4 10  1  0  0  0  0
  4 18  2  0  0  0  0
  5 20  1  0  0  0  0
  6 22  1  0  0  0  0
  7 11  2  0  0  0  0
  7 21  1  0  0  0  0
  8 14  2  0  0  0  0
  8 25  1  0  0  0  0
  9 26  1  0  0  0  0
 10 26  2  0  0  0  0
 11 27  1  0  0  0  0
 12 13  2  0  0  0  0
 12 28  1  0  0  0  0
 13 29  1  0  0  0  0
 14 31  1  0  0  0  0
 15 23  1  0  0  0  0
 15 27  2  0  0  0  0
 16 24  1  0  0  0  0
 16 25  2  0  0  0  0
 17 29  2  0  0  0  0
 17 30  1  0  0  0  0
 18 32  1  0  0  0  0
 19 32  1  0  0  0  0
 19 33  2  0  0  0  0
 19 38  1  0  0  0  0
 20 22  2  0  0  0  0
 20 43  1  0  0  0  0
 21 23  2  0  0  0  0
 21 44  1  0  0  0  0
 22 52  1  0  0  0  0
 23 45  1  0  0  0  0
 24 31  2  0  0  0  0
 24 55  1  0  0  0  0
 25 69  1  0  0  0  0
 26 89  1  0  0  0  0
 27 90  1  0  0  0  0
 28 30  2  0  0  0  0
 28 89  1  0  0  0  0
 29 91  1  0  0  0  0
 30 92  1  0  0  0  0
 31 93  1  0  0  0  0
 32 67  2  0  0  0  0
 33 68  1  0  0  0  0
 33 73  1  0  0  0  0
 34 35  2  0  0  0  0
 34 69  1  0  0  0  0
 35 70  1  0  0  0  0
 35 79  1  0  0  0  0
 36 37  1  0  0  0  0
 36 69  1  0  0  0  0
 36 80  2  0  0  0  0
 37 70  1  0  0  0  0
 37 81  2  0  0  0  0
 38 74  1  0  0  0  0
 38 82  2  0  0  0  0
 39 53  1  0  0  0  0
 39 75  1  0  0  0  0
 39 83  2  0  0  0  0
 40 63  1  0  0  0  0
 40 71  1  0  0  0  0
 40 84  2  0  0  0  0
 41 64  1  0  0  0  0
 41 76  1  0  0  0  0
 41 85  2  0  0  0  0
 42 72  1  0  0  0  0
 42 77  1  0  0  0  0
 42 86  2  0  0  0  0
 43 46  1  0  0  0  0
 44 53  1  0  0  0  0
 45 71  1  0  0  0  0
 46 48  1  0  0  0  0
 47 49  1  0  0  0  0
 47 50  1  0  0  0  0
 48 52  1  0  0  0  0
 49 54  1  0  0  0  0
 50 72  1  0  0  0  0
 51 54  1  0  0  0  0
 51 72  1  0  0  0  0
 52 75  1  0  0  0  0
 53 71  1  0  0  0  0
 54 68  1  0  0  0  0
 56 64  1  0  0  0  0
 57 65  1  0  0  0  0
 58 66  1  0  0  0  0
 59 66  1  0  0  0  0
 60 66  1  0  0  0  0
 61 78  1  0  0  0  0
 62 65  1  0  0  0  0
 62 70  1  0  0  0  0
 63 66  1  0  0  0  0
 63 76  1  0  0  0  0
 64 78  1  0  0  0  0
 65 90  1  0  0  0  0
 67 68  1  0  0  0  0
 77 93  1  0  0  0  0
 87 93  2  0  0  0  0
 88 93  2  0  0  0  0
M  CHG  2  78   1  79  -1
M  ISO  4  42 100  65 101  77 100  90 101
M  END
> <Batch ID>
0061

> <Smiles>
CNC(C)C(=O)NC(C(=O)N1Cc2cc([101O:1][101CH:1](C)CN3C(=O)CN(c4ccc(S(=O)(=O)[100NH:0][100C:0](=O)N5CCCC(n6nc(-c7ccc(Oc8ccc(F)cc8F)cc7)c(C(N)=O)c6N)C5)c(C)c4)C(=O)C3=O)ccc2CC1C(=O)NC1CCCc2ccccc21)C(C)(C)C

> <Shape>
0.348

> <Color>
0.081

> <Negative vol penalty>
0.000

$$$$

  -OEChem-04042323073D

 87 96  0     1  0  0  0  0  0999 V2000
  -18.6671  -20.5004   20.8273 C   0  0  0  0  0  0  0  0  0  0  0  0
  -19.0715  -20.2115   19.5279 C   0  0  0  0  0  0  0  0  0  0  0  0
  -25.4576  -29.8538   23.0919 C   0  0  0  0  0  0  0  0  0  0  0  0
  -24.2400  -30.4038   21.0790 C   0  0  0  0  0  0  0  0  0  0  0  0
  -19.5455  -20.2978   21.8909 C   0  0  0  0  0  0  0  0  0  0  0  0
  -20.3552  -19.7209   19.2913 C   0  0  0  0  0  0  0  0  0  0  0  0
  -26.6018  -14.4418   17.4033 C   0  0  0  0  0  0  0  0  0  0  0  0
  -28.3522  -18.5496   20.7340 C   0  0  0  0  0  0  0  0  0  0  0  0
  -27.6282  -19.6292   20.2283 C   0  0  0  0  0  0  0  0  0  0  0  0
  -24.7898  -30.8710   23.7738 C   0  0  0  0  0  0  0  0  0  0  0  0
  -23.5722  -31.4210   21.7609 C   0  0  0  0  0  0  0  0  0  0  0  0
  -27.8632  -14.1910   17.9415 C   0  0  0  0  0  0  0  0  0  0  0  0
  -24.9837  -34.2349   24.0398 C   0  0  0  0  0  0  0  0  0  0  0  0
  -25.7424  -35.0724   24.8575 C   0  0  0  0  0  0  0  0  0  0  0  0
  -26.9142  -14.2103   20.1592 C   0  0  0  0  0  0  0  0  0  0  0  0
  -30.1379  -20.0462   21.3730 C   0  0  0  0  0  0  0  0  0  0  0  0
  -24.4275  -34.3974   26.7687 C   0  0  0  0  0  0  0  0  0  0  0  0
  -25.1827  -29.6202   21.7445 C   0  0  0  0  0  0  0  0  0  0  0  0
  -27.2609  -28.4498   20.8395 C   0  0  0  0  0  0  0  0  0  0  0  0
  -20.8372  -19.7953   21.6681 C   0  0  0  0  0  0  0  0  0  0  0  0
  -25.4871  -14.5898   18.2411 C   0  0  0  0  0  0  0  0  0  0  0  0
  -21.2522  -19.5126   20.3527 C   0  0  0  0  0  0  0  0  0  0  0  0
  -25.6393  -14.4603   19.6290 C   0  0  0  0  0  0  0  0  0  0  0  0
  -29.4140  -21.1259   20.8672 C   0  0  0  0  0  0  0  0  0  0  0  0
  -29.6070  -18.7580   21.3065 C   0  0  0  0  0  0  0  0  0  0  0  0
  -28.1592  -20.9174   20.2948 C   0  0  0  0  0  0  0  0  0  0  0  0
  -23.8471  -31.6546   23.1083 C   0  0  0  0  0  0  0  0  0  0  0  0
  -28.0201  -14.0781   19.3198 C   0  0  0  0  0  0  0  0  0  0  0  0
  -23.9469  -33.4787   24.5865 C   0  0  0  0  0  0  0  0  0  0  0  0
  -25.4642  -35.1537   26.2219 C   0  0  0  0  0  0  0  0  0  0  0  0
  -23.6688  -33.5600   25.9509 C   0  0  0  0  0  0  0  0  0  0  0  0
  -25.8726  -28.5699   21.0394 C   0  0  0  0  0  0  0  0  0  0  0  0
  -27.4048  -27.2903   20.1175 C   0  0  0  0  0  0  0  0  0  0  0  0
  -31.3358  -15.5275   21.1055 C   0  0  0  0  0  0  0  0  0  0  0  0
  -31.2464  -17.8021   22.9119 C   0  0  0  0  0  0  0  0  0  0  0  0
  -31.4650  -14.6516   20.0974 C   0  0  0  0  0  0  0  0  0  0  0  0
  -28.3253  -29.3094   21.2683 C   0  0  0  0  0  0  0  0  0  0  0  0
  -23.4305  -16.9371   18.8446 C   0  0  0  0  0  0  0  0  0  0  0  0
  -21.9492  -14.6582   20.6152 C   0  0  0  0  0  0  0  0  0  0  0  0
  -22.9354  -12.0293   22.8809 C   0  0  0  0  0  0  0  0  0  0  0  0
  -26.1477  -21.9474   19.1815 C   0  0  0  0  0  0  0  0  0  0  0  0
  -21.7676  -19.6374   22.8446 C   0  0  0  0  0  0  0  0  0  0  0  0
  -24.1286  -14.8334   17.6432 C   0  0  0  0  0  0  0  0  0  0  0  0
  -24.4709  -14.5907   20.5704 C   0  0  0  0  0  0  0  0  0  0  0  0
  -32.4734  -15.8031   22.0476 C   0  0  0  0  0  0  0  0  0  0  0  0
  -30.0551  -16.2860   21.3441 C   0  0  0  0  0  0  0  0  0  0  0  0
  -31.9767  -16.5257   23.2908 C   0  0  0  0  0  0  0  0  0  0  0  0
  -22.9815  -18.7607   22.5479 C   0  0  0  0  0  0  0  0  0  0  0  0
  -23.9508  -24.3936   17.8151 C   0  0  0  0  0  0  0  0  0  0  0  0
  -23.6127  -19.1557   21.2166 C   0  0  0  0  0  0  0  0  0  0  0  0
  -24.3692  -25.6883   18.5157 C   0  0  0  0  0  0  0  0  0  0  0  0
  -24.0387  -23.1888   18.7503 C   0  0  0  0  0  0  0  0  0  0  0  0
  -25.7529  -24.3096   20.1193 C   0  0  0  0  0  0  0  0  0  0  0  0
  -22.6280  -18.9555   20.0582 C   0  0  1  0  0  0  0  0  0  0  0  0
  -23.1517  -15.4774   18.6221 C   0  0  1  0  0  0  0  0  0  0  0  0
  -25.7430  -25.5409   19.1987 C   0  0  2  0  0  0  0  0  0  0  0  0
  -30.0060  -22.4952   20.9535 C   0  0  0  0  0  0  0  0  0  0  0  0
  -21.8014   -9.8681   23.4649 C   0  0  0  0  0  0  0  0  0  0  0  0
  -20.7577  -16.2450   22.9331 C   0  0  0  0  0  0  0  0  0  0  0  0
  -21.0308  -14.2145   24.3721 C   0  0  0  0  0  0  0  0  0  0  0  0
  -19.5362  -14.1349   22.3765 C   0  0  0  0  0  0  0  0  0  0  0  0
  -25.3298  -10.4447   22.1633 C   0  0  0  0  0  0  0  0  0  0  0  0
  -30.3769  -14.3315   19.1269 C   0  0  0  0  0  0  0  0  0  1  0  0
  -22.0423  -14.1882   22.0468 C   0  0  1  0  0  0  0  0  0  0  0  0
  -22.8758  -10.5350   22.6201 C   0  0  2  0  0  0  0  0  0  0  0  0
  -20.8642  -14.7070   22.9187 C   0  0  0  0  0  0  0  0  0  0  0  0
  -25.1836  -27.5669   20.4887 N   0  0  0  0  0  0  0  0  0  0  0  0
  -26.1430  -26.8055   19.9356 N   0  0  0  0  0  0  0  0  0  0  0  0
  -30.3529  -17.6437   21.8310 N   0  0  0  0  0  0  0  0  0  0  0  0
  -23.1640  -14.8350   19.9379 N   0  0  0  0  0  0  0  0  0  0  0  0
  -25.3691  -23.1108   19.3575 N   0  0  0  0  0  0  0  0  0  0  0  0
  -28.4862  -26.6484   19.6268 N   0  0  0  0  0  0  0  0  0  0  0  0
  -28.0014  -30.4594   22.0010 N   0  0  0  0  0  0  0  0  0  0  0  0
  -27.4075  -22.0012   19.7770 N   0  0  0  0  0  0  0  0  0  0  0  0
  -22.5423  -17.5549   19.7042 N   0  0  0  0  0  0  0  0  0  0  0  0
  -22.1508  -12.7344   21.9929 N   0  0  0  0  0  0  0  0  0  0  0  0
  -24.1860   -9.9007   22.9397 N   0  3  0  0  0  0  0  0  0  0  0  0
  -31.4248  -18.8238   23.5745 O   0  0  0  0  0  0  0  0  0  0  0  0
  -29.5267  -29.0736   20.9952 O   0  0  0  0  0  0  0  0  0  0  0  0
  -24.3819  -17.4634   18.2794 O   0  0  0  0  0  0  0  0  0  0  0  0
  -20.8392  -14.8542   20.1141 O   0  0  0  0  0  0  0  0  0  0  0  0
  -23.6075  -12.5214   23.7845 O   0  0  0  0  0  0  0  0  0  0  0  0
  -25.7384  -20.9856   18.5262 O   0  0  0  0  0  0  0  0  0  0  0  0
  -23.1952  -32.6471   23.7735 O   0  0  0  0  0  0  0  0  0  0  0  0
  -29.2503  -13.8340   19.8478 O   0  0  0  0  0  0  0  0  0  1  0  0
  -26.1938  -35.9568   27.0073 F   0  0  0  0  0  0  0  0  0  0  0  0
  -22.6747  -32.8350   26.4821 F   0  0  0  0  0  0  0  0  0  0  0  0
  1  2  1  0  0  0  0
  1  5  2  0  0  0  0
  2  6  2  0  0  0  0
  3 10  2  0  0  0  0
  3 18  1  0  0  0  0
  4 11  1  0  0  0  0
  4 18  2  0  0  0  0
  5 20  1  0  0  0  0
  6 22  1  0  0  0  0
  7 12  2  0  0  0  0
  7 21  1  0  0  0  0
  8  9  2  0  0  0  0
  8 25  1  0  0  0  0
  9 26  1  0  0  0  0
 10 27  1  0  0  0  0
 11 27  2  0  0  0  0
 12 28  1  0  0  0  0
 13 14  2  0  0  0  0
 13 29  1  0  0  0  0
 14 30  1  0  0  0  0
 15 23  1  0  0  0  0
 15 28  2  0  0  0  0
 16 24  1  0  0  0  0
 16 25  2  0  0  0  0
 17 30  2  0  0  0  0
 17 31  1  0  0  0  0
 18 32  1  0  0  0  0
 19 32  1  0  0  0  0
 19 33  2  0  0  0  0
 19 37  1  0  0  0  0
 20 22  2  0  0  0  0
 20 42  1  0  0  0  0
 21 23  2  0  0  0  0
 21 43  1  0  0  0  0
 22 54  1  0  0  0  0
 23 44  1  0  0  0  0
 24 26  2  0  0  0  0
 24 57  1  0  0  0  0
 25 69  1  0  0  0  0
 26 74  1  0  0  0  0
 27 84  1  0  0  0  0
 28 85  1  0  0  0  0
 29 31  2  0  0  0  0
 29 84  1  0  0  0  0
 30 86  1  0  0  0  0
 31 87  1  0  0  0  0
 32 67  2  0  0  0  0
 33 68  1  0  0  0  0
 33 72  1  0  0  0  0
 34 36  2  0  0  0  0
 34 45  1  0  0  0  0
 34 46  1  0  0  0  0
 35 47  1  0  0  0  0
 35 69  1  0  0  0  0
 35 78  2  0  0  0  0
 36 63  1  0  0  0  0
 37 73  1  0  0  0  0
 37 79  2  0  0  0  0
 38 55  1  0  0  0  0
 38 75  1  0  0  0  0
 38 80  2  0  0  0  0
 39 64  1  0  0  0  0
 39 70  1  0  0  0  0
 39 81  2  0  0  0  0
 40 65  1  0  0  0  0
 40 76  1  0  0  0  0
 40 82  2  0  0  0  0
 41 71  1  0  0  0  0
 41 74  1  0  0  0  0
 41 83  2  0  0  0  0
 42 48  1  0  0  0  0
 43 55  1  0  0  0  0
 44 70  1  0  0  0  0
 45 47  1  0  0  0  0
 46 69  1  0  0  0  0
 48 50  1  0  0  0  0
 49 51  1  0  0  0  0
 49 52  1  0  0  0  0
 50 54  1  0  0  0  0
 51 56  1  0  0  0  0
 52 71  1  0  0  0  0
 53 56  1  0  0  0  0
 53 71  1  0  0  0  0
 54 75  1  0  0  0  0
 55 70  1  0  0  0  0
 56 68  1  0  0  0  0
 58 65  1  0  0  0  0
 59 66  1  0  0  0  0
 60 66  1  0  0  0  0
 61 66  1  0  0  0  0
 62 77  1  0  0  0  0
 63 85  1  0  0  0  0
 64 66  1  0  0  0  0
 64 76  1  0  0  0  0
 65 77  1  0  0  0  0
 67 68  1  0  0  0  0
M  CHG  1  77   1
M  ISO  4  41 100  63 101  74 100  85 101
M  END
> <Batch ID>
0061

> <Smiles>
CNC(C)C(=O)NC(C(=O)N1Cc2cc([101O:1][101CH2:1]C=C3CCC(=O)N(c4ccc([100NH:0][100C:0](=O)N5CCCC(n6nc(-c7ccc(Oc8ccc(F)cc8F)cc7)c(C(N)=O)c6N)C5)c(C)c4)C3)ccc2CC1C(=O)NC1CCCc2ccccc21)C(C)(C)C

> <Shape>
0.233

> <Color>
0.062

> <Negative vol penalty>
0.000

$$$$

  -OEChem-04042323073D

 91 99  0     1  0  0  0  0  0999 V2000
  -30.7925  -25.4312   17.6333 C   0  0  0  0  0  0  0  0  0  0  0  0
  -29.4016  -25.4137   17.6568 C   0  0  0  0  0  0  0  0  0  0  0  0
  -22.5155  -17.5277   24.9628 C   0  0  0  0  0  0  0  0  0  0  0  0
  -28.6872  -17.8562   20.8665 C   0  0  0  0  0  0  0  0  0  0  0  0
  -28.6742  -17.2839   18.5193 C   0  0  0  0  0  0  0  0  0  0  0  0
  -21.9221  -17.1160   23.7695 C   0  0  0  0  0  0  0  0  0  0  0  0
  -22.5711  -18.8844   25.2822 C   0  0  0  0  0  0  0  0  0  0  0  0
  -31.5009  -25.9217   18.7294 C   0  0  0  0  0  0  0  0  0  0  0  0
  -28.7184  -25.8858   18.7770 C   0  0  0  0  0  0  0  0  0  0  0  0
  -23.3488  -28.8300   18.8438 C   0  0  0  0  0  0  0  0  0  0  0  0
  -29.8564  -17.1157   21.0406 C   0  0  0  0  0  0  0  0  0  0  0  0
  -29.8434  -16.5434   18.6934 C   0  0  0  0  0  0  0  0  0  0  0  0
  -22.0453  -28.3985   19.0859 C   0  0  0  0  0  0  0  0  0  0  0  0
  -32.6255  -14.2069   18.5912 C   0  0  0  0  0  0  0  0  0  0  0  0
  -32.6888  -12.9461   17.9980 C   0  0  0  0  0  0  0  0  0  0  0  0
  -21.4398  -19.4174   23.2151 C   0  0  0  0  0  0  0  0  0  0  0  0
  -22.2488  -29.0940   21.3867 C   0  0  0  0  0  0  0  0  0  0  0  0
  -30.7759  -12.2402   19.2941 C   0  0  0  0  0  0  0  0  0  0  0  0
  -28.0961  -17.9402   19.6059 C   0  0  0  0  0  0  0  0  0  0  0  0
  -21.3842  -18.0608   22.8957 C   0  0  0  0  0  0  0  0  0  0  0  0
  -22.0332  -19.8292   24.4084 C   0  0  0  0  0  0  0  0  0  0  0  0
  -26.7868  -20.0688   19.0933 C   0  0  0  0  0  0  0  0  0  0  0  0
  -30.8259  -26.4090   19.8596 C   0  0  0  0  0  0  0  0  0  0  0  0
  -24.1171  -29.3878   19.8758 C   0  0  0  0  0  0  0  0  0  0  0  0
  -29.4185  -26.3821   19.8897 C   0  0  0  0  0  0  0  0  0  0  0  0
  -23.5608  -29.5343   21.1545 C   0  0  0  0  0  0  0  0  0  0  0  0
  -30.4345  -16.4593   19.9540 C   0  0  0  0  0  0  0  0  0  0  0  0
  -21.4961  -28.5278   20.3582 C   0  0  0  0  0  0  0  0  0  0  0  0
  -31.6374  -14.4844   19.5360 C   0  0  0  0  0  0  0  0  0  0  0  0
  -31.7639  -11.9627   18.3494 C   0  0  0  0  0  0  0  0  0  0  0  0
  -30.7126  -13.5011   19.8873 C   0  0  0  0  0  0  0  0  0  0  0  0
  -26.8880  -18.7045   19.4255 C   0  0  0  0  0  0  0  0  0  0  0  0
  -25.4357  -20.3101   19.0410 C   0  0  0  0  0  0  0  0  0  0  0  0
  -20.7611  -17.6265   21.6387 C   0  0  0  0  0  0  0  0  0  0  0  0
  -22.0928  -21.2741   24.7488 C   0  0  0  0  0  0  0  0  0  0  0  0
  -27.8216  -21.0317   18.8532 C   0  0  0  0  0  0  0  0  0  0  0  0
  -26.8375  -28.6050   21.3215 C   0  0  0  0  0  0  0  0  0  0  0  0
  -26.4266  -31.4675   22.7910 C   0  0  0  0  0  0  0  0  0  0  0  0
  -24.2862  -33.9315   23.7882 C   0  0  0  0  0  0  0  0  0  0  0  0
  -19.8002  -24.0087   23.6507 C   0  0  0  0  0  0  0  0  0  0  0  0
  -31.6356  -26.8857   21.0394 C   0  0  0  0  0  0  0  0  0  0  0  0
  -25.5122  -29.8730   19.5919 C   0  0  0  0  0  0  0  0  0  0  0  0
  -24.3368  -30.1450   22.2917 C   0  0  0  0  0  0  0  0  0  0  0  0
  -30.8298  -27.7146   22.0362 C   0  0  0  0  0  0  0  0  0  0  0  0
  -21.2661  -18.1390   18.1424 C   0  0  0  0  0  0  0  0  0  0  0  0
  -29.4982  -27.0359   22.3417 C   0  0  0  0  0  0  0  0  0  0  0  0
  -22.7601  -18.4513   18.0393 C   0  0  0  0  0  0  0  0  0  0  0  0
  -20.9797  -17.1085   19.2317 C   0  0  0  0  0  0  0  0  0  0  0  0
  -23.0177  -17.7699   20.4621 C   0  0  0  0  0  0  0  0  0  0  0  0
  -28.6410  -26.9085   21.0766 C   0  0  1  0  0  0  0  0  0  0  0  0
  -26.3825  -29.9544   20.8422 C   0  0  1  0  0  0  0  0  0  0  0  0
  -23.3441  -18.8424   19.4099 C   0  0  1  0  0  0  0  0  0  0  0  0
  -24.2388  -36.1280   25.0008 C   0  0  0  0  0  0  0  0  0  0  0  0
  -23.8371  -25.1861   22.2038 C   0  0  0  0  0  0  0  0  0  0  0  0
  -22.3371  -23.3079   21.5295 C   0  0  0  0  0  0  0  0  0  0  0  0
  -20.8365  -23.7183   25.9249 C   0  0  0  0  0  0  0  0  0  0  0  0
  -26.7171  -30.0021   25.4516 C   0  0  0  0  0  0  0  0  0  0  0  0
  -25.7340  -32.0072   26.5836 C   0  0  0  0  0  0  0  0  0  0  0  0
  -27.8886  -32.2090   25.3427 C   0  0  0  0  0  0  0  0  0  0  0  0
  -23.2524  -35.3551   21.4084 C   0  0  0  0  0  0  0  0  0  0  0  0
  -18.8153  -26.6070   21.8389 C   0  0  0  0  0  0  0  0  0  0  0  0
  -22.3441  -24.1781   23.9548 C   0  0  0  0  0  0  0  0  0  0  0  0
  -18.4445  -26.0367   23.2012 C   0  0  0  0  0  0  0  0  0  0  0  0
  -19.9287  -27.6447   21.9135 C   0  0  0  0  0  0  0  0  0  1  0  0
  -25.7340  -31.9339   24.0487 C   0  0  1  0  0  0  0  0  0  0  0  0
  -24.3536  -35.4416   23.6486 C   0  0  2  0  0  0  0  0  0  0  0  0
  -22.4783  -24.5191   22.4506 C   0  0  0  0  0  0  0  0  0  0  0  0
  -21.0337  -23.4931   24.4171 C   0  0  2  0  0  0  0  0  0  0  0  0
  -26.5042  -31.5247   25.3359 C   0  0  0  0  0  0  0  0  0  0  0  0
  -25.6961  -18.1202   19.5741 N   0  0  0  0  0  0  0  0  0  0  0  0
  -24.8332  -19.1222   19.3341 N   0  0  0  0  0  0  0  0  0  0  0  0
  -21.5694  -17.5230   20.5041 N   0  0  0  0  0  0  0  0  0  0  0  0
  -25.6990  -30.5985   21.9657 N   0  0  0  0  0  0  0  0  0  0  0  0
  -24.7161  -21.4206   18.7736 N   0  0  0  0  0  0  0  0  0  0  0  0
  -29.1566  -20.6156   18.9480 N   0  0  0  0  0  0  0  0  0  0  0  0
  -21.0973  -22.0602   24.1983 N   0  0  0  0  0  0  0  0  0  0  0  0
  -28.0229  -28.1769   20.7550 N   0  0  0  0  0  0  0  0  0  0  0  0
  -19.5531  -25.3620   23.8347 N   0  0  0  0  0  0  0  0  0  0  0  0
  -25.5417  -33.3724   23.8993 N   0  0  0  0  0  0  0  0  0  0  0  0
  -23.2477  -35.9312   22.7777 N   0  3  0  0  0  0  0  0  0  0  0  0
  -19.5536  -17.3958   21.6821 O   0  0  0  0  0  0  0  0  0  0  0  0
  -23.0049  -21.6856   25.4611 O   0  0  0  0  0  0  0  0  0  0  0  0
  -27.5700  -22.2297   18.5793 O   0  0  0  0  0  0  0  0  0  0  0  0
  -26.1637  -27.9978   22.1456 O   0  0  0  0  0  0  0  0  0  0  0  0
  -27.5683  -31.8654   22.5463 O   0  0  0  0  0  0  0  0  0  0  0  0
  -23.2257  -33.3104   23.8013 O   0  0  0  0  0  0  0  0  0  0  0  0
  -19.1067  -23.2778   22.9429 O   0  0  0  0  0  0  0  0  0  0  0  0
  -31.5755  -15.7368   20.1235 O   0  0  0  0  0  0  0  0  0  0  0  0
  -20.2153  -28.1038   20.5990 O   0  0  0  0  0  0  0  0  0  1  0  0
  -31.8239  -10.7525   17.7784 F   0  0  0  0  0  0  0  0  0  0  0  0
  -29.7604  -13.7621   20.7934 F   0  0  0  0  0  0  0  0  0  0  0  0
  1  2  1  0  0  0  0
  1  8  2  0  0  0  0
  2  9  2  0  0  0  0
  3  6  1  0  0  0  0
  3  7  2  0  0  0  0
  4 11  2  0  0  0  0
  4 19  1  0  0  0  0
  5 12  1  0  0  0  0
  5 19  2  0  0  0  0
  6 20  2  0  0  0  0
  7 21  1  0  0  0  0
  8 23  1  0  0  0  0
  9 25  1  0  0  0  0
 10 13  2  0  0  0  0
 10 24  1  0  0  0  0
 11 27  1  0  0  0  0
 12 27  2  0  0  0  0
 13 28  1  0  0  0  0
 14 15  2  0  0  0  0
 14 29  1  0  0  0  0
 15 30  1  0  0  0  0
 16 20  1  0  0  0  0
 16 21  2  0  0  0  0
 17 26  1  0  0  0  0
 17 28  2  0  0  0  0
 18 30  2  0  0  0  0
 18 31  1  0  0  0  0
 19 32  1  0  0  0  0
 20 34  1  0  0  0  0
 21 35  1  0  0  0  0
 22 32  1  0  0  0  0
 22 33  2  0  0  0  0
 22 36  1  0  0  0  0
 23 25  2  0  0  0  0
 23 41  1  0  0  0  0
 24 26  2  0  0  0  0
 24 42  1  0  0  0  0
 25 50  1  0  0  0  0
 26 43  1  0  0  0  0
 27 88  1  0  0  0  0
 28 89  1  0  0  0  0
 29 31  2  0  0  0  0
 29 88  1  0  0  0  0
 30 90  1  0  0  0  0
 31 91  1  0  0  0  0
 32 70  2  0  0  0  0
 33 71  1  0  0  0  0
 33 74  1  0  0  0  0
 34 72  1  0  0  0  0
 34 81  2  0  0  0  0
 35 76  1  0  0  0  0
 35 82  2  0  0  0  0
 36 75  1  0  0  0  0
 36 83  2  0  0  0  0
 37 51  1  0  0  0  0
 37 77  1  0  0  0  0
 37 84  2  0  0  0  0
 38 65  1  0  0  0  0
 38 73  1  0  0  0  0
 38 85  2  0  0  0  0
 39 66  1  0  0  0  0
 39 79  1  0  0  0  0
 39 86  2  0  0  0  0
 40 68  1  0  0  0  0
 40 78  1  0  0  0  0
 40 87  2  0  0  0  0
 41 44  1  0  0  0  0
 42 51  1  0  0  0  0
 43 73  1  0  0  0  0
 44 46  1  0  0  0  0
 45 47  1  0  0  0  0
 45 48  1  0  0  0  0
 46 50  1  0  0  0  0
 47 52  1  0  0  0  0
 48 72  1  0  0  0  0
 49 52  1  0  0  0  0
 49 72  1  0  0  0  0
 50 77  1  0  0  0  0
 51 73  1  0  0  0  0
 52 71  1  0  0  0  0
 53 66  1  0  0  0  0
 54 67  1  0  0  0  0
 55 67  1  0  0  0  0
 56 68  1  0  0  0  0
 57 69  1  0  0  0  0
 58 69  1  0  0  0  0
 59 69  1  0  0  0  0
 60 80  1  0  0  0  0
 61 63  1  0  0  0  0
 61 64  1  0  0  0  0
 62 67  1  0  0  0  0
 62 68  1  0  0  0  0
 63 78  1  0  0  0  0
 64 89  1  0  0  0  0
 65 69  1  0  0  0  0
 65 79  1  0  0  0  0
 66 80  1  0  0  0  0
 68 76  1  0  0  0  0
 70 71  1  0  0  0  0
M  CHG  1  80   1
M  ISO  4  20 100  34 100  64 101  89 101
M  END
> <Batch ID>
0061

> <Smiles>
CNC(C)C(=O)NC(C(=O)N1Cc2cc([101O:1][101CH2:1]CCNC(=O)C(C)(CC(C)C)NC(=O)c3ccc[100c:0]([100C:0](=O)N4CCCC(n5nc(-c6ccc(Oc7ccc(F)cc7F)cc6)c(C(N)=O)c5N)C4)c3)ccc2CC1C(=O)NC1CCCc2ccccc21)C(C)(C)C

> <Shape>
0.271

> <Color>
0.057

> <Negative vol penalty>
0.000

$$$$

  -OEChem-04042323073D

 85 93  0     1  0  0  0  0  0999 V2000
  -20.0726  -31.2373   23.2964 C   0  0  0  0  0  0  0  0  0  0  0  0
  -21.3670  -30.7279   23.3147 C   0  0  0  0  0  0  0  0  0  0  0  0
  -26.6743  -12.9994   20.5644 C   0  0  0  0  0  0  0  0  0  0  0  0
  -25.1151  -14.5387   19.5463 C   0  0  0  0  0  0  0  0  0  0  0  0
  -18.9948  -30.3899   23.0432 C   0  0  0  0  0  0  0  0  0  0  0  0
  -21.5843  -29.3704   23.0810 C   0  0  0  0  0  0  0  0  0  0  0  0
  -25.4394  -28.5388   19.9042 C   0  0  0  0  0  0  0  0  0  0  0  0
  -30.4055  -23.3586   22.9529 C   0  0  0  0  0  0  0  0  0  0  0  0
  -25.8132  -11.9395   20.2806 C   0  0  0  0  0  0  0  0  0  0  0  0
  -24.2540  -13.4787   19.2624 C   0  0  0  0  0  0  0  0  0  0  0  0
  -26.7282  -28.6481   20.4246 C   0  0  0  0  0  0  0  0  0  0  0  0
  -23.8607   -8.8747   20.1443 C   0  0  0  0  0  0  0  0  0  0  0  0
  -23.6308   -7.9366   21.1506 C   0  0  0  0  0  0  0  0  0  0  0  0
  -31.4174  -24.2529   22.6040 C   0  0  0  0  0  0  0  0  0  0  0  0
  -26.8493  -26.2462   20.6130 C   0  0  0  0  0  0  0  0  0  0  0  0
  -29.8442  -23.0832   20.6192 C   0  0  0  0  0  0  0  0  0  0  0  0
  -22.7487   -9.6787   22.5733 C   0  0  0  0  0  0  0  0  0  0  0  0
  -26.3252  -14.2991   20.1973 C   0  0  0  0  0  0  0  0  0  0  0  0
  -28.2436  -15.8965   19.6724 C   0  0  0  0  0  0  0  0  0  0  0  0
  -19.1997  -29.0232   22.7967 C   0  0  0  0  0  0  0  0  0  0  0  0
  -24.8407  -27.2809   19.7442 C   0  0  0  0  0  0  0  0  0  0  0  0
  -20.5081  -28.5037   22.8256 C   0  0  0  0  0  0  0  0  0  0  0  0
  -25.5537  -26.1235   20.0880 C   0  0  0  0  0  0  0  0  0  0  0  0
  -30.8562  -23.9775   20.2702 C   0  0  0  0  0  0  0  0  0  0  0  0
  -29.6189  -22.7737   21.9604 C   0  0  0  0  0  0  0  0  0  0  0  0
  -24.6031  -12.1791   19.6295 C   0  0  0  0  0  0  0  0  0  0  0  0
  -27.4322  -27.5019   20.7818 C   0  0  0  0  0  0  0  0  0  0  0  0
  -23.5346  -10.2149   20.3525 C   0  0  0  0  0  0  0  0  0  0  0  0
  -23.0748   -8.3386   22.3651 C   0  0  0  0  0  0  0  0  0  0  0  0
  -22.9786  -10.6169   21.5670 C   0  0  0  0  0  0  0  0  0  0  0  0
  -31.6428  -24.5624   21.2627 C   0  0  0  0  0  0  0  0  0  0  0  0
  -27.2140  -15.3946   20.4907 C   0  0  0  0  0  0  0  0  0  0  0  0
  -28.7869  -16.9283   20.3982 C   0  0  0  0  0  0  0  0  0  0  0  0
  -28.6707  -15.4685   18.3724 C   0  0  0  0  0  0  0  0  0  0  0  0
  -22.2621  -25.8558   20.9375 C   0  0  0  0  0  0  0  0  0  0  0  0
  -23.0476  -23.5275   18.8199 C   0  0  0  0  0  0  0  0  0  0  0  0
  -25.4614  -22.0143   16.9410 C   0  0  0  0  0  0  0  0  0  0  0  0
  -29.7118  -27.5787   20.3213 C   0  0  0  0  0  0  0  0  0  1  0  0
  -28.2361  -21.4509   23.5990 C   0  0  0  0  0  0  0  0  0  0  0  0
  -17.9993  -28.1375   22.5746 C   0  0  0  0  0  0  0  0  0  0  0  0
  -23.4599  -27.1785   19.1565 C   0  0  0  0  0  0  0  0  0  0  0  0
  -24.9636  -24.7484   19.9169 C   0  0  0  0  0  0  0  0  0  0  0  0
  -18.3471  -26.7815   21.9660 C   0  0  0  0  0  0  0  0  0  0  0  0
  -28.0882  -18.2864   25.2241 C   0  0  0  0  0  0  0  0  0  0  0  0
  -19.5383  -26.1613   22.6895 C   0  0  0  0  0  0  0  0  0  0  0  0
  -27.9323  -17.2932   24.0702 C   0  0  0  0  0  0  0  0  0  0  0  0
  -27.3253  -19.5839   24.9626 C   0  0  0  0  0  0  0  0  0  0  0  0
  -27.4717  -19.2412   22.5274 C   0  0  0  0  0  0  0  0  0  0  0  0
  -20.7864  -27.0416   22.5522 C   0  0  1  0  0  0  0  0  0  0  0  0
  -22.7521  -25.8761   19.5172 C   0  0  1  0  0  0  0  0  0  0  0  0
  -28.2755  -17.9443   22.7160 C   0  0  2  0  0  0  0  0  0  0  0  0
  -31.0715  -24.2883   18.8251 C   0  0  0  0  0  0  0  0  0  0  0  0
  -25.8089  -20.1126   15.3409 C   0  0  0  0  0  0  0  0  0  0  0  0
  -22.9709  -21.5574   21.1486 C   0  0  0  0  0  0  0  0  0  0  0  0
  -24.2219  -19.9265   19.7191 C   0  0  0  0  0  0  0  0  0  0  0  0
  -21.9552  -20.7058   19.0279 C   0  0  0  0  0  0  0  0  0  0  0  0
  -26.3046  -23.8416   14.7709 C   0  0  0  0  0  0  0  0  0  0  0  0
  -31.0450  -27.7002   21.0033 C   0  0  0  0  0  0  0  0  0  0  0  0
  -23.9159  -22.2933   18.8614 C   0  0  1  0  0  0  0  0  0  0  0  0
  -25.4859  -21.5918   15.4831 C   0  0  2  0  0  0  0  0  0  0  0  0
  -23.2766  -21.1466   19.6944 C   0  0  0  0  0  0  0  0  0  0  0  0
  -27.1077  -16.0531   21.6479 N   0  0  0  0  0  0  0  0  0  0  0  0
  -28.0776  -16.9794   21.5620 N   0  0  0  0  0  0  0  0  0  0  0  0
  -23.6082  -24.7008   19.3441 N   0  0  0  0  0  0  0  0  0  0  0  0
  -27.7048  -20.1455   23.6644 N   0  0  0  0  0  0  0  0  0  0  0  0
  -29.7975  -17.7876   20.1481 N   0  0  0  0  0  0  0  0  0  0  0  0
  -28.0033  -14.3931   17.7703 N   0  0  0  0  0  0  0  0  0  0  0  0
  -28.5909  -21.8654   22.3157 N   0  0  0  0  0  0  0  0  0  0  0  0
  -21.3806  -26.8752   21.2431 N   0  0  0  0  0  0  0  0  0  0  0  0
  -24.1913  -21.9411   17.4727 N   0  0  0  0  0  0  0  0  0  0  0  0
  -32.0543  -26.9997   20.1929 N   0  0  0  0  0  0  0  0  0  0  0  0
  -26.5127  -22.3711   14.7352 N   0  3  0  0  0  0  0  0  0  0  0  0
  -29.6267  -16.0127   17.7696 O   0  0  0  0  0  0  0  0  0  0  0  0
  -22.6535  -24.9793   21.6992 O   0  0  0  0  0  0  0  0  0  0  0  0
  -21.9162  -23.4548   18.3336 O   0  0  0  0  0  0  0  0  0  0  0  0
  -26.4689  -22.3699   17.5484 O   0  0  0  0  0  0  0  0  0  0  0  0
  -29.5344  -27.4726   19.1151 O   0  0  0  0  0  0  0  0  0  0  0  0
  -28.3921  -22.1395   24.6107 O   0  0  0  0  0  0  0  0  0  0  0  0
  -33.5583  -26.1278   22.0937 O   0  0  0  0  0  0  0  0  0  0  0  0
  -33.7286  -25.0824   19.8128 O   0  0  0  0  0  0  0  0  0  0  0  0
  -23.7627  -11.1449   19.3522 O   0  0  0  0  0  0  0  0  0  0  0  0
  -28.6901  -27.6057   21.2906 O   0  0  0  0  0  0  0  0  0  1  0  0
  -22.8527   -7.4373   23.3308 F   0  0  0  0  0  0  0  0  0  0  0  0
  -22.6622  -11.9028   21.7724 F   0  0  0  0  0  0  0  0  0  0  0  0
  -32.9333  -25.7001   20.8566 S   0  0  0  0  0  0  0  0  0  0  0  0
  1  2  1  0  0  0  0
  1  5  2  0  0  0  0
  2  6  2  0  0  0  0
  3  9  2  0  0  0  0
  3 18  1  0  0  0  0
  4 10  1  0  0  0  0
  4 18  2  0  0  0  0
  5 20  1  0  0  0  0
  6 22  1  0  0  0  0
  7 11  2  0  0  0  0
  7 21  1  0  0  0  0
  8 14  2  0  0  0  0
  8 25  1  0  0  0  0
  9 26  1  0  0  0  0
 10 26  2  0  0  0  0
 11 27  1  0  0  0  0
 12 13  2  0  0  0  0
 12 28  1  0  0  0  0
 13 29  1  0  0  0  0
 14 31  1  0  0  0  0
 15 23  1  0  0  0  0
 15 27  2  0  0  0  0
 16 24  1  0  0  0  0
 16 25  2  0  0  0  0
 17 29  2  0  0  0  0
 17 30  1  0  0  0  0
 18 32  1  0  0  0  0
 19 32  1  0  0  0  0
 19 33  2  0  0  0  0
 19 34  1  0  0  0  0
 20 22  2  0  0  0  0
 20 40  1  0  0  0  0
 21 23  2  0  0  0  0
 21 41  1  0  0  0  0
 22 49  1  0  0  0  0
 23 42  1  0  0  0  0
 24 31  2  0  0  0  0
 24 52  1  0  0  0  0
 25 68  1  0  0  0  0
 26 81  1  0  0  0  0
 27 82  1  0  0  0  0
 28 30  2  0  0  0  0
 28 81  1  0  0  0  0
 29 83  1  0  0  0  0
 30 84  1  0  0  0  0
 31 85  1  0  0  0  0
 32 62  2  0  0  0  0
 33 63  1  0  0  0  0
 33 66  1  0  0  0  0
 34 67  1  0  0  0  0
 34 73  2  0  0  0  0
 35 50  1  0  0  0  0
 35 69  1  0  0  0  0
 35 74  2  0  0  0  0
 36 59  1  0  0  0  0
 36 64  1  0  0  0  0
 36 75  2  0  0  0  0
 37 60  1  0  0  0  0
 37 70  1  0  0  0  0
 37 76  2  0  0  0  0
 38 58  1  0  0  0  0
 38 77  2  0  0  0  0
 38 82  1  0  0  0  0
 39 65  1  0  0  0  0
 39 68  1  0  0  0  0
 39 78  2  0  0  0  0
 40 43  1  0  0  0  0
 41 50  1  0  0  0  0
 42 64  1  0  0  0  0
 43 45  1  0  0  0  0
 44 46  1  0  0  0  0
 44 47  1  0  0  0  0
 45 49  1  0  0  0  0
 46 51  1  0  0  0  0
 47 65  1  0  0  0  0
 48 51  1  0  0  0  0
 48 65  1  0  0  0  0
 49 69  1  0  0  0  0
 50 64  1  0  0  0  0
 51 63  1  0  0  0  0
 53 60  1  0  0  0  0
 54 61  1  0  0  0  0
 55 61  1  0  0  0  0
 56 61  1  0  0  0  0
 57 72  1  0  0  0  0
 58 71  1  0  0  0  0
 59 61  1  0  0  0  0
 59 70  1  0  0  0  0
 60 72  1  0  0  0  0
 62 63  1  0  0  0  0
 71 85  1  0  0  0  0
 79 85  2  0  0  0  0
 80 85  2  0  0  0  0
M  CHG  1  72   1
M  ISO  4  38 101  39 100  68 100  82 101
M  END
> <Batch ID>
0061

> <Smiles>
CNC(C)C(=O)NC(C(=O)N1Cc2cc([101O:1][101C:1](=O)CNS(=O)(=O)c3ccc([100NH:0][100C:0](=O)N4CCCC(n5nc(-c6ccc(Oc7ccc(F)cc7F)cc6)c(C(N)=O)c5N)C4)cc3C)ccc2CC1C(=O)NC1CCCc2ccccc21)C(C)(C)C

> <Shape>
0.228

> <Color>
0.067

> <Negative vol penalty>
0.000

$$$$

  -OEChem-04042323073D

 90 99  0     1  0  0  0  0  0999 V2000
  -24.5802  -32.5726   24.7830 C   0  0  0  0  0  0  0  0  0  0  0  0
  -25.3005  -31.3845   24.7130 C   0  0  0  0  0  0  0  0  0  0  0  0
  -32.6945  -17.4416   23.4227 C   0  0  0  0  0  0  0  0  0  0  0  0
  -23.0728   -9.8715   19.9387 C   0  0  0  0  0  0  0  0  0  0  0  0
  -23.8367   -9.8714   22.2308 C   0  0  0  0  0  0  0  0  0  0  0  0
  -24.8422  -33.5998   23.8773 C   0  0  0  0  0  0  0  0  0  0  0  0
  -26.2827  -31.2225   23.7365 C   0  0  0  0  0  0  0  0  0  0  0  0
  -30.5371  -29.1857   25.5795 C   0  0  0  0  0  0  0  0  0  0  0  0
  -31.9276  -18.3202   24.1879 C   0  0  0  0  0  0  0  0  0  0  0  0
  -32.0728  -16.5724   22.5262 C   0  0  0  0  0  0  0  0  0  0  0  0
  -22.3284   -8.7183   20.1867 C   0  0  0  0  0  0  0  0  0  0  0  0
  -23.0922   -8.7182   22.4788 C   0  0  0  0  0  0  0  0  0  0  0  0
  -30.5401  -27.8092   25.8008 C   0  0  0  0  0  0  0  0  0  0  0  0
  -19.8645   -7.9214   23.0848 C   0  0  0  0  0  0  0  0  0  0  0  0
  -19.1096   -7.8788   24.2569 C   0  0  0  0  0  0  0  0  0  0  0  0
  -31.7229  -27.4840   23.7236 C   0  0  0  0  0  0  0  0  0  0  0  0
  -20.3506   -5.9382   24.9856 C   0  0  0  0  0  0  0  0  0  0  0  0
  -23.8270  -10.4481   20.9607 C   0  0  0  0  0  0  0  0  0  0  0  0
  -29.9172  -17.4603   23.1603 C   0  0  0  0  0  0  0  0  0  0  0  0
  -24.1708  -12.9733   20.8472 C   0  0  0  0  0  0  0  0  0  0  0  0
  -25.8348  -33.4540   22.8954 C   0  0  0  0  0  0  0  0  0  0  0  0
  -31.1183  -29.7217   24.4214 C   0  0  0  0  0  0  0  0  0  0  0  0
  -26.5574  -32.2482   22.8160 C   0  0  0  0  0  0  0  0  0  0  0  0
  -31.7281  -28.8679   23.4913 C   0  0  0  0  0  0  0  0  0  0  0  0
  -30.5389  -18.3295   24.0567 C   0  0  0  0  0  0  0  0  0  0  0  0
  -30.6841  -16.5817   22.3950 C   0  0  0  0  0  0  0  0  0  0  0  0
  -22.3381   -8.1416   21.4568 C   0  0  0  0  0  0  0  0  0  0  0  0
  -31.1305  -26.9579   24.8714 C   0  0  0  0  0  0  0  0  0  0  0  0
  -20.8624   -6.9724   22.8630 C   0  0  0  0  0  0  0  0  0  0  0  0
  -19.3526   -6.8872   25.2073 C   0  0  0  0  0  0  0  0  0  0  0  0
  -21.1055   -5.9808   23.8135 C   0  0  0  0  0  0  0  0  0  0  0  0
  -24.5966  -11.6390   20.7050 C   0  0  0  0  0  0  0  0  0  0  0  0
  -25.2629  -13.7228   20.4842 C   0  0  0  0  0  0  0  0  0  0  0  0
  -30.6687  -21.3980   25.7244 C   0  0  0  0  0  0  0  0  0  0  0  0
  -29.9213  -21.1652   23.3397 C   0  0  0  0  0  0  0  0  0  0  0  0
  -27.6549  -16.7435   23.7796 C   0  0  0  0  0  0  0  0  0  0  0  0
  -28.4622  -17.4742   23.0291 C   0  0  0  0  0  0  0  0  0  0  0  0
  -22.9015  -13.4890   21.2699 C   0  0  0  0  0  0  0  0  0  0  0  0
  -30.0453  -31.3972   21.9425 C   0  0  0  0  0  0  0  0  0  0  0  0
  -33.1925  -31.5296   21.1676 C   0  0  0  0  0  0  0  0  0  0  0  0
  -36.3024  -30.1498   21.4345 C   0  0  0  0  0  0  0  0  0  0  0  0
  -30.7303  -14.7633   20.6522 C   0  0  0  0  0  0  0  0  0  0  0  0
  -26.0497  -34.5740   21.9085 C   0  0  0  0  0  0  0  0  0  0  0  0
  -31.1303  -31.2110   24.2105 C   0  0  0  0  0  0  0  0  0  0  0  0
  -32.3835  -29.3949   22.2418 C   0  0  0  0  0  0  0  0  0  0  0  0
  -31.1879  -22.7817   25.4042 C   0  0  0  0  0  0  0  0  0  0  0  0
  -30.4502  -22.5532   23.0580 C   0  0  0  0  0  0  0  0  0  0  0  0
  -27.3650  -34.4657   21.1412 C   0  0  0  0  0  0  0  0  0  0  0  0
  -29.6096  -12.3571   18.2790 C   0  0  0  0  0  0  0  0  0  0  0  0
  -27.5675  -33.0440   20.6269 C   0  0  0  0  0  0  0  0  0  0  0  0
  -28.1705  -12.0656   18.7103 C   0  0  0  0  0  0  0  0  0  0  0  0
  -30.5271  -12.5818   19.4797 C   0  0  0  0  0  0  0  0  0  0  0  0
  -28.6232  -13.3039   20.8664 C   0  0  0  0  0  0  0  0  0  0  0  0
  -27.6478  -32.0440   21.7867 C   0  0  1  0  0  0  0  0  0  0  0  0
  -31.2974  -31.6058   22.7464 C   0  0  1  0  0  0  0  0  0  0  0  0
  -27.6481  -13.1348   19.6898 C   0  0  2  0  0  0  0  0  0  0  0  0
  -30.4227  -23.4746   24.2771 C   0  0  0  0  0  0  0  0  0  0  0  0
  -28.9783  -23.8006   24.6997 C   0  0  0  0  0  0  0  0  0  0  0  0
  -38.6687  -30.4610   20.6590 C   0  0  0  0  0  0  0  0  0  0  0  0
  -32.4342  -30.4345   18.4225 C   0  0  0  0  0  0  0  0  0  0  0  0
  -34.8476  -29.8794   18.0545 C   0  0  0  0  0  0  0  0  0  0  0  0
  -34.1514  -32.2522   18.3826 C   0  0  0  0  0  0  0  0  0  0  0  0
  -37.2891  -30.4832   24.2047 C   0  0  0  0  0  0  0  0  0  0  0  0
  -29.7503  -19.2913   24.8977 C   0  0  0  0  0  0  0  0  0  0  0  0
  -31.1192  -24.7733   23.9314 C   0  0  0  0  0  0  0  0  0  1  0  0
  -34.1304  -30.6704   20.3547 C   0  0  1  0  0  0  0  0  0  0  0  0
  -37.6538  -30.7653   21.7499 C   0  0  2  0  0  0  0  0  0  0  0  0
  -33.8769  -30.7987   18.8261 C   0  0  0  0  0  0  0  0  0  0  0  0
  -25.8607  -11.5433   20.2842 N   0  0  0  0  0  0  0  0  0  0  0  0
  -26.2384  -12.8269   20.1589 N   0  0  0  0  0  0  0  0  0  0  0  0
  -30.1297  -20.6774   24.6433 N   0  0  0  0  0  0  0  0  0  0  0  0
  -32.3639  -30.8578   22.0775 N   0  0  0  0  0  0  0  0  0  0  0  0
  -29.9705  -13.6106   20.3610 N   0  0  0  0  0  0  0  0  0  0  0  0
  -25.4743  -15.0543   20.4145 N   0  0  0  0  0  0  0  0  0  0  0  0
  -21.8894  -12.5797   21.6063 N   0  0  0  0  0  0  0  0  0  0  0  0
  -30.0851  -15.6866   21.4743 N   0  0  0  0  0  0  0  0  0  0  0  0
  -28.9516  -32.0991   22.4122 N   0  0  0  0  0  0  0  0  0  0  0  0
  -35.4808  -31.0351   20.7692 N   0  0  0  0  0  0  0  0  0  0  0  0
  -38.1768  -30.2333   23.0400 N   0  3  0  0  0  0  0  0  0  0  0  0
  -30.7727  -20.9613   26.8730 O   0  0  0  0  0  0  0  0  0  0  0  0
  -29.3818  -20.5234   22.4351 O   0  0  0  0  0  0  0  0  0  0  0  0
  -22.6664  -14.7196   21.3311 O   0  0  0  0  0  0  0  0  0  0  0  0
  -30.0700  -30.6557   20.9672 O   0  0  0  0  0  0  0  0  0  0  0  0
  -33.1999  -32.7526   21.0065 O   0  0  0  0  0  0  0  0  0  0  0  0
  -36.0067  -28.9977   21.7437 O   0  0  0  0  0  0  0  0  0  0  0  0
  -31.8587  -14.9324   20.1830 O   0  0  0  0  0  0  0  0  0  0  0  0
  -21.6116   -7.0165   21.6992 O   0  0  0  0  0  0  0  0  0  0  0  0
  -31.1343  -25.6138   25.0845 O   0  0  0  0  0  0  0  0  0  1  0  0
  -18.6286   -6.8474   26.3336 F   0  0  0  0  0  0  0  0  0  0  0  0
  -22.0637   -5.0671   23.6066 F   0  0  0  0  0  0  0  0  0  0  0  0
  1  2  1  0  0  0  0
  1  6  2  0  0  0  0
  2  7  2  0  0  0  0
  3  9  1  0  0  0  0
  3 10  2  0  0  0  0
  4 11  2  0  0  0  0
  4 18  1  0  0  0  0
  5 12  1  0  0  0  0
  5 18  2  0  0  0  0
  6 21  1  0  0  0  0
  7 23  1  0  0  0  0
  8 13  2  0  0  0  0
  8 22  1  0  0  0  0
  9 25  2  0  0  0  0
 10 26  1  0  0  0  0
 11 27  1  0  0  0  0
 12 27  2  0  0  0  0
 13 28  1  0  0  0  0
 14 15  2  0  0  0  0
 14 29  1  0  0  0  0
 15 30  1  0  0  0  0
 16 24  1  0  0  0  0
 16 28  2  0  0  0  0
 17 30  2  0  0  0  0
 17 31  1  0  0  0  0
 18 32  1  0  0  0  0
 19 25  1  0  0  0  0
 19 26  2  0  0  0  0
 19 37  1  0  0  0  0
 20 32  1  0  0  0  0
 20 33  2  0  0  0  0
 20 38  1  0  0  0  0
 21 23  2  0  0  0  0
 21 43  1  0  0  0  0
 22 24  2  0  0  0  0
 22 44  1  0  0  0  0
 23 54  1  0  0  0  0
 24 45  1  0  0  0  0
 25 64  1  0  0  0  0
 26 76  1  0  0  0  0
 27 87  1  0  0  0  0
 28 88  1  0  0  0  0
 29 31  2  0  0  0  0
 29 87  1  0  0  0  0
 30 89  1  0  0  0  0
 31 90  1  0  0  0  0
 32 69  2  0  0  0  0
 33 70  1  0  0  0  0
 33 74  1  0  0  0  0
 34 46  1  0  0  0  0
 34 71  1  0  0  0  0
 34 80  2  0  0  0  0
 35 47  1  0  0  0  0
 35 71  1  0  0  0  0
 35 81  2  0  0  0  0
 36 37  2  0  0  0  0
 38 75  1  0  0  0  0
 38 82  2  0  0  0  0
 39 55  1  0  0  0  0
 39 77  1  0  0  0  0
 39 83  2  0  0  0  0
 40 66  1  0  0  0  0
 40 72  1  0  0  0  0
 40 84  2  0  0  0  0
 41 67  1  0  0  0  0
 41 78  1  0  0  0  0
 41 85  2  0  0  0  0
 42 73  1  0  0  0  0
 42 76  1  0  0  0  0
 42 86  2  0  0  0  0
 43 48  1  0  0  0  0
 44 55  1  0  0  0  0
 45 72  1  0  0  0  0
 46 57  1  0  0  0  0
 47 57  1  0  0  0  0
 48 50  1  0  0  0  0
 49 51  1  0  0  0  0
 49 52  1  0  0  0  0
 50 54  1  0  0  0  0
 51 56  1  0  0  0  0
 52 73  1  0  0  0  0
 53 56  1  0  0  0  0
 53 73  1  0  0  0  0
 54 77  1  0  0  0  0
 55 72  1  0  0  0  0
 56 70  1  0  0  0  0
 57 58  1  0  0  0  0
 57 65  1  0  0  0  0
 59 67  1  0  0  0  0
 60 68  1  0  0  0  0
 61 68  1  0  0  0  0
 62 68  1  0  0  0  0
 63 79  1  0  0  0  0
 64 71  1  0  0  0  0
 65 88  1  0  0  0  0
 66 68  1  0  0  0  0
 66 78  1  0  0  0  0
 67 79  1  0  0  0  0
 69 70  1  0  0  0  0
M  CHG  1  79   1
M  ISO  4  42 100  65 101  76 100  88 101
M  END
> <Batch ID>
0061

> <Smiles>
C=Cc1c(CN2C(=O)CC(C)([101CH2:1][101O:1]c3ccc4c(c3)CN(C(=O)C(NC(=O)C(C)NC)C(C)(C)C)C(C(=O)NC3CCCc5ccccc53)C4)CC2=O)cccc1[100NH:0][100C:0](=O)N1CCCC(n2nc(-c3ccc(Oc4ccc(F)cc4F)cc3)c(C(N)=O)c2N)C1

> <Shape>
0.213

> <Color>
0.184

> <Negative vol penalty>
0.000

$$$$

  -OEChem-04042323073D

 92101  0     1  0  0  0  0  0999 V2000
  -31.1430  -24.5000   17.6541 C   0  0  0  0  0  0  0  0  0  0  0  0
  -29.8090  -24.8791   17.5567 C   0  0  0  0  0  0  0  0  0  0  0  0
  -25.7273   -9.6842   21.2606 C   0  0  0  0  0  0  0  0  0  0  0  0
  -25.9566  -10.8152   23.3832 C   0  0  0  0  0  0  0  0  0  0  0  0
  -31.8304  -24.6845   18.8519 C   0  0  0  0  0  0  0  0  0  0  0  0
  -29.1652  -25.4536   18.6532 C   0  0  0  0  0  0  0  0  0  0  0  0
  -23.3578  -27.1393   19.4012 C   0  0  0  0  0  0  0  0  0  0  0  0
  -26.2081   -8.5078   21.8354 C   0  0  0  0  0  0  0  0  0  0  0  0
  -26.4374   -9.6387   23.9581 C   0  0  0  0  0  0  0  0  0  0  0  0
  -22.1759  -26.5752   19.8795 C   0  0  0  0  0  0  0  0  0  0  0  0
  -25.0153   -6.0253   23.7969 C   0  0  0  0  0  0  0  0  0  0  0  0
  -24.3389   -4.8398   23.5093 C   0  0  0  0  0  0  0  0  0  0  0  0
  -22.5621  -27.6026   22.0277 C   0  0  0  0  0  0  0  0  0  0  0  0
  -23.2339  -20.0501   21.9220 C   0  0  0  0  0  0  0  0  0  0  0  0
  -23.5527  -22.3710   22.5122 C   0  0  0  0  0  0  0  0  0  0  0  0
  -25.2402  -21.2070   21.2338 C   0  0  0  0  0  0  0  0  0  0  0  0
  -26.3557   -3.9232   22.5452 C   0  0  0  0  0  0  0  0  0  0  0  0
  -25.6016  -10.8380   22.0345 C   0  0  0  0  0  0  0  0  0  0  0  0
  -23.7647  -12.4753   21.3615 C   0  0  0  0  0  0  0  0  0  0  0  0
  -31.1905  -25.2501   19.9670 C   0  0  0  0  0  0  0  0  0  0  0  0
  -24.1576  -27.9317   20.2372 C   0  0  0  0  0  0  0  0  0  0  0  0
  -29.8487  -25.6700   19.8635 C   0  0  0  0  0  0  0  0  0  0  0  0
  -23.7523  -28.1777   21.5568 C   0  0  0  0  0  0  0  0  0  0  0  0
  -22.7777  -21.2117   22.5449 C   0  0  0  0  0  0  0  0  0  0  0  0
  -24.4652  -20.0477   21.2665 C   0  0  0  0  0  0  0  0  0  0  0  0
  -26.5631   -8.4850   23.1841 C   0  0  0  0  0  0  0  0  0  0  0  0
  -21.7794  -26.8044   21.1938 C   0  0  0  0  0  0  0  0  0  0  0  0
  -26.3618   -6.1599   23.4586 C   0  0  0  0  0  0  0  0  0  0  0  0
  -25.0092   -3.7887   22.8835 C   0  0  0  0  0  0  0  0  0  0  0  0
  -27.0320   -5.1088   22.8327 C   0  0  0  0  0  0  0  0  0  0  0  0
  -24.7839  -22.3687   21.8567 C   0  0  0  0  0  0  0  0  0  0  0  0
  -25.1055  -12.0537   21.4411 C   0  0  0  0  0  0  0  0  0  0  0  0
  -23.8229  -13.6841   20.7121 C   0  0  0  0  0  0  0  0  0  0  0  0
  -20.4544  -23.5258   23.0770 C   0  0  0  0  0  0  0  0  0  0  0  0
  -22.5732  -11.8317   21.8326 C   0  0  0  0  0  0  0  0  0  0  0  0
  -18.5063  -25.1183   22.8592 C   0  0  0  0  0  0  0  0  0  0  0  0
  -27.1262  -27.7261   21.3546 C   0  0  0  0  0  0  0  0  0  0  0  0
  -26.4771  -30.6834   22.5189 C   0  0  0  0  0  0  0  0  0  0  0  0
  -24.1327  -32.9535   23.5177 C   0  0  0  0  0  0  0  0  0  0  0  0
  -26.1273  -18.6942   19.9429 C   0  0  0  0  0  0  0  0  0  0  0  0
  -31.9841  -25.4341   21.2364 C   0  0  0  0  0  0  0  0  0  0  0  0
  -25.4159  -28.5549   19.6981 C   0  0  0  0  0  0  0  0  0  0  0  0
  -24.5650  -29.0377   22.4887 C   0  0  0  0  0  0  0  0  0  0  0  0
  -31.1026  -25.6359   22.4647 C   0  0  0  0  0  0  0  0  0  0  0  0
  -27.6491  -15.9370   18.2818 C   0  0  0  0  0  0  0  0  0  0  0  0
  -30.0577  -26.7055   22.1844 C   0  0  0  0  0  0  0  0  0  0  0  0
  -27.0127  -14.7156   18.9491 C   0  0  0  0  0  0  0  0  0  0  0  0
  -18.7031  -23.0183   21.5277 C   0  0  0  0  0  0  0  0  0  0  0  0
  -27.8864  -17.0692   19.2797 C   0  0  0  0  0  0  0  0  0  0  0  0
  -19.6954  -21.8708   21.5655 C   0  0  0  0  0  0  0  0  0  0  0  0
  -26.0709  -16.2452   20.7269 C   0  0  0  0  0  0  0  0  0  0  0  0
  -29.1192  -26.2688   21.0524 C   0  0  1  0  0  0  0  0  0  0  0  0
  -26.4154  -28.9235   20.7901 C   0  0  1  0  0  0  0  0  0  0  0  0
  -25.7531  -15.1026   19.7486 C   0  0  2  0  0  0  0  0  0  0  0  0
  -19.4597  -24.2059   22.1460 C   0  0  2  0  0  0  0  0  0  0  0  0
  -17.4869  -25.8289   22.0106 C   0  0  0  0  0  0  0  0  0  0  0  0
  -23.9081  -35.2701   24.4557 C   0  0  0  0  0  0  0  0  0  0  0  0
  -27.3208  -29.6513   25.2635 C   0  0  0  0  0  0  0  0  0  0  0  0
  -26.1976  -31.6441   26.2810 C   0  0  0  0  0  0  0  0  0  0  0  0
  -28.1219  -31.9584   24.7250 C   0  0  0  0  0  0  0  0  0  0  0  0
  -22.6022  -33.8842   21.1618 C   0  0  0  0  0  0  0  0  0  0  0  0
  -26.7762  -23.7083   23.2673 C   0  0  0  0  0  0  0  0  0  0  0  0
  -21.4515  -21.2152   23.2486 C   0  0  0  0  0  0  0  0  0  0  0  0
  -20.2212  -25.0105   21.0937 C   0  0  0  0  0  0  0  0  0  1  0  0
  -25.8872  -31.2223   23.7997 C   0  0  1  0  0  0  0  0  0  0  0  0
  -23.9528  -34.4252   23.1921 C   0  0  2  0  0  0  0  0  0  0  0  0
  -26.8673  -31.1012   25.0006 C   0  0  0  0  0  0  0  0  0  0  0  0
  -25.9535  -12.9239   20.8864 N   0  0  0  0  0  0  0  0  0  0  0  0
  -25.1435  -13.9044   20.4520 N   0  0  0  0  0  0  0  0  0  0  0  0
  -20.5431  -22.1918   22.6871 N   0  0  0  0  0  0  0  0  0  0  0  0
  -25.7905  -29.6195   21.9168 N   0  0  0  0  0  0  0  0  0  0  0  0
  -26.6489  -17.3843   19.9967 N   0  0  0  0  0  0  0  0  0  0  0  0
  -22.8727  -14.5695   20.3438 N   0  0  0  0  0  0  0  0  0  0  0  0
  -22.6933  -10.5937   22.4784 N   0  0  0  0  0  0  0  0  0  0  0  0
  -24.9296  -18.8668   20.6358 N   0  0  0  0  0  0  0  0  0  0  0  0
  -28.2812  -27.3861   20.6764 N   0  0  0  0  0  0  0  0  0  0  0  0
  -25.4622  -32.5877   23.5106 N   0  0  0  0  0  0  0  0  0  0  0  0
  -22.6842  -34.6378   22.4394 N   0  3  0  0  0  0  0  0  0  0  0  0
  -21.0721  -24.0838   23.9732 O   0  0  0  0  0  0  0  0  0  0  0  0
  -21.4343  -12.3318   21.6706 O   0  0  0  0  0  0  0  0  0  0  0  0
  -18.5542  -25.2762   24.0781 O   0  0  0  0  0  0  0  0  0  0  0  0
  -26.6620  -27.1540   22.3338 O   0  0  0  0  0  0  0  0  0  0  0  0
  -27.5051  -31.1925   22.0654 O   0  0  0  0  0  0  0  0  0  0  0  0
  -23.1887  -32.2042   23.7583 O   0  0  0  0  0  0  0  0  0  0  0  0
  -26.6867  -19.5898   19.3048 O   0  0  0  0  0  0  0  0  0  0  0  0
  -26.6226  -23.7464   20.6501 O   0  0  0  0  0  0  0  0  0  0  0  0
  -24.8841  -24.9741   21.9979 O   0  0  0  0  0  0  0  0  0  0  0  0
  -27.0321   -7.3372   23.7455 O   0  0  0  0  0  0  0  0  0  0  0  0
  -20.6266  -26.2545   21.6634 O   0  0  0  0  0  0  0  0  0  1  0  0
  -24.3600   -2.6498   22.6087 F   0  0  0  0  0  0  0  0  0  0  0  0
  -28.3259   -5.2317   22.5064 F   0  0  0  0  0  0  0  0  0  0  0  0
  -25.7538  -23.8198   21.8162 S   0  0  0  0  0  0  0  0  0  0  0  0
  1  2  1  0  0  0  0
  1  5  2  0  0  0  0
  2  6  2  0  0  0  0
  3  8  2  0  0  0  0
  3 18  1  0  0  0  0
  4  9  1  0  0  0  0
  4 18  2  0  0  0  0
  5 20  1  0  0  0  0
  6 22  1  0  0  0  0
  7 10  2  0  0  0  0
  7 21  1  0  0  0  0
  8 26  1  0  0  0  0
  9 26  2  0  0  0  0
 10 27  1  0  0  0  0
 11 12  2  0  0  0  0
 11 28  1  0  0  0  0
 12 29  1  0  0  0  0
 13 23  1  0  0  0  0
 13 27  2  0  0  0  0
 14 24  1  0  0  0  0
 14 25  2  0  0  0  0
 15 24  2  0  0  0  0
 15 31  1  0  0  0  0
 16 25  1  0  0  0  0
 16 31  2  0  0  0  0
 17 29  2  0  0  0  0
 17 30  1  0  0  0  0
 18 32  1  0  0  0  0
 19 32  1  0  0  0  0
 19 33  2  0  0  0  0
 19 35  1  0  0  0  0
 20 22  2  0  0  0  0
 20 41  1  0  0  0  0
 21 23  2  0  0  0  0
 21 42  1  0  0  0  0
 22 52  1  0  0  0  0
 23 43  1  0  0  0  0
 24 63  1  0  0  0  0
 25 75  1  0  0  0  0
 26 88  1  0  0  0  0
 27 89  1  0  0  0  0
 28 30  2  0  0  0  0
 28 88  1  0  0  0  0
 29 90  1  0  0  0  0
 30 91  1  0  0  0  0
 31 92  1  0  0  0  0
 32 68  2  0  0  0  0
 33 69  1  0  0  0  0
 33 73  1  0  0  0  0
 34 55  1  0  0  0  0
 34 70  1  0  0  0  0
 34 79  2  0  0  0  0
 35 74  1  0  0  0  0
 35 80  2  0  0  0  0
 36 55  1  0  0  0  0
 36 56  1  0  0  0  0
 36 81  2  0  0  0  0
 37 53  1  0  0  0  0
 37 76  1  0  0  0  0
 37 82  2  0  0  0  0
 38 65  1  0  0  0  0
 38 71  1  0  0  0  0
 38 83  2  0  0  0  0
 39 66  1  0  0  0  0
 39 77  1  0  0  0  0
 39 84  2  0  0  0  0
 40 72  1  0  0  0  0
 40 75  1  0  0  0  0
 40 85  2  0  0  0  0
 41 44  1  0  0  0  0
 42 53  1  0  0  0  0
 43 71  1  0  0  0  0
 44 46  1  0  0  0  0
 45 47  1  0  0  0  0
 45 49  1  0  0  0  0
 46 52  1  0  0  0  0
 47 54  1  0  0  0  0
 48 50  1  0  0  0  0
 48 55  1  0  0  0  0
 49 72  1  0  0  0  0
 50 70  1  0  0  0  0
 51 54  1  0  0  0  0
 51 72  1  0  0  0  0
 52 76  1  0  0  0  0
 53 71  1  0  0  0  0
 54 69  1  0  0  0  0
 55 64  1  0  0  0  0
 57 66  1  0  0  0  0
 58 67  1  0  0  0  0
 59 67  1  0  0  0  0
 60 67  1  0  0  0  0
 61 78  1  0  0  0  0
 62 92  1  0  0  0  0
 63 70  1  0  0  0  0
 64 89  1  0  0  0  0
 65 67  1  0  0  0  0
 65 77  1  0  0  0  0
 66 78  1  0  0  0  0
 68 69  1  0  0  0  0
 86 92  2  0  0  0  0
 87 92  2  0  0  0  0
M  CHG  1  78   1
M  ISO  4  40 100  64 101  75 100  89 101
M  END
> <Batch ID>
0061

> <Smiles>
CNC(C)C(=O)NC(C(=O)N1Cc2cc([101O:1][101CH2:1]C3(C(C)=O)CCN(Cc4cc([100NH:0][100C:0](=O)N5CCCC(n6nc(-c7ccc(Oc8ccc(F)cc8F)cc7)c(C(N)=O)c6N)C5)cc(S(C)(=O)=O)c4)C3=O)ccc2CC1C(=O)NC1CCCc2ccccc21)C(C)(C)C

> <Shape>
0.233

> <Color>
0.062

> <Negative vol penalty>
0.000

$$$$

  -OEChem-04042323073D

 92101  0     1  0  0  0  0  0999 V2000
  -25.2972  -36.0864   22.4623 C   0  0  0  0  0  0  0  0  0  0  0  0
  -25.5949  -35.4551   21.2589 C   0  0  0  0  0  0  0  0  0  0  0  0
  -26.3855  -11.6807   20.8913 C   0  0  0  0  0  0  0  0  0  0  0  0
  -25.2936  -13.6761   20.0769 C   0  0  0  0  0  0  0  0  0  0  0  0
  -25.7587  -35.5487   23.6631 C   0  0  0  0  0  0  0  0  0  0  0  0
  -26.3554  -34.2863   21.2554 C   0  0  0  0  0  0  0  0  0  0  0  0
  -23.7562  -28.1793   18.4555 C   0  0  0  0  0  0  0  0  0  0  0  0
  -25.1492  -11.1603   21.2738 C   0  0  0  0  0  0  0  0  0  0  0  0
  -24.0573  -13.1557   20.4593 C   0  0  0  0  0  0  0  0  0  0  0  0
  -23.4113  -27.0262   17.7501 C   0  0  0  0  0  0  0  0  0  0  0  0
  -21.8267  -10.9113   19.2729 C   0  0  0  0  0  0  0  0  0  0  0  0
  -20.7709  -11.0216   18.3681 C   0  0  0  0  0  0  0  0  0  0  0  0
  -25.4614  -25.9620   18.4663 C   0  0  0  0  0  0  0  0  0  0  0  0
  -29.7487  -22.0023   18.3943 C   0  0  0  0  0  0  0  0  0  0  0  0
  -28.1319  -20.7109   17.1471 C   0  0  0  0  0  0  0  0  0  0  0  0
  -19.5199  -12.3094   19.9849 C   0  0  0  0  0  0  0  0  0  0  0  0
  -26.4577  -12.9387   20.2929 C   0  0  0  0  0  0  0  0  0  0  0  0
  -28.6443  -12.9207   18.9790 C   0  0  0  0  0  0  0  0  0  0  0  0
  -26.5171  -34.3674   23.6751 C   0  0  0  0  0  0  0  0  0  0  0  0
  -24.9491  -28.2226   19.1824 C   0  0  0  0  0  0  0  0  0  0  0  0
  -26.8287  -33.7331   22.4574 C   0  0  0  0  0  0  0  0  0  0  0  0
  -25.8062  -27.1098   19.1849 C   0  0  0  0  0  0  0  0  0  0  0  0
  -29.5361  -23.0884   17.5453 C   0  0  0  0  0  0  0  0  0  0  0  0
  -27.9192  -21.7970   16.2982 C   0  0  0  0  0  0  0  0  0  0  0  0
  -29.0466  -20.8135   18.1952 C   0  0  0  0  0  0  0  0  0  0  0  0
  -23.9851  -11.8978   21.0578 C   0  0  0  0  0  0  0  0  0  0  0  0
  -24.2619  -25.9204   17.7553 C   0  0  0  0  0  0  0  0  0  0  0  0
  -21.7291  -11.4999   20.5338 C   0  0  0  0  0  0  0  0  0  0  0  0
  -19.6175  -11.7207   18.7241 C   0  0  0  0  0  0  0  0  0  0  0  0
  -20.5757  -12.1990   20.8897 C   0  0  0  0  0  0  0  0  0  0  0  0
  -28.6213  -22.9857   16.4972 C   0  0  0  0  0  0  0  0  0  0  0  0
  -27.7346  -13.4771   19.8981 C   0  0  0  0  0  0  0  0  0  0  0  0
  -29.6936  -13.8066   18.9553 C   0  0  0  0  0  0  0  0  0  0  0  0
  -24.8318  -22.6496   14.6351 C   0  0  0  0  0  0  0  0  0  0  0  0
  -26.7043  -20.4625   14.5685 C   0  0  0  0  0  0  0  0  0  0  0  0
  -23.9251  -23.5101   15.1192 C   0  0  0  0  0  0  0  0  0  0  0  0
  -28.5493  -11.7112   18.2149 C   0  0  0  0  0  0  0  0  0  0  0  0
  -24.3662  -24.7768   15.7422 C   0  0  0  0  0  0  0  0  0  1  0  0
  -27.2116  -30.2065   21.4233 C   0  0  0  0  0  0  0  0  0  0  0  0
  -27.2001  -27.3301   22.4895 C   0  0  0  0  0  0  0  0  0  0  0  0
  -26.5850  -24.1604   23.5903 C   0  0  0  0  0  0  0  0  0  0  0  0
  -30.1336  -19.6458   20.1449 C   0  0  0  0  0  0  0  0  0  0  0  0
  -27.0339  -33.8500   24.9941 C   0  0  0  0  0  0  0  0  0  0  0  0
  -25.3903  -29.4655   19.9066 C   0  0  0  0  0  0  0  0  0  0  0  0
  -27.0956  -27.2141   19.9526 C   0  0  0  0  0  0  0  0  0  0  0  0
  -24.4275  -21.3487   13.9929 C   0  0  0  0  0  0  0  0  0  0  0  0
  -26.3106  -22.9017   14.7137 C   0  0  0  0  0  0  0  0  0  0  0  0
  -25.6463  -20.5820   13.4808 C   0  0  0  0  0  0  0  0  0  0  0  0
  -27.5169  -32.4031   24.9337 C   0  0  0  0  0  0  0  0  0  0  0  0
  -31.9511  -17.0118   21.7056 C   0  0  0  0  0  0  0  0  0  0  0  0
  -28.4041  -32.1871   23.7118 C   0  0  0  0  0  0  0  0  0  0  0  0
  -31.1623  -15.7552   21.3305 C   0  0  0  0  0  0  0  0  0  0  0  0
  -31.0308  -18.2045   21.9594 C   0  0  0  0  0  0  0  0  0  0  0  0
  -29.2934  -17.2413   20.5024 C   0  0  0  0  0  0  0  0  0  0  0  0
  -27.6299  -32.4500   22.4145 C   0  0  1  0  0  0  0  0  0  0  0  0
  -26.1515  -29.1662   21.2105 C   0  0  1  0  0  0  0  0  0  0  0  0
  -30.1813  -16.0299   20.1739 C   0  0  2  0  0  0  0  0  0  0  0  0
  -27.2111  -22.5514   25.4114 C   0  0  0  0  0  0  0  0  0  0  0  0
  -29.8835  -26.8366   21.1259 C   0  0  0  0  0  0  0  0  0  0  0  0
  -30.0240  -24.6568   22.3494 C   0  0  0  0  0  0  0  0  0  0  0  0
  -29.9606  -26.7995   23.6253 C   0  0  0  0  0  0  0  0  0  0  0  0
  -23.7912  -23.9790   24.5499 C   0  0  0  0  0  0  0  0  0  0  0  0
  -27.8619  -25.9754   22.4814 C   0  0  1  0  0  0  0  0  0  0  0  0
  -26.2283  -23.6224   24.9643 C   0  0  2  0  0  0  0  0  0  0  0  0
  -30.2881  -24.3583   17.7619 C   0  0  0  0  0  0  0  0  0  0  0  0
  -29.4102  -26.0729   22.3787 C   0  0  0  0  0  0  0  0  0  0  0  0
  -28.1681  -14.6273   20.4206 N   0  0  0  0  0  0  0  0  0  0  0  0
  -29.3617  -14.8009   19.8279 N   0  0  0  0  0  0  0  0  0  0  0  0
  -26.9752  -21.6885   15.2175 N   0  0  0  0  0  0  0  0  0  0  0  0
  -26.8584  -27.8747   21.2457 N   0  0  0  0  0  0  0  0  0  0  0  0
  -30.1330  -18.4070   20.8202 N   0  0  0  0  0  0  0  0  0  0  0  0
  -30.8586  -13.8243   18.2735 N   0  0  0  0  0  0  0  0  0  0  0  0
  -27.4028  -10.9180   18.3593 N   0  0  0  0  0  0  0  0  0  0  0  0
  -29.2625  -19.7103   19.0578 N   0  0  0  0  0  0  0  0  0  0  0  0
  -26.7720  -31.3273   22.1015 N   0  0  0  0  0  0  0  0  0  0  0  0
  -27.3845  -25.2808   23.6722 N   0  0  0  0  0  0  0  0  0  0  0  0
  -24.8613  -23.0292   24.9495 N   0  3  0  0  0  0  0  0  0  0  0  0
  -27.1970  -19.3638   14.8179 O   0  0  0  0  0  0  0  0  0  0  0  0
  -29.4615  -11.3363   17.4398 O   0  0  0  0  0  0  0  0  0  0  0  0
  -25.0132  -25.6506   15.1858 O   0  0  0  0  0  0  0  0  0  0  0  0
  -28.3460  -30.0075   21.0047 O   0  0  0  0  0  0  0  0  0  0  0  0
  -26.9955  -27.8950   23.5677 O   0  0  0  0  0  0  0  0  0  0  0  0
  -26.1964  -23.6368   22.5485 O   0  0  0  0  0  0  0  0  0  0  0  0
  -30.8736  -20.5715   20.4878 O   0  0  0  0  0  0  0  0  0  0  0  0
  -22.7785  -11.3902   21.4307 O   0  0  0  0  0  0  0  0  0  0  0  0
  -23.9170  -24.7963   17.0682 O   0  0  0  0  0  0  0  0  0  1  0  0
  -18.6043  -11.8279   17.8545 F   0  0  0  0  0  0  0  0  0  0  0  0
  -20.4767  -12.7677   22.0991 F   0  0  0  0  0  0  0  0  0  0  0  0
  -28.4189  -24.0315   15.6817 F   0  0  0  0  0  0  0  0  0  0  0  0
  -31.1458  -24.3120   18.8238 F   0  0  0  0  0  0  0  0  0  0  0  0
  -31.0598  -24.7249   16.6964 F   0  0  0  0  0  0  0  0  0  0  0  0
  -29.4657  -25.4209   18.0015 F   0  0  0  0  0  0  0  0  0  0  0  0
  1  2  1  0  0  0  0
  1  5  2  0  0  0  0
  2  6  2  0  0  0  0
  3  8  2  0  0  0  0
  3 17  1  0  0  0  0
  4  9  1  0  0  0  0
  4 17  2  0  0  0  0
  5 19  1  0  0  0  0
  6 21  1  0  0  0  0
  7 10  2  0  0  0  0
  7 20  1  0  0  0  0
  8 26  1  0  0  0  0
  9 26  2  0  0  0  0
 10 27  1  0  0  0  0
 11 12  2  0  0  0  0
 11 28  1  0  0  0  0
 12 29  1  0  0  0  0
 13 22  1  0  0  0  0
 13 27  2  0  0  0  0
 14 23  2  0  0  0  0
 14 25  1  0  0  0  0
 15 24  1  0  0  0  0
 15 25  2  0  0  0  0
 16 29  2  0  0  0  0
 16 30  1  0  0  0  0
 17 32  1  0  0  0  0
 18 32  1  0  0  0  0
 18 33  2  0  0  0  0
 18 37  1  0  0  0  0
 19 21  2  0  0  0  0
 19 43  1  0  0  0  0
 20 22  2  0  0  0  0
 20 44  1  0  0  0  0
 21 55  1  0  0  0  0
 22 45  1  0  0  0  0
 23 31  1  0  0  0  0
 23 65  1  0  0  0  0
 24 31  2  0  0  0  0
 24 69  1  0  0  0  0
 25 74  1  0  0  0  0
 26 85  1  0  0  0  0
 27 86  1  0  0  0  0
 28 30  2  0  0  0  0
 28 85  1  0  0  0  0
 29 87  1  0  0  0  0
 30 88  1  0  0  0  0
 31 89  1  0  0  0  0
 32 67  2  0  0  0  0
 33 68  1  0  0  0  0
 33 72  1  0  0  0  0
 34 36  2  0  0  0  0
 34 46  1  0  0  0  0
 34 47  1  0  0  0  0
 35 48  1  0  0  0  0
 35 69  1  0  0  0  0
 35 78  2  0  0  0  0
 36 38  1  0  0  0  0
 37 73  1  0  0  0  0
 37 79  2  0  0  0  0
 38 80  2  0  0  0  0
 38 86  1  0  0  0  0
 39 56  1  0  0  0  0
 39 75  1  0  0  0  0
 39 81  2  0  0  0  0
 40 63  1  0  0  0  0
 40 70  1  0  0  0  0
 40 82  2  0  0  0  0
 41 64  1  0  0  0  0
 41 76  1  0  0  0  0
 41 83  2  0  0  0  0
 42 71  1  0  0  0  0
 42 74  1  0  0  0  0
 42 84  2  0  0  0  0
 43 49  1  0  0  0  0
 44 56  1  0  0  0  0
 45 70  1  0  0  0  0
 46 48  1  0  0  0  0
 47 69  1  0  0  0  0
 49 51  1  0  0  0  0
 50 52  1  0  0  0  0
 50 53  1  0  0  0  0
 51 55  1  0  0  0  0
 52 57  1  0  0  0  0
 53 71  1  0  0  0  0
 54 57  1  0  0  0  0
 54 71  1  0  0  0  0
 55 75  1  0  0  0  0
 56 70  1  0  0  0  0
 57 68  1  0  0  0  0
 58 64  1  0  0  0  0
 59 66  1  0  0  0  0
 60 66  1  0  0  0  0
 61 66  1  0  0  0  0
 62 77  1  0  0  0  0
 63 66  1  0  0  0  0
 63 76  1  0  0  0  0
 64 77  1  0  0  0  0
 65 90  1  0  0  0  0
 65 91  1  0  0  0  0
 65 92  1  0  0  0  0
 67 68  1  0  0  0  0
M  CHG  1  77   1
M  ISO  4  38 101  42 100  74 100  86 101
M  END
> <Batch ID>
0061

> <Smiles>
CNC(C)C(=O)NC(C(=O)N1Cc2cc([101O:1][101C:1](=O)C=C3CCC(=O)N(c4cc([100NH:0][100C:0](=O)N5CCCC(n6nc(-c7ccc(Oc8ccc(F)cc8F)cc7)c(C(N)=O)c6N)C5)cc(C(F)(F)F)c4F)C3)ccc2CC1C(=O)NC1CCCc2ccccc21)C(C)(C)C

> <Shape>
0.266

> <Color>
0.042

> <Negative vol penalty>
0.000

$$$$

  -OEChem-04042323073D

 86 95  0     1  0  0  0  0  0999 V2000
  -19.9198  -30.6592   22.1862 C   0  0  0  0  0  0  0  0  0  0  0  0
  -21.2543  -30.2668   22.1637 C   0  0  0  0  0  0  0  0  0  0  0  0
  -26.4804  -12.7732   18.8588 C   0  0  0  0  0  0  0  0  0  0  0  0
  -25.9984  -13.0414   21.2109 C   0  0  0  0  0  0  0  0  0  0  0  0
  -18.9158  -29.7035   22.3366 C   0  0  0  0  0  0  0  0  0  0  0  0
  -21.5857  -28.9185   22.2926 C   0  0  0  0  0  0  0  0  0  0  0  0
  -25.1132  -27.4582   18.9656 C   0  0  0  0  0  0  0  0  0  0  0  0
  -25.3164  -12.0200   18.7061 C   0  0  0  0  0  0  0  0  0  0  0  0
  -24.8343  -12.2883   21.0583 C   0  0  0  0  0  0  0  0  0  0  0  0
  -26.4347  -27.8024   19.2465 C   0  0  0  0  0  0  0  0  0  0  0  0
  -23.9954   -9.0233   20.7994 C   0  0  0  0  0  0  0  0  0  0  0  0
  -23.7297   -8.0405   21.7528 C   0  0  0  0  0  0  0  0  0  0  0  0
  -26.8307  -25.5748   20.0833 C   0  0  0  0  0  0  0  0  0  0  0  0
  -31.2505  -25.1566   18.0211 C   0  0  0  0  0  0  0  0  0  0  0  0
  -30.5497  -22.8447   18.0530 C   0  0  0  0  0  0  0  0  0  0  0  0
  -30.7782  -24.0663   20.1248 C   0  0  0  0  0  0  0  0  0  0  0  0
  -21.6577   -9.1477   22.3167 C   0  0  0  0  0  0  0  0  0  0  0  0
  -26.8215  -13.2838   20.1112 C   0  0  0  0  0  0  0  0  0  0  0  0
  -29.3446  -13.6469   20.0119 C   0  0  0  0  0  0  0  0  0  0  0  0
  -19.2346  -28.3417   22.4578 C   0  0  0  0  0  0  0  0  0  0  0  0
  -24.6368  -26.1708   19.2520 C   0  0  0  0  0  0  0  0  0  0  0  0
  -20.5851  -27.9438   22.4461 C   0  0  0  0  0  0  0  0  0  0  0  0
  -25.5035  -25.2160   19.8027 C   0  0  0  0  0  0  0  0  0  0  0  0
  -30.9407  -23.9787   17.3411 C   0  0  0  0  0  0  0  0  0  0  0  0
  -31.1693  -25.2003   19.4130 C   0  0  0  0  0  0  0  0  0  0  0  0
  -30.4684  -22.8885   19.4448 C   0  0  0  0  0  0  0  0  0  0  0  0
  -24.4933  -11.7776   19.8058 C   0  0  0  0  0  0  0  0  0  0  0  0
  -27.2929  -26.8616   19.8081 C   0  0  0  0  0  0  0  0  0  0  0  0
  -23.0923  -10.0684   20.6046 C   0  0  0  0  0  0  0  0  0  0  0  0
  -22.5608   -8.1026   22.5114 C   0  0  0  0  0  0  0  0  0  0  0  0
  -21.9234  -10.1305   21.3632 C   0  0  0  0  0  0  0  0  0  0  0  0
  -28.0241  -14.0614   20.2697 C   0  0  0  0  0  0  0  0  0  0  0  0
  -30.1142  -14.7429   20.3169 C   0  0  0  0  0  0  0  0  0  0  0  0
  -32.0236  -26.3769   21.4196 C   0  0  0  0  0  0  0  0  0  0  0  0
  -29.8319  -12.3842   19.5389 C   0  0  0  0  0  0  0  0  0  0  0  0
  -22.3794  -24.9852   21.1500 C   0  0  0  0  0  0  0  0  0  0  0  0
  -23.1567  -22.1982   19.6834 C   0  0  0  0  0  0  0  0  0  0  0  0
  -25.4835  -20.3695   17.9837 C   0  0  0  0  0  0  0  0  0  0  0  0
  -29.7296  -20.4814   19.6566 C   0  0  0  0  0  0  0  0  0  0  0  0
  -18.1172  -27.3503   22.6657 C   0  0  0  0  0  0  0  0  0  0  0  0
  -23.2159  -25.8072   18.9183 C   0  0  0  0  0  0  0  0  0  0  0  0
  -25.0467  -23.8142   20.1104 C   0  0  0  0  0  0  0  0  0  0  0  0
  -18.5340  -25.9025   22.4200 C   0  0  0  0  0  0  0  0  0  0  0  0
  -28.6297  -18.7526   22.9009 C   0  0  0  0  0  0  0  0  0  0  0  0
  -19.8599  -25.6038   23.1125 C   0  0  0  0  0  0  0  0  0  0  0  0
  -29.1923  -17.3560   22.6472 C   0  0  0  0  0  0  0  0  0  0  0  0
  -29.3511  -19.8219   22.0901 C   0  0  0  0  0  0  0  0  0  0  0  0
  -31.3567  -27.7053   19.4135 C   0  0  0  0  0  0  0  0  0  0  0  0
  -28.9808  -18.1820   20.2382 C   0  0  0  0  0  0  0  0  0  0  0  0
  -30.5954  -28.6442   21.6950 C   0  0  0  0  0  0  0  0  0  0  0  0
  -20.9833  -26.4881   22.5582 C   0  0  1  0  0  0  0  0  0  0  0  0
  -22.6967  -24.6223   19.7269 C   0  0  1  0  0  0  0  0  0  0  0  0
  -30.4593  -28.7049   20.1690 C   0  0  2  0  0  0  0  0  0  0  0  0
  -29.5783  -17.1194   21.1737 C   0  0  2  0  0  0  0  0  0  0  0  0
  -31.0290  -23.9320   15.8528 C   0  0  0  0  0  0  0  0  0  0  0  0
  -25.8430  -18.1111   16.9503 C   0  0  0  0  0  0  0  0  0  0  0  0
  -23.5596  -20.9953   22.4584 C   0  0  0  0  0  0  0  0  0  0  0  0
  -24.8024  -19.1066   21.3829 C   0  0  0  0  0  0  0  0  0  0  0  0
  -22.4012  -19.4934   20.8284 C   0  0  0  0  0  0  0  0  0  0  0  0
  -25.8711  -21.5349   15.2910 C   0  0  0  0  0  0  0  0  0  0  0  0
  -28.9905  -28.5267   19.7722 C   0  0  0  0  0  0  0  0  0  1  0  0
  -24.1500  -21.0923   19.9468 C   0  0  1  0  0  0  0  0  0  0  0  0
  -25.3836  -19.5417   16.7152 C   0  0  2  0  0  0  0  0  0  0  0  0
  -23.7367  -20.1988   21.1502 C   0  0  0  0  0  0  0  0  0  0  0  0
  -27.9552  -15.3222   20.7051 N   0  0  0  0  0  0  0  0  0  0  0  0
  -29.2420  -15.7094   20.7234 N   0  0  0  0  0  0  0  0  0  0  0  0
  -31.4895  -26.4169   20.1147 N   0  0  0  0  0  0  0  0  0  0  0  0
  -23.6468  -23.5089   19.7718 N   0  0  0  0  0  0  0  0  0  0  0  0
  -29.3771  -19.5340   20.6487 N   0  0  0  0  0  0  0  0  0  0  0  0
  -31.4452  -14.9645   20.2744 N   0  0  0  0  0  0  0  0  0  0  0  0
  -30.1617  -11.4001   20.4807 N   0  0  0  0  0  0  0  0  0  0  0  0
  -30.0724  -21.7358   20.1682 N   0  0  0  0  0  0  0  0  0  0  0  0
  -21.4362  -25.9869   21.2783 N   0  0  0  0  0  0  0  0  0  0  0  0
  -24.2985  -20.3688   18.6886 N   0  0  0  0  0  0  0  0  0  0  0  0
  -26.2285  -20.1360   15.6409 N   0  3  0  0  0  0  0  0  0  0  0  0
  -32.3974  -25.3815   22.0302 O   0  0  0  0  0  0  0  0  0  0  0  0
  -29.9862  -12.1417   18.3178 O   0  0  0  0  0  0  0  0  0  0  0  0
  -22.9471  -24.3987   22.0640 O   0  0  0  0  0  0  0  0  0  0  0  0
  -21.9908  -21.9097   19.4023 O   0  0  0  0  0  0  0  0  0  0  0  0
  -26.5111  -20.9550   18.3178 O   0  0  0  0  0  0  0  0  0  0  0  0
  -29.7367  -20.1923   18.4581 O   0  0  0  0  0  0  0  0  0  0  0  0
  -23.3572  -11.0429   19.6571 O   0  0  0  0  0  0  0  0  0  0  0  0
  -28.5831  -27.1951   20.0839 O   0  0  0  0  0  0  0  0  0  1  0  0
  -22.3050   -7.1579   23.4259 F   0  0  0  0  0  0  0  0  0  0  0  0
  -21.0515  -11.1315   21.1798 F   0  0  0  0  0  0  0  0  0  0  0  0
  -32.1890  -27.9567   22.2088 S   0  0  0  0  0  0  0  0  0  0  0  0
  1  2  1  0  0  0  0
  1  5  2  0  0  0  0
  2  6  2  0  0  0  0
  3  8  2  0  0  0  0
  3 18  1  0  0  0  0
  4  9  1  0  0  0  0
  4 18  2  0  0  0  0
  5 20  1  0  0  0  0
  6 22  1  0  0  0  0
  7 10  2  0  0  0  0
  7 21  1  0  0  0  0
  8 27  1  0  0  0  0
  9 27  2  0  0  0  0
 10 28  1  0  0  0  0
 11 12  2  0  0  0  0
 11 29  1  0  0  0  0
 12 30  1  0  0  0  0
 13 23  1  0  0  0  0
 13 28  2  0  0  0  0
 14 24  2  0  0  0  0
 14 25  1  0  0  0  0
 15 24  1  0  0  0  0
 15 26  2  0  0  0  0
 16 25  2  0  0  0  0
 16 26  1  0  0  0  0
 17 30  2  0  0  0  0
 17 31  1  0  0  0  0
 18 32  1  0  0  0  0
 19 32  1  0  0  0  0
 19 33  2  0  0  0  0
 19 35  1  0  0  0  0
 20 22  2  0  0  0  0
 20 40  1  0  0  0  0
 21 23  2  0  0  0  0
 21 41  1  0  0  0  0
 22 51  1  0  0  0  0
 23 42  1  0  0  0  0
 24 55  1  0  0  0  0
 25 67  1  0  0  0  0
 26 72  1  0  0  0  0
 27 82  1  0  0  0  0
 28 83  1  0  0  0  0
 29 31  2  0  0  0  0
 29 82  1  0  0  0  0
 30 84  1  0  0  0  0
 31 85  1  0  0  0  0
 32 65  2  0  0  0  0
 33 66  1  0  0  0  0
 33 70  1  0  0  0  0
 34 67  1  0  0  0  0
 34 76  2  0  0  0  0
 34 86  1  0  0  0  0
 35 71  1  0  0  0  0
 35 77  2  0  0  0  0
 36 52  1  0  0  0  0
 36 73  1  0  0  0  0
 36 78  2  0  0  0  0
 37 62  1  0  0  0  0
 37 68  1  0  0  0  0
 37 79  2  0  0  0  0
 38 63  1  0  0  0  0
 38 74  1  0  0  0  0
 38 80  2  0  0  0  0
 39 69  1  0  0  0  0
 39 72  1  0  0  0  0
 39 81  2  0  0  0  0
 40 43  1  0  0  0  0
 41 52  1  0  0  0  0
 42 68  1  0  0  0  0
 43 45  1  0  0  0  0
 44 46  1  0  0  0  0
 44 47  1  0  0  0  0
 45 51  1  0  0  0  0
 46 54  1  0  0  0  0
 47 69  1  0  0  0  0
 48 53  1  0  0  0  0
 48 67  1  0  0  0  0
 49 54  1  0  0  0  0
 49 69  1  0  0  0  0
 50 53  1  0  0  0  0
 50 86  1  0  0  0  0
 51 73  1  0  0  0  0
 52 68  1  0  0  0  0
 53 61  1  0  0  0  0
 54 66  1  0  0  0  0
 56 63  1  0  0  0  0
 57 64  1  0  0  0  0
 58 64  1  0  0  0  0
 59 64  1  0  0  0  0
 60 75  1  0  0  0  0
 61 83  1  0  0  0  0
 62 64  1  0  0  0  0
 62 74  1  0  0  0  0
 63 75  1  0  0  0  0
 65 66  1  0  0  0  0
M  CHG  1  75   1
M  ISO  4  39 100  61 101  72 100  83 101
M  END
> <Batch ID>
0061

> <Smiles>
CNC(C)C(=O)NC(C(=O)N1Cc2cc([101O:1][101CH2:1]C3CSC(=O)N(c4cc(C)cc([100NH:0][100C:0](=O)N5CCCC(n6nc(-c7ccc(Oc8ccc(F)cc8F)cc7)c(C(N)=O)c6N)C5)c4)C3)ccc2CC1C(=O)NC1CCCc2ccccc21)C(C)(C)C

> <Shape>
0.293

> <Color>
0.070

> <Negative vol penalty>
0.000

$$$$

  -OEChem-04042323073D

 90 99  0     1  0  0  0  0  0999 V2000
  -29.7373  -23.8027   18.5583 C   0  0  0  0  0  0  0  0  0  0  0  0
  -28.0975  -30.6622   27.8802 C   0  0  0  0  0  0  0  0  0  0  0  0
  -28.1796  -29.7393   26.8425 C   0  0  0  0  0  0  0  0  0  0  0  0
  -23.1384   -9.9451   21.6204 C   0  0  0  0  0  0  0  0  0  0  0  0
  -24.4782  -10.7452   23.4649 C   0  0  0  0  0  0  0  0  0  0  0  0
  -26.8640  -31.2122   28.2265 C   0  0  0  0  0  0  0  0  0  0  0  0
  -27.0280  -29.3649   26.1511 C   0  0  0  0  0  0  0  0  0  0  0  0
  -27.7199  -29.2632   21.1355 C   0  0  0  0  0  0  0  0  0  0  0  0
  -22.6415   -8.9204   22.4258 C   0  0  0  0  0  0  0  0  0  0  0  0
  -23.9813   -9.7204   24.2703 C   0  0  0  0  0  0  0  0  0  0  0  0
  -28.3873  -28.1590   20.6072 C   0  0  0  0  0  0  0  0  0  0  0  0
  -23.6876   -5.9116   23.5559 C   0  0  0  0  0  0  0  0  0  0  0  0
  -23.6305   -4.6292   23.0101 C   0  0  0  0  0  0  0  0  0  0  0  0
  -26.2716  -27.1960   19.9628 C   0  0  0  0  0  0  0  0  0  0  0  0
  -29.3341  -19.4614   22.3134 C   0  0  0  0  0  0  0  0  0  0  0  0
  -31.6737  -18.1225   21.5951 C   0  0  0  0  0  0  0  0  0  0  0  0
  -21.2380   -4.5934   23.3445 C   0  0  0  0  0  0  0  0  0  0  0  0
  -24.0568  -10.8575   22.1400 C   0  0  0  0  0  0  0  0  0  0  0  0
  -23.8323  -12.9304   20.6702 C   0  0  0  0  0  0  0  0  0  0  0  0
  -25.6981  -30.8516   27.5327 C   0  0  0  0  0  0  0  0  0  0  0  0
  -26.3202  -29.3370   21.0912 C   0  0  0  0  0  0  0  0  0  0  0  0
  -25.7775  -29.9095   26.4893 C   0  0  0  0  0  0  0  0  0  0  0  0
  -25.5889  -28.3033   20.4891 C   0  0  0  0  0  0  0  0  0  0  0  0
  -29.5498  -18.1531   22.7463 C   0  0  0  0  0  0  0  0  0  0  0  0
  -30.7197  -17.4837   22.3872 C   0  0  0  0  0  0  0  0  0  0  0  0
  -30.2881  -20.1002   21.5213 C   0  0  0  0  0  0  0  0  0  0  0  0
  -23.0629   -8.8080   23.7507 C   0  0  0  0  0  0  0  0  0  0  0  0
  -27.6630  -27.1239   20.0233 C   0  0  0  0  0  0  0  0  0  0  0  0
  -22.5199   -6.5349   23.9960 C   0  0  0  0  0  0  0  0  0  0  0  0
  -22.4058   -3.9702   22.9044 C   0  0  0  0  0  0  0  0  0  0  0  0
  -31.4579  -19.4308   21.1622 C   0  0  0  0  0  0  0  0  0  0  0  0
  -21.2951   -5.8758   23.8903 C   0  0  0  0  0  0  0  0  0  0  0  0
  -24.5708  -11.9160   21.3084 C   0  0  0  0  0  0  0  0  0  0  0  0
  -24.7760  -13.6775   20.0084 C   0  0  0  0  0  0  0  0  0  0  0  0
  -28.7592  -21.9346   20.8538 C   0  0  0  0  0  0  0  0  0  0  0  0
  -22.4197  -13.1756   20.6751 C   0  0  0  0  0  0  0  0  0  0  0  0
  -24.0118  -29.4868   23.2712 C   0  0  0  0  0  0  0  0  0  0  0  0
  -22.1171  -29.8977   20.6705 C   0  0  0  0  0  0  0  0  0  0  0  0
  -21.8554  -28.4977   17.3555 C   0  0  0  0  0  0  0  0  0  0  0  0
  -30.6289  -14.5709   20.9005 C   0  0  0  0  0  0  0  0  0  0  0  0
  -24.3802  -31.4372   27.9742 C   0  0  0  0  0  0  0  0  0  0  0  0
  -25.6168  -30.5472   21.6417 C   0  0  0  0  0  0  0  0  0  0  0  0
  -24.0860  -28.3438   20.3981 C   0  0  0  0  0  0  0  0  0  0  0  0
  -28.6018  -23.4415   20.7225 C   0  0  0  0  0  0  0  0  0  0  0  0
  -23.2644  -31.2698   26.9460 C   0  0  0  0  0  0  0  0  0  0  0  0
  -29.0811  -13.3047   17.9547 C   0  0  0  0  0  0  0  0  0  0  0  0
  -23.2408  -29.8412   26.4116 C   0  0  0  0  0  0  0  0  0  0  0  0
  -27.6830  -12.8967   18.4226 C   0  0  0  0  0  0  0  0  0  0  0  0
  -31.0492  -23.7484   20.6619 C   0  0  0  0  0  0  0  0  0  0  0  0
  -30.1364  -13.0306   19.0240 C   0  0  0  0  0  0  0  0  0  0  0  0
  -31.2401  -22.2366   20.6594 C   0  0  0  0  0  0  0  0  0  0  0  0
  -28.4503  -13.2137   20.8121 C   0  0  0  0  0  0  0  0  0  0  0  0
  -24.5545  -29.4969   25.6994 C   0  0  1  0  0  0  0  0  0  0  0  0
  -24.1591  -30.2784   22.0026 C   0  0  1  0  0  0  0  0  0  0  0  0
  -27.3441  -13.5227   19.7888 C   0  0  2  0  0  0  0  0  0  0  0  0
  -29.7369  -24.1579   19.9948 C   0  0  1  0  0  0  0  0  0  0  0  0
  -28.5142  -17.4893   23.5932 C   0  0  0  0  0  0  0  0  0  0  0  0
  -20.9505  -29.4862   15.2338 C   0  0  0  0  0  0  0  0  0  0  0  0
  -19.5149  -28.5274   21.4833 C   0  0  0  0  0  0  0  0  0  0  0  0
  -19.1330  -27.9763   19.0711 C   0  0  0  0  0  0  0  0  0  0  0  0
  -19.2483  -30.3588   19.8013 C   0  0  0  0  0  0  0  0  0  0  0  0
  -24.3779  -27.9741   15.8990 C   0  0  0  0  0  0  0  0  0  0  0  0
  -30.9728  -16.0827   22.8384 C   0  0  0  0  0  0  0  0  0  0  0  0
  -29.5496  -25.6788   20.1163 C   0  0  0  0  0  0  0  0  0  1  0  0
  -21.3650  -28.9775   19.7396 C   0  0  1  0  0  0  0  0  0  0  0  0
  -22.1998  -29.1876   16.0479 C   0  0  2  0  0  0  0  0  0  0  0  0
  -19.8391  -28.9516   20.0370 C   0  0  0  0  0  0  0  0  0  0  0  0
  -29.7376  -23.5242   17.4320 N   0  0  0  0  0  0  0  0  0  0  0  0
  -25.8824  -12.0072   21.0732 N   0  0  0  0  0  0  0  0  0  0  0  0
  -25.9755  -13.0879   20.2797 N   0  0  0  0  0  0  0  0  0  0  0  0
  -30.0619  -21.4584   21.0735 N   0  0  0  0  0  0  0  0  0  0  0  0
  -23.4437  -29.5453   20.9563 N   0  0  0  0  0  0  0  0  0  0  0  0
  -29.7557  -13.6527   20.2944 N   0  0  0  0  0  0  0  0  0  0  0  0
  -24.6884  -14.7747   19.2268 N   0  0  0  0  0  0  0  0  0  0  0  0
  -21.8895  -14.0078   21.6704 N   0  0  0  0  0  0  0  0  0  0  0  0
  -24.5824  -30.0861   24.3778 N   0  0  0  0  0  0  0  0  0  0  0  0
  -21.7027  -29.4020   18.3852 N   0  0  0  0  0  0  0  0  0  0  0  0
  -30.1886  -15.1187   22.0991 N   0  0  0  0  0  0  0  0  0  0  0  0
  -23.0995  -28.3265   15.2293 N   0  3  0  0  0  0  0  0  0  0  0  0
  -27.7393  -21.2404   20.8215 O   0  0  0  0  0  0  0  0  0  0  0  0
  -21.6482  -12.6584   19.8320 O   0  0  0  0  0  0  0  0  0  0  0  0
  -23.4226  -28.4125   23.2480 O   0  0  0  0  0  0  0  0  0  0  0  0
  -21.5507  -30.8964   21.1216 O   0  0  0  0  0  0  0  0  0  0  0  0
  -21.7303  -27.2790   17.4529 O   0  0  0  0  0  0  0  0  0  0  0  0
  -31.7178  -14.8836   20.4071 O   0  0  0  0  0  0  0  0  0  0  0  0
  -22.5781   -7.8083   24.5369 O   0  0  0  0  0  0  0  0  0  0  0  0
  -28.3120  -26.0447   19.5073 O   0  0  0  0  0  0  0  0  0  1  0  0
  -22.3509   -2.7393   22.3788 F   0  0  0  0  0  0  0  0  0  0  0  0
  -32.3819  -20.0351   20.4015 F   0  0  0  0  0  0  0  0  0  0  0  0
  -20.1698   -6.4700   24.3103 F   0  0  0  0  0  0  0  0  0  0  0  0
  1 56  1  0  0  0  0
  1 68  3  0  0  0  0
  2  3  1  0  0  0  0
  2  6  2  0  0  0  0
  3  7  2  0  0  0  0
  4  9  2  0  0  0  0
  4 18  1  0  0  0  0
  5 10  1  0  0  0  0
  5 18  2  0  0  0  0
  6 20  1  0  0  0  0
  7 22  1  0  0  0  0
  8 11  2  0  0  0  0
  8 21  1  0  0  0  0
  9 27  1  0  0  0  0
 10 27  2  0  0  0  0
 11 28  1  0  0  0  0
 12 13  2  0  0  0  0
 12 29  1  0  0  0  0
 13 30  1  0  0  0  0
 14 23  1  0  0  0  0
 14 28  2  0  0  0  0
 15 24  2  0  0  0  0
 15 26  1  0  0  0  0
 16 25  2  0  0  0  0
 16 31  1  0  0  0  0
 17 30  2  0  0  0  0
 17 32  1  0  0  0  0
 18 33  1  0  0  0  0
 19 33  1  0  0  0  0
 19 34  2  0  0  0  0
 19 36  1  0  0  0  0
 20 22  2  0  0  0  0
 20 41  1  0  0  0  0
 21 23  2  0  0  0  0
 21 42  1  0  0  0  0
 22 53  1  0  0  0  0
 23 43  1  0  0  0  0
 24 25  1  0  0  0  0
 24 57  1  0  0  0  0
 25 63  1  0  0  0  0
 26 31  2  0  0  0  0
 26 71  1  0  0  0  0
 27 86  1  0  0  0  0
 28 87  1  0  0  0  0
 29 32  2  0  0  0  0
 29 86  1  0  0  0  0
 30 88  1  0  0  0  0
 31 89  1  0  0  0  0
 32 90  1  0  0  0  0
 33 69  2  0  0  0  0
 34 70  1  0  0  0  0
 34 74  1  0  0  0  0
 35 44  1  0  0  0  0
 35 71  1  0  0  0  0
 35 80  2  0  0  0  0
 36 75  1  0  0  0  0
 36 81  2  0  0  0  0
 37 54  1  0  0  0  0
 37 76  1  0  0  0  0
 37 82  2  0  0  0  0
 38 65  1  0  0  0  0
 38 72  1  0  0  0  0
 38 83  2  0  0  0  0
 39 66  1  0  0  0  0
 39 77  1  0  0  0  0
 39 84  2  0  0  0  0
 40 73  1  0  0  0  0
 40 78  1  0  0  0  0
 40 85  2  0  0  0  0
 41 45  1  0  0  0  0
 42 54  1  0  0  0  0
 43 72  1  0  0  0  0
 44 56  1  0  0  0  0
 45 47  1  0  0  0  0
 46 48  1  0  0  0  0
 46 50  1  0  0  0  0
 47 53  1  0  0  0  0
 48 55  1  0  0  0  0
 49 51  1  0  0  0  0
 49 56  1  0  0  0  0
 50 73  1  0  0  0  0
 51 71  1  0  0  0  0
 52 55  1  0  0  0  0
 52 73  1  0  0  0  0
 53 76  1  0  0  0  0
 54 72  1  0  0  0  0
 55 70  1  0  0  0  0
 56 64  1  0  0  0  0
 58 66  1  0  0  0  0
 59 67  1  0  0  0  0
 60 67  1  0  0  0  0
 61 67  1  0  0  0  0
 62 79  1  0  0  0  0
 63 78  1  0  0  0  0
 64 87  1  0  0  0  0
 65 67  1  0  0  0  0
 65 77  1  0  0  0  0
 66 79  1  0  0  0  0
 69 70  1  0  0  0  0
M  CHG  1  79   1
M  ISO  4  40 100  64 101  78 100  87 101
M  END
> <Batch ID>
0061

> <Smiles>
CNC(C)C(=O)NC(C(=O)N1Cc2cc([101O:1][101CH2:1]C3(C#N)CCN(c4cc(C)c(C[100NH:0][100C:0](=O)N5CCCC(n6nc(-c7ccc(Oc8ccc(F)cc8F)cc7)c(C(N)=O)c6N)C5)cc4F)C(=O)C3)ccc2CC1C(=O)NC1CCCc2ccccc21)C(C)(C)C

> <Shape>
0.337

> <Color>
0.128

> <Negative vol penalty>
0.000

$$$$

  -OEChem-04042323073D

 87 96  0     1  0  0  0  0  0999 V2000
  -24.4635  -37.2675   18.7289 C   0  0  0  0  0  0  0  0  0  0  0  0
  -25.3041  -36.1716   18.5627 C   0  0  0  0  0  0  0  0  0  0  0  0
  -23.2374   -9.6642   21.6995 C   0  0  0  0  0  0  0  0  0  0  0  0
  -25.5972   -9.1528   21.6165 C   0  0  0  0  0  0  0  0  0  0  0  0
  -23.6862  -37.3801   19.8810 C   0  0  0  0  0  0  0  0  0  0  0  0
  -25.3688  -35.1880   19.5491 C   0  0  0  0  0  0  0  0  0  0  0  0
  -26.1921  -29.1782   18.7068 C   0  0  0  0  0  0  0  0  0  0  0  0
  -23.0509   -8.6512   22.6400 C   0  0  0  0  0  0  0  0  0  0  0  0
  -25.4108   -8.1398   22.5571 C   0  0  0  0  0  0  0  0  0  0  0  0
  -27.3213  -28.3649   18.7930 C   0  0  0  0  0  0  0  0  0  0  0  0
  -22.7785   -5.2822   22.6506 C   0  0  0  0  0  0  0  0  0  0  0  0
  -21.6927   -4.4250   22.4721 C   0  0  0  0  0  0  0  0  0  0  0  0
  -26.7206  -27.7810   21.0552 C   0  0  0  0  0  0  0  0  0  0  0  0
  -26.9480  -21.9949   22.9084 C   0  0  0  0  0  0  0  0  0  0  0  0
  -26.2394  -19.7045   22.6106 C   0  0  0  0  0  0  0  0  0  0  0  0
  -28.1788  -20.5321   21.4311 C   0  0  0  0  0  0  0  0  0  0  0  0
  -20.8057   -5.1022   24.6149 C   0  0  0  0  0  0  0  0  0  0  0  0
  -24.5106   -9.9150   21.1876 C   0  0  0  0  0  0  0  0  0  0  0  0
  -24.1069  -11.0610   18.9446 C   0  0  0  0  0  0  0  0  0  0  0  0
  -23.7342  -36.3925   20.8775 C   0  0  0  0  0  0  0  0  0  0  0  0
  -25.3231  -29.3077   19.7997 C   0  0  0  0  0  0  0  0  0  0  0  0
  -24.5925  -35.2881   20.7161 C   0  0  0  0  0  0  0  0  0  0  0  0
  -25.5797  -28.5945   20.9794 C   0  0  0  0  0  0  0  0  0  0  0  0
  -26.0653  -20.9556   23.2022 C   0  0  0  0  0  0  0  0  0  0  0  0
  -28.0047  -21.7832   22.0228 C   0  0  0  0  0  0  0  0  0  0  0  0
  -27.2962  -19.4927   21.7250 C   0  0  0  0  0  0  0  0  0  0  0  0
  -24.1376   -7.8890   23.0688 C   0  0  0  0  0  0  0  0  0  0  0  0
  -27.5872  -27.6685   19.9683 C   0  0  0  0  0  0  0  0  0  0  0  0
  -22.8779   -6.0494   23.8113 C   0  0  0  0  0  0  0  0  0  0  0  0
  -20.7063   -4.3350   23.4542 C   0  0  0  0  0  0  0  0  0  0  0  0
  -21.8915   -5.9594   24.7934 C   0  0  0  0  0  0  0  0  0  0  0  0
  -24.7037  -10.9609   20.2156 C   0  0  0  0  0  0  0  0  0  0  0  0
  -24.6120  -12.2250   18.4188 C   0  0  0  0  0  0  0  0  0  0  0  0
  -29.0215  -23.2759   20.3666 C   0  0  0  0  0  0  0  0  0  0  0  0
  -29.6406  -23.4370   22.7932 C   0  0  0  0  0  0  0  0  0  0  0  0
  -23.1788  -10.1806   18.2971 C   0  0  0  0  0  0  0  0  0  0  0  0
  -24.3872  -31.7185   21.6479 C   0  0  0  0  0  0  0  0  0  0  0  0
  -22.3805  -29.4855   22.8766 C   0  0  0  0  0  0  0  0  0  0  0  0
  -21.7047  -26.1856   23.4247 C   0  0  0  0  0  0  0  0  0  0  0  0
  -26.6908  -17.0769   21.2987 C   0  0  0  0  0  0  0  0  0  0  0  0
  -22.9110  -36.5815   22.1270 C   0  0  0  0  0  0  0  0  0  0  0  0
  -24.0950  -30.1680   19.6815 C   0  0  0  0  0  0  0  0  0  0  0  0
  -24.6672  -28.6835   22.1743 C   0  0  0  0  0  0  0  0  0  0  0  0
  -30.0913  -24.3019   20.0819 C   0  0  0  0  0  0  0  0  0  0  0  0
  -30.5091  -24.6382   22.4775 C   0  0  0  0  0  0  0  0  0  0  0  0
  -22.7574  -35.3074   22.9537 C   0  0  0  0  0  0  0  0  0  0  0  0
  -28.7584  -14.5773   19.2490 C   0  0  0  0  0  0  0  0  0  0  0  0
  -24.1041  -34.6089   23.1132 C   0  0  0  0  0  0  0  0  0  0  0  0
  -27.6266  -13.7765   18.6092 C   0  0  0  0  0  0  0  0  0  0  0  0
  -28.3125  -15.9715   19.6711 C   0  0  0  0  0  0  0  0  0  0  0  0
  -26.4056  -14.6900   20.6599 C   0  0  0  0  0  0  0  0  0  0  0  0
  -24.6718  -34.1881   21.7523 C   0  0  1  0  0  0  0  0  0  0  0  0
  -23.5559  -30.6286   21.0323 C   0  0  1  0  0  0  0  0  0  0  0  0
  -30.1717  -25.3453   21.1794 C   0  0  0  0  0  0  0  0  0  0  0  0
  -26.2630  -14.0096   19.2894 C   0  0  2  0  0  0  0  0  0  0  0  0
  -24.9347  -21.1829   24.1483 C   0  0  0  0  0  0  0  0  0  0  0  0
  -20.0088  -24.6723   24.4883 C   0  0  0  0  0  0  0  0  0  0  0  0
  -23.4778  -30.1974   25.6332 C   0  0  0  0  0  0  0  0  0  0  0  0
  -22.4886  -28.0671   26.5002 C   0  0  0  0  0  0  0  0  0  0  0  0
  -21.0044  -29.8360   25.5564 C   0  0  0  0  0  0  0  0  0  0  0  0
  -21.0920  -24.8684   20.8462 C   0  0  0  0  0  0  0  0  0  0  0  0
  -28.9004  -26.1898   21.2894 C   0  0  0  0  0  0  0  0  0  1  0  0
  -22.4600  -28.4780   23.9980 C   0  0  1  0  0  0  0  0  0  0  0  0
  -20.4459  -25.3655   23.2072 C   0  0  2  0  0  0  0  0  0  0  0  0
  -22.3761  -29.1443   25.4003 C   0  0  0  0  0  0  0  0  0  0  0  0
  -25.5253  -11.9800   20.4812 N   0  0  0  0  0  0  0  0  0  0  0  0
  -25.4484  -12.7314   19.3696 N   0  0  0  0  0  0  0  0  0  0  0  0
  -28.9212  -22.8634   21.7178 N   0  0  0  0  0  0  0  0  0  0  0  0
  -23.4827  -29.5426   22.0118 N   0  0  0  0  0  0  0  0  0  0  0  0
  -27.1334  -15.9595   20.5492 N   0  0  0  0  0  0  0  0  0  0  0  0
  -24.4180  -12.8544   17.2404 N   0  0  0  0  0  0  0  0  0  0  0  0
  -23.6852   -9.1412   17.5050 N   0  0  0  0  0  0  0  0  0  0  0  0
  -27.4723  -18.2219   21.1227 N   0  0  0  0  0  0  0  0  0  0  0  0
  -24.0080  -32.9939   21.2751 N   0  0  0  0  0  0  0  0  0  0  0  0
  -21.4127  -27.4959   23.7394 N   0  0  0  0  0  0  0  0  0  0  0  0
  -20.6789  -24.3252   22.1658 N   0  3  0  0  0  0  0  0  0  0  0  0
  -28.3135  -22.8831   19.4364 O   0  0  0  0  0  0  0  0  0  0  0  0
  -29.6865  -22.9797   23.9400 O   0  0  0  0  0  0  0  0  0  0  0  0
  -21.9370  -10.3217   18.4043 O   0  0  0  0  0  0  0  0  0  0  0  0
  -25.3038  -31.4241   22.4061 O   0  0  0  0  0  0  0  0  0  0  0  0
  -21.3743  -30.1908   22.7675 O   0  0  0  0  0  0  0  0  0  0  0  0
  -22.8341  -25.7104   23.3289 O   0  0  0  0  0  0  0  0  0  0  0  0
  -25.6945  -17.0180   22.0224 O   0  0  0  0  0  0  0  0  0  0  0  0
  -23.9561   -6.9005   23.9867 O   0  0  0  0  0  0  0  0  0  0  0  0
  -28.6890  -26.8745   20.0553 O   0  0  0  0  0  0  0  0  0  1  0  0
  -19.6629   -3.5129   23.2819 F   0  0  0  0  0  0  0  0  0  0  0  0
  -21.9810   -6.6949   25.9101 F   0  0  0  0  0  0  0  0  0  0  0  0
  1  2  1  0  0  0  0
  1  5  2  0  0  0  0
  2  6  2  0  0  0  0
  3  8  2  0  0  0  0
  3 18  1  0  0  0  0
  4  9  1  0  0  0  0
  4 18  2  0  0  0  0
  5 20  1  0  0  0  0
  6 22  1  0  0  0  0
  7 10  2  0  0  0  0
  7 21  1  0  0  0  0
  8 27  1  0  0  0  0
  9 27  2  0  0  0  0
 10 28  1  0  0  0  0
 11 12  2  0  0  0  0
 11 29  1  0  0  0  0
 12 30  1  0  0  0  0
 13 23  1  0  0  0  0
 13 28  2  0  0  0  0
 14 24  2  0  0  0  0
 14 25  1  0  0  0  0
 15 24  1  0  0  0  0
 15 26  2  0  0  0  0
 16 25  2  0  0  0  0
 16 26  1  0  0  0  0
 17 30  2  0  0  0  0
 17 31  1  0  0  0  0
 18 32  1  0  0  0  0
 19 32  1  0  0  0  0
 19 33  2  0  0  0  0
 19 36  1  0  0  0  0
 20 22  2  0  0  0  0
 20 41  1  0  0  0  0
 21 23  2  0  0  0  0
 21 42  1  0  0  0  0
 22 52  1  0  0  0  0
 23 43  1  0  0  0  0
 24 56  1  0  0  0  0
 25 68  1  0  0  0  0
 26 73  1  0  0  0  0
 27 84  1  0  0  0  0
 28 85  1  0  0  0  0
 29 31  2  0  0  0  0
 29 84  1  0  0  0  0
 30 86  1  0  0  0  0
 31 87  1  0  0  0  0
 32 66  2  0  0  0  0
 33 67  1  0  0  0  0
 33 71  1  0  0  0  0
 34 44  1  0  0  0  0
 34 68  1  0  0  0  0
 34 77  2  0  0  0  0
 35 45  1  0  0  0  0
 35 68  1  0  0  0  0
 35 78  2  0  0  0  0
 36 72  1  0  0  0  0
 36 79  2  0  0  0  0
 37 53  1  0  0  0  0
 37 74  1  0  0  0  0
 37 80  2  0  0  0  0
 38 63  1  0  0  0  0
 38 69  1  0  0  0  0
 38 81  2  0  0  0  0
 39 64  1  0  0  0  0
 39 75  1  0  0  0  0
 39 82  2  0  0  0  0
 40 70  1  0  0  0  0
 40 73  1  0  0  0  0
 40 83  2  0  0  0  0
 41 46  1  0  0  0  0
 42 53  1  0  0  0  0
 43 69  1  0  0  0  0
 44 54  1  0  0  0  0
 45 54  1  0  0  0  0
 46 48  1  0  0  0  0
 47 49  1  0  0  0  0
 47 50  1  0  0  0  0
 48 52  1  0  0  0  0
 49 55  1  0  0  0  0
 50 70  1  0  0  0  0
 51 55  1  0  0  0  0
 51 70  1  0  0  0  0
 52 74  1  0  0  0  0
 53 69  1  0  0  0  0
 54 62  1  0  0  0  0
 55 67  1  0  0  0  0
 57 64  1  0  0  0  0
 58 65  1  0  0  0  0
 59 65  1  0  0  0  0
 60 65  1  0  0  0  0
 61 76  1  0  0  0  0
 62 85  1  0  0  0  0
 63 65  1  0  0  0  0
 63 75  1  0  0  0  0
 64 76  1  0  0  0  0
 66 67  1  0  0  0  0
M  CHG  1  76   1
M  ISO  4  40 100  62 101  73 100  85 101
M  END
> <Batch ID>
0061

> <Smiles>
CNC(C)C(=O)NC(C(=O)N1Cc2cc([101O:1][101CH2:1]C3CC(=O)N(c4cc(C)cc([100NH:0][100C:0](=O)N5CCCC(n6nc(-c7ccc(Oc8ccc(F)cc8F)cc7)c(C(N)=O)c6N)C5)c4)C(=O)C3)ccc2CC1C(=O)NC1CCCc2ccccc21)C(C)(C)C

> <Shape>
0.242

> <Color>
0.090

> <Negative vol penalty>
0.000

$$$$

  -OEChem-04042323073D

 87 96  0     1  0  0  0  0  0999 V2000
  -27.1604  -37.8111   22.1435 C   0  0  0  0  0  0  0  0  0  0  0  0
  -27.7352  -36.6323   21.6791 C   0  0  0  0  0  0  0  0  0  0  0  0
  -25.8338  -11.3179   18.8249 C   0  0  0  0  0  0  0  0  0  0  0  0
  -26.2357  -11.1260   21.1995 C   0  0  0  0  0  0  0  0  0  0  0  0
  -26.1821  -37.7645   23.1358 C   0  0  0  0  0  0  0  0  0  0  0  0
  -27.3327  -35.4063   22.2077 C   0  0  0  0  0  0  0  0  0  0  0  0
  -26.8975  -30.0758   19.2242 C   0  0  0  0  0  0  0  0  0  0  0  0
  -28.2166  -20.6312   16.5929 C   0  0  0  0  0  0  0  0  0  0  0  0
  -28.3572  -19.5156   17.4182 C   0  0  0  0  0  0  0  0  0  0  0  0
  -24.5853  -10.7176   18.9877 C   0  0  0  0  0  0  0  0  0  0  0  0
  -24.9872  -10.5257   21.3623 C   0  0  0  0  0  0  0  0  0  0  0  0
  -27.7511  -28.9769   19.1377 C   0  0  0  0  0  0  0  0  0  0  0  0
  -21.5026  -11.6262   20.0387 C   0  0  0  0  0  0  0  0  0  0  0  0
  -20.4155  -12.2031   19.3824 C   0  0  0  0  0  0  0  0  0  0  0  0
  -26.5140  -27.8849   20.8973 C   0  0  0  0  0  0  0  0  0  0  0  0
  -29.6880  -20.8206   18.9555 C   0  0  0  0  0  0  0  0  0  0  0  0
  -20.0519  -10.1429   18.1738 C   0  0  0  0  0  0  0  0  0  0  0  0
  -26.6591  -11.5220   19.9308 C   0  0  0  0  0  0  0  0  0  0  0  0
  -29.0189  -11.6776   18.9744 C   0  0  0  0  0  0  0  0  0  0  0  0
  -25.7606  -36.5367   23.6699 C   0  0  0  0  0  0  0  0  0  0  0  0
  -25.8506  -30.0921   20.1571 C   0  0  0  0  0  0  0  0  0  0  0  0
  -26.3489  -35.3434   23.2091 C   0  0  0  0  0  0  0  0  0  0  0  0
  -25.6469  -28.9841   20.9920 C   0  0  0  0  0  0  0  0  0  0  0  0
  -28.8118  -21.8415   16.9488 C   0  0  0  0  0  0  0  0  0  0  0  0
  -29.5474  -21.9362   18.1301 C   0  0  0  0  0  0  0  0  0  0  0  0
  -29.0929  -19.6102   18.5995 C   0  0  0  0  0  0  0  0  0  0  0  0
  -24.1620  -10.3216   20.2564 C   0  0  0  0  0  0  0  0  0  0  0  0
  -27.5612  -27.8824   19.9763 C   0  0  0  0  0  0  0  0  0  0  0  0
  -21.8645  -10.3076   19.7626 C   0  0  0  0  0  0  0  0  0  0  0  0
  -19.6901  -11.4615   18.4499 C   0  0  0  0  0  0  0  0  0  0  0  0
  -21.1391   -9.5660   18.8301 C   0  0  0  0  0  0  0  0  0  0  0  0
  -27.9491  -12.1415   19.7632 C   0  0  0  0  0  0  0  0  0  0  0  0
  -30.0079  -12.6139   19.1524 C   0  0  0  0  0  0  0  0  0  0  0  0
  -32.1915  -24.3348   18.0473 C   0  0  0  0  0  0  0  0  0  0  0  0
  -29.4055  -24.3463   18.7298 C   0  0  0  0  0  0  0  0  0  0  0  0
  -29.1103  -10.5053   18.1541 C   0  0  0  0  0  0  0  0  0  0  0  0
  -25.0977  -31.9116   22.6523 C   0  0  0  0  0  0  0  0  0  0  0  0
  -22.3916  -30.1230   22.6454 C   0  0  0  0  0  0  0  0  0  0  0  0
  -20.8506  -27.2033   21.7807 C   0  0  0  0  0  0  0  0  0  0  0  0
  -29.9316  -18.3997   20.6434 C   0  0  0  0  0  0  0  0  0  0  0  0
  -24.7338  -36.5398   24.7747 C   0  0  0  0  0  0  0  0  0  0  0  0
  -24.9221  -31.2738   20.2195 C   0  0  0  0  0  0  0  0  0  0  0  0
  -24.5254  -28.9436   21.9965 C   0  0  0  0  0  0  0  0  0  0  0  0
  -31.4303  -25.6420   18.0126 C   0  0  0  0  0  0  0  0  0  0  0  0
  -31.5965  -23.1965   18.8473 C   0  0  0  0  0  0  0  0  0  0  0  0
  -24.0950  -35.1746   25.0164 C   0  0  0  0  0  0  0  0  0  0  0  0
  -31.6331  -15.7819   22.3550 C   0  0  0  0  0  0  0  0  0  0  0  0
  -25.1634  -34.0872   25.0698 C   0  0  0  0  0  0  0  0  0  0  0  0
  -30.9830  -14.5089   21.8083 C   0  0  0  0  0  0  0  0  0  0  0  0
  -30.6192  -16.9137   22.5127 C   0  0  0  0  0  0  0  0  0  0  0  0
  -29.1828  -15.9419   20.7629 C   0  0  0  0  0  0  0  0  0  0  0  0
  -25.9211  -33.9924   23.7400 C   0  0  1  0  0  0  0  0  0  0  0  0
  -30.2645  -25.5881   19.0028 C   0  0  1  0  0  0  0  0  0  0  0  0
  -24.2033  -31.3987   21.5593 C   0  0  1  0  0  0  0  0  0  0  0  0
  -30.1773  -14.7937   20.5256 C   0  0  2  0  0  0  0  0  0  0  0  0
  -28.6445  -23.0201   16.0456 C   0  0  0  0  0  0  0  0  0  0  0  0
  -18.6453  -26.0168   21.9424 C   0  0  0  0  0  0  0  0  0  0  0  0
  -22.9431  -29.5032   25.5817 C   0  0  0  0  0  0  0  0  0  0  0  0
  -21.3058  -27.6161   25.4188 C   0  0  0  0  0  0  0  0  0  0  0  0
  -20.5439  -29.9619   25.0452 C   0  0  0  0  0  0  0  0  0  0  0  0
  -20.5718  -27.0757   18.8370 C   0  0  0  0  0  0  0  0  0  0  0  0
  -29.4402  -26.8708   18.9265 C   0  0  0  0  0  0  0  0  0  1  0  0
  -21.9656  -28.8260   23.2900 C   0  0  1  0  0  0  0  0  0  0  0  0
  -19.5224  -26.9289   21.0989 C   0  0  2  0  0  0  0  0  0  0  0  0
  -21.7120  -28.9781   24.8164 C   0  0  0  0  0  0  0  0  0  0  0  0
  -28.2320  -13.2836   20.3954 N   0  0  0  0  0  0  0  0  0  0  0  0
  -29.4908  -13.5452   20.0041 N   0  0  0  0  0  0  0  0  0  0  0  0
  -30.1689  -23.1755   18.5145 N   0  0  0  0  0  0  0  0  0  0  0  0
  -23.6483  -30.1258   22.0238 N   0  0  0  0  0  0  0  0  0  0  0  0
  -29.8970  -17.1296   21.2571 N   0  0  0  0  0  0  0  0  0  0  0  0
  -31.2609  -12.7231   18.6619 N   0  0  0  0  0  0  0  0  0  0  0  0
  -29.5846   -9.3202   18.7328 N   0  0  0  0  0  0  0  0  0  0  0  0
  -29.2355  -18.4766   19.4376 N   0  0  0  0  0  0  0  0  0  0  0  0
  -25.1273  -33.2892   22.7551 N   0  0  0  0  0  0  0  0  0  0  0  0
  -20.8084  -28.3562   22.5359 N   0  0  0  0  0  0  0  0  0  0  0  0
  -19.7435  -26.2773   19.7769 N   0  3  0  0  0  0  0  0  0  0  0  0
  -28.1766  -24.4098   18.7533 O   0  0  0  0  0  0  0  0  0  0  0  0
  -28.7967  -10.5127   16.9395 O   0  0  0  0  0  0  0  0  0  0  0  0
  -25.7141  -31.1162   23.3517 O   0  0  0  0  0  0  0  0  0  0  0  0
  -21.6340  -31.0957   22.6857 O   0  0  0  0  0  0  0  0  0  0  0  0
  -21.8267  -26.4665   21.6587 O   0  0  0  0  0  0  0  0  0  0  0  0
  -30.5570  -19.3418   21.1366 O   0  0  0  0  0  0  0  0  0  0  0  0
  -22.9436   -9.7360   20.4156 O   0  0  0  0  0  0  0  0  0  0  0  0
  -28.3934  -26.8088   19.8943 O   0  0  0  0  0  0  0  0  0  1  0  0
  -18.6452  -12.0151   17.8208 F   0  0  0  0  0  0  0  0  0  0  0  0
  -21.4813   -8.2985   18.5615 F   0  0  0  0  0  0  0  0  0  0  0  0
  -33.6534  -24.1721   17.2407 S   0  0  0  0  0  0  0  0  0  0  0  0
  1  2  1  0  0  0  0
  1  5  2  0  0  0  0
  2  6  2  0  0  0  0
  3 10  2  0  0  0  0
  3 18  1  0  0  0  0
  4 11  1  0  0  0  0
  4 18  2  0  0  0  0
  5 20  1  0  0  0  0
  6 22  1  0  0  0  0
  7 12  2  0  0  0  0
  7 21  1  0  0  0  0
  8  9  2  0  0  0  0
  8 24  1  0  0  0  0
  9 26  1  0  0  0  0
 10 27  1  0  0  0  0
 11 27  2  0  0  0  0
 12 28  1  0  0  0  0
 13 14  2  0  0  0  0
 13 29  1  0  0  0  0
 14 30  1  0  0  0  0
 15 23  1  0  0  0  0
 15 28  2  0  0  0  0
 16 25  1  0  0  0  0
 16 26  2  0  0  0  0
 17 30  2  0  0  0  0
 17 31  1  0  0  0  0
 18 32  1  0  0  0  0
 19 32  1  0  0  0  0
 19 33  2  0  0  0  0
 19 36  1  0  0  0  0
 20 22  2  0  0  0  0
 20 41  1  0  0  0  0
 21 23  2  0  0  0  0
 21 42  1  0  0  0  0
 22 52  1  0  0  0  0
 23 43  1  0  0  0  0
 24 25  2  0  0  0  0
 24 56  1  0  0  0  0
 25 68  1  0  0  0  0
 26 73  1  0  0  0  0
 27 83  1  0  0  0  0
 28 84  1  0  0  0  0
 29 31  2  0  0  0  0
 29 83  1  0  0  0  0
 30 85  1  0  0  0  0
 31 86  1  0  0  0  0
 32 66  2  0  0  0  0
 33 67  1  0  0  0  0
 33 71  1  0  0  0  0
 34 44  1  0  0  0  0
 34 45  1  0  0  0  0
 34 87  2  0  0  0  0
 35 53  1  0  0  0  0
 35 68  1  0  0  0  0
 35 77  2  0  0  0  0
 36 72  1  0  0  0  0
 36 78  2  0  0  0  0
 37 54  1  0  0  0  0
 37 74  1  0  0  0  0
 37 79  2  0  0  0  0
 38 63  1  0  0  0  0
 38 69  1  0  0  0  0
 38 80  2  0  0  0  0
 39 64  1  0  0  0  0
 39 75  1  0  0  0  0
 39 81  2  0  0  0  0
 40 70  1  0  0  0  0
 40 73  1  0  0  0  0
 40 82  2  0  0  0  0
 41 46  1  0  0  0  0
 42 54  1  0  0  0  0
 43 69  1  0  0  0  0
 44 53  1  0  0  0  0
 45 68  1  0  0  0  0
 46 48  1  0  0  0  0
 47 49  1  0  0  0  0
 47 50  1  0  0  0  0
 48 52  1  0  0  0  0
 49 55  1  0  0  0  0
 50 70  1  0  0  0  0
 51 55  1  0  0  0  0
 51 70  1  0  0  0  0
 52 74  1  0  0  0  0
 53 62  1  0  0  0  0
 54 69  1  0  0  0  0
 55 67  1  0  0  0  0
 57 64  1  0  0  0  0
 58 65  1  0  0  0  0
 59 65  1  0  0  0  0
 60 65  1  0  0  0  0
 61 76  1  0  0  0  0
 62 84  1  0  0  0  0
 63 65  1  0  0  0  0
 63 75  1  0  0  0  0
 64 76  1  0  0  0  0
 66 67  1  0  0  0  0
M  CHG  1  76   1
M  ISO  4  40 100  62 101  73 100  84 101
M  END
> <Batch ID>
0061

> <Smiles>
CNC(C)C(=O)NC(C(=O)N1Cc2cc([101O:1][101CH2:1]C3CC(=S)CN(c4cc([100NH:0][100C:0](=O)N5CCCC(n6nc(-c7ccc(Oc8ccc(F)cc8F)cc7)c(C(N)=O)c6N)C5)ccc4C)C3=O)ccc2CC1C(=O)NC1CCCc2ccccc21)C(C)(C)C

> <Shape>
0.365

> <Color>
0.071

> <Negative vol penalty>
0.000

$$$$

  -OEChem-04042323073D

 86 94  0     1  0  0  0  0  0999 V2000
  -38.1934  -17.1911   20.9120 C   0  0  0  0  0  0  0  0  0  0  0  0
  -36.9847  -17.8589   21.0803 C   0  0  0  0  0  0  0  0  0  0  0  0
  -32.6684  -17.4681   23.3115 C   0  0  0  0  0  0  0  0  0  0  0  0
  -23.0563   -9.8131   19.9820 C   0  0  0  0  0  0  0  0  0  0  0  0
  -23.8023   -9.8826   22.2789 C   0  0  0  0  0  0  0  0  0  0  0  0
  -39.1321  -17.6703   19.9992 C   0  0  0  0  0  0  0  0  0  0  0  0
  -36.7143  -19.0071   20.3366 C   0  0  0  0  0  0  0  0  0  0  0  0
  -32.0258  -19.0227   18.4229 C   0  0  0  0  0  0  0  0  0  0  0  0
  -32.0606  -16.5686   22.4356 C   0  0  0  0  0  0  0  0  0  0  0  0
  -22.3056   -8.6709   20.2603 C   0  0  0  0  0  0  0  0  0  0  0  0
  -23.0515   -8.7404   22.5573 C   0  0  0  0  0  0  0  0  0  0  0  0
  -30.9848  -19.3487   19.2911 C   0  0  0  0  0  0  0  0  0  0  0  0
  -19.3449   -7.9296   21.7156 C   0  0  0  0  0  0  0  0  0  0  0  0
  -18.0408   -7.8753   21.2238 C   0  0  0  0  0  0  0  0  0  0  0  0
  -31.8895  -18.3691   24.0375 C   0  0  0  0  0  0  0  0  0  0  0  0
  -30.9561  -21.5921   18.4048 C   0  0  0  0  0  0  0  0  0  0  0  0
  -18.5995   -5.8925   19.9614 C   0  0  0  0  0  0  0  0  0  0  0  0
  -23.8047  -10.4189   20.9913 C   0  0  0  0  0  0  0  0  0  0  0  0
  -24.1590  -12.9380   20.8009 C   0  0  0  0  0  0  0  0  0  0  0  0
  -38.8690  -18.8194   19.2369 C   0  0  0  0  0  0  0  0  0  0  0  0
  -32.5480  -19.9837   17.5452 C   0  0  0  0  0  0  0  0  0  0  0  0
  -37.6508  -19.5029   19.4137 C   0  0  0  0  0  0  0  0  0  0  0  0
  -32.0020  -21.2751   17.5246 C   0  0  0  0  0  0  0  0  0  0  0  0
  -29.8948  -17.4713   23.0116 C   0  0  0  0  0  0  0  0  0  0  0  0
  -30.6738  -16.5703   22.2857 C   0  0  0  0  0  0  0  0  0  0  0  0
  -22.3031   -8.1346   21.5480 C   0  0  0  0  0  0  0  0  0  0  0  0
  -30.4517  -20.6343   19.2842 C   0  0  0  0  0  0  0  0  0  0  0  0
  -20.2764   -6.9654   21.3303 C   0  0  0  0  0  0  0  0  0  0  0  0
  -17.6680   -6.8567   20.3467 C   0  0  0  0  0  0  0  0  0  0  0  0
  -19.9036   -5.9469   20.4532 C   0  0  0  0  0  0  0  0  0  0  0  0
  -30.5027  -18.3708   23.8875 C   0  0  0  0  0  0  0  0  0  0  0  0
  -24.5809  -11.5984   20.7042 C   0  0  0  0  0  0  0  0  0  0  0  0
  -25.2568  -13.6718   20.4230 C   0  0  0  0  0  0  0  0  0  0  0  0
  -22.8884  -13.4713   21.1969 C   0  0  0  0  0  0  0  0  0  0  0  0
  -35.3904  -21.3501   17.1485 C   0  0  0  0  0  0  0  0  0  0  0  0
  -33.9627  -22.6618   14.5479 C   0  0  0  0  0  0  0  0  0  0  0  0
  -29.5851  -21.5946   22.9533 C   0  0  0  0  0  0  0  0  0  0  0  0
  -31.0731  -23.6042   12.9958 C   0  0  0  0  0  0  0  0  0  0  0  0
  -30.7266  -14.6975   20.6015 C   0  0  0  0  0  0  0  0  0  0  0  0
  -39.9339  -19.3264   18.2969 C   0  0  0  0  0  0  0  0  0  0  0  0
  -33.6530  -19.6087   16.5962 C   0  0  0  0  0  0  0  0  0  0  0  0
  -32.5134  -22.3374   16.5875 C   0  0  0  0  0  0  0  0  0  0  0  0
  -39.4150  -20.3361   17.2764 C   0  0  0  0  0  0  0  0  0  0  0  0
  -29.6154  -12.2217   18.2967 C   0  0  0  0  0  0  0  0  0  0  0  0
  -38.5407  -21.3835   17.9587 C   0  0  0  0  0  0  0  0  0  0  0  0
  -28.1718  -11.9490   18.7255 C   0  0  0  0  0  0  0  0  0  0  0  0
  -30.5243  -12.4808   19.4969 C   0  0  0  0  0  0  0  0  0  0  0  0
  -28.6124  -13.2532   20.8449 C   0  0  0  0  0  0  0  0  0  0  0  0
  -37.3106  -20.7375   18.6074 C   0  0  1  0  0  0  0  0  0  0  0  0
  -34.4528  -20.8114   16.1052 C   0  0  1  0  0  0  0  0  0  0  0  0
  -27.6459  -13.0505   19.6666 C   0  0  2  0  0  0  0  0  0  0  0  0
  -28.4070  -17.4706   22.8466 C   0  0  0  0  0  0  0  0  0  0  0  0
  -30.2274  -24.6835   10.8941 C   0  0  0  0  0  0  0  0  0  0  0  0
  -34.8331  -25.3899   15.6015 C   0  0  0  0  0  0  0  0  0  0  0  0
  -33.1908  -26.4424   14.0320 C   0  0  0  0  0  0  0  0  0  0  0  0
  -35.0877  -25.0960   13.1310 C   0  0  0  0  0  0  0  0  0  0  0  0
  -29.5349  -21.1921   12.2380 C   0  0  0  0  0  0  0  0  0  0  0  0
  -28.7381  -22.3553   21.9578 C   0  0  0  0  0  0  0  0  0  0  0  0
  -29.3621  -22.3103   20.5725 C   0  0  0  0  0  0  0  0  0  1  0  0
  -33.1698  -23.9191   14.2838 C   0  0  1  0  0  0  0  0  0  0  0  0
  -30.5656  -23.3713   11.5842 C   0  0  2  0  0  0  0  0  0  0  0  0
  -34.0618  -25.1926   14.2812 C   0  0  0  0  0  0  0  0  0  0  0  0
  -25.8478  -11.4849   20.2967 N   0  0  0  0  0  0  0  0  0  0  0  0
  -26.2314  -12.7626   20.1339 N   0  0  0  0  0  0  0  0  0  0  0  0
  -33.5991  -21.9238   15.6832 N   0  0  0  0  0  0  0  0  0  0  0  0
  -29.9648  -13.5389   20.3408 N   0  0  0  0  0  0  0  0  0  0  0  0
  -25.4738  -14.9997   20.3131 N   0  0  0  0  0  0  0  0  0  0  0  0
  -21.8702  -12.5768   21.5539 N   0  0  0  0  0  0  0  0  0  0  0  0
  -30.0786  -15.6486   21.3890 N   0  0  0  0  0  0  0  0  0  0  0  0
  -36.3138  -20.4288   17.6047 N   0  0  0  0  0  0  0  0  0  0  0  0
  -32.4485  -23.6922   13.0361 N   0  0  0  0  0  0  0  0  0  0  0  0
  -28.9028  -20.5019   23.5790 N   0  0  0  0  0  0  0  0  0  0  0  0
  -29.3404  -22.5231   11.6076 N   0  3  0  0  0  0  0  0  0  0  0  0
  -22.6575  -14.7041   21.2174 O   0  0  0  0  0  0  0  0  0  0  0  0
  -35.2848  -22.5157   17.5117 O   0  0  0  0  0  0  0  0  0  0  0  0
  -34.8664  -22.3425   13.7714 O   0  0  0  0  0  0  0  0  0  0  0  0
  -30.7422  -21.9124   23.2071 O   0  0  0  0  0  0  0  0  0  0  0  0
  -30.3240  -23.7023   13.9652 O   0  0  0  0  0  0  0  0  0  0  0  0
  -31.8593  -14.8477   20.1362 O   0  0  0  0  0  0  0  0  0  0  0  0
  -30.4920  -20.3082   25.6052 O   0  0  0  0  0  0  0  0  0  0  0  0
  -28.4747  -18.8048   25.4765 O   0  0  0  0  0  0  0  0  0  0  0  0
  -21.5705   -7.0203   21.8200 O   0  0  0  0  0  0  0  0  0  0  0  0
  -29.4360  -20.9553   20.1310 O   0  0  0  0  0  0  0  0  0  1  0  0
  -16.4152   -6.8038   19.8757 F   0  0  0  0  0  0  0  0  0  0  0  0
  -20.7937   -5.0171   20.0803 F   0  0  0  0  0  0  0  0  0  0  0  0
  -29.5509  -19.5271   24.8261 S   0  0  0  0  0  0  0  0  0  0  0  0
  1  2  1  0  0  0  0
  1  6  2  0  0  0  0
  2  7  2  0  0  0  0
  3  9  1  0  0  0  0
  3 15  2  0  0  0  0
  4 10  2  0  0  0  0
  4 18  1  0  0  0  0
  5 11  1  0  0  0  0
  5 18  2  0  0  0  0
  6 20  1  0  0  0  0
  7 22  1  0  0  0  0
  8 12  2  0  0  0  0
  8 21  1  0  0  0  0
  9 25  2  0  0  0  0
 10 26  1  0  0  0  0
 11 26  2  0  0  0  0
 12 27  1  0  0  0  0
 13 14  2  0  0  0  0
 13 28  1  0  0  0  0
 14 29  1  0  0  0  0
 15 31  1  0  0  0  0
 16 23  1  0  0  0  0
 16 27  2  0  0  0  0
 17 29  2  0  0  0  0
 17 30  1  0  0  0  0
 18 32  1  0  0  0  0
 19 32  1  0  0  0  0
 19 33  2  0  0  0  0
 19 34  1  0  0  0  0
 20 22  2  0  0  0  0
 20 40  1  0  0  0  0
 21 23  2  0  0  0  0
 21 41  1  0  0  0  0
 22 49  1  0  0  0  0
 23 42  1  0  0  0  0
 24 25  1  0  0  0  0
 24 31  2  0  0  0  0
 24 52  1  0  0  0  0
 25 69  1  0  0  0  0
 26 82  1  0  0  0  0
 27 83  1  0  0  0  0
 28 30  2  0  0  0  0
 28 82  1  0  0  0  0
 29 84  1  0  0  0  0
 30 85  1  0  0  0  0
 31 86  1  0  0  0  0
 32 63  2  0  0  0  0
 33 64  1  0  0  0  0
 33 67  1  0  0  0  0
 34 68  1  0  0  0  0
 34 74  2  0  0  0  0
 35 50  1  0  0  0  0
 35 70  1  0  0  0  0
 35 75  2  0  0  0  0
 36 60  1  0  0  0  0
 36 65  1  0  0  0  0
 36 76  2  0  0  0  0
 37 58  1  0  0  0  0
 37 72  1  0  0  0  0
 37 77  2  0  0  0  0
 38 61  1  0  0  0  0
 38 71  1  0  0  0  0
 38 78  2  0  0  0  0
 39 66  1  0  0  0  0
 39 69  1  0  0  0  0
 39 79  2  0  0  0  0
 40 43  1  0  0  0  0
 41 50  1  0  0  0  0
 42 65  1  0  0  0  0
 43 45  1  0  0  0  0
 44 46  1  0  0  0  0
 44 47  1  0  0  0  0
 45 49  1  0  0  0  0
 46 51  1  0  0  0  0
 47 66  1  0  0  0  0
 48 51  1  0  0  0  0
 48 66  1  0  0  0  0
 49 70  1  0  0  0  0
 50 65  1  0  0  0  0
 51 64  1  0  0  0  0
 53 61  1  0  0  0  0
 54 62  1  0  0  0  0
 55 62  1  0  0  0  0
 56 62  1  0  0  0  0
 57 73  1  0  0  0  0
 58 59  1  0  0  0  0
 59 83  1  0  0  0  0
 60 62  1  0  0  0  0
 60 71  1  0  0  0  0
 61 73  1  0  0  0  0
 63 64  1  0  0  0  0
 72 86  1  0  0  0  0
 80 86  2  0  0  0  0
 81 86  2  0  0  0  0
M  CHG  1  73   1
M  ISO  4  39 100  59 101  69 100  83 101
M  END
> <Batch ID>
0061

> <Smiles>
CNC(C)C(=O)NC(C(=O)N1Cc2cc([101O:1][101CH2:1]CC(=O)NS(=O)(=O)c3cccc([100NH:0][100C:0](=O)N4CCCC(n5nc(-c6ccc(Oc7ccc(F)cc7F)cc6)c(C(N)=O)c5N)C4)c3C)ccc2CC1C(=O)NC1CCCc2ccccc21)C(C)(C)C

> <Shape>
0.175

> <Color>
0.200

> <Negative vol penalty>
0.000

$$$$

  -OEChem-04042323073D

 84 92  0     1  0  0  0  0  0999 V2000
  -19.6348  -32.5465   15.6943 C   0  0  0  0  0  0  0  0  0  0  0  0
  -20.5839  -31.5341   15.7928 C   0  0  0  0  0  0  0  0  0  0  0  0
  -23.3462   -9.3876   20.5156 C   0  0  0  0  0  0  0  0  0  0  0  0
  -23.2006  -11.0252   22.2859 C   0  0  0  0  0  0  0  0  0  0  0  0
  -19.8250  -33.7475   16.3764 C   0  0  0  0  0  0  0  0  0  0  0  0
  -21.7244  -31.7226   16.5727 C   0  0  0  0  0  0  0  0  0  0  0  0
  -24.6778  -27.4835   19.8610 C   0  0  0  0  0  0  0  0  0  0  0  0
  -28.8656  -18.4906   19.6403 C   0  0  0  0  0  0  0  0  0  0  0  0
  -22.5033   -8.5381   21.2321 C   0  0  0  0  0  0  0  0  0  0  0  0
  -22.3577  -10.1757   23.0024 C   0  0  0  0  0  0  0  0  0  0  0  0
  -25.8186  -26.7243   19.6045 C   0  0  0  0  0  0  0  0  0  0  0  0
  -20.6775   -5.7886   22.7586 C   0  0  0  0  0  0  0  0  0  0  0  0
  -21.0300   -4.4415   22.8416 C   0  0  0  0  0  0  0  0  0  0  0  0
  -29.1204  -19.8484   19.8328 C   0  0  0  0  0  0  0  0  0  0  0  0
  -27.1518  -28.3299   20.8144 C   0  0  0  0  0  0  0  0  0  0  0  0
  -31.0652  -17.9580   20.4862 C   0  0  0  0  0  0  0  0  0  0  0  0
  -23.1034   -5.0507   23.9221 C   0  0  0  0  0  0  0  0  0  0  0  0
  -23.6949  -10.6312   21.0425 C   0  0  0  0  0  0  0  0  0  0  0  0
  -24.1888  -12.4891   19.3656 C   0  0  0  0  0  0  0  0  0  0  0  0
  -20.9637  -33.9472   17.1727 C   0  0  0  0  0  0  0  0  0  0  0  0
  -24.7672  -28.6793   20.5880 C   0  0  0  0  0  0  0  0  0  0  0  0
  -21.9307  -32.9280   17.2650 C   0  0  0  0  0  0  0  0  0  0  0  0
  -26.0102  -29.1012   21.0809 C   0  0  0  0  0  0  0  0  0  0  0  0
  -31.3199  -19.3158   20.6786 C   0  0  0  0  0  0  0  0  0  0  0  0
  -29.8380  -17.5453   19.9671 C   0  0  0  0  0  0  0  0  0  0  0  0
  -22.0090   -8.9321   22.4755 C   0  0  0  0  0  0  0  0  0  0  0  0
  -27.0563  -27.1489   20.0787 C   0  0  0  0  0  0  0  0  0  0  0  0
  -21.5380   -6.7667   23.2573 C   0  0  0  0  0  0  0  0  0  0  0  0
  -22.2429   -4.0726   23.4234 C   0  0  0  0  0  0  0  0  0  0  0  0
  -22.7509   -6.3977   23.8390 C   0  0  0  0  0  0  0  0  0  0  0  0
  -30.3475  -20.2610   20.3519 C   0  0  0  0  0  0  0  0  0  0  0  0
  -24.5660  -11.5090   20.3031 C   0  0  0  0  0  0  0  0  0  0  0  0
  -25.3754  -13.0432   18.9518 C   0  0  0  0  0  0  0  0  0  0  0  0
  -22.8825  -12.8652   18.9098 C   0  0  0  0  0  0  0  0  0  0  0  0
  -24.1553  -31.7353   19.9634 C   0  0  0  0  0  0  0  0  0  0  0  0
  -24.8108  -32.1076   23.1184 C   0  0  0  0  0  0  0  0  0  0  0  0
  -26.3780  -30.9273   25.9108 C   0  0  0  0  0  0  0  0  0  0  0  0
  -30.4338  -15.0988   20.0428 C   0  0  0  0  0  0  0  0  0  0  0  0
  -21.1488  -35.2802   17.8535 C   0  0  0  0  0  0  0  0  0  0  0  0
  -23.5231  -29.4730   20.8791 C   0  0  0  0  0  0  0  0  0  0  0  0
  -26.1568  -30.3670   21.8839 C   0  0  0  0  0  0  0  0  0  0  0  0
  -22.2016  -35.2588   18.9586 C   0  0  0  0  0  0  0  0  0  0  0  0
  -30.1522  -11.5628   19.7347 C   0  0  0  0  0  0  0  0  0  0  0  0
  -23.4630  -34.5467   18.4805 C   0  0  0  0  0  0  0  0  0  0  0  0
  -28.6427  -11.3142   19.7780 C   0  0  0  0  0  0  0  0  0  0  0  0
  -30.5671  -12.6978   20.6693 C   0  0  0  0  0  0  0  0  0  0  0  0
  -28.3247  -13.7077   20.5245 C   0  0  0  0  0  0  0  0  0  0  0  0
  -23.1688  -33.0853   18.1208 C   0  0  1  0  0  0  0  0  0  0  0  0
  -23.8088  -30.9391   21.1896 C   0  0  1  0  0  0  0  0  0  0  0  0
  -27.8504  -12.6166   19.5507 C   0  0  2  0  0  0  0  0  0  0  0  0
  -32.6442  -19.7249   21.2358 C   0  0  0  0  0  0  0  0  0  0  0  0
  -26.7624  -31.4678   28.3310 C   0  0  0  0  0  0  0  0  0  0  0  0
  -26.8383  -34.2423   22.3171 C   0  0  0  0  0  0  0  0  0  0  0  0
  -27.8343  -34.0565   24.6066 C   0  0  0  0  0  0  0  0  0  0  0  0
  -25.4710  -34.8068   24.3336 C   0  0  0  0  0  0  0  0  0  0  0  0
  -25.0551  -28.4329   26.7978 C   0  0  0  0  0  0  0  0  0  0  0  0
  -29.2786  -24.3054   20.1431 C   0  0  0  0  0  0  0  0  0  0  0  0
  -28.0002  -24.9994   19.6982 C   0  0  0  0  0  0  0  0  0  1  0  0
  -29.1595  -22.7947   20.0436 C   0  0  0  0  0  0  0  0  0  0  0  0
  -26.0562  -32.3811   23.9265 C   0  0  1  0  0  0  0  0  0  0  0  0
  -25.8864  -30.7267   27.3330 C   0  0  2  0  0  0  0  0  0  0  0  0
  -26.5478  -33.8488   23.7792 C   0  0  0  0  0  0  0  0  0  0  0  0
  -25.8889  -11.4417   20.4747 N   0  0  0  0  0  0  0  0  0  0  0  0
  -31.7585  -22.3582   19.5808 N   0  0  0  0  0  0  0  0  0  0  0  0
  -26.3533  -12.3866   19.6394 N   0  0  0  0  0  0  0  0  0  0  0  0
  -24.9122  -31.1117   22.1367 N   0  0  0  0  0  0  0  0  0  0  0  0
  -29.7775  -13.8999   20.3931 N   0  0  0  0  0  0  0  0  0  0  0  0
  -25.6674  -14.0231   18.0704 N   0  0  0  0  0  0  0  0  0  0  0  0
  -21.7714  -12.1939   19.4384 N   0  0  0  0  0  0  0  0  0  0  0  0
  -29.5786  -16.1662   19.7711 N   0  0  0  0  0  0  0  0  0  0  0  0
  -23.0615  -32.2816   19.3195 N   0  0  0  0  0  0  0  0  0  0  0  0
  -25.7475  -31.9891   25.2975 N   0  0  0  0  0  0  0  0  0  0  0  0
  -25.8952  -29.2785   27.6846 N   0  3  0  0  0  0  0  0  0  0  0  0
  -22.7067  -13.7584   18.0468 O   0  0  0  0  0  0  0  0  0  0  0  0
  -25.3284  -31.8470   19.6271 O   0  0  0  0  0  0  0  0  0  0  0  0
  -23.7838  -32.7487   23.3544 O   0  0  0  0  0  0  0  0  0  0  0  0
  -27.2382  -30.2157   25.3967 O   0  0  0  0  0  0  0  0  0  0  0  0
  -31.6630  -15.1658   19.9614 O   0  0  0  0  0  0  0  0  0  0  0  0
  -30.6965  -22.2141   22.0212 O   0  0  0  0  0  0  0  0  0  0  0  0
  -21.1863   -8.1035   23.1748 O   0  0  0  0  0  0  0  0  0  0  0  0
  -28.1716  -26.4101   19.8292 O   0  0  0  0  0  0  0  0  0  1  0  0
  -22.5805   -2.7789   23.5044 F   0  0  0  0  0  0  0  0  0  0  0  0
  -23.5811   -7.3328   24.3209 F   0  0  0  0  0  0  0  0  0  0  0  0
  -30.6377  -21.9963   20.5831 S   0  0  2  0  0  0  0  0  0  0  0  0
  1  2  1  0  0  0  0
  1  5  2  0  0  0  0
  2  6  2  0  0  0  0
  3  9  2  0  0  0  0
  3 18  1  0  0  0  0
  4 10  1  0  0  0  0
  4 18  2  0  0  0  0
  5 20  1  0  0  0  0
  6 22  1  0  0  0  0
  7 11  2  0  0  0  0
  7 21  1  0  0  0  0
  8 14  2  0  0  0  0
  8 25  1  0  0  0  0
  9 26  1  0  0  0  0
 10 26  2  0  0  0  0
 11 27  1  0  0  0  0
 12 13  2  0  0  0  0
 12 28  1  0  0  0  0
 13 29  1  0  0  0  0
 14 31  1  0  0  0  0
 15 23  1  0  0  0  0
 15 27  2  0  0  0  0
 16 24  1  0  0  0  0
 16 25  2  0  0  0  0
 17 29  2  0  0  0  0
 17 30  1  0  0  0  0
 18 32  1  0  0  0  0
 19 32  1  0  0  0  0
 19 33  2  0  0  0  0
 19 34  1  0  0  0  0
 20 22  2  0  0  0  0
 20 39  1  0  0  0  0
 21 23  2  0  0  0  0
 21 40  1  0  0  0  0
 22 48  1  0  0  0  0
 23 41  1  0  0  0  0
 24 31  2  0  0  0  0
 24 51  1  0  0  0  0
 25 70  1  0  0  0  0
 26 80  1  0  0  0  0
 27 81  1  0  0  0  0
 28 30  2  0  0  0  0
 28 80  1  0  0  0  0
 29 82  1  0  0  0  0
 30 83  1  0  0  0  0
 31 84  1  0  0  0  0
 32 63  2  0  0  0  0
 33 65  1  0  0  0  0
 33 68  1  0  0  0  0
 34 69  1  0  0  0  0
 34 74  2  0  0  0  0
 35 49  1  0  0  0  0
 35 71  1  0  0  0  0
 35 75  2  0  0  0  0
 36 60  1  0  0  0  0
 36 66  1  0  0  0  0
 36 76  2  0  0  0  0
 37 61  1  0  0  0  0
 37 72  1  0  0  0  0
 37 77  2  0  0  0  0
 38 67  1  0  0  0  0
 38 70  1  0  0  0  0
 38 78  2  0  0  0  0
 39 42  1  0  0  0  0
 40 49  1  0  0  0  0
 41 66  1  0  0  0  0
 42 44  1  0  0  0  0
 43 45  1  0  0  0  0
 43 46  1  0  0  0  0
 44 48  1  0  0  0  0
 45 50  1  0  0  0  0
 46 67  1  0  0  0  0
 47 50  1  0  0  0  0
 47 67  1  0  0  0  0
 48 71  1  0  0  0  0
 49 66  1  0  0  0  0
 50 65  1  0  0  0  0
 52 61  1  0  0  0  0
 53 62  1  0  0  0  0
 54 62  1  0  0  0  0
 55 62  1  0  0  0  0
 56 73  1  0  0  0  0
 57 58  1  0  0  0  0
 57 59  1  0  0  0  0
 58 81  1  0  0  0  0
 59 84  1  0  0  0  0
 60 62  1  0  0  0  0
 60 72  1  0  0  0  0
 61 73  1  0  0  0  0
 63 65  1  0  0  0  0
 64 84  2  0  0  0  0
 79 84  2  0  0  0  0
M  CHG  1  73   1
M  ISO  4  38 100  58 101  70 100  81 101
M  END
> <Batch ID>
0061

> <Smiles>
CNC(C)C(=O)NC(C(=O)N1Cc2cc([101O:1][101CH2:1]CCS(=N)(=O)c3ccc([100NH:0][100C:0](=O)N4CCCC(n5nc(-c6ccc(Oc7ccc(F)cc7F)cc6)c(C(N)=O)c5N)C4)cc3C)ccc2CC1C(=O)NC1CCCc2ccccc21)C(C)(C)C

> <Shape>
0.326

> <Color>
0.150

> <Negative vol penalty>
0.000

$$$$
