
  -OEChem-04042323093D

 87 95  0     1  0  0  0  0  0999 V2000
  -27.3868  -36.1126   22.3270 C   0  0  0  0  0  0  0  0  0  0  0  0
  -27.7563  -34.7761   22.2137 C   0  0  0  0  0  0  0  0  0  0  0  0
  -25.6188  -24.8978   17.0235 C   0  0  0  0  0  0  0  0  0  0  0  0
  -24.9639  -13.3499   21.4281 C   0  0  0  0  0  0  0  0  0  0  0  0
  -25.8677  -13.1245   19.1989 C   0  0  0  0  0  0  0  0  0  0  0  0
  -26.1667  -36.4502   22.9111 C   0  0  0  0  0  0  0  0  0  0  0  0
  -26.9063  -33.7765   22.6855 C   0  0  0  0  0  0  0  0  0  0  0  0
  -26.4519  -29.9190   19.4363 C   0  0  0  0  0  0  0  0  0  0  0  0
  -27.0087  -24.9523   16.9188 C   0  0  0  0  0  0  0  0  0  0  0  0
  -24.9605  -23.6711   16.9373 C   0  0  0  0  0  0  0  0  0  0  0  0
  -24.9036  -11.9612   21.5442 C   0  0  0  0  0  0  0  0  0  0  0  0
  -25.8075  -11.7357   19.3150 C   0  0  0  0  0  0  0  0  0  0  0  0
  -27.4978  -28.9981   19.3909 C   0  0  0  0  0  0  0  0  0  0  0  0
  -24.1757   -8.4772   22.2897 C   0  0  0  0  0  0  0  0  0  0  0  0
  -23.0132   -7.9192   22.8214 C   0  0  0  0  0  0  0  0  0  0  0  0
  -26.2249  -27.4931   20.7815 C   0  0  0  0  0  0  0  0  0  0  0  0
  -21.7230   -8.8990   21.0290 C   0  0  0  0  0  0  0  0  0  0  0  0
  -25.4459  -13.9315   20.2555 C   0  0  0  0  0  0  0  0  0  0  0  0
  -26.5838  -16.2030   20.4862 C   0  0  0  0  0  0  0  0  0  0  0  0
  -25.2970  -35.4538   23.3816 C   0  0  0  0  0  0  0  0  0  0  0  0
  -25.2872  -29.6379   20.1648 C   0  0  0  0  0  0  0  0  0  0  0  0
  -25.6739  -34.1012   23.2777 C   0  0  0  0  0  0  0  0  0  0  0  0
  -25.1647  -28.4109   20.8324 C   0  0  0  0  0  0  0  0  0  0  0  0
  -27.7402  -23.7801   16.7276 C   0  0  0  0  0  0  0  0  0  0  0  0
  -27.0818  -22.5534   16.6413 C   0  0  0  0  0  0  0  0  0  0  0  0
  -25.6920  -22.4989   16.7461 C   0  0  0  0  0  0  0  0  0  0  0  0
  -25.3255  -11.1541   20.4876 C   0  0  0  0  0  0  0  0  0  0  0  0
  -27.3856  -27.7862   20.0659 C   0  0  0  0  0  0  0  0  0  0  0  0
  -24.1119   -9.2463   21.1277 C   0  0  0  0  0  0  0  0  0  0  0  0
  -21.7869   -8.1300   22.1911 C   0  0  0  0  0  0  0  0  0  0  0  0
  -22.8856   -9.4571   20.4973 C   0  0  0  0  0  0  0  0  0  0  0  0
  -25.5078  -15.3660   20.1348 C   0  0  0  0  0  0  0  0  0  0  0  0
  -26.1480  -17.4691   20.1805 C   0  0  0  0  0  0  0  0  0  0  0  0
  -27.8630  -15.8661   21.0394 C   0  0  0  0  0  0  0  0  0  0  0  0
  -23.8275  -30.9610   22.6593 C   0  0  0  0  0  0  0  0  0  0  0  0
  -21.5361  -28.7652   21.9884 C   0  0  0  0  0  0  0  0  0  0  0  0
  -30.0841  -24.8188   18.7628 C   0  0  0  0  0  0  0  0  0  0  0  0
  -29.6919  -24.0692   15.1786 C   0  0  0  0  0  0  0  0  0  0  0  0
  -20.7197  -25.7708   20.5693 C   0  0  0  0  0  0  0  0  0  0  0  0
  -23.6265  -21.0567   16.7491 C   0  0  0  0  0  0  0  0  0  0  0  0
  -24.0097  -35.8696   24.0484 C   0  0  0  0  0  0  0  0  0  0  0  0
  -24.1572  -30.6305   20.1818 C   0  0  0  0  0  0  0  0  0  0  0  0
  -23.9269  -28.0524   21.6120 C   0  0  0  0  0  0  0  0  0  0  0  0
  -22.9992  -34.7334   24.1838 C   0  0  0  0  0  0  0  0  0  0  0  0
  -21.5438  -19.1534   18.9210 C   0  0  0  0  0  0  0  0  0  0  0  0
  -23.6782  -33.4759   24.7172 C   0  0  0  0  0  0  0  0  0  0  0  0
  -22.4779  -18.0673   19.4593 C   0  0  0  0  0  0  0  0  0  0  0  0
  -21.8397  -19.4823   17.4588 C   0  0  0  0  0  0  0  0  0  0  0  0
  -24.1734  -18.7333   17.7075 C   0  0  0  0  0  0  0  0  0  0  0  0
  -24.7679  -32.9871   23.7553 C   0  0  1  0  0  0  0  0  0  0  0  0
  -23.2266  -30.4560   21.3780 C   0  0  1  0  0  0  0  0  0  0  0  0
  -23.9564  -18.4141   19.1957 C   0  0  2  0  0  0  0  0  0  0  0  0
  -27.8710  -21.2984   16.4363 C   0  0  0  0  0  0  0  0  0  0  0  0
  -18.7758  -24.2240   20.2141 C   0  0  0  0  0  0  0  0  0  0  0  0
  -21.7260  -27.8625   24.8969 C   0  0  0  0  0  0  0  0  0  0  0  0
  -20.5141  -25.7684   24.2533 C   0  0  0  0  0  0  0  0  0  0  0  0
  -19.3976  -27.9838   23.9921 C   0  0  0  0  0  0  0  0  0  0  0  0
  -20.9345  -25.9892   17.6257 C   0  0  0  0  0  0  0  0  0  0  0  0
  -30.5872  -26.1288   19.3489 C   0  0  0  0  0  0  0  0  0  0  0  0
  -29.5608  -27.2482   19.2691 C   0  0  0  0  0  0  0  0  0  1  0  0
  -29.2461  -23.8679   16.6173 C   0  0  1  0  0  0  0  0  0  0  0  0
  -21.2630  -27.3418   22.4108 C   0  0  1  0  0  0  0  0  0  0  0  0
  -19.5892  -25.3724   19.6378 C   0  0  2  0  0  0  0  0  0  0  0  0
  -20.7494  -27.2464   23.8752 C   0  0  0  0  0  0  0  0  0  0  0  0
  -24.4667  -16.0434   19.6436 N   0  0  0  0  0  0  0  0  0  0  0  0
  -24.8864  -17.3194   19.6843 N   0  0  0  0  0  0  0  0  0  0  0  0
  -22.8521  -29.0585   21.6037 N   0  0  0  0  0  0  0  0  0  0  0  0
  -23.2577  -19.8050   17.2858 N   0  0  0  0  0  0  0  0  0  0  0  0
  -26.7246  -18.6848   20.2906 N   0  0  0  0  0  0  0  0  0  0  0  0
  -28.1474  -14.5171   21.2919 N   0  0  0  0  0  0  0  0  0  0  0  0
  -30.5235  -23.0672   14.7255 N   0  0  0  0  0  0  0  0  0  0  0  0
  -25.0028  -21.2637   16.6620 N   0  0  0  0  0  0  0  0  0  0  0  0
  -24.1757  -32.2979   22.6289 N   0  0  0  0  0  0  0  0  0  0  0  0
  -29.7516  -24.9562   17.4228 N   0  0  0  0  0  0  0  0  0  0  0  0
  -20.3461  -26.7905   21.4189 N   0  0  0  0  0  0  0  0  0  0  0  0
  -20.1321  -24.9472   18.3166 N   0  3  0  0  0  0  0  0  0  0  0  0
  -28.7219  -16.7370   21.3172 O   0  0  0  0  0  0  0  0  0  0  0  0
  -23.9638  -30.1947   23.6059 O   0  0  0  0  0  0  0  0  0  0  0  0
  -20.6142  -29.5847   21.9926 O   0  0  0  0  0  0  0  0  0  0  0  0
  -29.9921  -23.7812   19.4131 O   0  0  0  0  0  0  0  0  0  0  0  0
  -29.3400  -25.0213   14.4857 O   0  0  0  0  0  0  0  0  0  0  0  0
  -21.8226  -25.2288   20.5481 O   0  0  0  0  0  0  0  0  0  0  0  0
  -22.7837  -21.8947   16.4183 O   0  0  0  0  0  0  0  0  0  0  0  0
  -25.2670   -9.7990   20.6006 O   0  0  0  0  0  0  0  0  0  0  0  0
  -28.4051  -26.8859   20.0239 O   0  0  0  0  0  0  0  0  0  1  0  0
  -20.6708   -7.5928   22.7010 F   0  0  0  0  0  0  0  0  0  0  0  0
  -22.8182  -10.1940   19.3801 F   0  0  0  0  0  0  0  0  0  0  0  0
  1  2  1  0  0  0  0
  1  6  2  0  0  0  0
  2  7  2  0  0  0  0
  3  9  2  0  0  0  0
  3 10  1  0  0  0  0
  4 11  2  0  0  0  0
  4 18  1  0  0  0  0
  5 12  1  0  0  0  0
  5 18  2  0  0  0  0
  6 20  1  0  0  0  0
  7 22  1  0  0  0  0
  8 13  2  0  0  0  0
  8 21  1  0  0  0  0
  9 24  1  0  0  0  0
 10 26  2  0  0  0  0
 11 27  1  0  0  0  0
 12 27  2  0  0  0  0
 13 28  1  0  0  0  0
 14 15  2  0  0  0  0
 14 29  1  0  0  0  0
 15 30  1  0  0  0  0
 16 23  1  0  0  0  0
 16 28  2  0  0  0  0
 17 30  2  0  0  0  0
 17 31  1  0  0  0  0
 18 32  1  0  0  0  0
 19 32  1  0  0  0  0
 19 33  2  0  0  0  0
 19 34  1  0  0  0  0
 20 22  2  0  0  0  0
 20 41  1  0  0  0  0
 21 23  2  0  0  0  0
 21 42  1  0  0  0  0
 22 50  1  0  0  0  0
 23 43  1  0  0  0  0
 24 25  2  0  0  0  0
 24 61  1  0  0  0  0
 25 26  1  0  0  0  0
 25 53  1  0  0  0  0
 26 72  1  0  0  0  0
 27 84  1  0  0  0  0
 28 85  1  0  0  0  0
 29 31  2  0  0  0  0
 29 84  1  0  0  0  0
 30 86  1  0  0  0  0
 31 87  1  0  0  0  0
 32 65  2  0  0  0  0
 33 66  1  0  0  0  0
 33 69  1  0  0  0  0
 34 70  1  0  0  0  0
 34 77  2  0  0  0  0
 35 51  1  0  0  0  0
 35 73  1  0  0  0  0
 35 78  2  0  0  0  0
 36 62  1  0  0  0  0
 36 67  1  0  0  0  0
 36 79  2  0  0  0  0
 37 59  1  0  0  0  0
 37 74  1  0  0  0  0
 37 80  2  0  0  0  0
 38 61  1  0  0  0  0
 38 71  1  0  0  0  0
 38 81  2  0  0  0  0
 39 63  1  0  0  0  0
 39 75  1  0  0  0  0
 39 82  2  0  0  0  0
 40 68  1  0  0  0  0
 40 72  1  0  0  0  0
 40 83  2  0  0  0  0
 41 44  1  0  0  0  0
 42 51  1  0  0  0  0
 43 67  1  0  0  0  0
 44 46  1  0  0  0  0
 45 47  1  0  0  0  0
 45 48  1  0  0  0  0
 46 50  1  0  0  0  0
 47 52  1  0  0  0  0
 48 68  1  0  0  0  0
 49 52  1  0  0  0  0
 49 68  1  0  0  0  0
 50 73  1  0  0  0  0
 51 67  1  0  0  0  0
 52 66  1  0  0  0  0
 54 63  1  0  0  0  0
 55 64  1  0  0  0  0
 56 64  1  0  0  0  0
 57 64  1  0  0  0  0
 58 76  1  0  0  0  0
 59 60  1  0  0  0  0
 60 85  1  0  0  0  0
 61 74  1  0  0  0  0
 62 64  1  0  0  0  0
 62 75  1  0  0  0  0
 63 76  1  0  0  0  0
 65 66  1  0  0  0  0
M  CHG  1  76   1
M  ISO  4  40 100  60 101  72 100  85 101
M  END
> <Batch ID>
0062

> <Smiles>
CNC(C)C(=O)NC(C(=O)N1Cc2cc([101O:1][101CH2:1]CC(=O)NC(C(N)=O)c3cccc([100NH:0][100C:0](=O)N4CCCC(n5nc(-c6ccc(Oc7ccc(F)cc7F)cc6)c(C(N)=O)c5N)C4)c3C)ccc2CC1C(=O)NC1CCCc2ccccc21)C(C)(C)C

> <Shape>
0.282

> <Color>
0.075

> <Negative vol penalty>
0.000

$$$$

  -OEChem-04042323093D

 87 96  0     1  0  0  0  0  0999 V2000
  -18.7818  -26.9562   31.0117 C   0  0  0  0  0  0  0  0  0  0  0  0
  -20.0731  -26.6393   30.6022 C   0  0  0  0  0  0  0  0  0  0  0  0
  -23.0754   -9.8687   19.9409 C   0  0  0  0  0  0  0  0  0  0  0  0
  -23.8338   -9.8765   22.2348 C   0  0  0  0  0  0  0  0  0  0  0  0
  -17.6866  -26.3928   30.3582 C   0  0  0  0  0  0  0  0  0  0  0  0
  -20.2699  -25.7580   29.5397 C   0  0  0  0  0  0  0  0  0  0  0  0
  -24.7421  -25.9696   25.3611 C   0  0  0  0  0  0  0  0  0  0  0  0
  -22.3309   -8.7159   20.1910 C   0  0  0  0  0  0  0  0  0  0  0  0
  -23.0893   -8.7238   22.4849 C   0  0  0  0  0  0  0  0  0  0  0  0
  -25.9536  -25.2889   25.2486 C   0  0  0  0  0  0  0  0  0  0  0  0
  -19.8604   -7.9275   23.0857 C   0  0  0  0  0  0  0  0  0  0  0  0
  -19.1027   -7.8884   24.2561 C   0  0  0  0  0  0  0  0  0  0  0  0
  -24.9083  -23.6830   23.7831 C   0  0  0  0  0  0  0  0  0  0  0  0
  -29.8790  -17.4577   23.1392 C   0  0  0  0  0  0  0  0  0  0  0  0
  -32.0632  -16.6083   22.5522 C   0  0  0  0  0  0  0  0  0  0  0  0
  -20.3429   -5.9509   24.9943 C   0  0  0  0  0  0  0  0  0  0  0  0
  -23.8269  -10.4490   20.9628 C   0  0  0  0  0  0  0  0  0  0  0  0
  -24.1697  -12.9739   20.8417 C   0  0  0  0  0  0  0  0  0  0  0  0
  -17.8699  -25.5116   29.2809 C   0  0  0  0  0  0  0  0  0  0  0  0
  -23.5999  -25.5051   24.6931 C   0  0  0  0  0  0  0  0  0  0  0  0
  -19.1761  -25.1812   28.8721 C   0  0  0  0  0  0  0  0  0  0  0  0
  -23.6841  -24.3610   23.8867 C   0  0  0  0  0  0  0  0  0  0  0  0
  -31.8517  -18.3596   24.2030 C   0  0  0  0  0  0  0  0  0  0  0  0
  -30.4660  -18.3421   24.0440 C   0  0  0  0  0  0  0  0  0  0  0  0
  -30.6776  -16.5907   22.3932 C   0  0  0  0  0  0  0  0  0  0  0  0
  -22.3378   -8.1435   21.4629 C   0  0  0  0  0  0  0  0  0  0  0  0
  -26.0361  -24.1438   24.4618 C   0  0  0  0  0  0  0  0  0  0  0  0
  -20.8594   -6.9782   22.8695 C   0  0  0  0  0  0  0  0  0  0  0  0
  -19.3439   -6.9002   25.2104 C   0  0  0  0  0  0  0  0  0  0  0  0
  -32.6503  -17.4927   23.4570 C   0  0  0  0  0  0  0  0  0  0  0  0
  -21.1006   -5.9899   23.8239 C   0  0  0  0  0  0  0  0  0  0  0  0
  -24.5965  -11.6394   20.7050 C   0  0  0  0  0  0  0  0  0  0  0  0
  -25.2624  -13.7228   20.4788 C   0  0  0  0  0  0  0  0  0  0  0  0
  -28.7722  -20.2230   26.8875 C   0  0  0  0  0  0  0  0  0  0  0  0
  -28.2475  -21.2540   26.2212 C   0  0  0  0  0  0  0  0  0  0  0  0
  -29.6052  -19.1931   26.2097 C   0  0  0  0  0  0  0  0  0  0  0  0
  -22.8991  -13.4904   21.2595 C   0  0  0  0  0  0  0  0  0  0  0  0
  -20.7387  -24.4609   25.6022 C   0  0  0  0  0  0  0  0  0  0  0  0
  -20.1569  -24.4586   22.4110 C   0  0  0  0  0  0  0  0  0  0  0  0
  -21.4063  -24.3159   19.2384 C   0  0  0  0  0  0  0  0  0  0  0  0
  -30.7288  -14.7665   20.6566 C   0  0  0  0  0  0  0  0  0  0  0  0
  -16.6560  -24.8908   28.6361 C   0  0  0  0  0  0  0  0  0  0  0  0
  -22.3071  -26.2659   24.8034 C   0  0  0  0  0  0  0  0  0  0  0  0
  -22.4920  -23.8328   23.1328 C   0  0  0  0  0  0  0  0  0  0  0  0
  -16.9448  -24.2573   27.2776 C   0  0  0  0  0  0  0  0  0  0  0  0
  -29.6151  -12.3519   18.2888 C   0  0  0  0  0  0  0  0  0  0  0  0
  -18.2050  -23.4005   27.3452 C   0  0  0  0  0  0  0  0  0  0  0  0
  -28.1751  -12.0610   18.7176 C   0  0  0  0  0  0  0  0  0  0  0  0
  -30.5295  -12.5810   19.4910 C   0  0  0  0  0  0  0  0  0  0  0  0
  -28.6405  -20.0513   24.0815 C   0  0  0  0  0  0  0  0  0  0  0  0
  -28.6219  -13.3068   20.8706 C   0  0  0  0  0  0  0  0  0  0  0  0
  -19.4300  -24.2486   27.7077 C   0  0  1  0  0  0  0  0  0  0  0  0
  -28.3900  -21.4110   24.7414 C   0  0  1  0  0  0  0  0  0  0  0  0
  -21.0825  -25.4115   24.4905 C   0  0  1  0  0  0  0  0  0  0  0  0
  -27.6498  -13.1333   19.6922 C   0  0  2  0  0  0  0  0  0  0  0  0
  -32.5047  -19.2988   25.1648 C   0  0  0  0  0  0  0  0  0  0  0  0
  -20.6830  -24.2966   16.8354 C   0  0  0  0  0  0  0  0  0  0  0  0
  -19.2891  -21.5475   22.6980 C   0  0  0  0  0  0  0  0  0  0  0  0
  -19.4964  -21.3135   20.2140 C   0  0  0  0  0  0  0  0  0  0  0  0
  -17.8510  -22.9200   21.1806 C   0  0  0  0  0  0  0  0  0  0  0  0
  -22.8840  -26.8123   18.6528 C   0  0  0  0  0  0  0  0  0  0  0  0
  -27.1500  -22.0683   24.1338 C   0  0  0  0  0  0  0  0  0  1  0  0
  -20.3194  -23.4546   21.2954 C   0  0  1  0  0  0  0  0  0  0  0  0
  -21.1271  -25.1586   18.0070 C   0  0  2  0  0  0  0  0  0  0  0  0
  -19.2611  -22.3175   21.3626 C   0  0  0  0  0  0  0  0  0  0  0  0
  -25.8617  -11.5429   20.2876 N   0  0  0  0  0  0  0  0  0  0  0  0
  -26.2391  -12.8263   20.1589 N   0  0  0  0  0  0  0  0  0  0  0  0
  -29.6228  -19.2310   24.8064 N   0  0  0  0  0  0  0  0  0  0  0  0
  -21.2488  -24.6080   23.2777 N   0  0  0  0  0  0  0  0  0  0  0  0
  -29.9703  -13.6124   20.3675 N   0  0  0  0  0  0  0  0  0  0  0  0
  -25.4733  -15.0542   20.4053 N   0  0  0  0  0  0  0  0  0  0  0  0
  -21.8866  -12.5818   21.5966 N   0  0  0  0  0  0  0  0  0  0  0  0
  -30.0812  -15.6922   21.4741 N   0  0  0  0  0  0  0  0  0  0  0  0
  -19.8894  -24.9920   26.5541 N   0  0  0  0  0  0  0  0  0  0  0  0
  -20.2977  -24.2183   20.0525 N   0  0  0  0  0  0  0  0  0  0  0  0
  -22.3511  -25.9066   17.6028 N   0  3  0  0  0  0  0  0  0  0  0  0
  -30.1872  -18.3813   26.9291 O   0  0  0  0  0  0  0  0  0  0  0  0
  -22.6633  -14.7212   21.3161 O   0  0  0  0  0  0  0  0  0  0  0  0
  -21.2079  -23.3289   25.5959 O   0  0  0  0  0  0  0  0  0  0  0  0
  -19.1028  -25.0922   22.5055 O   0  0  0  0  0  0  0  0  0  0  0  0
  -22.4974  -23.7931   19.4544 O   0  0  0  0  0  0  0  0  0  0  0  0
  -31.8583  -14.9346   20.1897 O   0  0  0  0  0  0  0  0  0  0  0  0
  -21.6113   -7.0188   21.7074 O   0  0  0  0  0  0  0  0  0  0  0  0
  -27.2173  -23.4771   24.3507 O   0  0  0  0  0  0  0  0  0  1  0  0
  -18.6172   -6.8637   26.3350 F   0  0  0  0  0  0  0  0  0  0  0  0
  -33.9830  -17.5027   23.6010 F   0  0  0  0  0  0  0  0  0  0  0  0
  -22.0597   -5.0760   23.6224 F   0  0  0  0  0  0  0  0  0  0  0  0
  1  2  1  0  0  0  0
  1  5  2  0  0  0  0
  2  6  2  0  0  0  0
  3  8  2  0  0  0  0
  3 17  1  0  0  0  0
  4  9  1  0  0  0  0
  4 17  2  0  0  0  0
  5 19  1  0  0  0  0
  6 21  1  0  0  0  0
  7 10  2  0  0  0  0
  7 20  1  0  0  0  0
  8 26  1  0  0  0  0
  9 26  2  0  0  0  0
 10 27  1  0  0  0  0
 11 12  2  0  0  0  0
 11 28  1  0  0  0  0
 12 29  1  0  0  0  0
 13 22  1  0  0  0  0
 13 27  2  0  0  0  0
 14 24  1  0  0  0  0
 14 25  2  0  0  0  0
 15 25  1  0  0  0  0
 15 30  2  0  0  0  0
 16 29  2  0  0  0  0
 16 31  1  0  0  0  0
 17 32  1  0  0  0  0
 18 32  1  0  0  0  0
 18 33  2  0  0  0  0
 18 37  1  0  0  0  0
 19 21  2  0  0  0  0
 19 42  1  0  0  0  0
 20 22  2  0  0  0  0
 20 43  1  0  0  0  0
 21 52  1  0  0  0  0
 22 44  1  0  0  0  0
 23 24  2  0  0  0  0
 23 30  1  0  0  0  0
 23 56  1  0  0  0  0
 24 68  1  0  0  0  0
 25 73  1  0  0  0  0
 26 83  1  0  0  0  0
 27 84  1  0  0  0  0
 28 31  2  0  0  0  0
 28 83  1  0  0  0  0
 29 85  1  0  0  0  0
 30 86  1  0  0  0  0
 31 87  1  0  0  0  0
 32 66  2  0  0  0  0
 33 67  1  0  0  0  0
 33 71  1  0  0  0  0
 34 35  2  0  0  0  0
 34 36  1  0  0  0  0
 35 53  1  0  0  0  0
 36 68  1  0  0  0  0
 36 77  2  0  0  0  0
 37 72  1  0  0  0  0
 37 78  2  0  0  0  0
 38 54  1  0  0  0  0
 38 74  1  0  0  0  0
 38 79  2  0  0  0  0
 39 63  1  0  0  0  0
 39 69  1  0  0  0  0
 39 80  2  0  0  0  0
 40 64  1  0  0  0  0
 40 75  1  0  0  0  0
 40 81  2  0  0  0  0
 41 70  1  0  0  0  0
 41 73  1  0  0  0  0
 41 82  2  0  0  0  0
 42 45  1  0  0  0  0
 43 54  1  0  0  0  0
 44 69  1  0  0  0  0
 45 47  1  0  0  0  0
 46 48  1  0  0  0  0
 46 49  1  0  0  0  0
 47 52  1  0  0  0  0
 48 55  1  0  0  0  0
 49 70  1  0  0  0  0
 50 53  1  0  0  0  0
 50 68  1  0  0  0  0
 51 55  1  0  0  0  0
 51 70  1  0  0  0  0
 52 74  1  0  0  0  0
 53 62  1  0  0  0  0
 54 69  1  0  0  0  0
 55 67  1  0  0  0  0
 57 64  1  0  0  0  0
 58 65  1  0  0  0  0
 59 65  1  0  0  0  0
 60 65  1  0  0  0  0
 61 76  1  0  0  0  0
 62 84  1  0  0  0  0
 63 65  1  0  0  0  0
 63 75  1  0  0  0  0
 64 76  1  0  0  0  0
 66 67  1  0  0  0  0
M  CHG  1  76   1
M  ISO  4  41 100  62 101  73 100  84 101
M  END
> <Batch ID>
0062

> <Smiles>
CNC(C)C(=O)NC(C(=O)N1Cc2cc([101O:1][101CH2:1]C3=CCC(=O)N(c4cc([100NH:0][100C:0](=O)N5CCCC(n6nc(-c7ccc(Oc8ccc(F)cc8F)cc7)c(C(N)=O)c6N)C5)cc(F)c4C)C3)ccc2CC1C(=O)NC1CCCc2ccccc21)C(C)(C)C

> <Shape>
0.174

> <Color>
0.192

> <Negative vol penalty>
0.000

$$$$

  -OEChem-04042323093D

 90 98  0     1  0  0  0  0  0999 V2000
  -38.2111  -25.6231   34.7038 C   0  0  0  0  0  0  0  0  0  0  0  0
  -37.0783  -25.2611   33.9819 C   0  0  0  0  0  0  0  0  0  0  0  0
  -23.0001   -9.8946   19.9808 C   0  0  0  0  0  0  0  0  0  0  0  0
  -23.7257   -9.9449   22.2848 C   0  0  0  0  0  0  0  0  0  0  0  0
  -39.3726  -26.0022   34.0322 C   0  0  0  0  0  0  0  0  0  0  0  0
  -37.1060  -25.2792   32.5879 C   0  0  0  0  0  0  0  0  0  0  0  0
  -34.9962  -21.1516   30.5492 C   0  0  0  0  0  0  0  0  0  0  0  0
  -22.2334   -8.7602   20.2470 C   0  0  0  0  0  0  0  0  0  0  0  0
  -22.9589   -8.8105   22.5510 C   0  0  0  0  0  0  0  0  0  0  0  0
  -33.6034  -21.0998   30.5137 C   0  0  0  0  0  0  0  0  0  0  0  0
  -23.2024   -5.4716   22.0783 C   0  0  0  0  0  0  0  0  0  0  0  0
  -23.7898   -4.4541   22.8301 C   0  0  0  0  0  0  0  0  0  0  0  0
  -31.8589  -18.3406   24.1677 C   0  0  0  0  0  0  0  0  0  0  0  0
  -33.6436  -21.7715   28.1971 C   0  0  0  0  0  0  0  0  0  0  0  0
  -32.0595  -16.5468   22.5617 C   0  0  0  0  0  0  0  0  0  0  0  0
  -22.0663   -4.6971   24.5056 C   0  0  0  0  0  0  0  0  0  0  0  0
  -23.7464  -10.4869   20.9997 C   0  0  0  0  0  0  0  0  0  0  0  0
  -30.4753  -18.3440   23.9912 C   0  0  0  0  0  0  0  0  0  0  0  0
  -24.1323  -13.0024   20.8242 C   0  0  0  0  0  0  0  0  0  0  0  0
  -39.4176  -26.0157   32.6292 C   0  0  0  0  0  0  0  0  0  0  0  0
  -35.7239  -21.5248   29.4101 C   0  0  0  0  0  0  0  0  0  0  0  0
  -38.2687  -25.6602   31.8969 C   0  0  0  0  0  0  0  0  0  0  0  0
  -35.0456  -21.8247   28.2200 C   0  0  0  0  0  0  0  0  0  0  0  0
  -30.6758  -16.5502   22.3852 C   0  0  0  0  0  0  0  0  0  0  0  0
  -22.2128   -8.2182   21.5321 C   0  0  0  0  0  0  0  0  0  0  0  0
  -32.9268  -21.4126   29.3383 C   0  0  0  0  0  0  0  0  0  0  0  0
  -22.0469   -6.1019   22.5402 C   0  0  0  0  0  0  0  0  0  0  0  0
  -23.2217   -4.0668   24.0437 C   0  0  0  0  0  0  0  0  0  0  0  0
  -32.6510  -17.4420   23.4529 C   0  0  0  0  0  0  0  0  0  0  0  0
  -21.4789   -5.7146   23.7538 C   0  0  0  0  0  0  0  0  0  0  0  0
  -29.8837  -17.4488   23.1000 C   0  0  0  0  0  0  0  0  0  0  0  0
  -24.5391  -11.6584   20.7252 C   0  0  0  0  0  0  0  0  0  0  0  0
  -25.2421  -13.7248   20.4598 C   0  0  0  0  0  0  0  0  0  0  0  0
  -29.6398  -19.2963   24.7499 C   0  0  0  0  0  0  0  0  0  0  0  0
  -22.8645  -13.5491   21.2111 C   0  0  0  0  0  0  0  0  0  0  0  0
  -37.7058  -23.9048   28.6946 C   0  0  0  0  0  0  0  0  0  0  0  0
  -38.0850  -22.2411   25.9359 C   0  0  0  0  0  0  0  0  0  0  0  0
  -27.5082  -19.4997   27.1134 C   0  0  0  0  0  0  0  0  0  0  0  0
  -36.8126  -19.9821   23.7167 C   0  0  0  0  0  0  0  0  0  0  0  0
  -30.7219  -14.6846   20.6930 C   0  0  0  0  0  0  0  0  0  0  0  0
  -40.6810  -26.4783   31.9477 C   0  0  0  0  0  0  0  0  0  0  0  0
  -37.2271  -21.5499   29.4572 C   0  0  0  0  0  0  0  0  0  0  0  0
  -35.7812  -22.2116   26.9639 C   0  0  0  0  0  0  0  0  0  0  0  0
  -40.7444  -26.1105   30.4675 C   0  0  0  0  0  0  0  0  0  0  0  0
  -29.6026  -12.2325   18.3667 C   0  0  0  0  0  0  0  0  0  0  0  0
  -39.4257  -26.4447   29.7775 C   0  0  0  0  0  0  0  0  0  0  0  0
  -28.1520  -11.9751   18.7811 C   0  0  0  0  0  0  0  0  0  0  0  0
  -30.5034  -12.4754   19.5764 C   0  0  0  0  0  0  0  0  0  0  0  0
  -28.5885  -13.2644   20.9104 C   0  0  0  0  0  0  0  0  0  0  0  0
  -38.2673  -25.6434   30.3837 C   0  0  1  0  0  0  0  0  0  0  0  0
  -37.8438  -22.4412   28.3836 C   0  0  1  0  0  0  0  0  0  0  0  0
  -27.6306  -13.0785   19.7223 C   0  0  2  0  0  0  0  0  0  0  0  0
  -36.7514  -18.4517   21.7288 C   0  0  0  0  0  0  0  0  0  0  0  0
  -29.7865  -19.0621   29.0903 C   0  0  0  0  0  0  0  0  0  0  0  0
  -37.3833  -24.8058   24.4393 C   0  0  0  0  0  0  0  0  0  0  0  0
  -36.9915  -23.4207   22.3908 C   0  0  0  0  0  0  0  0  0  0  0  0
  -39.2569  -23.4901   23.4329 C   0  0  0  0  0  0  0  0  0  0  0  0
  -25.2738  -19.9465   28.1182 C   0  0  0  0  0  0  0  0  0  0  0  0
  -37.9472  -17.7318   25.2683 C   0  0  0  0  0  0  0  0  0  0  0  0
  -30.9631  -21.0393   28.0497 C   0  0  0  0  0  0  0  0  0  1  0  0
  -37.3975  -22.2285   24.5919 C   0  0  1  0  0  0  0  0  0  0  0  0
  -28.8801  -20.1279   26.9471 C   0  0  1  0  0  0  0  0  0  0  0  0
  -37.4300  -18.7641   23.0535 C   0  0  2  0  0  0  0  0  0  0  0  0
  -29.6077  -20.3563   28.2837 C   0  0  1  0  0  0  0  0  0  0  0  0
  -37.7430  -23.4809   23.7378 C   0  0  0  0  0  0  0  0  0  0  0  0
  -25.8083  -11.5317   20.3288 N   0  0  0  0  0  0  0  0  0  0  0  0
  -26.2085  -12.8054   20.1754 N   0  0  0  0  0  0  0  0  0  0  0  0
  -37.2500  -22.2277   27.0622 N   0  0  0  0  0  0  0  0  0  0  0  0
  -29.9488  -13.5363   20.4200 N   0  0  0  0  0  0  0  0  0  0  0  0
  -25.4759  -15.0505   20.3580 N   0  0  0  0  0  0  0  0  0  0  0  0
  -28.9002  -20.1678   24.0640 N   0  0  0  0  0  0  0  0  0  0  0  0
  -21.8326  -12.6651   21.5546 N   0  0  0  0  0  0  0  0  0  0  0  0
  -30.0780  -15.6397   21.4789 N   0  0  0  0  0  0  0  0  0  0  0  0
  -38.2827  -24.2822   29.8922 N   0  0  0  0  0  0  0  0  0  0  0  0
  -26.6411  -20.3128   27.8281 N   0  0  0  0  0  0  0  0  0  0  0  0
  -37.7523  -20.9604   23.9638 N   0  0  0  0  0  0  0  0  0  0  0  0
  -29.6665  -19.2405   26.0869 N   0  3  0  0  0  0  0  0  0  0  0  0
  -37.3033  -17.5722   23.9390 N   0  3  0  0  0  0  0  0  0  0  0  0
  -22.6481  -14.7844   21.2351 O   0  0  0  0  0  0  0  0  0  0  0  0
  -37.1206  -24.6375   27.9058 O   0  0  0  0  0  0  0  0  0  0  0  0
  -39.3175  -22.2548   25.9846 O   0  0  0  0  0  0  0  0  0  0  0  0
  -27.2218  -18.3966   26.6531 O   0  0  0  0  0  0  0  0  0  0  0  0
  -35.6157  -20.0595   23.9850 O   0  0  0  0  0  0  0  0  0  0  0  0
  -31.8605  -14.8233   20.2388 O   0  0  0  0  0  0  0  0  0  0  0  0
  -21.4645   -7.1114   21.7923 O   0  0  0  0  0  0  0  0  0  0  0  0
  -31.5673  -21.3635   29.3011 O   0  0  0  0  0  0  0  0  0  1  0  0
  -23.7851   -3.0886   24.7648 F   0  0  0  0  0  0  0  0  0  0  0  0
  -33.9795  -17.4387   23.6227 F   0  0  0  0  0  0  0  0  0  0  0  0
  -20.3682   -6.3157   24.2022 F   0  0  0  0  0  0  0  0  0  0  0  0
  -28.5528  -17.4534   22.9310 F   0  0  0  0  0  0  0  0  0  0  0  0
  1  2  1  0  0  0  0
  1  5  2  0  0  0  0
  2  6  2  0  0  0  0
  3  8  2  0  0  0  0
  3 17  1  0  0  0  0
  4  9  1  0  0  0  0
  4 17  2  0  0  0  0
  5 20  1  0  0  0  0
  6 22  1  0  0  0  0
  7 10  2  0  0  0  0
  7 21  1  0  0  0  0
  8 25  1  0  0  0  0
  9 25  2  0  0  0  0
 10 26  1  0  0  0  0
 11 12  2  0  0  0  0
 11 27  1  0  0  0  0
 12 28  1  0  0  0  0
 13 18  1  0  0  0  0
 13 29  2  0  0  0  0
 14 23  1  0  0  0  0
 14 26  2  0  0  0  0
 15 24  2  0  0  0  0
 15 29  1  0  0  0  0
 16 28  2  0  0  0  0
 16 30  1  0  0  0  0
 17 32  1  0  0  0  0
 18 31  2  0  0  0  0
 18 34  1  0  0  0  0
 19 32  1  0  0  0  0
 19 33  2  0  0  0  0
 19 35  1  0  0  0  0
 20 22  2  0  0  0  0
 20 41  1  0  0  0  0
 21 23  2  0  0  0  0
 21 42  1  0  0  0  0
 22 50  1  0  0  0  0
 23 43  1  0  0  0  0
 24 31  1  0  0  0  0
 24 73  1  0  0  0  0
 25 85  1  0  0  0  0
 26 86  1  0  0  0  0
 27 30  2  0  0  0  0
 27 85  1  0  0  0  0
 28 87  1  0  0  0  0
 29 88  1  0  0  0  0
 30 89  1  0  0  0  0
 31 90  1  0  0  0  0
 32 66  2  0  0  0  0
 33 67  1  0  0  0  0
 33 70  1  0  0  0  0
 34 71  1  0  0  0  0
 34 77  2  0  0  0  0
 35 72  1  0  0  0  0
 35 79  2  0  0  0  0
 36 51  1  0  0  0  0
 36 74  1  0  0  0  0
 36 80  2  0  0  0  0
 37 61  1  0  0  0  0
 37 68  1  0  0  0  0
 37 81  2  0  0  0  0
 38 62  1  0  0  0  0
 38 75  1  0  0  0  0
 38 82  2  0  0  0  0
 39 63  1  0  0  0  0
 39 76  1  0  0  0  0
 39 83  2  0  0  0  0
 40 69  1  0  0  0  0
 40 73  1  0  0  0  0
 40 84  2  0  0  0  0
 41 44  1  0  0  0  0
 42 51  1  0  0  0  0
 43 68  1  0  0  0  0
 44 46  1  0  0  0  0
 45 47  1  0  0  0  0
 45 48  1  0  0  0  0
 46 50  1  0  0  0  0
 47 52  1  0  0  0  0
 48 69  1  0  0  0  0
 49 52  1  0  0  0  0
 49 69  1  0  0  0  0
 50 74  1  0  0  0  0
 51 68  1  0  0  0  0
 52 67  1  0  0  0  0
 53 63  1  0  0  0  0
 54 64  1  0  0  0  0
 55 65  1  0  0  0  0
 56 65  1  0  0  0  0
 57 65  1  0  0  0  0
 58 75  1  0  0  0  0
 59 78  1  0  0  0  0
 60 64  1  0  0  0  0
 60 86  1  0  0  0  0
 61 65  1  0  0  0  0
 61 76  1  0  0  0  0
 62 64  1  0  0  0  0
 62 77  1  0  0  0  0
 63 78  1  0  0  0  0
 66 67  1  0  0  0  0
M  CHG  2  77   1  78   1
M  ISO  4  40 100  60 101  73 100  86 101
M  END
> <Batch ID>
0062

> <Smiles>
CNC(=O)C(NC(=N)c1cc(F)cc([100NH:0][100C:0](=O)N2CCCC(n3nc(-c4ccc(Oc5ccc(F)cc5F)cc4)c(C(N)=O)c3N)C2)c1F)C(C)[101CH2:1][101O:1]c1ccc2c(c1)CN(C(=O)C(NC(=O)C(C)NC)C(C)(C)C)C(C(=O)NC1CCCc3ccccc31)C2

> <Shape>
0.169

> <Color>
0.182

> <Negative vol penalty>
0.000

$$$$

  -OEChem-04042323093D

 91100  0     1  0  0  0  0  0999 V2000
  -18.7418  -24.2418   23.1307 C   0  0  0  0  0  0  0  0  0  0  0  0
  -20.1049  -23.9720   23.1977 C   0  0  0  0  0  0  0  0  0  0  0  0
  -23.9703   -9.8626   21.8687 C   0  0  0  0  0  0  0  0  0  0  0  0
  -24.6192  -11.1780   23.7885 C   0  0  0  0  0  0  0  0  0  0  0  0
  -18.2964  -25.4441   22.5831 C   0  0  0  0  0  0  0  0  0  0  0  0
  -21.0235  -24.9040   22.7161 C   0  0  0  0  0  0  0  0  0  0  0  0
  -26.5900  -26.0934   24.9756 C   0  0  0  0  0  0  0  0  0  0  0  0
  -31.0815  -20.3062   20.3055 C   0  0  0  0  0  0  0  0  0  0  0  0
  -30.7597  -18.9828   20.0046 C   0  0  0  0  0  0  0  0  0  0  0  0
  -23.5500   -8.8359   22.7142 C   0  0  0  0  0  0  0  0  0  0  0  0
  -24.1988  -10.1514   24.6341 C   0  0  0  0  0  0  0  0  0  0  0  0
  -27.8646  -25.6711   24.6002 C   0  0  0  0  0  0  0  0  0  0  0  0
  -20.8682   -8.1485   24.6556 C   0  0  0  0  0  0  0  0  0  0  0  0
  -19.6383   -7.5487   24.3852 C   0  0  0  0  0  0  0  0  0  0  0  0
  -28.1513  -27.6951   23.3194 C   0  0  0  0  0  0  0  0  0  0  0  0
  -20.7392   -5.4158   24.1094 C   0  0  0  0  0  0  0  0  0  0  0  0
  -24.5050  -11.0336   22.4059 C   0  0  0  0  0  0  0  0  0  0  0  0
  -24.1701  -13.1716   21.0552 C   0  0  0  0  0  0  0  0  0  0  0  0
  -19.2104  -26.3955   22.1033 C   0  0  0  0  0  0  0  0  0  0  0  0
  -26.0814  -27.3168   24.5161 C   0  0  0  0  0  0  0  0  0  0  0  0
  -20.5899  -26.1197   22.1603 C   0  0  0  0  0  0  0  0  0  0  0  0
  -26.8710  -28.1318   23.6925 C   0  0  0  0  0  0  0  0  0  0  0  0
  -28.7399  -20.8005   20.6366 C   0  0  0  0  0  0  0  0  0  0  0  0
  -28.4180  -19.4771   20.3356 C   0  0  0  0  0  0  0  0  0  0  0  0
  -30.0717  -21.2151   20.6215 C   0  0  0  0  0  0  0  0  0  0  0  0
  -29.4279  -18.5683   20.0196 C   0  0  0  0  0  0  0  0  0  0  0  0
  -23.6642   -8.9803   24.0969 C   0  0  0  0  0  0  0  0  0  0  0  0
  -28.6443  -26.4706   23.7696 C   0  0  0  0  0  0  0  0  0  0  0  0
  -22.0337   -7.3820   24.6528 C   0  0  0  0  0  0  0  0  0  0  0  0
  -19.5738   -6.1824   24.1121 C   0  0  0  0  0  0  0  0  0  0  0  0
  -21.9691   -6.0157   24.3798 C   0  0  0  0  0  0  0  0  0  0  0  0
  -24.9400  -12.0942   21.5329 C   0  0  0  0  0  0  0  0  0  0  0  0
  -25.0370  -13.8916   20.2699 C   0  0  0  0  0  0  0  0  0  0  0  0
  -30.0021  -23.7162   20.2392 C   0  0  0  0  0  0  0  0  0  0  0  0
  -22.7943  -13.4930   21.2995 C   0  0  0  0  0  0  0  0  0  0  0  0
  -23.6004  -28.1852   22.7289 C   0  0  0  0  0  0  0  0  0  0  0  0
  -24.5602  -31.1757   23.5402 C   0  0  0  0  0  0  0  0  0  0  0  0
  -27.0860  -33.2302   24.5628 C   0  0  0  0  0  0  0  0  0  0  0  0
  -30.0214  -16.2063   19.3752 C   0  0  0  0  0  0  0  0  0  0  0  0
  -18.6796  -27.6606   21.4768 C   0  0  0  0  0  0  0  0  0  0  0  0
  -24.7151  -27.7703   24.9518 C   0  0  0  0  0  0  0  0  0  0  0  0
  -26.3793  -29.4632   23.1884 C   0  0  0  0  0  0  0  0  0  0  0  0
  -30.7098  -24.8979   20.8622 C   0  0  0  0  0  0  0  0  0  0  0  0
  -19.7324  -28.7563   21.3309 C   0  0  0  0  0  0  0  0  0  0  0  0
  -29.6708  -12.7533   18.5806 C   0  0  0  0  0  0  0  0  0  0  0  0
  -21.0206  -28.1845   20.7473 C   0  0  0  0  0  0  0  0  0  0  0  0
  -28.3454  -12.3627   19.2386 C   0  0  0  0  0  0  0  0  0  0  0  0
  -30.4494  -13.7590   19.4269 C   0  0  0  0  0  0  0  0  0  0  0  0
  -31.3591  -22.8965   21.9862 C   0  0  0  0  0  0  0  0  0  0  0  0
  -28.3708  -14.5676   20.4733 C   0  0  0  0  0  0  0  0  0  0  0  0
  -21.6182  -27.1163   21.6710 C   0  0  1  0  0  0  0  0  0  0  0  0
  -24.0973  -28.7974   24.0080 C   0  0  1  0  0  0  0  0  0  0  0  0
  -31.1585  -24.3869   22.2261 C   0  0  2  0  0  0  0  0  0  0  0  0
  -27.5211  -13.6058   19.6269 C   0  0  2  0  0  0  0  0  0  0  0  0
  -26.8889  -21.3733   22.2489 C   0  0  0  0  0  0  0  0  0  0  0  0
  -26.6709  -21.9808   19.8120 C   0  0  0  0  0  0  0  0  0  0  0  0
  -27.5757  -35.6314   25.1030 C   0  0  0  0  0  0  0  0  0  0  0  0
  -24.6054  -31.8341   20.5612 C   0  0  0  0  0  0  0  0  0  0  0  0
  -25.9763  -33.8584   21.1005 C   0  0  0  0  0  0  0  0  0  0  0  0
  -23.6656  -33.6395   22.0145 C   0  0  0  0  0  0  0  0  0  0  0  0
  -27.8144  -32.5743   27.3553 C   0  0  0  0  0  0  0  0  0  0  0  0
  -30.1058  -24.6536   23.3022 C   0  0  0  0  0  0  0  0  0  1  0  0
  -27.6548  -21.7740   20.9763 C   0  0  0  0  0  0  0  0  0  0  0  0
  -25.5121  -32.1893   22.9524 C   0  0  1  0  0  0  0  0  0  0  0  0
  -27.1496  -34.2807   25.6568 C   0  0  2  0  0  0  0  0  0  0  0  0
  -26.9882  -19.0342   20.3524 C   0  0  0  0  0  0  0  0  0  0  0  0
  -24.9486  -32.8544   21.6649 C   0  0  0  0  0  0  0  0  0  0  0  0
  -26.1991  -12.1231   21.0882 N   0  0  0  0  0  0  0  0  0  0  0  0
  -26.2270  -13.2273   20.3227 N   0  0  0  0  0  0  0  0  0  0  0  0
  -30.4243  -22.5638   20.9268 N   0  0  0  0  0  0  0  0  0  0  0  0
  -25.0343  -29.8598   23.6371 N   0  0  0  0  0  0  0  0  0  0  0  0
  -29.6066  -14.9116   19.7526 N   0  0  0  0  0  0  0  0  0  0  0  0
  -24.8897  -15.0216   19.5463 N   0  0  0  0  0  0  0  0  0  0  0  0
  -22.0479  -12.6467   22.1307 N   0  0  0  0  0  0  0  0  0  0  0  0
  -29.1235  -17.2197   19.7091 N   0  0  0  0  0  0  0  0  0  0  0  0
  -22.2948  -27.7367   22.7898 N   0  0  0  0  0  0  0  0  0  0  0  0
  -25.8206  -33.1293   24.0246 N   0  0  0  0  0  0  0  0  0  0  0  0
  -28.1246  -33.8751   26.7084 N   0  3  0  0  0  0  0  0  0  0  0  0
  -29.2603  -23.8304   19.2742 O   0  0  0  0  0  0  0  0  0  0  0  0
  -22.2387  -14.4917   20.7824 O   0  0  0  0  0  0  0  0  0  0  0  0
  -24.3458  -28.1256   21.7581 O   0  0  0  0  0  0  0  0  0  0  0  0
  -23.4399  -31.5395   23.9066 O   0  0  0  0  0  0  0  0  0  0  0  0
  -28.0623  -32.5682   24.2175 O   0  0  0  0  0  0  0  0  0  0  0  0
  -31.0814  -16.3986   18.7740 O   0  0  0  0  0  0  0  0  0  0  0  0
  -23.2538   -7.9789   24.9223 O   0  0  0  0  0  0  0  0  0  0  0  0
  -29.8885  -26.0605   23.4012 O   0  0  0  0  0  0  0  0  0  1  0  0
  -18.3925   -5.6062   23.8540 F   0  0  0  0  0  0  0  0  0  0  0  0
  -23.0852   -5.2739   24.3769 F   0  0  0  0  0  0  0  0  0  0  0  0
  -26.1159  -20.0306   20.6780 F   0  0  0  0  0  0  0  0  0  0  0  0
  -26.5561  -18.5545   19.1511 F   0  0  0  0  0  0  0  0  0  0  0  0
  -26.7640  -18.0361   21.2528 F   0  0  0  0  0  0  0  0  0  0  0  0
  1  2  1  0  0  0  0
  1  5  2  0  0  0  0
  2  6  2  0  0  0  0
  3 10  2  0  0  0  0
  3 17  1  0  0  0  0
  4 11  1  0  0  0  0
  4 17  2  0  0  0  0
  5 19  1  0  0  0  0
  6 21  1  0  0  0  0
  7 12  2  0  0  0  0
  7 20  1  0  0  0  0
  8  9  2  0  0  0  0
  8 25  1  0  0  0  0
  9 26  1  0  0  0  0
 10 27  1  0  0  0  0
 11 27  2  0  0  0  0
 12 28  1  0  0  0  0
 13 14  2  0  0  0  0
 13 29  1  0  0  0  0
 14 30  1  0  0  0  0
 15 22  1  0  0  0  0
 15 28  2  0  0  0  0
 16 30  2  0  0  0  0
 16 31  1  0  0  0  0
 17 32  1  0  0  0  0
 18 32  1  0  0  0  0
 18 33  2  0  0  0  0
 18 35  1  0  0  0  0
 19 21  2  0  0  0  0
 19 40  1  0  0  0  0
 20 22  2  0  0  0  0
 20 41  1  0  0  0  0
 21 51  1  0  0  0  0
 22 42  1  0  0  0  0
 23 24  1  0  0  0  0
 23 25  2  0  0  0  0
 23 63  1  0  0  0  0
 24 26  2  0  0  0  0
 24 66  1  0  0  0  0
 25 70  1  0  0  0  0
 26 75  1  0  0  0  0
 27 85  1  0  0  0  0
 28 86  1  0  0  0  0
 29 31  2  0  0  0  0
 29 85  1  0  0  0  0
 30 87  1  0  0  0  0
 31 88  1  0  0  0  0
 32 68  2  0  0  0  0
 33 69  1  0  0  0  0
 33 73  1  0  0  0  0
 34 43  1  0  0  0  0
 34 70  1  0  0  0  0
 34 79  2  0  0  0  0
 35 74  1  0  0  0  0
 35 80  2  0  0  0  0
 36 52  1  0  0  0  0
 36 76  1  0  0  0  0
 36 81  2  0  0  0  0
 37 64  1  0  0  0  0
 37 71  1  0  0  0  0
 37 82  2  0  0  0  0
 38 65  1  0  0  0  0
 38 77  1  0  0  0  0
 38 83  2  0  0  0  0
 39 72  1  0  0  0  0
 39 75  1  0  0  0  0
 39 84  2  0  0  0  0
 40 44  1  0  0  0  0
 41 52  1  0  0  0  0
 42 71  1  0  0  0  0
 43 53  1  0  0  0  0
 44 46  1  0  0  0  0
 45 47  1  0  0  0  0
 45 48  1  0  0  0  0
 46 51  1  0  0  0  0
 47 54  1  0  0  0  0
 48 72  1  0  0  0  0
 49 53  1  0  0  0  0
 49 70  1  0  0  0  0
 50 54  1  0  0  0  0
 50 72  1  0  0  0  0
 51 76  1  0  0  0  0
 52 71  1  0  0  0  0
 53 62  1  0  0  0  0
 54 69  1  0  0  0  0
 55 63  1  0  0  0  0
 56 63  1  0  0  0  0
 57 65  1  0  0  0  0
 58 67  1  0  0  0  0
 59 67  1  0  0  0  0
 60 67  1  0  0  0  0
 61 78  1  0  0  0  0
 62 86  1  0  0  0  0
 64 67  1  0  0  0  0
 64 77  1  0  0  0  0
 65 78  1  0  0  0  0
 66 89  1  0  0  0  0
 66 90  1  0  0  0  0
 66 91  1  0  0  0  0
 68 69  1  0  0  0  0
M  CHG  1  78   1
M  ISO  4  39 100  62 101  75 100  86 101
M  END
> <Batch ID>
0062

> <Smiles>
CNC(C)C(=O)NC(C(=O)N1Cc2cc([101O:1][101CH2:1]C3CC(=O)N(c4ccc([100NH:0][100C:0](=O)N5CCCC(n6nc(-c7ccc(Oc8ccc(F)cc8F)cc7)c(C(N)=O)c6N)C5)c(C(F)(F)F)c4C(C)C)C3)ccc2CC1C(=O)NC1CCCc2ccccc21)C(C)(C)C

> <Shape>
0.304

> <Color>
0.128

> <Negative vol penalty>
0.000

$$$$

  -OEChem-04042323093D

 84 92  0     1  0  0  0  0  0999 V2000
  -29.8149  -31.7202   26.2242 C   0  0  0  0  0  0  0  0  0  0  0  0
  -29.4414  -30.6437   25.4260 C   0  0  0  0  0  0  0  0  0  0  0  0
  -23.6537   -8.6966   19.2846 C   0  0  0  0  0  0  0  0  0  0  0  0
  -23.3643   -9.9464   21.3319 C   0  0  0  0  0  0  0  0  0  0  0  0
  -28.8397  -32.5582   26.7633 C   0  0  0  0  0  0  0  0  0  0  0  0
  -28.0923  -30.4039   25.1673 C   0  0  0  0  0  0  0  0  0  0  0  0
  -27.2061  -29.3497   20.2941 C   0  0  0  0  0  0  0  0  0  0  0  0
  -22.8489   -7.6772   19.7932 C   0  0  0  0  0  0  0  0  0  0  0  0
  -22.5594   -8.9269   21.8405 C   0  0  0  0  0  0  0  0  0  0  0  0
  -27.5116  -28.0621   19.8554 C   0  0  0  0  0  0  0  0  0  0  0  0
  -22.9865   -5.8768   23.2351 C   0  0  0  0  0  0  0  0  0  0  0  0
  -23.2147   -5.4648   24.5480 C   0  0  0  0  0  0  0  0  0  0  0  0
  -25.1826  -27.4575   20.0269 C   0  0  0  0  0  0  0  0  0  0  0  0
  -29.9631  -19.7714   21.4771 C   0  0  0  0  0  0  0  0  0  0  0  0
  -30.8201  -17.5314   21.1858 C   0  0  0  0  0  0  0  0  0  0  0  0
  -28.6119  -18.0939   20.3829 C   0  0  0  0  0  0  0  0  0  0  0  0
  -20.9528   -6.0792   25.1339 C   0  0  0  0  0  0  0  0  0  0  0  0
  -23.9114   -9.8312   20.0541 C   0  0  0  0  0  0  0  0  0  0  0  0
  -24.3276  -12.0056   18.7866 C   0  0  0  0  0  0  0  0  0  0  0  0
  -27.4785  -32.3343   26.5031 C   0  0  0  0  0  0  0  0  0  0  0  0
  -25.8859  -29.6983   20.6134 C   0  0  0  0  0  0  0  0  0  0  0  0
  -27.0979  -31.2389   25.7045 C   0  0  0  0  0  0  0  0  0  0  0  0
  -24.8626  -28.7510   20.4670 C   0  0  0  0  0  0  0  0  0  0  0  0
  -30.9848  -18.8373   21.6476 C   0  0  0  0  0  0  0  0  0  0  0  0
  -28.7766  -19.3997   20.8448 C   0  0  0  0  0  0  0  0  0  0  0  0
  -29.6336  -17.1597   20.5535 C   0  0  0  0  0  0  0  0  0  0  0  0
  -22.3018   -7.7923   21.0710 C   0  0  0  0  0  0  0  0  0  0  0  0
  -26.5003  -27.1149   19.7245 C   0  0  0  0  0  0  0  0  0  0  0  0
  -21.7414   -6.3900   22.8716 C   0  0  0  0  0  0  0  0  0  0  0  0
  -22.1978   -5.5660   25.4974 C   0  0  0  0  0  0  0  0  0  0  0  0
  -20.7246   -6.4912   23.8210 C   0  0  0  0  0  0  0  0  0  0  0  0
  -24.7432  -10.8844   19.5295 C   0  0  0  0  0  0  0  0  0  0  0  0
  -25.4867  -12.6963   18.5299 C   0  0  0  0  0  0  0  0  0  0  0  0
  -26.7548  -23.5372   19.8083 C   0  0  0  0  0  0  0  0  0  0  0  0
  -26.5067  -24.8109   20.1276 C   0  0  0  0  0  0  0  0  0  1  0  0
  -23.0114  -12.3886   18.3662 C   0  0  0  0  0  0  0  0  0  0  0  0
  -24.3965  -30.6666   23.2493 C   0  0  0  0  0  0  0  0  0  0  0  0
  -21.8839  -31.0257   21.2295 C   0  0  0  0  0  0  0  0  0  0  0  0
  -27.7387  -21.6809   21.0663 C   0  0  0  0  0  0  0  0  0  0  0  0
  -20.3663  -30.1333   18.3059 C   0  0  0  0  0  0  0  0  0  0  0  0
  -30.3794  -14.7833   20.1757 C   0  0  0  0  0  0  0  0  0  0  0  0
  -26.4580  -33.2393   27.1467 C   0  0  0  0  0  0  0  0  0  0  0  0
  -25.5688  -31.0993   21.0597 C   0  0  0  0  0  0  0  0  0  0  0  0
  -23.4262  -29.0809   20.7774 C   0  0  0  0  0  0  0  0  0  0  0  0
  -25.0708  -33.1374   26.5177 C   0  0  0  0  0  0  0  0  0  0  0  0
  -30.3269  -11.3652   19.1800 C   0  0  0  0  0  0  0  0  0  0  0  0
  -24.6762  -31.6760   26.3291 C   0  0  0  0  0  0  0  0  0  0  0  0
  -28.8353  -11.0277   19.1211 C   0  0  0  0  0  0  0  0  0  0  0  0
  -30.6478  -12.3177   20.3305 C   0  0  0  0  0  0  0  0  0  0  0  0
  -28.3506  -13.2075   20.3045 C   0  0  0  0  0  0  0  0  0  0  0  0
  -25.6461  -30.9607   25.3808 C   0  0  1  0  0  0  0  0  0  0  0  0
  -24.2666  -31.1947   21.8487 C   0  0  1  0  0  0  0  0  0  0  0  0
  -27.9686  -12.3022   19.1221 C   0  0  2  0  0  0  0  0  0  0  0  0
  -32.2529  -19.2349   22.3251 C   0  0  0  0  0  0  0  0  0  0  0  0
  -18.3034  -30.5679   16.9446 C   0  0  0  0  0  0  0  0  0  0  0  0
  -20.2589  -29.2911   23.1427 C   0  0  0  0  0  0  0  0  0  0  0  0
  -18.5746  -28.9774   21.3171 C   0  0  0  0  0  0  0  0  0  0  0  0
  -19.0258  -31.2599   22.2167 C   0  0  0  0  0  0  0  0  0  0  0  0
  -21.9472  -31.1633   16.0258 C   0  0  0  0  0  0  0  0  0  0  0  0
  -26.4388  -22.3822   20.7053 C   0  0  0  0  0  0  0  0  0  0  0  0
  -20.7579  -30.1388   20.7556 C   0  0  1  0  0  0  0  0  0  0  0  0
  -19.7495  -30.9656   17.1962 C   0  0  2  0  0  0  0  0  0  0  0  0
  -19.6815  -29.9097   21.8540 C   0  0  0  0  0  0  0  0  0  0  0  0
  -26.0632  -10.8602   19.7316 N   0  0  0  0  0  0  0  0  0  0  0  0
  -26.4872  -11.9747   19.1117 N   0  0  0  0  0  0  0  0  0  0  0  0
  -23.1677  -30.4622   21.2163 N   0  0  0  0  0  0  0  0  0  0  0  0
  -29.7912  -13.5038   20.2642 N   0  0  0  0  0  0  0  0  0  0  0  0
  -25.7375  -13.8443   17.8654 N   0  0  0  0  0  0  0  0  0  0  0  0
  -21.9324  -11.5652   18.7154 N   0  0  0  0  0  0  0  0  0  0  0  0
  -27.7398  -20.3483   20.6721 N   0  0  0  0  0  0  0  0  0  0  0  0
  -29.4657  -15.8329   20.0855 N   0  0  0  0  0  0  0  0  0  0  0  0
  -25.3578  -31.3091   24.0060 N   0  0  0  0  0  0  0  0  0  0  0  0
  -20.2444  -30.7487   19.5338 N   0  0  0  0  0  0  0  0  0  0  0  0
  -20.5133  -30.7869   15.9291 N   0  3  0  0  0  0  0  0  0  0  0  0
  -22.8005  -13.4216   17.6865 O   0  0  0  0  0  0  0  0  0  0  0  0
  -23.6769  -29.7453   23.6168 O   0  0  0  0  0  0  0  0  0  0  0  0
  -21.6345  -32.1784   21.5910 O   0  0  0  0  0  0  0  0  0  0  0  0
  -28.6417  -22.2916   21.6330 O   0  0  0  0  0  0  0  0  0  0  0  0
  -20.8992  -29.0444   18.1042 O   0  0  0  0  0  0  0  0  0  0  0  0
  -31.6035  -14.9346   20.1523 O   0  0  0  0  0  0  0  0  0  0  0  0
  -21.5162   -6.7978   21.5675 O   0  0  0  0  0  0  0  0  0  0  0  0
  -26.7958  -25.8572   19.2972 O   0  0  0  0  0  0  0  0  0  1  0  0
  -22.4166   -5.1689   26.7579 F   0  0  0  0  0  0  0  0  0  0  0  0
  -19.5260   -6.9823   23.4774 F   0  0  0  0  0  0  0  0  0  0  0  0
  1  2  1  0  0  0  0
  1  5  2  0  0  0  0
  2  6  2  0  0  0  0
  3  8  2  0  0  0  0
  3 18  1  0  0  0  0
  4  9  1  0  0  0  0
  4 18  2  0  0  0  0
  5 20  1  0  0  0  0
  6 22  1  0  0  0  0
  7 10  2  0  0  0  0
  7 21  1  0  0  0  0
  8 27  1  0  0  0  0
  9 27  2  0  0  0  0
 10 28  1  0  0  0  0
 11 12  2  0  0  0  0
 11 29  1  0  0  0  0
 12 30  1  0  0  0  0
 13 23  1  0  0  0  0
 13 28  2  0  0  0  0
 14 24  2  0  0  0  0
 14 25  1  0  0  0  0
 15 24  1  0  0  0  0
 15 26  2  0  0  0  0
 16 25  2  0  0  0  0
 16 26  1  0  0  0  0
 17 30  2  0  0  0  0
 17 31  1  0  0  0  0
 18 32  1  0  0  0  0
 19 32  1  0  0  0  0
 19 33  2  0  0  0  0
 19 36  1  0  0  0  0
 20 22  2  0  0  0  0
 20 42  1  0  0  0  0
 21 23  2  0  0  0  0
 21 43  1  0  0  0  0
 22 51  1  0  0  0  0
 23 44  1  0  0  0  0
 24 54  1  0  0  0  0
 25 70  1  0  0  0  0
 26 71  1  0  0  0  0
 27 81  1  0  0  0  0
 28 82  1  0  0  0  0
 29 31  2  0  0  0  0
 29 81  1  0  0  0  0
 30 83  1  0  0  0  0
 31 84  1  0  0  0  0
 32 64  2  0  0  0  0
 33 65  1  0  0  0  0
 33 68  1  0  0  0  0
 34 35  2  0  0  0  0
 34 60  1  0  0  0  0
 35 82  1  0  0  0  0
 36 69  1  0  0  0  0
 36 75  2  0  0  0  0
 37 52  1  0  0  0  0
 37 72  1  0  0  0  0
 37 76  2  0  0  0  0
 38 61  1  0  0  0  0
 38 66  1  0  0  0  0
 38 77  2  0  0  0  0
 39 60  1  0  0  0  0
 39 70  1  0  0  0  0
 39 78  2  0  0  0  0
 40 62  1  0  0  0  0
 40 73  1  0  0  0  0
 40 79  2  0  0  0  0
 41 67  1  0  0  0  0
 41 71  1  0  0  0  0
 41 80  2  0  0  0  0
 42 45  1  0  0  0  0
 43 52  1  0  0  0  0
 44 66  1  0  0  0  0
 45 47  1  0  0  0  0
 46 48  1  0  0  0  0
 46 49  1  0  0  0  0
 47 51  1  0  0  0  0
 48 53  1  0  0  0  0
 49 67  1  0  0  0  0
 50 53  1  0  0  0  0
 50 67  1  0  0  0  0
 51 72  1  0  0  0  0
 52 66  1  0  0  0  0
 53 65  1  0  0  0  0
 55 62  1  0  0  0  0
 56 63  1  0  0  0  0
 57 63  1  0  0  0  0
 58 63  1  0  0  0  0
 59 74  1  0  0  0  0
 61 63  1  0  0  0  0
 61 73  1  0  0  0  0
 62 74  1  0  0  0  0
 64 65  1  0  0  0  0
M  CHG  1  74   1
M  ISO  4  35 101  41 100  71 100  82 101
M  END
> <Batch ID>
0062

> <Smiles>
CNC(C)C(=O)NC(C(=O)N1Cc2cc([101O:1][101CH:1]=CCC(=O)Nc3cc(C)cc([100NH:0][100C:0](=O)N4CCCC(n5nc(-c6ccc(Oc7ccc(F)cc7F)cc6)c(C(N)=O)c5N)C4)c3)ccc2CC1C(=O)NC1CCCc2ccccc21)C(C)(C)C

> <Shape>
0.322

> <Color>
0.122

> <Negative vol penalty>
0.000

$$$$

  -OEChem-04042323093D

 89 97  0     1  0  0  0  0  0999 V2000
  -20.6512  -17.0751   28.7724 C   0  0  0  0  0  0  0  0  0  0  0  0
  -21.6337  -17.9458   28.3119 C   0  0  0  0  0  0  0  0  0  0  0  0
  -32.6518  -17.4920   23.4519 C   0  0  0  0  0  0  0  0  0  0  0  0
  -23.0743   -9.8684   19.9425 C   0  0  0  0  0  0  0  0  0  0  0  0
  -23.8305   -9.8797   22.2371 C   0  0  0  0  0  0  0  0  0  0  0  0
  -31.8556  -18.3623   24.1963 C   0  0  0  0  0  0  0  0  0  0  0  0
  -19.3072  -17.4375   28.6928 C   0  0  0  0  0  0  0  0  0  0  0  0
  -21.2726  -19.1790   27.7705 C   0  0  0  0  0  0  0  0  0  0  0  0
  -24.1630  -22.9710   29.4767 C   0  0  0  0  0  0  0  0  0  0  0  0
  -32.0622  -16.6067   22.5494 C   0  0  0  0  0  0  0  0  0  0  0  0
  -22.3292   -8.7163   20.1937 C   0  0  0  0  0  0  0  0  0  0  0  0
  -23.0854   -8.7276   22.4883 C   0  0  0  0  0  0  0  0  0  0  0  0
  -25.4329  -23.1052   28.9170 C   0  0  0  0  0  0  0  0  0  0  0  0
  -19.3781   -7.9248   21.6418 C   0  0  0  0  0  0  0  0  0  0  0  0
  -18.0719   -7.8785   21.1546 C   0  0  0  0  0  0  0  0  0  0  0  0
  -24.6106  -24.8667   27.4887 C   0  0  0  0  0  0  0  0  0  0  0  0
  -18.6324   -5.9323   19.8373 C   0  0  0  0  0  0  0  0  0  0  0  0
  -23.8250  -10.4501   20.9642 C   0  0  0  0  0  0  0  0  0  0  0  0
  -30.4698  -18.3473   24.0384 C   0  0  0  0  0  0  0  0  0  0  0  0
  -24.1688  -12.9747   20.8394 C   0  0  0  0  0  0  0  0  0  0  0  0
  -18.9301  -18.6798   28.1590 C   0  0  0  0  0  0  0  0  0  0  0  0
  -23.1030  -23.7775   29.0381 C   0  0  0  0  0  0  0  0  0  0  0  0
  -19.9222  -19.5578   27.6824 C   0  0  0  0  0  0  0  0  0  0  0  0
  -23.3288  -24.7425   28.0462 C   0  0  0  0  0  0  0  0  0  0  0  0
  -30.6764  -16.5918   22.3914 C   0  0  0  0  0  0  0  0  0  0  0  0
  -22.3347   -8.1459   21.4666 C   0  0  0  0  0  0  0  0  0  0  0  0
  -25.6561  -24.0512   27.9209 C   0  0  0  0  0  0  0  0  0  0  0  0
  -20.3114   -6.9749   21.2268 C   0  0  0  0  0  0  0  0  0  0  0  0
  -17.6991   -6.8822   20.2523 C   0  0  0  0  0  0  0  0  0  0  0  0
  -19.9386   -5.9786   20.3246 C   0  0  0  0  0  0  0  0  0  0  0  0
  -29.8802  -17.4621   23.1359 C   0  0  0  0  0  0  0  0  0  0  0  0
  -24.5953  -11.6399   20.7052 C   0  0  0  0  0  0  0  0  0  0  0  0
  -25.2621  -13.7227   20.4764 C   0  0  0  0  0  0  0  0  0  0  0  0
  -28.6724  -23.1581   26.1845 C   0  0  0  0  0  0  0  0  0  0  0  0
  -29.6299  -19.2705   24.8276 C   0  0  0  0  0  0  0  0  0  0  0  0
  -22.8980  -13.4923   21.2552 C   0  0  0  0  0  0  0  0  0  0  0  0
  -28.8083  -22.3690   25.0992 C   0  0  0  0  0  0  0  0  0  0  0  0
  -20.2970  -23.2336   27.6475 C   0  0  0  0  0  0  0  0  0  0  0  0
  -19.8917  -26.4190   28.1067 C   0  0  0  0  0  0  0  0  0  0  0  0
  -21.3191  -29.4849   28.5646 C   0  0  0  0  0  0  0  0  0  0  0  0
  -30.7287  -14.7648   20.6577 C   0  0  0  0  0  0  0  0  0  0  0  0
  -17.4620  -19.0077   28.0503 C   0  0  0  0  0  0  0  0  0  0  0  0
  -21.7455  -23.6387   29.6708 C   0  0  0  0  0  0  0  0  0  0  0  0
  -22.2293  -25.6468   27.5546 C   0  0  0  0  0  0  0  0  0  0  0  0
  -17.1851  -20.4890   27.8070 C   0  0  0  0  0  0  0  0  0  0  0  0
  -29.6164  -12.3468   18.2927 C   0  0  0  0  0  0  0  0  0  0  0  0
  -18.0963  -21.0292   26.7094 C   0  0  0  0  0  0  0  0  0  0  0  0
  -28.1759  -12.0571   18.7206 C   0  0  0  0  0  0  0  0  0  0  0  0
  -30.5298  -12.5775   19.4954 C   0  0  0  0  0  0  0  0  0  0  0  0
  -28.6211  -13.3062   20.8720 C   0  0  0  0  0  0  0  0  0  0  0  0
  -19.5717  -20.9147   27.1113 C   0  0  1  0  0  0  0  0  0  0  0  0
  -20.6177  -24.1605   28.7858 C   0  0  1  0  0  0  0  0  0  0  0  0
  -27.6500  -13.1311   19.6930 C   0  0  2  0  0  0  0  0  0  0  0  0
  -29.8364  -22.7286   24.0522 C   0  0  0  0  0  0  0  0  0  0  0  0
  -20.7318  -31.9053   28.8713 C   0  0  0  0  0  0  0  0  0  0  0  0
  -25.7523  -22.3256   24.6149 C   0  0  0  0  0  0  0  0  0  0  0  0
  -25.9970  -20.0018   23.7336 C   0  0  0  0  0  0  0  0  0  0  0  0
  -19.2630  -26.6413   25.1292 C   0  0  0  0  0  0  0  0  0  0  0  0
  -19.6243  -29.1122   25.3085 C   0  0  0  0  0  0  0  0  0  0  0  0
  -17.7968  -28.0230   26.6110 C   0  0  0  0  0  0  0  0  0  0  0  0
  -22.6065  -29.5797   31.2278 C   0  0  0  0  0  0  0  0  0  0  0  0
  -27.7109  -23.0145   27.3216 C   0  0  0  0  0  0  0  0  0  1  0  0
  -27.9891  -21.1155   24.8432 C   0  0  1  0  0  0  0  0  0  0  0  0
  -20.2002  -27.6621   27.3076 C   0  0  1  0  0  0  0  0  0  0  0  0
  -21.0359  -30.5882   29.5681 C   0  0  2  0  0  0  0  0  0  0  0  0
  -26.7261  -21.3304   23.9752 C   0  0  0  0  0  0  0  0  0  0  0  0
  -19.2416  -27.8415   26.0968 C   0  0  0  0  0  0  0  0  0  0  0  0
  -25.8608  -11.5423   20.2892 N   0  0  0  0  0  0  0  0  0  0  0  0
  -26.2388  -12.8253   20.1588 N   0  0  0  0  0  0  0  0  0  0  0  0
  -20.9180  -25.4684   28.1998 N   0  0  0  0  0  0  0  0  0  0  0  0
  -29.9701  -13.6105   20.3697 N   0  0  0  0  0  0  0  0  0  0  0  0
  -25.4735  -15.0538   20.4009 N   0  0  0  0  0  0  0  0  0  0  0  0
  -29.6777  -19.1824   26.1568 N   0  0  0  0  0  0  0  0  0  0  0  0
  -21.8849  -12.5846   21.5928 N   0  0  0  0  0  0  0  0  0  0  0  0
  -30.0807  -15.6920   21.4732 N   0  0  0  0  0  0  0  0  0  0  0  0
  -19.9244  -21.9634   28.0442 N   0  0  0  0  0  0  0  0  0  0  0  0
  -20.1805  -28.7716   28.2548 N   0  0  0  0  0  0  0  0  0  0  0  0
  -28.8666  -20.1415   24.1676 N   0  3  0  0  0  0  0  0  0  0  0  0
  -22.2112  -30.7897   30.4619 N   0  3  0  0  0  0  0  0  0  0  0  0
  -22.6625  -14.7232   21.3096 O   0  0  0  0  0  0  0  0  0  0  0  0
  -20.3799  -23.6411   26.4948 O   0  0  0  0  0  0  0  0  0  0  0  0
  -18.7834  -26.2993   28.6349 O   0  0  0  0  0  0  0  0  0  0  0  0
  -22.4378  -29.2790   28.0991 O   0  0  0  0  0  0  0  0  0  0  0  0
  -31.8587  -14.9317   20.1916 O   0  0  0  0  0  0  0  0  0  0  0  0
  -21.6076   -7.0218   21.7121 O   0  0  0  0  0  0  0  0  0  0  0  0
  -26.8945  -24.1838   27.3724 O   0  0  0  0  0  0  0  0  0  1  0  0
  -16.4444   -6.8369   19.7857 F   0  0  0  0  0  0  0  0  0  0  0  0
  -20.8305   -5.0626   19.9231 F   0  0  0  0  0  0  0  0  0  0  0  0
  -28.5471  -17.4492   22.9850 F   0  0  0  0  0  0  0  0  0  0  0  0
  1  2  1  0  0  0  0
  1  7  2  0  0  0  0
  2  8  2  0  0  0  0
  3  6  2  0  0  0  0
  3 10  1  0  0  0  0
  4 11  2  0  0  0  0
  4 18  1  0  0  0  0
  5 12  1  0  0  0  0
  5 18  2  0  0  0  0
  6 19  1  0  0  0  0
  7 21  1  0  0  0  0
  8 23  1  0  0  0  0
  9 13  2  0  0  0  0
  9 22  1  0  0  0  0
 10 25  2  0  0  0  0
 11 26  1  0  0  0  0
 12 26  2  0  0  0  0
 13 27  1  0  0  0  0
 14 15  2  0  0  0  0
 14 28  1  0  0  0  0
 15 29  1  0  0  0  0
 16 24  1  0  0  0  0
 16 27  2  0  0  0  0
 17 29  2  0  0  0  0
 17 30  1  0  0  0  0
 18 32  1  0  0  0  0
 19 31  2  0  0  0  0
 19 35  1  0  0  0  0
 20 32  1  0  0  0  0
 20 33  2  0  0  0  0
 20 36  1  0  0  0  0
 21 23  2  0  0  0  0
 21 42  1  0  0  0  0
 22 24  2  0  0  0  0
 22 43  1  0  0  0  0
 23 51  1  0  0  0  0
 24 44  1  0  0  0  0
 25 31  1  0  0  0  0
 25 75  1  0  0  0  0
 26 85  1  0  0  0  0
 27 86  1  0  0  0  0
 28 30  2  0  0  0  0
 28 85  1  0  0  0  0
 29 87  1  0  0  0  0
 30 88  1  0  0  0  0
 31 89  1  0  0  0  0
 32 68  2  0  0  0  0
 33 69  1  0  0  0  0
 33 72  1  0  0  0  0
 34 37  2  0  0  0  0
 34 62  1  0  0  0  0
 35 73  1  0  0  0  0
 35 78  2  0  0  0  0
 36 74  1  0  0  0  0
 36 80  2  0  0  0  0
 37 54  1  0  0  0  0
 37 63  1  0  0  0  0
 38 52  1  0  0  0  0
 38 76  1  0  0  0  0
 38 81  2  0  0  0  0
 39 64  1  0  0  0  0
 39 70  1  0  0  0  0
 39 82  2  0  0  0  0
 40 65  1  0  0  0  0
 40 77  1  0  0  0  0
 40 83  2  0  0  0  0
 41 71  1  0  0  0  0
 41 75  1  0  0  0  0
 41 84  2  0  0  0  0
 42 45  1  0  0  0  0
 43 52  1  0  0  0  0
 44 70  1  0  0  0  0
 45 47  1  0  0  0  0
 46 48  1  0  0  0  0
 46 49  1  0  0  0  0
 47 51  1  0  0  0  0
 48 53  1  0  0  0  0
 49 71  1  0  0  0  0
 50 53  1  0  0  0  0
 50 71  1  0  0  0  0
 51 76  1  0  0  0  0
 52 70  1  0  0  0  0
 53 69  1  0  0  0  0
 55 65  1  0  0  0  0
 56 66  1  0  0  0  0
 57 66  1  0  0  0  0
 58 67  1  0  0  0  0
 59 67  1  0  0  0  0
 60 67  1  0  0  0  0
 61 79  1  0  0  0  0
 62 86  1  0  0  0  0
 63 66  1  0  0  0  0
 63 78  1  0  0  0  0
 64 67  1  0  0  0  0
 64 77  1  0  0  0  0
 65 79  1  0  0  0  0
 68 69  1  0  0  0  0
M  CHG  2  78   1  79   1
M  ISO  4  41 100  62 101  75 100  86 101
M  END
> <Batch ID>
0062

> <Smiles>
CNC(C)C(=O)NC(C(=O)N1Cc2cc([101O:1][101CH2:1]C=C(C)C(NC(=N)c3cccc([100NH:0][100C:0](=O)N4CCCC(n5nc(-c6ccc(Oc7ccc(F)cc7F)cc6)c(C(N)=O)c5N)C4)c3F)C(C)C)ccc2CC1C(=O)NC1CCCc2ccccc21)C(C)(C)C

> <Shape>
0.149

> <Color>
0.180

> <Negative vol penalty>
0.000

$$$$

  -OEChem-04042323093D

 88 97  0     1  0  0  0  0  0999 V2000
  -22.1367  -11.6625   19.2707 C   0  0  0  0  0  0  0  0  0  0  0  0
  -21.7556  -12.8199   19.9419 C   0  0  0  0  0  0  0  0  0  0  0  0
  -19.0152  -28.8978   21.8680 C   0  0  0  0  0  0  0  0  0  0  0  0
  -25.5819  -28.8815   19.8880 C   0  0  0  0  0  0  0  0  0  0  0  0
  -23.9999  -28.4695   21.6669 C   0  0  0  0  0  0  0  0  0  0  0  0
  -23.4785  -11.2848   19.2415 C   0  0  0  0  0  0  0  0  0  0  0  0
  -22.7159  -13.5997   20.5854 C   0  0  0  0  0  0  0  0  0  0  0  0
  -22.7407  -19.6992   21.1345 C   0  0  0  0  0  0  0  0  0  0  0  0
  -19.0575  -28.9359   23.2616 C   0  0  0  0  0  0  0  0  0  0  0  0
  -19.3970  -27.7401   21.1900 C   0  0  0  0  0  0  0  0  0  0  0  0
  -25.4432  -30.2557   20.0828 C   0  0  0  0  0  0  0  0  0  0  0  0
  -23.8613  -29.8438   21.8618 C   0  0  0  0  0  0  0  0  0  0  0  0
  -22.3543  -20.5493   22.1697 C   0  0  0  0  0  0  0  0  0  0  0  0
  -22.2269  -32.4153   20.3966 C   0  0  0  0  0  0  0  0  0  0  0  0
  -20.9361  -32.9211   20.5503 C   0  0  0  0  0  0  0  0  0  0  0  0
  -24.6413  -20.6535   22.9299 C   0  0  0  0  0  0  0  0  0  0  0  0
  -21.5238  -33.7556   22.7401 C   0  0  0  0  0  0  0  0  0  0  0  0
  -24.8602  -27.9884   20.6800 C   0  0  0  0  0  0  0  0  0  0  0  0
  -26.1822  -25.8085   20.5901 C   0  0  0  0  0  0  0  0  0  0  0  0
  -24.4571  -12.0655   19.8768 C   0  0  0  0  0  0  0  0  0  0  0  0
  -24.0809  -19.3104   20.9955 C   0  0  0  0  0  0  0  0  0  0  0  0
  -24.0719  -13.2313   20.5659 C   0  0  0  0  0  0  0  0  0  0  0  0
  -25.0426  -19.8003   21.8905 C   0  0  0  0  0  0  0  0  0  0  0  0
  -19.4818  -27.8164   23.9774 C   0  0  0  0  0  0  0  0  0  0  0  0
  -19.8637  -26.6587   23.2994 C   0  0  0  0  0  0  0  0  0  0  0  0
  -19.8213  -26.6206   21.9057 C   0  0  0  0  0  0  0  0  0  0  0  0
  -24.5829  -30.7368   21.0697 C   0  0  0  0  0  0  0  0  0  0  0  0
  -23.3041  -21.0243   23.0693 C   0  0  0  0  0  0  0  0  0  0  0  0
  -23.1662  -32.5797   21.4147 C   0  0  0  0  0  0  0  0  0  0  0  0
  -20.5845  -33.5912   21.7220 C   0  0  0  0  0  0  0  0  0  0  0  0
  -22.8146  -33.2498   22.5864 C   0  0  0  0  0  0  0  0  0  0  0  0
  -25.0027  -26.5688   20.4789 C   0  0  0  0  0  0  0  0  0  0  0  0
  -25.7906  -24.5233   20.3048 C   0  0  0  0  0  0  0  0  0  0  0  0
  -19.3846  -24.5202   24.4627 C   0  0  0  0  0  0  0  0  0  0  0  0
  -27.5130  -26.2267   20.9218 C   0  0  0  0  0  0  0  0  0  0  0  0
  -25.6338  -16.5386   21.0907 C   0  0  0  0  0  0  0  0  0  0  0  0
  -28.1595  -18.3682   20.1986 C   0  0  0  0  0  0  0  0  0  0  0  0
  -29.6117  -21.4552   20.1065 C   0  0  0  0  0  0  0  0  0  0  0  0
  -20.2111  -25.2803   19.8087 C   0  0  0  0  0  0  0  0  0  0  0  0
  -25.8887  -11.5915   19.8581 C   0  0  0  0  0  0  0  0  0  0  0  0
  -24.4859  -18.4141   19.8575 C   0  0  0  0  0  0  0  0  0  0  0  0
  -26.4975  -19.4291   21.7727 C   0  0  0  0  0  0  0  0  0  0  0  0
  -19.8758  -23.5321   25.5065 C   0  0  0  0  0  0  0  0  0  0  0  0
  -26.8935  -12.6729   20.2474 C   0  0  0  0  0  0  0  0  0  0  0  0
  -22.6943  -24.1110   17.3778 C   0  0  0  0  0  0  0  0  0  0  0  0
  -26.4265  -13.4101   21.4985 C   0  0  0  0  0  0  0  0  0  0  0  0
  -23.5676  -23.1472   18.1713 C   0  0  0  0  0  0  0  0  0  0  0  0
  -22.1805  -24.3755   25.3081 C   0  0  0  0  0  0  0  0  0  0  0  0
  -21.2661  -24.1063   17.9016 C   0  0  0  0  0  0  0  0  0  0  0  0
  -21.7568  -25.2878   24.1675 C   0  0  0  0  0  0  0  0  0  0  0  0
  -22.0762  -23.5599   20.1960 C   0  0  0  0  0  0  0  0  0  0  0  0
  -25.0875  -14.1167   21.2549 C   0  0  1  0  0  0  0  0  0  0  0  0
  -25.7934  -17.6722   20.1175 C   0  0  1  0  0  0  0  0  0  0  0  0
  -21.3305  -23.1160   25.3647 C   0  0  2  0  0  0  0  0  0  0  0  0
  -23.5262  -23.4366   19.6795 C   0  0  2  0  0  0  0  0  0  0  0  0
  -18.1211  -28.1199   26.0773 C   0  0  0  0  0  0  0  0  0  0  0  0
  -20.4964  -28.9589   25.9822 C   0  0  0  0  0  0  0  0  0  0  0  0
  -31.2923  -23.2209   19.5107 C   0  0  0  0  0  0  0  0  0  0  0  0
  -29.6771  -17.2137   22.5806 C   0  0  0  0  0  0  0  0  0  0  0  0
  -31.3344  -19.0745   22.3377 C   0  0  0  0  0  0  0  0  0  0  0  0
  -31.0288  -17.4293   20.4876 C   0  0  0  0  0  0  0  0  0  0  0  0
  -28.2083  -22.1036   17.5828 C   0  0  0  0  0  0  0  0  0  0  0  0
  -21.5466  -22.1966   24.1615 C   0  0  0  0  0  0  0  0  0  1  0  0
  -19.5163  -27.8883   25.4698 C   0  0  0  0  0  0  0  0  0  0  0  0
  -29.2267  -19.1467   20.9293 C   0  0  1  0  0  0  0  0  0  0  0  0
  -30.2768  -22.2222   18.9779 C   0  0  2  0  0  0  0  0  0  0  0  0
  -30.2891  -18.2217   21.5875 C   0  0  0  0  0  0  0  0  0  0  0  0
  -23.9412  -25.8283   20.1485 N   0  0  0  0  0  0  0  0  0  0  0  0
  -24.4525  -24.5894   20.0496 N   0  0  0  0  0  0  0  0  0  0  0  0
  -20.3037  -25.4985   24.0461 N   0  0  0  0  0  0  0  0  0  0  0  0
  -26.8429  -18.5451   20.6472 N   0  0  0  0  0  0  0  0  0  0  0  0
  -21.1965  -24.3767   19.3396 N   0  0  0  0  0  0  0  0  0  0  0  0
  -26.4638  -23.3545   20.2498 N   0  0  0  0  0  0  0  0  0  0  0  0
  -27.8962  -26.2286   22.2699 N   0  0  0  0  0  0  0  0  0  0  0  0
  -20.2038  -25.4576   21.1924 N   0  0  0  0  0  0  0  0  0  0  0  0
  -25.2892  -15.3365   20.5027 N   0  0  0  0  0  0  0  0  0  0  0  0
  -29.7745  -20.0934   19.9639 N   0  0  0  0  0  0  0  0  0  0  0  0
  -29.2570  -22.9661   18.1857 N   0  3  0  0  0  0  0  0  0  0  0  0
  -18.2092  -24.4386   24.0958 O   0  0  0  0  0  0  0  0  0  0  0  0
  -28.3325  -26.6035   20.0501 O   0  0  0  0  0  0  0  0  0  0  0  0
  -25.8116  -16.7393   22.2865 O   0  0  0  0  0  0  0  0  0  0  0  0
  -28.4812  -17.6357   19.2597 O   0  0  0  0  0  0  0  0  0  0  0  0
  -29.0112  -22.0088   21.0248 O   0  0  0  0  0  0  0  0  0  0  0  0
  -19.4208  -25.8371   19.0423 O   0  0  0  0  0  0  0  0  0  0  0  0
  -24.4475  -32.0777   21.2603 O   0  0  0  0  0  0  0  0  0  0  0  0
  -22.9295  -21.8537   24.0810 O   0  0  0  0  0  0  0  0  0  1  0  0
  -19.3454  -34.0782   21.8688 F   0  0  0  0  0  0  0  0  0  0  0  0
  -23.7130  -33.4118   23.5675 F   0  0  0  0  0  0  0  0  0  0  0  0
  1  2  1  0  0  0  0
  1  6  2  0  0  0  0
  2  7  2  0  0  0  0
  3  9  2  0  0  0  0
  3 10  1  0  0  0  0
  4 11  2  0  0  0  0
  4 18  1  0  0  0  0
  5 12  1  0  0  0  0
  5 18  2  0  0  0  0
  6 20  1  0  0  0  0
  7 22  1  0  0  0  0
  8 13  2  0  0  0  0
  8 21  1  0  0  0  0
  9 24  1  0  0  0  0
 10 26  2  0  0  0  0
 11 27  1  0  0  0  0
 12 27  2  0  0  0  0
 13 28  1  0  0  0  0
 14 15  2  0  0  0  0
 14 29  1  0  0  0  0
 15 30  1  0  0  0  0
 16 23  1  0  0  0  0
 16 28  2  0  0  0  0
 17 30  2  0  0  0  0
 17 31  1  0  0  0  0
 18 32  1  0  0  0  0
 19 32  1  0  0  0  0
 19 33  2  0  0  0  0
 19 35  1  0  0  0  0
 20 22  2  0  0  0  0
 20 40  1  0  0  0  0
 21 23  2  0  0  0  0
 21 41  1  0  0  0  0
 22 52  1  0  0  0  0
 23 42  1  0  0  0  0
 24 25  2  0  0  0  0
 24 64  1  0  0  0  0
 25 26  1  0  0  0  0
 25 70  1  0  0  0  0
 26 75  1  0  0  0  0
 27 85  1  0  0  0  0
 28 86  1  0  0  0  0
 29 31  2  0  0  0  0
 29 85  1  0  0  0  0
 30 87  1  0  0  0  0
 31 88  1  0  0  0  0
 32 68  2  0  0  0  0
 33 69  1  0  0  0  0
 33 73  1  0  0  0  0
 34 43  1  0  0  0  0
 34 70  1  0  0  0  0
 34 79  2  0  0  0  0
 35 74  1  0  0  0  0
 35 80  2  0  0  0  0
 36 53  1  0  0  0  0
 36 76  1  0  0  0  0
 36 81  2  0  0  0  0
 37 65  1  0  0  0  0
 37 71  1  0  0  0  0
 37 82  2  0  0  0  0
 38 66  1  0  0  0  0
 38 77  1  0  0  0  0
 38 83  2  0  0  0  0
 39 72  1  0  0  0  0
 39 75  1  0  0  0  0
 39 84  2  0  0  0  0
 40 44  1  0  0  0  0
 41 53  1  0  0  0  0
 42 71  1  0  0  0  0
 43 54  1  0  0  0  0
 44 46  1  0  0  0  0
 45 47  1  0  0  0  0
 45 49  1  0  0  0  0
 46 52  1  0  0  0  0
 47 55  1  0  0  0  0
 48 50  1  0  0  0  0
 48 54  1  0  0  0  0
 49 72  1  0  0  0  0
 50 70  1  0  0  0  0
 51 55  1  0  0  0  0
 51 72  1  0  0  0  0
 52 76  1  0  0  0  0
 53 71  1  0  0  0  0
 54 63  1  0  0  0  0
 55 69  1  0  0  0  0
 56 64  1  0  0  0  0
 57 64  1  0  0  0  0
 58 66  1  0  0  0  0
 59 67  1  0  0  0  0
 60 67  1  0  0  0  0
 61 67  1  0  0  0  0
 62 78  1  0  0  0  0
 63 86  1  0  0  0  0
 65 67  1  0  0  0  0
 65 77  1  0  0  0  0
 66 78  1  0  0  0  0
 68 69  1  0  0  0  0
M  CHG  1  78   1
M  ISO  4  39 100  63 101  75 100  86 101
M  END
> <Batch ID>
0062

> <Smiles>
CNC(C)C(=O)NC(C(=O)N1Cc2cc([101O:1][101CH2:1]C3CCN(c4c([100NH:0][100C:0](=O)N5CCCC(n6nc(-c7ccc(Oc8ccc(F)cc8F)cc7)c(C(N)=O)c6N)C5)cccc4C(C)C)C(=O)C3)ccc2CC1C(=O)NC1CCCc2ccccc21)C(C)(C)C

> <Shape>
0.212

> <Color>
0.085

> <Negative vol penalty>
0.000

$$$$

  -OEChem-04042323093D

 85 93  0     1  0  0  0  0  0999 V2000
  -28.0653  -33.8606   25.3068 C   0  0  0  0  0  0  0  0  0  0  0  0
  -28.2009  -32.5906   24.7552 C   0  0  0  0  0  0  0  0  0  0  0  0
  -21.9012  -10.2260   21.9642 C   0  0  0  0  0  0  0  0  0  0  0  0
  -24.1397  -10.0111   21.0811 C   0  0  0  0  0  0  0  0  0  0  0  0
  -26.8121  -34.3088   25.7221 C   0  0  0  0  0  0  0  0  0  0  0  0
  -27.0834  -31.7676   24.6197 C   0  0  0  0  0  0  0  0  0  0  0  0
  -26.8833  -29.4922   20.1000 C   0  0  0  0  0  0  0  0  0  0  0  0
  -28.2787  -20.5820   18.1909 C   0  0  0  0  0  0  0  0  0  0  0  0
  -27.1070  -19.8291   18.2667 C   0  0  0  0  0  0  0  0  0  0  0  0
  -21.7321   -8.8445   21.8721 C   0  0  0  0  0  0  0  0  0  0  0  0
  -23.9707   -8.6295   20.9889 C   0  0  0  0  0  0  0  0  0  0  0  0
  -27.7114  -28.3875   19.9061 C   0  0  0  0  0  0  0  0  0  0  0  0
  -22.6441   -6.1009   23.6254 C   0  0  0  0  0  0  0  0  0  0  0  0
  -22.0694   -5.4442   24.7135 C   0  0  0  0  0  0  0  0  0  0  0  0
  -25.8404  -26.9207   20.3146 C   0  0  0  0  0  0  0  0  0  0  0  0
  -20.2669   -4.6778   23.2989 C   0  0  0  0  0  0  0  0  0  0  0  0
  -23.1049  -10.8093   21.5687 C   0  0  0  0  0  0  0  0  0  0  0  0
  -23.7827  -12.9604   22.7607 C   0  0  0  0  0  0  0  0  0  0  0  0
  -25.6771  -33.4945   25.5827 C   0  0  0  0  0  0  0  0  0  0  0  0
  -25.5276  -29.3190   20.4140 C   0  0  0  0  0  0  0  0  0  0  0  0
  -25.8141  -32.2048   25.0348 C   0  0  0  0  0  0  0  0  0  0  0  0
  -24.9966  -28.0248   20.5095 C   0  0  0  0  0  0  0  0  0  0  0  0
  -29.1916  -20.5596   19.2454 C   0  0  0  0  0  0  0  0  0  0  0  0
  -26.8480  -19.0539   19.3971 C   0  0  0  0  0  0  0  0  0  0  0  0
  -22.7669   -8.0463   21.3844 C   0  0  0  0  0  0  0  0  0  0  0  0
  -27.1907  -27.1015   20.0162 C   0  0  0  0  0  0  0  0  0  0  0  0
  -22.0302   -6.0462   22.3740 C   0  0  0  0  0  0  0  0  0  0  0  0
  -20.8808   -4.7325   24.5503 C   0  0  0  0  0  0  0  0  0  0  0  0
  -20.8416   -5.3346   22.2108 C   0  0  0  0  0  0  0  0  0  0  0  0
  -28.9326  -19.7844   20.3757 C   0  0  0  0  0  0  0  0  0  0  0  0
  -27.7608  -19.0315   20.4516 C   0  0  0  0  0  0  0  0  0  0  0  0
  -23.2799  -12.2364   21.6631 C   0  0  0  0  0  0  0  0  0  0  0  0
  -23.7483  -14.2713   22.3522 C   0  0  0  0  0  0  0  0  0  0  0  0
  -24.2400  -12.4900   24.0356 C   0  0  0  0  0  0  0  0  0  0  0  0
  -23.6812  -30.0884   22.8843 C   0  0  0  0  0  0  0  0  0  0  0  0
  -21.3175  -28.9643   20.9681 C   0  0  0  0  0  0  0  0  0  0  0  0
  -29.8708  -23.7659   19.5396 C   0  0  0  0  0  0  0  0  0  0  0  0
  -20.4095  -26.9602   18.3593 C   0  0  0  0  0  0  0  0  0  0  0  0
  -24.6485  -18.2018   18.5124 C   0  0  0  0  0  0  0  0  0  0  0  0
  -24.3513  -34.0043   26.0896 C   0  0  0  0  0  0  0  0  0  0  0  0
  -24.6416  -30.5211   20.5938 C   0  0  0  0  0  0  0  0  0  0  0  0
  -23.5434  -27.7852   20.8246 C   0  0  0  0  0  0  0  0  0  0  0  0
  -23.1545  -33.2141   25.5666 C   0  0  0  0  0  0  0  0  0  0  0  0
  -21.5820  -16.4044   18.3051 C   0  0  0  0  0  0  0  0  0  0  0  0
  -23.4101  -31.7152   25.6883 C   0  0  0  0  0  0  0  0  0  0  0  0
  -21.7917  -15.2193   19.2506 C   0  0  0  0  0  0  0  0  0  0  0  0
  -22.8626  -16.7641   17.5539 C   0  0  0  0  0  0  0  0  0  0  0  0
  -24.2487  -15.8027   19.3493 C   0  0  0  0  0  0  0  0  0  0  0  0
  -24.6214  -31.2922   24.8484 C   0  0  1  0  0  0  0  0  0  0  0  0
  -23.3914  -30.2243   21.4162 C   0  0  1  0  0  0  0  0  0  0  0  0
  -23.0032  -15.4446   20.1764 C   0  0  2  0  0  0  0  0  0  0  0  0
  -18.4007  -26.2207   17.0497 C   0  0  0  0  0  0  0  0  0  0  0  0
  -20.4966  -27.1327   23.2663 C   0  0  0  0  0  0  0  0  0  0  0  0
  -19.1588  -25.7927   21.6283 C   0  0  0  0  0  0  0  0  0  0  0  0
  -18.5889  -28.1862   22.0394 C   0  0  0  0  0  0  0  0  0  0  0  0
  -21.4960  -28.0745   15.8420 C   0  0  0  0  0  0  0  0  0  0  0  0
  -30.4513  -21.3722   19.1617 C   0  0  0  0  0  0  0  0  0  0  0  0
  -29.9314  -24.8314   20.6230 C   0  0  0  0  0  0  0  0  0  0  0  0
  -29.3743  -26.1719   20.1694 C   0  0  0  0  0  0  0  0  0  1  0  0
  -20.6793  -27.6160   20.7366 C   0  0  1  0  0  0  0  0  0  0  0  0
  -19.5409  -27.2227   17.1423 C   0  0  2  0  0  0  0  0  0  0  0  0
  -19.7588  -27.1861   21.9136 C   0  0  0  0  0  0  0  0  0  0  0  0
  -22.9501  -13.0221   20.6346 N   0  0  0  0  0  0  0  0  0  0  0  0
  -23.2462  -14.2535   21.0842 N   0  0  0  0  0  0  0  0  0  0  0  0
  -22.7190  -28.9926   20.9979 N   0  0  0  0  0  0  0  0  0  0  0  0
  -23.9659  -16.9670   18.4954 N   0  0  0  0  0  0  0  0  0  0  0  0
  -24.0987  -15.4259   22.9575 N   0  0  0  0  0  0  0  0  0  0  0  0
  -24.2075  -11.1122   24.2904 N   0  0  0  0  0  0  0  0  0  0  0  0
  -25.6570  -18.2899   19.4715 N   0  0  0  0  0  0  0  0  0  0  0  0
  -24.2617  -31.2080   23.4492 N   0  0  0  0  0  0  0  0  0  0  0  0
  -30.3860  -22.5574   19.9861 N   0  0  0  0  0  0  0  0  0  0  0  0
  -20.0009  -27.7014   19.4479 N   0  0  0  0  0  0  0  0  0  0  0  0
  -20.3528  -27.1274   15.8962 N   0  3  0  0  0  0  0  0  0  0  0  0
  -24.6496  -13.2700   24.9286 O   0  0  0  0  0  0  0  0  0  0  0  0
  -23.3977  -29.0456   23.4621 O   0  0  0  0  0  0  0  0  0  0  0  0
  -20.5992  -29.9570   21.1100 O   0  0  0  0  0  0  0  0  0  0  0  0
  -29.4180  -23.9718   18.4169 O   0  0  0  0  0  0  0  0  0  0  0  0
  -21.3536  -26.1735   18.3466 O   0  0  0  0  0  0  0  0  0  0  0  0
  -24.3417  -19.1235   17.7520 O   0  0  0  0  0  0  0  0  0  0  0  0
  -22.6024   -6.6981   21.2946 O   0  0  0  0  0  0  0  0  0  0  0  0
  -27.9969  -26.0215   19.8281 O   0  0  0  0  0  0  0  0  0  1  0  0
  -20.3299   -4.1006   25.5949 F   0  0  0  0  0  0  0  0  0  0  0  0
  -20.2479   -5.2774   21.0108 F   0  0  0  0  0  0  0  0  0  0  0  0
  -29.8037  -19.7571   21.3940 F   0  0  0  0  0  0  0  0  0  0  0  0
  -27.5224  -18.2900   21.5424 F   0  0  0  0  0  0  0  0  0  0  0  0
  1  2  1  0  0  0  0
  1  5  2  0  0  0  0
  2  6  2  0  0  0  0
  3 10  2  0  0  0  0
  3 17  1  0  0  0  0
  4 11  1  0  0  0  0
  4 17  2  0  0  0  0
  5 19  1  0  0  0  0
  6 21  1  0  0  0  0
  7 12  2  0  0  0  0
  7 20  1  0  0  0  0
  8  9  2  0  0  0  0
  8 23  1  0  0  0  0
  9 24  1  0  0  0  0
 10 25  1  0  0  0  0
 11 25  2  0  0  0  0
 12 26  1  0  0  0  0
 13 14  2  0  0  0  0
 13 27  1  0  0  0  0
 14 28  1  0  0  0  0
 15 22  1  0  0  0  0
 15 26  2  0  0  0  0
 16 28  2  0  0  0  0
 16 29  1  0  0  0  0
 17 32  1  0  0  0  0
 18 32  1  0  0  0  0
 18 33  2  0  0  0  0
 18 34  1  0  0  0  0
 19 21  2  0  0  0  0
 19 40  1  0  0  0  0
 20 22  2  0  0  0  0
 20 41  1  0  0  0  0
 21 49  1  0  0  0  0
 22 42  1  0  0  0  0
 23 30  2  0  0  0  0
 23 57  1  0  0  0  0
 24 31  2  0  0  0  0
 24 69  1  0  0  0  0
 25 80  1  0  0  0  0
 26 81  1  0  0  0  0
 27 29  2  0  0  0  0
 27 80  1  0  0  0  0
 28 82  1  0  0  0  0
 29 83  1  0  0  0  0
 30 31  1  0  0  0  0
 30 84  1  0  0  0  0
 31 85  1  0  0  0  0
 32 63  2  0  0  0  0
 33 64  1  0  0  0  0
 33 67  1  0  0  0  0
 34 68  1  0  0  0  0
 34 74  2  0  0  0  0
 35 50  1  0  0  0  0
 35 70  1  0  0  0  0
 35 75  2  0  0  0  0
 36 60  1  0  0  0  0
 36 65  1  0  0  0  0
 36 76  2  0  0  0  0
 37 58  1  0  0  0  0
 37 71  1  0  0  0  0
 37 77  2  0  0  0  0
 38 61  1  0  0  0  0
 38 72  1  0  0  0  0
 38 78  2  0  0  0  0
 39 66  1  0  0  0  0
 39 69  1  0  0  0  0
 39 79  2  0  0  0  0
 40 43  1  0  0  0  0
 41 50  1  0  0  0  0
 42 65  1  0  0  0  0
 43 45  1  0  0  0  0
 44 46  1  0  0  0  0
 44 47  1  0  0  0  0
 45 49  1  0  0  0  0
 46 51  1  0  0  0  0
 47 66  1  0  0  0  0
 48 51  1  0  0  0  0
 48 66  1  0  0  0  0
 49 70  1  0  0  0  0
 50 65  1  0  0  0  0
 51 64  1  0  0  0  0
 52 61  1  0  0  0  0
 53 62  1  0  0  0  0
 54 62  1  0  0  0  0
 55 62  1  0  0  0  0
 56 73  1  0  0  0  0
 57 71  1  0  0  0  0
 58 59  1  0  0  0  0
 59 81  1  0  0  0  0
 60 62  1  0  0  0  0
 60 72  1  0  0  0  0
 61 73  1  0  0  0  0
 63 64  1  0  0  0  0
M  CHG  1  73   1
M  ISO  4  39 100  59 101  69 100  81 101
M  END
> <Batch ID>
0062

> <Smiles>
CNC(C)C(=O)NC(C(=O)N1Cc2cc([101O:1][101CH2:1]CC(=O)NCc3ccc([100NH:0][100C:0](=O)N4CCCC(n5nc(-c6ccc(Oc7ccc(F)cc7F)cc6)c(C(N)=O)c5N)C4)c(F)c3F)ccc2CC1C(=O)NC1CCCc2ccccc21)C(C)(C)C

> <Shape>
0.305

> <Color>
0.099

> <Negative vol penalty>
0.000

$$$$

  -OEChem-04042323093D

 87 96  0     1  0  0  0  0  0999 V2000
  -22.4162  -28.3898   22.4255 C   0  0  0  0  0  0  0  0  0  0  0  0
  -23.2013  -27.3614   22.9370 C   0  0  0  0  0  0  0  0  0  0  0  0
  -32.6677  -17.4761   23.4286 C   0  0  0  0  0  0  0  0  0  0  0  0
  -23.0784   -9.8640   19.9421 C   0  0  0  0  0  0  0  0  0  0  0  0
  -23.8329   -9.8786   22.2373 C   0  0  0  0  0  0  0  0  0  0  0  0
  -21.3591  -28.8989   23.1786 C   0  0  0  0  0  0  0  0  0  0  0  0
  -22.9303  -26.8423   24.2025 C   0  0  0  0  0  0  0  0  0  0  0  0
  -23.0619  -21.7808   24.2951 C   0  0  0  0  0  0  0  0  0  0  0  0
  -31.8898  -18.3547   24.1826 C   0  0  0  0  0  0  0  0  0  0  0  0
  -32.0579  -16.5985   22.5321 C   0  0  0  0  0  0  0  0  0  0  0  0
  -22.3345   -8.7113   20.1939 C   0  0  0  0  0  0  0  0  0  0  0  0
  -23.0890   -8.7258   22.4891 C   0  0  0  0  0  0  0  0  0  0  0  0
  -24.3182  -21.1770   24.3243 C   0  0  0  0  0  0  0  0  0  0  0  0
  -19.8598   -7.9281   23.0865 C   0  0  0  0  0  0  0  0  0  0  0  0
  -19.1001   -7.8914   24.2557 C   0  0  0  0  0  0  0  0  0  0  0  0
  -24.0971  -20.8461   26.7036 C   0  0  0  0  0  0  0  0  0  0  0  0
  -20.3408   -5.9569   25.0011 C   0  0  0  0  0  0  0  0  0  0  0  0
  -23.8276  -10.4477   20.9638 C   0  0  0  0  0  0  0  0  0  0  0  0
  -29.8925  -17.4780   23.1440 C   0  0  0  0  0  0  0  0  0  0  0  0
  -24.1684  -12.9726   20.8367 C   0  0  0  0  0  0  0  0  0  0  0  0
  -21.0690  -28.3792   24.4500 C   0  0  0  0  0  0  0  0  0  0  0  0
  -22.3172  -21.9319   25.4737 C   0  0  0  0  0  0  0  0  0  0  0  0
  -21.8691  -27.3459   24.9739 C   0  0  0  0  0  0  0  0  0  0  0  0
  -22.8305  -21.4499   26.6862 C   0  0  0  0  0  0  0  0  0  0  0  0
  -30.5023  -18.3557   24.0404 C   0  0  0  0  0  0  0  0  0  0  0  0
  -30.6703  -16.5994   22.3898 C   0  0  0  0  0  0  0  0  0  0  0  0
  -22.3398   -8.1422   21.4674 C   0  0  0  0  0  0  0  0  0  0  0  0
  -24.8372  -20.7121   25.5291 C   0  0  0  0  0  0  0  0  0  0  0  0
  -20.8600   -6.9792   22.8745 C   0  0  0  0  0  0  0  0  0  0  0  0
  -19.3407   -6.9058   25.2130 C   0  0  0  0  0  0  0  0  0  0  0  0
  -21.1005   -5.9936   23.8318 C   0  0  0  0  0  0  0  0  0  0  0  0
  -24.5966  -11.6382   20.7042 C   0  0  0  0  0  0  0  0  0  0  0  0
  -25.2610  -13.7216   20.4737 C   0  0  0  0  0  0  0  0  0  0  0  0
  -28.7279  -18.9319   25.7575 C   0  0  0  0  0  0  0  0  0  0  0  0
  -28.4384  -17.4766   22.9971 C   0  0  0  0  0  0  0  0  0  0  0  0
  -22.8966  -13.4891   21.2510 C   0  0  0  0  0  0  0  0  0  0  0  0
  -21.1958  -24.4115   27.1161 C   0  0  0  0  0  0  0  0  0  0  0  0
  -19.7682  -22.0969   28.8844 C   0  0  0  0  0  0  0  0  0  0  0  0
  -19.7492  -18.8491   29.9327 C   0  0  0  0  0  0  0  0  0  0  0  0
  -30.7262  -14.7707   20.6581 C   0  0  0  0  0  0  0  0  0  0  0  0
  -19.9454  -28.9939   25.2465 C   0  0  0  0  0  0  0  0  0  0  0  0
  -20.9521  -22.5614   25.4209 C   0  0  0  0  0  0  0  0  0  0  0  0
  -22.0622  -21.5696   27.9761 C   0  0  0  0  0  0  0  0  0  0  0  0
  -19.4914  -28.1340   26.4232 C   0  0  0  0  0  0  0  0  0  0  0  0
  -29.6186  -12.3489   18.2947 C   0  0  0  0  0  0  0  0  0  0  0  0
  -20.6961  -27.6246   27.2082 C   0  0  0  0  0  0  0  0  0  0  0  0
  -28.1781  -12.0579   18.7218 C   0  0  0  0  0  0  0  0  0  0  0  0
  -28.7002  -21.2859   25.4083 C   0  0  0  0  0  0  0  0  0  0  0  0
  -30.5308  -12.5819   19.4978 C   0  0  0  0  0  0  0  0  0  0  0  0
  -29.9461  -20.6995   24.7751 C   0  0  0  0  0  0  0  0  0  0  0  0
  -28.6202  -13.3096   20.8723 C   0  0  0  0  0  0  0  0  0  0  0  0
  -21.5912  -26.7396   26.3324 C   0  0  1  0  0  0  0  0  0  0  0  0
  -28.2973  -20.2279   26.4252 C   0  0  1  0  0  0  0  0  0  0  0  0
  -20.5021  -23.1258   26.7649 C   0  0  1  0  0  0  0  0  0  0  0  0
  -27.6502  -13.1322   19.6927 C   0  0  2  0  0  0  0  0  0  0  0  0
  -27.8518  -18.3914   21.9663 C   0  0  0  0  0  0  0  0  0  0  0  0
  -18.4802  -17.2617   31.4048 C   0  0  0  0  0  0  0  0  0  0  0  0
  -21.0380  -23.3712   31.3489 C   0  0  0  0  0  0  0  0  0  0  0  0
  -20.5450  -21.2634   32.6069 C   0  0  0  0  0  0  0  0  0  0  0  0
  -18.6742  -22.6181   31.6647 C   0  0  0  0  0  0  0  0  0  0  0  0
  -19.0799  -17.0861   27.6517 C   0  0  0  0  0  0  0  0  0  0  0  0
  -26.8187  -20.2589   26.7637 C   0  0  0  0  0  0  0  0  0  1  0  0
  -20.1532  -21.2910   30.1015 C   0  0  1  0  0  0  0  0  0  0  0  0
  -18.6367  -17.8184   29.9982 C   0  0  2  0  0  0  0  0  0  0  0  0
  -20.1182  -22.1353   31.4067 C   0  0  0  0  0  0  0  0  0  0  0  0
  -25.8625  -11.5417   20.2892 N   0  0  0  0  0  0  0  0  0  0  0  0
  -26.2391  -12.8251   20.1577 N   0  0  0  0  0  0  0  0  0  0  0  0
  -29.7303  -19.2654   24.8235 N   0  0  0  0  0  0  0  0  0  0  0  0
  -20.7349  -22.1983   27.8739 N   0  0  0  0  0  0  0  0  0  0  0  0
  -29.9692  -13.6152   20.3706 N   0  0  0  0  0  0  0  0  0  0  0  0
  -25.4708  -15.0529   20.3970 N   0  0  0  0  0  0  0  0  0  0  0  0
  -21.8844  -12.5804   21.5887 N   0  0  0  0  0  0  0  0  0  0  0  0
  -30.0764  -15.6979   21.4720 N   0  0  0  0  0  0  0  0  0  0  0  0
  -21.0133  -25.4205   26.1898 N   0  0  0  0  0  0  0  0  0  0  0  0
  -19.2710  -20.1291   30.1176 N   0  0  0  0  0  0  0  0  0  0  0  0
  -18.9251  -16.6855   29.0739 N   0  3  0  0  0  0  0  0  0  0  0  0
  -28.2855  -17.8369   26.0734 O   0  0  0  0  0  0  0  0  0  0  0  0
  -27.6692  -16.7847   23.6600 O   0  0  0  0  0  0  0  0  0  0  0  0
  -22.6596  -14.7197   21.3040 O   0  0  0  0  0  0  0  0  0  0  0  0
  -21.8471  -24.4833   28.1517 O   0  0  0  0  0  0  0  0  0  0  0  0
  -18.6484  -22.6113   28.8291 O   0  0  0  0  0  0  0  0  0  0  0  0
  -20.9253  -18.5485   29.7406 O   0  0  0  0  0  0  0  0  0  0  0  0
  -31.8563  -14.9385   20.1926 O   0  0  0  0  0  0  0  0  0  0  0  0
  -21.6139   -7.0174   21.7135 O   0  0  0  0  0  0  0  0  0  0  0  0
  -26.0635  -20.1229   25.5606 O   0  0  0  0  0  0  0  0  0  1  0  0
  -18.6121   -6.8717   26.3365 F   0  0  0  0  0  0  0  0  0  0  0  0
  -22.0608   -5.0800   23.6343 F   0  0  0  0  0  0  0  0  0  0  0  0
  1  2  1  0  0  0  0
  1  6  2  0  0  0  0
  2  7  2  0  0  0  0
  3  9  2  0  0  0  0
  3 10  1  0  0  0  0
  4 11  2  0  0  0  0
  4 18  1  0  0  0  0
  5 12  1  0  0  0  0
  5 18  2  0  0  0  0
  6 21  1  0  0  0  0
  7 23  1  0  0  0  0
  8 13  2  0  0  0  0
  8 22  1  0  0  0  0
  9 25  1  0  0  0  0
 10 26  2  0  0  0  0
 11 27  1  0  0  0  0
 12 27  2  0  0  0  0
 13 28  1  0  0  0  0
 14 15  2  0  0  0  0
 14 29  1  0  0  0  0
 15 30  1  0  0  0  0
 16 24  1  0  0  0  0
 16 28  2  0  0  0  0
 17 30  2  0  0  0  0
 17 31  1  0  0  0  0
 18 32  1  0  0  0  0
 19 25  2  0  0  0  0
 19 26  1  0  0  0  0
 19 35  1  0  0  0  0
 20 32  1  0  0  0  0
 20 33  2  0  0  0  0
 20 36  1  0  0  0  0
 21 23  2  0  0  0  0
 21 41  1  0  0  0  0
 22 24  2  0  0  0  0
 22 42  1  0  0  0  0
 23 52  1  0  0  0  0
 24 43  1  0  0  0  0
 25 68  1  0  0  0  0
 26 73  1  0  0  0  0
 27 84  1  0  0  0  0
 28 85  1  0  0  0  0
 29 31  2  0  0  0  0
 29 84  1  0  0  0  0
 30 86  1  0  0  0  0
 31 87  1  0  0  0  0
 32 66  2  0  0  0  0
 33 67  1  0  0  0  0
 33 71  1  0  0  0  0
 34 53  1  0  0  0  0
 34 68  1  0  0  0  0
 34 77  2  0  0  0  0
 35 56  1  0  0  0  0
 35 78  2  0  0  0  0
 36 72  1  0  0  0  0
 36 79  2  0  0  0  0
 37 54  1  0  0  0  0
 37 74  1  0  0  0  0
 37 80  2  0  0  0  0
 38 63  1  0  0  0  0
 38 69  1  0  0  0  0
 38 81  2  0  0  0  0
 39 64  1  0  0  0  0
 39 75  1  0  0  0  0
 39 82  2  0  0  0  0
 40 70  1  0  0  0  0
 40 73  1  0  0  0  0
 40 83  2  0  0  0  0
 41 44  1  0  0  0  0
 42 54  1  0  0  0  0
 43 69  1  0  0  0  0
 44 46  1  0  0  0  0
 45 47  1  0  0  0  0
 45 49  1  0  0  0  0
 46 52  1  0  0  0  0
 47 55  1  0  0  0  0
 48 50  1  0  0  0  0
 48 53  1  0  0  0  0
 49 70  1  0  0  0  0
 50 68  1  0  0  0  0
 51 55  1  0  0  0  0
 51 70  1  0  0  0  0
 52 74  1  0  0  0  0
 53 62  1  0  0  0  0
 54 69  1  0  0  0  0
 55 67  1  0  0  0  0
 57 64  1  0  0  0  0
 58 65  1  0  0  0  0
 59 65  1  0  0  0  0
 60 65  1  0  0  0  0
 61 76  1  0  0  0  0
 62 85  1  0  0  0  0
 63 65  1  0  0  0  0
 63 75  1  0  0  0  0
 64 76  1  0  0  0  0
 66 67  1  0  0  0  0
M  CHG  1  76   1
M  ISO  4  40 100  62 101  73 100  85 101
M  END
> <Batch ID>
0062

> <Smiles>
CNC(C)C(=O)NC(C(=O)N1Cc2cc([101O:1][101CH2:1]C3CCN(c4cccc([100NH:0][100C:0](=O)N5CCCC(n6nc(-c7ccc(Oc8ccc(F)cc8F)cc7)c(C(N)=O)c6N)C5)c4C(C)=O)C3=O)ccc2CC1C(=O)NC1CCCc2ccccc21)C(C)(C)C

> <Shape>
0.191

> <Color>
0.188

> <Negative vol penalty>
0.000

$$$$

  -OEChem-04042323093D

 89 98  0     1  0  0  0  0  0999 V2000
  -30.6728  -22.5524   21.8611 C   0  0  0  0  0  0  0  0  0  0  0  0
  -30.3081  -23.6445   21.0818 C   0  0  0  0  0  0  0  0  0  0  0  0
  -25.9038  -12.0440   19.4150 C   0  0  0  0  0  0  0  0  0  0  0  0
  -25.8307  -12.7723   21.7174 C   0  0  0  0  0  0  0  0  0  0  0  0
  -29.7334  -21.9533   22.6978 C   0  0  0  0  0  0  0  0  0  0  0  0
  -29.0075  -24.1453   21.1478 C   0  0  0  0  0  0  0  0  0  0  0  0
  -27.2522  -22.5926   17.2674 C   0  0  0  0  0  0  0  0  0  0  0  0
  -28.0935  -28.3195   18.7098 C   0  0  0  0  0  0  0  0  0  0  0  0
  -27.9522  -21.6458   18.0145 C   0  0  0  0  0  0  0  0  0  0  0  0
  -24.6048  -11.5492   19.5302 C   0  0  0  0  0  0  0  0  0  0  0  0
  -24.5317  -12.2775   21.8327 C   0  0  0  0  0  0  0  0  0  0  0  0
  -28.0245  -28.3802   17.3186 C   0  0  0  0  0  0  0  0  0  0  0  0
  -23.0855   -8.8168   20.8150 C   0  0  0  0  0  0  0  0  0  0  0  0
  -22.8265   -7.5502   20.2914 C   0  0  0  0  0  0  0  0  0  0  0  0
  -26.3317  -19.9735   17.3958 C   0  0  0  0  0  0  0  0  0  0  0  0
  -25.6177  -28.4780   17.4483 C   0  0  0  0  0  0  0  0  0  0  0  0
  -21.1807   -8.5028   18.8011 C   0  0  0  0  0  0  0  0  0  0  0  0
  -26.5168  -12.6555   20.5086 C   0  0  0  0  0  0  0  0  0  0  0  0
  -25.6163  -20.9180   16.6373 C   0  0  0  0  0  0  0  0  0  0  0  0
  -29.0203  -12.4385   20.0693 C   0  0  0  0  0  0  0  0  0  0  0  0
  -26.0816  -22.2450   16.5700 C   0  0  0  0  0  0  0  0  0  0  0  0
  -28.4174  -22.4399   22.7641 C   0  0  0  0  0  0  0  0  0  0  0  0
  -26.9227  -28.3266   19.4815 C   0  0  0  0  0  0  0  0  0  0  0  0
  -28.0515  -23.5693   22.0040 C   0  0  0  0  0  0  0  0  0  0  0  0
  -25.6746  -28.4199   18.8492 C   0  0  0  0  0  0  0  0  0  0  0  0
  -27.4913  -20.3364   18.0796 C   0  0  0  0  0  0  0  0  0  0  0  0
  -23.9187  -11.6660   20.7391 C   0  0  0  0  0  0  0  0  0  0  0  0
  -26.7864  -28.4565   16.6875 C   0  0  0  0  0  0  0  0  0  0  0  0
  -22.3921   -9.9265   20.3316 C   0  0  0  0  0  0  0  0  0  0  0  0
  -21.8741   -7.3932   19.2845 C   0  0  0  0  0  0  0  0  0  0  0  0
  -21.4398   -9.7694   19.3247 C   0  0  0  0  0  0  0  0  0  0  0  0
  -27.8589  -13.1664   20.3903 C   0  0  0  0  0  0  0  0  0  0  0  0
  -30.0264  -13.3734   20.0836 C   0  0  0  0  0  0  0  0  0  0  0  0
  -24.4142  -20.4888   15.8994 C   0  0  0  0  0  0  0  0  0  0  0  0
  -23.3806  -19.9243   16.5438 C   0  0  0  0  0  0  0  0  0  0  0  0
  -29.1758  -11.0421   19.7836 C   0  0  0  0  0  0  0  0  0  0  0  0
  -25.5639  -26.2961   21.5148 C   0  0  0  0  0  0  0  0  0  0  0  0
  -23.4909  -28.7489   21.9719 C   0  0  0  0  0  0  0  0  0  0  0  0
  -26.3215  -25.1239   13.4442 C   0  0  0  0  0  0  0  0  0  0  0  0
  -20.9316  -30.9255   22.5713 C   0  0  0  0  0  0  0  0  0  0  0  0
  -29.3727  -19.5571   19.5739 C   0  0  0  0  0  0  0  0  0  0  0  0
  -27.4434  -21.7583   23.6925 C   0  0  0  0  0  0  0  0  0  0  0  0
  -27.0153  -28.2876   20.9823 C   0  0  0  0  0  0  0  0  0  0  0  0
  -24.3889  -28.4513   19.6330 C   0  0  0  0  0  0  0  0  0  0  0  0
  -25.3394  -23.3226   15.8187 C   0  0  0  0  0  0  0  0  0  0  0  0
  -24.4264  -20.6935   14.4088 C   0  0  0  0  0  0  0  0  0  0  0  0
  -25.9881  -22.0757   23.3645 C   0  0  0  0  0  0  0  0  0  0  0  0
  -30.9318  -17.5932   22.2888 C   0  0  0  0  0  0  0  0  0  0  0  0
  -25.8055  -23.5783   23.2115 C   0  0  0  0  0  0  0  0  0  0  0  0
  -30.6446  -16.1254   21.9689 C   0  0  0  0  0  0  0  0  0  0  0  0
  -31.0475  -18.4594   21.0421 C   0  0  0  0  0  0  0  0  0  0  0  0
  -29.1842  -17.0690   20.1118 C   0  0  0  0  0  0  0  0  0  0  0  0
  -24.0852  -22.1134   13.9738 C   0  0  0  0  0  0  0  0  0  0  0  0
  -26.6343  -24.1123   22.0364 C   0  0  1  0  0  0  0  0  0  0  0  0
  -25.7382  -27.7827   21.6467 C   0  0  1  0  0  0  0  0  0  0  0  0
  -30.0987  -15.9133   20.5470 C   0  0  2  0  0  0  0  0  0  0  0  0
  -18.5600  -31.0006   23.3879 C   0  0  0  0  0  0  0  0  0  0  0  0
  -22.5366  -27.6384   19.2950 C   0  0  0  0  0  0  0  0  0  0  0  0
  -20.2782  -28.6049   19.7782 C   0  0  0  0  0  0  0  0  0  0  0  0
  -21.2291  -26.8518   21.2765 C   0  0  0  0  0  0  0  0  0  0  0  0
  -21.6478  -32.6793   24.8452 C   0  0  0  0  0  0  0  0  0  0  0  0
  -25.0152  -24.3832   13.5826 C   0  0  0  0  0  0  0  0  0  0  0  0
  -27.2239  -27.4225   13.2448 C   0  0  0  0  0  0  0  0  0  0  0  0
  -27.7536  -27.8674   14.5963 C   0  0  0  0  0  0  0  0  0  1  0  0
  -22.1957  -29.1873   21.3323 C   0  0  1  0  0  0  0  0  0  0  0  0
  -20.0264  -31.1087   23.7761 C   0  0  2  0  0  0  0  0  0  0  0  0
  -21.5830  -28.0872   20.4202 C   0  0  0  0  0  0  0  0  0  0  0  0
  -28.1032  -14.4636   20.5938 N   0  0  0  0  0  0  0  0  0  0  0  0
  -29.4297  -14.5583   20.4003 N   0  0  0  0  0  0  0  0  0  0  0  0
  -24.5315  -28.4045   21.0976 N   0  0  0  0  0  0  0  0  0  0  0  0
  -29.8347  -18.3859   20.2224 N   0  0  0  0  0  0  0  0  0  0  0  0
  -31.3544  -13.2894   19.8561 N   0  0  0  0  0  0  0  0  0  0  0  0
  -28.0385  -10.2236   19.8118 N   0  0  0  0  0  0  0  0  0  0  0  0
  -28.2009  -19.3709   18.8362 N   0  0  0  0  0  0  0  0  0  0  0  0
  -26.6006  -25.5581   22.0534 N   0  0  0  0  0  0  0  0  0  0  0  0
  -26.1256  -26.4952   13.3777 N   0  0  0  0  0  0  0  0  0  0  0  0
  -21.3251  -29.6123   22.4231 N   0  0  0  0  0  0  0  0  0  0  0  0
  -25.1940  -23.0814   14.3263 N   0  3  1  0  0  0  0  0  0  0  0  0
  -20.2515  -32.4457   24.3947 N   0  3  0  0  0  0  0  0  0  0  0  0
  -30.2929  -10.5322   19.5275 O   0  0  0  0  0  0  0  0  0  0  0  0
  -24.5623  -25.8515   20.9664 O   0  0  0  0  0  0  0  0  0  0  0  0
  -23.5785  -28.7201   23.2020 O   0  0  0  0  0  0  0  0  0  0  0  0
  -27.4131  -24.5629   13.3991 O   0  0  0  0  0  0  0  0  0  0  0  0
  -21.2543  -31.8538   21.8333 O   0  0  0  0  0  0  0  0  0  0  0  0
  -29.9645  -20.6334   19.6821 O   0  0  0  0  0  0  0  0  0  0  0  0
  -22.6510  -11.1834   20.8519 O   0  0  0  0  0  0  0  0  0  0  0  0
  -26.7156  -28.5156   15.3202 O   0  0  0  0  0  0  0  0  0  1  0  0
  -21.6265   -6.1770   18.7807 F   0  0  0  0  0  0  0  0  0  0  0  0
  -20.7713  -10.8319   18.8554 F   0  0  0  0  0  0  0  0  0  0  0  0
  1  2  1  0  0  0  0
  1  5  2  0  0  0  0
  2  6  2  0  0  0  0
  3 10  2  0  0  0  0
  3 18  1  0  0  0  0
  4 11  1  0  0  0  0
  4 18  2  0  0  0  0
  5 22  1  0  0  0  0
  6 24  1  0  0  0  0
  7  9  2  0  0  0  0
  7 21  1  0  0  0  0
  8 12  2  0  0  0  0
  8 23  1  0  0  0  0
  9 26  1  0  0  0  0
 10 27  1  0  0  0  0
 11 27  2  0  0  0  0
 12 28  1  0  0  0  0
 13 14  2  0  0  0  0
 13 29  1  0  0  0  0
 14 30  1  0  0  0  0
 15 19  1  0  0  0  0
 15 26  2  0  0  0  0
 16 25  1  0  0  0  0
 16 28  2  0  0  0  0
 17 30  2  0  0  0  0
 17 31  1  0  0  0  0
 18 32  1  0  0  0  0
 19 21  2  0  0  0  0
 19 34  1  0  0  0  0
 20 32  1  0  0  0  0
 20 33  2  0  0  0  0
 20 36  1  0  0  0  0
 21 45  1  0  0  0  0
 22 24  2  0  0  0  0
 22 42  1  0  0  0  0
 23 25  2  0  0  0  0
 23 43  1  0  0  0  0
 24 54  1  0  0  0  0
 25 44  1  0  0  0  0
 26 74  1  0  0  0  0
 27 86  1  0  0  0  0
 28 87  1  0  0  0  0
 29 31  2  0  0  0  0
 29 86  1  0  0  0  0
 30 88  1  0  0  0  0
 31 89  1  0  0  0  0
 32 68  2  0  0  0  0
 33 69  1  0  0  0  0
 33 72  1  0  0  0  0
 34 35  2  0  0  0  0
 34 46  1  0  0  0  0
 36 73  1  0  0  0  0
 36 80  2  0  0  0  0
 37 55  1  0  0  0  0
 37 75  1  0  0  0  0
 37 81  2  0  0  0  0
 38 65  1  0  0  0  0
 38 70  1  0  0  0  0
 38 82  2  0  0  0  0
 39 62  1  0  0  0  0
 39 76  1  0  0  0  0
 39 83  2  0  0  0  0
 40 66  1  0  0  0  0
 40 77  1  0  0  0  0
 40 84  2  0  0  0  0
 41 71  1  0  0  0  0
 41 74  1  0  0  0  0
 41 85  2  0  0  0  0
 42 47  1  0  0  0  0
 43 55  1  0  0  0  0
 44 70  1  0  0  0  0
 45 78  1  0  0  0  0
 46 53  1  0  0  0  0
 47 49  1  0  0  0  0
 48 50  1  0  0  0  0
 48 51  1  0  0  0  0
 49 54  1  0  0  0  0
 50 56  1  0  0  0  0
 51 71  1  0  0  0  0
 52 56  1  0  0  0  0
 52 71  1  0  0  0  0
 53 78  1  0  0  0  0
 54 75  1  0  0  0  0
 55 70  1  0  0  0  0
 56 69  1  0  0  0  0
 57 66  1  0  0  0  0
 58 67  1  0  0  0  0
 59 67  1  0  0  0  0
 60 67  1  0  0  0  0
 61 79  1  0  0  0  0
 62 78  1  0  0  0  0
 63 64  1  0  0  0  0
 63 76  1  0  0  0  0
 64 87  1  0  0  0  0
 65 67  1  0  0  0  0
 65 77  1  0  0  0  0
 66 79  1  0  0  0  0
 68 69  1  0  0  0  0
M  CHG  2  78   1  79   1
M  ISO  4  41 100  64 101  74 100  87 101
M  END
> <Batch ID>
0062

> <Smiles>
C=C1CCN(CC(=O)NC[101CH2:1][101O:1]c2ccc3c(c2)CN(C(=O)C(NC(=O)C(C)NC)C(C)(C)C)C(C(=O)NC2CCCc4ccccc42)C3)Cc2ccc([100NH:0][100C:0](=O)N3CCCC(n4nc(-c5ccc(Oc6ccc(F)cc6F)cc5)c(C(N)=O)c4N)C3)cc21

> <Shape>
0.224

> <Color>
0.085

> <Negative vol penalty>
0.000

$$$$

  -OEChem-04042323093D

 83 91  0     1  0  0  0  0  0999 V2000
  -20.7070  -33.9165   15.3762 C   0  0  0  0  0  0  0  0  0  0  0  0
  -21.5300  -32.7999   15.4822 C   0  0  0  0  0  0  0  0  0  0  0  0
  -32.2564  -18.5006   21.1899 C   0  0  0  0  0  0  0  0  0  0  0  0
  -22.9327  -11.5986   21.5332 C   0  0  0  0  0  0  0  0  0  0  0  0
  -22.9220  -13.9949   21.2250 C   0  0  0  0  0  0  0  0  0  0  0  0
  -20.9190  -35.0184   16.2037 C   0  0  0  0  0  0  0  0  0  0  0  0
  -22.5662  -32.7849   16.4151 C   0  0  0  0  0  0  0  0  0  0  0  0
  -24.6134  -27.9492   19.5664 C   0  0  0  0  0  0  0  0  0  0  0  0
  -31.4568  -19.6085   20.9094 C   0  0  0  0  0  0  0  0  0  0  0  0
  -31.8228  -17.2214   20.8414 C   0  0  0  0  0  0  0  0  0  0  0  0
  -21.9161  -11.7160   22.4810 C   0  0  0  0  0  0  0  0  0  0  0  0
  -21.9053  -14.1122   22.1727 C   0  0  0  0  0  0  0  0  0  0  0  0
  -25.6987  -27.0954   19.3741 C   0  0  0  0  0  0  0  0  0  0  0  0
  -18.5582  -13.6644   22.3011 C   0  0  0  0  0  0  0  0  0  0  0  0
  -17.4842  -14.5009   21.9971 C   0  0  0  0  0  0  0  0  0  0  0  0
  -27.0050  -28.4198   20.9098 C   0  0  0  0  0  0  0  0  0  0  0  0
  -29.7899  -18.1581   19.9321 C   0  0  0  0  0  0  0  0  0  0  0  0
  -17.9817  -15.8461   23.9414 C   0  0  0  0  0  0  0  0  0  0  0  0
  -23.4357  -12.7381   20.9052 C   0  0  0  0  0  0  0  0  0  0  0  0
  -24.3382  -12.4385   18.5380 C   0  0  0  0  0  0  0  0  0  0  0  0
  -21.9523  -35.0131   17.1539 C   0  0  0  0  0  0  0  0  0  0  0  0
  -24.7194  -29.0528   20.4249 C   0  0  0  0  0  0  0  0  0  0  0  0
  -22.7931  -33.8883   17.2552 C   0  0  0  0  0  0  0  0  0  0  0  0
  -25.9188  -29.2846   21.1133 C   0  0  0  0  0  0  0  0  0  0  0  0
  -30.2236  -19.4373   20.2805 C   0  0  0  0  0  0  0  0  0  0  0  0
  -30.5896  -17.0501   20.2126 C   0  0  0  0  0  0  0  0  0  0  0  0
  -21.4024  -12.9727   22.8007 C   0  0  0  0  0  0  0  0  0  0  0  0
  -26.8956  -27.3323   20.0436 C   0  0  0  0  0  0  0  0  0  0  0  0
  -19.3439  -13.9186   23.4253 C   0  0  0  0  0  0  0  0  0  0  0  0
  -17.1960  -15.5918   22.8172 C   0  0  0  0  0  0  0  0  0  0  0  0
  -19.0557  -15.0095   24.2454 C   0  0  0  0  0  0  0  0  0  0  0  0
  -24.4863  -12.6176   19.9265 C   0  0  0  0  0  0  0  0  0  0  0  0
  -25.6245  -12.3836   18.0598 C   0  0  0  0  0  0  0  0  0  0  0  0
  -23.1445  -12.3315   17.7510 C   0  0  0  0  0  0  0  0  0  0  0  0
  -24.5009  -32.2035   20.0655 C   0  0  0  0  0  0  0  0  0  0  0  0
  -24.7528  -32.1982   23.2995 C   0  0  0  0  0  0  0  0  0  0  0  0
  -29.6888  -21.8983   20.2713 C   0  0  0  0  0  0  0  0  0  0  0  0
  -25.8009  -30.5901   26.1213 C   0  0  0  0  0  0  0  0  0  0  0  0
  -30.8213  -14.5459   20.0656 C   0  0  0  0  0  0  0  0  0  0  0  0
  -22.1724  -36.2463   17.9938 C   0  0  0  0  0  0  0  0  0  0  0  0
  -23.5311  -29.9490   20.6421 C   0  0  0  0  0  0  0  0  0  0  0  0
  -26.0777  -30.4439   22.0615 C   0  0  0  0  0  0  0  0  0  0  0  0
  -23.0573  -36.0025   19.2136 C   0  0  0  0  0  0  0  0  0  0  0  0
  -30.0581  -11.1378   19.3733 C   0  0  0  0  0  0  0  0  0  0  0  0
  -24.2963  -35.2029   18.8230 C   0  0  0  0  0  0  0  0  0  0  0  0
  -28.5294  -11.1154   19.3042 C   0  0  0  0  0  0  0  0  0  0  0  0
  -30.5634  -12.1035   20.4438 C   0  0  0  0  0  0  0  0  0  0  0  0
  -28.5053  -13.4474   20.2779 C   0  0  0  0  0  0  0  0  0  0  0  0
  -23.9122  -33.8244   18.2719 C   0  0  1  0  0  0  0  0  0  0  0  0
  -23.9139  -31.3378   21.1442 C   0  0  1  0  0  0  0  0  0  0  0  0
  -27.9505  -12.5375   19.1698 C   0  0  2  0  0  0  0  0  0  0  0  0
  -25.9023  -30.8514   28.6150 C   0  0  0  0  0  0  0  0  0  0  0  0
  -27.0700  -34.1602   22.9972 C   0  0  0  0  0  0  0  0  0  0  0  0
  -27.7210  -33.6473   25.3597 C   0  0  0  0  0  0  0  0  0  0  0  0
  -25.5021  -34.6789   24.8753 C   0  0  0  0  0  0  0  0  0  0  0  0
  -24.1313  -28.1857   26.5575 C   0  0  0  0  0  0  0  0  0  0  0  0
  -28.5472  -22.7873   19.7981 C   0  0  0  0  0  0  0  0  0  0  0  0
  -28.7992  -24.2651   20.0766 C   0  0  0  0  0  0  0  0  0  0  0  0
  -27.6675  -25.1371   19.5526 C   0  0  0  0  0  0  0  0  0  1  0  0
  -25.8969  -32.2530   24.2828 C   0  0  1  0  0  0  0  0  0  0  0  0
  -25.1024  -30.3110   27.4399 C   0  0  2  0  0  0  0  0  0  0  0  0
  -26.5454  -33.6640   24.3595 C   0  0  0  0  0  0  0  0  0  0  0  0
  -25.7658  -12.6726   20.3057 N   0  0  0  0  0  0  0  0  0  0  0  0
  -26.4334  -12.5272   19.1485 N   0  0  0  0  0  0  0  0  0  0  0  0
  -24.8892  -31.2953   22.2356 N   0  0  0  0  0  0  0  0  0  0  0  0
  -29.9763  -13.4312   20.2504 N   0  0  0  0  0  0  0  0  0  0  0  0
  -26.1313  -12.2269   16.8184 N   0  0  0  0  0  0  0  0  0  0  0  0
  -21.9058  -12.4089   18.4020 N   0  0  0  0  0  0  0  0  0  0  0  0
  -29.4131  -20.5619   19.9958 N   0  0  0  0  0  0  0  0  0  0  0  0
  -30.1497  -15.7505   19.8588 N   0  0  0  0  0  0  0  0  0  0  0  0
  -23.5640  -32.9271   19.3527 N   0  0  0  0  0  0  0  0  0  0  0  0
  -25.3670  -31.7691   25.5531 N   0  0  0  0  0  0  0  0  0  0  0  0
  -24.9212  -28.8440   27.6297 N   0  3  0  0  0  0  0  0  0  0  0  0
  -23.1756  -12.1555   16.5094 O   0  0  0  0  0  0  0  0  0  0  0  0
  -25.7142  -32.2153   19.8936 O   0  0  0  0  0  0  0  0  0  0  0  0
  -23.7709  -32.9245   23.4731 O   0  0  0  0  0  0  0  0  0  0  0  0
  -30.6885  -22.3562   20.8147 O   0  0  0  0  0  0  0  0  0  0  0  0
  -26.6493  -29.8392   25.6449 O   0  0  0  0  0  0  0  0  0  0  0  0
  -32.0500  -14.4353   20.0618 O   0  0  0  0  0  0  0  0  0  0  0  0
  -20.4102  -13.0876   23.7254 O   0  0  0  0  0  0  0  0  0  0  0  0
  -27.9567  -26.5009   19.8572 O   0  0  0  0  0  0  0  0  0  1  0  0
  -16.1657  -16.3960   22.5243 F   0  0  0  0  0  0  0  0  0  0  0  0
  -19.8076  -15.2595   25.3261 F   0  0  0  0  0  0  0  0  0  0  0  0
  1  2  1  0  0  0  0
  1  6  2  0  0  0  0
  2  7  2  0  0  0  0
  3  9  2  0  0  0  0
  3 10  1  0  0  0  0
  4 11  2  0  0  0  0
  4 19  1  0  0  0  0
  5 12  1  0  0  0  0
  5 19  2  0  0  0  0
  6 21  1  0  0  0  0
  7 23  1  0  0  0  0
  8 13  2  0  0  0  0
  8 22  1  0  0  0  0
  9 25  1  0  0  0  0
 10 26  2  0  0  0  0
 11 27  1  0  0  0  0
 12 27  2  0  0  0  0
 13 28  1  0  0  0  0
 14 15  2  0  0  0  0
 14 29  1  0  0  0  0
 15 30  1  0  0  0  0
 16 24  1  0  0  0  0
 16 28  2  0  0  0  0
 17 25  2  0  0  0  0
 17 26  1  0  0  0  0
 18 30  2  0  0  0  0
 18 31  1  0  0  0  0
 19 32  1  0  0  0  0
 20 32  1  0  0  0  0
 20 33  2  0  0  0  0
 20 34  1  0  0  0  0
 21 23  2  0  0  0  0
 21 40  1  0  0  0  0
 22 24  2  0  0  0  0
 22 41  1  0  0  0  0
 23 49  1  0  0  0  0
 24 42  1  0  0  0  0
 25 69  1  0  0  0  0
 26 70  1  0  0  0  0
 27 80  1  0  0  0  0
 28 81  1  0  0  0  0
 29 31  2  0  0  0  0
 29 80  1  0  0  0  0
 30 82  1  0  0  0  0
 31 83  1  0  0  0  0
 32 63  2  0  0  0  0
 33 64  1  0  0  0  0
 33 67  1  0  0  0  0
 34 68  1  0  0  0  0
 34 74  2  0  0  0  0
 35 50  1  0  0  0  0
 35 71  1  0  0  0  0
 35 75  2  0  0  0  0
 36 60  1  0  0  0  0
 36 65  1  0  0  0  0
 36 76  2  0  0  0  0
 37 57  1  0  0  0  0
 37 69  1  0  0  0  0
 37 77  2  0  0  0  0
 38 61  1  0  0  0  0
 38 72  1  0  0  0  0
 38 78  2  0  0  0  0
 39 66  1  0  0  0  0
 39 70  1  0  0  0  0
 39 79  2  0  0  0  0
 40 43  1  0  0  0  0
 41 50  1  0  0  0  0
 42 65  1  0  0  0  0
 43 45  1  0  0  0  0
 44 46  1  0  0  0  0
 44 47  1  0  0  0  0
 45 49  1  0  0  0  0
 46 51  1  0  0  0  0
 47 66  1  0  0  0  0
 48 51  1  0  0  0  0
 48 66  1  0  0  0  0
 49 71  1  0  0  0  0
 50 65  1  0  0  0  0
 51 64  1  0  0  0  0
 52 61  1  0  0  0  0
 53 62  1  0  0  0  0
 54 62  1  0  0  0  0
 55 62  1  0  0  0  0
 56 73  1  0  0  0  0
 57 58  1  0  0  0  0
 58 59  1  0  0  0  0
 59 81  1  0  0  0  0
 60 62  1  0  0  0  0
 60 72  1  0  0  0  0
 61 73  1  0  0  0  0
 63 64  1  0  0  0  0
M  CHG  1  73   1
M  ISO  4  39 100  59 101  70 100  81 101
M  END
> <Batch ID>
0062

> <Smiles>
CNC(C)C(=O)NC(C(=O)N1Cc2cc([101O:1][101CH2:1]CCC(=O)Nc3cccc([100NH:0][100C:0](=O)N4CCCC(n5nc(-c6ccc(Oc7ccc(F)cc7F)cc6)c(C(N)=O)c5N)C4)c3)ccc2CC1C(=O)NC1CCCc2ccccc21)C(C)(C)C

> <Shape>
0.275

> <Color>
0.101

> <Negative vol penalty>
0.000

$$$$

  -OEChem-04042323093D

 84 92  0     1  0  0  0  0  0999 V2000
  -41.6046  -27.4869   26.1513 C   0  0  0  0  0  0  0  0  0  0  0  0
  -40.9320  -26.3514   25.7114 C   0  0  0  0  0  0  0  0  0  0  0  0
  -23.0001   -9.8947   19.9812 C   0  0  0  0  0  0  0  0  0  0  0  0
  -23.7255   -9.9452   22.2851 C   0  0  0  0  0  0  0  0  0  0  0  0
  -41.4715  -28.6879   25.4557 C   0  0  0  0  0  0  0  0  0  0  0  0
  -40.1249  -26.4165   24.5761 C   0  0  0  0  0  0  0  0  0  0  0  0
  -40.8335  -22.4873   21.4609 C   0  0  0  0  0  0  0  0  0  0  0  0
  -30.4672  -18.3435   23.9915 C   0  0  0  0  0  0  0  0  0  0  0  0
  -29.8797  -17.4474   23.0985 C   0  0  0  0  0  0  0  0  0  0  0  0
  -22.2333   -8.7603   20.2474 C   0  0  0  0  0  0  0  0  0  0  0  0
  -22.9587   -8.8108   22.5514 C   0  0  0  0  0  0  0  0  0  0  0  0
  -40.2306  -21.2800   21.8114 C   0  0  0  0  0  0  0  0  0  0  0  0
  -23.2022   -5.4719   22.0790 C   0  0  0  0  0  0  0  0  0  0  0  0
  -23.7896   -4.4544   22.8309 C   0  0  0  0  0  0  0  0  0  0  0  0
  -38.4479  -21.7233   20.2479 C   0  0  0  0  0  0  0  0  0  0  0  0
  -32.0587  -16.5499   22.5656 C   0  0  0  0  0  0  0  0  0  0  0  0
  -22.0659   -4.6975   24.5063 C   0  0  0  0  0  0  0  0  0  0  0  0
  -23.7462  -10.4871   21.0000 C   0  0  0  0  0  0  0  0  0  0  0  0
  -24.1321  -13.0026   20.8243 C   0  0  0  0  0  0  0  0  0  0  0  0
  -40.6701  -28.7653   24.3058 C   0  0  0  0  0  0  0  0  0  0  0  0
  -40.2414  -23.3282   20.5076 C   0  0  0  0  0  0  0  0  0  0  0  0
  -39.9799  -27.6199   23.8652 C   0  0  0  0  0  0  0  0  0  0  0  0
  -39.0465  -22.9395   19.8852 C   0  0  0  0  0  0  0  0  0  0  0  0
  -31.8505  -18.3429   24.1715 C   0  0  0  0  0  0  0  0  0  0  0  0
  -30.6754  -16.5506   22.3856 C   0  0  0  0  0  0  0  0  0  0  0  0
  -22.2126   -8.2184   21.5325 C   0  0  0  0  0  0  0  0  0  0  0  0
  -39.0361  -20.8992   21.2070 C   0  0  0  0  0  0  0  0  0  0  0  0
  -22.0467   -6.1022   22.5408 C   0  0  0  0  0  0  0  0  0  0  0  0
  -23.2215   -4.0672   24.0446 C   0  0  0  0  0  0  0  0  0  0  0  0
  -21.4786   -5.7150   23.7544 C   0  0  0  0  0  0  0  0  0  0  0  0
  -32.6462  -17.4461   23.4586 C   0  0  0  0  0  0  0  0  0  0  0  0
  -24.5389  -11.6585   20.7255 C   0  0  0  0  0  0  0  0  0  0  0  0
  -25.2420  -13.7250   20.4599 C   0  0  0  0  0  0  0  0  0  0  0  0
  -22.8643  -13.5492   21.2110 C   0  0  0  0  0  0  0  0  0  0  0  0
  -39.0777  -26.2860   20.5397 C   0  0  0  0  0  0  0  0  0  0  0  0
  -38.7874  -25.7891   17.3473 C   0  0  0  0  0  0  0  0  0  0  0  0
  -38.4841  -23.5643   14.7773 C   0  0  0  0  0  0  0  0  0  0  0  0
  -30.7217  -14.6848   20.6936 C   0  0  0  0  0  0  0  0  0  0  0  0
  -40.5194  -30.0972   23.6143 C   0  0  0  0  0  0  0  0  0  0  0  0
  -40.9182  -24.6146   20.1210 C   0  0  0  0  0  0  0  0  0  0  0  0
  -38.3809  -23.7969   18.8410 C   0  0  0  0  0  0  0  0  0  0  0  0
  -39.9423  -29.9901   22.2052 C   0  0  0  0  0  0  0  0  0  0  0  0
  -29.6027  -12.2325   18.3674 C   0  0  0  0  0  0  0  0  0  0  0  0
  -38.7293  -29.0652   22.1940 C   0  0  0  0  0  0  0  0  0  0  0  0
  -28.1520  -11.9751   18.7816 C   0  0  0  0  0  0  0  0  0  0  0  0
  -30.5033  -12.4755   19.5771 C   0  0  0  0  0  0  0  0  0  0  0  0
  -28.5883  -13.2646   20.9109 C   0  0  0  0  0  0  0  0  0  0  0  0
  -39.1148  -27.6446   22.6238 C   0  0  1  0  0  0  0  0  0  0  0  0
  -39.9603  -25.6344   19.5129 C   0  0  1  0  0  0  0  0  0  0  0  0
  -27.6305  -13.0787   19.7228 C   0  0  2  0  0  0  0  0  0  0  0  0
  -32.4477  -19.3150   25.1356 C   0  0  0  0  0  0  0  0  0  0  0  0
  -38.2286  -23.4586   12.2831 C   0  0  0  0  0  0  0  0  0  0  0  0
  -35.8549  -26.5879   17.6164 C   0  0  0  0  0  0  0  0  0  0  0  0
  -35.4431  -25.5688   15.3669 C   0  0  0  0  0  0  0  0  0  0  0  0
  -37.0035  -27.5020   15.5917 C   0  0  0  0  0  0  0  0  0  0  0  0
  -41.0227  -22.0756   14.4639 C   0  0  0  0  0  0  0  0  0  0  0  0
  -36.5077  -18.6626   22.4847 C   0  0  0  0  0  0  0  0  0  0  0  0
  -37.0225  -19.6587   21.4569 C   0  0  0  0  0  0  0  0  0  1  0  0
  -34.9931  -18.5572   22.4529 C   0  0  0  0  0  0  0  0  0  0  0  0
  -37.7131  -25.2306   16.4456 C   0  0  1  0  0  0  0  0  0  0  0  0
  -39.2075  -23.4574   13.4469 C   0  0  2  0  0  0  0  0  0  0  0  0
  -36.5149  -26.2068   16.2762 C   0  0  0  0  0  0  0  0  0  0  0  0
  -25.8082  -11.5318   20.3292 N   0  0  0  0  0  0  0  0  0  0  0  0
  -26.2084  -12.8055   20.1757 N   0  0  0  0  0  0  0  0  0  0  0  0
  -39.0781  -25.0484   18.5017 N   0  0  0  0  0  0  0  0  0  0  0  0
  -29.9486  -13.5365   20.4206 N   0  0  0  0  0  0  0  0  0  0  0  0
  -25.4758  -15.0506   20.3580 N   0  0  0  0  0  0  0  0  0  0  0  0
  -21.8323  -12.6653   21.5545 N   0  0  0  0  0  0  0  0  0  0  0  0
  -30.0777  -15.6400   21.4793 N   0  0  0  0  0  0  0  0  0  0  0  0
  -39.7685  -26.9475   21.5370 N   0  0  0  0  0  0  0  0  0  0  0  0
  -38.3745  -24.8737   15.1952 N   0  0  0  0  0  0  0  0  0  0  0  0
  -40.0037  -22.1989   13.3899 N   0  3  0  0  0  0  0  0  0  0  0  0
  -22.6479  -14.7846   21.2350 O   0  0  0  0  0  0  0  0  0  0  0  0
  -37.8601  -26.1964   20.4341 O   0  0  0  0  0  0  0  0  0  0  0  0
  -39.3528  -26.8400   17.0351 O   0  0  0  0  0  0  0  0  0  0  0  0
  -38.0556  -22.5846   15.3831 O   0  0  0  0  0  0  0  0  0  0  0  0
  -31.8603  -14.8235   20.2395 O   0  0  0  0  0  0  0  0  0  0  0  0
  -34.6831  -17.9514   24.9850 O   0  0  0  0  0  0  0  0  0  0  0  0
  -34.8735  -16.0933   23.2948 O   0  0  0  0  0  0  0  0  0  0  0  0
  -21.4643   -7.1116   21.7927 O   0  0  0  0  0  0  0  0  0  0  0  0
  -38.4452  -19.7217   21.5478 O   0  0  0  0  0  0  0  0  0  1  0  0
  -23.7847   -3.0891   24.7658 F   0  0  0  0  0  0  0  0  0  0  0  0
  -20.3678   -6.3160   24.2026 F   0  0  0  0  0  0  0  0  0  0  0  0
  -34.4023  -17.4174   23.6634 S   0  0  0  0  0  0  0  0  0  0  0  0
  1  2  1  0  0  0  0
  1  5  2  0  0  0  0
  2  6  2  0  0  0  0
  3 10  2  0  0  0  0
  3 18  1  0  0  0  0
  4 11  1  0  0  0  0
  4 18  2  0  0  0  0
  5 20  1  0  0  0  0
  6 22  1  0  0  0  0
  7 12  2  0  0  0  0
  7 21  1  0  0  0  0
  8  9  2  0  0  0  0
  8 24  1  0  0  0  0
  9 25  1  0  0  0  0
 10 26  1  0  0  0  0
 11 26  2  0  0  0  0
 12 27  1  0  0  0  0
 13 14  2  0  0  0  0
 13 28  1  0  0  0  0
 14 29  1  0  0  0  0
 15 23  1  0  0  0  0
 15 27  2  0  0  0  0
 16 25  2  0  0  0  0
 16 31  1  0  0  0  0
 17 29  2  0  0  0  0
 17 30  1  0  0  0  0
 18 32  1  0  0  0  0
 19 32  1  0  0  0  0
 19 33  2  0  0  0  0
 19 34  1  0  0  0  0
 20 22  2  0  0  0  0
 20 39  1  0  0  0  0
 21 23  2  0  0  0  0
 21 40  1  0  0  0  0
 22 48  1  0  0  0  0
 23 41  1  0  0  0  0
 24 31  2  0  0  0  0
 24 51  1  0  0  0  0
 25 69  1  0  0  0  0
 26 80  1  0  0  0  0
 27 81  1  0  0  0  0
 28 30  2  0  0  0  0
 28 80  1  0  0  0  0
 29 82  1  0  0  0  0
 30 83  1  0  0  0  0
 31 84  1  0  0  0  0
 32 63  2  0  0  0  0
 33 64  1  0  0  0  0
 33 67  1  0  0  0  0
 34 68  1  0  0  0  0
 34 73  2  0  0  0  0
 35 49  1  0  0  0  0
 35 70  1  0  0  0  0
 35 74  2  0  0  0  0
 36 60  1  0  0  0  0
 36 65  1  0  0  0  0
 36 75  2  0  0  0  0
 37 61  1  0  0  0  0
 37 71  1  0  0  0  0
 37 76  2  0  0  0  0
 38 66  1  0  0  0  0
 38 69  1  0  0  0  0
 38 77  2  0  0  0  0
 39 42  1  0  0  0  0
 40 49  1  0  0  0  0
 41 65  1  0  0  0  0
 42 44  1  0  0  0  0
 43 45  1  0  0  0  0
 43 46  1  0  0  0  0
 44 48  1  0  0  0  0
 45 50  1  0  0  0  0
 46 66  1  0  0  0  0
 47 50  1  0  0  0  0
 47 66  1  0  0  0  0
 48 70  1  0  0  0  0
 49 65  1  0  0  0  0
 50 64  1  0  0  0  0
 52 61  1  0  0  0  0
 53 62  1  0  0  0  0
 54 62  1  0  0  0  0
 55 62  1  0  0  0  0
 56 72  1  0  0  0  0
 57 58  1  0  0  0  0
 57 59  1  0  0  0  0
 58 81  1  0  0  0  0
 59 84  1  0  0  0  0
 60 62  1  0  0  0  0
 60 71  1  0  0  0  0
 61 72  1  0  0  0  0
 63 64  1  0  0  0  0
 78 84  2  0  0  0  0
 79 84  2  0  0  0  0
M  CHG  1  72   1
M  ISO  4  38 100  58 101  69 100  81 101
M  END
> <Batch ID>
0062

> <Smiles>
CNC(C)C(=O)NC(C(=O)N1Cc2cc([101O:1][101CH2:1]CCS(=O)(=O)c3cc([100NH:0][100C:0](=O)N4CCCC(n5nc(-c6ccc(Oc7ccc(F)cc7F)cc6)c(C(N)=O)c5N)C4)ccc3C)ccc2CC1C(=O)NC1CCCc2ccccc21)C(C)(C)C

> <Shape>
0.172

> <Color>
0.198

> <Negative vol penalty>
0.000

$$$$

  -OEChem-04042323093D

 88 97  0     1  0  0  0  0  0999 V2000
  -24.5607  -11.3332   21.2194 C   0  0  0  0  0  0  0  0  0  0  0  0
  -24.1533  -12.4306   21.9712 C   0  0  0  0  0  0  0  0  0  0  0  0
  -29.7892  -17.2783   18.6556 C   0  0  0  0  0  0  0  0  0  0  0  0
  -30.9179  -18.2515   20.5571 C   0  0  0  0  0  0  0  0  0  0  0  0
  -24.9733  -11.5086   19.8992 C   0  0  0  0  0  0  0  0  0  0  0  0
  -24.1593  -13.7042   21.4036 C   0  0  0  0  0  0  0  0  0  0  0  0
  -20.6041  -19.9202   21.5989 C   0  0  0  0  0  0  0  0  0  0  0  0
  -30.4540  -16.0724   18.8780 C   0  0  0  0  0  0  0  0  0  0  0  0
  -31.5827  -17.0455   20.7797 C   0  0  0  0  0  0  0  0  0  0  0  0
  -20.8302  -21.2855   21.7683 C   0  0  0  0  0  0  0  0  0  0  0  0
  -30.1807  -13.4254   20.9641 C   0  0  0  0  0  0  0  0  0  0  0  0
  -29.4308  -12.2509   20.9026 C   0  0  0  0  0  0  0  0  0  0  0  0
  -21.4879  -21.4575   19.4537 C   0  0  0  0  0  0  0  0  0  0  0  0
  -25.7969  -26.6799   21.1603 C   0  0  0  0  0  0  0  0  0  0  0  0
  -26.8886  -28.1906   19.6231 C   0  0  0  0  0  0  0  0  0  0  0  0
  -30.8304  -11.4516   19.1027 C   0  0  0  0  0  0  0  0  0  0  0  0
  -30.0212  -18.3679   19.4951 C   0  0  0  0  0  0  0  0  0  0  0  0
  -27.9444  -19.8316   19.2670 C   0  0  0  0  0  0  0  0  0  0  0  0
  -24.9752  -12.7837   19.3120 C   0  0  0  0  0  0  0  0  0  0  0  0
  -20.8290  -19.3103   20.3564 C   0  0  0  0  0  0  0  0  0  0  0  0
  -24.5736  -13.8970   20.0747 C   0  0  0  0  0  0  0  0  0  0  0  0
  -21.2614  -20.0848   19.2706 C   0  0  0  0  0  0  0  0  0  0  0  0
  -24.6089  -28.6034   20.3084 C   0  0  0  0  0  0  0  0  0  0  0  0
  -24.6411  -27.4587   21.1048 C   0  0  0  0  0  0  0  0  0  0  0  0
  -26.9207  -27.0459   20.4195 C   0  0  0  0  0  0  0  0  0  0  0  0
  -31.3507  -15.9560   19.9401 C   0  0  0  0  0  0  0  0  0  0  0  0
  -21.2750  -22.0538   20.6964 C   0  0  0  0  0  0  0  0  0  0  0  0
  -31.2554  -13.6131   20.0948 C   0  0  0  0  0  0  0  0  0  0  0  0
  -29.7557  -11.2640   19.9719 C   0  0  0  0  0  0  0  0  0  0  0  0
  -31.5802  -12.6262   19.1642 C   0  0  0  0  0  0  0  0  0  0  0  0
  -25.7327  -28.9694   19.5675 C   0  0  0  0  0  0  0  0  0  0  0  0
  -29.3352  -19.6140   19.2654 C   0  0  0  0  0  0  0  0  0  0  0  0
  -27.8063  -21.1719   19.0005 C   0  0  0  0  0  0  0  0  0  0  0  0
  -22.9535  -27.9071   22.8659 C   0  0  0  0  0  0  0  0  0  0  0  0
  -26.8731  -18.9051   19.4897 C   0  0  0  0  0  0  0  0  0  0  0  0
  -22.7699  -17.0267   19.2972 C   0  0  0  0  0  0  0  0  0  0  0  0
  -21.0729  -17.3957   16.5574 C   0  0  0  0  0  0  0  0  0  0  0  0
  -19.1189  -19.4026   14.6077 C   0  0  0  0  0  0  0  0  0  0  0  0
  -29.2960  -26.4766   19.8029 C   0  0  0  0  0  0  0  0  0  0  0  0
  -25.4746  -12.9304   17.8965 C   0  0  0  0  0  0  0  0  0  0  0  0
  -20.5547  -17.8415   20.1831 C   0  0  0  0  0  0  0  0  0  0  0  0
  -21.4984  -19.4819   17.9109 C   0  0  0  0  0  0  0  0  0  0  0  0
  -21.5798  -27.5439   23.3975 C   0  0  0  0  0  0  0  0  0  0  0  0
  -25.0954  -14.2610   17.2516 C   0  0  0  0  0  0  0  0  0  0  0  0
  -21.3207  -26.0564   23.4935 C   0  0  0  0  0  0  0  0  0  0  0  0
  -31.2062  -24.5920   17.4626 C   0  0  0  0  0  0  0  0  0  0  0  0
  -25.3776  -15.4166   18.2065 C   0  0  0  0  0  0  0  0  0  0  0  0
  -30.7753  -23.1468   17.7231 C   0  0  0  0  0  0  0  0  0  0  0  0
  -31.2774  -25.4042   18.7545 C   0  0  0  0  0  0  0  0  0  0  0  0
  -23.0333  -25.6618   21.7458 C   0  0  0  0  0  0  0  0  0  0  0  0
  -29.6299  -23.9265   19.8367 C   0  0  0  0  0  0  0  0  0  0  0  0
  -24.5425  -15.2910   19.4865 C   0  0  1  0  0  0  0  0  0  0  0  0
  -21.3091  -17.2274   19.0080 C   0  0  1  0  0  0  0  0  0  0  0  0
  -21.5747  -25.4250   22.1346 C   0  0  1  0  0  0  0  0  0  0  0  0
  -29.4810  -23.0864   18.5578 C   0  0  2  0  0  0  0  0  0  0  0  0
  -22.2879  -28.7999   19.3808 C   0  0  0  0  0  0  0  0  0  0  0  0
  -17.9140  -19.4411   12.4068 C   0  0  0  0  0  0  0  0  0  0  0  0
  -23.7307  -17.7923   15.1121 C   0  0  0  0  0  0  0  0  0  0  0  0
  -22.4576  -18.7484   13.1799 C   0  0  0  0  0  0  0  0  0  0  0  0
  -22.0721  -16.3848   13.8782 C   0  0  0  0  0  0  0  0  0  0  0  0
  -16.4943  -19.7896   15.9195 C   0  0  0  0  0  0  0  0  0  0  0  0
  -23.3623  -29.4323   20.2574 C   0  0  0  0  0  0  0  0  0  0  0  0
  -21.2541  -23.9319   22.1552 C   0  0  0  0  0  0  0  0  0  1  0  0
  -21.2014  -18.2635   15.3289 C   0  0  1  0  0  0  0  0  0  0  0  0
  -17.8046  -19.1424   13.8939 C   0  0  2  0  0  0  0  0  0  0  0  0
  -22.3629  -17.8085   14.4008 C   0  0  0  0  0  0  0  0  0  0  0  0
  -30.0310  -20.7268   19.0173 N   0  0  0  0  0  0  0  0  0  0  0  0
  -29.0734  -21.6566   18.8605 N   0  0  0  0  0  0  0  0  0  0  0  0
  -23.4867  -27.0582   21.8807 N   0  0  0  0  0  0  0  0  0  0  0  0
  -21.2221  -18.0406   17.7934 N   0  0  0  0  0  0  0  0  0  0  0  0
  -30.0150  -25.3036   19.4901 N   0  0  0  0  0  0  0  0  0  0  0  0
  -26.7257  -21.9712   18.8744 N   0  0  0  0  0  0  0  0  0  0  0  0
  -26.4135  -18.7176   20.8004 N   0  0  0  0  0  0  0  0  0  0  0  0
  -28.0947  -26.2545   20.4753 N   0  0  0  0  0  0  0  0  0  0  0  0
  -23.1782  -15.7077   19.2428 N   0  0  0  0  0  0  0  0  0  0  0  0
  -19.8902  -18.2625   14.6893 N   0  0  0  0  0  0  0  0  0  0  0  0
  -16.7261  -19.9966   14.4668 N   0  3  0  0  0  0  0  0  0  0  0  0
  -23.4813  -28.9419   23.2824 O   0  0  0  0  0  0  0  0  0  0  0  0
  -26.3502  -18.2503   18.5562 O   0  0  0  0  0  0  0  0  0  0  0  0
  -23.4747  -17.9970   19.5494 O   0  0  0  0  0  0  0  0  0  0  0  0
  -20.8412  -16.1913   16.4255 O   0  0  0  0  0  0  0  0  0  0  0  0
  -19.4317  -20.5075   15.0456 O   0  0  0  0  0  0  0  0  0  0  0  0
  -29.7017  -27.5939   19.4727 O   0  0  0  0  0  0  0  0  0  0  0  0
  -31.9993  -14.7794   20.1577 O   0  0  0  0  0  0  0  0  0  0  0  0
  -21.4971  -23.3865   20.8591 O   0  0  0  0  0  0  0  0  0  1  0  0
  -29.0365  -10.1355   19.9140 F   0  0  0  0  0  0  0  0  0  0  0  0
  -32.6123  -12.8003   18.3273 F   0  0  0  0  0  0  0  0  0  0  0  0
  -25.7325  -30.3764   18.5668 Cl  0  0  0  0  0  0  0  0  0  0  0  0
  1  2  1  0  0  0  0
  1  5  2  0  0  0  0
  2  6  2  0  0  0  0
  3  8  2  0  0  0  0
  3 17  1  0  0  0  0
  4  9  1  0  0  0  0
  4 17  2  0  0  0  0
  5 19  1  0  0  0  0
  6 21  1  0  0  0  0
  7 10  2  0  0  0  0
  7 20  1  0  0  0  0
  8 26  1  0  0  0  0
  9 26  2  0  0  0  0
 10 27  1  0  0  0  0
 11 12  2  0  0  0  0
 11 28  1  0  0  0  0
 12 29  1  0  0  0  0
 13 22  1  0  0  0  0
 13 27  2  0  0  0  0
 14 24  1  0  0  0  0
 14 25  2  0  0  0  0
 15 25  1  0  0  0  0
 15 31  2  0  0  0  0
 16 29  2  0  0  0  0
 16 30  1  0  0  0  0
 17 32  1  0  0  0  0
 18 32  1  0  0  0  0
 18 33  2  0  0  0  0
 18 35  1  0  0  0  0
 19 21  2  0  0  0  0
 19 40  1  0  0  0  0
 20 22  2  0  0  0  0
 20 41  1  0  0  0  0
 21 52  1  0  0  0  0
 22 42  1  0  0  0  0
 23 24  2  0  0  0  0
 23 31  1  0  0  0  0
 23 62  1  0  0  0  0
 24 69  1  0  0  0  0
 25 74  1  0  0  0  0
 26 84  1  0  0  0  0
 27 85  1  0  0  0  0
 28 30  2  0  0  0  0
 28 84  1  0  0  0  0
 29 86  1  0  0  0  0
 30 87  1  0  0  0  0
 31 88  1  0  0  0  0
 32 67  2  0  0  0  0
 33 68  1  0  0  0  0
 33 72  1  0  0  0  0
 34 43  1  0  0  0  0
 34 69  1  0  0  0  0
 34 78  2  0  0  0  0
 35 73  1  0  0  0  0
 35 79  2  0  0  0  0
 36 53  1  0  0  0  0
 36 75  1  0  0  0  0
 36 80  2  0  0  0  0
 37 64  1  0  0  0  0
 37 70  1  0  0  0  0
 37 81  2  0  0  0  0
 38 65  1  0  0  0  0
 38 76  1  0  0  0  0
 38 82  2  0  0  0  0
 39 71  1  0  0  0  0
 39 74  1  0  0  0  0
 39 83  2  0  0  0  0
 40 44  1  0  0  0  0
 41 53  1  0  0  0  0
 42 70  1  0  0  0  0
 43 45  1  0  0  0  0
 44 47  1  0  0  0  0
 45 54  1  0  0  0  0
 46 48  1  0  0  0  0
 46 49  1  0  0  0  0
 47 52  1  0  0  0  0
 48 55  1  0  0  0  0
 49 71  1  0  0  0  0
 50 54  1  0  0  0  0
 50 69  1  0  0  0  0
 51 55  1  0  0  0  0
 51 71  1  0  0  0  0
 52 75  1  0  0  0  0
 53 70  1  0  0  0  0
 54 63  1  0  0  0  0
 55 68  1  0  0  0  0
 56 62  1  0  0  0  0
 57 65  1  0  0  0  0
 58 66  1  0  0  0  0
 59 66  1  0  0  0  0
 60 66  1  0  0  0  0
 61 77  1  0  0  0  0
 63 85  1  0  0  0  0
 64 66  1  0  0  0  0
 64 76  1  0  0  0  0
 65 77  1  0  0  0  0
 67 68  1  0  0  0  0
M  CHG  1  77   1
M  ISO  4  39 100  63 101  74 100  85 101
M  END
> <Batch ID>
0062

> <Smiles>
CCc1c(Cl)cc([100NH:0][100C:0](=O)N2CCCC(n3nc(-c4ccc(Oc5ccc(F)cc5F)cc4)c(C(N)=O)c3N)C2)cc1N1CC([101CH2:1][101O:1]c2ccc3c(c2)CN(C(=O)C(NC(=O)C(C)NC)C(C)(C)C)C(C(=O)NC2CCCc4ccccc42)C3)CCC1=O

> <Shape>
0.215

> <Color>
0.069

> <Negative vol penalty>
0.000

$$$$

  -OEChem-04042323093D

 87 95  0     1  0  0  0  0  0999 V2000
  -28.2590  -33.1206   22.1519 C   0  0  0  0  0  0  0  0  0  0  0  0
  -28.2368  -32.0369   23.0240 C   0  0  0  0  0  0  0  0  0  0  0  0
  -32.6888  -17.4702   23.3556 C   0  0  0  0  0  0  0  0  0  0  0  0
  -23.0711   -9.8492   19.9649 C   0  0  0  0  0  0  0  0  0  0  0  0
  -23.8236   -9.8929   22.2603 C   0  0  0  0  0  0  0  0  0  0  0  0
  -27.7421  -32.9880   20.8638 C   0  0  0  0  0  0  0  0  0  0  0  0
  -27.6965  -30.8203   22.6088 C   0  0  0  0  0  0  0  0  0  0  0  0
  -30.5816  -26.8677   23.9121 C   0  0  0  0  0  0  0  0  0  0  0  0
  -32.0797  -16.5808   22.4703 C   0  0  0  0  0  0  0  0  0  0  0  0
  -31.9107  -18.3616   24.0943 C   0  0  0  0  0  0  0  0  0  0  0  0
  -22.3217   -8.7036   20.2324 C   0  0  0  0  0  0  0  0  0  0  0  0
  -23.0741   -8.7473   22.5278 C   0  0  0  0  0  0  0  0  0  0  0  0
  -30.5124  -26.4382   25.2366 C   0  0  0  0  0  0  0  0  0  0  0  0
  -19.8407   -7.9734   23.1334 C   0  0  0  0  0  0  0  0  0  0  0  0
  -19.0798   -7.9569   24.3023 C   0  0  0  0  0  0  0  0  0  0  0  0
  -29.0218  -24.6603   24.5759 C   0  0  0  0  0  0  0  0  0  0  0  0
  -20.3107   -6.0275   25.0763 C   0  0  0  0  0  0  0  0  0  0  0  0
  -23.8222  -10.4438   20.9789 C   0  0  0  0  0  0  0  0  0  0  0  0
  -24.1750  -12.9650   20.8162 C   0  0  0  0  0  0  0  0  0  0  0  0
  -27.2040  -31.7664   20.4294 C   0  0  0  0  0  0  0  0  0  0  0  0
  -29.8616  -26.2023   22.9095 C   0  0  0  0  0  0  0  0  0  0  0  0
  -27.1707  -30.6717   21.3141 C   0  0  0  0  0  0  0  0  0  0  0  0
  -29.0856  -25.0818   23.2390 C   0  0  0  0  0  0  0  0  0  0  0  0
  -29.9145  -17.4743   23.0624 C   0  0  0  0  0  0  0  0  0  0  0  0
  -30.6926  -16.5829   22.3237 C   0  0  0  0  0  0  0  0  0  0  0  0
  -30.5236  -18.3637   23.9476 C   0  0  0  0  0  0  0  0  0  0  0  0
  -22.3231   -8.1527   21.5138 C   0  0  0  0  0  0  0  0  0  0  0  0
  -29.7302  -25.3361   25.5692 C   0  0  0  0  0  0  0  0  0  0  0  0
  -20.8366   -7.0169   22.9359 C   0  0  0  0  0  0  0  0  0  0  0  0
  -19.3148   -6.9840   25.2738 C   0  0  0  0  0  0  0  0  0  0  0  0
  -21.0716   -6.0439   23.9074 C   0  0  0  0  0  0  0  0  0  0  0  0
  -24.5971  -11.6268   20.7030 C   0  0  0  0  0  0  0  0  0  0  0  0
  -25.2714  -13.7036   20.4436 C   0  0  0  0  0  0  0  0  0  0  0  0
  -29.3124  -22.1197   26.5660 C   0  0  0  0  0  0  0  0  0  0  0  0
  -29.1594  -20.7958   26.4162 C   0  0  0  0  0  0  0  0  0  0  0  0
  -22.9053  -13.4933   21.2219 C   0  0  0  0  0  0  0  0  0  0  0  0
  -28.1862  -22.9532   27.0841 C   0  0  0  0  0  0  0  0  0  0  0  0
  -27.5420  -27.0193   20.8956 C   0  0  0  0  0  0  0  0  0  0  0  0
  -28.0659  -24.0496   19.7002 C   0  0  0  0  0  0  0  0  0  0  0  0
  -29.2200  -20.8800   20.2183 C   0  0  0  0  0  0  0  0  0  0  0  0
  -30.7414  -14.7295   20.6182 C   0  0  0  0  0  0  0  0  0  0  0  0
  -26.6140  -31.6848   19.0438 C   0  0  0  0  0  0  0  0  0  0  0  0
  -29.9679  -26.6618   21.4812 C   0  0  0  0  0  0  0  0  0  0  0  0
  -28.3095  -24.3204   22.1967 C   0  0  0  0  0  0  0  0  0  0  0  0
  -26.4000  -30.2542   18.5561 C   0  0  0  0  0  0  0  0  0  0  0  0
  -29.6245  -12.2795   18.2885 C   0  0  0  0  0  0  0  0  0  0  0  0
  -25.7333  -29.4145   19.6411 C   0  0  0  0  0  0  0  0  0  0  0  0
  -28.1823  -12.0014   18.7183 C   0  0  0  0  0  0  0  0  0  0  0  0
  -30.5367  -12.5254   19.4890 C   0  0  0  0  0  0  0  0  0  0  0  0
  -28.6283  -13.2816   20.8512 C   0  0  0  0  0  0  0  0  0  0  0  0
  -26.6155  -29.3285   20.8924 C   0  0  1  0  0  0  0  0  0  0  0  0
  -28.7861  -26.2222   20.6225 C   0  0  1  0  0  0  0  0  0  0  0  0
  -27.6586  -13.0919   19.6733 C   0  0  2  0  0  0  0  0  0  0  0  0
  -28.4253  -17.4770   22.9052 C   0  0  0  0  0  0  0  0  0  0  0  0
  -27.5559  -25.4296   29.2051 C   0  0  0  0  0  0  0  0  0  0  0  0
  -29.4811  -18.6658   19.0665 C   0  0  0  0  0  0  0  0  0  0  0  0
  -25.0817  -23.5185   20.0499 C   0  0  0  0  0  0  0  0  0  0  0  0
  -25.5589  -21.0732   19.8029 C   0  0  0  0  0  0  0  0  0  0  0  0
  -26.0562  -22.6354   17.9227 C   0  0  0  0  0  0  0  0  0  0  0  0
  -32.1643  -20.9438   20.5113 C   0  0  0  0  0  0  0  0  0  0  0  0
  -30.2383  -19.8989   25.8937 C   0  0  0  0  0  0  0  0  0  0  0  0
  -27.4611  -25.2628   27.7019 C   0  0  0  0  0  0  0  0  0  0  0  0
  -27.5197  -22.6712   19.9841 C   0  0  1  0  0  0  0  0  0  0  0  0
  -30.1403  -19.9961   19.3959 C   0  0  2  0  0  0  0  0  0  0  0  0
  -26.0671  -22.4899   19.4601 C   0  0  0  0  0  0  0  0  0  0  0  0
  -25.8629  -11.5185   20.2907 N   0  0  0  0  0  0  0  0  0  0  0  0
  -26.2456  -12.7981   20.1413 N   0  0  0  0  0  0  0  0  0  0  0  0
  -28.4408  -24.8123   20.8154 N   0  0  0  0  0  0  0  0  0  0  0  0
  -29.9792  -13.5736   20.3465 N   0  0  0  0  0  0  0  0  0  0  0  0
  -25.4876  -15.0327   20.3482 N   0  0  0  0  0  0  0  0  0  0  0  0
  -21.8885  -12.5943   21.5715 N   0  0  0  0  0  0  0  0  0  0  0  0
  -30.0952  -15.6713   21.4183 N   0  0  0  0  0  0  0  0  0  0  0  0
  -29.7676  -19.2573   24.6916 N   0  0  0  0  0  0  0  0  0  0  0  0
  -27.6880  -28.3780   20.6903 N   0  0  0  0  0  0  0  0  0  0  0  0
  -28.4799  -21.7278   19.4216 N   0  0  0  0  0  0  0  0  0  0  0  0
  -28.4324  -24.3021   27.2055 N   0  0  0  0  0  0  0  0  0  1  0  0
  -31.4007  -19.7238   20.1430 N   0  3  0  0  0  0  0  0  0  0  0  0
  -22.6740  -14.7257   21.2571 O   0  0  0  0  0  0  0  0  0  0  0  0
  -27.1122  -22.4324   27.3874 O   0  0  0  0  0  0  0  0  0  0  0  0
  -26.5245  -26.4440   21.2637 O   0  0  0  0  0  0  0  0  0  0  0  0
  -28.1633  -24.4327   18.5317 O   0  0  0  0  0  0  0  0  0  0  0  0
  -29.1607  -20.8214   21.4445 O   0  0  0  0  0  0  0  0  0  0  0  0
  -31.8727  -14.8854   20.1514 O   0  0  0  0  0  0  0  0  0  0  0  0
  -21.5917   -7.0350   21.7752 O   0  0  0  0  0  0  0  0  0  0  0  0
  -29.6604  -24.9152   26.8614 O   0  0  0  0  0  0  0  0  0  1  0  0
  -18.5851   -6.9692   26.3969 F   0  0  0  0  0  0  0  0  0  0  0  0
  -22.0277   -5.1231   23.7238 F   0  0  0  0  0  0  0  0  0  0  0  0
  1  2  1  0  0  0  0
  1  6  2  0  0  0  0
  2  7  2  0  0  0  0
  3  9  1  0  0  0  0
  3 10  2  0  0  0  0
  4 11  2  0  0  0  0
  4 18  1  0  0  0  0
  5 12  1  0  0  0  0
  5 18  2  0  0  0  0
  6 20  1  0  0  0  0
  7 22  1  0  0  0  0
  8 13  2  0  0  0  0
  8 21  1  0  0  0  0
  9 25  2  0  0  0  0
 10 26  1  0  0  0  0
 11 27  1  0  0  0  0
 12 27  2  0  0  0  0
 13 28  1  0  0  0  0
 14 15  2  0  0  0  0
 14 29  1  0  0  0  0
 15 30  1  0  0  0  0
 16 23  1  0  0  0  0
 16 28  2  0  0  0  0
 17 30  2  0  0  0  0
 17 31  1  0  0  0  0
 18 32  1  0  0  0  0
 19 32  1  0  0  0  0
 19 33  2  0  0  0  0
 19 36  1  0  0  0  0
 20 22  2  0  0  0  0
 20 42  1  0  0  0  0
 21 23  2  0  0  0  0
 21 43  1  0  0  0  0
 22 51  1  0  0  0  0
 23 44  1  0  0  0  0
 24 25  1  0  0  0  0
 24 26  2  0  0  0  0
 24 54  1  0  0  0  0
 25 72  1  0  0  0  0
 26 73  1  0  0  0  0
 27 84  1  0  0  0  0
 28 85  1  0  0  0  0
 29 31  2  0  0  0  0
 29 84  1  0  0  0  0
 30 86  1  0  0  0  0
 31 87  1  0  0  0  0
 32 66  2  0  0  0  0
 33 67  1  0  0  0  0
 33 70  1  0  0  0  0
 34 35  2  0  0  0  0
 34 37  1  0  0  0  0
 35 61  1  0  0  0  0
 36 71  1  0  0  0  0
 36 78  2  0  0  0  0
 37 76  1  0  0  0  0
 37 79  2  0  0  0  0
 38 52  1  0  0  0  0
 38 74  1  0  0  0  0
 38 80  2  0  0  0  0
 39 63  1  0  0  0  0
 39 68  1  0  0  0  0
 39 81  2  0  0  0  0
 40 64  1  0  0  0  0
 40 75  1  0  0  0  0
 40 82  2  0  0  0  0
 41 69  1  0  0  0  0
 41 72  1  0  0  0  0
 41 83  2  0  0  0  0
 42 45  1  0  0  0  0
 43 52  1  0  0  0  0
 44 68  1  0  0  0  0
 45 47  1  0  0  0  0
 46 48  1  0  0  0  0
 46 49  1  0  0  0  0
 47 51  1  0  0  0  0
 48 53  1  0  0  0  0
 49 69  1  0  0  0  0
 50 53  1  0  0  0  0
 50 69  1  0  0  0  0
 51 74  1  0  0  0  0
 52 68  1  0  0  0  0
 53 67  1  0  0  0  0
 55 62  1  0  0  0  0
 56 64  1  0  0  0  0
 57 65  1  0  0  0  0
 58 65  1  0  0  0  0
 59 65  1  0  0  0  0
 60 77  1  0  0  0  0
 61 73  1  0  0  0  0
 62 76  1  0  0  0  0
 63 65  1  0  0  0  0
 63 75  1  0  0  0  0
 64 77  1  0  0  0  0
 66 67  1  0  0  0  0
 76 85  1  0  0  0  0
M  CHG  1  77   1
M  ISO  4  41 100  72 100  76 101  85 101
M  END
> <Batch ID>
0062

> <Smiles>
CC[101N:1](C(=O)C=CCNc1cccc([100NH:0][100C:0](=O)N2CCCC(n3nc(-c4ccc(Oc5ccc(F)cc5F)cc4)c(C(N)=O)c3N)C2)c1C)[101O:1]c1ccc2c(c1)CN(C(=O)C(NC(=O)C(C)NC)C(C)(C)C)C(C(=O)NC1CCCc3ccccc31)C2

> <Shape>
0.273

> <Color>
0.199

> <Negative vol penalty>
0.000

$$$$

  -OEChem-04042323093D

 85 94  0     1  0  0  0  0  0999 V2000
  -17.3361  -11.4760   24.4066 C   0  0  0  0  0  0  0  0  0  0  0  0
  -18.7082  -11.5600   24.6202 C   0  0  0  0  0  0  0  0  0  0  0  0
  -32.6526  -17.4890   23.4577 C   0  0  0  0  0  0  0  0  0  0  0  0
  -23.0752   -9.8688   19.9402 C   0  0  0  0  0  0  0  0  0  0  0  0
  -23.8347   -9.8746   22.2337 C   0  0  0  0  0  0  0  0  0  0  0  0
  -16.5776  -12.6400   24.2886 C   0  0  0  0  0  0  0  0  0  0  0  0
  -19.3229  -12.8080   24.7147 C   0  0  0  0  0  0  0  0  0  0  0  0
  -24.7382  -16.1274   28.0272 C   0  0  0  0  0  0  0  0  0  0  0  0
  -31.8550  -18.3556   24.2049 C   0  0  0  0  0  0  0  0  0  0  0  0
  -32.0645  -16.6055   22.5526 C   0  0  0  0  0  0  0  0  0  0  0  0
  -22.3308   -8.7159   20.1896 C   0  0  0  0  0  0  0  0  0  0  0  0
  -23.0903   -8.7216   22.4831 C   0  0  0  0  0  0  0  0  0  0  0  0
  -25.8513  -16.9179   27.7446 C   0  0  0  0  0  0  0  0  0  0  0  0
  -19.8618   -7.9248   23.0848 C   0  0  0  0  0  0  0  0  0  0  0  0
  -19.1046   -7.8847   24.2556 C   0  0  0  0  0  0  0  0  0  0  0  0
  -24.4284  -18.8608   27.6043 C   0  0  0  0  0  0  0  0  0  0  0  0
  -29.8810  -17.4551   23.1420 C   0  0  0  0  0  0  0  0  0  0  0  0
  -20.3452   -5.9465   24.9915 C   0  0  0  0  0  0  0  0  0  0  0  0
  -23.8272  -10.4482   20.9623 C   0  0  0  0  0  0  0  0  0  0  0  0
  -24.1700  -12.9732   20.8433 C   0  0  0  0  0  0  0  0  0  0  0  0
  -17.1818  -13.9029   24.3914 C   0  0  0  0  0  0  0  0  0  0  0  0
  -23.4582  -16.6968   28.0898 C   0  0  0  0  0  0  0  0  0  0  0  0
  -18.5720  -13.9900   24.5966 C   0  0  0  0  0  0  0  0  0  0  0  0
  -23.3010  -18.0758   27.8904 C   0  0  0  0  0  0  0  0  0  0  0  0
  -30.4692  -18.3387   24.0471 C   0  0  0  0  0  0  0  0  0  0  0  0
  -30.6787  -16.5885   22.3948 C   0  0  0  0  0  0  0  0  0  0  0  0
  -22.3384   -8.1423   21.4610 C   0  0  0  0  0  0  0  0  0  0  0  0
  -25.6961  -18.2843   27.5302 C   0  0  0  0  0  0  0  0  0  0  0  0
  -20.8606   -6.9757   22.8673 C   0  0  0  0  0  0  0  0  0  0  0  0
  -19.3463   -6.8956   25.2089 C   0  0  0  0  0  0  0  0  0  0  0  0
  -21.1023   -5.9866   23.8206 C   0  0  0  0  0  0  0  0  0  0  0  0
  -24.5968  -11.6389   20.7051 C   0  0  0  0  0  0  0  0  0  0  0  0
  -25.2625  -13.7224   20.4805 C   0  0  0  0  0  0  0  0  0  0  0  0
  -28.2474  -19.3279   24.7653 C   0  0  0  0  0  0  0  0  0  0  0  0
  -22.8996  -13.4894   21.2622 C   0  0  0  0  0  0  0  0  0  0  0  0
  -20.7510  -16.3138   26.4687 C   0  0  0  0  0  0  0  0  0  0  0  0
  -19.5754  -18.3371   28.7151 C   0  0  0  0  0  0  0  0  0  0  0  0
  -20.1852  -20.7884   31.0100 C   0  0  0  0  0  0  0  0  0  0  0  0
  -30.7290  -14.7659   20.6565 C   0  0  0  0  0  0  0  0  0  0  0  0
  -16.3282  -15.1330   24.2100 C   0  0  0  0  0  0  0  0  0  0  0  0
  -22.2711  -15.8350   28.4222 C   0  0  0  0  0  0  0  0  0  0  0  0
  -21.9510  -18.7393   27.9666 C   0  0  0  0  0  0  0  0  0  0  0  0
  -16.9974  -16.4159   24.6961 C   0  0  0  0  0  0  0  0  0  0  0  0
  -29.6141  -12.3534   18.2870 C   0  0  0  0  0  0  0  0  0  0  0  0
  -18.4349  -16.4925   24.1915 C   0  0  0  0  0  0  0  0  0  0  0  0
  -28.1742  -12.0622   18.7163 C   0  0  0  0  0  0  0  0  0  0  0  0
  -29.0545  -20.6455   26.5801 C   0  0  0  0  0  0  0  0  0  0  0  0
  -30.5291  -12.5814   19.4889 C   0  0  0  0  0  0  0  0  0  0  0  0
  -30.2246  -20.1981   25.7251 C   0  0  0  0  0  0  0  0  0  0  0  0
  -28.6222  -13.3061   20.8702 C   0  0  0  0  0  0  0  0  0  0  0  0
  -19.2714  -15.3254   24.7296 C   0  0  1  0  0  0  0  0  0  0  0  0
  -20.9484  -16.4334   27.9534 C   0  0  1  0  0  0  0  0  0  0  0  0
  -27.6495  -13.1336   19.6922 C   0  0  2  0  0  0  0  0  0  0  0  0
  -27.8447  -20.5046   25.6528 C   0  0  1  0  0  0  0  0  0  0  0  0
  -27.6571  -21.7481   24.7758 C   0  0  0  0  0  0  0  0  0  0  0  0
  -19.0195  -22.2717   32.6648 C   0  0  0  0  0  0  0  0  0  0  0  0
  -18.5603  -20.0851   26.4295 C   0  0  0  0  0  0  0  0  0  0  0  0
  -18.2739  -21.9498   28.0754 C   0  0  0  0  0  0  0  0  0  0  0  0
  -16.9682  -19.8412   28.3427 C   0  0  0  0  0  0  0  0  0  0  0  0
  -21.7093  -19.6516   33.2780 C   0  0  0  0  0  0  0  0  0  0  0  0
  -26.5673  -20.2068   26.4342 C   0  0  0  0  0  0  0  0  0  1  0  0
  -19.4467  -19.8360   28.8416 C   0  0  1  0  0  0  0  0  0  0  0  0
  -19.7418  -20.9503   32.4528 C   0  0  2  0  0  0  0  0  0  0  0  0
  -18.3376  -20.4155   27.9189 C   0  0  0  0  0  0  0  0  0  0  0  0
  -25.8616  -11.5427   20.2870 N   0  0  0  0  0  0  0  0  0  0  0  0
  -26.2391  -12.8262   20.1592 N   0  0  0  0  0  0  0  0  0  0  0  0
  -29.6533  -19.2264   24.8120 N   0  0  0  0  0  0  0  0  0  0  0  0
  -20.8201  -17.8531   28.2882 N   0  0  0  0  0  0  0  0  0  0  0  0
  -29.9704  -13.6121   20.3666 N   0  0  0  0  0  0  0  0  0  0  0  0
  -25.4734  -15.0539   20.4081 N   0  0  0  0  0  0  0  0  0  0  0  0
  -21.8873  -12.5805   21.5990 N   0  0  0  0  0  0  0  0  0  0  0  0
  -30.0819  -15.6909   21.4751 N   0  0  0  0  0  0  0  0  0  0  0  0
  -19.6473  -15.5655   26.1063 N   0  0  0  0  0  0  0  0  0  0  0  0
  -19.2473  -20.1103   30.2605 N   0  0  0  0  0  0  0  0  0  0  0  0
  -20.9198  -20.9070   33.3646 N   0  3  0  0  0  0  0  0  0  0  0  0
  -27.4411  -18.6788   24.1134 O   0  0  0  0  0  0  0  0  0  0  0  0
  -22.6638  -14.7201   21.3200 O   0  0  0  0  0  0  0  0  0  0  0  0
  -21.5407  -16.8612   25.7082 O   0  0  0  0  0  0  0  0  0  0  0  0
  -18.6094  -17.6218   28.9920 O   0  0  0  0  0  0  0  0  0  0  0  0
  -21.2548  -21.2234   30.5890 O   0  0  0  0  0  0  0  0  0  0  0  0
  -31.8583  -14.9344   20.1891 O   0  0  0  0  0  0  0  0  0  0  0  0
  -21.6119   -7.0173   21.7048 O   0  0  0  0  0  0  0  0  0  0  0  0
  -26.7809  -19.0581   27.2535 O   0  0  0  0  0  0  0  0  0  1  0  0
  -18.6202   -6.8581   26.3339 F   0  0  0  0  0  0  0  0  0  0  0  0
  -22.0613   -5.0728   23.6178 F   0  0  0  0  0  0  0  0  0  0  0  0
  1  2  1  0  0  0  0
  1  6  2  0  0  0  0
  2  7  2  0  0  0  0
  3  9  2  0  0  0  0
  3 10  1  0  0  0  0
  4 11  2  0  0  0  0
  4 19  1  0  0  0  0
  5 12  1  0  0  0  0
  5 19  2  0  0  0  0
  6 21  1  0  0  0  0
  7 23  1  0  0  0  0
  8 13  2  0  0  0  0
  8 22  1  0  0  0  0
  9 25  1  0  0  0  0
 10 26  2  0  0  0  0
 11 27  1  0  0  0  0
 12 27  2  0  0  0  0
 13 28  1  0  0  0  0
 14 15  2  0  0  0  0
 14 29  1  0  0  0  0
 15 30  1  0  0  0  0
 16 24  1  0  0  0  0
 16 28  2  0  0  0  0
 17 25  2  0  0  0  0
 17 26  1  0  0  0  0
 18 30  2  0  0  0  0
 18 31  1  0  0  0  0
 19 32  1  0  0  0  0
 20 32  1  0  0  0  0
 20 33  2  0  0  0  0
 20 35  1  0  0  0  0
 21 23  2  0  0  0  0
 21 40  1  0  0  0  0
 22 24  2  0  0  0  0
 22 41  1  0  0  0  0
 23 51  1  0  0  0  0
 24 42  1  0  0  0  0
 25 67  1  0  0  0  0
 26 72  1  0  0  0  0
 27 82  1  0  0  0  0
 28 83  1  0  0  0  0
 29 31  2  0  0  0  0
 29 82  1  0  0  0  0
 30 84  1  0  0  0  0
 31 85  1  0  0  0  0
 32 65  2  0  0  0  0
 33 66  1  0  0  0  0
 33 70  1  0  0  0  0
 34 54  1  0  0  0  0
 34 67  1  0  0  0  0
 34 76  2  0  0  0  0
 35 71  1  0  0  0  0
 35 77  2  0  0  0  0
 36 52  1  0  0  0  0
 36 73  1  0  0  0  0
 36 78  2  0  0  0  0
 37 62  1  0  0  0  0
 37 68  1  0  0  0  0
 37 79  2  0  0  0  0
 38 63  1  0  0  0  0
 38 74  1  0  0  0  0
 38 80  2  0  0  0  0
 39 69  1  0  0  0  0
 39 72  1  0  0  0  0
 39 81  2  0  0  0  0
 40 43  1  0  0  0  0
 41 52  1  0  0  0  0
 42 68  1  0  0  0  0
 43 45  1  0  0  0  0
 44 46  1  0  0  0  0
 44 48  1  0  0  0  0
 45 51  1  0  0  0  0
 46 53  1  0  0  0  0
 47 49  1  0  0  0  0
 47 54  1  0  0  0  0
 48 69  1  0  0  0  0
 49 67  1  0  0  0  0
 50 53  1  0  0  0  0
 50 69  1  0  0  0  0
 51 73  1  0  0  0  0
 52 68  1  0  0  0  0
 53 66  1  0  0  0  0
 54 55  1  0  0  0  0
 54 61  1  0  0  0  0
 56 63  1  0  0  0  0
 57 64  1  0  0  0  0
 58 64  1  0  0  0  0
 59 64  1  0  0  0  0
 60 75  1  0  0  0  0
 61 83  1  0  0  0  0
 62 64  1  0  0  0  0
 62 74  1  0  0  0  0
 63 75  1  0  0  0  0
 65 66  1  0  0  0  0
M  CHG  1  75   1
M  ISO  4  39 100  61 101  72 100  83 101
M  END
> <Batch ID>
0062

> <Smiles>
CNC(C)C(=O)NC(C(=O)N1Cc2cc([101O:1][101CH2:1]C3(C)CCN(c4cccc([100NH:0][100C:0](=O)N5CCCC(n6nc(-c7ccc(Oc8ccc(F)cc8F)cc7)c(C(N)=O)c6N)C5)c4)C3=O)ccc2CC1C(=O)NC1CCCc2ccccc21)C(C)(C)C

> <Shape>
0.165

> <Color>
0.192

> <Negative vol penalty>
0.000

$$$$

  -OEChem-04042323093D

 87 96  0     1  0  0  0  0  0999 V2000
  -31.7830  -22.5530   17.3855 C   0  0  0  0  0  0  0  0  0  0  0  0
  -31.0498  -23.5814   16.8044 C   0  0  0  0  0  0  0  0  0  0  0  0
  -26.4372  -13.7573   19.9044 C   0  0  0  0  0  0  0  0  0  0  0  0
  -24.7920  -13.9172   21.6665 C   0  0  0  0  0  0  0  0  0  0  0  0
  -31.4530  -22.1017   18.6617 C   0  0  0  0  0  0  0  0  0  0  0  0
  -29.9941  -24.1670   17.5040 C   0  0  0  0  0  0  0  0  0  0  0  0
  -23.8806  -29.0714   18.8439 C   0  0  0  0  0  0  0  0  0  0  0  0
  -21.9182  -24.9674   24.0485 C   0  0  0  0  0  0  0  0  0  0  0  0
  -22.9461  -24.0250   24.0219 C   0  0  0  0  0  0  0  0  0  0  0  0
  -26.3691  -12.3655   19.9671 C   0  0  0  0  0  0  0  0  0  0  0  0
  -24.7238  -12.5254   21.7292 C   0  0  0  0  0  0  0  0  0  0  0  0
  -22.7529  -29.2509   19.6438 C   0  0  0  0  0  0  0  0  0  0  0  0
  -23.2676  -10.0235   19.9855 C   0  0  0  0  0  0  0  0  0  0  0  0
  -22.0023   -9.4405   20.0544 C   0  0  0  0  0  0  0  0  0  0  0  0
  -24.1336  -29.0923   21.6155 C   0  0  0  0  0  0  0  0  0  0  0  0
  -22.5816   -8.4336   22.1729 C   0  0  0  0  0  0  0  0  0  0  0  0
  -25.6487  -14.5331   20.7541 C   0  0  0  0  0  0  0  0  0  0  0  0
  -25.4327  -16.7875   19.5798 C   0  0  0  0  0  0  0  0  0  0  0  0
  -30.3847  -22.6742   19.3715 C   0  0  0  0  0  0  0  0  0  0  0  0
  -25.1439  -28.8898   19.4250 C   0  0  0  0  0  0  0  0  0  0  0  0
  -29.6607  -23.7417   18.8027 C   0  0  0  0  0  0  0  0  0  0  0  0
  -25.2762  -28.9133   20.8208 C   0  0  0  0  0  0  0  0  0  0  0  0
  -21.2963  -24.3529   21.7963 C   0  0  0  0  0  0  0  0  0  0  0  0
  -22.3242  -23.4105   21.7696 C   0  0  0  0  0  0  0  0  0  0  0  0
  -21.0932  -25.1314   22.9358 C   0  0  0  0  0  0  0  0  0  0  0  0
  -23.1492  -23.2465   22.8824 C   0  0  0  0  0  0  0  0  0  0  0  0
  -25.5124  -11.7496   20.8795 C   0  0  0  0  0  0  0  0  0  0  0  0
  -22.8788  -29.2585   21.0298 C   0  0  0  0  0  0  0  0  0  0  0  0
  -24.1900   -9.8114   21.0103 C   0  0  0  0  0  0  0  0  0  0  0  0
  -21.6593   -8.6456   21.1481 C   0  0  0  0  0  0  0  0  0  0  0  0
  -23.8469   -9.0166   22.1039 C   0  0  0  0  0  0  0  0  0  0  0  0
  -25.7190  -15.9709   20.6902 C   0  0  0  0  0  0  0  0  0  0  0  0
  -25.6491  -18.0670   20.0297 C   0  0  0  0  0  0  0  0  0  0  0  0
  -18.6863  -25.7461   22.8282 C   0  0  0  0  0  0  0  0  0  0  0  0
  -25.0090  -16.4220   18.2597 C   0  0  0  0  0  0  0  0  0  0  0  0
  -27.3016  -26.5558   19.4180 C   0  0  0  0  0  0  0  0  0  0  0  0
  -29.0914  -28.7343   21.0222 C   0  0  0  0  0  0  0  0  0  0  0  0
  -28.5630  -31.1649   23.6356 C   0  0  0  0  0  0  0  0  0  0  0  0
  -25.0996  -22.0250   23.9072 C   0  0  0  0  0  0  0  0  0  0  0  0
  -30.0758  -22.1525   20.7527 C   0  0  0  0  0  0  0  0  0  0  0  0
  -26.3544  -28.7241   18.5478 C   0  0  0  0  0  0  0  0  0  0  0  0
  -26.6128  -28.7429   21.4936 C   0  0  0  0  0  0  0  0  0  0  0  0
  -17.7365  -26.9288   22.8335 C   0  0  0  0  0  0  0  0  0  0  0  0
  -28.6761  -22.5258   21.2300 C   0  0  0  0  0  0  0  0  0  0  0  0
  -18.2918  -28.0285   21.9465 C   0  0  0  0  0  0  0  0  0  0  0  0
  -27.8017  -19.7392   24.2949 C   0  0  0  0  0  0  0  0  0  0  0  0
  -28.4359  -24.0137   21.0227 C   0  0  0  0  0  0  0  0  0  0  0  0
  -27.4772  -18.6222   23.3003 C   0  0  0  0  0  0  0  0  0  0  0  0
  -26.5412  -20.2938   24.9559 C   0  0  0  0  0  0  0  0  0  0  0  0
  -20.3515  -27.4942   23.3595 C   0  0  0  0  0  0  0  0  0  0  0  0
  -25.1658  -19.6079   23.0305 C   0  0  0  0  0  0  0  0  0  0  0  0
  -28.4888  -24.3730   19.5324 C   0  0  1  0  0  0  0  0  0  0  0  0
  -27.5159  -28.0342   19.2565 C   0  0  1  0  0  0  0  0  0  0  0  0
  -19.6447  -28.5304   22.4657 C   0  0  1  0  0  0  0  0  0  0  0  0
  -26.3983  -19.0620   22.2912 C   0  0  2  0  0  0  0  0  0  0  0  0
  -20.4116  -24.5267   20.6014 C   0  0  0  0  0  0  0  0  0  0  0  0
  -22.5405  -22.5760   20.5458 C   0  0  0  0  0  0  0  0  0  0  0  0
  -29.7722  -33.3046   24.1424 C   0  0  0  0  0  0  0  0  0  0  0  0
  -30.7441  -27.0115   22.9223 C   0  0  0  0  0  0  0  0  0  0  0  0
  -30.7511  -28.9237   24.5384 C   0  0  0  0  0  0  0  0  0  0  0  0
  -31.8074  -29.1862   22.2939 C   0  0  0  0  0  0  0  0  0  0  0  0
  -26.0582  -32.7386   23.5410 C   0  0  0  0  0  0  0  0  0  0  0  0
  -20.5345  -28.9621   21.2986 C   0  0  0  0  0  0  0  0  0  1  0  0
  -29.2872  -29.0956   22.4748 C   0  0  1  0  0  0  0  0  0  0  0  0
  -28.5545  -32.6754   23.4837 C   0  0  2  0  0  0  0  0  0  0  0  0
  -30.6229  -28.5434   23.0479 C   0  0  0  0  0  0  0  0  0  0  0  0
  -26.0892  -16.6727   21.7646 N   0  0  0  0  0  0  0  0  0  0  0  0
  -26.0370  -17.9438   21.3314 N   0  0  0  0  0  0  0  0  0  0  0  0
  -20.0391  -26.1087   22.9861 N   0  0  0  0  0  0  0  0  0  0  0  0
  -27.7658  -28.5779   20.5930 N   0  0  0  0  0  0  0  0  0  0  0  0
  -25.5662  -20.6938   23.9389 N   0  0  0  0  0  0  0  0  0  0  0  0
  -25.5435  -19.2742   19.4348 N   0  0  0  0  0  0  0  0  0  0  0  0
  -23.6348  -16.3252   18.0019 N   0  0  0  0  0  0  0  0  0  0  0  0
  -24.2004  -22.2964   22.8765 N   0  0  0  0  0  0  0  0  0  0  0  0
  -28.4662  -25.8124   19.3927 N   0  0  0  0  0  0  0  0  0  0  0  0
  -29.1567  -30.5464   22.5558 N   0  0  0  0  0  0  0  0  0  0  0  0
  -27.3311  -33.2520   24.1095 N   0  3  0  0  0  0  0  0  0  0  0  0
  -18.2361  -24.6037   22.7484 O   0  0  0  0  0  0  0  0  0  0  0  0
  -25.8251  -16.1723   17.3404 O   0  0  0  0  0  0  0  0  0  0  0  0
  -26.1641  -26.1218   19.5568 O   0  0  0  0  0  0  0  0  0  0  0  0
  -30.0779  -28.6029   20.2934 O   0  0  0  0  0  0  0  0  0  0  0  0
  -28.0934  -30.5914   24.6160 O   0  0  0  0  0  0  0  0  0  0  0  0
  -25.4912  -22.8694   24.7169 O   0  0  0  0  0  0  0  0  0  0  0  0
  -25.4455  -10.3915   20.9408 O   0  0  0  0  0  0  0  0  0  0  0  0
  -21.7796  -29.4329   21.8129 O   0  0  0  0  0  0  0  0  0  1  0  0
  -20.4436   -8.0872   21.2149 F   0  0  0  0  0  0  0  0  0  0  0  0
  -24.7284   -8.8102   23.0920 F   0  0  0  0  0  0  0  0  0  0  0  0
  1  2  1  0  0  0  0
  1  5  2  0  0  0  0
  2  6  2  0  0  0  0
  3 10  2  0  0  0  0
  3 17  1  0  0  0  0
  4 11  1  0  0  0  0
  4 17  2  0  0  0  0
  5 19  1  0  0  0  0
  6 21  1  0  0  0  0
  7 12  2  0  0  0  0
  7 20  1  0  0  0  0
  8  9  2  0  0  0  0
  8 25  1  0  0  0  0
  9 26  1  0  0  0  0
 10 27  1  0  0  0  0
 11 27  2  0  0  0  0
 12 28  1  0  0  0  0
 13 14  2  0  0  0  0
 13 29  1  0  0  0  0
 14 30  1  0  0  0  0
 15 22  1  0  0  0  0
 15 28  2  0  0  0  0
 16 30  2  0  0  0  0
 16 31  1  0  0  0  0
 17 32  1  0  0  0  0
 18 32  1  0  0  0  0
 18 33  2  0  0  0  0
 18 35  1  0  0  0  0
 19 21  2  0  0  0  0
 19 40  1  0  0  0  0
 20 22  2  0  0  0  0
 20 41  1  0  0  0  0
 21 52  1  0  0  0  0
 22 42  1  0  0  0  0
 23 24  1  0  0  0  0
 23 25  2  0  0  0  0
 23 56  1  0  0  0  0
 24 26  2  0  0  0  0
 24 57  1  0  0  0  0
 25 69  1  0  0  0  0
 26 74  1  0  0  0  0
 27 84  1  0  0  0  0
 28 85  1  0  0  0  0
 29 31  2  0  0  0  0
 29 84  1  0  0  0  0
 30 86  1  0  0  0  0
 31 87  1  0  0  0  0
 32 67  2  0  0  0  0
 33 68  1  0  0  0  0
 33 72  1  0  0  0  0
 34 43  1  0  0  0  0
 34 69  1  0  0  0  0
 34 78  2  0  0  0  0
 35 73  1  0  0  0  0
 35 79  2  0  0  0  0
 36 53  1  0  0  0  0
 36 75  1  0  0  0  0
 36 80  2  0  0  0  0
 37 64  1  0  0  0  0
 37 70  1  0  0  0  0
 37 81  2  0  0  0  0
 38 65  1  0  0  0  0
 38 76  1  0  0  0  0
 38 82  2  0  0  0  0
 39 71  1  0  0  0  0
 39 74  1  0  0  0  0
 39 83  2  0  0  0  0
 40 44  1  0  0  0  0
 41 53  1  0  0  0  0
 42 70  1  0  0  0  0
 43 45  1  0  0  0  0
 44 47  1  0  0  0  0
 45 54  1  0  0  0  0
 46 48  1  0  0  0  0
 46 49  1  0  0  0  0
 47 52  1  0  0  0  0
 48 55  1  0  0  0  0
 49 71  1  0  0  0  0
 50 54  1  0  0  0  0
 50 69  1  0  0  0  0
 51 55  1  0  0  0  0
 51 71  1  0  0  0  0
 52 75  1  0  0  0  0
 53 70  1  0  0  0  0
 54 63  1  0  0  0  0
 55 68  1  0  0  0  0
 58 65  1  0  0  0  0
 59 66  1  0  0  0  0
 60 66  1  0  0  0  0
 61 66  1  0  0  0  0
 62 77  1  0  0  0  0
 63 85  1  0  0  0  0
 64 66  1  0  0  0  0
 64 76  1  0  0  0  0
 65 77  1  0  0  0  0
 67 68  1  0  0  0  0
M  CHG  1  77   1
M  ISO  4  39 100  63 101  74 100  85 101
M  END
> <Batch ID>
0062

> <Smiles>
CNC(C)C(=O)NC(C(=O)N1Cc2cc([101O:1][101CH2:1]C3CCC(=O)N(c4ccc([100NH:0][100C:0](=O)N5CCCC(n6nc(-c7ccc(Oc8ccc(F)cc8F)cc7)c(C(N)=O)c6N)C5)c(C)c4C)C3)ccc2CC1C(=O)NC1CCCc2ccccc21)C(C)(C)C

> <Shape>
0.267

> <Color>
0.064

> <Negative vol penalty>
0.000

$$$$

  -OEChem-04042323093D

 87 96  0     1  0  0  0  0  0999 V2000
  -26.7172  -33.2127   28.3406 C   0  0  0  0  0  0  0  0  0  0  0  0
  -27.0110  -33.8689   27.1496 C   0  0  0  0  0  0  0  0  0  0  0  0
  -22.5103  -12.2983   22.2904 C   0  0  0  0  0  0  0  0  0  0  0  0
  -24.0288  -10.4675   22.7134 C   0  0  0  0  0  0  0  0  0  0  0  0
  -26.6967  -31.8192   28.3806 C   0  0  0  0  0  0  0  0  0  0  0  0
  -27.2857  -33.1319   25.9982 C   0  0  0  0  0  0  0  0  0  0  0  0
  -26.4007  -29.6625   18.4065 C   0  0  0  0  0  0  0  0  0  0  0  0
  -21.7291  -11.9012   23.3755 C   0  0  0  0  0  0  0  0  0  0  0  0
  -23.2477  -10.0703   23.7986 C   0  0  0  0  0  0  0  0  0  0  0  0
  -26.6628  -28.4009   17.8741 C   0  0  0  0  0  0  0  0  0  0  0  0
  -20.3616   -8.3839   24.3062 C   0  0  0  0  0  0  0  0  0  0  0  0
  -20.0748   -7.0250   24.4354 C   0  0  0  0  0  0  0  0  0  0  0  0
  -25.6403  -27.3799   19.8057 C   0  0  0  0  0  0  0  0  0  0  0  0
  -28.4023  -20.2258   20.5289 C   0  0  0  0  0  0  0  0  0  0  0  0
  -29.6197  -19.4971   18.5734 C   0  0  0  0  0  0  0  0  0  0  0  0
  -21.1698   -6.9987   26.5889 C   0  0  0  0  0  0  0  0  0  0  0  0
  -23.6601  -11.5814   21.9592 C   0  0  0  0  0  0  0  0  0  0  0  0
  -24.0661  -12.0868   19.4920 C   0  0  0  0  0  0  0  0  0  0  0  0
  -26.9617  -31.0648   27.2268 C   0  0  0  0  0  0  0  0  0  0  0  0
  -25.7651  -29.7923   19.6497 C   0  0  0  0  0  0  0  0  0  0  0  0
  -27.2701  -31.7270   26.0231 C   0  0  0  0  0  0  0  0  0  0  0  0
  -25.3690  -28.6442   20.3505 C   0  0  0  0  0  0  0  0  0  0  0  0
  -28.4097  -18.9203   21.0200 C   0  0  0  0  0  0  0  0  0  0  0  0
  -29.0072  -20.5142   19.3055 C   0  0  0  0  0  0  0  0  0  0  0  0
  -29.0222  -17.9032   20.2879 C   0  0  0  0  0  0  0  0  0  0  0  0
  -22.0978  -10.7872   24.1297 C   0  0  0  0  0  0  0  0  0  0  0  0
  -26.2852  -27.2593   18.5750 C   0  0  0  0  0  0  0  0  0  0  0  0
  -21.0526   -9.0502   25.3183 C   0  0  0  0  0  0  0  0  0  0  0  0
  -20.4789   -6.3324   25.5767 C   0  0  0  0  0  0  0  0  0  0  0  0
  -29.6272  -18.1916   19.0646 C   0  0  0  0  0  0  0  0  0  0  0  0
  -21.4567   -8.3576   26.4596 C   0  0  0  0  0  0  0  0  0  0  0  0
  -24.4671  -11.9908   20.8380 C   0  0  0  0  0  0  0  0  0  0  0  0
  -25.1898  -12.5158   18.8287 C   0  0  0  0  0  0  0  0  0  0  0  0
  -30.0318  -22.3536   17.9803 C   0  0  0  0  0  0  0  0  0  0  0  0
  -22.7918  -11.8129   18.8946 C   0  0  0  0  0  0  0  0  0  0  0  0
  -26.5698  -31.0384   22.4611 C   0  0  0  0  0  0  0  0  0  0  0  0
  -23.4875  -30.3561   23.2067 C   0  0  0  0  0  0  0  0  0  0  0  0
  -21.1803  -27.6406   22.6406 C   0  0  0  0  0  0  0  0  0  0  0  0
  -30.0125  -15.6006   20.5404 C   0  0  0  0  0  0  0  0  0  0  0  0
  -26.9744  -29.5602   27.3302 C   0  0  0  0  0  0  0  0  0  0  0  0
  -25.4656  -31.1606   20.1979 C   0  0  0  0  0  0  0  0  0  0  0  0
  -24.6657  -28.7297   21.6796 C   0  0  0  0  0  0  0  0  0  0  0  0
  -29.7813  -23.7206   17.3581 C   0  0  0  0  0  0  0  0  0  0  0  0
  -26.9086  -28.8561   25.9774 C   0  0  0  0  0  0  0  0  0  0  0  0
  -29.9700  -12.3581   19.0703 C   0  0  0  0  0  0  0  0  0  0  0  0
  -27.8916  -29.4892   24.9977 C   0  0  0  0  0  0  0  0  0  0  0  0
  -28.5162  -11.9072   19.2288 C   0  0  0  0  0  0  0  0  0  0  0  0
  -30.4470  -13.1685   20.2743 C   0  0  0  0  0  0  0  0  0  0  0  0
  -28.1388  -13.8566   20.7923 C   0  0  0  0  0  0  0  0  0  0  0  0
  -27.9746  -22.7887   19.3096 C   0  0  0  0  0  0  0  0  0  0  0  0
  -27.5490  -30.9627   24.7471 C   0  0  1  0  0  0  0  0  0  0  0  0
  -25.2742  -31.1692   21.7114 C   0  0  1  0  0  0  0  0  0  0  0  0
  -27.5932  -13.0920   19.5752 C   0  0  2  0  0  0  0  0  0  0  0  0
  -27.6943  -23.9415   18.3558 C   0  0  1  0  0  0  0  0  0  0  0  0
  -27.7528  -18.6403   22.3330 C   0  0  0  0  0  0  0  0  0  0  0  0
  -18.6741  -27.6287   22.5137 C   0  0  0  0  0  0  0  0  0  0  0  0
  -23.6297  -29.6519   26.1722 C   0  0  0  0  0  0  0  0  0  0  0  0
  -21.6919  -28.1048   25.8263 C   0  0  0  0  0  0  0  0  0  0  0  0
  -21.4211  -30.5507   25.4182 C   0  0  0  0  0  0  0  0  0  0  0  0
  -21.2059  -26.3713   19.9671 C   0  0  0  0  0  0  0  0  0  0  0  0
  -26.7615  -24.9659   18.9864 C   0  0  0  0  0  0  0  0  0  1  0  0
  -22.7670  -29.1637   23.7882 C   0  0  1  0  0  0  0  0  0  0  0  0
  -19.9721  -27.6513   21.7216 C   0  0  2  0  0  0  0  0  0  0  0  0
  -22.4012  -29.3648   25.2859 C   0  0  0  0  0  0  0  0  0  0  0  0
  -25.7457  -12.3312   21.0206 N   0  0  0  0  0  0  0  0  0  0  0  0
  -26.1579  -12.6452   19.7806 N   0  0  0  0  0  0  0  0  0  0  0  0
  -28.9980  -21.8661   18.7971 N   0  0  0  0  0  0  0  0  0  0  0  0
  -24.4008  -30.0899   22.1768 N   0  0  0  0  0  0  0  0  0  0  0  0
  -29.5264  -14.2761   20.5402 N   0  0  0  0  0  0  0  0  0  0  0  0
  -25.4342  -12.7910   17.5299 N   0  0  0  0  0  0  0  0  0  0  0  0
  -21.7456  -11.3808   19.7210 N   0  0  0  0  0  0  0  0  0  0  0  0
  -29.0392  -16.5719   20.7727 N   0  0  0  0  0  0  0  0  0  0  0  0
  -26.4306  -31.0736   23.8354 N   0  0  0  0  0  0  0  0  0  0  0  0
  -21.6200  -28.9170   22.9210 N   0  0  0  0  0  0  0  0  0  0  0  0
  -19.9947  -26.4630   20.8224 N   0  3  0  0  0  0  0  0  0  0  0  0
  -31.0806  -21.7675   17.7055 O   0  0  0  0  0  0  0  0  0  0  0  0
  -22.5916  -11.9316   17.6620 O   0  0  0  0  0  0  0  0  0  0  0  0
  -27.6180  -30.9132   21.8387 O   0  0  0  0  0  0  0  0  0  0  0  0
  -23.2435  -31.4830   23.6452 O   0  0  0  0  0  0  0  0  0  0  0  0
  -21.6815  -26.6038   23.0699 O   0  0  0  0  0  0  0  0  0  0  0  0
  -31.1994  -15.8564   20.3216 O   0  0  0  0  0  0  0  0  0  0  0  0
  -28.9318  -24.5831   18.0761 O   0  0  0  0  0  0  0  0  0  0  0  0
  -21.3359  -10.3995   25.1889 O   0  0  0  0  0  0  0  0  0  0  0  0
  -26.5404  -26.0267   18.0579 O   0  0  0  0  0  0  0  0  0  1  0  0
  -20.2020   -5.0278   25.7014 F   0  0  0  0  0  0  0  0  0  0  0  0
  -30.2189  -17.2224   18.3518 F   0  0  0  0  0  0  0  0  0  0  0  0
  -22.1198   -8.9926   27.4358 F   0  0  0  0  0  0  0  0  0  0  0  0
  1  2  1  0  0  0  0
  1  5  2  0  0  0  0
  2  6  2  0  0  0  0
  3  8  2  0  0  0  0
  3 17  1  0  0  0  0
  4  9  1  0  0  0  0
  4 17  2  0  0  0  0
  5 19  1  0  0  0  0
  6 21  1  0  0  0  0
  7 10  2  0  0  0  0
  7 20  1  0  0  0  0
  8 26  1  0  0  0  0
  9 26  2  0  0  0  0
 10 27  1  0  0  0  0
 11 12  2  0  0  0  0
 11 28  1  0  0  0  0
 12 29  1  0  0  0  0
 13 22  1  0  0  0  0
 13 27  2  0  0  0  0
 14 23  2  0  0  0  0
 14 24  1  0  0  0  0
 15 24  2  0  0  0  0
 15 30  1  0  0  0  0
 16 29  2  0  0  0  0
 16 31  1  0  0  0  0
 17 32  1  0  0  0  0
 18 32  1  0  0  0  0
 18 33  2  0  0  0  0
 18 35  1  0  0  0  0
 19 21  2  0  0  0  0
 19 40  1  0  0  0  0
 20 22  2  0  0  0  0
 20 41  1  0  0  0  0
 21 51  1  0  0  0  0
 22 42  1  0  0  0  0
 23 25  1  0  0  0  0
 23 55  1  0  0  0  0
 24 67  1  0  0  0  0
 25 30  2  0  0  0  0
 25 72  1  0  0  0  0
 26 83  1  0  0  0  0
 27 84  1  0  0  0  0
 28 31  2  0  0  0  0
 28 83  1  0  0  0  0
 29 85  1  0  0  0  0
 30 86  1  0  0  0  0
 31 87  1  0  0  0  0
 32 65  2  0  0  0  0
 33 66  1  0  0  0  0
 33 70  1  0  0  0  0
 34 43  1  0  0  0  0
 34 67  1  0  0  0  0
 34 76  2  0  0  0  0
 35 71  1  0  0  0  0
 35 77  2  0  0  0  0
 36 52  1  0  0  0  0
 36 73  1  0  0  0  0
 36 78  2  0  0  0  0
 37 62  1  0  0  0  0
 37 68  1  0  0  0  0
 37 79  2  0  0  0  0
 38 63  1  0  0  0  0
 38 74  1  0  0  0  0
 38 80  2  0  0  0  0
 39 69  1  0  0  0  0
 39 72  1  0  0  0  0
 39 81  2  0  0  0  0
 40 44  1  0  0  0  0
 41 52  1  0  0  0  0
 42 68  1  0  0  0  0
 43 82  1  0  0  0  0
 44 46  1  0  0  0  0
 45 47  1  0  0  0  0
 45 48  1  0  0  0  0
 46 51  1  0  0  0  0
 47 53  1  0  0  0  0
 48 69  1  0  0  0  0
 49 53  1  0  0  0  0
 49 69  1  0  0  0  0
 50 54  1  0  0  0  0
 50 67  1  0  0  0  0
 51 73  1  0  0  0  0
 52 68  1  0  0  0  0
 53 66  1  0  0  0  0
 54 61  1  0  0  0  0
 54 82  1  0  0  0  0
 56 63  1  0  0  0  0
 57 64  1  0  0  0  0
 58 64  1  0  0  0  0
 59 64  1  0  0  0  0
 60 75  1  0  0  0  0
 61 84  1  0  0  0  0
 62 64  1  0  0  0  0
 62 74  1  0  0  0  0
 63 75  1  0  0  0  0
 65 66  1  0  0  0  0
M  CHG  1  75   1
M  ISO  4  39 100  61 101  72 100  84 101
M  END
> <Batch ID>
0062

> <Smiles>
CNC(C)C(=O)NC(C(=O)N1Cc2cc([101O:1][101CH2:1]C3CN(c4cc(C)c([100NH:0][100C:0](=O)N5CCCC(n6nc(-c7ccc(Oc8ccc(F)cc8F)cc7)c(C(N)=O)c6N)C5)c(F)c4)C(=O)CO3)ccc2CC1C(=O)NC1CCCc2ccccc21)C(C)(C)C

> <Shape>
0.337

> <Color>
0.085

> <Negative vol penalty>
0.000

$$$$

  -OEChem-04042323093D

 88 96  0     1  0  0  0  0  0999 V2000
  -16.8885  -29.0587   24.3196 C   0  0  0  0  0  0  0  0  0  0  0  0
  -17.4545  -27.8920   23.8157 C   0  0  0  0  0  0  0  0  0  0  0  0
  -23.4503   -9.8139   21.5733 C   0  0  0  0  0  0  0  0  0  0  0  0
  -24.0418  -10.9229   23.6366 C   0  0  0  0  0  0  0  0  0  0  0  0
  -17.4358  -30.2974   23.9878 C   0  0  0  0  0  0  0  0  0  0  0  0
  -18.5676  -27.9634   22.9788 C   0  0  0  0  0  0  0  0  0  0  0  0
  -24.5318  -24.3671   21.3022 C   0  0  0  0  0  0  0  0  0  0  0  0
  -30.5148  -18.1417   18.8020 C   0  0  0  0  0  0  0  0  0  0  0  0
  -22.8270   -8.7981   22.2980 C   0  0  0  0  0  0  0  0  0  0  0  0
  -23.4185   -9.9071   24.3613 C   0  0  0  0  0  0  0  0  0  0  0  0
  -25.2078  -23.8597   20.1935 C   0  0  0  0  0  0  0  0  0  0  0  0
  -19.8943   -8.3306   23.9146 C   0  0  0  0  0  0  0  0  0  0  0  0
  -18.6384   -7.9035   23.4834 C   0  0  0  0  0  0  0  0  0  0  0  0
  -30.5236  -19.3990   18.1982 C   0  0  0  0  0  0  0  0  0  0  0  0
  -26.1162  -26.0504   19.7522 C   0  0  0  0  0  0  0  0  0  0  0  0
  -28.7529  -18.8672   20.2873 C   0  0  0  0  0  0  0  0  0  0  0  0
  -19.5072   -5.6718   23.1637 C   0  0  0  0  0  0  0  0  0  0  0  0
  -24.0578  -10.8763   22.2426 C   0  0  0  0  0  0  0  0  0  0  0  0
  -24.1173  -13.1160   21.0228 C   0  0  0  0  0  0  0  0  0  0  0  0
  -18.5620  -30.3835   23.1542 C   0  0  0  0  0  0  0  0  0  0  0  0
  -24.6344  -25.7246   21.6384 C   0  0  0  0  0  0  0  0  0  0  0  0
  -19.1296  -29.2045   22.6345 C   0  0  0  0  0  0  0  0  0  0  0  0
  -25.4425  -26.5721   20.8671 C   0  0  0  0  0  0  0  0  0  0  0  0
  -28.7617  -20.1247   19.6836 C   0  0  0  0  0  0  0  0  0  0  0  0
  -29.6294  -17.8757   19.8465 C   0  0  0  0  0  0  0  0  0  0  0  0
  -22.8110   -8.8447   23.6920 C   0  0  0  0  0  0  0  0  0  0  0  0
  -25.9978  -24.7019   19.4165 C   0  0  0  0  0  0  0  0  0  0  0  0
  -20.9566   -7.4284   23.9703 C   0  0  0  0  0  0  0  0  0  0  0  0
  -18.4449   -6.5741   23.1079 C   0  0  0  0  0  0  0  0  0  0  0  0
  -20.7631   -6.0990   23.5949 C   0  0  0  0  0  0  0  0  0  0  0  0
  -29.6471  -20.3905   18.6390 C   0  0  0  0  0  0  0  0  0  0  0  0
  -24.7024  -11.9257   21.4946 C   0  0  0  0  0  0  0  0  0  0  0  0
  -25.1397  -13.7696   20.3794 C   0  0  0  0  0  0  0  0  0  0  0  0
  -22.7701  -13.5887   21.1544 C   0  0  0  0  0  0  0  0  0  0  0  0
  -22.5826  -28.1423   21.8587 C   0  0  0  0  0  0  0  0  0  0  0  0
  -25.1671  -29.7193   23.0230 C   0  0  0  0  0  0  0  0  0  0  0  0
  -28.5654  -29.9771   23.2020 C   0  0  0  0  0  0  0  0  0  0  0  0
  -30.4254  -15.5040   20.1427 C   0  0  0  0  0  0  0  0  0  0  0  0
  -19.0895  -31.7474   22.7854 C   0  0  0  0  0  0  0  0  0  0  0  0
  -23.9203  -26.2508   22.8531 C   0  0  0  0  0  0  0  0  0  0  0  0
  -25.6021  -28.0328   21.1976 C   0  0  0  0  0  0  0  0  0  0  0  0
  -20.4967  -31.7169   22.1946 C   0  0  0  0  0  0  0  0  0  0  0  0
  -29.7620  -12.1738   19.0719 C   0  0  0  0  0  0  0  0  0  0  0  0
  -20.6078  -30.6243   21.1361 C   0  0  0  0  0  0  0  0  0  0  0  0
  -28.3384  -11.9103   19.5680 C   0  0  0  0  0  0  0  0  0  0  0  0
  -30.5586  -13.0240   20.0600 C   0  0  0  0  0  0  0  0  0  0  0  0
  -28.4894  -14.0179   20.9544 C   0  0  0  0  0  0  0  0  0  0  0  0
  -20.3524  -29.2396   21.7436 C   0  0  1  0  0  0  0  0  0  0  0  0
  -23.6863  -27.7575   22.8028 C   0  0  1  0  0  0  0  0  0  0  0  0
  -27.6277  -13.2198   19.9624 C   0  0  2  0  0  0  0  0  0  0  0  0
  -27.8110  -21.1647   20.1794 C   0  0  0  0  0  0  0  0  0  0  0  0
  -30.3839  -31.3904   24.1984 C   0  0  0  0  0  0  0  0  0  0  0  0
  -24.6505  -31.8650   20.9161 C   0  0  0  0  0  0  0  0  0  0  0  0
  -26.9698  -32.7185   21.3172 C   0  0  0  0  0  0  0  0  0  0  0  0
  -25.2955  -32.7460   23.1661 C   0  0  0  0  0  0  0  0  0  0  0  0
  -25.9658  -24.4148   15.5026 C   0  0  0  0  0  0  0  0  0  0  0  0
  -25.7344  -21.9278   15.4618 C   0  0  0  0  0  0  0  0  0  0  0  0
  -28.8024  -20.7283   15.5621 C   0  0  0  0  0  0  0  0  0  0  0  0
  -29.6412  -27.7010   24.7580 C   0  0  0  0  0  0  0  0  0  0  0  0
  -27.9770  -23.0132   15.9603 C   0  0  0  0  0  0  0  0  0  0  0  0
  -26.0588  -23.1073   17.6532 C   0  0  0  0  0  0  0  0  0  1  0  0
  -26.2801  -30.5407   22.4184 C   0  0  1  0  0  0  0  0  0  0  0  0
  -29.5004  -30.1664   24.3828 C   0  0  2  0  0  0  0  0  0  0  0  0
  -25.7946  -31.9405   21.9468 C   0  0  0  0  0  0  0  0  0  0  0  0
  -26.4458  -23.1027   16.1577 C   0  0  0  0  0  0  0  0  0  0  0  0
  -25.9961  -11.8262   21.1778 N   0  0  0  0  0  0  0  0  0  0  0  0
  -26.2324  -12.9623   20.4999 N   0  0  0  0  0  0  0  0  0  0  0  0
  -24.8788  -28.5012   22.3913 N   0  0  0  0  0  0  0  0  0  0  0  0
  -29.8257  -14.2499   20.3840 N   0  0  0  0  0  0  0  0  0  0  0  0
  -25.2017  -14.9503   19.7278 N   0  0  0  0  0  0  0  0  0  0  0  0
  -21.8472  -12.7924   21.8461 N   0  0  0  0  0  0  0  0  0  0  0  0
  -29.6211  -16.5983   20.4595 N   0  0  0  0  0  0  0  0  0  0  0  0
  -21.5194  -28.7820   22.4669 N   0  0  0  0  0  0  0  0  0  0  0  0
  -27.3447  -30.5819   23.4150 N   0  0  0  0  0  0  0  0  0  0  0  0
  -28.5412  -21.7872   16.5719 N   0  0  2  0  0  0  0  0  0  0  0  0
  -30.3783  -28.9731   24.5449 N   0  3  0  0  0  0  0  0  0  0  0  0
  -22.3918  -14.6771   20.6587 O   0  0  0  0  0  0  0  0  0  0  0  0
  -22.6883  -27.8795   20.6664 O   0  0  0  0  0  0  0  0  0  0  0  0
  -24.5801  -30.1394   24.0233 O   0  0  0  0  0  0  0  0  0  0  0  0
  -28.8871  -29.3579   22.1902 O   0  0  0  0  0  0  0  0  0  0  0  0
  -31.5579  -15.6003   19.6629 O   0  0  0  0  0  0  0  0  0  0  0  0
  -29.1842  -22.9452   18.8063 O   0  0  0  0  0  0  0  0  0  0  0  0
  -31.0144  -22.1459   17.2912 O   0  0  0  0  0  0  0  0  0  0  0  0
  -22.2027   -7.8538   24.3994 O   0  0  0  0  0  0  0  0  0  0  0  0
  -26.6582  -24.2093   18.3334 O   0  0  0  0  0  0  0  0  0  1  0  0
  -17.2384   -6.1637   22.6953 F   0  0  0  0  0  0  0  0  0  0  0  0
  -21.7796   -5.2273   23.6475 F   0  0  0  0  0  0  0  0  0  0  0  0
  -29.6859  -21.9756   17.8500 S   0  0  0  0  0  0  0  0  0  0  0  0
  1  2  1  0  0  0  0
  1  5  2  0  0  0  0
  2  6  2  0  0  0  0
  3  9  2  0  0  0  0
  3 18  1  0  0  0  0
  4 10  1  0  0  0  0
  4 18  2  0  0  0  0
  5 20  1  0  0  0  0
  6 22  1  0  0  0  0
  7 11  2  0  0  0  0
  7 21  1  0  0  0  0
  8 14  2  0  0  0  0
  8 25  1  0  0  0  0
  9 26  1  0  0  0  0
 10 26  2  0  0  0  0
 11 27  1  0  0  0  0
 12 13  2  0  0  0  0
 12 28  1  0  0  0  0
 13 29  1  0  0  0  0
 14 31  1  0  0  0  0
 15 23  1  0  0  0  0
 15 27  2  0  0  0  0
 16 24  1  0  0  0  0
 16 25  2  0  0  0  0
 17 29  2  0  0  0  0
 17 30  1  0  0  0  0
 18 32  1  0  0  0  0
 19 32  1  0  0  0  0
 19 33  2  0  0  0  0
 19 34  1  0  0  0  0
 20 22  2  0  0  0  0
 20 39  1  0  0  0  0
 21 23  2  0  0  0  0
 21 40  1  0  0  0  0
 22 48  1  0  0  0  0
 23 41  1  0  0  0  0
 24 31  2  0  0  0  0
 24 51  1  0  0  0  0
 25 72  1  0  0  0  0
 26 84  1  0  0  0  0
 27 85  1  0  0  0  0
 28 30  2  0  0  0  0
 28 84  1  0  0  0  0
 29 86  1  0  0  0  0
 30 87  1  0  0  0  0
 31 88  1  0  0  0  0
 32 66  2  0  0  0  0
 33 67  1  0  0  0  0
 33 70  1  0  0  0  0
 34 71  1  0  0  0  0
 34 77  2  0  0  0  0
 35 49  1  0  0  0  0
 35 73  1  0  0  0  0
 35 78  2  0  0  0  0
 36 62  1  0  0  0  0
 36 68  1  0  0  0  0
 36 79  2  0  0  0  0
 37 63  1  0  0  0  0
 37 74  1  0  0  0  0
 37 80  2  0  0  0  0
 38 69  1  0  0  0  0
 38 72  1  0  0  0  0
 38 81  2  0  0  0  0
 39 42  1  0  0  0  0
 40 49  1  0  0  0  0
 41 68  1  0  0  0  0
 42 44  1  0  0  0  0
 43 45  1  0  0  0  0
 43 46  1  0  0  0  0
 44 48  1  0  0  0  0
 45 50  1  0  0  0  0
 46 69  1  0  0  0  0
 47 50  1  0  0  0  0
 47 69  1  0  0  0  0
 48 73  1  0  0  0  0
 49 68  1  0  0  0  0
 50 67  1  0  0  0  0
 52 63  1  0  0  0  0
 53 64  1  0  0  0  0
 54 64  1  0  0  0  0
 55 64  1  0  0  0  0
 56 65  1  0  0  0  0
 57 65  1  0  0  0  0
 58 75  1  0  0  0  0
 59 76  1  0  0  0  0
 60 65  1  0  0  0  0
 60 75  1  0  0  0  0
 61 65  1  0  0  0  0
 61 85  1  0  0  0  0
 62 64  1  0  0  0  0
 62 74  1  0  0  0  0
 63 76  1  0  0  0  0
 66 67  1  0  0  0  0
 75 88  1  0  0  0  0
 82 88  2  0  0  0  0
 83 88  2  0  0  0  0
M  CHG  1  76   1
M  ISO  4  38 100  61 101  72 100  85 101
M  END
> <Batch ID>
0062

> <Smiles>
CNC(C)C(=O)NC(C(=O)N1Cc2cc([101O:1][101CH2:1]C(C)(C)CN(C)S(=O)(=O)c3ccc([100NH:0][100C:0](=O)N4CCCC(n5nc(-c6ccc(Oc7ccc(F)cc7F)cc6)c(C(N)=O)c5N)C4)cc3C)ccc2CC1C(=O)NC1CCCc2ccccc21)C(C)(C)C

> <Shape>
0.300

> <Color>
0.173

> <Negative vol penalty>
0.000

$$$$

  -OEChem-04042323093D

 88 96  0     1  0  0  0  0  0999 V2000
  -21.8642  -28.5415   20.4306 C   0  0  0  0  0  0  0  0  0  0  0  0
  -22.4432  -27.6006   19.5851 C   0  0  0  0  0  0  0  0  0  0  0  0
  -25.3551  -11.1284   20.9291 C   0  0  0  0  0  0  0  0  0  0  0  0
  -20.1910  -21.7517   23.4981 C   0  0  0  0  0  0  0  0  0  0  0  0
  -22.3011  -21.4694   22.3558 C   0  0  0  0  0  0  0  0  0  0  0  0
  -26.3582  -11.7681   20.2010 C   0  0  0  0  0  0  0  0  0  0  0  0
  -22.6708  -29.3321   21.2481 C   0  0  0  0  0  0  0  0  0  0  0  0
  -23.8292  -27.4505   19.5558 C   0  0  0  0  0  0  0  0  0  0  0  0
  -26.9063  -21.1182   21.0805 C   0  0  0  0  0  0  0  0  0  0  0  0
  -24.2971  -11.8681   21.4576 C   0  0  0  0  0  0  0  0  0  0  0  0
  -20.6886  -22.8875   24.1367 C   0  0  0  0  0  0  0  0  0  0  0  0
  -22.7987  -22.6052   22.9945 C   0  0  0  0  0  0  0  0  0  0  0  0
  -27.5595  -19.8877   21.1537 C   0  0  0  0  0  0  0  0  0  0  0  0
  -21.2824  -26.0683   25.7934 C   0  0  0  0  0  0  0  0  0  0  0  0
  -20.4611  -27.1944   25.8471 C   0  0  0  0  0  0  0  0  0  0  0  0
  -29.6940  -20.9928   20.8882 C   0  0  0  0  0  0  0  0  0  0  0  0
  -20.4016  -27.2661   23.4329 C   0  0  0  0  0  0  0  0  0  0  0  0
  -20.9972  -21.0426   22.6076 C   0  0  0  0  0  0  0  0  0  0  0  0
  -26.3034  -13.1475   20.0015 C   0  0  0  0  0  0  0  0  0  0  0  0
  -19.8088  -19.8141   20.7139 C   0  0  0  0  0  0  0  0  0  0  0  0
  -24.0668  -29.1849   21.2359 C   0  0  0  0  0  0  0  0  0  0  0  0
  -27.6466  -22.2936   20.9262 C   0  0  0  0  0  0  0  0  0  0  0  0
  -24.6553  -28.2408   20.3729 C   0  0  0  0  0  0  0  0  0  0  0  0
  -29.0461  -22.2295   20.8268 C   0  0  0  0  0  0  0  0  0  0  0  0
  -24.2423  -13.2475   21.2581 C   0  0  0  0  0  0  0  0  0  0  0  0
  -25.2455  -13.8873   20.5300 C   0  0  0  0  0  0  0  0  0  0  0  0
  -21.9925  -23.3143   23.8850 C   0  0  0  0  0  0  0  0  0  0  0  0
  -28.9499  -19.8252   21.0575 C   0  0  0  0  0  0  0  0  0  0  0  0
  -21.6635  -25.5412   24.5595 C   0  0  0  0  0  0  0  0  0  0  0  0
  -20.0207  -27.7933   24.6669 C   0  0  0  0  0  0  0  0  0  0  0  0
  -21.2230  -26.1401   23.3792 C   0  0  0  0  0  0  0  0  0  0  0  0
  -20.4839  -19.8689   21.9480 C   0  0  0  0  0  0  0  0  0  0  0  0
  -19.5331  -18.4809   20.5322 C   0  0  0  0  0  0  0  0  0  0  0  0
  -27.3787  -13.7989   19.2269 C   0  0  0  0  0  0  0  0  0  0  0  0
  -19.4620  -20.8736   19.8123 C   0  0  0  0  0  0  0  0  0  0  0  0
  -27.6077  -26.0321   20.6129 C   0  0  0  0  0  0  0  0  0  0  0  0
  -29.9845  -25.3135   22.4143 C   0  0  0  0  0  0  0  0  0  0  0  0
  -31.7795  -15.2573   21.1665 C   0  0  0  0  0  0  0  0  0  0  0  0
  -32.2373  -24.1329   24.6876 C   0  0  0  0  0  0  0  0  0  0  0  0
  -22.0909  -13.4716   22.5494 C   0  0  0  0  0  0  0  0  0  0  0  0
  -24.9003  -30.0951   22.1028 C   0  0  0  0  0  0  0  0  0  0  0  0
  -26.9809  -23.6351   20.7808 C   0  0  0  0  0  0  0  0  0  0  0  0
  -29.7990  -23.5164   20.6265 C   0  0  0  0  0  0  0  0  0  0  0  0
  -26.3373  -29.6137   22.2862 C   0  0  0  0  0  0  0  0  0  0  0  0
  -18.6996  -14.4597   22.9959 C   0  0  0  0  0  0  0  0  0  0  0  0
  -26.9360  -29.1975   20.9463 C   0  0  0  0  0  0  0  0  0  0  0  0
  -18.7097  -15.9527   22.6596 C   0  0  0  0  0  0  0  0  0  0  0  0
  -19.9738  -14.0335   23.7228 C   0  0  0  0  0  0  0  0  0  0  0  0
  -21.2357  -15.8919   22.7114 C   0  0  0  0  0  0  0  0  0  0  0  0
  -26.1534  -28.0312   20.3309 C   0  0  1  0  0  0  0  0  0  0  0  0
  -27.7853  -24.7805   21.4212 C   0  0  1  0  0  0  0  0  0  0  0  0
  -20.0011  -16.3552   21.9209 C   0  0  2  0  0  0  0  0  0  0  0  0
  -32.2238  -14.5550   22.4066 C   0  0  0  0  0  0  0  0  0  0  0  0
  -34.0490  -24.8990   26.2459 C   0  0  0  0  0  0  0  0  0  0  0  0
  -31.8659  -25.6789   20.0414 C   0  0  0  0  0  0  0  0  0  0  0  0
  -33.7916  -25.4939   21.6306 C   0  0  0  0  0  0  0  0  0  0  0  0
  -32.1540  -27.3603   21.8702 C   0  0  0  0  0  0  0  0  0  0  0  0
  -30.7936  -23.1047   27.0578 C   0  0  0  0  0  0  0  0  0  0  0  0
  -29.2007  -15.4640   19.1624 C   0  0  0  0  0  0  0  0  0  0  0  0
  -28.8638  -17.4811   20.6634 C   0  0  0  0  0  0  0  0  0  1  0  0
  -31.4594  -25.0130   22.5026 C   0  0  1  0  0  0  0  0  0  0  0  0
  -32.5698  -24.5771   26.1007 C   0  0  2  0  0  0  0  0  0  0  0  0
  -29.8542  -16.4440   20.1332 C   0  0  1  0  0  0  0  0  0  0  0  0
  -32.2984  -25.8657   21.5094 C   0  0  0  0  0  0  0  0  0  0  0  0
  -20.6282  -18.6661   22.5107 N   0  0  0  0  0  0  0  0  0  0  0  0
  -20.0398  -17.8431   21.6261 N   0  0  0  0  0  0  0  0  0  0  0  0
  -29.2405  -24.5653   21.4939 N   0  0  0  0  0  0  0  0  0  0  0  0
  -21.1561  -14.4443   22.9625 N   0  0  0  0  0  0  0  0  0  0  0  0
  -25.1930  -15.2867   20.3257 N   0  0  0  0  0  0  0  0  0  0  0  0
  -18.9090  -17.8037   19.5452 N   0  0  0  0  0  0  0  0  0  0  0  0
  -27.5686  -13.4100   17.9661 N   0  0  0  0  0  0  0  0  0  0  0  0
  -19.8209  -22.1850   20.1528 N   0  0  0  0  0  0  0  0  0  0  0  0
  -23.1571  -13.9758   21.8054 N   0  0  0  0  0  0  0  0  0  0  0  0
  -26.5091  -26.7865   20.9780 N   0  0  0  0  0  0  0  0  0  0  0  0
  -31.8290  -25.1904   23.9026 N   0  0  0  0  0  0  0  0  0  0  0  0
  -30.4838  -15.7322   21.2239 N   0  0  0  0  0  0  0  0  0  0  0  0
  -28.1109  -14.7446   19.8271 N   0  3  0  0  0  0  0  0  0  0  0  0
  -32.2244  -23.5042   27.0757 N   0  3  0  0  0  0  0  0  0  0  0  0
  -18.8375  -20.6657   18.7445 O   0  0  0  0  0  0  0  0  0  0  0  0
  -28.4088  -26.2960   19.7239 O   0  0  0  0  0  0  0  0  0  0  0  0
  -29.5035  -26.1912   23.1365 O   0  0  0  0  0  0  0  0  0  0  0  0
  -32.5536  -15.3647   20.2227 O   0  0  0  0  0  0  0  0  0  0  0  0
  -32.3340  -22.9653   24.3163 O   0  0  0  0  0  0  0  0  0  0  0  0
  -21.9415  -12.2753   22.8115 O   0  0  0  0  0  0  0  0  0  0  0  0
  -22.4783  -24.4227   24.5078 O   0  0  0  0  0  0  0  0  0  0  0  0
  -29.5815  -18.6210   21.1343 O   0  0  0  0  0  0  0  0  0  1  0  0
  -19.2307  -28.8738   24.7186 F   0  0  0  0  0  0  0  0  0  0  0  0
  -21.5848  -25.6375   22.1908 F   0  0  0  0  0  0  0  0  0  0  0  0
  1  2  1  0  0  0  0
  1  7  2  0  0  0  0
  2  8  2  0  0  0  0
  3  6  2  0  0  0  0
  3 10  1  0  0  0  0
  4 11  2  0  0  0  0
  4 18  1  0  0  0  0
  5 12  1  0  0  0  0
  5 18  2  0  0  0  0
  6 19  1  0  0  0  0
  7 21  1  0  0  0  0
  8 23  1  0  0  0  0
  9 13  2  0  0  0  0
  9 22  1  0  0  0  0
 10 25  2  0  0  0  0
 11 27  1  0  0  0  0
 12 27  2  0  0  0  0
 13 28  1  0  0  0  0
 14 15  2  0  0  0  0
 14 29  1  0  0  0  0
 15 30  1  0  0  0  0
 16 24  1  0  0  0  0
 16 28  2  0  0  0  0
 17 30  2  0  0  0  0
 17 31  1  0  0  0  0
 18 32  1  0  0  0  0
 19 26  2  0  0  0  0
 19 34  1  0  0  0  0
 20 32  1  0  0  0  0
 20 33  2  0  0  0  0
 20 35  1  0  0  0  0
 21 23  2  0  0  0  0
 21 41  1  0  0  0  0
 22 24  2  0  0  0  0
 22 42  1  0  0  0  0
 23 50  1  0  0  0  0
 24 43  1  0  0  0  0
 25 26  1  0  0  0  0
 25 73  1  0  0  0  0
 26 69  1  0  0  0  0
 27 85  1  0  0  0  0
 28 86  1  0  0  0  0
 29 31  2  0  0  0  0
 29 85  1  0  0  0  0
 30 87  1  0  0  0  0
 31 88  1  0  0  0  0
 32 65  2  0  0  0  0
 33 66  1  0  0  0  0
 33 70  1  0  0  0  0
 34 71  1  0  0  0  0
 34 77  2  0  0  0  0
 35 72  1  0  0  0  0
 35 79  2  0  0  0  0
 36 51  1  0  0  0  0
 36 74  1  0  0  0  0
 36 80  2  0  0  0  0
 37 61  1  0  0  0  0
 37 67  1  0  0  0  0
 37 81  2  0  0  0  0
 38 53  1  0  0  0  0
 38 76  1  0  0  0  0
 38 82  2  0  0  0  0
 39 62  1  0  0  0  0
 39 75  1  0  0  0  0
 39 83  2  0  0  0  0
 40 68  1  0  0  0  0
 40 73  1  0  0  0  0
 40 84  2  0  0  0  0
 41 44  1  0  0  0  0
 42 51  1  0  0  0  0
 43 67  1  0  0  0  0
 44 46  1  0  0  0  0
 45 47  1  0  0  0  0
 45 48  1  0  0  0  0
 46 50  1  0  0  0  0
 47 52  1  0  0  0  0
 48 68  1  0  0  0  0
 49 52  1  0  0  0  0
 49 68  1  0  0  0  0
 50 74  1  0  0  0  0
 51 67  1  0  0  0  0
 52 66  1  0  0  0  0
 54 62  1  0  0  0  0
 55 64  1  0  0  0  0
 56 64  1  0  0  0  0
 57 64  1  0  0  0  0
 58 78  1  0  0  0  0
 59 63  1  0  0  0  0
 59 77  1  0  0  0  0
 60 63  1  0  0  0  0
 60 86  1  0  0  0  0
 61 64  1  0  0  0  0
 61 75  1  0  0  0  0
 62 78  1  0  0  0  0
 63 76  1  0  0  0  0
 65 66  1  0  0  0  0
M  CHG  2  77   1  78   1
M  ISO  4  40 100  60 101  73 100  86 101
M  END
> <Batch ID>
0062

> <Smiles>
CNC(C)C(=O)NC(C(=O)N1Cc2cc([101O:1][101CH2:1]C(CNC(=N)c3cccc([100NH:0][100C:0](=O)N4CCCC(n5nc(-c6ccc(Oc7ccc(F)cc7F)cc6)c(C(N)=O)c5N)C4)c3N)NC(C)=O)ccc2CC1C(=O)NC1CCCc2ccccc21)C(C)(C)C

> <Shape>
0.210

> <Color>
0.077

> <Negative vol penalty>
0.000

$$$$

  -OEChem-04042323093D

 89 98  0     1  0  0  0  0  0999 V2000
  -25.6522  -34.5999   24.8503 C   0  0  0  0  0  0  0  0  0  0  0  0
  -26.2770  -33.4728   24.3261 C   0  0  0  0  0  0  0  0  0  0  0  0
  -24.8629  -13.5398   21.5886 C   0  0  0  0  0  0  0  0  0  0  0  0
  -26.1366  -13.4003   19.5403 C   0  0  0  0  0  0  0  0  0  0  0  0
  -24.3446  -34.5128   25.3260 C   0  0  0  0  0  0  0  0  0  0  0  0
  -25.5948  -32.2576   24.2784 C   0  0  0  0  0  0  0  0  0  0  0  0
  -26.1622  -29.8841   19.8411 C   0  0  0  0  0  0  0  0  0  0  0  0
  -24.0927  -12.4495   21.1839 C   0  0  0  0  0  0  0  0  0  0  0  0
  -25.3664  -12.3100   19.1357 C   0  0  0  0  0  0  0  0  0  0  0  0
  -27.3638  -29.2096   19.6289 C   0  0  0  0  0  0  0  0  0  0  0  0
  -24.4018   -9.0841   21.0769 C   0  0  0  0  0  0  0  0  0  0  0  0
  -24.1494   -8.0844   22.0163 C   0  0  0  0  0  0  0  0  0  0  0  0
  -33.8475  -22.3209   18.5193 C   0  0  0  0  0  0  0  0  0  0  0  0
  -32.5950  -20.6846   19.7805 C   0  0  0  0  0  0  0  0  0  0  0  0
  -26.2849  -27.1250   20.1855 C   0  0  0  0  0  0  0  0  0  0  0  0
  -31.4612  -22.5774   18.7963 C   0  0  0  0  0  0  0  0  0  0  0  0
  -32.1350  -27.1086   19.6954 C   0  0  0  0  0  0  0  0  0  0  0  0
  -21.7755   -8.4741   21.7930 C   0  0  0  0  0  0  0  0  0  0  0  0
  -25.8848  -14.0152   20.7667 C   0  0  0  0  0  0  0  0  0  0  0  0
  -33.8079  -21.1445   19.2678 C   0  0  0  0  0  0  0  0  0  0  0  0
  -27.8746  -15.1100   21.9285 C   0  0  0  0  0  0  0  0  0  0  0  0
  -23.6426  -33.2982   25.2752 C   0  0  0  0  0  0  0  0  0  0  0  0
  -25.0137  -29.1844   20.2384 C   0  0  0  0  0  0  0  0  0  0  0  0
  -24.2770  -32.1539   24.7551 C   0  0  0  0  0  0  0  0  0  0  0  0
  -25.0694  -27.7926   20.3996 C   0  0  0  0  0  0  0  0  0  0  0  0
  -32.6741  -23.0374   18.2836 C   0  0  0  0  0  0  0  0  0  0  0  0
  -30.9024  -27.0458   18.9998 C   0  0  0  0  0  0  0  0  0  0  0  0
  -31.4216  -21.4010   19.5448 C   0  0  0  0  0  0  0  0  0  0  0  0
  -24.3445  -11.8346   19.9575 C   0  0  0  0  0  0  0  0  0  0  0  0
  -27.4260  -27.8303   19.8039 C   0  0  0  0  0  0  0  0  0  0  0  0
  -23.3411   -9.7788   20.4955 C   0  0  0  0  0  0  0  0  0  0  0  0
  -22.8363   -7.7794   22.3743 C   0  0  0  0  0  0  0  0  0  0  0  0
  -22.0280   -9.4738   20.8536 C   0  0  0  0  0  0  0  0  0  0  0  0
  -26.6803  -15.1418   21.1839 C   0  0  0  0  0  0  0  0  0  0  0  0
  -28.2324  -16.4295   22.0602 C   0  0  0  0  0  0  0  0  0  0  0  0
  -32.9362  -26.1015   19.2043 C   0  0  0  0  0  0  0  0  0  0  0  0
  -30.9877  -26.0021   18.1050 C   0  0  0  0  0  0  0  0  0  0  0  0
  -35.0246  -20.4018   19.5115 C   0  0  0  0  0  0  0  0  0  0  0  0
  -28.5961  -13.9879   22.4541 C   0  0  0  0  0  0  0  0  0  0  0  0
  -23.1204  -29.2458   22.7909 C   0  0  0  0  0  0  0  0  0  0  0  0
  -21.3538  -27.1574   21.0472 C   0  0  0  0  0  0  0  0  0  0  0  0
  -21.2458  -24.8329   18.5509 C   0  0  0  0  0  0  0  0  0  0  0  0
  -28.9338  -21.5227   19.9225 C   0  0  0  0  0  0  0  0  0  0  0  0
  -22.2472  -33.2418   25.8449 C   0  0  0  0  0  0  0  0  0  0  0  0
  -23.7186  -29.9231   20.4373 C   0  0  0  0  0  0  0  0  0  0  0  0
  -23.8597  -26.9923   20.8055 C   0  0  0  0  0  0  0  0  0  0  0  0
  -21.4630  -32.0049   25.4142 C   0  0  0  0  0  0  0  0  0  0  0  0
  -25.6573  -20.6606   21.0170 C   0  0  0  0  0  0  0  0  0  0  0  0
  -22.3200  -30.7516   25.5611 C   0  0  0  0  0  0  0  0  0  0  0  0
  -25.7296  -19.1453   21.2193 C   0  0  0  0  0  0  0  0  0  0  0  0
  -26.4853  -21.1125   19.8154 C   0  0  0  0  0  0  0  0  0  0  0  0
  -27.9551  -19.1462   20.0217 C   0  0  0  0  0  0  0  0  0  0  0  0
  -23.5612  -30.8236   24.6635 C   0  0  1  0  0  0  0  0  0  0  0  0
  -22.7387  -29.1789   21.3391 C   0  0  1  0  0  0  0  0  0  0  0  0
  -27.1890  -18.6511   21.2593 C   0  0  2  0  0  0  0  0  0  0  0  0
  -19.6687  -23.2700   17.3814 C   0  0  0  0  0  0  0  0  0  0  0  0
  -21.4607  -25.2645   23.4379 C   0  0  0  0  0  0  0  0  0  0  0  0
  -20.7283  -23.4150   21.9177 C   0  0  0  0  0  0  0  0  0  0  0  0
  -19.2383  -25.3794   22.2968 C   0  0  0  0  0  0  0  0  0  0  0  0
  -21.6676  -26.1714   15.9452 C   0  0  0  0  0  0  0  0  0  0  0  0
  -32.7167  -24.3059   17.4753 C   0  0  0  0  0  0  0  0  0  0  0  0
  -29.7241  -27.9521   19.2040 C   0  0  0  0  0  0  0  0  0  1  0  0
  -21.3205  -25.6564   20.8898 C   0  0  1  0  0  0  0  0  0  0  0  0
  -20.2958  -24.6555   17.3802 C   0  0  2  0  0  0  0  0  0  0  0  0
  -20.7104  -24.9439   22.1298 C   0  0  0  0  0  0  0  0  0  0  0  0
  -26.3044  -16.3832   20.8651 N   0  0  0  0  0  0  0  0  0  0  0  0
  -27.2681  -17.1437   21.4120 N   0  0  0  0  0  0  0  0  0  0  0  0
  -32.2283  -25.4352   18.2382 N   0  0  0  0  0  0  0  0  0  0  0  0
  -22.6183  -27.7609   20.9942 N   0  0  0  0  0  0  0  0  0  0  0  0
  -27.8570  -20.6110   19.9240 N   0  0  0  0  0  0  0  0  0  0  0  0
  -29.2747  -17.0369   22.6661 N   0  0  0  0  0  0  0  0  0  0  0  0
  -36.1976  -20.8367   19.0214 N   0  0  0  0  0  0  0  0  0  0  0  0
  -28.0886  -12.7014   22.2270 N   0  0  0  0  0  0  0  0  0  0  0  0
  -30.1893  -20.9324   20.0640 N   0  0  0  0  0  0  0  0  0  0  0  0
  -23.2097  -30.5310   23.2905 N   0  0  0  0  0  0  0  0  0  0  0  0
  -20.6137  -25.3925   19.6412 N   0  0  0  0  0  0  0  0  0  0  0  0
  -34.9978  -19.2686   20.2328 N   0  3  0  0  0  0  0  0  0  0  0  0
  -21.0212  -24.8419   16.0917 N   0  3  0  0  0  0  0  0  0  0  0  0
  -29.6506  -14.1232   23.1199 O   0  0  0  0  0  0  0  0  0  0  0  0
  -23.3177  -28.2081   23.4122 O   0  0  0  0  0  0  0  0  0  0  0  0
  -20.2962  -27.7726   21.2041 O   0  0  0  0  0  0  0  0  0  0  0  0
  -22.4291  -24.5043   18.5042 O   0  0  0  0  0  0  0  0  0  0  0  0
  -28.7536  -22.7398   19.8316 O   0  0  0  0  0  0  0  0  0  0  0  0
  -34.1730  -25.7440   19.5233 O   0  0  0  0  0  0  0  0  0  0  0  0
  -30.1092  -25.5334   17.2277 O   0  0  0  0  0  0  0  0  0  0  0  0
  -23.5933  -10.7705   19.5624 O   0  0  0  0  0  0  0  0  0  0  0  0
  -28.5977  -27.1695   19.5980 O   0  0  0  0  0  0  0  0  0  1  0  0
  -22.5939   -6.8183   23.2753 F   0  0  0  0  0  0  0  0  0  0  0  0
  -21.0048  -10.1370   20.2977 F   0  0  0  0  0  0  0  0  0  0  0  0
  1  2  1  0  0  0  0
  1  5  2  0  0  0  0
  2  6  2  0  0  0  0
  3  8  2  0  0  0  0
  3 19  1  0  0  0  0
  4  9  1  0  0  0  0
  4 19  2  0  0  0  0
  5 22  1  0  0  0  0
  6 24  1  0  0  0  0
  7 10  2  0  0  0  0
  7 23  1  0  0  0  0
  8 29  1  0  0  0  0
  9 29  2  0  0  0  0
 10 30  1  0  0  0  0
 11 12  2  0  0  0  0
 11 31  1  0  0  0  0
 12 32  1  0  0  0  0
 13 20  1  0  0  0  0
 13 26  2  0  0  0  0
 14 20  2  0  0  0  0
 14 28  1  0  0  0  0
 15 25  1  0  0  0  0
 15 30  2  0  0  0  0
 16 26  1  0  0  0  0
 16 28  2  0  0  0  0
 17 27  1  0  0  0  0
 17 36  2  0  0  0  0
 18 32  2  0  0  0  0
 18 33  1  0  0  0  0
 19 34  1  0  0  0  0
 20 38  1  0  0  0  0
 21 34  1  0  0  0  0
 21 35  2  0  0  0  0
 21 39  1  0  0  0  0
 22 24  2  0  0  0  0
 22 44  1  0  0  0  0
 23 25  2  0  0  0  0
 23 45  1  0  0  0  0
 24 53  1  0  0  0  0
 25 46  1  0  0  0  0
 26 61  1  0  0  0  0
 27 37  2  0  0  0  0
 27 62  1  0  0  0  0
 28 74  1  0  0  0  0
 29 86  1  0  0  0  0
 30 87  1  0  0  0  0
 31 33  2  0  0  0  0
 31 86  1  0  0  0  0
 32 88  1  0  0  0  0
 33 89  1  0  0  0  0
 34 66  2  0  0  0  0
 35 67  1  0  0  0  0
 35 71  1  0  0  0  0
 36 68  1  0  0  0  0
 36 84  1  0  0  0  0
 37 68  1  0  0  0  0
 37 85  1  0  0  0  0
 38 72  1  0  0  0  0
 38 77  2  0  0  0  0
 39 73  1  0  0  0  0
 39 79  2  0  0  0  0
 40 54  1  0  0  0  0
 40 75  1  0  0  0  0
 40 80  2  0  0  0  0
 41 63  1  0  0  0  0
 41 69  1  0  0  0  0
 41 81  2  0  0  0  0
 42 64  1  0  0  0  0
 42 76  1  0  0  0  0
 42 82  2  0  0  0  0
 43 70  1  0  0  0  0
 43 74  1  0  0  0  0
 43 83  2  0  0  0  0
 44 47  1  0  0  0  0
 45 54  1  0  0  0  0
 46 69  1  0  0  0  0
 47 49  1  0  0  0  0
 48 50  1  0  0  0  0
 48 51  1  0  0  0  0
 49 53  1  0  0  0  0
 50 55  1  0  0  0  0
 51 70  1  0  0  0  0
 52 55  1  0  0  0  0
 52 70  1  0  0  0  0
 53 75  1  0  0  0  0
 54 69  1  0  0  0  0
 55 67  1  0  0  0  0
 56 64  1  0  0  0  0
 57 65  1  0  0  0  0
 58 65  1  0  0  0  0
 59 65  1  0  0  0  0
 60 78  1  0  0  0  0
 61 68  1  0  0  0  0
 62 87  1  0  0  0  0
 63 65  1  0  0  0  0
 63 76  1  0  0  0  0
 64 78  1  0  0  0  0
 66 67  1  0  0  0  0
M  CHG  2  77   1  78   1
M  ISO  4  43 100  62 101  74 100  87 101
M  END
> <Batch ID>
0062

> <Smiles>
CNC(C)C(=O)NC(C(=O)N1Cc2cc([101O:1][101CH2:1]C3CC(=O)N(Cc4cc([100NH:0][100C:0](=O)N5CCCC(n6nc(-c7ccc(Oc8ccc(F)cc8F)cc7)c(C(N)=O)c6N)C5)cc(C(=N)N)c4)C3=O)ccc2CC1C(=O)NC1CCCc2ccccc21)C(C)(C)C

> <Shape>
0.274

> <Color>
0.075

> <Negative vol penalty>
0.000

$$$$

  -OEChem-04042323093D

 87 95  0     1  0  0  0  0  0999 V2000
  -26.9948  -31.5293   29.7933 C   0  0  0  0  0  0  0  0  0  0  0  0
  -26.8099  -30.2188   29.3645 C   0  0  0  0  0  0  0  0  0  0  0  0
  -23.0685   -9.8906   19.9779 C   0  0  0  0  0  0  0  0  0  0  0  0
  -23.8188   -9.9378   22.2740 C   0  0  0  0  0  0  0  0  0  0  0  0
  -26.9915  -32.5716   28.8673 C   0  0  0  0  0  0  0  0  0  0  0  0
  -26.6204  -29.9500   28.0094 C   0  0  0  0  0  0  0  0  0  0  0  0
  -29.3570  -26.0000   26.4113 C   0  0  0  0  0  0  0  0  0  0  0  0
  -22.3109   -8.7512   20.2489 C   0  0  0  0  0  0  0  0  0  0  0  0
  -23.0611   -8.7984   22.5450 C   0  0  0  0  0  0  0  0  0  0  0  0
  -28.8804  -24.7274   26.7230 C   0  0  0  0  0  0  0  0  0  0  0  0
  -19.8218   -8.0491   23.1500 C   0  0  0  0  0  0  0  0  0  0  0  0
  -19.0596   -8.0423   24.3181 C   0  0  0  0  0  0  0  0  0  0  0  0
  -27.9740  -24.5281   24.4963 C   0  0  0  0  0  0  0  0  0  0  0  0
  -29.9416  -17.4712   23.0443 C   0  0  0  0  0  0  0  0  0  0  0  0
  -32.1187  -16.5869   22.4833 C   0  0  0  0  0  0  0  0  0  0  0  0
  -20.2764   -6.1073   25.1008 C   0  0  0  0  0  0  0  0  0  0  0  0
  -23.8225  -10.4838   20.9905 C   0  0  0  0  0  0  0  0  0  0  0  0
  -24.1928  -13.0020   20.8186 C   0  0  0  0  0  0  0  0  0  0  0  0
  -26.8115  -32.3144   27.4991 C   0  0  0  0  0  0  0  0  0  0  0  0
  -29.1358  -26.5515   25.1411 C   0  0  0  0  0  0  0  0  0  0  0  0
  -26.6133  -30.9900   27.0644 C   0  0  0  0  0  0  0  0  0  0  0  0
  -28.4510  -25.8068   24.1702 C   0  0  0  0  0  0  0  0  0  0  0  0
  -31.9200  -18.3743   24.0965 C   0  0  0  0  0  0  0  0  0  0  0  0
  -30.7335  -16.5807   22.3195 C   0  0  0  0  0  0  0  0  0  0  0  0
  -30.5348  -18.3681   23.9328 C   0  0  0  0  0  0  0  0  0  0  0  0
  -22.3072   -8.2052   21.5325 C   0  0  0  0  0  0  0  0  0  0  0  0
  -28.1863  -23.9924   25.7664 C   0  0  0  0  0  0  0  0  0  0  0  0
  -20.8113   -7.0850   22.9572 C   0  0  0  0  0  0  0  0  0  0  0  0
  -19.2869   -7.0714   25.2935 C   0  0  0  0  0  0  0  0  0  0  0  0
  -32.7120  -17.4837   23.3718 C   0  0  0  0  0  0  0  0  0  0  0  0
  -21.0386   -6.1141   23.9326 C   0  0  0  0  0  0  0  0  0  0  0  0
  -24.6058  -11.6605   20.7110 C   0  0  0  0  0  0  0  0  0  0  0  0
  -25.2947  -13.7315   20.4444 C   0  0  0  0  0  0  0  0  0  0  0  0
  -32.1312  -21.7964   25.1223 C   0  0  0  0  0  0  0  0  0  0  0  0
  -32.6539  -20.7294   24.5075 C   0  0  0  0  0  0  0  0  0  0  0  0
  -28.1691  -21.6957   25.3243 C   0  0  0  0  0  0  0  0  0  1  0  0
  -22.9264  -13.5405   21.2209 C   0  0  0  0  0  0  0  0  0  0  0  0
  -27.7870  -20.4264   25.5205 C   0  0  0  0  0  0  0  0  0  0  0  0
  -28.3304  -19.3613   24.6172 C   0  0  0  0  0  0  0  0  0  0  0  0
  -27.5949  -29.1051   24.0417 C   0  0  0  0  0  0  0  0  0  0  0  0
  -28.9019  -28.1940   21.2161 C   0  0  0  0  0  0  0  0  0  0  0  0
  -30.2106  -25.6890   19.3032 C   0  0  0  0  0  0  0  0  0  0  0  0
  -30.7714  -14.7205   20.6211 C   0  0  0  0  0  0  0  0  0  0  0  0
  -26.7683  -33.4786   26.5412 C   0  0  0  0  0  0  0  0  0  0  0  0
  -29.6796  -27.9148   24.8120 C   0  0  0  0  0  0  0  0  0  0  0  0
  -28.2049  -26.3455   22.7853 C   0  0  0  0  0  0  0  0  0  0  0  0
  -26.9351  -33.0712   25.0795 C   0  0  0  0  0  0  0  0  0  0  0  0
  -29.6402  -12.2694   18.2995 C   0  0  0  0  0  0  0  0  0  0  0  0
  -26.0457  -31.8755   24.7537 C   0  0  0  0  0  0  0  0  0  0  0  0
  -28.1957  -12.0028   18.7288 C   0  0  0  0  0  0  0  0  0  0  0  0
  -30.5528  -12.5136   19.5001 C   0  0  0  0  0  0  0  0  0  0  0  0
  -28.6482  -13.2880   20.8573 C   0  0  0  0  0  0  0  0  0  0  0  0
  -26.4294  -30.6557   25.6000 C   0  0  1  0  0  0  0  0  0  0  0  0
  -28.9498  -28.5852   23.6521 C   0  0  1  0  0  0  0  0  0  0  0  0
  -27.6785  -13.1006   19.6791 C   0  0  2  0  0  0  0  0  0  0  0  0
  -26.7957  -19.9799   26.5497 C   0  0  0  0  0  0  0  0  0  0  0  0
  -31.1577  -25.2415   17.0228 C   0  0  0  0  0  0  0  0  0  0  0  0
  -26.0878  -28.2538   20.0383 C   0  0  0  0  0  0  0  0  0  0  0  0
  -26.9447  -26.9166   18.1028 C   0  0  0  0  0  0  0  0  0  0  0  0
  -27.8628  -29.1930   18.5477 C   0  0  0  0  0  0  0  0  0  0  0  0
  -32.8223  -24.8619   20.4230 C   0  0  0  0  0  0  0  0  0  0  0  0
  -32.5793  -19.3244   25.0432 C   0  0  0  0  0  0  0  0  0  0  0  0
  -28.4805  -27.2849   20.0870 C   0  0  1  0  0  0  0  0  0  0  0  0
  -31.4724  -25.6182   18.4622 C   0  0  2  0  0  0  0  0  0  0  0  0
  -27.3467  -27.9024   19.2206 C   0  0  0  0  0  0  0  0  0  0  0  0
  -25.8713  -11.5419   20.3004 N   0  0  0  0  0  0  0  0  0  0  0  0
  -26.2629  -12.8182   20.1467 N   0  0  0  0  0  0  0  0  0  0  0  0
  -28.7508  -27.6856   22.5140 N   0  0  0  0  0  0  0  0  0  0  0  0
  -30.0016  -13.5688   20.3530 N   0  0  0  0  0  0  0  0  0  0  0  0
  -25.5202  -15.0588   20.3442 N   0  0  0  0  0  0  0  0  0  0  0  0
  -21.9031  -12.6498   21.5728 N   0  0  0  0  0  0  0  0  0  0  0  0
  -29.7140  -19.2647   24.6595 N   0  0  0  0  0  0  0  0  0  0  0  0
  -30.1309  -15.6697   21.4169 N   0  0  0  0  0  0  0  0  0  0  0  0
  -27.6208  -30.0276   25.0703 N   0  0  0  0  0  0  0  0  0  0  0  0
  -29.6950  -26.9672   19.3437 N   0  0  0  0  0  0  0  0  0  0  0  0
  -32.4100  -24.6026   19.0195 N   0  3  0  0  0  0  0  0  0  0  0  0
  -22.7035  -14.7745   21.2511 O   0  0  0  0  0  0  0  0  0  0  0  0
  -27.5471  -18.6589   23.9856 O   0  0  0  0  0  0  0  0  0  0  0  0
  -26.6000  -28.7006   23.4517 O   0  0  0  0  0  0  0  0  0  0  0  0
  -29.3554  -29.3112   20.9558 O   0  0  0  0  0  0  0  0  0  0  0  0
  -29.7284  -24.7079   19.8647 O   0  0  0  0  0  0  0  0  0  0  0  0
  -31.9042  -14.8669   20.1550 O   0  0  0  0  0  0  0  0  0  0  0  0
  -21.5678   -7.0935   21.7973 O   0  0  0  0  0  0  0  0  0  0  0  0
  -27.7195  -22.7503   26.0682 O   0  0  0  0  0  0  0  0  0  1  0  0
  -18.5558   -7.0660   26.4159 F   0  0  0  0  0  0  0  0  0  0  0  0
  -34.0439  -17.4805   23.5230 F   0  0  0  0  0  0  0  0  0  0  0  0
  -21.9886   -5.1861   23.7536 F   0  0  0  0  0  0  0  0  0  0  0  0
  1  2  1  0  0  0  0
  1  5  2  0  0  0  0
  2  6  2  0  0  0  0
  3  8  2  0  0  0  0
  3 17  1  0  0  0  0
  4  9  1  0  0  0  0
  4 17  2  0  0  0  0
  5 19  1  0  0  0  0
  6 21  1  0  0  0  0
  7 10  2  0  0  0  0
  7 20  1  0  0  0  0
  8 26  1  0  0  0  0
  9 26  2  0  0  0  0
 10 27  1  0  0  0  0
 11 12  2  0  0  0  0
 11 28  1  0  0  0  0
 12 29  1  0  0  0  0
 13 22  1  0  0  0  0
 13 27  2  0  0  0  0
 14 24  2  0  0  0  0
 14 25  1  0  0  0  0
 15 24  1  0  0  0  0
 15 30  2  0  0  0  0
 16 29  2  0  0  0  0
 16 31  1  0  0  0  0
 17 32  1  0  0  0  0
 18 32  1  0  0  0  0
 18 33  2  0  0  0  0
 18 37  1  0  0  0  0
 19 21  2  0  0  0  0
 19 44  1  0  0  0  0
 20 22  2  0  0  0  0
 20 45  1  0  0  0  0
 21 53  1  0  0  0  0
 22 46  1  0  0  0  0
 23 25  2  0  0  0  0
 23 30  1  0  0  0  0
 23 62  1  0  0  0  0
 24 73  1  0  0  0  0
 25 72  1  0  0  0  0
 26 83  1  0  0  0  0
 27 84  1  0  0  0  0
 28 31  2  0  0  0  0
 28 83  1  0  0  0  0
 29 85  1  0  0  0  0
 30 86  1  0  0  0  0
 31 87  1  0  0  0  0
 32 66  2  0  0  0  0
 33 67  1  0  0  0  0
 33 70  1  0  0  0  0
 34 35  2  0  0  0  0
 35 62  1  0  0  0  0
 36 38  2  0  0  0  0
 36 84  1  0  0  0  0
 37 71  1  0  0  0  0
 37 77  2  0  0  0  0
 38 39  1  0  0  0  0
 38 56  1  0  0  0  0
 39 72  1  0  0  0  0
 39 78  2  0  0  0  0
 40 54  1  0  0  0  0
 40 74  1  0  0  0  0
 40 79  2  0  0  0  0
 41 63  1  0  0  0  0
 41 68  1  0  0  0  0
 41 80  2  0  0  0  0
 42 64  1  0  0  0  0
 42 75  1  0  0  0  0
 42 81  2  0  0  0  0
 43 69  1  0  0  0  0
 43 73  1  0  0  0  0
 43 82  2  0  0  0  0
 44 47  1  0  0  0  0
 45 54  1  0  0  0  0
 46 68  1  0  0  0  0
 47 49  1  0  0  0  0
 48 50  1  0  0  0  0
 48 51  1  0  0  0  0
 49 53  1  0  0  0  0
 50 55  1  0  0  0  0
 51 69  1  0  0  0  0
 52 55  1  0  0  0  0
 52 69  1  0  0  0  0
 53 74  1  0  0  0  0
 54 68  1  0  0  0  0
 55 67  1  0  0  0  0
 57 64  1  0  0  0  0
 58 65  1  0  0  0  0
 59 65  1  0  0  0  0
 60 65  1  0  0  0  0
 61 76  1  0  0  0  0
 63 65  1  0  0  0  0
 63 75  1  0  0  0  0
 64 76  1  0  0  0  0
 66 67  1  0  0  0  0
M  CHG  1  76   1
M  ISO  4  36 101  43 100  73 100  84 101
M  END
> <Batch ID>
0062

> <Smiles>
C=CCc1c(F)cc([100NH:0][100C:0](=O)N2CCCC(n3nc(-c4ccc(Oc5ccc(F)cc5F)cc4)c(C(N)=O)c3N)C2)cc1NC(=O)C(C)=[101CH:1][101O:1]c1ccc2c(c1)CN(C(=O)C(NC(=O)C(C)NC)C(C)(C)C)C(C(=O)NC1CCCc3ccccc31)C2

> <Shape>
0.282

> <Color>
0.188

> <Negative vol penalty>
0.000

$$$$

  -OEChem-04042323093D

 83 91  0     1  0  0  0  0  0999 V2000
  -29.2125  -36.7050   20.1122 C   0  0  0  0  0  0  0  0  0  0  0  0
  -29.4058  -35.3490   19.8683 C   0  0  0  0  0  0  0  0  0  0  0  0
  -24.7935   -8.6728   21.6210 C   0  0  0  0  0  0  0  0  0  0  0  0
  -23.2442  -10.0124   20.3395 C   0  0  0  0  0  0  0  0  0  0  0  0
  -28.3896  -37.1131   21.1611 C   0  0  0  0  0  0  0  0  0  0  0  0
  -28.7771  -34.4004   20.6741 C   0  0  0  0  0  0  0  0  0  0  0  0
  -26.6281  -28.9358   18.9346 C   0  0  0  0  0  0  0  0  0  0  0  0
  -23.7439   -8.2275   22.4245 C   0  0  0  0  0  0  0  0  0  0  0  0
  -22.1946   -9.5671   21.1430 C   0  0  0  0  0  0  0  0  0  0  0  0
  -27.1573  -27.6488   19.0213 C   0  0  0  0  0  0  0  0  0  0  0  0
  -21.2456   -5.9575   22.2272 C   0  0  0  0  0  0  0  0  0  0  0  0
  -21.1856   -4.5949   22.5189 C   0  0  0  0  0  0  0  0  0  0  0  0
  -25.9198  -27.2837   21.0595 C   0  0  0  0  0  0  0  0  0  0  0  0
  -26.9783  -18.5687   18.7166 C   0  0  0  0  0  0  0  0  0  0  0  0
  -25.0817  -19.7332   17.7767 C   0  0  0  0  0  0  0  0  0  0  0  0
  -25.3001  -17.3452   17.4823 C   0  0  0  0  0  0  0  0  0  0  0  0
  -21.3566   -5.0922   24.8770 C   0  0  0  0  0  0  0  0  0  0  0  0
  -24.5437   -9.5653   20.5785 C   0  0  0  0  0  0  0  0  0  0  0  0
  -26.0992   -9.4356   18.5608 C   0  0  0  0  0  0  0  0  0  0  0  0
  -27.7429  -36.1690   21.9741 C   0  0  0  0  0  0  0  0  0  0  0  0
  -25.7477  -29.4110   19.9172 C   0  0  0  0  0  0  0  0  0  0  0  0
  -27.9459  -34.7963   21.7357 C   0  0  0  0  0  0  0  0  0  0  0  0
  -25.3788  -28.5761   20.9817 C   0  0  0  0  0  0  0  0  0  0  0  0
  -26.2734  -19.7529   18.5014 C   0  0  0  0  0  0  0  0  0  0  0  0
  -26.4918  -17.3648   18.2070 C   0  0  0  0  0  0  0  0  0  0  0  0
  -22.4444   -8.6746   22.1855 C   0  0  0  0  0  0  0  0  0  0  0  0
  -26.8055  -26.8236   20.0854 C   0  0  0  0  0  0  0  0  0  0  0  0
  -21.3612   -6.8876   23.2603 C   0  0  0  0  0  0  0  0  0  0  0  0
  -21.2411   -4.1622   23.8438 C   0  0  0  0  0  0  0  0  0  0  0  0
  -24.5950  -18.5293   17.2671 C   0  0  0  0  0  0  0  0  0  0  0  0
  -21.4167   -6.4549   24.5852 C   0  0  0  0  0  0  0  0  0  0  0  0
  -25.6276  -10.0261   19.7485 C   0  0  0  0  0  0  0  0  0  0  0  0
  -27.1317  -10.2479   18.1600 C   0  0  0  0  0  0  0  0  0  0  0  0
  -27.0229  -23.2679   19.5823 C   0  0  0  0  0  0  0  0  0  0  0  0
  -26.6348  -24.5472   19.5760 C   0  0  0  0  0  0  0  0  0  1  0  0
  -25.6445   -8.2582   17.8806 C   0  0  0  0  0  0  0  0  0  0  0  0
  -26.1937  -22.2344   18.8963 C   0  0  0  0  0  0  0  0  0  0  0  0
  -25.8059  -31.7972   22.0164 C   0  0  0  0  0  0  0  0  0  0  0  0
  -22.7572  -30.8494   22.5903 C   0  0  0  0  0  0  0  0  0  0  0  0
  -20.4296  -28.3559   22.4833 C   0  0  0  0  0  0  0  0  0  0  0  0
  -28.4057  -16.0061   19.1219 C   0  0  0  0  0  0  0  0  0  0  0  0
  -26.9005  -36.6582   23.1255 C   0  0  0  0  0  0  0  0  0  0  0  0
  -25.1647  -30.7921   19.7950 C   0  0  0  0  0  0  0  0  0  0  0  0
  -24.4216  -29.0315   22.0517 C   0  0  0  0  0  0  0  0  0  0  0  0
  -25.9732  -35.5897   23.6988 C   0  0  0  0  0  0  0  0  0  0  0  0
  -30.4631  -13.2094   19.9110 C   0  0  0  0  0  0  0  0  0  0  0  0
  -26.7292  -34.2808   23.9036 C   0  0  0  0  0  0  0  0  0  0  0  0
  -29.5008  -12.0212   19.8448 C   0  0  0  0  0  0  0  0  0  0  0  0
  -29.7884  -14.4544   20.4841 C   0  0  0  0  0  0  0  0  0  0  0  0
  -27.5751  -13.6554   19.7546 C   0  0  0  0  0  0  0  0  0  0  0  0
  -27.2615  -33.7370   22.5723 C   0  0  1  0  0  0  0  0  0  0  0  0
  -24.6785  -31.3555   21.1268 C   0  0  1  0  0  0  0  0  0  0  0  0
  -28.1913  -12.3961   19.1236 C   0  0  2  0  0  0  0  0  0  0  0  0
  -18.0352  -27.8703   23.0563 C   0  0  0  0  0  0  0  0  0  0  0  0
  -23.5049  -30.6581   25.5423 C   0  0  0  0  0  0  0  0  0  0  0  0
  -21.4363  -29.2956   25.9063 C   0  0  0  0  0  0  0  0  0  0  0  0
  -21.2518  -31.6487   25.0990 C   0  0  0  0  0  0  0  0  0  0  0  0
  -19.7532  -27.7658   19.6631 C   0  0  0  0  0  0  0  0  0  0  0  0
  -22.1028  -29.8617   23.5259 C   0  0  1  0  0  0  0  0  0  0  0  0
  -18.9992  -28.3343   21.9755 C   0  0  2  0  0  0  0  0  0  0  0  0
  -22.0935  -30.3578   24.9994 C   0  0  0  0  0  0  0  0  0  0  0  0
  -26.3051  -11.1283   20.0807 N   0  0  0  0  0  0  0  0  0  0  0  0
  -27.2129  -11.2367   19.0958 N   0  0  0  0  0  0  0  0  0  0  0  0
  -23.8834  -30.3924   21.8913 N   0  0  0  0  0  0  0  0  0  0  0  0
  -28.5571  -14.7511   19.7487 N   0  0  0  0  0  0  0  0  0  0  0  0
  -27.9691  -10.2054   17.1020 N   0  0  0  0  0  0  0  0  0  0  0  0
  -24.5722   -7.5417   18.4293 N   0  0  0  0  0  0  0  0  0  0  0  0
  -26.7672  -20.9758   19.0184 N   0  0  0  0  0  0  0  0  0  0  0  0
  -27.2078  -16.1617   18.4251 N   0  0  0  0  0  0  0  0  0  0  0  0
  -26.1963  -33.1082   21.8210 N   0  0  0  0  0  0  0  0  0  0  0  0
  -20.7777  -29.5954   22.9767 N   0  0  0  0  0  0  0  0  0  0  0  0
  -18.8771  -27.4136   20.8100 N   0  3  0  0  0  0  0  0  0  0  0  0
  -26.1841   -7.8444   16.8265 O   0  0  0  0  0  0  0  0  0  0  0  0
  -25.1538  -22.5335   18.3212 O   0  0  0  0  0  0  0  0  0  0  0  0
  -26.2851  -31.0074   22.8217 O   0  0  0  0  0  0  0  0  0  0  0  0
  -22.2822  -31.9823   22.4783 O   0  0  0  0  0  0  0  0  0  0  0  0
  -21.1634  -27.3705   22.4493 O   0  0  0  0  0  0  0  0  0  0  0  0
  -29.2863  -16.8684   19.1750 O   0  0  0  0  0  0  0  0  0  0  0  0
  -21.4199   -8.2401   22.9691 O   0  0  0  0  0  0  0  0  0  0  0  0
  -27.3211  -25.5673   20.1728 O   0  0  0  0  0  0  0  0  0  1  0  0
  -21.1818   -2.8536   24.1238 F   0  0  0  0  0  0  0  0  0  0  0  0
  -23.4511  -18.5103   16.5705 F   0  0  0  0  0  0  0  0  0  0  0  0
  -21.5265   -7.3437   25.5821 F   0  0  0  0  0  0  0  0  0  0  0  0
  1  2  1  0  0  0  0
  1  5  2  0  0  0  0
  2  6  2  0  0  0  0
  3  8  2  0  0  0  0
  3 18  1  0  0  0  0
  4  9  1  0  0  0  0
  4 18  2  0  0  0  0
  5 20  1  0  0  0  0
  6 22  1  0  0  0  0
  7 10  2  0  0  0  0
  7 21  1  0  0  0  0
  8 26  1  0  0  0  0
  9 26  2  0  0  0  0
 10 27  1  0  0  0  0
 11 12  2  0  0  0  0
 11 28  1  0  0  0  0
 12 29  1  0  0  0  0
 13 23  1  0  0  0  0
 13 27  2  0  0  0  0
 14 24  2  0  0  0  0
 14 25  1  0  0  0  0
 15 24  1  0  0  0  0
 15 30  2  0  0  0  0
 16 25  2  0  0  0  0
 16 30  1  0  0  0  0
 17 29  2  0  0  0  0
 17 31  1  0  0  0  0
 18 32  1  0  0  0  0
 19 32  1  0  0  0  0
 19 33  2  0  0  0  0
 19 36  1  0  0  0  0
 20 22  2  0  0  0  0
 20 42  1  0  0  0  0
 21 23  2  0  0  0  0
 21 43  1  0  0  0  0
 22 51  1  0  0  0  0
 23 44  1  0  0  0  0
 24 68  1  0  0  0  0
 25 69  1  0  0  0  0
 26 79  1  0  0  0  0
 27 80  1  0  0  0  0
 28 31  2  0  0  0  0
 28 79  1  0  0  0  0
 29 81  1  0  0  0  0
 30 82  1  0  0  0  0
 31 83  1  0  0  0  0
 32 62  2  0  0  0  0
 33 63  1  0  0  0  0
 33 66  1  0  0  0  0
 34 35  2  0  0  0  0
 34 37  1  0  0  0  0
 35 80  1  0  0  0  0
 36 67  1  0  0  0  0
 36 73  2  0  0  0  0
 37 68  1  0  0  0  0
 37 74  2  0  0  0  0
 38 52  1  0  0  0  0
 38 70  1  0  0  0  0
 38 75  2  0  0  0  0
 39 59  1  0  0  0  0
 39 64  1  0  0  0  0
 39 76  2  0  0  0  0
 40 60  1  0  0  0  0
 40 71  1  0  0  0  0
 40 77  2  0  0  0  0
 41 65  1  0  0  0  0
 41 69  1  0  0  0  0
 41 78  2  0  0  0  0
 42 45  1  0  0  0  0
 43 52  1  0  0  0  0
 44 64  1  0  0  0  0
 45 47  1  0  0  0  0
 46 48  1  0  0  0  0
 46 49  1  0  0  0  0
 47 51  1  0  0  0  0
 48 53  1  0  0  0  0
 49 65  1  0  0  0  0
 50 53  1  0  0  0  0
 50 65  1  0  0  0  0
 51 70  1  0  0  0  0
 52 64  1  0  0  0  0
 53 63  1  0  0  0  0
 54 60  1  0  0  0  0
 55 61  1  0  0  0  0
 56 61  1  0  0  0  0
 57 61  1  0  0  0  0
 58 72  1  0  0  0  0
 59 61  1  0  0  0  0
 59 71  1  0  0  0  0
 60 72  1  0  0  0  0
 62 63  1  0  0  0  0
M  CHG  1  72   1
M  ISO  4  35 101  41 100  69 100  80 101
M  END
> <Batch ID>
0062

> <Smiles>
CNC(C)C(=O)NC(C(=O)N1Cc2cc([101O:1][101CH:1]=CC(=O)Nc3cc(F)cc([100NH:0][100C:0](=O)N4CCCC(n5nc(-c6ccc(Oc7ccc(F)cc7F)cc6)c(C(N)=O)c5N)C4)c3)ccc2CC1C(=O)NC1CCCc2ccccc21)C(C)(C)C

> <Shape>
0.273

> <Color>
0.105

> <Negative vol penalty>
0.000

$$$$

  -OEChem-04042323093D

 82 90  0     1  0  0  0  0  0999 V2000
  -17.1062  -30.2538   22.5694 C   0  0  0  0  0  0  0  0  0  0  0  0
  -18.3735  -29.7273   22.3407 C   0  0  0  0  0  0  0  0  0  0  0  0
  -32.6474  -18.2978   21.8081 C   0  0  0  0  0  0  0  0  0  0  0  0
  -23.0696   -9.9124   21.4599 C   0  0  0  0  0  0  0  0  0  0  0  0
  -23.8459  -10.7726   23.5800 C   0  0  0  0  0  0  0  0  0  0  0  0
  -16.4125  -29.9181   23.7312 C   0  0  0  0  0  0  0  0  0  0  0  0
  -18.9482  -28.8658   23.2744 C   0  0  0  0  0  0  0  0  0  0  0  0
  -22.6124  -24.0971   22.1167 C   0  0  0  0  0  0  0  0  0  0  0  0
  -31.8524  -19.3801   22.1850 C   0  0  0  0  0  0  0  0  0  0  0  0
  -32.0556  -17.1404   21.3021 C   0  0  0  0  0  0  0  0  0  0  0  0
  -22.3309   -8.9352   22.1269 C   0  0  0  0  0  0  0  0  0  0  0  0
  -23.1072   -9.7953   24.2470 C   0  0  0  0  0  0  0  0  0  0  0  0
  -23.9982  -23.9486   22.1527 C   0  0  0  0  0  0  0  0  0  0  0  0
  -22.9150   -5.9635   23.6276 C   0  0  0  0  0  0  0  0  0  0  0  0
  -22.9781   -4.6585   23.1392 C   0  0  0  0  0  0  0  0  0  0  0  0
  -23.8380  -23.0508   24.3859 C   0  0  0  0  0  0  0  0  0  0  0  0
  -29.8737  -18.1477   21.5500 C   0  0  0  0  0  0  0  0  0  0  0  0
  -20.5906   -4.6814   22.7695 C   0  0  0  0  0  0  0  0  0  0  0  0
  -23.8272  -10.8311   22.1865 C   0  0  0  0  0  0  0  0  0  0  0  0
  -24.1608  -13.1302   21.1325 C   0  0  0  0  0  0  0  0  0  0  0  0
  -16.9750  -29.0444   24.6750 C   0  0  0  0  0  0  0  0  0  0  0  0
  -21.8287  -23.7331   23.2211 C   0  0  0  0  0  0  0  0  0  0  0  0
  -18.2619  -28.5192   24.4506 C   0  0  0  0  0  0  0  0  0  0  0  0
  -22.4422  -23.1933   24.3605 C   0  0  0  0  0  0  0  0  0  0  0  0
  -30.4655  -19.3051   22.0560 C   0  0  0  0  0  0  0  0  0  0  0  0
  -30.6687  -17.0654   21.1731 C   0  0  0  0  0  0  0  0  0  0  0  0
  -22.3497   -8.8766   23.5204 C   0  0  0  0  0  0  0  0  0  0  0  0
  -24.6115  -23.4281   23.2885 C   0  0  0  0  0  0  0  0  0  0  0  0
  -21.6897   -6.6274   23.6871 C   0  0  0  0  0  0  0  0  0  0  0  0
  -21.8160   -4.0174   22.7101 C   0  0  0  0  0  0  0  0  0  0  0  0
  -20.5275   -5.9864   23.2580 C   0  0  0  0  0  0  0  0  0  0  0  0
  -24.5909  -11.8405   21.4981 C   0  0  0  0  0  0  0  0  0  0  0  0
  -25.2481  -13.6906   20.5080 C   0  0  0  0  0  0  0  0  0  0  0  0
  -27.8037  -21.8214   22.8732 C   0  0  0  0  0  0  0  0  0  0  0  0
  -26.4965  -22.1013   22.8922 C   0  0  0  0  0  0  0  0  0  1  0  0
  -22.8919  -13.7648   21.3392 C   0  0  0  0  0  0  0  0  0  0  0  0
  -28.2746  -20.4957   22.3764 C   0  0  0  0  0  0  0  0  0  0  0  0
  -19.8811  -25.2831   25.1981 C   0  0  0  0  0  0  0  0  0  0  0  0
  -19.2839  -22.3002   26.3242 C   0  0  0  0  0  0  0  0  0  0  0  0
  -20.3490  -19.0804   26.7059 C   0  0  0  0  0  0  0  0  0  0  0  0
  -30.7124  -14.7263   20.2387 C   0  0  0  0  0  0  0  0  0  0  0  0
  -16.2065  -28.7481   25.9385 C   0  0  0  0  0  0  0  0  0  0  0  0
  -20.3326  -23.8747   23.1564 C   0  0  0  0  0  0  0  0  0  0  0  0
  -21.6440  -22.7683   25.5650 C   0  0  0  0  0  0  0  0  0  0  0  0
  -16.7305  -27.5329   26.6993 C   0  0  0  0  0  0  0  0  0  0  0  0
  -29.5881  -11.6044   18.9477 C   0  0  0  0  0  0  0  0  0  0  0  0
  -18.2506  -27.5888   26.8128 C   0  0  0  0  0  0  0  0  0  0  0  0
  -28.1524  -11.4936   19.4661 C   0  0  0  0  0  0  0  0  0  0  0  0
  -30.5111  -12.2640   19.9708 C   0  0  0  0  0  0  0  0  0  0  0  0
  -28.6120  -13.4505   20.9978 C   0  0  0  0  0  0  0  0  0  0  0  0
  -18.9086  -27.5617   25.4280 C   0  0  1  0  0  0  0  0  0  0  0  0
  -19.6795  -23.9509   24.5330 C   0  0  1  0  0  0  0  0  0  0  0  0
  -27.6313  -12.8513   19.9767 C   0  0  2  0  0  0  0  0  0  0  0  0
  -19.6599  -16.8826   27.7020 C   0  0  0  0  0  0  0  0  0  0  0  0
  -19.9720  -23.3481   29.1060 C   0  0  0  0  0  0  0  0  0  0  0  0
  -20.1957  -20.9740   29.8688 C   0  0  0  0  0  0  0  0  0  0  0  0
  -18.0011  -21.8106   29.0284 C   0  0  0  0  0  0  0  0  0  0  0  0
  -20.3871  -17.7405   24.0673 C   0  0  0  0  0  0  0  0  0  0  0  0
  -19.8877  -21.4196   27.3914 C   0  0  1  0  0  0  0  0  0  0  0  0
  -19.6552  -17.7536   26.4554 C   0  0  2  0  0  0  0  0  0  0  0  0
  -19.5296  -21.8978   28.8269 C   0  0  0  0  0  0  0  0  0  0  0  0
  -25.8530  -11.5959   21.1357 N   0  0  0  0  0  0  0  0  0  0  0  0
  -26.2253  -12.7395   20.5360 N   0  0  0  0  0  0  0  0  0  0  0  0
  -20.1850  -22.9323   25.4556 N   0  0  0  0  0  0  0  0  0  0  0  0
  -29.9554  -13.5474   20.4057 N   0  0  0  0  0  0  0  0  0  0  0  0
  -25.4542  -14.8992   19.9430 N   0  0  0  0  0  0  0  0  0  0  0  0
  -21.8850  -13.0465   21.9984 N   0  0  0  0  0  0  0  0  0  0  0  0
  -29.6588  -20.4049   22.4385 N   0  0  0  0  0  0  0  0  0  0  0  0
  -30.0682  -15.8895   20.6590 N   0  0  0  0  0  0  0  0  0  0  0  0
  -18.9084  -26.2164   24.8945 N   0  0  0  0  0  0  0  0  0  0  0  0
  -19.4565  -20.0588   27.0900 N   0  0  0  0  0  0  0  0  0  0  0  0
  -20.3395  -17.0100   25.3600 N   0  3  0  0  0  0  0  0  0  0  0  0
  -22.6524  -14.9283   20.9362 O   0  0  0  0  0  0  0  0  0  0  0  0
  -27.4831  -19.6478   21.9811 O   0  0  0  0  0  0  0  0  0  0  0  0
  -20.8468  -25.4513   25.9335 O   0  0  0  0  0  0  0  0  0  0  0  0
  -18.0577  -22.4171   26.2590 O   0  0  0  0  0  0  0  0  0  0  0  0
  -21.5618  -19.2327   26.5775 O   0  0  0  0  0  0  0  0  0  0  0  0
  -31.8376  -14.7089   19.7332 O   0  0  0  0  0  0  0  0  0  0  0  0
  -21.6288   -7.9233   24.1716 O   0  0  0  0  0  0  0  0  0  0  0  0
  -25.9640  -23.2826   23.3264 O   0  0  0  0  0  0  0  0  0  1  0  0
  -21.8769   -2.7648   22.2396 F   0  0  0  0  0  0  0  0  0  0  0  0
  -19.3477   -6.6195   23.3116 F   0  0  0  0  0  0  0  0  0  0  0  0
  1  2  1  0  0  0  0
  1  6  2  0  0  0  0
  2  7  2  0  0  0  0
  3  9  2  0  0  0  0
  3 10  1  0  0  0  0
  4 11  2  0  0  0  0
  4 19  1  0  0  0  0
  5 12  1  0  0  0  0
  5 19  2  0  0  0  0
  6 21  1  0  0  0  0
  7 23  1  0  0  0  0
  8 13  2  0  0  0  0
  8 22  1  0  0  0  0
  9 25  1  0  0  0  0
 10 26  2  0  0  0  0
 11 27  1  0  0  0  0
 12 27  2  0  0  0  0
 13 28  1  0  0  0  0
 14 15  2  0  0  0  0
 14 29  1  0  0  0  0
 15 30  1  0  0  0  0
 16 24  1  0  0  0  0
 16 28  2  0  0  0  0
 17 25  2  0  0  0  0
 17 26  1  0  0  0  0
 18 30  2  0  0  0  0
 18 31  1  0  0  0  0
 19 32  1  0  0  0  0
 20 32  1  0  0  0  0
 20 33  2  0  0  0  0
 20 36  1  0  0  0  0
 21 23  2  0  0  0  0
 21 42  1  0  0  0  0
 22 24  2  0  0  0  0
 22 43  1  0  0  0  0
 23 51  1  0  0  0  0
 24 44  1  0  0  0  0
 25 68  1  0  0  0  0
 26 69  1  0  0  0  0
 27 79  1  0  0  0  0
 28 80  1  0  0  0  0
 29 31  2  0  0  0  0
 29 79  1  0  0  0  0
 30 81  1  0  0  0  0
 31 82  1  0  0  0  0
 32 62  2  0  0  0  0
 33 63  1  0  0  0  0
 33 66  1  0  0  0  0
 34 35  2  0  0  0  0
 34 37  1  0  0  0  0
 35 80  1  0  0  0  0
 36 67  1  0  0  0  0
 36 73  2  0  0  0  0
 37 68  1  0  0  0  0
 37 74  2  0  0  0  0
 38 52  1  0  0  0  0
 38 70  1  0  0  0  0
 38 75  2  0  0  0  0
 39 59  1  0  0  0  0
 39 64  1  0  0  0  0
 39 76  2  0  0  0  0
 40 60  1  0  0  0  0
 40 71  1  0  0  0  0
 40 77  2  0  0  0  0
 41 65  1  0  0  0  0
 41 69  1  0  0  0  0
 41 78  2  0  0  0  0
 42 45  1  0  0  0  0
 43 52  1  0  0  0  0
 44 64  1  0  0  0  0
 45 47  1  0  0  0  0
 46 48  1  0  0  0  0
 46 49  1  0  0  0  0
 47 51  1  0  0  0  0
 48 53  1  0  0  0  0
 49 65  1  0  0  0  0
 50 53  1  0  0  0  0
 50 65  1  0  0  0  0
 51 70  1  0  0  0  0
 52 64  1  0  0  0  0
 53 63  1  0  0  0  0
 54 60  1  0  0  0  0
 55 61  1  0  0  0  0
 56 61  1  0  0  0  0
 57 61  1  0  0  0  0
 58 72  1  0  0  0  0
 59 61  1  0  0  0  0
 59 71  1  0  0  0  0
 60 72  1  0  0  0  0
 62 63  1  0  0  0  0
M  CHG  1  72   1
M  ISO  4  35 101  41 100  69 100  80 101
M  END
> <Batch ID>
0062

> <Smiles>
CNC(C)C(=O)NC(C(=O)N1Cc2cc([101O:1][101CH:1]=CC(=O)Nc3cccc([100NH:0][100C:0](=O)N4CCCC(n5nc(-c6ccc(Oc7ccc(F)cc7F)cc6)c(C(N)=O)c5N)C4)c3)ccc2CC1C(=O)NC1CCCc2ccccc21)C(C)(C)C

> <Shape>
0.193

> <Color>
0.175

> <Negative vol penalty>
0.000

$$$$

  -OEChem-04042323093D

 91100  0     1  0  0  0  0  0999 V2000
  -28.1242  -37.6900   19.9232 C   0  0  0  0  0  0  0  0  0  0  0  0
  -28.5455  -36.3819   19.7072 C   0  0  0  0  0  0  0  0  0  0  0  0
  -22.9799   -9.8428   20.3170 C   0  0  0  0  0  0  0  0  0  0  0  0
  -23.3331  -11.9192   19.1335 C   0  0  0  0  0  0  0  0  0  0  0  0
  -27.2207  -37.9700   20.9476 C   0  0  0  0  0  0  0  0  0  0  0  0
  -28.0644  -35.3530   20.5161 C   0  0  0  0  0  0  0  0  0  0  0  0
  -26.8936  -29.5837   18.8280 C   0  0  0  0  0  0  0  0  0  0  0  0
  -21.6003  -10.0070   20.1934 C   0  0  0  0  0  0  0  0  0  0  0  0
  -21.9535  -12.0834   19.0098 C   0  0  0  0  0  0  0  0  0  0  0  0
  -27.6270  -28.4041   18.9481 C   0  0  0  0  0  0  0  0  0  0  0  0
  -19.1609  -11.7990   21.6977 C   0  0  0  0  0  0  0  0  0  0  0  0
  -18.3769  -11.5600   22.8262 C   0  0  0  0  0  0  0  0  0  0  0  0
  -26.4200  -27.8662   20.9663 C   0  0  0  0  0  0  0  0  0  0  0  0
  -27.3923  -19.2395   18.9453 C   0  0  0  0  0  0  0  0  0  0  0  0
  -29.4652  -18.3411   20.5820 C   0  0  0  0  0  0  0  0  0  0  0  0
  -17.1933   -9.8223   21.6360 C   0  0  0  0  0  0  0  0  0  0  0  0
  -23.8463  -10.7990   19.7871 C   0  0  0  0  0  0  0  0  0  0  0  0
  -26.0490   -9.5648   19.4227 C   0  0  0  0  0  0  0  0  0  0  0  0
  -26.7209  -36.9427   21.7633 C   0  0  0  0  0  0  0  0  0  0  0  0
  -25.9239  -29.9193   19.7838 C   0  0  0  0  0  0  0  0  0  0  0  0
  -27.1545  -35.6197   21.5532 C   0  0  0  0  0  0  0  0  0  0  0  0
  -25.6739  -29.0494   20.8547 C   0  0  0  0  0  0  0  0  0  0  0  0
  -27.4365  -17.9038   19.3449 C   0  0  0  0  0  0  0  0  0  0  0  0
  -28.3845  -20.1259   19.3641 C   0  0  0  0  0  0  0  0  0  0  0  0
  -28.4729  -17.4546   20.1633 C   0  0  0  0  0  0  0  0  0  0  0  0
  -29.4210  -19.6768   20.1824 C   0  0  0  0  0  0  0  0  0  0  0  0
  -21.0871  -11.1273   19.5398 C   0  0  0  0  0  0  0  0  0  0  0  0
  -27.3923  -27.5465   20.0189 C   0  0  0  0  0  0  0  0  0  0  0  0
  -18.9612  -11.0497   20.5382 C   0  0  0  0  0  0  0  0  0  0  0  0
  -17.3931  -10.5716   22.7954 C   0  0  0  0  0  0  0  0  0  0  0  0
  -17.9774  -10.0614   20.5074 C   0  0  0  0  0  0  0  0  0  0  0  0
  -25.2716  -10.6302   19.9150 C   0  0  0  0  0  0  0  0  0  0  0  0
  -27.3326   -9.8721   19.8029 C   0  0  0  0  0  0  0  0  0  0  0  0
  -29.3496  -22.0890   18.1827 C   0  0  0  0  0  0  0  0  0  0  0  0
  -33.4700  -21.3833   22.4228 C   0  0  0  0  0  0  0  0  0  0  0  0
  -32.3712  -21.4597   21.6654 C   0  0  0  0  0  0  0  0  0  0  0  0
  -25.6469   -8.4014   18.6875 C   0  0  0  0  0  0  0  0  0  0  0  0
  -31.5248  -20.2536   21.4323 C   0  0  0  0  0  0  0  0  0  0  0  0
  -25.5361  -32.3105   21.8418 C   0  0  0  0  0  0  0  0  0  0  0  0
  -22.6745  -30.8768   22.3688 C   0  0  0  0  0  0  0  0  0  0  0  0
  -20.7963  -28.0296   22.2571 C   0  0  0  0  0  0  0  0  0  0  0  0
  -29.4997  -15.5022   21.3936 C   0  0  0  0  0  0  0  0  0  0  0  0
  -25.7824  -37.3007   22.8884 C   0  0  0  0  0  0  0  0  0  0  0  0
  -25.1227  -31.1824   19.6254 C   0  0  0  0  0  0  0  0  0  0  0  0
  -24.6298  -29.3539   21.8966 C   0  0  0  0  0  0  0  0  0  0  0  0
  -29.1243  -23.5597   17.8839 C   0  0  0  0  0  0  0  0  0  0  0  0
  -25.0322  -36.1008   23.4609 C   0  0  0  0  0  0  0  0  0  0  0  0
  -29.4917  -12.3681   23.3521 C   0  0  0  0  0  0  0  0  0  0  0  0
  -25.9900  -34.9388   23.7041 C   0  0  0  0  0  0  0  0  0  0  0  0
  -28.6756  -11.3622   22.5388 C   0  0  0  0  0  0  0  0  0  0  0  0
  -27.3219  -23.6931   19.6243 C   0  0  0  0  0  0  0  0  0  0  0  0
  -30.2135  -13.3871   22.4812 C   0  0  0  0  0  0  0  0  0  0  0  0
  -27.0794  -22.2578   19.1487 C   0  0  0  0  0  0  0  0  0  0  0  0
  -28.1629  -13.3560   21.0441 C   0  0  0  0  0  0  0  0  0  0  0  0
  -26.6361  -34.4730   22.3937 C   0  0  1  0  0  0  0  0  0  0  0  0
  -24.5187  -31.6753   20.9368 C   0  0  1  0  0  0  0  0  0  0  0  0
  -28.6556  -24.2745   19.1457 C   0  0  2  0  0  0  0  0  0  0  0  0
  -28.3884  -11.8371   21.1047 C   0  0  2  0  0  0  0  0  0  0  0  0
  -26.3609  -16.9762   18.8808 C   0  0  0  0  0  0  0  0  0  0  0  0
  -18.5030  -27.1603   22.7887 C   0  0  0  0  0  0  0  0  0  0  0  0
  -23.3746  -30.8531   25.3386 C   0  0  0  0  0  0  0  0  0  0  0  0
  -21.5529  -29.1707   25.6833 C   0  0  0  0  0  0  0  0  0  0  0  0
  -20.9992  -31.4489   24.8314 C   0  0  0  0  0  0  0  0  0  0  0  0
  -20.2932  -27.2964   19.4342 C   0  0  0  0  0  0  0  0  0  0  0  0
  -28.5590  -25.7821   18.9318 C   0  0  0  0  0  0  0  0  0  1  0  0
  -22.1715  -29.8070   23.3077 C   0  0  1  0  0  0  0  0  0  0  0  0
  -19.4015  -27.7633   21.7202 C   0  0  2  0  0  0  0  0  0  0  0  0
  -22.0457  -30.3149   24.7719 C   0  0  0  0  0  0  0  0  0  0  0  0
  -26.0003  -11.5458   20.5589 N   0  0  0  0  0  0  0  0  0  0  0  0
  -27.2491  -11.0565   20.4739 N   0  0  0  0  0  0  0  0  0  0  0  0
  -28.3173  -21.4990   18.9384 N   0  0  0  0  0  0  0  0  0  0  0  0
  -23.8770  -30.6039   21.7014 N   0  0  0  0  0  0  0  0  0  0  0  0
  -29.2768  -14.1233   21.6272 N   0  0  0  0  0  0  0  0  0  0  0  0
  -28.5131   -9.2419   19.6254 N   0  0  0  0  0  0  0  0  0  0  0  0
  -25.6266   -8.4697   17.2877 N   0  0  0  0  0  0  0  0  0  0  0  0
  -30.4263  -20.5464   20.6152 N   0  0  0  0  0  0  0  0  0  0  0  0
  -28.5347  -16.1017   20.5804 N   0  0  0  0  0  0  0  0  0  0  0  0
  -25.7079  -33.6654   21.6317 N   0  0  0  0  0  0  0  0  0  0  0  0
  -20.9222  -29.3165   22.7359 N   0  0  0  0  0  0  0  0  0  0  0  0
  -19.4612  -26.8192   20.5687 N   0  3  0  0  0  0  0  0  0  0  0  0
  -30.3387  -21.5205   17.7208 O   0  0  0  0  0  0  0  0  0  0  0  0
  -25.2996   -7.3382   19.2554 O   0  0  0  0  0  0  0  0  0  0  0  0
  -31.8131  -19.1699   21.9262 O   0  0  0  0  0  0  0  0  0  0  0  0
  -26.1209  -31.6227   22.6704 O   0  0  0  0  0  0  0  0  0  0  0  0
  -22.0208  -31.9132   22.2272 O   0  0  0  0  0  0  0  0  0  0  0  0
  -21.6841  -27.1797   22.2555 O   0  0  0  0  0  0  0  0  0  0  0  0
  -30.4595  -16.0962   21.8897 O   0  0  0  0  0  0  0  0  0  0  0  0
  -19.7409  -11.2877   19.4188 O   0  0  0  0  0  0  0  0  0  0  0  0
  -28.1071  -26.3948   20.1388 O   0  0  0  0  0  0  0  0  0  1  0  0
  -16.6413  -10.3412   23.8798 F   0  0  0  0  0  0  0  0  0  0  0  0
  -17.7816   -9.3375   19.3967 F   0  0  0  0  0  0  0  0  0  0  0  0
  1  2  1  0  0  0  0
  1  5  2  0  0  0  0
  2  6  2  0  0  0  0
  3  8  2  0  0  0  0
  3 17  1  0  0  0  0
  4  9  1  0  0  0  0
  4 17  2  0  0  0  0
  5 19  1  0  0  0  0
  6 21  1  0  0  0  0
  7 10  2  0  0  0  0
  7 20  1  0  0  0  0
  8 27  1  0  0  0  0
  9 27  2  0  0  0  0
 10 28  1  0  0  0  0
 11 12  2  0  0  0  0
 11 29  1  0  0  0  0
 12 30  1  0  0  0  0
 13 22  1  0  0  0  0
 13 28  2  0  0  0  0
 14 23  2  0  0  0  0
 14 24  1  0  0  0  0
 15 25  2  0  0  0  0
 15 26  1  0  0  0  0
 16 30  2  0  0  0  0
 16 31  1  0  0  0  0
 17 32  1  0  0  0  0
 18 32  1  0  0  0  0
 18 33  2  0  0  0  0
 18 37  1  0  0  0  0
 19 21  2  0  0  0  0
 19 43  1  0  0  0  0
 20 22  2  0  0  0  0
 20 44  1  0  0  0  0
 21 55  1  0  0  0  0
 22 45  1  0  0  0  0
 23 25  1  0  0  0  0
 23 59  1  0  0  0  0
 24 26  2  0  0  0  0
 24 71  1  0  0  0  0
 25 77  1  0  0  0  0
 26 76  1  0  0  0  0
 27 88  1  0  0  0  0
 28 89  1  0  0  0  0
 29 31  2  0  0  0  0
 29 88  1  0  0  0  0
 30 90  1  0  0  0  0
 31 91  1  0  0  0  0
 32 69  2  0  0  0  0
 33 70  1  0  0  0  0
 33 74  1  0  0  0  0
 34 46  1  0  0  0  0
 34 71  1  0  0  0  0
 34 81  2  0  0  0  0
 35 36  2  0  0  0  0
 36 38  1  0  0  0  0
 37 75  1  0  0  0  0
 37 82  2  0  0  0  0
 38 76  1  0  0  0  0
 38 83  2  0  0  0  0
 39 56  1  0  0  0  0
 39 78  1  0  0  0  0
 39 84  2  0  0  0  0
 40 66  1  0  0  0  0
 40 72  1  0  0  0  0
 40 85  2  0  0  0  0
 41 67  1  0  0  0  0
 41 79  1  0  0  0  0
 41 86  2  0  0  0  0
 42 73  1  0  0  0  0
 42 77  1  0  0  0  0
 42 87  2  0  0  0  0
 43 47  1  0  0  0  0
 44 56  1  0  0  0  0
 45 72  1  0  0  0  0
 46 57  1  0  0  0  0
 47 49  1  0  0  0  0
 48 50  1  0  0  0  0
 48 52  1  0  0  0  0
 49 55  1  0  0  0  0
 50 58  1  0  0  0  0
 51 53  1  0  0  0  0
 51 57  1  0  0  0  0
 52 73  1  0  0  0  0
 53 71  1  0  0  0  0
 54 58  1  0  0  0  0
 54 73  1  0  0  0  0
 55 78  1  0  0  0  0
 56 72  1  0  0  0  0
 57 65  1  0  0  0  0
 58 70  1  0  0  0  0
 60 67  1  0  0  0  0
 61 68  1  0  0  0  0
 62 68  1  0  0  0  0
 63 68  1  0  0  0  0
 64 80  1  0  0  0  0
 65 89  1  0  0  0  0
 66 68  1  0  0  0  0
 66 79  1  0  0  0  0
 67 80  1  0  0  0  0
 69 70  1  0  0  0  0
M  CHG  1  80   1
M  ISO  4  42 100  65 101  77 100  89 101
M  END
> <Batch ID>
0062

> <Smiles>
C=CC(=O)Nc1cc([100NH:0][100C:0](=O)N2CCCC(n3nc(-c4ccc(Oc5ccc(F)cc5F)cc4)c(C(N)=O)c3N)C2)c(C)cc1N1CCC([101CH2:1][101O:1]c2ccc3c(c2)CN(C(=O)C(NC(=O)C(C)NC)C(C)(C)C)C(C(=O)NC2CCCc4ccccc42)C3)CC1=O

> <Shape>
0.264

> <Color>
0.071

> <Negative vol penalty>
0.000

$$$$

  -OEChem-04042323093D

 85 94  0     1  0  0  0  0  0999 V2000
  -29.0317  -36.1950   20.8400 C   0  0  0  0  0  0  0  0  0  0  0  0
  -29.1471  -34.8172   20.9948 C   0  0  0  0  0  0  0  0  0  0  0  0
  -30.8609  -23.3361   24.4610 C   0  0  0  0  0  0  0  0  0  0  0  0
  -26.4166  -13.0182   21.5567 C   0  0  0  0  0  0  0  0  0  0  0  0
  -25.9386  -15.1246   20.4742 C   0  0  0  0  0  0  0  0  0  0  0  0
  -27.9153  -36.8609   21.3441 C   0  0  0  0  0  0  0  0  0  0  0  0
  -28.1465  -34.1047   21.6548 C   0  0  0  0  0  0  0  0  0  0  0  0
  -26.8805  -29.8398   19.2356 C   0  0  0  0  0  0  0  0  0  0  0  0
  -30.2090  -23.9610   23.3980 C   0  0  0  0  0  0  0  0  0  0  0  0
  -31.1740  -21.9789   24.3864 C   0  0  0  0  0  0  0  0  0  0  0  0
  -25.0535  -12.7238   21.5858 C   0  0  0  0  0  0  0  0  0  0  0  0
  -24.5754  -14.8302   20.5033 C   0  0  0  0  0  0  0  0  0  0  0  0
  -27.7387  -28.7499   19.3752 C   0  0  0  0  0  0  0  0  0  0  0  0
  -21.7277  -11.2565   21.6195 C   0  0  0  0  0  0  0  0  0  0  0  0
  -21.3336   -9.9719   21.2453 C   0  0  0  0  0  0  0  0  0  0  0  0
  -26.2634  -27.8086   21.0355 C   0  0  0  0  0  0  0  0  0  0  0  0
  -22.3070  -10.3098   19.0600 C   0  0  0  0  0  0  0  0  0  0  0  0
  -26.8591  -14.2187   21.0009 C   0  0  0  0  0  0  0  0  0  0  0  0
  -29.1839  -14.2075   19.9506 C   0  0  0  0  0  0  0  0  0  0  0  0
  -26.8959  -36.1549   22.0021 C   0  0  0  0  0  0  0  0  0  0  0  0
  -25.7109  -29.9277   20.0042 C   0  0  0  0  0  0  0  0  0  0  0  0
  -27.0160  -34.7620   22.1693 C   0  0  0  0  0  0  0  0  0  0  0  0
  -25.3908  -28.8993   20.9020 C   0  0  0  0  0  0  0  0  0  0  0  0
  -30.1832  -21.8714   22.1855 C   0  0  0  0  0  0  0  0  0  0  0  0
  -29.8701  -23.2286   22.2602 C   0  0  0  0  0  0  0  0  0  0  0  0
  -30.8351  -21.2465   23.2486 C   0  0  0  0  0  0  0  0  0  0  0  0
  -24.1329  -13.6297   21.0591 C   0  0  0  0  0  0  0  0  0  0  0  0
  -27.4317  -27.7355   20.2773 C   0  0  0  0  0  0  0  0  0  0  0  0
  -22.4114  -12.0678   20.7139 C   0  0  0  0  0  0  0  0  0  0  0  0
  -21.6232   -9.4985   19.9656 C   0  0  0  0  0  0  0  0  0  0  0  0
  -22.7011  -11.5945   19.4342 C   0  0  0  0  0  0  0  0  0  0  0  0
  -28.2671  -14.5236   20.9710 C   0  0  0  0  0  0  0  0  0  0  0  0
  -30.3816  -14.7099   20.3973 C   0  0  0  0  0  0  0  0  0  0  0  0
  -29.6649  -24.0147   19.8591 C   0  0  0  0  0  0  0  0  0  0  0  0
  -28.9718  -13.5212   18.7097 C   0  0  0  0  0  0  0  0  0  0  0  0
  -24.6072  -31.9602   22.1846 C   0  0  0  0  0  0  0  0  0  0  0  0
  -21.9313  -30.1403   21.9605 C   0  0  0  0  0  0  0  0  0  0  0  0
  -20.5324  -27.1313   21.1633 C   0  0  0  0  0  0  0  0  0  0  0  0
  -31.8060  -19.1147   24.1754 C   0  0  0  0  0  0  0  0  0  0  0  0
  -25.7307  -36.9246   22.5716 C   0  0  0  0  0  0  0  0  0  0  0  0
  -24.7821  -31.0968   19.8224 C   0  0  0  0  0  0  0  0  0  0  0  0
  -24.1370  -28.9363   21.7358 C   0  0  0  0  0  0  0  0  0  0  0  0
  -24.5356  -36.0447   22.9288 C   0  0  0  0  0  0  0  0  0  0  0  0
  -32.7561  -15.6934   24.4382 C   0  0  0  0  0  0  0  0  0  0  0  0
  -24.9926  -34.8117   23.7020 C   0  0  0  0  0  0  0  0  0  0  0  0
  -31.8002  -14.9771   23.4814 C   0  0  0  0  0  0  0  0  0  0  0  0
  -32.0712  -16.8502   25.1637 C   0  0  0  0  0  0  0  0  0  0  0  0
  -30.4421  -17.1032   23.3331 C   0  0  0  0  0  0  0  0  0  0  0  0
  -27.8839  -24.4822   21.3450 C   0  0  0  0  0  0  0  0  0  0  0  0
  -25.9398  -33.9508   22.8575 C   0  0  1  0  0  0  0  0  0  0  0  0
  -28.5492  -24.6721   19.0593 C   0  0  1  0  0  0  0  0  0  0  0  0
  -23.8788  -31.3354   21.0285 C   0  0  1  0  0  0  0  0  0  0  0  0
  -31.1044  -15.9712   22.5310 C   0  0  2  0  0  0  0  0  0  0  0  0
  -27.7306  -25.3842   20.1326 C   0  0  2  0  0  0  0  0  0  1  0  0
  -29.8186  -21.0848   20.9644 C   0  0  0  0  0  0  0  0  0  0  0  0
  -29.0735  -25.5659   17.9491 C   0  0  0  0  0  0  0  0  0  0  0  0
  -18.3277  -25.9336   21.1201 C   0  0  0  0  0  0  0  0  0  0  0  0
  -22.0574  -29.8039   24.9905 C   0  0  0  0  0  0  0  0  0  0  0  0
  -20.4619  -27.8867   24.7742 C   0  0  0  0  0  0  0  0  0  0  0  0
  -19.7594  -30.1765   24.0770 C   0  0  0  0  0  0  0  0  0  0  0  0
  -20.6779  -26.7268   18.2352 C   0  0  0  0  0  0  0  0  0  0  0  0
  -21.4186  -28.9029   22.6568 C   0  0  1  0  0  0  0  0  0  0  0  0
  -19.3157  -26.7758   20.3281 C   0  0  2  0  0  0  0  0  0  0  0  0
  -20.9490  -29.1925   24.1105 C   0  0  0  0  0  0  0  0  0  0  0  0
  -28.8338  -15.1761   21.9894 N   0  0  0  0  0  0  0  0  0  0  0  0
  -30.1196  -15.2741   21.6111 N   0  0  0  0  0  0  0  0  0  0  0  0
  -29.2019  -23.8887   21.1849 N   0  0  0  0  0  0  0  0  0  0  0  0
  -23.2641  -30.1033   21.5267 N   0  0  0  0  0  0  0  0  0  0  0  0
  -31.4379  -17.7528   24.1999 N   0  0  0  0  0  0  0  0  0  0  0  0
  -31.6227  -14.7196   19.8664 N   0  0  0  0  0  0  0  0  0  0  0  0
  -27.6792  -13.0716   18.4073 N   0  0  0  0  0  0  0  0  0  0  0  0
  -31.1614  -19.8687   23.1954 N   0  0  0  0  0  0  0  0  0  0  0  0
  -25.1919  -33.1770   21.8898 N   0  0  0  0  0  0  0  0  0  0  0  0
  -20.3816  -28.3486   21.7932 N   0  0  0  0  0  0  0  0  0  0  0  0
  -19.7243  -26.0074   19.1184 N   0  3  0  0  0  0  0  0  0  0  0  0
  -30.7130  -23.6343   19.3575 O   0  0  0  0  0  0  0  0  0  0  0  0
  -29.9042  -13.2984   17.9008 O   0  0  0  0  0  0  0  0  0  0  0  0
  -24.6353  -31.3819   23.2647 O   0  0  0  0  0  0  0  0  0  0  0  0
  -21.1750  -31.1016   21.8008 O   0  0  0  0  0  0  0  0  0  0  0  0
  -21.5165  -26.4004   21.2514 O   0  0  0  0  0  0  0  0  0  0  0  0
  -32.6522  -19.5721   24.9478 O   0  0  0  0  0  0  0  0  0  0  0  0
  -22.8027  -13.3427   21.0872 O   0  0  0  0  0  0  0  0  0  0  0  0
  -28.2679  -26.6708   20.4160 O   0  0  0  0  0  0  0  0  0  1  0  0
  -21.2460   -8.2643   19.6069 F   0  0  0  0  0  0  0  0  0  0  0  0
  -23.3587  -12.3688   18.5603 F   0  0  0  0  0  0  0  0  0  0  0  0
  1  2  1  0  0  0  0
  1  6  2  0  0  0  0
  2  7  2  0  0  0  0
  3  9  2  0  0  0  0
  3 10  1  0  0  0  0
  4 11  2  0  0  0  0
  4 18  1  0  0  0  0
  5 12  1  0  0  0  0
  5 18  2  0  0  0  0
  6 20  1  0  0  0  0
  7 22  1  0  0  0  0
  8 13  2  0  0  0  0
  8 21  1  0  0  0  0
  9 25  1  0  0  0  0
 10 26  2  0  0  0  0
 11 27  1  0  0  0  0
 12 27  2  0  0  0  0
 13 28  1  0  0  0  0
 14 15  2  0  0  0  0
 14 29  1  0  0  0  0
 15 30  1  0  0  0  0
 16 23  1  0  0  0  0
 16 28  2  0  0  0  0
 17 30  2  0  0  0  0
 17 31  1  0  0  0  0
 18 32  1  0  0  0  0
 19 32  1  0  0  0  0
 19 33  2  0  0  0  0
 19 35  1  0  0  0  0
 20 22  2  0  0  0  0
 20 40  1  0  0  0  0
 21 23  2  0  0  0  0
 21 41  1  0  0  0  0
 22 50  1  0  0  0  0
 23 42  1  0  0  0  0
 24 25  2  0  0  0  0
 24 26  1  0  0  0  0
 24 55  1  0  0  0  0
 25 67  1  0  0  0  0
 26 72  1  0  0  0  0
 27 82  1  0  0  0  0
 28 83  1  0  0  0  0
 29 31  2  0  0  0  0
 29 82  1  0  0  0  0
 30 84  1  0  0  0  0
 31 85  1  0  0  0  0
 32 65  2  0  0  0  0
 33 66  1  0  0  0  0
 33 70  1  0  0  0  0
 34 51  1  0  0  0  0
 34 67  1  0  0  0  0
 34 76  2  0  0  0  0
 35 71  1  0  0  0  0
 35 77  2  0  0  0  0
 36 52  1  0  0  0  0
 36 73  1  0  0  0  0
 36 78  2  0  0  0  0
 37 62  1  0  0  0  0
 37 68  1  0  0  0  0
 37 79  2  0  0  0  0
 38 63  1  0  0  0  0
 38 74  1  0  0  0  0
 38 80  2  0  0  0  0
 39 69  1  0  0  0  0
 39 72  1  0  0  0  0
 39 81  2  0  0  0  0
 40 43  1  0  0  0  0
 41 52  1  0  0  0  0
 42 68  1  0  0  0  0
 43 45  1  0  0  0  0
 44 46  1  0  0  0  0
 44 47  1  0  0  0  0
 45 50  1  0  0  0  0
 46 53  1  0  0  0  0
 47 69  1  0  0  0  0
 48 53  1  0  0  0  0
 48 69  1  0  0  0  0
 49 54  1  0  0  0  0
 49 67  1  0  0  0  0
 50 73  1  0  0  0  0
 51 54  1  0  0  0  0
 51 56  1  0  0  0  0
 52 68  1  0  0  0  0
 53 66  1  0  0  0  0
 54 83  1  0  0  0  0
 57 63  1  0  0  0  0
 58 64  1  0  0  0  0
 59 64  1  0  0  0  0
 60 64  1  0  0  0  0
 61 75  1  0  0  0  0
 62 64  1  0  0  0  0
 62 74  1  0  0  0  0
 63 75  1  0  0  0  0
 65 66  1  0  0  0  0
M  CHG  1  75   1
M  ISO  4  39 100  54 101  72 100  83 101
M  END
> <Batch ID>
0062

> <Smiles>
CNC(C)C(=O)NC(C(=O)N1Cc2cc([101O:1][101CH:1]3CN(c4cccc([100NH:0][100C:0](=O)N5CCCC(n6nc(-c7ccc(Oc8ccc(F)cc8F)cc7)c(C(N)=O)c6N)C5)c4C)C(=O)C3C)ccc2CC1C(=O)NC1CCCc2ccccc21)C(C)(C)C

> <Shape>
0.307

> <Color>
0.074

> <Negative vol penalty>
0.000

$$$$

  -OEChem-04042323093D

 83 91  0     1  0  0  0  0  0999 V2000
  -25.2062  -18.7693   23.6624 C   0  0  0  0  0  0  0  0  0  0  0  0
  -13.4032  -22.5380   25.0466 C   0  0  0  0  0  0  0  0  0  0  0  0
  -14.5932  -21.8202   24.9834 C   0  0  0  0  0  0  0  0  0  0  0  0
  -31.8879  -18.3357   24.1519 C   0  0  0  0  0  0  0  0  0  0  0  0
  -32.6635  -17.4266   23.4326 C   0  0  0  0  0  0  0  0  0  0  0  0
  -22.9996   -9.8920   19.9828 C   0  0  0  0  0  0  0  0  0  0  0  0
  -23.7193   -9.9506   22.2884 C   0  0  0  0  0  0  0  0  0  0  0  0
  -13.4003  -23.9059   24.7769 C   0  0  0  0  0  0  0  0  0  0  0  0
  -15.7810  -22.4698   24.6494 C   0  0  0  0  0  0  0  0  0  0  0  0
  -21.3825  -21.2324   26.7939 C   0  0  0  0  0  0  0  0  0  0  0  0
  -30.5029  -18.3550   23.9867 C   0  0  0  0  0  0  0  0  0  0  0  0
  -32.0542  -16.5368   22.5478 C   0  0  0  0  0  0  0  0  0  0  0  0
  -22.2321   -8.7586   20.2512 C   0  0  0  0  0  0  0  0  0  0  0  0
  -22.9518   -8.8173   22.5568 C   0  0  0  0  0  0  0  0  0  0  0  0
  -22.4450  -20.4959   26.2721 C   0  0  0  0  0  0  0  0  0  0  0  0
  -21.4666   -5.7287   23.7671 C   0  0  0  0  0  0  0  0  0  0  0  0
  -22.0506   -4.7154   24.5272 C   0  0  0  0  0  0  0  0  0  0  0  0
  -23.4215  -22.5264   25.4104 C   0  0  0  0  0  0  0  0  0  0  0  0
  -23.7808   -4.4620   22.8601 C   0  0  0  0  0  0  0  0  0  0  0  0
  -23.7433  -10.4880   21.0014 C   0  0  0  0  0  0  0  0  0  0  0  0
  -24.1297  -13.0029   20.8177 C   0  0  0  0  0  0  0  0  0  0  0  0
  -14.5903  -24.5744   24.4489 C   0  0  0  0  0  0  0  0  0  0  0  0
  -21.3258  -22.6225   26.6181 C   0  0  0  0  0  0  0  0  0  0  0  0
  -15.7939  -23.8477   24.3738 C   0  0  0  0  0  0  0  0  0  0  0  0
  -22.3585  -23.2786   25.9331 C   0  0  0  0  0  0  0  0  0  0  0  0
  -29.8937  -17.4652   23.1019 C   0  0  0  0  0  0  0  0  0  0  0  0
  -30.6693  -16.5561   22.3825 C   0  0  0  0  0  0  0  0  0  0  0  0
  -22.2082   -8.2213   21.5381 C   0  0  0  0  0  0  0  0  0  0  0  0
  -23.4633  -21.1425   25.5777 C   0  0  0  0  0  0  0  0  0  0  0  0
  -22.0397   -6.1087   22.5535 C   0  0  0  0  0  0  0  0  0  0  0  0
  -23.2077   -4.0820   24.0737 C   0  0  0  0  0  0  0  0  0  0  0  0
  -23.1968   -5.4754   22.1000 C   0  0  0  0  0  0  0  0  0  0  0  0
  -24.5367  -11.6584   20.7246 C   0  0  0  0  0  0  0  0  0  0  0  0
  -25.2405  -13.7239   20.4535 C   0  0  0  0  0  0  0  0  0  0  0  0
  -26.1931  -18.0806   23.1700 C   0  0  0  0  0  0  0  0  0  0  0  0
  -24.2212  -19.4522   24.1497 C   0  0  0  0  0  0  0  0  0  1  0  0
  -22.8609  -13.5509   21.1993 C   0  0  0  0  0  0  0  0  0  0  0  0
  -27.5940  -18.3487   23.5972 C   0  0  0  0  0  0  0  0  0  0  0  0
  -19.3158  -24.6216   25.1803 C   0  0  0  0  0  0  0  0  0  0  0  0
  -21.2172  -26.8812   26.5222 C   0  0  0  0  0  0  0  0  0  0  0  0
  -24.2716  -27.7129   27.7971 C   0  0  0  0  0  0  0  0  0  0  0  0
  -30.7196  -14.6843   20.6972 C   0  0  0  0  0  0  0  0  0  0  0  0
  -14.5297  -26.0449   24.1194 C   0  0  0  0  0  0  0  0  0  0  0  0
  -20.1864  -23.4060   27.2101 C   0  0  0  0  0  0  0  0  0  0  0  0
  -22.3549  -24.7716   25.7345 C   0  0  0  0  0  0  0  0  0  0  0  0
  -15.8936  -26.7303   24.1393 C   0  0  0  0  0  0  0  0  0  0  0  0
  -29.6062  -12.2238   18.3770 C   0  0  0  0  0  0  0  0  0  0  0  0
  -16.9219  -25.8951   23.3832 C   0  0  0  0  0  0  0  0  0  0  0  0
  -28.1546  -11.9680   18.7886 C   0  0  0  0  0  0  0  0  0  0  0  0
  -30.5039  -12.4711   19.5881 C   0  0  0  0  0  0  0  0  0  0  0  0
  -28.5856  -13.2650   20.9143 C   0  0  0  0  0  0  0  0  0  0  0  0
  -17.1070  -24.5215   24.0392 C   0  0  1  0  0  0  0  0  0  0  0  0
  -19.9688  -24.7527   26.5272 C   0  0  1  0  0  0  0  0  0  0  0  0
  -27.6308  -13.0749   19.7245 C   0  0  2  0  0  0  0  0  0  0  0  0
  -25.5359  -29.6444   28.7813 C   0  0  0  0  0  0  0  0  0  0  0  0
  -21.5330  -28.0898   23.7384 C   0  0  0  0  0  0  0  0  0  0  0  0
  -23.4988  -29.3802   24.5977 C   0  0  0  0  0  0  0  0  0  0  0  0
  -21.2353  -29.7620   25.5740 C   0  0  0  0  0  0  0  0  0  0  0  0
  -24.6876  -26.2867   30.3568 C   0  0  0  0  0  0  0  0  0  0  0  0
  -22.4658  -27.6167   26.0989 C   0  0  1  0  0  0  0  0  0  0  0  0
  -24.6685  -28.4302   29.0748 C   0  0  2  0  0  0  0  0  0  0  0  0
  -22.1826  -28.6838   25.0042 C   0  0  0  0  0  0  0  0  0  0  0  0
  -25.8069  -11.5302   20.3319 N   0  0  0  0  0  0  0  0  0  0  0  0
  -26.2076  -12.8034   20.1749 N   0  0  0  0  0  0  0  0  0  0  0  0
  -21.2162  -25.4929   26.3267 N   0  0  0  0  0  0  0  0  0  0  0  0
  -29.9472  -13.5351   20.4264 N   0  0  0  0  0  0  0  0  0  0  0  0
  -25.4746  -15.0492   20.3474 N   0  0  0  0  0  0  0  0  0  0  0  0
  -21.8281  -12.6682   21.5434 N   0  0  0  0  0  0  0  0  0  0  0  0
  -28.4857  -17.5042   22.9514 N   0  0  0  0  0  0  0  0  0  0  0  0
  -30.0738  -15.6424   21.4780 N   0  0  0  0  0  0  0  0  0  0  0  0
  -17.9346  -24.6333   25.2212 N   0  0  0  0  0  0  0  0  0  0  0  0
  -23.0560  -28.1551   27.3197 N   0  0  0  0  0  0  0  0  0  0  0  0
  -25.4307  -27.5130   29.9685 N   0  3  0  0  0  0  0  0  0  0  0  0
  -22.6445  -14.7864   21.2184 O   0  0  0  0  0  0  0  0  0  0  0  0
  -27.8422  -19.2226   24.4200 O   0  0  0  0  0  0  0  0  0  0  0  0
  -20.0133  -24.5190   24.1780 O   0  0  0  0  0  0  0  0  0  0  0  0
  -20.2802  -27.5143   27.0150 O   0  0  0  0  0  0  0  0  0  0  0  0
  -24.9719  -26.8495   27.2730 O   0  0  0  0  0  0  0  0  0  0  0  0
  -31.8594  -14.8214   20.2454 O   0  0  0  0  0  0  0  0  0  0  0  0
  -21.4592   -7.1155   21.8004 O   0  0  0  0  0  0  0  0  0  0  0  0
  -24.5013  -20.4259   25.0669 O   0  0  0  0  0  0  0  0  0  1  0  0
  -23.7692   -3.1100   24.8044 F   0  0  0  0  0  0  0  0  0  0  0  0
  -23.7526   -5.8369   20.9355 F   0  0  0  0  0  0  0  0  0  0  0  0
  1 35  2  0  0  0  0
  1 36  2  0  0  0  0
  2  3  1  0  0  0  0
  2  8  2  0  0  0  0
  3  9  2  0  0  0  0
  4  5  1  0  0  0  0
  4 11  2  0  0  0  0
  5 12  2  0  0  0  0
  6 13  2  0  0  0  0
  6 20  1  0  0  0  0
  7 14  1  0  0  0  0
  7 20  2  0  0  0  0
  8 22  1  0  0  0  0
  9 24  1  0  0  0  0
 10 15  2  0  0  0  0
 10 23  1  0  0  0  0
 11 26  1  0  0  0  0
 12 27  1  0  0  0  0
 13 28  1  0  0  0  0
 14 28  2  0  0  0  0
 15 29  1  0  0  0  0
 16 17  2  0  0  0  0
 16 30  1  0  0  0  0
 17 31  1  0  0  0  0
 18 25  1  0  0  0  0
 18 29  2  0  0  0  0
 19 31  2  0  0  0  0
 19 32  1  0  0  0  0
 20 33  1  0  0  0  0
 21 33  1  0  0  0  0
 21 34  2  0  0  0  0
 21 37  1  0  0  0  0
 22 24  2  0  0  0  0
 22 43  1  0  0  0  0
 23 25  2  0  0  0  0
 23 44  1  0  0  0  0
 24 52  1  0  0  0  0
 25 45  1  0  0  0  0
 26 27  2  0  0  0  0
 26 69  1  0  0  0  0
 27 70  1  0  0  0  0
 28 80  1  0  0  0  0
 29 81  1  0  0  0  0
 30 32  2  0  0  0  0
 30 80  1  0  0  0  0
 31 82  1  0  0  0  0
 32 83  1  0  0  0  0
 33 63  2  0  0  0  0
 34 64  1  0  0  0  0
 34 67  1  0  0  0  0
 35 38  1  0  0  0  0
 36 81  1  0  0  0  0
 37 68  1  0  0  0  0
 37 74  2  0  0  0  0
 38 69  1  0  0  0  0
 38 75  2  0  0  0  0
 39 53  1  0  0  0  0
 39 71  1  0  0  0  0
 39 76  2  0  0  0  0
 40 60  1  0  0  0  0
 40 65  1  0  0  0  0
 40 77  2  0  0  0  0
 41 61  1  0  0  0  0
 41 72  1  0  0  0  0
 41 78  2  0  0  0  0
 42 66  1  0  0  0  0
 42 70  1  0  0  0  0
 42 79  2  0  0  0  0
 43 46  1  0  0  0  0
 44 53  1  0  0  0  0
 45 65  1  0  0  0  0
 46 48  1  0  0  0  0
 47 49  1  0  0  0  0
 47 50  1  0  0  0  0
 48 52  1  0  0  0  0
 49 54  1  0  0  0  0
 50 66  1  0  0  0  0
 51 54  1  0  0  0  0
 51 66  1  0  0  0  0
 52 71  1  0  0  0  0
 53 65  1  0  0  0  0
 54 64  1  0  0  0  0
 55 61  1  0  0  0  0
 56 62  1  0  0  0  0
 57 62  1  0  0  0  0
 58 62  1  0  0  0  0
 59 73  1  0  0  0  0
 60 62  1  0  0  0  0
 60 72  1  0  0  0  0
 61 73  1  0  0  0  0
 63 64  1  0  0  0  0
M  CHG  1  73   1
M  ISO  4  36 101  42 100  70 100  81 101
M  END
> <Batch ID>
0062

> <Smiles>
CNC(C)C(=O)NC(C(=O)N1Cc2cc([101O:1][101CH:1]=C=CC(=O)Nc3ccccc3[100NH:0][100C:0](=O)N3CCCC(n4nc(-c5ccc(Oc6ccc(F)cc6F)cc5)c(C(N)=O)c4N)C3)ccc2CC1C(=O)NC1CCCc2ccccc21)C(C)(C)C

> <Shape>
0.187

> <Color>
0.198

> <Negative vol penalty>
0.000

$$$$

  -OEChem-04042323093D

 89 98  0     1  0  0  0  0  0999 V2000
  -30.1256  -11.0657   16.1259 C   0  0  0  0  0  0  0  0  0  0  0  0
  -29.2210  -12.0858   15.8492 C   0  0  0  0  0  0  0  0  0  0  0  0
  -18.9968  -20.6055   22.8891 C   0  0  0  0  0  0  0  0  0  0  0  0
  -19.8302  -21.7251   24.8612 C   0  0  0  0  0  0  0  0  0  0  0  0
  -30.3946  -10.7137   17.4479 C   0  0  0  0  0  0  0  0  0  0  0  0
  -28.5840  -12.7537   16.8945 C   0  0  0  0  0  0  0  0  0  0  0  0
  -29.2478  -19.8823   17.6910 C   0  0  0  0  0  0  0  0  0  0  0  0
  -18.5976  -19.5227   23.6725 C   0  0  0  0  0  0  0  0  0  0  0  0
  -19.4309  -20.6423   25.6446 C   0  0  0  0  0  0  0  0  0  0  0  0
  -29.1544  -21.2708   17.7876 C   0  0  0  0  0  0  0  0  0  0  0  0
  -17.6836  -16.3080   25.1057 C   0  0  0  0  0  0  0  0  0  0  0  0
  -17.9757  -15.0260   24.6400 C   0  0  0  0  0  0  0  0  0  0  0  0
  -27.8286  -21.0525   19.7982 C   0  0  0  0  0  0  0  0  0  0  0  0
  -27.1433  -29.1552   20.9153 C   0  0  0  0  0  0  0  0  0  0  0  0
  -25.9321  -27.6557   19.4588 C   0  0  0  0  0  0  0  0  0  0  0  0
  -20.3333  -15.5532   24.6672 C   0  0  0  0  0  0  0  0  0  0  0  0
  -19.6132  -21.7067   23.4834 C   0  0  0  0  0  0  0  0  0  0  0  0
  -24.7419  -29.3360   20.7224 C   0  0  0  0  0  0  0  0  0  0  0  0
  -20.9454  -22.8098   21.6084 C   0  0  0  0  0  0  0  0  0  0  0  0
  -29.7678  -11.3841   18.5101 C   0  0  0  0  0  0  0  0  0  0  0  0
  -28.6441  -19.0729   18.6574 C   0  0  0  0  0  0  0  0  0  0  0  0
  -28.8438  -12.4094   18.2319 C   0  0  0  0  0  0  0  0  0  0  0  0
  -27.9293  -19.6613   19.7136 C   0  0  0  0  0  0  0  0  0  0  0  0
  -25.9461  -29.7756   21.2722 C   0  0  0  0  0  0  0  0  0  0  0  0
  -27.1363  -28.0953   20.0085 C   0  0  0  0  0  0  0  0  0  0  0  0
  -18.8146  -19.5411   25.0503 C   0  0  0  0  0  0  0  0  0  0  0  0
  -28.4464  -21.8545   18.8385 C   0  0  0  0  0  0  0  0  0  0  0  0
  -18.7164  -17.2126   25.3520 C   0  0  0  0  0  0  0  0  0  0  0  0
  -19.3005  -14.6486   24.4208 C   0  0  0  0  0  0  0  0  0  0  0  0
  -24.7349  -28.2760   19.8157 C   0  0  0  0  0  0  0  0  0  0  0  0
  -20.0412  -16.8353   25.1328 C   0  0  0  0  0  0  0  0  0  0  0  0
  -20.0264  -22.8252   22.6746 C   0  0  0  0  0  0  0  0  0  0  0  0
  -20.9902  -24.1123   21.1748 C   0  0  0  0  0  0  0  0  0  0  0  0
  -29.5857  -28.1707   19.6276 C   0  0  0  0  0  0  0  0  0  0  0  0
  -23.4547  -29.9819   21.0870 C   0  0  0  0  0  0  0  0  0  0  0  0
  -21.6919  -21.7159   21.0590 C   0  0  0  0  0  0  0  0  0  0  0  0
  -27.9657  -15.5940   19.8873 C   0  0  0  0  0  0  0  0  0  0  0  0
  -28.5625  -17.3119   22.3577 C   0  0  0  0  0  0  0  0  0  0  0  0
  -29.5149  -18.4934   25.4129 C   0  0  0  0  0  0  0  0  0  0  0  0
  -21.2522  -29.5629   22.1343 C   0  0  0  0  0  0  0  0  0  0  0  0
  -30.0548  -10.9365   19.9215 C   0  0  0  0  0  0  0  0  0  0  0  0
  -28.6668  -17.5717   18.5592 C   0  0  0  0  0  0  0  0  0  0  0  0
  -27.2668  -18.7505   20.7109 C   0  0  0  0  0  0  0  0  0  0  0  0
  -30.8587  -27.3508   19.5346 C   0  0  0  0  0  0  0  0  0  0  0  0
  -29.6198  -11.9457   20.9809 C   0  0  0  0  0  0  0  0  0  0  0  0
  -30.7395  -26.1074   18.6809 C   0  0  0  0  0  0  0  0  0  0  0  0
  -18.0518  -28.0737   22.3271 C   0  0  0  0  0  0  0  0  0  0  0  0
  -28.2103  -12.4510   20.6901 C   0  0  0  0  0  0  0  0  0  0  0  0
  -18.3523  -26.5724   22.3392 C   0  0  0  0  0  0  0  0  0  0  0  0
  -19.0881  -28.8661   23.1228 C   0  0  0  0  0  0  0  0  0  0  0  0
  -28.2925  -26.0912   19.0749 C   0  0  0  0  0  0  0  0  0  0  0  0
  -20.7826  -27.1174   22.7641 C   0  0  0  0  0  0  0  0  0  0  0  0
  -28.1513  -13.1741   19.3391 C   0  0  1  0  0  0  0  0  0  0  0  0
  -28.7404  -16.8782   19.9315 C   0  0  1  0  0  0  0  0  0  0  0  0
  -29.5769  -25.2716   19.1904 C   0  0  1  0  0  0  0  0  0  0  0  0
  -19.8071  -26.2833   21.9181 C   0  0  1  0  0  0  0  0  0  0  0  0
  -25.9826  -30.9083   22.2457 C   0  0  0  0  0  0  0  0  0  0  0  0
  -29.1875  -18.0943   27.8687 C   0  0  0  0  0  0  0  0  0  0  0  0
  -25.8055  -18.6069   22.1969 C   0  0  0  0  0  0  0  0  0  0  0  0
  -25.9456  -19.0445   24.6580 C   0  0  0  0  0  0  0  0  0  0  0  0
  -25.9704  -16.6999   23.8065 C   0  0  0  0  0  0  0  0  0  0  0  0
  -32.3933  -17.9422   25.8252 C   0  0  0  0  0  0  0  0  0  0  0  0
  -29.4582  -23.9640   18.4102 C   0  0  0  0  0  0  0  0  0  1  0  0
  -28.0059  -18.1617   23.4719 C   0  0  1  0  0  0  0  0  0  0  0  0
  -30.0403  -17.7846   26.6482 C   0  0  2  0  0  0  0  0  0  0  0  0
  -26.4519  -18.1381   23.5157 C   0  0  0  0  0  0  0  0  0  0  0  0
  -19.5236  -24.0412   22.9045 N   0  0  0  0  0  0  0  0  0  0  0  0
  -20.1290  -24.8019   21.9767 N   0  0  0  0  0  0  0  0  0  0  0  0
  -28.3783  -27.4512   19.6376 N   0  0  0  0  0  0  0  0  0  0  0  0
  -28.1695  -17.6407   21.0547 N   0  0  0  0  0  0  0  0  0  0  0  0
  -20.4379  -28.5431   22.6570 N   0  0  0  0  0  0  0  0  0  0  0  0
  -21.6818  -24.7236   20.1897 N   0  0  0  0  0  0  0  0  0  0  0  0
  -22.9581  -21.4370   21.5911 N   0  0  0  0  0  0  0  0  0  0  0  0
  -22.5070  -29.1452   21.6771 N   0  0  0  0  0  0  0  0  0  0  0  0
  -28.7019  -14.5074   19.4549 N   0  0  0  0  0  0  0  0  0  0  0  0
  -28.6454  -17.6970   24.6981 N   0  0  0  0  0  0  0  0  0  0  0  0
  -31.4402  -18.2092   26.9330 N   0  3  0  0  0  0  0  0  0  0  0  0
  -29.6918  -29.3944   19.7469 O   0  0  0  0  0  0  0  0  0  0  0  0
  -23.3137  -31.1861   20.8926 O   0  0  0  0  0  0  0  0  0  0  0  0
  -21.2561  -21.0172   20.1127 O   0  0  0  0  0  0  0  0  0  0  0  0
  -26.7870  -15.5876   20.2223 O   0  0  0  0  0  0  0  0  0  0  0  0
  -29.3208  -16.3778   22.6328 O   0  0  0  0  0  0  0  0  0  0  0  0
  -29.8402  -19.6403   25.1141 O   0  0  0  0  0  0  0  0  0  0  0  0
  -20.8801  -30.7373   22.0467 O   0  0  0  0  0  0  0  0  0  0  0  0
  -18.4249  -18.4847   25.8150 O   0  0  0  0  0  0  0  0  0  0  0  0
  -28.3630  -23.2108   18.9293 O   0  0  0  0  0  0  0  0  0  1  0  0
  -19.5809  -13.4170   23.9751 F   0  0  0  0  0  0  0  0  0  0  0  0
  -23.5840  -27.8446   19.2801 F   0  0  0  0  0  0  0  0  0  0  0  0
  -21.0377  -17.6996   25.3688 F   0  0  0  0  0  0  0  0  0  0  0  0
  1  2  1  0  0  0  0
  1  5  2  0  0  0  0
  2  6  2  0  0  0  0
  3  8  2  0  0  0  0
  3 17  1  0  0  0  0
  4  9  1  0  0  0  0
  4 17  2  0  0  0  0
  5 20  1  0  0  0  0
  6 22  1  0  0  0  0
  7 10  2  0  0  0  0
  7 21  1  0  0  0  0
  8 26  1  0  0  0  0
  9 26  2  0  0  0  0
 10 27  1  0  0  0  0
 11 12  2  0  0  0  0
 11 28  1  0  0  0  0
 12 29  1  0  0  0  0
 13 23  1  0  0  0  0
 13 27  2  0  0  0  0
 14 24  2  0  0  0  0
 14 25  1  0  0  0  0
 15 25  2  0  0  0  0
 15 30  1  0  0  0  0
 16 29  2  0  0  0  0
 16 31  1  0  0  0  0
 17 32  1  0  0  0  0
 18 24  1  0  0  0  0
 18 30  2  0  0  0  0
 18 35  1  0  0  0  0
 19 32  1  0  0  0  0
 19 33  2  0  0  0  0
 19 36  1  0  0  0  0
 20 22  2  0  0  0  0
 20 41  1  0  0  0  0
 21 23  2  0  0  0  0
 21 42  1  0  0  0  0
 22 53  1  0  0  0  0
 23 43  1  0  0  0  0
 24 57  1  0  0  0  0
 25 69  1  0  0  0  0
 26 85  1  0  0  0  0
 27 86  1  0  0  0  0
 28 31  2  0  0  0  0
 28 85  1  0  0  0  0
 29 87  1  0  0  0  0
 30 88  1  0  0  0  0
 31 89  1  0  0  0  0
 32 67  2  0  0  0  0
 33 68  1  0  0  0  0
 33 72  1  0  0  0  0
 34 44  1  0  0  0  0
 34 69  1  0  0  0  0
 34 78  2  0  0  0  0
 35 74  1  0  0  0  0
 35 79  2  0  0  0  0
 36 73  1  0  0  0  0
 36 80  2  0  0  0  0
 37 54  1  0  0  0  0
 37 75  1  0  0  0  0
 37 81  2  0  0  0  0
 38 64  1  0  0  0  0
 38 70  1  0  0  0  0
 38 82  2  0  0  0  0
 39 65  1  0  0  0  0
 39 76  1  0  0  0  0
 39 83  2  0  0  0  0
 40 71  1  0  0  0  0
 40 74  1  0  0  0  0
 40 84  2  0  0  0  0
 41 45  1  0  0  0  0
 42 54  1  0  0  0  0
 43 70  1  0  0  0  0
 44 46  1  0  0  0  0
 45 48  1  0  0  0  0
 46 55  1  0  0  0  0
 47 49  1  0  0  0  0
 47 50  1  0  0  0  0
 48 53  1  0  0  0  0
 49 56  1  0  0  0  0
 50 71  1  0  0  0  0
 51 55  1  0  0  0  0
 51 69  1  0  0  0  0
 52 56  1  0  0  0  0
 52 71  1  0  0  0  0
 53 75  1  0  0  0  0
 54 70  1  0  0  0  0
 55 63  1  0  0  0  0
 56 68  1  0  0  0  0
 58 65  1  0  0  0  0
 59 66  1  0  0  0  0
 60 66  1  0  0  0  0
 61 66  1  0  0  0  0
 62 77  1  0  0  0  0
 63 86  1  0  0  0  0
 64 66  1  0  0  0  0
 64 76  1  0  0  0  0
 65 77  1  0  0  0  0
 67 68  1  0  0  0  0
M  CHG  1  77   1
M  ISO  4  40 100  63 101  74 100  86 101
M  END
> <Batch ID>
0062

> <Smiles>
CNC(C)C(=O)NC(C(=O)N1Cc2cc([101O:1][101CH2:1]C3CCC(=O)N(c4cc(C)c(C(=O)[100NH:0][100C:0](=O)N5CCCC(n6nc(-c7ccc(Oc8ccc(F)cc8F)cc7)c(C(N)=O)c6N)C5)c(F)c4)C3)ccc2CC1C(=O)NC1CCCc2ccccc21)C(C)(C)C

> <Shape>
0.254

> <Color>
0.062

> <Negative vol penalty>
0.000

$$$$

  -OEChem-04042323093D

 87 95  0     1  0  0  0  0  0999 V2000
  -18.2504  -30.8710   23.6847 C   0  0  0  0  0  0  0  0  0  0  0  0
  -19.6398  -30.9137   23.6283 C   0  0  0  0  0  0  0  0  0  0  0  0
  -27.3513  -17.4245   19.7732 C   0  0  0  0  0  0  0  0  0  0  0  0
  -28.5029  -17.6169   21.8884 C   0  0  0  0  0  0  0  0  0  0  0  0
  -17.5772  -29.6899   23.3753 C   0  0  0  0  0  0  0  0  0  0  0  0
  -20.3569  -29.7747   23.2636 C   0  0  0  0  0  0  0  0  0  0  0  0
  -25.5724  -29.5775   20.0596 C   0  0  0  0  0  0  0  0  0  0  0  0
  -33.2841  -24.1792   23.9436 C   0  0  0  0  0  0  0  0  0  0  0  0
  -27.3053  -16.0386   19.9243 C   0  0  0  0  0  0  0  0  0  0  0  0
  -28.4568  -16.2311   22.0396 C   0  0  0  0  0  0  0  0  0  0  0  0
  -26.9062  -29.4526   20.4456 C   0  0  0  0  0  0  0  0  0  0  0  0
  -25.4669  -13.7800   21.6424 C   0  0  0  0  0  0  0  0  0  0  0  0
  -32.7614  -24.9052   25.0138 C   0  0  0  0  0  0  0  0  0  0  0  0
  -24.2615  -13.1370   21.3614 C   0  0  0  0  0  0  0  0  0  0  0  0
  -26.7899  -27.0747   20.0565 C   0  0  0  0  0  0  0  0  0  0  0  0
  -25.3558  -11.8355   19.6451 C   0  0  0  0  0  0  0  0  0  0  0  0
  -27.9502  -18.2137   20.7552 C   0  0  0  0  0  0  0  0  0  0  0  0
  -27.0413  -20.5807   21.0356 C   0  0  0  0  0  0  0  0  0  0  0  0
  -18.2860  -28.5387   22.9972 C   0  0  0  0  0  0  0  0  0  0  0  0
  -24.8329  -28.4484   19.6789 C   0  0  0  0  0  0  0  0  0  0  0  0
  -19.6927  -28.5767   22.9502 C   0  0  0  0  0  0  0  0  0  0  0  0
  -25.4476  -27.1883   19.6636 C   0  0  0  0  0  0  0  0  0  0  0  0
  -33.7825  -24.8470   22.8250 C   0  0  0  0  0  0  0  0  0  0  0  0
  -33.2352  -26.9668   23.8465 C   0  0  0  0  0  0  0  0  0  0  0  0
  -33.7580  -26.2408   22.7764 C   0  0  0  0  0  0  0  0  0  0  0  0
  -27.8580  -15.4419   21.0575 C   0  0  0  0  0  0  0  0  0  0  0  0
  -27.5144  -28.2007   20.4469 C   0  0  0  0  0  0  0  0  0  0  0  0
  -26.6168  -13.4509   20.9247 C   0  0  0  0  0  0  0  0  0  0  0  0
  -24.2059  -12.1647   20.3628 C   0  0  0  0  0  0  0  0  0  0  0  0
  -32.7369  -26.2990   24.9652 C   0  0  0  0  0  0  0  0  0  0  0  0
  -26.5613  -12.4786   19.9261 C   0  0  0  0  0  0  0  0  0  0  0  0
  -27.9986  -19.6453   20.5993 C   0  0  0  0  0  0  0  0  0  0  0  0
  -27.5490  -21.7971   20.6495 C   0  0  0  0  0  0  0  0  0  0  0  0
  -32.0018  -26.7654   20.7080 C   0  0  0  0  0  0  0  0  0  0  0  0
  -30.9976  -27.4406   20.1323 C   0  0  0  0  0  0  0  0  0  0  0  0
  -25.8038  -20.3690   21.7281 C   0  0  0  0  0  0  0  0  0  0  0  0
  -33.4115  -27.2281   20.5398 C   0  0  0  0  0  0  0  0  0  0  0  0
  -22.2335  -26.9918   20.7857 C   0  0  0  0  0  0  0  0  0  0  0  0
  -22.5805  -25.1882   18.1119 C   0  0  0  0  0  0  0  0  0  0  0  0
  -24.6473  -23.9829   15.6783 C   0  0  0  0  0  0  0  0  0  0  0  0
  -33.1086  -23.7346   19.5597 C   0  0  0  0  0  0  0  0  0  0  0  0
  -17.5169  -27.2717   22.7177 C   0  0  0  0  0  0  0  0  0  0  0  0
  -23.4028  -28.6037   19.2395 C   0  0  0  0  0  0  0  0  0  0  0  0
  -24.7034  -25.9479   19.2441 C   0  0  0  0  0  0  0  0  0  0  0  0
  -18.3325  -26.2149   21.9773 C   0  0  0  0  0  0  0  0  0  0  0  0
  -30.3403  -23.8037   17.3218 C   0  0  0  0  0  0  0  0  0  0  0  0
  -19.7097  -26.0602   22.6146 C   0  0  0  0  0  0  0  0  0  0  0  0
  -29.3398  -22.8302   17.9474 C   0  0  0  0  0  0  0  0  0  0  0  0
  -31.7802  -23.3305   17.5082 C   0  0  0  0  0  0  0  0  0  0  0  0
  -31.1593  -22.0626   19.5283 C   0  0  0  0  0  0  0  0  0  0  0  0
  -20.5046  -27.3691   22.5348 C   0  0  1  0  0  0  0  0  0  0  0  0
  -22.5962  -27.3147   19.3638 C   0  0  1  0  0  0  0  0  0  0  0  0
  -29.6966  -22.5253   19.4147 C   0  0  2  0  0  0  0  0  0  0  0  0
  -33.1968  -28.4608   23.8195 C   0  0  0  0  0  0  0  0  0  0  0  0
  -24.6509  -22.5024   13.6521 C   0  0  0  0  0  0  0  0  0  0  0  0
  -22.5018  -22.7267   19.9133 C   0  0  0  0  0  0  0  0  0  0  0  0
  -23.4438  -21.3935   18.0150 C   0  0  0  0  0  0  0  0  0  0  0  0
  -21.2199  -22.4983   17.7782 C   0  0  0  0  0  0  0  0  0  0  0  0
  -35.6992  -27.3199   21.5781 C   0  0  0  0  0  0  0  0  0  0  0  0
  -25.4842  -26.2056   13.9125 C   0  0  0  0  0  0  0  0  0  0  0  0
  -34.3362  -24.0410   21.6947 C   0  0  0  0  0  0  0  0  0  0  0  0
  -29.5667  -27.0195   20.2267 C   0  0  0  0  0  0  0  0  0  1  0  0
  -23.3144  -23.9142   17.7695 C   0  0  1  0  0  0  0  0  0  0  0  0
  -24.4991  -23.9246   14.1687 C   0  0  2  0  0  0  0  0  0  0  0  0
  -22.6337  -22.6561   18.3788 C   0  0  0  0  0  0  0  0  0  0  0  0
  -29.0359  -20.2182   19.9831 N   0  0  0  0  0  0  0  0  0  0  0  0
  -28.7332  -21.5268   20.0292 N   0  0  0  0  0  0  0  0  0  0  0  0
  -23.3054  -26.1505   18.8291 N   0  0  0  0  0  0  0  0  0  0  0  0
  -32.0544  -23.0604   18.9217 N   0  0  0  0  0  0  0  0  0  0  0  0
  -27.0935  -23.0608   20.7833 N   0  0  0  0  0  0  0  0  0  0  0  0
  -25.4335  -19.0558   22.0483 N   0  0  0  0  0  0  0  0  0  0  0  0
  -21.0423  -27.5536   21.2039 N   0  0  0  0  0  0  0  0  0  0  0  0
  -23.4282  -23.8868   16.3153 N   0  0  0  0  0  0  0  0  0  0  0  0
  -33.2963  -23.4249   20.9012 N   0  0  0  0  0  0  0  0  0  0  0  0
  -34.2782  -26.9360   21.6120 N   0  0  0  0  0  0  0  0  0  0  0  0
  -25.5325  -24.7754   13.5135 N   0  3  0  0  0  0  0  0  0  0  0  0
  -25.0409  -21.3151   22.0387 O   0  0  0  0  0  0  0  0  0  0  0  0
  -33.7265  -27.8097   19.5013 O   0  0  0  0  0  0  0  0  0  0  0  0
  -22.9784  -26.2840   21.4534 O   0  0  0  0  0  0  0  0  0  0  0  0
  -21.4095  -25.3275   17.7500 O   0  0  0  0  0  0  0  0  0  0  0  0
  -25.7361  -24.0980   16.2368 O   0  0  0  0  0  0  0  0  0  0  0  0
  -33.8259  -24.5559   18.9784 O   0  0  0  0  0  0  0  0  0  0  0  0
  -27.8130  -14.0896   21.2055 O   0  0  0  0  0  0  0  0  0  0  0  0
  -28.8160  -28.0759   20.8239 O   0  0  0  0  0  0  0  0  0  1  0  0
  -23.0486  -11.5462   20.0941 F   0  0  0  0  0  0  0  0  0  0  0  0
  -32.2326  -26.9870   25.9992 F   0  0  0  0  0  0  0  0  0  0  0  0
  -27.6630  -12.1573   19.2341 F   0  0  0  0  0  0  0  0  0  0  0  0
  1  2  1  0  0  0  0
  1  5  2  0  0  0  0
  2  6  2  0  0  0  0
  3  9  2  0  0  0  0
  3 17  1  0  0  0  0
  4 10  1  0  0  0  0
  4 17  2  0  0  0  0
  5 19  1  0  0  0  0
  6 21  1  0  0  0  0
  7 11  2  0  0  0  0
  7 20  1  0  0  0  0
  8 13  1  0  0  0  0
  8 23  2  0  0  0  0
  9 26  1  0  0  0  0
 10 26  2  0  0  0  0
 11 27  1  0  0  0  0
 12 14  2  0  0  0  0
 12 28  1  0  0  0  0
 13 30  2  0  0  0  0
 14 29  1  0  0  0  0
 15 22  1  0  0  0  0
 15 27  2  0  0  0  0
 16 29  2  0  0  0  0
 16 31  1  0  0  0  0
 17 32  1  0  0  0  0
 18 32  1  0  0  0  0
 18 33  2  0  0  0  0
 18 36  1  0  0  0  0
 19 21  2  0  0  0  0
 19 42  1  0  0  0  0
 20 22  2  0  0  0  0
 20 43  1  0  0  0  0
 21 51  1  0  0  0  0
 22 44  1  0  0  0  0
 23 25  1  0  0  0  0
 23 61  1  0  0  0  0
 24 25  2  0  0  0  0
 24 30  1  0  0  0  0
 24 54  1  0  0  0  0
 25 75  1  0  0  0  0
 26 83  1  0  0  0  0
 27 84  1  0  0  0  0
 28 31  2  0  0  0  0
 28 83  1  0  0  0  0
 29 85  1  0  0  0  0
 30 86  1  0  0  0  0
 31 87  1  0  0  0  0
 32 66  2  0  0  0  0
 33 67  1  0  0  0  0
 33 70  1  0  0  0  0
 34 35  2  0  0  0  0
 34 37  1  0  0  0  0
 35 62  1  0  0  0  0
 36 71  1  0  0  0  0
 36 77  2  0  0  0  0
 37 75  1  0  0  0  0
 37 78  2  0  0  0  0
 38 52  1  0  0  0  0
 38 72  1  0  0  0  0
 38 79  2  0  0  0  0
 39 63  1  0  0  0  0
 39 68  1  0  0  0  0
 39 80  2  0  0  0  0
 40 64  1  0  0  0  0
 40 73  1  0  0  0  0
 40 81  2  0  0  0  0
 41 69  1  0  0  0  0
 41 74  1  0  0  0  0
 41 82  2  0  0  0  0
 42 45  1  0  0  0  0
 43 52  1  0  0  0  0
 44 68  1  0  0  0  0
 45 47  1  0  0  0  0
 46 48  1  0  0  0  0
 46 49  1  0  0  0  0
 47 51  1  0  0  0  0
 48 53  1  0  0  0  0
 49 69  1  0  0  0  0
 50 53  1  0  0  0  0
 50 69  1  0  0  0  0
 51 72  1  0  0  0  0
 52 68  1  0  0  0  0
 53 67  1  0  0  0  0
 55 64  1  0  0  0  0
 56 65  1  0  0  0  0
 57 65  1  0  0  0  0
 58 65  1  0  0  0  0
 59 75  1  0  0  0  0
 60 76  1  0  0  0  0
 61 74  1  0  0  0  0
 62 84  1  0  0  0  0
 63 65  1  0  0  0  0
 63 73  1  0  0  0  0
 64 76  1  0  0  0  0
 66 67  1  0  0  0  0
M  CHG  1  76   1
M  ISO  4  41 100  62 101  74 100  84 101
M  END
> <Batch ID>
0062

> <Smiles>
CNC(C)C(=O)NC(C(=O)N1Cc2cc([101O:1][101CH2:1]C=CC(=O)N(C)c3c(C[100NH:0][100C:0](=O)N4CCCC(n5nc(-c6ccc(Oc7ccc(F)cc7F)cc6)c(C(N)=O)c5N)C4)ccc(F)c3C)ccc2CC1C(=O)NC1CCCc2ccccc21)C(C)(C)C

> <Shape>
0.242

> <Color>
0.077

> <Negative vol penalty>
0.000

$$$$

  -OEChem-04042323093D

 84 92  0     1  0  0  0  0  0999 V2000
  -21.7792  -19.8370   36.1561 C   0  0  0  0  0  0  0  0  0  0  0  0
  -22.6728  -19.4431   35.1653 C   0  0  0  0  0  0  0  0  0  0  0  0
  -23.0753   -9.8683   19.9406 C   0  0  0  0  0  0  0  0  0  0  0  0
  -23.8349   -9.8746   22.2341 C   0  0  0  0  0  0  0  0  0  0  0  0
  -20.4625  -19.3793   36.1277 C   0  0  0  0  0  0  0  0  0  0  0  0
  -22.2505  -18.5903   34.1461 C   0  0  0  0  0  0  0  0  0  0  0  0
  -23.8377  -20.0887   29.5766 C   0  0  0  0  0  0  0  0  0  0  0  0
  -22.3311   -8.7154   20.1902 C   0  0  0  0  0  0  0  0  0  0  0  0
  -23.0906   -8.7217   22.4838 C   0  0  0  0  0  0  0  0  0  0  0  0
  -25.1642  -19.8186   29.2432 C   0  0  0  0  0  0  0  0  0  0  0  0
  -19.8621   -7.9247   23.0857 C   0  0  0  0  0  0  0  0  0  0  0  0
  -19.1050   -7.8848   24.2564 C   0  0  0  0  0  0  0  0  0  0  0  0
  -31.9012  -18.3362   24.1924 C   0  0  0  0  0  0  0  0  0  0  0  0
  -24.4458  -17.9074   27.9585 C   0  0  0  0  0  0  0  0  0  0  0  0
  -32.0662  -16.5874   22.5337 C   0  0  0  0  0  0  0  0  0  0  0  0
  -20.3457   -5.9468   24.9927 C   0  0  0  0  0  0  0  0  0  0  0  0
  -23.8273  -10.4479   20.9626 C   0  0  0  0  0  0  0  0  0  0  0  0
  -30.5134  -18.3380   24.0524 C   0  0  0  0  0  0  0  0  0  0  0  0
  -24.1699  -12.9730   20.8431 C   0  0  0  0  0  0  0  0  0  0  0  0
  -20.0213  -18.5281   35.1023 C   0  0  0  0  0  0  0  0  0  0  0  0
  -22.8045  -19.2624   29.1117 C   0  0  0  0  0  0  0  0  0  0  0  0
  -20.9271  -18.1196   34.1047 C   0  0  0  0  0  0  0  0  0  0  0  0
  -23.1068  -18.1706   28.2854 C   0  0  0  0  0  0  0  0  0  0  0  0
  -30.6784  -16.5891   22.3938 C   0  0  0  0  0  0  0  0  0  0  0  0
  -29.9020  -17.4645   23.1532 C   0  0  0  0  0  0  0  0  0  0  0  0
  -22.3387   -8.1420   21.4618 C   0  0  0  0  0  0  0  0  0  0  0  0
  -25.4687  -18.7261   28.4364 C   0  0  0  0  0  0  0  0  0  0  0  0
  -20.8610   -6.9756   22.8683 C   0  0  0  0  0  0  0  0  0  0  0  0
  -19.3468   -6.8959   25.2100 C   0  0  0  0  0  0  0  0  0  0  0  0
  -32.6776  -17.4609   23.4330 C   0  0  0  0  0  0  0  0  0  0  0  0
  -21.1028   -5.9867   23.8218 C   0  0  0  0  0  0  0  0  0  0  0  0
  -24.5968  -11.6386   20.7052 C   0  0  0  0  0  0  0  0  0  0  0  0
  -25.2623  -13.7222   20.4801 C   0  0  0  0  0  0  0  0  0  0  0  0
  -28.3361  -18.2856   26.3593 C   0  0  0  0  0  0  0  0  0  0  0  0
  -29.7163  -19.2873   24.8774 C   0  0  0  0  0  0  0  0  0  0  0  0
  -22.8995  -13.4891   21.2619 C   0  0  0  0  0  0  0  0  0  0  0  0
  -20.6198  -17.4111   30.4914 C   0  0  0  0  0  0  0  0  0  0  0  0
  -19.5322  -17.0959   27.4516 C   0  0  0  0  0  0  0  0  0  0  0  0
  -20.2009  -17.2230   24.1075 C   0  0  0  0  0  0  0  0  0  0  0  0
  -30.7288  -14.7661   20.6558 C   0  0  0  0  0  0  0  0  0  0  0  0
  -18.6013  -18.0215   35.1401 C   0  0  0  0  0  0  0  0  0  0  0  0
  -21.3764  -19.5829   29.4584 C   0  0  0  0  0  0  0  0  0  0  0  0
  -22.0325  -17.2646   27.7438 C   0  0  0  0  0  0  0  0  0  0  0  0
  -18.1337  -17.4201   33.8172 C   0  0  0  0  0  0  0  0  0  0  0  0
  -29.6140  -12.3531   18.2869 C   0  0  0  0  0  0  0  0  0  0  0  0
  -19.1904  -16.4723   33.2586 C   0  0  0  0  0  0  0  0  0  0  0  0
  -28.1742  -12.0619   18.7162 C   0  0  0  0  0  0  0  0  0  0  0  0
  -30.5290  -12.5814   19.4887 C   0  0  0  0  0  0  0  0  0  0  0  0
  -28.6221  -13.3062   20.8698 C   0  0  0  0  0  0  0  0  0  0  0  0
  -20.5001  -17.2154   32.9689 C   0  0  1  0  0  0  0  0  0  0  0  0
  -20.4502  -18.3754   29.3516 C   0  0  1  0  0  0  0  0  0  0  0  0
  -27.6494  -13.1334   19.6918 C   0  0  2  0  0  0  0  0  0  0  0  0
  -19.1213  -16.8796   21.8683 C   0  0  0  0  0  0  0  0  0  0  0  0
  -19.6915  -14.0739   27.8410 C   0  0  0  0  0  0  0  0  0  0  0  0
  -19.5344  -13.8155   25.3557 C   0  0  0  0  0  0  0  0  0  0  0  0
  -17.6563  -14.8625   26.6202 C   0  0  0  0  0  0  0  0  0  0  0  0
  -20.6908  -20.0310   23.3111 C   0  0  0  0  0  0  0  0  0  0  0  0
  -26.9983  -17.8255   26.8536 C   0  0  0  0  0  0  0  0  0  1  0  0
  -19.8105  -16.1490   26.3094 C   0  0  1  0  0  0  0  0  0  0  0  0
  -19.4635  -17.8845   22.9572 C   0  0  2  0  0  0  0  0  0  0  0  0
  -19.1938  -14.7410   26.5432 C   0  0  0  0  0  0  0  0  0  0  0  0
  -25.8617  -11.5425   20.2870 N   0  0  0  0  0  0  0  0  0  0  0  0
  -28.4411  -18.9268   25.2407 N   0  0  0  0  0  0  0  0  0  0  0  0
  -26.2390  -12.8260   20.1590 N   0  0  0  0  0  0  0  0  0  0  0  0
  -20.6520  -17.6158   28.1160 N   0  0  0  0  0  0  0  0  0  0  0  0
  -29.9702  -13.6122   20.3662 N   0  0  0  0  0  0  0  0  0  0  0  0
  -28.4935  -17.4685   23.0112 N   0  0  0  0  0  0  0  0  0  0  0  0
  -25.4732  -15.0536   20.4074 N   0  0  0  0  0  0  0  0  0  0  0  0
  -21.8873  -12.5802   21.5989 N   0  0  0  0  0  0  0  0  0  0  0  0
  -30.0816  -15.6912   21.4743 N   0  0  0  0  0  0  0  0  0  0  0  0
  -20.3933  -17.9663   31.7363 N   0  0  0  0  0  0  0  0  0  0  0  0
  -19.3364  -16.8158   25.1015 N   0  0  0  0  0  0  0  0  0  0  0  0
  -30.1623  -20.4425   25.2253 N   0  3  0  0  0  0  0  0  0  0  0  0
  -20.3002  -18.9616   22.3566 N   0  3  0  0  0  0  0  0  0  0  0  0
  -22.6636  -14.7198   21.3195 O   0  0  0  0  0  0  0  0  0  0  0  0
  -20.9316  -16.2492   30.2584 O   0  0  0  0  0  0  0  0  0  0  0  0
  -18.3643  -17.3701   27.7390 O   0  0  0  0  0  0  0  0  0  0  0  0
  -21.4213  -17.0783   24.1210 O   0  0  0  0  0  0  0  0  0  0  0  0
  -31.8580  -14.9346   20.1884 O   0  0  0  0  0  0  0  0  0  0  0  0
  -21.6123   -7.0171   21.7058 O   0  0  0  0  0  0  0  0  0  0  0  0
  -26.7627  -18.4598   28.1100 O   0  0  0  0  0  0  0  0  0  1  0  0
  -18.6206   -6.8586   26.3349 F   0  0  0  0  0  0  0  0  0  0  0  0
  -34.0103  -17.4582   23.5673 F   0  0  0  0  0  0  0  0  0  0  0  0
  -22.0618   -5.0730   23.6192 F   0  0  0  0  0  0  0  0  0  0  0  0
  1  2  1  0  0  0  0
  1  5  2  0  0  0  0
  2  6  2  0  0  0  0
  3  8  2  0  0  0  0
  3 17  1  0  0  0  0
  4  9  1  0  0  0  0
  4 17  2  0  0  0  0
  5 20  1  0  0  0  0
  6 22  1  0  0  0  0
  7 10  2  0  0  0  0
  7 21  1  0  0  0  0
  8 26  1  0  0  0  0
  9 26  2  0  0  0  0
 10 27  1  0  0  0  0
 11 12  2  0  0  0  0
 11 28  1  0  0  0  0
 12 29  1  0  0  0  0
 13 18  1  0  0  0  0
 13 30  2  0  0  0  0
 14 23  1  0  0  0  0
 14 27  2  0  0  0  0
 15 24  2  0  0  0  0
 15 30  1  0  0  0  0
 16 29  2  0  0  0  0
 16 31  1  0  0  0  0
 17 32  1  0  0  0  0
 18 25  2  0  0  0  0
 18 35  1  0  0  0  0
 19 32  1  0  0  0  0
 19 33  2  0  0  0  0
 19 36  1  0  0  0  0
 20 22  2  0  0  0  0
 20 41  1  0  0  0  0
 21 23  2  0  0  0  0
 21 42  1  0  0  0  0
 22 50  1  0  0  0  0
 23 43  1  0  0  0  0
 24 25  1  0  0  0  0
 24 70  1  0  0  0  0
 25 67  1  0  0  0  0
 26 80  1  0  0  0  0
 27 81  1  0  0  0  0
 28 31  2  0  0  0  0
 28 80  1  0  0  0  0
 29 82  1  0  0  0  0
 30 83  1  0  0  0  0
 31 84  1  0  0  0  0
 32 62  2  0  0  0  0
 33 64  1  0  0  0  0
 33 68  1  0  0  0  0
 34 58  1  0  0  0  0
 34 63  2  0  0  0  0
 35 63  1  0  0  0  0
 35 73  2  0  0  0  0
 36 69  1  0  0  0  0
 36 75  2  0  0  0  0
 37 51  1  0  0  0  0
 37 71  1  0  0  0  0
 37 76  2  0  0  0  0
 38 59  1  0  0  0  0
 38 65  1  0  0  0  0
 38 77  2  0  0  0  0
 39 60  1  0  0  0  0
 39 72  1  0  0  0  0
 39 78  2  0  0  0  0
 40 66  1  0  0  0  0
 40 70  1  0  0  0  0
 40 79  2  0  0  0  0
 41 44  1  0  0  0  0
 42 51  1  0  0  0  0
 43 65  1  0  0  0  0
 44 46  1  0  0  0  0
 45 47  1  0  0  0  0
 45 48  1  0  0  0  0
 46 50  1  0  0  0  0
 47 52  1  0  0  0  0
 48 66  1  0  0  0  0
 49 52  1  0  0  0  0
 49 66  1  0  0  0  0
 50 71  1  0  0  0  0
 51 65  1  0  0  0  0
 52 64  1  0  0  0  0
 53 60  1  0  0  0  0
 54 61  1  0  0  0  0
 55 61  1  0  0  0  0
 56 61  1  0  0  0  0
 57 74  1  0  0  0  0
 58 81  1  0  0  0  0
 59 61  1  0  0  0  0
 59 72  1  0  0  0  0
 60 74  1  0  0  0  0
 62 64  1  0  0  0  0
M  CHG  2  73   1  74   1
M  ISO  4  40 100  58 101  70 100  81 101
M  END
> <Batch ID>
0062

> <Smiles>
CNC(C)C(=O)NC(C(=O)N1Cc2cc([101O:1][101CH:1]=CNC(=N)c3cc(F)cc([100NH:0][100C:0](=O)N4CCCC(n5nc(-c6ccc(Oc7ccc(F)cc7F)cc6)c(C(N)=O)c5N)C4)c3N)ccc2CC1C(=O)NC1CCCc2ccccc21)C(C)(C)C

> <Shape>
0.167

> <Color>
0.180

> <Negative vol penalty>
0.000

$$$$

  -OEChem-04042323093D

 87 95  0     1  0  0  0  0  0999 V2000
  -18.9276  -24.1138   23.9698 C   0  0  0  0  0  0  0  0  0  0  0  0
  -20.1637  -23.9847   23.3447 C   0  0  0  0  0  0  0  0  0  0  0  0
  -21.1361  -15.1047   22.3762 C   0  0  0  0  0  0  0  0  0  0  0  0
  -21.1940  -15.9764   20.1237 C   0  0  0  0  0  0  0  0  0  0  0  0
  -18.2676  -25.3419   23.9599 C   0  0  0  0  0  0  0  0  0  0  0  0
  -20.7400  -25.0834   22.7083 C   0  0  0  0  0  0  0  0  0  0  0  0
  -26.7054  -26.4245   22.3599 C   0  0  0  0  0  0  0  0  0  0  0  0
  -28.2708  -20.0698   16.0059 C   0  0  0  0  0  0  0  0  0  0  0  0
  -28.0089  -19.0435   16.9136 C   0  0  0  0  0  0  0  0  0  0  0  0
  -19.8502  -15.6190   22.5422 C   0  0  0  0  0  0  0  0  0  0  0  0
  -19.9081  -16.4907   20.2897 C   0  0  0  0  0  0  0  0  0  0  0  0
  -27.6562  -26.2191   21.3611 C   0  0  0  0  0  0  0  0  0  0  0  0
  -18.4675  -19.1682   21.7684 C   0  0  0  0  0  0  0  0  0  0  0  0
  -18.2292  -20.4710   21.3310 C   0  0  0  0  0  0  0  0  0  0  0  0
  -29.6107  -19.9952   18.4517 C   0  0  0  0  0  0  0  0  0  0  0  0
  -27.2905  -28.4648   20.5596 C   0  0  0  0  0  0  0  0  0  0  0  0
  -16.5440  -19.6509   19.8062 C   0  0  0  0  0  0  0  0  0  0  0  0
  -21.8080  -15.2834   21.1670 C   0  0  0  0  0  0  0  0  0  0  0  0
  -29.8726  -21.0214   17.5440 C   0  0  0  0  0  0  0  0  0  0  0  0
  -23.4869  -13.4783   20.5107 C   0  0  0  0  0  0  0  0  0  0  0  0
  -18.8406  -26.4587   23.3314 C   0  0  0  0  0  0  0  0  0  0  0  0
  -26.0310  -27.6499   22.4594 C   0  0  0  0  0  0  0  0  0  0  0  0
  -20.0865  -26.3273   22.6888 C   0  0  0  0  0  0  0  0  0  0  0  0
  -26.3334  -28.6841   21.5621 C   0  0  0  0  0  0  0  0  0  0  0  0
  -29.2027  -21.0587   16.3211 C   0  0  0  0  0  0  0  0  0  0  0  0
  -28.6788  -19.0063   18.1365 C   0  0  0  0  0  0  0  0  0  0  0  0
  -19.2362  -16.3120   21.4990 C   0  0  0  0  0  0  0  0  0  0  0  0
  -27.9468  -27.2383   20.4590 C   0  0  0  0  0  0  0  0  0  0  0  0
  -17.7441  -18.1066   21.2247 C   0  0  0  0  0  0  0  0  0  0  0  0
  -17.2674  -20.7124   20.3499 C   0  0  0  0  0  0  0  0  0  0  0  0
  -16.7824  -18.3480   20.2436 C   0  0  0  0  0  0  0  0  0  0  0  0
  -23.1366  -14.7528   20.9951 C   0  0  0  0  0  0  0  0  0  0  0  0
  -24.8600  -13.4653   20.5401 C   0  0  0  0  0  0  0  0  0  0  0  0
  -30.8625  -22.0588   17.8967 C   0  0  0  0  0  0  0  0  0  0  0  0
  -22.6462  -12.4024   20.0732 C   0  0  0  0  0  0  0  0  0  0  0  0
  -22.9941  -28.5631   22.2422 C   0  0  0  0  0  0  0  0  0  0  0  0
  -29.9172  -26.0257   16.9560 C   0  0  0  0  0  0  0  0  0  0  0  0
  -24.2000  -31.4363   23.1438 C   0  0  0  0  0  0  0  0  0  0  0  0
  -26.8940  -33.5249   23.3087 C   0  0  0  0  0  0  0  0  0  0  0  0
  -28.9890  -17.7787   20.3144 C   0  0  0  0  0  0  0  0  0  0  0  0
  -18.0676  -27.7535   23.3060 C   0  0  0  0  0  0  0  0  0  0  0  0
  -25.0274  -27.8647   23.5590 C   0  0  0  0  0  0  0  0  0  0  0  0
  -25.6521  -30.0251   21.6388 C   0  0  0  0  0  0  0  0  0  0  0  0
  -18.9193  -28.9641   22.9328 C   0  0  0  0  0  0  0  0  0  0  0  0
  -28.5734  -15.3618   22.8956 C   0  0  0  0  0  0  0  0  0  0  0  0
  -19.7852  -28.6529   21.7161 C   0  0  0  0  0  0  0  0  0  0  0  0
  -27.1662  -14.8110   22.6534 C   0  0  0  0  0  0  0  0  0  0  0  0
  -28.6558  -16.8579   22.5982 C   0  0  0  0  0  0  0  0  0  0  0  0
  -26.7639  -16.7038   21.0278 C   0  0  0  0  0  0  0  0  0  0  0  0
  -20.7555  -27.5023   22.0093 C   0  0  1  0  0  0  0  0  0  0  0  0
  -24.0301  -28.9767   23.2489 C   0  0  1  0  0  0  0  0  0  0  0  0
  -26.6473  -15.1872   21.2517 C   0  0  2  0  0  0  0  0  0  0  0  0
  -29.4651  -22.1476   15.3330 C   0  0  0  0  0  0  0  0  0  0  0  0
  -30.8483  -26.1113   15.7724 C   0  0  0  0  0  0  0  0  0  0  0  0
  -27.5620  -35.8223   24.0655 C   0  0  0  0  0  0  0  0  0  0  0  0
  -22.8319  -32.6380   20.6955 C   0  0  0  0  0  0  0  0  0  0  0  0
  -24.2798  -34.6624   20.9666 C   0  0  0  0  0  0  0  0  0  0  0  0
  -22.6735  -34.0298   22.7672 C   0  0  0  0  0  0  0  0  0  0  0  0
  -28.8566  -32.4436   25.2421 C   0  0  0  0  0  0  0  0  0  0  0  0
  -31.3433  -24.4486   18.2899 C   0  0  0  0  0  0  0  0  0  0  0  0
  -29.5107  -25.7639   19.4410 C   0  0  0  0  0  0  0  0  0  1  0  0
  -30.5562  -25.7573   18.3215 C   0  0  2  0  0  0  0  0  0  0  0  0
  -24.7551  -32.6381   22.4181 C   0  0  1  0  0  0  0  0  0  0  0  0
  -27.4572  -34.3543   24.4485 C   0  0  2  0  0  0  0  0  0  0  0  0
  -23.6467  -33.4663   21.7089 C   0  0  0  0  0  0  0  0  0  0  0  0
  -24.2013  -15.4955   21.3094 N   0  0  0  0  0  0  0  0  0  0  0  0
  -25.2341  -14.6852   21.0219 N   0  0  0  0  0  0  0  0  0  0  0  0
  -24.6739  -30.1842   22.7275 N   0  0  0  0  0  0  0  0  0  0  0  0
  -28.1515  -17.1386   21.2522 N   0  0  0  0  0  0  0  0  0  0  0  0
  -25.7718  -12.5294   20.2006 N   0  0  0  0  0  0  0  0  0  0  0  0
  -32.1151  -21.6743   18.1419 N   0  0  0  0  0  0  0  0  0  0  0  0
  -21.2569  -12.5833   20.1083 N   0  0  0  0  0  0  0  0  0  0  0  0
  -28.4124  -17.9636   19.0582 N   0  0  0  0  0  0  0  0  0  0  0  0
  -21.8745  -27.9731   22.7971 N   0  0  0  0  0  0  0  0  0  0  0  0
  -25.5250  -33.3900   23.4031 N   0  0  0  0  0  0  0  0  0  0  0  0
  -30.4551  -23.3321   17.9553 N   0  3  0  0  0  0  0  0  0  0  0  0
  -28.8156  -33.8677   24.8212 N   0  3  0  0  0  0  0  0  0  0  0  0
  -23.1129  -11.3069   19.6788 O   0  0  0  0  0  0  0  0  0  0  0  0
  -23.1950  -28.7656   21.0505 O   0  0  0  0  0  0  0  0  0  0  0  0
  -28.7007  -26.1417   16.8068 O   0  0  0  0  0  0  0  0  0  0  0  0
  -23.3815  -31.6029   24.0516 O   0  0  0  0  0  0  0  0  0  0  0  0
  -27.5976  -33.0476   22.4211 O   0  0  0  0  0  0  0  0  0  0  0  0
  -30.1429  -18.1119   20.5960 O   0  0  0  0  0  0  0  0  0  0  0  0
  -17.9813  -16.8138   21.6605 O   0  0  0  0  0  0  0  0  0  0  0  0
  -28.8739  -27.0403   19.4827 O   0  0  0  0  0  0  0  0  0  1  0  0
  -17.0376  -21.9638   19.9311 F   0  0  0  0  0  0  0  0  0  0  0  0
  -16.0835  -17.3324   19.7184 F   0  0  0  0  0  0  0  0  0  0  0  0
  1  2  1  0  0  0  0
  1  5  2  0  0  0  0
  2  6  2  0  0  0  0
  3 10  2  0  0  0  0
  3 18  1  0  0  0  0
  4 11  1  0  0  0  0
  4 18  2  0  0  0  0
  5 21  1  0  0  0  0
  6 23  1  0  0  0  0
  7 12  2  0  0  0  0
  7 22  1  0  0  0  0
  8  9  2  0  0  0  0
  8 25  1  0  0  0  0
  9 26  1  0  0  0  0
 10 27  1  0  0  0  0
 11 27  2  0  0  0  0
 12 28  1  0  0  0  0
 13 14  2  0  0  0  0
 13 29  1  0  0  0  0
 14 30  1  0  0  0  0
 15 19  1  0  0  0  0
 15 26  2  0  0  0  0
 16 24  1  0  0  0  0
 16 28  2  0  0  0  0
 17 30  2  0  0  0  0
 17 31  1  0  0  0  0
 18 32  1  0  0  0  0
 19 25  2  0  0  0  0
 19 34  1  0  0  0  0
 20 32  1  0  0  0  0
 20 33  2  0  0  0  0
 20 35  1  0  0  0  0
 21 23  2  0  0  0  0
 21 41  1  0  0  0  0
 22 24  2  0  0  0  0
 22 42  1  0  0  0  0
 23 50  1  0  0  0  0
 24 43  1  0  0  0  0
 25 53  1  0  0  0  0
 26 73  1  0  0  0  0
 27 84  1  0  0  0  0
 28 85  1  0  0  0  0
 29 31  2  0  0  0  0
 29 84  1  0  0  0  0
 30 86  1  0  0  0  0
 31 87  1  0  0  0  0
 32 66  2  0  0  0  0
 33 67  1  0  0  0  0
 33 70  1  0  0  0  0
 34 71  1  0  0  0  0
 34 76  2  0  0  0  0
 35 72  1  0  0  0  0
 35 78  2  0  0  0  0
 36 51  1  0  0  0  0
 36 74  1  0  0  0  0
 36 79  2  0  0  0  0
 37 54  1  0  0  0  0
 37 62  1  0  0  0  0
 37 80  2  0  0  0  0
 38 63  1  0  0  0  0
 38 68  1  0  0  0  0
 38 81  2  0  0  0  0
 39 64  1  0  0  0  0
 39 75  1  0  0  0  0
 39 82  2  0  0  0  0
 40 69  1  0  0  0  0
 40 73  1  0  0  0  0
 40 83  2  0  0  0  0
 41 44  1  0  0  0  0
 42 51  1  0  0  0  0
 43 68  1  0  0  0  0
 44 46  1  0  0  0  0
 45 47  1  0  0  0  0
 45 48  1  0  0  0  0
 46 50  1  0  0  0  0
 47 52  1  0  0  0  0
 48 69  1  0  0  0  0
 49 52  1  0  0  0  0
 49 69  1  0  0  0  0
 50 74  1  0  0  0  0
 51 68  1  0  0  0  0
 52 67  1  0  0  0  0
 55 64  1  0  0  0  0
 56 65  1  0  0  0  0
 57 65  1  0  0  0  0
 58 65  1  0  0  0  0
 59 77  1  0  0  0  0
 60 62  1  0  0  0  0
 60 76  1  0  0  0  0
 61 62  1  0  0  0  0
 61 85  1  0  0  0  0
 63 65  1  0  0  0  0
 63 75  1  0  0  0  0
 64 77  1  0  0  0  0
 66 67  1  0  0  0  0
M  CHG  2  76   1  77   1
M  ISO  4  40 100  61 101  73 100  85 101
M  END
> <Batch ID>
0062

> <Smiles>
CNC(C)C(=O)NC(C(=O)N1Cc2cc([101O:1][101CH2:1]C(CNC(=N)c3cc([100NH:0][100C:0](=O)N4CCCC(n5nc(-c6ccc(Oc7ccc(F)cc7F)cc6)c(C(N)=O)c5N)C4)ccc3C)C(C)=O)ccc2CC1C(=O)NC1CCCc2ccccc21)C(C)(C)C

> <Shape>
0.246

> <Color>
0.072

> <Negative vol penalty>
0.000

$$$$

  -OEChem-04042323093D

 87 95  0     1  0  0  0  0  0999 V2000
  -18.8852  -25.1866   22.6884 C   0  0  0  0  0  0  0  0  0  0  0  0
  -19.8651  -25.4251   21.7302 C   0  0  0  0  0  0  0  0  0  0  0  0
  -30.4527  -21.6137   21.8385 C   0  0  0  0  0  0  0  0  0  0  0  0
  -25.6849  -12.1607   19.8253 C   0  0  0  0  0  0  0  0  0  0  0  0
  -27.5353  -12.9638   21.1551 C   0  0  0  0  0  0  0  0  0  0  0  0
  -30.7303  -22.6688   20.9694 C   0  0  0  0  0  0  0  0  0  0  0  0
  -18.2906  -26.2559   23.3569 C   0  0  0  0  0  0  0  0  0  0  0  0
  -20.2503  -26.7333   21.4391 C   0  0  0  0  0  0  0  0  0  0  0  0
  -25.2776  -27.2531   21.1209 C   0  0  0  0  0  0  0  0  0  0  0  0
  -29.2665  -20.8924   21.7033 C   0  0  0  0  0  0  0  0  0  0  0  0
  -26.4382  -11.0488   19.4487 C   0  0  0  0  0  0  0  0  0  0  0  0
  -28.2885  -11.8518   20.7786 C   0  0  0  0  0  0  0  0  0  0  0  0
  -25.8894  -26.8192   19.9457 C   0  0  0  0  0  0  0  0  0  0  0  0
  -28.9073  -10.3415   17.2516 C   0  0  0  0  0  0  0  0  0  0  0  0
  -28.8936   -9.9760   15.9056 C   0  0  0  0  0  0  0  0  0  0  0  0
  -28.6353  -22.2814   19.8301 C   0  0  0  0  0  0  0  0  0  0  0  0
  -25.9751  -29.0971   19.1563 C   0  0  0  0  0  0  0  0  0  0  0  0
  -27.9881   -7.8167   16.5012 C   0  0  0  0  0  0  0  0  0  0  0  0
  -26.2335  -13.1183   20.6785 C   0  0  0  0  0  0  0  0  0  0  0  0
  -29.8216  -23.0027   19.9652 C   0  0  0  0  0  0  0  0  0  0  0  0
  -24.6054  -14.3802   22.1833 C   0  0  0  0  0  0  0  0  0  0  0  0
  -18.6755  -27.5774   23.0808 C   0  0  0  0  0  0  0  0  0  0  0  0
  -24.9995  -28.6133   21.3183 C   0  0  0  0  0  0  0  0  0  0  0  0
  -19.6593  -27.8214   22.1036 C   0  0  0  0  0  0  0  0  0  0  0  0
  -25.3620  -29.5460   20.3360 C   0  0  0  0  0  0  0  0  0  0  0  0
  -28.3578  -21.2262   20.6991 C   0  0  0  0  0  0  0  0  0  0  0  0
  -27.7399  -10.8943   19.9254 C   0  0  0  0  0  0  0  0  0  0  0  0
  -26.2357  -27.7408   18.9619 C   0  0  0  0  0  0  0  0  0  0  0  0
  -28.4616   -9.4446   18.2225 C   0  0  0  0  0  0  0  0  0  0  0  0
  -28.4339   -8.7136   15.5304 C   0  0  0  0  0  0  0  0  0  0  0  0
  -28.0019   -8.1822   17.8473 C   0  0  0  0  0  0  0  0  0  0  0  0
  -25.4561  -14.2674   21.0674 C   0  0  0  0  0  0  0  0  0  0  0  0
  -24.1067  -15.6577   22.1073 C   0  0  0  0  0  0  0  0  0  0  0  0
  -30.1185  -24.1267   19.0403 C   0  0  0  0  0  0  0  0  0  0  0  0
  -24.2939  -13.4163   23.1980 C   0  0  0  0  0  0  0  0  0  0  0  0
  -22.3539  -30.3236   21.7413 C   0  0  0  0  0  0  0  0  0  0  0  0
  -28.7524  -26.2034   16.8552 C   0  0  0  0  0  0  0  0  0  0  0  0
  -24.4613  -32.7388   22.2394 C   0  0  0  0  0  0  0  0  0  0  0  0
  -29.6761  -24.3386   15.4285 C   0  0  0  0  0  0  0  0  0  0  0  0
  -27.5857  -34.0105   21.7221 C   0  0  0  0  0  0  0  0  0  0  0  0
  -26.1446  -20.6940   19.6198 C   0  0  0  0  0  0  0  0  0  0  0  0
  -17.9707  -28.7032   23.7953 C   0  0  0  0  0  0  0  0  0  0  0  0
  -24.3633  -29.0684   22.6030 C   0  0  0  0  0  0  0  0  0  0  0  0
  -25.1036  -31.0198   20.5080 C   0  0  0  0  0  0  0  0  0  0  0  0
  -18.7018  -30.0395   23.6967 C   0  0  0  0  0  0  0  0  0  0  0  0
  -23.0464  -19.0807   18.9303 C   0  0  0  0  0  0  0  0  0  0  0  0
  -19.1426  -30.3022   22.2602 C   0  0  0  0  0  0  0  0  0  0  0  0
  -23.2331  -17.6755   19.5071 C   0  0  0  0  0  0  0  0  0  0  0  0
  -24.3345  -19.6128   18.3047 C   0  0  0  0  0  0  0  0  0  0  0  0
  -25.7001  -18.1643   19.7560 C   0  0  0  0  0  0  0  0  0  0  0  0
  -20.1217  -29.2251   21.7778 C   0  0  1  0  0  0  0  0  0  0  0  0
  -23.6607  -30.4167   22.4770 C   0  0  1  0  0  0  0  0  0  0  0  0
  -24.4470  -17.6120   20.4547 C   0  0  2  0  0  0  0  0  0  0  0  0
  -29.0015  -36.0215   22.2209 C   0  0  0  0  0  0  0  0  0  0  0  0
  -22.9582  -34.3225   20.1081 C   0  0  0  0  0  0  0  0  0  0  0  0
  -24.9220  -35.8695   19.9721 C   0  0  0  0  0  0  0  0  0  0  0  0
  -23.6488  -35.6578   22.1068 C   0  0  0  0  0  0  0  0  0  0  0  0
  -29.5631  -32.3923   23.2155 C   0  0  0  0  0  0  0  0  0  0  0  0
  -27.6506  -26.1537   17.8966 C   0  0  0  0  0  0  0  0  0  1  0  0
  -29.7476  -25.0504   16.7676 C   0  0  2  0  0  0  0  0  0  0  0  0
  -25.1440  -33.7600   21.3619 C   0  0  1  0  0  0  0  0  0  0  0  0
  -28.5920  -34.6292   22.6755 C   0  0  2  0  0  0  0  0  0  0  0  0
  -24.1715  -34.8745   20.8829 C   0  0  0  0  0  0  0  0  0  0  0  0
  -25.4978  -15.3842   20.3359 N   0  0  0  0  0  0  0  0  0  0  0  0
  -24.6670  -16.2108   20.9935 N   0  0  0  0  0  0  0  0  0  0  0  0
  -24.4736  -31.4146   21.7787 N   0  0  0  0  0  0  0  0  0  0  0  0
  -25.4398  -19.5254   19.2615 N   0  0  0  0  0  0  0  0  0  0  0  0
  -23.2480  -16.3505   22.8850 N   0  0  0  0  0  0  0  0  0  0  0  0
  -24.8940  -12.1519   23.1253 N   0  0  0  0  0  0  0  0  0  0  0  0
  -30.5054  -24.8897   14.4766 N   0  0  0  0  0  0  0  0  0  0  0  0
  -27.1530  -20.4931   20.5618 N   0  0  0  0  0  0  0  0  0  0  0  0
  -29.5354  -24.0518   17.7816 N   0  0  0  0  0  0  0  0  0  0  0  0
  -21.4419  -29.4624   22.3210 N   0  0  0  0  0  0  0  0  0  0  0  0
  -26.2883  -34.2515   22.1219 N   0  0  0  0  0  0  0  0  0  0  0  0
  -29.8158  -33.7828   22.7579 N   0  3  0  0  0  0  0  0  0  0  0  0
  -30.8602  -25.0314   19.4142 O   0  0  0  0  0  0  0  0  0  0  0  0
  -23.4940  -13.6634   24.1322 O   0  0  0  0  0  0  0  0  0  0  0  0
  -22.1848  -30.9854   20.7238 O   0  0  0  0  0  0  0  0  0  0  0  0
  -28.8609  -27.1678   16.0925 O   0  0  0  0  0  0  0  0  0  0  0  0
  -23.9426  -33.1014   23.2983 O   0  0  0  0  0  0  0  0  0  0  0  0
  -28.9262  -23.3896   15.2098 O   0  0  0  0  0  0  0  0  0  0  0  0
  -27.9174  -33.3798   20.7207 O   0  0  0  0  0  0  0  0  0  0  0  0
  -25.8558  -21.7965   19.1476 O   0  0  0  0  0  0  0  0  0  0  0  0
  -28.4751   -9.8093   19.5583 O   0  0  0  0  0  0  0  0  0  0  0  0
  -26.8324  -27.3199   17.8136 O   0  0  0  0  0  0  0  0  0  1  0  0
  -28.4193   -8.3633   14.2376 F   0  0  0  0  0  0  0  0  0  0  0  0
  -27.5713   -7.3168   18.7753 F   0  0  0  0  0  0  0  0  0  0  0  0
  1  2  1  0  0  0  0
  1  7  2  0  0  0  0
  2  8  2  0  0  0  0
  3  6  2  0  0  0  0
  3 10  1  0  0  0  0
  4 11  2  0  0  0  0
  4 19  1  0  0  0  0
  5 12  1  0  0  0  0
  5 19  2  0  0  0  0
  6 20  1  0  0  0  0
  7 22  1  0  0  0  0
  8 24  1  0  0  0  0
  9 13  2  0  0  0  0
  9 23  1  0  0  0  0
 10 26  2  0  0  0  0
 11 27  1  0  0  0  0
 12 27  2  0  0  0  0
 13 28  1  0  0  0  0
 14 15  2  0  0  0  0
 14 29  1  0  0  0  0
 15 30  1  0  0  0  0
 16 20  2  0  0  0  0
 16 26  1  0  0  0  0
 17 25  1  0  0  0  0
 17 28  2  0  0  0  0
 18 30  2  0  0  0  0
 18 31  1  0  0  0  0
 19 32  1  0  0  0  0
 20 34  1  0  0  0  0
 21 32  1  0  0  0  0
 21 33  2  0  0  0  0
 21 35  1  0  0  0  0
 22 24  2  0  0  0  0
 22 42  1  0  0  0  0
 23 25  2  0  0  0  0
 23 43  1  0  0  0  0
 24 51  1  0  0  0  0
 25 44  1  0  0  0  0
 26 71  1  0  0  0  0
 27 84  1  0  0  0  0
 28 85  1  0  0  0  0
 29 31  2  0  0  0  0
 29 84  1  0  0  0  0
 30 86  1  0  0  0  0
 31 87  1  0  0  0  0
 32 64  2  0  0  0  0
 33 65  1  0  0  0  0
 33 68  1  0  0  0  0
 34 72  1  0  0  0  0
 34 76  2  0  0  0  0
 35 69  1  0  0  0  0
 35 77  2  0  0  0  0
 36 52  1  0  0  0  0
 36 73  1  0  0  0  0
 36 78  2  0  0  0  0
 37 59  1  0  0  0  0
 37 60  1  0  0  0  0
 37 79  2  0  0  0  0
 38 61  1  0  0  0  0
 38 66  1  0  0  0  0
 38 80  2  0  0  0  0
 39 60  1  0  0  0  0
 39 70  1  0  0  0  0
 39 81  2  0  0  0  0
 40 62  1  0  0  0  0
 40 74  1  0  0  0  0
 40 82  2  0  0  0  0
 41 67  1  0  0  0  0
 41 71  1  0  0  0  0
 41 83  2  0  0  0  0
 42 45  1  0  0  0  0
 43 52  1  0  0  0  0
 44 66  1  0  0  0  0
 45 47  1  0  0  0  0
 46 48  1  0  0  0  0
 46 49  1  0  0  0  0
 47 51  1  0  0  0  0
 48 53  1  0  0  0  0
 49 67  1  0  0  0  0
 50 53  1  0  0  0  0
 50 67  1  0  0  0  0
 51 73  1  0  0  0  0
 52 66  1  0  0  0  0
 53 65  1  0  0  0  0
 54 62  1  0  0  0  0
 55 63  1  0  0  0  0
 56 63  1  0  0  0  0
 57 63  1  0  0  0  0
 58 75  1  0  0  0  0
 59 85  1  0  0  0  0
 60 72  1  0  0  0  0
 61 63  1  0  0  0  0
 61 74  1  0  0  0  0
 62 75  1  0  0  0  0
 64 65  1  0  0  0  0
M  CHG  1  75   1
M  ISO  4  41 100  59 101  71 100  85 101
M  END
> <Batch ID>
0062

> <Smiles>
CNC(C)C(=O)NC(C(=O)N1Cc2cc([101O:1][101CH2:1]C(=O)C(NC(=O)c3cccc([100NH:0][100C:0](=O)N4CCCC(n5nc(-c6ccc(Oc7ccc(F)cc7F)cc6)c(C(N)=O)c5N)C4)c3)C(N)=O)ccc2CC1C(=O)NC1CCCc2ccccc21)C(C)(C)C

> <Shape>
0.238

> <Color>
0.097

> <Negative vol penalty>
0.000

$$$$

  -OEChem-04042323093D

 85 93  0     1  0  0  0  0  0999 V2000
  -29.7712  -23.5970   17.9721 C   0  0  0  0  0  0  0  0  0  0  0  0
  -28.5877  -23.6605   18.7005 C   0  0  0  0  0  0  0  0  0  0  0  0
  -28.3802  -14.5867   20.6654 C   0  0  0  0  0  0  0  0  0  0  0  0
  -26.1856  -15.5865   20.8114 C   0  0  0  0  0  0  0  0  0  0  0  0
  -30.8288  -24.4491   18.2871 C   0  0  0  0  0  0  0  0  0  0  0  0
  -28.4615  -24.5755   19.7452 C   0  0  0  0  0  0  0  0  0  0  0  0
  -24.0211  -27.0090   19.6706 C   0  0  0  0  0  0  0  0  0  0  0  0
  -27.7982  -13.3226   20.5722 C   0  0  0  0  0  0  0  0  0  0  0  0
  -25.6035  -14.3223   20.7182 C   0  0  0  0  0  0  0  0  0  0  0  0
  -22.9087  -26.3189   20.1502 C   0  0  0  0  0  0  0  0  0  0  0  0
  -24.9089  -12.0745   18.2922 C   0  0  0  0  0  0  0  0  0  0  0  0
  -23.8221  -11.9250   17.4307 C   0  0  0  0  0  0  0  0  0  0  0  0
  -24.7352  -22.0079   25.5891 C   0  0  0  0  0  0  0  0  0  0  0  0
  -23.0952  -27.4904   22.2507 C   0  0  0  0  0  0  0  0  0  0  0  0
  -26.1386  -22.2587   27.5395 C   0  0  0  0  0  0  0  0  0  0  0  0
  -22.4411  -11.2412   19.2916 C   0  0  0  0  0  0  0  0  0  0  0  0
  -27.5739  -15.7187   20.7850 C   0  0  0  0  0  0  0  0  0  0  0  0
  -23.6310  -22.4305   26.3292 C   0  0  0  0  0  0  0  0  0  0  0  0
  -28.4989  -17.8921   19.8215 C   0  0  0  0  0  0  0  0  0  0  0  0
  -30.7121  -25.3816   19.3299 C   0  0  0  0  0  0  0  0  0  0  0  0
  -24.6866  -27.9386   20.4826 C   0  0  0  0  0  0  0  0  0  0  0  0
  -29.5191  -25.4400   20.0753 C   0  0  0  0  0  0  0  0  0  0  0  0
  -24.2143  -28.1929   21.7781 C   0  0  0  0  0  0  0  0  0  0  0  0
  -25.9890  -21.9219   26.1943 C   0  0  0  0  0  0  0  0  0  0  0  0
  -23.7807  -22.7673   27.6745 C   0  0  0  0  0  0  0  0  0  0  0  0
  -26.4098  -13.1903   20.5986 C   0  0  0  0  0  0  0  0  0  0  0  0
  -22.4473  -26.5574   21.4415 C   0  0  0  0  0  0  0  0  0  0  0  0
  -24.7618  -11.8073   19.6534 C   0  0  0  0  0  0  0  0  0  0  0  0
  -22.5882  -11.5084   17.9304 C   0  0  0  0  0  0  0  0  0  0  0  0
  -25.0345  -22.6814   28.2797 C   0  0  0  0  0  0  0  0  0  0  0  0
  -23.5279  -11.3907   20.1530 C   0  0  0  0  0  0  0  0  0  0  0  0
  -28.1746  -17.0248   20.8819 C   0  0  0  0  0  0  0  0  0  0  0  0
  -29.0413  -18.9954   20.4339 C   0  0  0  0  0  0  0  0  0  0  0  0
  -22.3093  -22.5093   25.6554 C   0  0  0  0  0  0  0  0  0  0  0  0
  -28.3253  -17.7162   18.4092 C   0  0  0  0  0  0  0  0  0  0  0  0
  -27.6227  -28.1772   21.6767 C   0  0  0  0  0  0  0  0  0  0  0  0
  -26.5622  -31.0768   22.6715 C   0  0  0  0  0  0  0  0  0  0  0  0
  -23.9153  -33.0663   23.4979 C   0  0  0  0  0  0  0  0  0  0  0  0
  -28.4240  -21.3522   25.8900 C   0  0  0  0  0  0  0  0  0  0  0  0
  -31.8995  -26.2494   19.6640 C   0  0  0  0  0  0  0  0  0  0  0  0
  -25.8690  -28.6943   19.9409 C   0  0  0  0  0  0  0  0  0  0  0  0
  -24.8810  -29.1957   22.6827 C   0  0  0  0  0  0  0  0  0  0  0  0
  -31.5501  -27.4477   20.5429 C   0  0  0  0  0  0  0  0  0  0  0  0
  -31.4584  -20.2894   24.3604 C   0  0  0  0  0  0  0  0  0  0  0  0
  -30.6614  -27.0162   21.7051 C   0  0  0  0  0  0  0  0  0  0  0  0
  -30.9901  -19.4155   23.1946 C   0  0  0  0  0  0  0  0  0  0  0  0
  -30.5636  -20.1251   25.5876 C   0  0  0  0  0  0  0  0  0  0  0  0
  -28.6612  -19.4496   24.1755 C   0  0  0  0  0  0  0  0  0  0  0  0
  -29.3350  -26.4361   21.1995 C   0  0  1  0  0  0  0  0  0  0  0  0
  -26.7798  -29.2427   21.0350 C   0  0  1  0  0  0  0  0  0  0  0  0
  -29.4934  -19.6298   22.8954 C   0  0  2  0  0  0  0  0  0  0  0  0
  -23.3651  -35.3763   24.3096 C   0  0  0  0  0  0  0  0  0  0  0  0
  -27.4514  -30.2976   25.4843 C   0  0  0  0  0  0  0  0  0  0  0  0
  -26.0502  -32.1731   26.3716 C   0  0  0  0  0  0  0  0  0  0  0  0
  -27.9625  -32.6610   24.8459 C   0  0  0  0  0  0  0  0  0  0  0  0
  -22.3471  -33.6741   21.0627 C   0  0  0  0  0  0  0  0  0  0  0  0
  -20.5191  -24.3582   23.5608 C   0  0  0  0  0  0  0  0  0  0  0  0
  -20.4208  -23.9946   25.0362 C   0  0  0  0  0  0  0  0  0  0  0  0
  -21.3105  -25.6374   23.3169 C   0  0  0  0  0  0  0  0  0  1  0  0
  -25.8701  -31.5951   23.9089 C   0  0  1  0  0  0  0  0  0  0  0  0
  -23.5560  -34.4845   23.0926 C   0  0  2  0  0  0  0  0  0  0  0  0
  -26.8219  -31.6613   25.1366 C   0  0  0  0  0  0  0  0  0  0  0  0
  -28.4852  -17.5333   22.0773 N   0  0  0  0  0  0  0  0  0  0  0  0
  -29.0104  -18.7320   21.7717 N   0  0  0  0  0  0  0  0  0  0  0  0
  -26.0372  -29.9045   22.1096 N   0  0  0  0  0  0  0  0  0  0  0  0
  -29.1610  -20.3469   25.2290 N   0  0  0  0  0  0  0  0  0  0  0  0
  -22.6734  -23.1968   28.4398 N   0  0  0  0  0  0  0  0  0  0  0  0
  -29.5370  -20.1554   19.9531 N   0  0  0  0  0  0  0  0  0  0  0  0
  -27.7519  -16.5226   17.9500 N   0  0  0  0  0  0  0  0  0  0  0  0
  -27.1108  -21.4929   25.4424 N   0  0  0  0  0  0  0  0  0  0  0  0
  -21.7088  -23.7630   25.6293 N   0  0  0  0  0  0  0  0  0  0  0  0
  -28.4407  -27.4989   20.7933 N   0  0  0  0  0  0  0  0  0  0  0  0
  -25.2806  -32.8776   23.5401 N   0  0  0  0  0  0  0  0  0  0  0  0
  -22.2933  -34.4928   22.3012 N   0  3  0  0  0  0  0  0  0  0  0  0
  -21.8140  -21.4887   25.1848 O   0  0  0  0  0  0  0  0  0  0  0  0
  -28.6836  -18.5846   17.5779 O   0  0  0  0  0  0  0  0  0  0  0  0
  -27.5385  -27.9857   22.8841 O   0  0  0  0  0  0  0  0  0  0  0  0
  -27.5285  -31.6935   22.2159 O   0  0  0  0  0  0  0  0  0  0  0  0
  -23.0696  -32.2125   23.7551 O   0  0  0  0  0  0  0  0  0  0  0  0
  -28.9293  -22.0560   26.7682 O   0  0  0  0  0  0  0  0  0  0  0  0
  -25.8415  -11.9569   20.5075 O   0  0  0  0  0  0  0  0  0  0  0  0
  -21.3621  -25.8848   21.9124 O   0  0  0  0  0  0  0  0  0  1  0  0
  -21.5443  -11.3663   17.1032 F   0  0  0  0  0  0  0  0  0  0  0  0
  -25.1905  -23.0026   29.5720 F   0  0  0  0  0  0  0  0  0  0  0  0
  -23.3803  -11.1337   21.4599 F   0  0  0  0  0  0  0  0  0  0  0  0
  1  2  1  0  0  0  0
  1  5  2  0  0  0  0
  2  6  2  0  0  0  0
  3  8  2  0  0  0  0
  3 17  1  0  0  0  0
  4  9  1  0  0  0  0
  4 17  2  0  0  0  0
  5 20  1  0  0  0  0
  6 22  1  0  0  0  0
  7 10  2  0  0  0  0
  7 21  1  0  0  0  0
  8 26  1  0  0  0  0
  9 26  2  0  0  0  0
 10 27  1  0  0  0  0
 11 12  2  0  0  0  0
 11 28  1  0  0  0  0
 12 29  1  0  0  0  0
 13 18  1  0  0  0  0
 13 24  2  0  0  0  0
 14 23  1  0  0  0  0
 14 27  2  0  0  0  0
 15 24  1  0  0  0  0
 15 30  2  0  0  0  0
 16 29  2  0  0  0  0
 16 31  1  0  0  0  0
 17 32  1  0  0  0  0
 18 25  2  0  0  0  0
 18 34  1  0  0  0  0
 19 32  1  0  0  0  0
 19 33  2  0  0  0  0
 19 35  1  0  0  0  0
 20 22  2  0  0  0  0
 20 40  1  0  0  0  0
 21 23  2  0  0  0  0
 21 41  1  0  0  0  0
 22 49  1  0  0  0  0
 23 42  1  0  0  0  0
 24 70  1  0  0  0  0
 25 30  1  0  0  0  0
 25 67  1  0  0  0  0
 26 81  1  0  0  0  0
 27 82  1  0  0  0  0
 28 31  2  0  0  0  0
 28 81  1  0  0  0  0
 29 83  1  0  0  0  0
 30 84  1  0  0  0  0
 31 85  1  0  0  0  0
 32 63  2  0  0  0  0
 33 64  1  0  0  0  0
 33 68  1  0  0  0  0
 34 71  1  0  0  0  0
 34 75  2  0  0  0  0
 35 69  1  0  0  0  0
 35 76  2  0  0  0  0
 36 50  1  0  0  0  0
 36 72  1  0  0  0  0
 36 77  2  0  0  0  0
 37 60  1  0  0  0  0
 37 65  1  0  0  0  0
 37 78  2  0  0  0  0
 38 61  1  0  0  0  0
 38 73  1  0  0  0  0
 38 79  2  0  0  0  0
 39 66  1  0  0  0  0
 39 70  1  0  0  0  0
 39 80  2  0  0  0  0
 40 43  1  0  0  0  0
 41 50  1  0  0  0  0
 42 65  1  0  0  0  0
 43 45  1  0  0  0  0
 44 46  1  0  0  0  0
 44 47  1  0  0  0  0
 45 49  1  0  0  0  0
 46 51  1  0  0  0  0
 47 66  1  0  0  0  0
 48 51  1  0  0  0  0
 48 66  1  0  0  0  0
 49 72  1  0  0  0  0
 50 65  1  0  0  0  0
 51 64  1  0  0  0  0
 52 61  1  0  0  0  0
 53 62  1  0  0  0  0
 54 62  1  0  0  0  0
 55 62  1  0  0  0  0
 56 74  1  0  0  0  0
 57 58  1  0  0  0  0
 57 59  1  0  0  0  0
 58 71  1  0  0  0  0
 59 82  1  0  0  0  0
 60 62  1  0  0  0  0
 60 73  1  0  0  0  0
 61 74  1  0  0  0  0
 63 64  1  0  0  0  0
M  CHG  1  74   1
M  ISO  4  39 100  59 101  70 100  82 101
M  END
> <Batch ID>
0062

> <Smiles>
CNC(C)C(=O)NC(C(=O)N1Cc2cc([101O:1][101CH2:1]CCNC(=O)c3cc([100NH:0][100C:0](=O)N4CCCC(n5nc(-c6ccc(Oc7ccc(F)cc7F)cc6)c(C(N)=O)c5N)C4)cc(F)c3N)ccc2CC1C(=O)NC1CCCc2ccccc21)C(C)(C)C

> <Shape>
0.253

> <Color>
0.070

> <Negative vol penalty>
0.000

$$$$

  -OEChem-04042323093D

 88 97  0     1  0  0  0  0  0999 V2000
  -29.3241  -31.4751   24.7754 C   0  0  0  0  0  0  0  0  0  0  0  0
  -28.8126  -30.1824   24.8260 C   0  0  0  0  0  0  0  0  0  0  0  0
  -23.0775   -9.9045   19.8800 C   0  0  0  0  0  0  0  0  0  0  0  0
  -23.8762   -9.7990   22.1578 C   0  0  0  0  0  0  0  0  0  0  0  0
  -29.6521  -32.0461   23.5465 C   0  0  0  0  0  0  0  0  0  0  0  0
  -28.6278  -29.4602   23.6476 C   0  0  0  0  0  0  0  0  0  0  0  0
  -32.6264  -17.4462   23.6362 C   0  0  0  0  0  0  0  0  0  0  0  0
  -30.2675  -24.6833   24.0189 C   0  0  0  0  0  0  0  0  0  0  0  0
  -32.0330  -16.6044   22.6955 C   0  0  0  0  0  0  0  0  0  0  0  0
  -22.3507   -8.7310   20.0805 C   0  0  0  0  0  0  0  0  0  0  0  0
  -23.1493   -8.6255   22.3583 C   0  0  0  0  0  0  0  0  0  0  0  0
  -29.4476  -23.7793   24.6929 C   0  0  0  0  0  0  0  0  0  0  0  0
  -19.4365   -7.8236   21.5355 C   0  0  0  0  0  0  0  0  0  0  0  0
  -18.1222   -7.7876   21.0700 C   0  0  0  0  0  0  0  0  0  0  0  0
  -28.6380  -22.9465   22.5786 C   0  0  0  0  0  0  0  0  0  0  0  0
  -29.8503  -17.3947   23.3650 C   0  0  0  0  0  0  0  0  0  0  0  0
  -18.6806   -5.9241   19.6373 C   0  0  0  0  0  0  0  0  0  0  0  0
  -23.8403  -10.4385   20.9187 C   0  0  0  0  0  0  0  0  0  0  0  0
  -24.1522  -12.9704   20.9275 C   0  0  0  0  0  0  0  0  0  0  0  0
  -29.4803  -31.3271   22.3531 C   0  0  0  0  0  0  0  0  0  0  0  0
  -30.2707  -24.7333   22.6175 C   0  0  0  0  0  0  0  0  0  0  0  0
  -28.9526  -30.0226   22.4014 C   0  0  0  0  0  0  0  0  0  0  0  0
  -31.8317  -18.2622   24.4414 C   0  0  0  0  0  0  0  0  0  0  0  0
  -29.4607  -23.8503   21.8892 C   0  0  0  0  0  0  0  0  0  0  0  0
  -30.6450  -16.5787   22.5599 C   0  0  0  0  0  0  0  0  0  0  0  0
  -30.4437  -18.2365   24.3058 C   0  0  0  0  0  0  0  0  0  0  0  0
  -22.3866   -8.0915   21.3196 C   0  0  0  0  0  0  0  0  0  0  0  0
  -28.6306  -22.9127   23.9729 C   0  0  0  0  0  0  0  0  0  0  0  0
  -20.3730   -6.9099   21.0519 C   0  0  0  0  0  0  0  0  0  0  0  0
  -17.7442   -6.8379   20.1209 C   0  0  0  0  0  0  0  0  0  0  0  0
  -19.9950   -5.9602   20.1028 C   0  0  0  0  0  0  0  0  0  0  0  0
  -24.5917  -11.6504   20.7121 C   0  0  0  0  0  0  0  0  0  0  0  0
  -25.2297  -13.7510   20.5868 C   0  0  0  0  0  0  0  0  0  0  0  0
  -22.8834  -13.4481   21.3940 C   0  0  0  0  0  0  0  0  0  0  0  0
  -29.5407  -26.9406   20.4499 C   0  0  0  0  0  0  0  0  0  0  0  0
  -30.6959  -24.7286   18.3776 C   0  0  0  0  0  0  0  0  0  0  0  0
  -28.2311  -19.1431   25.0972 C   0  0  0  0  0  0  0  0  0  0  0  0
  -31.3723  -21.4486   17.7207 C   0  0  0  0  0  0  0  0  0  0  0  0
  -30.6863  -14.8507   20.7272 C   0  0  0  0  0  0  0  0  0  0  0  0
  -29.8047  -32.0037   21.0448 C   0  0  0  0  0  0  0  0  0  0  0  0
  -31.1807  -25.6959   21.9050 C   0  0  0  0  0  0  0  0  0  0  0  0
  -29.4424  -23.8500   20.3832 C   0  0  0  0  0  0  0  0  0  0  0  0
  -29.9302  -31.0341   19.8724 C   0  0  0  0  0  0  0  0  0  0  0  0
  -34.6997  -20.8549   26.5021 C   0  0  0  0  0  0  0  0  0  0  0  0
  -33.4278  -21.4781   25.9351 C   0  0  0  0  0  0  0  0  0  0  0  0
  -34.4408  -19.4603   27.0641 C   0  0  0  0  0  0  0  0  0  0  0  0
  -29.5584  -12.5527   18.2525 C   0  0  0  0  0  0  0  0  0  0  0  0
  -32.7728  -20.5738   24.8926 C   0  0  0  0  0  0  0  0  0  0  0  0
  -33.7908  -18.5460   26.0271 C   0  0  0  0  0  0  0  0  0  0  0  0
  -28.7676  -30.0467   19.8694 C   0  0  0  0  0  0  0  0  0  0  0  0
  -28.1295  -12.2217   18.6895 C   0  0  0  0  0  0  0  0  0  0  0  0
  -30.4912  -12.7284   19.4494 C   0  0  0  0  0  0  0  0  0  0  0  0
  -28.6002  -13.3559   20.8983 C   0  0  0  0  0  0  0  0  0  0  0  0
  -32.5031  -19.1655   25.4535 C   0  0  0  0  0  0  0  0  0  0  0  0
  -28.7610  -29.1983   21.1468 C   0  0  1  0  0  0  0  0  0  0  0  0
  -30.7217  -26.0123   20.4849 C   0  0  1  0  0  0  0  0  0  0  0  0
  -27.6094  -13.2338   19.7291 C   0  0  2  0  0  0  0  0  0  0  0  0
  -32.2792  -19.9450   15.9280 C   0  0  0  0  0  0  0  0  0  0  0  0
  -28.0689  -24.9752   16.8451 C   0  0  0  0  0  0  0  0  0  0  0  0
  -28.6296  -22.8328   15.6773 C   0  0  0  0  0  0  0  0  0  0  0  0
  -30.1072  -24.8239   15.4039 C   0  0  0  0  0  0  0  0  0  0  0  0
  -33.5993  -20.5417   19.4462 C   0  0  0  0  0  0  0  0  0  0  0  0
  -27.7470  -20.1524   26.1321 C   0  0  0  0  0  0  0  0  0  0  0  0
  -28.2840  -21.5557   25.8950 C   0  0  0  0  0  0  0  0  0  1  0  0
  -30.1025  -23.5766   17.6030 C   0  0  1  0  0  0  0  0  0  0  0  0
  -32.6093  -20.7671   17.1641 C   0  0  2  0  0  0  0  0  0  0  0  0
  -29.2257  -24.0532   16.4108 C   0  0  0  0  0  0  0  0  0  0  0  0
  -25.8503  -11.5919   20.2686 N   0  0  0  0  0  0  0  0  0  0  0  0
  -26.2108  -12.8849   20.2025 N   0  0  0  0  0  0  0  0  0  0  0  0
  -30.3451  -24.8139   19.7324 N   0  0  0  0  0  0  0  0  0  0  0  0
  -29.9359  -13.7046   20.3894 N   0  0  0  0  0  0  0  0  0  0  0  0
  -25.4242  -15.0868   20.5812 N   0  0  0  0  0  0  0  0  0  0  0  0
  -21.8875  -12.5104   21.6990 N   0  0  0  0  0  0  0  0  0  0  0  0
  -29.6206  -19.0568   25.1135 N   0  0  0  0  0  0  0  0  0  0  0  0
  -30.0428  -15.7234   21.6041 N   0  0  0  0  0  0  0  0  0  0  0  0
  -29.7627  -28.1569   21.0671 N   0  0  0  0  0  0  0  0  0  0  0  0
  -31.2219  -22.7238   17.2182 N   0  0  0  0  0  0  0  0  0  0  0  0
  -33.2055  -19.8608   18.1859 N   0  3  0  0  0  0  0  0  0  0  0  0
  -22.6347  -14.6711   21.5206 O   0  0  0  0  0  0  0  0  0  0  0  0
  -28.5053  -26.5807   19.9022 O   0  0  0  0  0  0  0  0  0  0  0  0
  -31.4487  -25.5193   17.8034 O   0  0  0  0  0  0  0  0  0  0  0  0
  -27.4553  -18.5233   24.3773 O   0  0  0  0  0  0  0  0  0  0  0  0
  -30.6132  -20.9029   18.5185 O   0  0  0  0  0  0  0  0  0  0  0  0
  -31.8053  -15.0574   20.2507 O   0  0  0  0  0  0  0  0  0  0  0  0
  -21.6773   -6.9464   21.5156 O   0  0  0  0  0  0  0  0  0  0  0  0
  -27.8289  -22.0297   24.6283 O   0  0  0  0  0  0  0  0  0  1  0  0
  -16.4816   -6.8025   19.6751 F   0  0  0  0  0  0  0  0  0  0  0  0
  -20.8900   -5.0790   19.6353 F   0  0  0  0  0  0  0  0  0  0  0  0
  1  2  1  0  0  0  0
  1  5  2  0  0  0  0
  2  6  2  0  0  0  0
  3 10  2  0  0  0  0
  3 18  1  0  0  0  0
  4 11  1  0  0  0  0
  4 18  2  0  0  0  0
  5 20  1  0  0  0  0
  6 22  1  0  0  0  0
  7  9  2  0  0  0  0
  7 23  1  0  0  0  0
  8 12  2  0  0  0  0
  8 21  1  0  0  0  0
  9 25  1  0  0  0  0
 10 27  1  0  0  0  0
 11 27  2  0  0  0  0
 12 28  1  0  0  0  0
 13 14  2  0  0  0  0
 13 29  1  0  0  0  0
 14 30  1  0  0  0  0
 15 24  1  0  0  0  0
 15 28  2  0  0  0  0
 16 25  2  0  0  0  0
 16 26  1  0  0  0  0
 17 30  2  0  0  0  0
 17 31  1  0  0  0  0
 18 32  1  0  0  0  0
 19 32  1  0  0  0  0
 19 33  2  0  0  0  0
 19 34  1  0  0  0  0
 20 22  2  0  0  0  0
 20 40  1  0  0  0  0
 21 24  2  0  0  0  0
 21 41  1  0  0  0  0
 22 55  1  0  0  0  0
 23 26  2  0  0  0  0
 23 54  1  0  0  0  0
 24 42  1  0  0  0  0
 25 75  1  0  0  0  0
 26 74  1  0  0  0  0
 27 85  1  0  0  0  0
 28 86  1  0  0  0  0
 29 31  2  0  0  0  0
 29 85  1  0  0  0  0
 30 87  1  0  0  0  0
 31 88  1  0  0  0  0
 32 68  2  0  0  0  0
 33 69  1  0  0  0  0
 33 72  1  0  0  0  0
 34 73  1  0  0  0  0
 34 79  2  0  0  0  0
 35 56  1  0  0  0  0
 35 76  1  0  0  0  0
 35 80  2  0  0  0  0
 36 65  1  0  0  0  0
 36 70  1  0  0  0  0
 36 81  2  0  0  0  0
 37 63  1  0  0  0  0
 37 74  1  0  0  0  0
 37 82  2  0  0  0  0
 38 66  1  0  0  0  0
 38 77  1  0  0  0  0
 38 83  2  0  0  0  0
 39 71  1  0  0  0  0
 39 75  1  0  0  0  0
 39 84  2  0  0  0  0
 40 43  1  0  0  0  0
 41 56  1  0  0  0  0
 42 70  1  0  0  0  0
 43 50  1  0  0  0  0
 44 45  1  0  0  0  0
 44 46  1  0  0  0  0
 45 48  1  0  0  0  0
 46 49  1  0  0  0  0
 47 51  1  0  0  0  0
 47 52  1  0  0  0  0
 48 54  1  0  0  0  0
 49 54  1  0  0  0  0
 50 55  1  0  0  0  0
 51 57  1  0  0  0  0
 52 71  1  0  0  0  0
 53 57  1  0  0  0  0
 53 71  1  0  0  0  0
 55 76  1  0  0  0  0
 56 70  1  0  0  0  0
 57 69  1  0  0  0  0
 58 66  1  0  0  0  0
 59 67  1  0  0  0  0
 60 67  1  0  0  0  0
 61 67  1  0  0  0  0
 62 78  1  0  0  0  0
 63 64  1  0  0  0  0
 64 86  1  0  0  0  0
 65 67  1  0  0  0  0
 65 77  1  0  0  0  0
 66 78  1  0  0  0  0
 68 69  1  0  0  0  0
M  CHG  1  78   1
M  ISO  4  39 100  64 101  75 100  86 101
M  END
> <Batch ID>
0062

> <Smiles>
CNC(C)C(=O)NC(C(=O)N1Cc2cc([101O:1][101CH2:1]CC(=O)Nc3cc([100NH:0][100C:0](=O)N4CCCC(n5nc(-c6ccc(Oc7ccc(F)cc7F)cc6)c(C(N)=O)c5N)C4)ccc3C3CCCCC3)ccc2CC1C(=O)NC1CCCc2ccccc21)C(C)(C)C

> <Shape>
0.232

> <Color>
0.209

> <Negative vol penalty>
0.000

$$$$

  -OEChem-04042323093D

 90 99  0     1  0  0  0  0  0999 V2000
  -26.4484  -35.2427   23.7374 C   0  0  0  0  0  0  0  0  0  0  0  0
  -26.9231  -33.9707   23.4340 C   0  0  0  0  0  0  0  0  0  0  0  0
  -24.0785  -13.9447   22.1536 C   0  0  0  0  0  0  0  0  0  0  0  0
  -22.3631  -14.8136   20.6909 C   0  0  0  0  0  0  0  0  0  0  0  0
  -25.1433  -35.4065   24.1999 C   0  0  0  0  0  0  0  0  0  0  0  0
  -26.0932  -32.8616   23.5940 C   0  0  0  0  0  0  0  0  0  0  0  0
  -26.3283  -29.6765   19.6639 C   0  0  0  0  0  0  0  0  0  0  0  0
  -24.0614  -12.7369   21.4562 C   0  0  0  0  0  0  0  0  0  0  0  0
  -22.3460  -13.6058   19.9934 C   0  0  0  0  0  0  0  0  0  0  0  0
  -27.4341  -28.8302   19.5955 C   0  0  0  0  0  0  0  0  0  0  0  0
  -22.1358   -9.9620   21.3284 C   0  0  0  0  0  0  0  0  0  0  0  0
  -22.1320   -8.7836   22.0746 C   0  0  0  0  0  0  0  0  0  0  0  0
  -26.1056  -27.0310   20.4995 C   0  0  0  0  0  0  0  0  0  0  0  0
  -29.6351  -20.4281   21.8726 C   0  0  0  0  0  0  0  0  0  0  0  0
  -29.1259  -22.3308   20.4736 C   0  0  0  0  0  0  0  0  0  0  0  0
  -24.2082   -8.1178   21.0337 C   0  0  0  0  0  0  0  0  0  0  0  0
  -23.2293  -14.9831   21.7711 C   0  0  0  0  0  0  0  0  0  0  0  0
  -22.9699  -16.4273   23.8578 C   0  0  0  0  0  0  0  0  0  0  0  0
  -24.2940  -34.2999   24.3565 C   0  0  0  0  0  0  0  0  0  0  0  0
  -25.1037  -29.2086   20.1617 C   0  0  0  0  0  0  0  0  0  0  0  0
  -24.7760  -33.0106   24.0603 C   0  0  0  0  0  0  0  0  0  0  0  0
  -24.9851  -27.8727   20.5708 C   0  0  0  0  0  0  0  0  0  0  0  0
  -30.9877  -20.5585   21.5578 C   0  0  0  0  0  0  0  0  0  0  0  0
  -31.4094  -21.5752   20.7009 C   0  0  0  0  0  0  0  0  0  0  0  0
  -30.4785  -22.4613   20.1588 C   0  0  0  0  0  0  0  0  0  0  0  0
  -28.7042  -21.3142   21.3305 C   0  0  0  0  0  0  0  0  0  0  0  0
  -23.1952  -12.5674   20.3761 C   0  0  0  0  0  0  0  0  0  0  0  0
  -27.3237  -27.5081   20.0160 C   0  0  0  0  0  0  0  0  0  0  0  0
  -23.1757  -10.2183   20.4347 C   0  0  0  0  0  0  0  0  0  0  0  0
  -23.1682   -7.8615   21.9273 C   0  0  0  0  0  0  0  0  0  0  0  0
  -24.2119   -9.2962   20.2875 C   0  0  0  0  0  0  0  0  0  0  0  0
  -23.2461  -16.2308   22.4915 C   0  0  0  0  0  0  0  0  0  0  0  0
  -23.1197  -17.7793   24.0475 C   0  0  0  0  0  0  0  0  0  0  0  0
  -30.0294  -25.6580   18.5450 C   0  0  0  0  0  0  0  0  0  0  0  0
  -31.5480  -23.2624   18.0461 C   0  0  0  0  0  0  0  0  0  0  0  0
  -28.9663  -26.4540   18.7270 C   0  0  0  0  0  0  0  0  0  1  0  0
  -22.6101  -15.4729   24.8656 C   0  0  0  0  0  0  0  0  0  0  0  0
  -23.2501  -29.9640   22.6310 C   0  0  0  0  0  0  0  0  0  0  0  0
  -21.2235  -27.8331   21.2619 C   0  0  0  0  0  0  0  0  0  0  0  0
  -20.8076  -25.1294   19.2214 C   0  0  0  0  0  0  0  0  0  0  0  0
  -26.2771  -21.9760   21.1972 C   0  0  0  0  0  0  0  0  0  0  0  0
  -22.9064  -34.5215   24.9045 C   0  0  0  0  0  0  0  0  0  0  0  0
  -23.9131  -30.1268   20.2041 C   0  0  0  0  0  0  0  0  0  0  0  0
  -23.6872  -27.3158   21.0940 C   0  0  0  0  0  0  0  0  0  0  0  0
  -30.6265  -25.4310   17.1811 C   0  0  0  0  0  0  0  0  0  0  0  0
  -30.6904  -24.9186   19.6732 C   0  0  0  0  0  0  0  0  0  0  0  0
  -31.8568  -24.5278   17.2588 C   0  0  0  0  0  0  0  0  0  0  0  0
  -21.9702  -33.3351   24.6900 C   0  0  0  0  0  0  0  0  0  0  0  0
  -22.7556  -21.9500   21.7220 C   0  0  0  0  0  0  0  0  0  0  0  0
  -22.6638  -32.0316   25.0730 C   0  0  0  0  0  0  0  0  0  0  0  0
  -22.4575  -20.4997   22.1091 C   0  0  0  0  0  0  0  0  0  0  0  0
  -23.8515  -22.0400   20.6614 C   0  0  0  0  0  0  0  0  0  0  0  0
  -24.7963  -19.8808   21.3784 C   0  0  0  0  0  0  0  0  0  0  0  0
  -23.8982  -31.7855   24.1972 C   0  0  1  0  0  0  0  0  0  0  0  0
  -22.8534  -29.6852   21.2088 C   0  0  1  0  0  0  0  0  0  0  0  0
  -23.7444  -19.7424   22.4911 C   0  0  2  0  0  0  0  0  0  0  0  0
  -32.8621  -21.7108   20.3666 C   0  0  0  0  0  0  0  0  0  0  0  0
  -19.0389  -23.5908   18.3259 C   0  0  0  0  0  0  0  0  0  0  0  0
  -21.1076  -26.4030   23.9547 C   0  0  0  0  0  0  0  0  0  0  0  0
  -20.1385  -24.4162   22.7791 C   0  0  0  0  0  0  0  0  0  0  0  0
  -18.9097  -26.5871   22.7758 C   0  0  0  0  0  0  0  0  0  0  0  0
  -21.3769  -25.9139   16.4251 C   0  0  0  0  0  0  0  0  0  0  0  0
  -21.0008  -26.3444   21.3757 C   0  0  1  0  0  0  0  0  0  0  0  0
  -19.8351  -24.8642   18.0863 C   0  0  2  0  0  0  0  0  0  0  0  0
  -31.9641  -19.5967   22.1523 C   0  0  0  0  0  0  0  0  0  0  0  0
  -20.3143  -25.9484   22.7133 C   0  0  0  0  0  0  0  0  0  0  0  0
  -23.5483  -17.3671   21.8579 N   0  0  0  0  0  0  0  0  0  0  0  0
  -23.4628  -18.2907   22.8305 N   0  0  0  0  0  0  0  0  0  0  0  0
  -30.8913  -23.5165   19.2717 N   0  0  0  0  0  0  0  0  0  0  0  0
  -22.5534  -28.2546   21.1219 N   0  0  0  0  0  0  0  0  0  0  0  0
  -25.0411  -21.3034   21.0939 N   0  0  0  0  0  0  0  0  0  0  0  0
  -22.9901  -18.5689   25.1348 N   0  0  0  0  0  0  0  0  0  0  0  0
  -21.2513  -15.1973   25.0701 N   0  0  0  0  0  0  0  0  0  0  0  0
  -27.3300  -21.1812   21.6493 N   0  0  0  0  0  0  0  0  0  0  0  0
  -23.5036  -31.2968   22.8934 N   0  0  0  0  0  0  0  0  0  0  0  0
  -20.2582  -25.9504   20.1833 N   0  0  0  0  0  0  0  0  0  0  0  0
  -20.5695  -24.7237   16.7972 N   0  3  0  0  0  0  0  0  0  0  0  0
  -31.8422  -22.1662   17.5730 O   0  0  0  0  0  0  0  0  0  0  0  0
  -23.4675  -14.8943   25.5752 O   0  0  0  0  0  0  0  0  0  0  0  0
  -23.3196  -29.0387   23.4314 O   0  0  0  0  0  0  0  0  0  0  0  0
  -20.2527  -28.5936   21.2888 O   0  0  0  0  0  0  0  0  0  0  0  0
  -21.9400  -24.6526   19.2535 O   0  0  0  0  0  0  0  0  0  0  0  0
  -26.3872  -23.1758   20.9320 O   0  0  0  0  0  0  0  0  0  0  0  0
  -23.1784  -11.3890   19.6951 O   0  0  0  0  0  0  0  0  0  0  0  0
  -28.4017  -26.6801   19.9509 O   0  0  0  0  0  0  0  0  0  1  0  0
  -23.1652   -6.7306   22.6452 F   0  0  0  0  0  0  0  0  0  0  0  0
  -25.2143   -9.5374   19.4314 F   0  0  0  0  0  0  0  0  0  0  0  0
  -31.3858  -18.6669   22.9672 F   0  0  0  0  0  0  0  0  0  0  0  0
  -32.6547  -18.8768   21.2208 F   0  0  0  0  0  0  0  0  0  0  0  0
  -32.9102  -20.2167   22.9144 F   0  0  0  0  0  0  0  0  0  0  0  0
  1  2  1  0  0  0  0
  1  5  2  0  0  0  0
  2  6  2  0  0  0  0
  3  8  2  0  0  0  0
  3 17  1  0  0  0  0
  4  9  1  0  0  0  0
  4 17  2  0  0  0  0
  5 19  1  0  0  0  0
  6 21  1  0  0  0  0
  7 10  2  0  0  0  0
  7 20  1  0  0  0  0
  8 27  1  0  0  0  0
  9 27  2  0  0  0  0
 10 28  1  0  0  0  0
 11 12  2  0  0  0  0
 11 29  1  0  0  0  0
 12 30  1  0  0  0  0
 13 22  1  0  0  0  0
 13 28  2  0  0  0  0
 14 23  2  0  0  0  0
 14 26  1  0  0  0  0
 15 25  1  0  0  0  0
 15 26  2  0  0  0  0
 16 30  2  0  0  0  0
 16 31  1  0  0  0  0
 17 32  1  0  0  0  0
 18 32  1  0  0  0  0
 18 33  2  0  0  0  0
 18 37  1  0  0  0  0
 19 21  2  0  0  0  0
 19 42  1  0  0  0  0
 20 22  2  0  0  0  0
 20 43  1  0  0  0  0
 21 54  1  0  0  0  0
 22 44  1  0  0  0  0
 23 24  1  0  0  0  0
 23 65  1  0  0  0  0
 24 25  2  0  0  0  0
 24 57  1  0  0  0  0
 25 69  1  0  0  0  0
 26 74  1  0  0  0  0
 27 84  1  0  0  0  0
 28 85  1  0  0  0  0
 29 31  2  0  0  0  0
 29 84  1  0  0  0  0
 30 86  1  0  0  0  0
 31 87  1  0  0  0  0
 32 67  2  0  0  0  0
 33 68  1  0  0  0  0
 33 72  1  0  0  0  0
 34 36  2  0  0  0  0
 34 45  1  0  0  0  0
 34 46  1  0  0  0  0
 35 47  1  0  0  0  0
 35 69  1  0  0  0  0
 35 78  2  0  0  0  0
 36 85  1  0  0  0  0
 37 73  1  0  0  0  0
 37 79  2  0  0  0  0
 38 55  1  0  0  0  0
 38 75  1  0  0  0  0
 38 80  2  0  0  0  0
 39 63  1  0  0  0  0
 39 70  1  0  0  0  0
 39 81  2  0  0  0  0
 40 64  1  0  0  0  0
 40 76  1  0  0  0  0
 40 82  2  0  0  0  0
 41 71  1  0  0  0  0
 41 74  1  0  0  0  0
 41 83  2  0  0  0  0
 42 48  1  0  0  0  0
 43 55  1  0  0  0  0
 44 70  1  0  0  0  0
 45 47  1  0  0  0  0
 46 69  1  0  0  0  0
 48 50  1  0  0  0  0
 49 51  1  0  0  0  0
 49 52  1  0  0  0  0
 50 54  1  0  0  0  0
 51 56  1  0  0  0  0
 52 71  1  0  0  0  0
 53 56  1  0  0  0  0
 53 71  1  0  0  0  0
 54 75  1  0  0  0  0
 55 70  1  0  0  0  0
 56 68  1  0  0  0  0
 58 64  1  0  0  0  0
 59 66  1  0  0  0  0
 60 66  1  0  0  0  0
 61 66  1  0  0  0  0
 62 77  1  0  0  0  0
 63 66  1  0  0  0  0
 63 76  1  0  0  0  0
 64 77  1  0  0  0  0
 65 88  1  0  0  0  0
 65 89  1  0  0  0  0
 65 90  1  0  0  0  0
 67 68  1  0  0  0  0
M  CHG  1  77   1
M  ISO  4  36 101  41 100  74 100  85 101
M  END
> <Batch ID>
0062

> <Smiles>
CNC(C)C(=O)NC(C(=O)N1Cc2cc([101O:1][101CH:1]=C3CCC(=O)N(c4cc([100NH:0][100C:0](=O)N5CCCC(n6nc(-c7ccc(Oc8ccc(F)cc8F)cc7)c(C(N)=O)c6N)C5)cc(C(F)(F)F)c4C)C3)ccc2CC1C(=O)NC1CCCc2ccccc21)C(C)(C)C

> <Shape>
0.252

> <Color>
0.075

> <Negative vol penalty>
0.000

$$$$

  -OEChem-04042323093D

 89 98  0     1  0  0  0  0  0999 V2000
  -19.7923  -17.4175   36.8984 C   0  0  0  0  0  0  0  0  0  0  0  0
  -20.9619  -16.7538   36.5421 C   0  0  0  0  0  0  0  0  0  0  0  0
  -22.8458  -10.1060   20.1099 C   0  0  0  0  0  0  0  0  0  0  0  0
  -24.2784   -9.5474   21.9734 C   0  0  0  0  0  0  0  0  0  0  0  0
  -33.6654  -11.9493   24.6489 C   0  0  0  0  0  0  0  0  0  0  0  0
  -19.0889  -18.1496   35.9428 C   0  0  0  0  0  0  0  0  0  0  0  0
  -21.4282  -16.8210   35.2297 C   0  0  0  0  0  0  0  0  0  0  0  0
  -27.2717  -16.9236   33.3996 C   0  0  0  0  0  0  0  0  0  0  0  0
  -32.8716  -12.2823   23.5513 C   0  0  0  0  0  0  0  0  0  0  0  0
  -22.1376   -8.9192   20.2986 C   0  0  0  0  0  0  0  0  0  0  0  0
  -23.5702   -8.3606   22.1621 C   0  0  0  0  0  0  0  0  0  0  0  0
  -28.1223  -15.9280   32.9210 C   0  0  0  0  0  0  0  0  0  0  0  0
  -20.6410   -7.4036   23.5494 C   0  0  0  0  0  0  0  0  0  0  0  0
  -20.2839   -7.0642   24.8543 C   0  0  0  0  0  0  0  0  0  0  0  0
  -27.5919  -16.5716   30.6574 C   0  0  0  0  0  0  0  0  0  0  0  0
  -30.9639  -12.5446   25.0104 C   0  0  0  0  0  0  0  0  0  0  0  0
  -21.5541   -5.0173   24.6695 C   0  0  0  0  0  0  0  0  0  0  0  0
  -23.9163  -10.4201   20.9473 C   0  0  0  0  0  0  0  0  0  0  0  0
  -33.1084  -11.9138   25.9272 C   0  0  0  0  0  0  0  0  0  0  0  0
  -24.1409  -12.9574   20.8090 C   0  0  0  0  0  0  0  0  0  0  0  0
  -19.5520  -18.2337   34.6203 C   0  0  0  0  0  0  0  0  0  0  0  0
  -26.5652  -17.7448   32.5092 C   0  0  0  0  0  0  0  0  0  0  0  0
  -20.7296  -17.5538   34.2552 C   0  0  0  0  0  0  0  0  0  0  0  0
  -26.7349  -17.5785   31.1273 C   0  0  0  0  0  0  0  0  0  0  0  0
  -31.7577  -12.2115   26.1080 C   0  0  0  0  0  0  0  0  0  0  0  0
  -31.5210  -12.5800   23.7321 C   0  0  0  0  0  0  0  0  0  0  0  0
  -22.4997   -8.0465   21.3247 C   0  0  0  0  0  0  0  0  0  0  0  0
  -28.2803  -15.7500   31.5497 C   0  0  0  0  0  0  0  0  0  0  0  0
  -21.4545   -6.5498   22.8044 C   0  0  0  0  0  0  0  0  0  0  0  0
  -20.7405   -5.8711   25.4144 C   0  0  0  0  0  0  0  0  0  0  0  0
  -21.9111   -5.3567   23.3645 C   0  0  0  0  0  0  0  0  0  0  0  0
  -24.6486  -11.6456   20.7526 C   0  0  0  0  0  0  0  0  0  0  0  0
  -25.2284  -13.7576   20.5570 C   0  0  0  0  0  0  0  0  0  0  0  0
  -31.1407  -11.0008   28.1826 C   0  0  0  0  0  0  0  0  0  0  0  0
  -33.9697  -11.5616   27.0501 C   0  0  0  0  0  0  0  0  0  0  0  0
  -22.8057  -13.4120   21.0663 C   0  0  0  0  0  0  0  0  0  0  0  0
  -34.6854  -12.4203   27.8097 C   0  0  0  0  0  0  0  0  0  0  0  0
  -23.4898  -18.2771   31.9076 C   0  0  0  0  0  0  0  0  0  0  0  0
  -24.6722  -20.5754   29.9475 C   0  0  0  0  0  0  0  0  0  0  0  0
  -27.2882  -21.7297   28.0844 C   0  0  0  0  0  0  0  0  0  0  0  0
  -31.1108  -12.9980   21.2819 C   0  0  0  0  0  0  0  0  0  0  0  0
  -18.7321  -18.9983   33.6113 C   0  0  0  0  0  0  0  0  0  0  0  0
  -25.6721  -18.8317   33.0416 C   0  0  0  0  0  0  0  0  0  0  0  0
  -26.0149  -18.4472   30.1296 C   0  0  0  0  0  0  0  0  0  0  0  0
  -30.7719  -11.1447   29.6471 C   0  0  0  0  0  0  0  0  0  0  0  0
  -19.4948  -19.3275   32.3306 C   0  0  0  0  0  0  0  0  0  0  0  0
  -29.7306  -12.2059   29.9275 C   0  0  0  0  0  0  0  0  0  0  0  0
  -29.4206  -13.7587   18.2419 C   0  0  0  0  0  0  0  0  0  0  0  0
  -20.2427  -18.0985   31.8238 C   0  0  0  0  0  0  0  0  0  0  0  0
  -27.9580  -13.4283   18.5478 C   0  0  0  0  0  0  0  0  0  0  0  0
  -30.3770  -12.7779   18.9180 C   0  0  0  0  0  0  0  0  0  0  0  0
  -30.3706  -13.3644   27.8318 C   0  0  0  0  0  0  0  0  0  0  0  0
  -28.7167  -12.2845   20.6699 C   0  0  0  0  0  0  0  0  0  0  0  0
  -21.2807  -17.6232   32.8476 C   0  0  1  0  0  0  0  0  0  0  0  0
  -24.6070  -19.2728   32.0424 C   0  0  1  0  0  0  0  0  0  0  0  0
  -30.2048  -13.5259   29.3421 C   0  0  1  0  0  0  0  0  0  0  0  0
  -27.7180  -13.2837   20.0634 C   0  0  2  0  0  0  0  0  0  0  0  0
  -35.5506  -11.9108   28.9313 C   0  0  0  0  0  0  0  0  0  0  0  0
  -34.6933  -13.9157   27.6479 C   0  0  0  0  0  0  0  0  0  0  0  0
  -27.9429  -23.6155   26.5638 C   0  0  0  0  0  0  0  0  0  0  0  0
  -23.0163  -19.3377   27.7035 C   0  0  0  0  0  0  0  0  0  0  0  0
  -24.4069  -20.6209   26.0640 C   0  0  0  0  0  0  0  0  0  0  0  0
  -23.0184  -21.8383   27.7411 C   0  0  0  0  0  0  0  0  0  0  0  0
  -29.4778  -22.5764   29.8865 C   0  0  0  0  0  0  0  0  0  0  0  0
  -29.2241  -14.6518   29.6631 C   0  0  0  0  0  0  0  0  0  1  0  0
  -25.1044  -20.6293   28.5021 C   0  0  1  0  0  0  0  0  0  0  0  0
  -27.9334  -23.1009   27.9948 C   0  0  2  0  0  0  0  0  0  0  0  0
  -23.8987  -20.5887   27.5212 C   0  0  0  0  0  0  0  0  0  0  0  0
  -25.9568  -11.6100   20.4855 N   0  0  0  0  0  0  0  0  0  0  0  0
  -26.2804  -12.9094   20.3718 N   0  0  0  0  0  0  0  0  0  0  0  0
  -31.1511  -12.1827   27.4218 N   0  0  0  0  0  0  0  0  0  0  0  0
  -25.1480  -19.4919   30.6994 N   0  0  0  0  0  0  0  0  0  0  0  0
  -30.0932  -12.6960   20.3524 N   0  0  0  0  0  0  0  0  0  0  0  0
  -25.3780  -15.0969   20.4779 N   0  0  0  0  0  0  0  0  0  0  0  0
  -21.8089  -12.4562   21.3054 N   0  0  0  0  0  0  0  0  0  0  0  0
  -30.7150  -12.9176   22.6166 N   0  0  0  0  0  0  0  0  0  0  0  0
  -22.4559  -18.4668   32.8047 N   0  0  0  0  0  0  0  0  0  0  0  0
  -25.9421  -21.8164   28.3704 N   0  0  0  0  0  0  0  0  0  0  0  0
  -29.3403  -23.0442   28.4832 N   0  3  0  0  0  0  0  0  0  0  0  0
  -31.4611   -9.8818   27.7727 O   0  0  0  0  0  0  0  0  0  0  0  0
  -22.5021  -14.6291   21.0674 O   0  0  0  0  0  0  0  0  0  0  0  0
  -23.5598  -17.4026   31.0521 O   0  0  0  0  0  0  0  0  0  0  0  0
  -23.9453  -21.4660   30.3950 O   0  0  0  0  0  0  0  0  0  0  0  0
  -27.9147  -20.6862   27.9138 O   0  0  0  0  0  0  0  0  0  0  0  0
  -32.2421  -13.3317   20.9200 O   0  0  0  0  0  0  0  0  0  0  0  0
  -21.8087   -6.8885   21.5092 O   0  0  0  0  0  0  0  0  0  0  0  0
  -29.1095  -14.7786   31.0798 O   0  0  0  0  0  0  0  0  0  1  0  0
  -20.3988   -5.5461   26.6681 F   0  0  0  0  0  0  0  0  0  0  0  0
  -22.6939   -4.5330   22.6542 F   0  0  0  0  0  0  0  0  0  0  0  0
  1  2  1  0  0  0  0
  1  6  2  0  0  0  0
  2  7  2  0  0  0  0
  3 10  2  0  0  0  0
  3 18  1  0  0  0  0
  4 11  1  0  0  0  0
  4 18  2  0  0  0  0
  5  9  2  0  0  0  0
  5 19  1  0  0  0  0
  6 21  1  0  0  0  0
  7 23  1  0  0  0  0
  8 12  2  0  0  0  0
  8 22  1  0  0  0  0
  9 26  1  0  0  0  0
 10 27  1  0  0  0  0
 11 27  2  0  0  0  0
 12 28  1  0  0  0  0
 13 14  2  0  0  0  0
 13 29  1  0  0  0  0
 14 30  1  0  0  0  0
 15 24  1  0  0  0  0
 15 28  2  0  0  0  0
 16 25  1  0  0  0  0
 16 26  2  0  0  0  0
 17 30  2  0  0  0  0
 17 31  1  0  0  0  0
 18 32  1  0  0  0  0
 19 25  2  0  0  0  0
 19 35  1  0  0  0  0
 20 32  1  0  0  0  0
 20 33  2  0  0  0  0
 20 36  1  0  0  0  0
 21 23  2  0  0  0  0
 21 42  1  0  0  0  0
 22 24  2  0  0  0  0
 22 43  1  0  0  0  0
 23 54  1  0  0  0  0
 24 44  1  0  0  0  0
 25 71  1  0  0  0  0
 26 76  1  0  0  0  0
 27 86  1  0  0  0  0
 28 87  1  0  0  0  0
 29 31  2  0  0  0  0
 29 86  1  0  0  0  0
 30 88  1  0  0  0  0
 31 89  1  0  0  0  0
 32 69  2  0  0  0  0
 33 70  1  0  0  0  0
 33 74  1  0  0  0  0
 34 45  1  0  0  0  0
 34 71  1  0  0  0  0
 34 80  2  0  0  0  0
 35 37  2  0  0  0  0
 36 75  1  0  0  0  0
 36 81  2  0  0  0  0
 37 58  1  0  0  0  0
 37 59  1  0  0  0  0
 38 55  1  0  0  0  0
 38 77  1  0  0  0  0
 38 82  2  0  0  0  0
 39 66  1  0  0  0  0
 39 72  1  0  0  0  0
 39 83  2  0  0  0  0
 40 67  1  0  0  0  0
 40 78  1  0  0  0  0
 40 84  2  0  0  0  0
 41 73  1  0  0  0  0
 41 76  1  0  0  0  0
 41 85  2  0  0  0  0
 42 46  1  0  0  0  0
 43 55  1  0  0  0  0
 44 72  1  0  0  0  0
 45 47  1  0  0  0  0
 46 49  1  0  0  0  0
 47 56  1  0  0  0  0
 48 50  1  0  0  0  0
 48 51  1  0  0  0  0
 49 54  1  0  0  0  0
 50 57  1  0  0  0  0
 51 73  1  0  0  0  0
 52 56  1  0  0  0  0
 52 71  1  0  0  0  0
 53 57  1  0  0  0  0
 53 73  1  0  0  0  0
 54 77  1  0  0  0  0
 55 72  1  0  0  0  0
 56 65  1  0  0  0  0
 57 70  1  0  0  0  0
 60 67  1  0  0  0  0
 61 68  1  0  0  0  0
 62 68  1  0  0  0  0
 63 68  1  0  0  0  0
 64 79  1  0  0  0  0
 65 87  1  0  0  0  0
 66 68  1  0  0  0  0
 66 78  1  0  0  0  0
 67 79  1  0  0  0  0
 69 70  1  0  0  0  0
M  CHG  1  79   1
M  ISO  4  41 100  65 101  76 100  87 101
M  END
> <Batch ID>
0062

> <Smiles>
CNC(C)C(=O)NC(C(=O)N1Cc2cc([101O:1][101CH2:1]C3CCC(=O)N(c4cc([100NH:0][100C:0](=O)N5CCCC(n6nc(-c7ccc(Oc8ccc(F)cc8F)cc7)c(C(N)=O)c6N)C5)ccc4C=C(C)C)C3)ccc2CC1C(=O)NC1CCCc2ccccc21)C(C)(C)C

> <Shape>
0.149

> <Color>
0.174

> <Negative vol penalty>
0.000

$$$$

  -OEChem-04042323093D

 84 92  0     1  0  0  0  0  0999 V2000
  -16.7715  -26.5623   30.9827 C   0  0  0  0  0  0  0  0  0  0  0  0
  -18.0728  -26.3978   30.5192 C   0  0  0  0  0  0  0  0  0  0  0  0
  -23.0755   -9.8687   19.9408 C   0  0  0  0  0  0  0  0  0  0  0  0
  -23.8352   -9.8748   22.2343 C   0  0  0  0  0  0  0  0  0  0  0  0
  -16.0319  -25.4524   31.3889 C   0  0  0  0  0  0  0  0  0  0  0  0
  -18.6357  -25.1233   30.4627 C   0  0  0  0  0  0  0  0  0  0  0  0
  -22.5789  -23.0226   26.2741 C   0  0  0  0  0  0  0  0  0  0  0  0
  -22.3312   -8.7157   20.1904 C   0  0  0  0  0  0  0  0  0  0  0  0
  -23.0908   -8.7219   22.4839 C   0  0  0  0  0  0  0  0  0  0  0  0
  -23.9662  -22.8834   26.2784 C   0  0  0  0  0  0  0  0  0  0  0  0
  -21.1048   -5.9852   23.8196 C   0  0  0  0  0  0  0  0  0  0  0  0
  -20.3484   -5.9416   24.9907 C   0  0  0  0  0  0  0  0  0  0  0  0
  -23.7267  -20.5774   26.9447 C   0  0  0  0  0  0  0  0  0  0  0  0
  -29.8809  -17.4552   23.1409 C   0  0  0  0  0  0  0  0  0  0  0  0
  -32.0648  -16.6064   22.5521 C   0  0  0  0  0  0  0  0  0  0  0  0
  -19.1046   -7.8795   24.2595 C   0  0  0  0  0  0  0  0  0  0  0  0
  -23.8276  -10.4482   20.9627 C   0  0  0  0  0  0  0  0  0  0  0  0
  -24.1703  -12.9732   20.8434 C   0  0  0  0  0  0  0  0  0  0  0  0
  -16.5826  -24.1626   31.3283 C   0  0  0  0  0  0  0  0  0  0  0  0
  -21.7541  -21.9414   26.6162 C   0  0  0  0  0  0  0  0  0  0  0  0
  -17.9033  -23.9953   30.8698 C   0  0  0  0  0  0  0  0  0  0  0  0
  -22.3293  -20.7047   26.9415 C   0  0  0  0  0  0  0  0  0  0  0  0
  -31.8541  -18.3567   24.2041 C   0  0  0  0  0  0  0  0  0  0  0  0
  -30.6791  -16.5889   22.3939 C   0  0  0  0  0  0  0  0  0  0  0  0
  -30.4684  -18.3391   24.0460 C   0  0  0  0  0  0  0  0  0  0  0  0
  -22.3388   -8.1423   21.4619 C   0  0  0  0  0  0  0  0  0  0  0  0
  -24.5404  -21.6615   26.6166 C   0  0  0  0  0  0  0  0  0  0  0  0
  -20.8612   -6.9760   22.8685 C   0  0  0  0  0  0  0  0  0  0  0  0
  -19.3483   -6.8887   25.2107 C   0  0  0  0  0  0  0  0  0  0  0  0
  -32.6524  -17.4903   23.4572 C   0  0  0  0  0  0  0  0  0  0  0  0
  -19.8610   -7.9231   23.0884 C   0  0  0  0  0  0  0  0  0  0  0  0
  -24.5971  -11.6388   20.7054 C   0  0  0  0  0  0  0  0  0  0  0  0
  -25.2628  -13.7224   20.4804 C   0  0  0  0  0  0  0  0  0  0  0  0
  -27.7603  -20.3500   25.6916 C   0  0  0  0  0  0  0  0  0  0  0  0
  -26.4492  -20.5923   25.7897 C   0  0  0  0  0  0  0  0  0  1  0  0
  -22.9000  -13.4894   21.2623 C   0  0  0  0  0  0  0  0  0  0  0  0
  -28.2567  -19.3078   24.7463 C   0  0  0  0  0  0  0  0  0  0  0  0
  -19.6303  -21.3793   28.9135 C   0  0  0  0  0  0  0  0  0  0  0  0
  -19.1141  -18.6537   27.2321 C   0  0  0  0  0  0  0  0  0  0  0  0
  -20.3076  -16.3423   25.0232 C   0  0  0  0  0  0  0  0  0  0  0  0
  -30.7294  -14.7660   20.6559 C   0  0  0  0  0  0  0  0  0  0  0  0
  -15.7611  -22.9985   31.8229 C   0  0  0  0  0  0  0  0  0  0  0  0
  -20.2588  -22.1003   26.5809 C   0  0  0  0  0  0  0  0  0  0  0  0
  -21.4874  -19.5074   27.2968 C   0  0  0  0  0  0  0  0  0  0  0  0
  -16.2995  -21.6408   31.3791 C   0  0  0  0  0  0  0  0  0  0  0  0
  -29.6143  -12.3531   18.2869 C   0  0  0  0  0  0  0  0  0  0  0  0
  -17.8068  -21.5659   31.6009 C   0  0  0  0  0  0  0  0  0  0  0  0
  -28.1745  -12.0620   18.7163 C   0  0  0  0  0  0  0  0  0  0  0  0
  -30.5294  -12.5813   19.4887 C   0  0  0  0  0  0  0  0  0  0  0  0
  -28.6226  -13.3061   20.8700 C   0  0  0  0  0  0  0  0  0  0  0  0
  -18.5401  -22.6261   30.7703 C   0  0  1  0  0  0  0  0  0  0  0  0
  -19.5286  -21.0770   27.4452 C   0  0  1  0  0  0  0  0  0  0  0  0
  -27.6498  -13.1335   19.6920 C   0  0  2  0  0  0  0  0  0  0  0  0
  -32.5073  -19.2933   25.1683 C   0  0  0  0  0  0  0  0  0  0  0  0
  -19.6698  -14.2069   23.8696 C   0  0  0  0  0  0  0  0  0  0  0  0
  -19.5988  -17.1133   29.8210 C   0  0  0  0  0  0  0  0  0  0  0  0
  -19.8924  -15.0391   28.4500 C   0  0  0  0  0  0  0  0  0  0  0  0
  -17.7099  -16.2469   28.4296 C   0  0  0  0  0  0  0  0  0  0  0  0
  -20.5532  -17.5794   22.3458 C   0  0  0  0  0  0  0  0  0  0  0  0
  -19.6996  -17.2623   27.2454 C   0  0  1  0  0  0  0  0  0  0  0  0
  -19.6921  -15.7249   23.7804 C   0  0  2  0  0  0  0  0  0  0  0  0
  -19.2413  -16.4383   28.4817 C   0  0  0  0  0  0  0  0  0  0  0  0
  -25.8620  -11.5427   20.2872 N   0  0  0  0  0  0  0  0  0  0  0  0
  -26.2394  -12.8261   20.1592 N   0  0  0  0  0  0  0  0  0  0  0  0
  -20.0304  -19.7147   27.2540 N   0  0  0  0  0  0  0  0  0  0  0  0
  -29.9707  -13.6121   20.3663 N   0  0  0  0  0  0  0  0  0  0  0  0
  -25.4737  -15.0538   20.4077 N   0  0  0  0  0  0  0  0  0  0  0  0
  -21.8877  -12.5805   21.5992 N   0  0  0  0  0  0  0  0  0  0  0  0
  -29.6410  -19.2114   24.7952 N   0  0  0  0  0  0  0  0  0  0  0  0
  -30.0823  -15.6910   21.4745 N   0  0  0  0  0  0  0  0  0  0  0  0
  -18.6326  -22.2096   29.3874 N   0  0  0  0  0  0  0  0  0  0  0  0
  -19.3503  -16.6603   25.9632 N   0  0  0  0  0  0  0  0  0  0  0  0
  -20.4696  -16.1132   22.5697 N   0  3  0  0  0  0  0  0  0  0  0  0
  -22.6642  -14.7201   21.3199 O   0  0  0  0  0  0  0  0  0  0  0  0
  -27.4827  -18.6614   24.0500 O   0  0  0  0  0  0  0  0  0  0  0  0
  -20.5454  -20.8939   29.5683 O   0  0  0  0  0  0  0  0  0  0  0  0
  -17.8891  -18.7940   27.1963 O   0  0  0  0  0  0  0  0  0  0  0  0
  -21.5171  -16.5209   25.1491 O   0  0  0  0  0  0  0  0  0  0  0  0
  -31.8586  -14.9344   20.1884 O   0  0  0  0  0  0  0  0  0  0  0  0
  -21.6125   -7.0174   21.7059 O   0  0  0  0  0  0  0  0  0  0  0  0
  -25.8941  -21.5232   26.6222 O   0  0  0  0  0  0  0  0  0  1  0  0
  -18.6209   -6.8458   26.3347 F   0  0  0  0  0  0  0  0  0  0  0  0
  -33.9849  -17.4981   23.6029 F   0  0  0  0  0  0  0  0  0  0  0  0
  -19.6216   -8.8766   22.1778 F   0  0  0  0  0  0  0  0  0  0  0  0
  1  2  1  0  0  0  0
  1  5  2  0  0  0  0
  2  6  2  0  0  0  0
  3  8  2  0  0  0  0
  3 17  1  0  0  0  0
  4  9  1  0  0  0  0
  4 17  2  0  0  0  0
  5 19  1  0  0  0  0
  6 21  1  0  0  0  0
  7 10  2  0  0  0  0
  7 20  1  0  0  0  0
  8 26  1  0  0  0  0
  9 26  2  0  0  0  0
 10 27  1  0  0  0  0
 11 12  2  0  0  0  0
 11 28  1  0  0  0  0
 12 29  1  0  0  0  0
 13 22  1  0  0  0  0
 13 27  2  0  0  0  0
 14 24  2  0  0  0  0
 14 25  1  0  0  0  0
 15 24  1  0  0  0  0
 15 30  2  0  0  0  0
 16 29  2  0  0  0  0
 16 31  1  0  0  0  0
 17 32  1  0  0  0  0
 18 32  1  0  0  0  0
 18 33  2  0  0  0  0
 18 36  1  0  0  0  0
 19 21  2  0  0  0  0
 19 42  1  0  0  0  0
 20 22  2  0  0  0  0
 20 43  1  0  0  0  0
 21 51  1  0  0  0  0
 22 44  1  0  0  0  0
 23 25  2  0  0  0  0
 23 30  1  0  0  0  0
 23 54  1  0  0  0  0
 24 70  1  0  0  0  0
 25 69  1  0  0  0  0
 26 80  1  0  0  0  0
 27 81  1  0  0  0  0
 28 31  2  0  0  0  0
 28 80  1  0  0  0  0
 29 82  1  0  0  0  0
 30 83  1  0  0  0  0
 31 84  1  0  0  0  0
 32 63  2  0  0  0  0
 33 64  1  0  0  0  0
 33 67  1  0  0  0  0
 34 35  2  0  0  0  0
 34 37  1  0  0  0  0
 35 81  1  0  0  0  0
 36 68  1  0  0  0  0
 36 74  2  0  0  0  0
 37 69  1  0  0  0  0
 37 75  2  0  0  0  0
 38 52  1  0  0  0  0
 38 71  1  0  0  0  0
 38 76  2  0  0  0  0
 39 60  1  0  0  0  0
 39 65  1  0  0  0  0
 39 77  2  0  0  0  0
 40 61  1  0  0  0  0
 40 72  1  0  0  0  0
 40 78  2  0  0  0  0
 41 66  1  0  0  0  0
 41 70  1  0  0  0  0
 41 79  2  0  0  0  0
 42 45  1  0  0  0  0
 43 52  1  0  0  0  0
 44 65  1  0  0  0  0
 45 47  1  0  0  0  0
 46 48  1  0  0  0  0
 46 49  1  0  0  0  0
 47 51  1  0  0  0  0
 48 53  1  0  0  0  0
 49 66  1  0  0  0  0
 50 53  1  0  0  0  0
 50 66  1  0  0  0  0
 51 71  1  0  0  0  0
 52 65  1  0  0  0  0
 53 64  1  0  0  0  0
 55 61  1  0  0  0  0
 56 62  1  0  0  0  0
 57 62  1  0  0  0  0
 58 62  1  0  0  0  0
 59 73  1  0  0  0  0
 60 62  1  0  0  0  0
 60 72  1  0  0  0  0
 61 73  1  0  0  0  0
 63 64  1  0  0  0  0
M  CHG  1  73   1
M  ISO  4  35 101  41 100  70 100  81 101
M  END
> <Batch ID>
0062

> <Smiles>
CNC(C)C(=O)NC(C(=O)N1Cc2cc([101O:1][101CH:1]=CC(=O)Nc3cc([100NH:0][100C:0](=O)N4CCCC(n5nc(-c6ccc(Oc7ccc(F)cc7F)cc6)c(C(N)=O)c5N)C4)cc(F)c3C)ccc2CC1C(=O)NC1CCCc2ccccc21)C(C)(C)C

> <Shape>
0.160

> <Color>
0.192

> <Negative vol penalty>
0.000

$$$$

  -OEChem-04042323093D

 84 92  0     1  0  0  0  0  0999 V2000
  -32.7276  -19.1908   14.6421 C   0  0  0  0  0  0  0  0  0  0  0  0
  -31.7665  -19.3102   15.6407 C   0  0  0  0  0  0  0  0  0  0  0  0
  -23.0745   -9.8673   19.9438 C   0  0  0  0  0  0  0  0  0  0  0  0
  -23.8314   -9.8794   22.2381 C   0  0  0  0  0  0  0  0  0  0  0  0
  -34.0451  -19.5703   14.8952 C   0  0  0  0  0  0  0  0  0  0  0  0
  -32.1226  -19.8083   16.8935 C   0  0  0  0  0  0  0  0  0  0  0  0
  -28.6801  -23.2656   20.5952 C   0  0  0  0  0  0  0  0  0  0  0  0
  -32.6477  -17.4974   23.4512 C   0  0  0  0  0  0  0  0  0  0  0  0
  -32.0607  -16.6114   22.5478 C   0  0  0  0  0  0  0  0  0  0  0  0
  -22.3299   -8.7150   20.1955 C   0  0  0  0  0  0  0  0  0  0  0  0
  -23.0867   -8.7272   22.4899 C   0  0  0  0  0  0  0  0  0  0  0  0
  -27.8955  -22.9571   21.7056 C   0  0  0  0  0  0  0  0  0  0  0  0
  -19.3794   -7.9230   21.6448 C   0  0  0  0  0  0  0  0  0  0  0  0
  -18.0731   -7.8760   21.1579 C   0  0  0  0  0  0  0  0  0  0  0  0
  -29.7287  -23.5484   23.1577 C   0  0  0  0  0  0  0  0  0  0  0  0
  -29.8764  -17.4623   23.1324 C   0  0  0  0  0  0  0  0  0  0  0  0
  -18.6339   -5.9296   19.8411 C   0  0  0  0  0  0  0  0  0  0  0  0
  -23.8253  -10.4495   20.9651 C   0  0  0  0  0  0  0  0  0  0  0  0
  -24.1682  -12.9742   20.8394 C   0  0  0  0  0  0  0  0  0  0  0  0
  -34.4156  -20.0823   16.1486 C   0  0  0  0  0  0  0  0  0  0  0  0
  -30.0008  -23.7083   20.7577 C   0  0  0  0  0  0  0  0  0  0  0  0
  -33.4466  -20.1938   17.1641 C   0  0  0  0  0  0  0  0  0  0  0  0
  -30.5272  -23.8644   22.0479 C   0  0  0  0  0  0  0  0  0  0  0  0
  -31.8490  -18.3658   24.1952 C   0  0  0  0  0  0  0  0  0  0  0  0
  -30.6751  -16.5939   22.3884 C   0  0  0  0  0  0  0  0  0  0  0  0
  -30.4634  -18.3483   24.0358 C   0  0  0  0  0  0  0  0  0  0  0  0
  -22.3359   -8.1450   21.4685 C   0  0  0  0  0  0  0  0  0  0  0  0
  -28.4207  -23.0957   22.9870 C   0  0  0  0  0  0  0  0  0  0  0  0
  -20.3130   -6.9732   21.2297 C   0  0  0  0  0  0  0  0  0  0  0  0
  -17.7003   -6.8794   20.2561 C   0  0  0  0  0  0  0  0  0  0  0  0
  -19.9402   -5.9766   20.3279 C   0  0  0  0  0  0  0  0  0  0  0  0
  -24.5952  -11.6394   20.7055 C   0  0  0  0  0  0  0  0  0  0  0  0
  -25.2611  -13.7224   20.4758 C   0  0  0  0  0  0  0  0  0  0  0  0
  -22.8974  -13.4915   21.2554 C   0  0  0  0  0  0  0  0  0  0  0  0
  -32.8566  -22.6100   19.8966 C   0  0  0  0  0  0  0  0  0  0  0  0
  -33.8767  -25.4462   21.0957 C   0  0  0  0  0  0  0  0  0  0  0  0
  -28.2487  -19.3224   24.7350 C   0  0  0  0  0  0  0  0  0  0  0  0
  -33.3119  -28.0737   23.1990 C   0  0  0  0  0  0  0  0  0  0  0  0
  -30.7275  -14.7664   20.6552 C   0  0  0  0  0  0  0  0  0  0  0  0
  -35.8619  -20.4350   16.3901 C   0  0  0  0  0  0  0  0  0  0  0  0
  -30.8253  -24.0625   19.5506 C   0  0  0  0  0  0  0  0  0  0  0  0
  -31.9325  -24.3553   22.2770 C   0  0  0  0  0  0  0  0  0  0  0  0
  -36.0787  -21.3044   17.6260 C   0  0  0  0  0  0  0  0  0  0  0  0
  -29.6153  -12.3473   18.2913 C   0  0  0  0  0  0  0  0  0  0  0  0
  -35.2957  -20.7506   18.8122 C   0  0  0  0  0  0  0  0  0  0  0  0
  -28.1750  -12.0573   18.7196 C   0  0  0  0  0  0  0  0  0  0  0  0
  -30.5289  -12.5786   19.4936 C   0  0  0  0  0  0  0  0  0  0  0  0
  -28.6204  -13.3071   20.8706 C   0  0  0  0  0  0  0  0  0  0  0  0
  -33.7888  -20.7529   18.5280 C   0  0  1  0  0  0  0  0  0  0  0  0
  -32.3266  -24.0137   19.8172 C   0  0  1  0  0  0  0  0  0  0  0  0
  -27.6491  -13.1314   19.6919 C   0  0  2  0  0  0  0  0  0  0  0  0
  -32.5050  -19.3041   25.1555 C   0  0  0  0  0  0  0  0  0  0  0  0
  -34.3427  -30.2205   23.9903 C   0  0  0  0  0  0  0  0  0  0  0  0
  -35.8205  -23.8674   22.8390 C   0  0  0  0  0  0  0  0  0  0  0  0
  -36.1197  -25.9193   24.2421 C   0  0  0  0  0  0  0  0  0  0  0  0
  -36.7746  -25.9499   21.8353 C   0  0  0  0  0  0  0  0  0  0  0  0
  -31.0407  -29.6748   22.1805 C   0  0  0  0  0  0  0  0  0  0  0  0
  -27.7586  -20.3914   25.7019 C   0  0  0  0  0  0  0  0  0  0  0  0
  -26.4716  -21.0616   25.2334 C   0  0  0  0  0  0  0  0  0  0  0  0
  -26.6639  -21.7834   23.9076 C   0  0  0  0  0  0  0  0  0  1  0  0
  -34.3229  -25.9348   22.4526 C   0  0  1  0  0  0  0  0  0  0  0  0
  -33.4035  -29.5737   22.9841 C   0  0  2  0  0  0  0  0  0  0  0  0
  -35.7335  -25.4067   22.8382 C   0  0  0  0  0  0  0  0  0  0  0  0
  -25.8605  -11.5421   20.2891 N   0  0  0  0  0  0  0  0  0  0  0  0
  -26.2381  -12.8253   20.1582 N   0  0  0  0  0  0  0  0  0  0  0  0
  -32.7011  -24.6828   21.0647 N   0  0  0  0  0  0  0  0  0  0  0  0
  -29.9692  -13.6118   20.3677 N   0  0  0  0  0  0  0  0  0  0  0  0
  -25.4721  -15.0536   20.3999 N   0  0  0  0  0  0  0  0  0  0  0  0
  -21.8847  -12.5835   21.5936 N   0  0  0  0  0  0  0  0  0  0  0  0
  -29.6363  -19.2215   24.7817 N   0  0  0  0  0  0  0  0  0  0  0  0
  -30.0794  -15.6936   21.4705 N   0  0  0  0  0  0  0  0  0  0  0  0
  -33.2480  -22.0867   18.6790 N   0  0  0  0  0  0  0  0  0  0  0  0
  -34.2185  -27.3895   22.4173 N   0  0  0  0  0  0  0  0  0  0  0  0
  -32.0589  -30.2004   23.1261 N   0  3  0  0  0  0  0  0  0  0  0  0
  -22.6615  -14.7223   21.3095 O   0  0  0  0  0  0  0  0  0  0  0  0
  -32.9082  -22.0442   20.9823 O   0  0  0  0  0  0  0  0  0  0  0  0
  -34.5427  -25.7374   20.0991 O   0  0  0  0  0  0  0  0  0  0  0  0
  -27.4774  -18.6728   24.0370 O   0  0  0  0  0  0  0  0  0  0  0  0
  -32.5182  -27.5606   23.9846 O   0  0  0  0  0  0  0  0  0  0  0  0
  -31.8573  -14.9335   20.1887 O   0  0  0  0  0  0  0  0  0  0  0  0
  -21.6092   -7.0207   21.7146 O   0  0  0  0  0  0  0  0  0  0  0  0
  -27.6572  -22.7946   24.0725 O   0  0  0  0  0  0  0  0  0  1  0  0
  -16.4455   -6.8335   19.7898 F   0  0  0  0  0  0  0  0  0  0  0  0
  -20.8323   -5.0607   19.9265 F   0  0  0  0  0  0  0  0  0  0  0  0
  1  2  1  0  0  0  0
  1  5  2  0  0  0  0
  2  6  2  0  0  0  0
  3 10  2  0  0  0  0
  3 18  1  0  0  0  0
  4 11  1  0  0  0  0
  4 18  2  0  0  0  0
  5 20  1  0  0  0  0
  6 22  1  0  0  0  0
  7 12  2  0  0  0  0
  7 21  1  0  0  0  0
  8  9  2  0  0  0  0
  8 24  1  0  0  0  0
  9 25  1  0  0  0  0
 10 27  1  0  0  0  0
 11 27  2  0  0  0  0
 12 28  1  0  0  0  0
 13 14  2  0  0  0  0
 13 29  1  0  0  0  0
 14 30  1  0  0  0  0
 15 23  1  0  0  0  0
 15 28  2  0  0  0  0
 16 25  2  0  0  0  0
 16 26  1  0  0  0  0
 17 30  2  0  0  0  0
 17 31  1  0  0  0  0
 18 32  1  0  0  0  0
 19 32  1  0  0  0  0
 19 33  2  0  0  0  0
 19 34  1  0  0  0  0
 20 22  2  0  0  0  0
 20 40  1  0  0  0  0
 21 23  2  0  0  0  0
 21 41  1  0  0  0  0
 22 49  1  0  0  0  0
 23 42  1  0  0  0  0
 24 26  2  0  0  0  0
 24 52  1  0  0  0  0
 25 71  1  0  0  0  0
 26 70  1  0  0  0  0
 27 81  1  0  0  0  0
 28 82  1  0  0  0  0
 29 31  2  0  0  0  0
 29 81  1  0  0  0  0
 30 83  1  0  0  0  0
 31 84  1  0  0  0  0
 32 64  2  0  0  0  0
 33 65  1  0  0  0  0
 33 68  1  0  0  0  0
 34 69  1  0  0  0  0
 34 75  2  0  0  0  0
 35 50  1  0  0  0  0
 35 72  1  0  0  0  0
 35 76  2  0  0  0  0
 36 61  1  0  0  0  0
 36 66  1  0  0  0  0
 36 77  2  0  0  0  0
 37 58  1  0  0  0  0
 37 70  1  0  0  0  0
 37 78  2  0  0  0  0
 38 62  1  0  0  0  0
 38 73  1  0  0  0  0
 38 79  2  0  0  0  0
 39 67  1  0  0  0  0
 39 71  1  0  0  0  0
 39 80  2  0  0  0  0
 40 43  1  0  0  0  0
 41 50  1  0  0  0  0
 42 66  1  0  0  0  0
 43 45  1  0  0  0  0
 44 46  1  0  0  0  0
 44 47  1  0  0  0  0
 45 49  1  0  0  0  0
 46 51  1  0  0  0  0
 47 67  1  0  0  0  0
 48 51  1  0  0  0  0
 48 67  1  0  0  0  0
 49 72  1  0  0  0  0
 50 66  1  0  0  0  0
 51 65  1  0  0  0  0
 53 62  1  0  0  0  0
 54 63  1  0  0  0  0
 55 63  1  0  0  0  0
 56 63  1  0  0  0  0
 57 74  1  0  0  0  0
 58 59  1  0  0  0  0
 59 60  1  0  0  0  0
 60 82  1  0  0  0  0
 61 63  1  0  0  0  0
 61 73  1  0  0  0  0
 62 74  1  0  0  0  0
 64 65  1  0  0  0  0
M  CHG  1  74   1
M  ISO  4  39 100  60 101  71 100  82 101
M  END
> <Batch ID>
0062

> <Smiles>
CNC(C)C(=O)NC(C(=O)N1Cc2cc([101O:1][101CH2:1]CCC(=O)Nc3cc([100NH:0][100C:0](=O)N4CCCC(n5nc(-c6ccc(Oc7ccc(F)cc7F)cc6)c(C(N)=O)c5N)C4)ccc3C)ccc2CC1C(=O)NC1CCCc2ccccc21)C(C)(C)C

> <Shape>
0.170

> <Color>
0.191

> <Negative vol penalty>
0.000

$$$$

  -OEChem-04042323093D

 87 95  0     1  0  0  0  0  0999 V2000
  -23.8226  -13.7416   37.5855 C   0  0  0  0  0  0  0  0  0  0  0  0
  -24.8602  -14.3587   36.8942 C   0  0  0  0  0  0  0  0  0  0  0  0
  -23.1987   -9.8517   19.9517 C   0  0  0  0  0  0  0  0  0  0  0  0
  -23.9130   -9.9282   22.2584 C   0  0  0  0  0  0  0  0  0  0  0  0
  -23.6371  -12.3640   37.4781 C   0  0  0  0  0  0  0  0  0  0  0  0
  -25.7138  -13.5981   36.0958 C   0  0  0  0  0  0  0  0  0  0  0  0
  -26.5985  -15.7506   31.5981 C   0  0  0  0  0  0  0  0  0  0  0  0
  -33.1323  -16.6969   23.6560 C   0  0  0  0  0  0  0  0  0  0  0  0
  -32.4528  -15.8602   22.7706 C   0  0  0  0  0  0  0  0  0  0  0  0
  -22.5068   -8.6674   20.2053 C   0  0  0  0  0  0  0  0  0  0  0  0
  -23.2211   -8.7439   22.5120 C   0  0  0  0  0  0  0  0  0  0  0  0
  -27.5145  -16.8011   31.5642 C   0  0  0  0  0  0  0  0  0  0  0  0
  -20.0244   -7.7985   23.0665 C   0  0  0  0  0  0  0  0  0  0  0  0
  -19.2478   -7.7384   24.2236 C   0  0  0  0  0  0  0  0  0  0  0  0
  -30.5438  -15.8438   24.2513 C   0  0  0  0  0  0  0  0  0  0  0  0
  -29.2114  -15.2875   30.7587 C   0  0  0  0  0  0  0  0  0  0  0  0
  -20.5672   -5.8743   25.0122 C   0  0  0  0  0  0  0  0  0  0  0  0
  -23.9018  -10.4822   20.9783 C   0  0  0  0  0  0  0  0  0  0  0  0
  -31.2233  -16.6804   25.1367 C   0  0  0  0  0  0  0  0  0  0  0  0
  -24.1233  -13.0190   20.8265 C   0  0  0  0  0  0  0  0  0  0  0  0
  -24.4829  -11.5875   36.6703 C   0  0  0  0  0  0  0  0  0  0  0  0
  -26.9856  -14.4563   31.2224 C   0  0  0  0  0  0  0  0  0  0  0  0
  -25.5403  -12.2086   35.9785 C   0  0  0  0  0  0  0  0  0  0  0  0
  -28.2977  -14.2228   30.7864 C   0  0  0  0  0  0  0  0  0  0  0  0
  -32.5176  -17.1069   24.8391 C   0  0  0  0  0  0  0  0  0  0  0  0
  -31.1585  -15.4337   23.0683 C   0  0  0  0  0  0  0  0  0  0  0  0
  -22.5180   -8.1135   21.4854 C   0  0  0  0  0  0  0  0  0  0  0  0
  -28.8219  -16.5691   31.1472 C   0  0  0  0  0  0  0  0  0  0  0  0
  -21.0723   -6.8965   22.8822 C   0  0  0  0  0  0  0  0  0  0  0  0
  -19.5192   -6.7763   25.1965 C   0  0  0  0  0  0  0  0  0  0  0  0
  -21.3437   -5.9344   23.8550 C   0  0  0  0  0  0  0  0  0  0  0  0
  -24.6172  -11.7053   20.7169 C   0  0  0  0  0  0  0  0  0  0  0  0
  -25.1846  -13.8155   20.4723 C   0  0  0  0  0  0  0  0  0  0  0  0
  -30.5550  -17.1034   26.3837 C   0  0  0  0  0  0  0  0  0  0  0  0
  -22.8215  -13.4782   21.2140 C   0  0  0  0  0  0  0  0  0  0  0  0
  -27.1441  -11.6452   32.6977 C   0  0  0  0  0  0  0  0  0  0  0  0
  -27.8925  -10.5691   29.7305 C   0  0  0  0  0  0  0  0  0  0  0  0
  -29.1380  -11.2559   26.6283 C   0  0  0  0  0  0  0  0  0  0  0  0
  -30.9342  -14.0850   20.9524 C   0  0  0  0  0  0  0  0  0  0  0  0
  -24.2722  -10.0949   36.6228 C   0  0  0  0  0  0  0  0  0  0  0  0
  -25.9784  -13.3393   31.2392 C   0  0  0  0  0  0  0  0  0  0  0  0
  -28.7580  -12.8557   30.3533 C   0  0  0  0  0  0  0  0  0  0  0  0
  -24.9906   -9.4150   35.4601 C   0  0  0  0  0  0  0  0  0  0  0  0
  -29.3591  -13.1217   17.9080 C   0  0  0  0  0  0  0  0  0  0  0  0
  -26.4287   -9.9130   35.3566 C   0  0  0  0  0  0  0  0  0  0  0  0
  -27.9271  -12.7864   18.3310 C   0  0  0  0  0  0  0  0  0  0  0  0
  -30.3767  -12.6995   18.9663 C   0  0  0  0  0  0  0  0  0  0  0  0
  -28.6781  -12.8678   20.7427 C   0  0  0  0  0  0  0  0  0  0  0  0
  -26.4720  -11.4212   35.0829 C   0  0  1  0  0  0  0  0  0  0  0  0
  -26.6197  -11.9577   31.3247 C   0  0  1  0  0  0  0  0  0  0  0  0
  -27.6122  -13.3331   19.7372 C   0  0  2  0  0  0  0  0  0  0  0  0
  -33.2654  -18.0036   25.7705 C   0  0  0  0  0  0  0  0  0  0  0  0
  -29.6604  -10.1652   24.4295 C   0  0  0  0  0  0  0  0  0  0  0  0
  -30.3793   -9.2950   30.9561 C   0  0  0  0  0  0  0  0  0  0  0  0
  -31.3138   -9.0623   28.6451 C   0  0  0  0  0  0  0  0  0  0  0  0
  -29.2076   -7.8767   29.2620 C   0  0  0  0  0  0  0  0  0  0  0  0
  -29.6626  -21.1905   29.9593 C   0  0  0  0  0  0  0  0  0  0  0  0
  -31.4770  -19.9402   31.1365 C   0  0  0  0  0  0  0  0  0  0  0  0
  -27.2455  -13.0087   25.1774 C   0  0  0  0  0  0  0  0  0  0  0  0
  -30.7806  -19.1876   28.8563 C   0  0  0  0  0  0  0  0  0  0  0  0
  -29.7168  -18.9533   27.7880 C   0  0  0  0  0  0  0  0  0  0  0  0
  -29.2026  -18.8995   30.8638 C   0  0  0  0  0  0  0  0  0  1  0  0
  -29.1722  -10.3855   28.9512 C   0  0  1  0  0  0  0  0  0  0  0  0
  -28.6217  -10.9251   25.2396 C   0  0  2  0  0  0  0  0  0  0  0  0
  -30.0104   -9.1804   29.4635 C   0  0  0  0  0  0  0  0  0  0  0  0
  -30.2659  -19.7936   30.1905 C   0  0  0  0  0  0  0  0  0  0  0  0
  -25.8930  -11.6652   20.3237 N   0  0  0  0  0  0  0  0  0  0  0  0
  -26.2097  -12.9637   20.1830 N   0  0  0  0  0  0  0  0  0  0  0  0
  -27.7379  -11.7949   30.3934 N   0  0  0  0  0  0  0  0  0  0  0  0
  -30.0162  -13.2578   20.2714 N   0  0  0  0  0  0  0  0  0  0  0  0
  -25.3317  -15.1545   20.3831 N   0  0  0  0  0  0  0  0  0  0  0  0
  -30.1728  -16.1588   27.2431 N   0  0  0  0  0  0  0  0  0  0  0  0
  -21.8484  -12.5257   21.5461 N   0  0  0  0  0  0  0  0  0  0  0  0
  -30.4686  -14.5838   22.1685 N   0  0  0  0  0  0  0  0  0  0  0  0
  -26.1839  -11.6906   33.6904 N   0  0  0  0  0  0  0  0  0  0  0  0
  -28.7854  -10.2907   27.5477 N   0  0  0  0  0  0  0  0  0  0  0  0
  -30.3638  -18.4113   26.5888 N   0  3  0  0  0  0  0  0  0  0  0  0
  -28.2745  -12.1744   24.5049 N   0  3  0  0  0  0  0  0  0  0  0  0
  -22.5248  -14.6966   21.2483 O   0  0  0  0  0  0  0  0  0  0  0  0
  -28.3315  -11.3810   32.8453 O   0  0  0  0  0  0  0  0  0  0  0  0
  -27.0574   -9.6613   29.7446 O   0  0  0  0  0  0  0  0  0  0  0  0
  -29.7921  -12.2674   26.8723 O   0  0  0  0  0  0  0  0  0  0  0  0
  -32.0406  -14.3546   20.4780 O   0  0  0  0  0  0  0  0  0  0  0  0
  -21.8428   -6.9580   21.7332 O   0  0  0  0  0  0  0  0  0  0  0  0
  -29.7182  -17.5926   31.1137 O   0  0  0  0  0  0  0  0  0  1  0  0
  -18.7744   -6.7197   26.3083 F   0  0  0  0  0  0  0  0  0  0  0  0
  -22.3498   -5.0660   23.6840 F   0  0  0  0  0  0  0  0  0  0  0  0
  1  2  1  0  0  0  0
  1  5  2  0  0  0  0
  2  6  2  0  0  0  0
  3 10  2  0  0  0  0
  3 18  1  0  0  0  0
  4 11  1  0  0  0  0
  4 18  2  0  0  0  0
  5 21  1  0  0  0  0
  6 23  1  0  0  0  0
  7 12  2  0  0  0  0
  7 22  1  0  0  0  0
  8  9  2  0  0  0  0
  8 25  1  0  0  0  0
  9 26  1  0  0  0  0
 10 27  1  0  0  0  0
 11 27  2  0  0  0  0
 12 28  1  0  0  0  0
 13 14  2  0  0  0  0
 13 29  1  0  0  0  0
 14 30  1  0  0  0  0
 15 19  1  0  0  0  0
 15 26  2  0  0  0  0
 16 24  1  0  0  0  0
 16 28  2  0  0  0  0
 17 30  2  0  0  0  0
 17 31  1  0  0  0  0
 18 32  1  0  0  0  0
 19 25  2  0  0  0  0
 19 34  1  0  0  0  0
 20 32  1  0  0  0  0
 20 33  2  0  0  0  0
 20 35  1  0  0  0  0
 21 23  2  0  0  0  0
 21 40  1  0  0  0  0
 22 24  2  0  0  0  0
 22 41  1  0  0  0  0
 23 49  1  0  0  0  0
 24 42  1  0  0  0  0
 25 52  1  0  0  0  0
 26 74  1  0  0  0  0
 27 84  1  0  0  0  0
 28 85  1  0  0  0  0
 29 31  2  0  0  0  0
 29 84  1  0  0  0  0
 30 86  1  0  0  0  0
 31 87  1  0  0  0  0
 32 67  2  0  0  0  0
 33 68  1  0  0  0  0
 33 71  1  0  0  0  0
 34 72  1  0  0  0  0
 34 77  2  0  0  0  0
 35 73  1  0  0  0  0
 35 79  2  0  0  0  0
 36 50  1  0  0  0  0
 36 75  1  0  0  0  0
 36 80  2  0  0  0  0
 37 63  1  0  0  0  0
 37 69  1  0  0  0  0
 37 81  2  0  0  0  0
 38 64  1  0  0  0  0
 38 76  1  0  0  0  0
 38 82  2  0  0  0  0
 39 70  1  0  0  0  0
 39 74  1  0  0  0  0
 39 83  2  0  0  0  0
 40 43  1  0  0  0  0
 41 50  1  0  0  0  0
 42 69  1  0  0  0  0
 43 45  1  0  0  0  0
 44 46  1  0  0  0  0
 44 47  1  0  0  0  0
 45 49  1  0  0  0  0
 46 51  1  0  0  0  0
 47 70  1  0  0  0  0
 48 51  1  0  0  0  0
 48 70  1  0  0  0  0
 49 75  1  0  0  0  0
 50 69  1  0  0  0  0
 51 68  1  0  0  0  0
 53 64  1  0  0  0  0
 54 65  1  0  0  0  0
 55 65  1  0  0  0  0
 56 65  1  0  0  0  0
 57 66  1  0  0  0  0
 58 66  1  0  0  0  0
 59 78  1  0  0  0  0
 60 61  1  0  0  0  0
 60 66  1  0  0  0  0
 61 77  1  0  0  0  0
 62 66  1  0  0  0  0
 62 85  1  0  0  0  0
 63 65  1  0  0  0  0
 63 76  1  0  0  0  0
 64 78  1  0  0  0  0
 67 68  1  0  0  0  0
M  CHG  2  77   1  78   1
M  ISO  4  39 100  62 101  74 100  85 101
M  END
> <Batch ID>
0062

> <Smiles>
CNC(C)C(=O)NC(C(=O)N1Cc2cc([101O:1][101CH2:1]C(C)(C)CCNC(=N)c3cc([100NH:0][100C:0](=O)N4CCCC(n5nc(-c6ccc(Oc7ccc(F)cc7F)cc6)c(C(N)=O)c5N)C4)ccc3C)ccc2CC1C(=O)NC1CCCc2ccccc21)C(C)(C)C

> <Shape>
0.154

> <Color>
0.178

> <Negative vol penalty>
0.000

$$$$

  -OEChem-04042323093D

 93102  0     1  0  0  0  0  0999 V2000
  -28.6590  -37.1113   25.0082 C   0  0  0  0  0  0  0  0  0  0  0  0
  -29.0838  -35.9828   24.3143 C   0  0  0  0  0  0  0  0  0  0  0  0
  -24.6315  -11.3082   24.0344 C   0  0  0  0  0  0  0  0  0  0  0  0
  -24.3425  -13.7064   24.0807 C   0  0  0  0  0  0  0  0  0  0  0  0
  -27.5142  -37.0505   25.8016 C   0  0  0  0  0  0  0  0  0  0  0  0
  -28.3645  -34.7924   24.4144 C   0  0  0  0  0  0  0  0  0  0  0  0
  -27.5368  -30.6104   20.0177 C   0  0  0  0  0  0  0  0  0  0  0  0
  -24.3121  -11.2435   25.3907 C   0  0  0  0  0  0  0  0  0  0  0  0
  -24.0230  -13.6417   25.4370 C   0  0  0  0  0  0  0  0  0  0  0  0
  -28.1709  -29.3994   19.7436 C   0  0  0  0  0  0  0  0  0  0  0  0
  -21.5219  -11.3217   27.2990 C   0  0  0  0  0  0  0  0  0  0  0  0
  -20.6326  -10.3284   27.7089 C   0  0  0  0  0  0  0  0  0  0  0  0
  -30.9860  -20.2008   19.8256 C   0  0  0  0  0  0  0  0  0  0  0  0
  -31.3604  -17.8791   19.2721 C   0  0  0  0  0  0  0  0  0  0  0  0
  -26.4320  -28.2261   20.9347 C   0  0  0  0  0  0  0  0  0  0  0  0
  -29.1257  -18.6610   19.7535 C   0  0  0  0  0  0  0  0  0  0  0  0
  -22.3280   -9.4118   29.1659 C   0  0  0  0  0  0  0  0  0  0  0  0
  -24.6468  -12.5396   23.3795 C   0  0  0  0  0  0  0  0  0  0  0  0
  -31.8557  -19.1663   19.4807 C   0  0  0  0  0  0  0  0  0  0  0  0
  -24.0884  -12.5212   20.8904 C   0  0  0  0  0  0  0  0  0  0  0  0
  -26.7751  -35.8614   25.9039 C   0  0  0  0  0  0  0  0  0  0  0  0
  -26.3492  -30.6393   20.7629 C   0  0  0  0  0  0  0  0  0  0  0  0
  -27.2095  -34.7152   25.2111 C   0  0  0  0  0  0  0  0  0  0  0  0
  -25.7834  -29.4385   21.2147 C   0  0  0  0  0  0  0  0  0  0  0  0
  -29.6210  -19.9481   19.9621 C   0  0  0  0  0  0  0  0  0  0  0  0
  -29.9954  -17.6264   19.4085 C   0  0  0  0  0  0  0  0  0  0  0  0
  -24.0078  -12.4102   26.0919 C   0  0  0  0  0  0  0  0  0  0  0  0
  -27.6201  -28.2072   20.2046 C   0  0  0  0  0  0  0  0  0  0  0  0
  -22.8143  -11.3601   27.8226 C   0  0  0  0  0  0  0  0  0  0  0  0
  -21.0356   -9.3734   28.6423 C   0  0  0  0  0  0  0  0  0  0  0  0
  -23.2173  -10.4052   28.7560 C   0  0  0  0  0  0  0  0  0  0  0  0
  -24.9773  -12.6072   21.9786 C   0  0  0  0  0  0  0  0  0  0  0  0
  -24.8904  -12.6401   19.7817 C   0  0  0  0  0  0  0  0  0  0  0  0
  -27.0091  -23.0459   21.1081 C   0  0  0  0  0  0  0  0  0  0  0  0
  -27.5873  -20.7151   21.0348 C   0  0  0  0  0  0  0  0  0  0  0  0
  -28.0937  -23.4017   20.4059 C   0  0  0  0  0  0  0  0  0  0  0  0
  -26.7412  -21.6753   21.4226 C   0  0  0  0  0  0  0  0  0  0  0  0
  -29.0384  -22.3237   19.9209 C   0  0  0  0  0  0  0  0  0  0  0  0
  -33.2708  -19.4283   19.3388 C   0  0  0  0  0  0  0  0  0  0  0  0
  -22.6650  -12.3494   20.8824 C   0  0  0  0  0  0  0  0  0  0  0  0
  -25.4747  -31.9127   23.5409 C   0  0  0  0  0  0  0  0  0  0  0  0
  -22.5375  -30.8591   22.6550 C   0  0  0  0  0  0  0  0  0  0  0  0
  -35.0482  -20.7160   18.1231 C   0  0  0  0  0  0  0  0  0  0  0  0
  -20.6794  -28.6816   20.7969 C   0  0  0  0  0  0  0  0  0  0  0  0
  -30.2186  -15.1798   18.8513 C   0  0  0  0  0  0  0  0  0  0  0  0
  -25.5708  -35.8310   26.8113 C   0  0  0  0  0  0  0  0  0  0  0  0
  -25.6632  -31.9515   21.0272 C   0  0  0  0  0  0  0  0  0  0  0  0
  -24.4994  -29.4136   22.0016 C   0  0  0  0  0  0  0  0  0  0  0  0
  -24.6542  -34.6350   26.5671 C   0  0  0  0  0  0  0  0  0  0  0  0
  -29.3540  -11.7737   18.2786 C   0  0  0  0  0  0  0  0  0  0  0  0
  -25.4699  -33.3505   26.4589 C   0  0  0  0  0  0  0  0  0  0  0  0
  -28.0494  -11.5947   19.0584 C   0  0  0  0  0  0  0  0  0  0  0  0
  -30.3261  -12.7019   19.0047 C   0  0  0  0  0  0  0  0  0  0  0  0
  -28.4670  -13.8288   20.1636 C   0  0  0  0  0  0  0  0  0  0  0  0
  -26.4421  -33.4125   25.2746 C   0  0  1  0  0  0  0  0  0  0  0  0
  -24.7320  -31.9064   22.2348 C   0  0  1  0  0  0  0  0  0  0  0  0
  -27.4304  -12.9535   19.4405 C   0  0  2  0  0  0  0  0  0  0  0  0
  -35.1548  -21.7449   17.0403 C   0  0  0  0  0  0  0  0  0  0  0  0
  -18.3035  -28.0368   20.3103 C   0  0  0  0  0  0  0  0  0  0  0  0
  -22.3783  -29.4258   25.3439 C   0  0  0  0  0  0  0  0  0  0  0  0
  -20.4823  -28.0698   24.4301 C   0  0  0  0  0  0  0  0  0  0  0  0
  -20.2588  -30.5461   24.6319 C   0  0  0  0  0  0  0  0  0  0  0  0
  -20.9635  -29.3500   17.9278 C   0  0  0  0  0  0  0  0  0  0  0  0
  -27.6216  -25.8318   20.4405 C   0  0  0  0  0  0  0  0  0  1  0  0
  -21.7597  -29.5789   22.8420 C   0  0  1  0  0  0  0  0  0  0  0  0
  -19.4829  -28.8992   19.8883 C   0  0  2  0  0  0  0  0  0  0  0  0
  -21.2450  -29.4054   24.2988 C   0  0  0  0  0  0  0  0  0  0  0  0
  -26.2468  -12.7681   21.5960 N   0  0  0  0  0  0  0  0  0  0  0  0
  -26.1615  -12.7841   20.2549 N   0  0  0  0  0  0  0  0  0  0  0  0
  -28.7453  -20.9897   20.3090 N   0  0  0  0  0  0  0  0  0  0  0  0
  -23.8697  -30.7229   22.2397 N   0  0  0  0  0  0  0  0  0  0  0  0
  -29.6716  -13.9708   19.3309 N   0  0  0  0  0  0  0  0  0  0  0  0
  -24.6253  -12.6344   18.4581 N   0  0  0  0  0  0  0  0  0  0  0  0
  -21.9977  -12.2445   22.1104 N   0  0  0  0  0  0  0  0  0  0  0  0
  -29.4923  -16.3187   19.1976 N   0  0  0  0  0  0  0  0  0  0  0  0
  -28.4174  -24.6766   20.0737 N   0  0  0  0  0  0  0  0  0  0  0  0
  -33.6894  -20.3300   18.4178 N   0  0  0  0  0  0  0  0  0  0  0  0
  -25.7397  -33.1771   24.0314 N   0  0  0  0  0  0  0  0  0  0  0  0
  -20.7057  -29.5906   21.8333 N   0  0  0  0  0  0  0  0  0  0  0  0
  -34.1383  -18.7681   20.1309 N   0  3  0  0  0  0  0  0  0  0  0  0
  -19.8333  -28.5597   18.4801 N   0  3  0  0  0  0  0  0  0  0  0  0
  -30.0163  -22.6367   19.2381 O   0  0  0  0  0  0  0  0  0  0  0  0
  -22.0064  -12.2741   19.8174 O   0  0  0  0  0  0  0  0  0  0  0  0
  -25.7832  -30.8491   24.0657 O   0  0  0  0  0  0  0  0  0  0  0  0
  -21.9814  -31.9404   22.8628 O   0  0  0  0  0  0  0  0  0  0  0  0
  -36.0034  -20.2337   18.7150 O   0  0  0  0  0  0  0  0  0  0  0  0
  -21.5059  -27.7917   20.6083 O   0  0  0  0  0  0  0  0  0  0  0  0
  -31.2399  -15.2007   18.1596 O   0  0  0  0  0  0  0  0  0  0  0  0
  -25.5922  -21.4428   22.1387 O   0  0  0  0  0  0  0  0  0  0  0  0
  -23.6958  -12.3474   27.4153 O   0  0  0  0  0  0  0  0  0  0  0  0
  -28.2374  -27.0239   19.9391 O   0  0  0  0  0  0  0  0  0  1  0  0
  -20.1810   -8.4205   29.0370 F   0  0  0  0  0  0  0  0  0  0  0  0
  -24.4572  -10.4377   29.2634 F   0  0  0  0  0  0  0  0  0  0  0  0
  1  2  1  0  0  0  0
  1  5  2  0  0  0  0
  2  6  2  0  0  0  0
  3  8  2  0  0  0  0
  3 18  1  0  0  0  0
  4  9  1  0  0  0  0
  4 18  2  0  0  0  0
  5 21  1  0  0  0  0
  6 23  1  0  0  0  0
  7 10  2  0  0  0  0
  7 22  1  0  0  0  0
  8 27  1  0  0  0  0
  9 27  2  0  0  0  0
 10 28  1  0  0  0  0
 11 12  2  0  0  0  0
 11 29  1  0  0  0  0
 12 30  1  0  0  0  0
 13 19  1  0  0  0  0
 13 25  2  0  0  0  0
 14 19  2  0  0  0  0
 14 26  1  0  0  0  0
 15 24  1  0  0  0  0
 15 28  2  0  0  0  0
 16 25  1  0  0  0  0
 16 26  2  0  0  0  0
 17 30  2  0  0  0  0
 17 31  1  0  0  0  0
 18 32  1  0  0  0  0
 19 39  1  0  0  0  0
 20 32  1  0  0  0  0
 20 33  2  0  0  0  0
 20 40  1  0  0  0  0
 21 23  2  0  0  0  0
 21 46  1  0  0  0  0
 22 24  2  0  0  0  0
 22 47  1  0  0  0  0
 23 55  1  0  0  0  0
 24 48  1  0  0  0  0
 25 70  1  0  0  0  0
 26 75  1  0  0  0  0
 27 90  1  0  0  0  0
 28 91  1  0  0  0  0
 29 31  2  0  0  0  0
 29 90  1  0  0  0  0
 30 92  1  0  0  0  0
 31 93  1  0  0  0  0
 32 68  2  0  0  0  0
 33 69  1  0  0  0  0
 33 73  1  0  0  0  0
 34 36  2  0  0  0  0
 34 37  1  0  0  0  0
 35 37  2  0  0  0  0
 35 70  1  0  0  0  0
 36 38  1  0  0  0  0
 36 76  1  0  0  0  0
 37 89  1  0  0  0  0
 38 70  1  0  0  0  0
 38 82  2  0  0  0  0
 39 77  1  0  0  0  0
 39 80  2  0  0  0  0
 40 74  1  0  0  0  0
 40 83  2  0  0  0  0
 41 56  1  0  0  0  0
 41 78  1  0  0  0  0
 41 84  2  0  0  0  0
 42 65  1  0  0  0  0
 42 71  1  0  0  0  0
 42 85  2  0  0  0  0
 43 58  1  0  0  0  0
 43 77  1  0  0  0  0
 43 86  2  0  0  0  0
 44 66  1  0  0  0  0
 44 79  1  0  0  0  0
 44 87  2  0  0  0  0
 45 72  1  0  0  0  0
 45 75  1  0  0  0  0
 45 88  2  0  0  0  0
 46 49  1  0  0  0  0
 47 56  1  0  0  0  0
 48 71  1  0  0  0  0
 49 51  1  0  0  0  0
 50 52  1  0  0  0  0
 50 53  1  0  0  0  0
 51 55  1  0  0  0  0
 52 57  1  0  0  0  0
 53 72  1  0  0  0  0
 54 57  1  0  0  0  0
 54 72  1  0  0  0  0
 55 78  1  0  0  0  0
 56 71  1  0  0  0  0
 57 69  1  0  0  0  0
 59 66  1  0  0  0  0
 60 67  1  0  0  0  0
 61 67  1  0  0  0  0
 62 67  1  0  0  0  0
 63 81  1  0  0  0  0
 64 76  1  0  0  0  0
 64 91  1  0  0  0  0
 65 67  1  0  0  0  0
 65 79  1  0  0  0  0
 66 81  1  0  0  0  0
 68 69  1  0  0  0  0
M  CHG  2  80   1  81   1
M  ISO  4  45 100  64 101  75 100  91 101
M  END
> <Batch ID>
0062

> <Smiles>
CNC(C)C(=O)NC(C(=O)N1Cc2cc([101O:1][101CH2:1]NC3=CC(=O)CN(c4cc([100NH:0][100C:0](=O)N5CCCC(n6nc(-c7ccc(Oc8ccc(F)cc8F)cc7)c(C(N)=O)c6N)C5)cc(C(=N)NC(C)=O)c4)C3=O)ccc2CC1C(=O)NC1CCCc2ccccc21)C(C)(C)C

> <Shape>
0.277

> <Color>
0.095

> <Negative vol penalty>
0.000

$$$$

  -OEChem-04042323093D

 87 95  0     1  0  0  0  0  0999 V2000
  -15.8821  -25.1403   20.6253 C   0  0  0  0  0  0  0  0  0  0  0  0
  -16.9567  -24.8516   19.7902 C   0  0  0  0  0  0  0  0  0  0  0  0
  -26.6411  -12.2965   21.6966 C   0  0  0  0  0  0  0  0  0  0  0  0
  -26.3317  -13.4659   19.6052 C   0  0  0  0  0  0  0  0  0  0  0  0
  -15.8618  -26.3337   21.3461 C   0  0  0  0  0  0  0  0  0  0  0  0
  -18.0111  -25.7567   19.6746 C   0  0  0  0  0  0  0  0  0  0  0  0
  -23.9349  -24.4248   18.8740 C   0  0  0  0  0  0  0  0  0  0  0  0
  -29.9798  -20.5820   18.1200 C   0  0  0  0  0  0  0  0  0  0  0  0
  -29.6196  -21.7185   17.3959 C   0  0  0  0  0  0  0  0  0  0  0  0
  -25.3074  -11.8892   21.6662 C   0  0  0  0  0  0  0  0  0  0  0  0
  -24.9979  -13.0586   19.5748 C   0  0  0  0  0  0  0  0  0  0  0  0
  -24.7446  -24.3949   17.7394 C   0  0  0  0  0  0  0  0  0  0  0  0
  -22.0803  -10.2411   21.9571 C   0  0  0  0  0  0  0  0  0  0  0  0
  -21.8018   -8.9092   22.2635 C   0  0  0  0  0  0  0  0  0  0  0  0
  -25.5010  -26.6329   18.2277 C   0  0  0  0  0  0  0  0  0  0  0  0
  -30.5007  -21.9649   20.0314 C   0  0  0  0  0  0  0  0  0  0  0  0
  -23.1792   -8.1950   20.4115 C   0  0  0  0  0  0  0  0  0  0  0  0
  -27.1532  -13.0849   20.6661 C   0  0  0  0  0  0  0  0  0  0  0  0
  -29.6393  -12.8294   20.1544 C   0  0  0  0  0  0  0  0  0  0  0  0
  -16.9211  -27.2494   21.2466 C   0  0  0  0  0  0  0  0  0  0  0  0
  -23.8939  -25.5650   19.6893 C   0  0  0  0  0  0  0  0  0  0  0  0
  -18.0044  -26.9640   20.3936 C   0  0  0  0  0  0  0  0  0  0  0  0
  -24.6919  -26.6738   19.3735 C   0  0  0  0  0  0  0  0  0  0  0  0
  -30.4203  -20.7052   19.4377 C   0  0  0  0  0  0  0  0  0  0  0  0
  -29.7000  -22.9782   17.9895 C   0  0  0  0  0  0  0  0  0  0  0  0
  -24.4858  -12.2703   20.6053 C   0  0  0  0  0  0  0  0  0  0  0  0
  -25.5256  -25.5001   17.4145 C   0  0  0  0  0  0  0  0  0  0  0  0
  -22.9082  -10.5501   20.8778 C   0  0  0  0  0  0  0  0  0  0  0  0
  -22.3512   -7.8861   21.4908 C   0  0  0  0  0  0  0  0  0  0  0  0
  -23.4576   -9.5270   20.1050 C   0  0  0  0  0  0  0  0  0  0  0  0
  -30.1405  -23.1014   19.3073 C   0  0  0  0  0  0  0  0  0  0  0  0
  -28.5307  -13.5063   20.6972 C   0  0  0  0  0  0  0  0  0  0  0  0
  -30.7113  -13.6369   20.4463 C   0  0  0  0  0  0  0  0  0  0  0  0
  -29.6950  -11.5822   19.4493 C   0  0  0  0  0  0  0  0  0  0  0  0
  -21.6353  -27.6327   20.5421 C   0  0  0  0  0  0  0  0  0  0  0  0
  -23.9680  -28.7846   22.4797 C   0  0  0  0  0  0  0  0  0  0  0  0
  -28.8695  -24.1471   15.9179 C   0  0  0  0  0  0  0  0  0  0  0  0
  -27.3043  -29.1142   23.1175 C   0  0  0  0  0  0  0  0  0  0  0  0
  -31.2441  -19.4964   21.4888 C   0  0  0  0  0  0  0  0  0  0  0  0
  -16.8323  -28.5478   22.0088 C   0  0  0  0  0  0  0  0  0  0  0  0
  -23.0355  -25.5713   20.9245 C   0  0  0  0  0  0  0  0  0  0  0  0
  -24.6993  -27.9145   20.2272 C   0  0  0  0  0  0  0  0  0  0  0  0
  -18.1660  -29.2825   22.1180 C   0  0  0  0  0  0  0  0  0  0  0  0
  -32.2127  -16.8498   23.6646 C   0  0  0  0  0  0  0  0  0  0  0  0
  -18.8652  -29.3238   20.7630 C   0  0  0  0  0  0  0  0  0  0  0  0
  -31.4841  -15.6292   23.0975 C   0  0  0  0  0  0  0  0  0  0  0  0
  -31.3677  -18.1175   23.5523 C   0  0  0  0  0  0  0  0  0  0  0  0
  -30.1270  -17.1845   21.6394 C   0  0  0  0  0  0  0  0  0  0  0  0
  -19.1787  -27.9092   20.2606 C   0  0  1  0  0  0  0  0  0  0  0  0
  -22.6814  -26.9774   21.3988 C   0  0  1  0  0  0  0  0  0  0  0  0
  -30.9644  -15.8956   21.6712 C   0  0  2  0  0  0  0  0  0  0  0  0
  -28.1150  -25.5700   14.0062 C   0  0  0  0  0  0  0  0  0  0  0  0
  -28.9049  -30.1411   24.7549 C   0  0  0  0  0  0  0  0  0  0  0  0
  -23.4580  -31.5311   21.2521 C   0  0  0  0  0  0  0  0  0  0  0  0
  -25.6541  -32.2816   22.1913 C   0  0  0  0  0  0  0  0  0  0  0  0
  -23.8294  -31.5465   23.7252 C   0  0  0  0  0  0  0  0  0  0  0  0
  -28.4281  -26.4762   23.8505 C   0  0  0  0  0  0  0  0  0  0  0  0
  -28.5678  -25.1660   20.3160 C   0  0  0  0  0  0  0  0  0  0  0  0
  -27.5147  -26.2475   16.3464 C   0  0  0  0  0  0  0  0  0  1  0  0
  -25.0564  -29.8217   22.3425 C   0  0  1  0  0  0  0  0  0  0  0  0
  -28.5742  -25.5834   15.4637 C   0  0  1  0  0  0  0  0  0  0  0  0
  -28.1143  -28.8964   24.3828 C   0  0  2  0  0  0  0  0  0  0  0  0
  -24.4981  -31.2727   22.3604 C   0  0  0  0  0  0  0  0  0  0  0  0
  -28.8674  -14.6553   21.2892 N   0  0  0  0  0  0  0  0  0  0  0  0
  -30.1997  -14.7065   21.1203 N   0  0  0  0  0  0  0  0  0  0  0  0
  -23.8385  -27.8746   21.4210 N   0  0  0  0  0  0  0  0  0  0  0  0
  -30.9142  -18.3073   22.1727 N   0  0  0  0  0  0  0  0  0  0  0  0
  -32.0323  -13.5291   20.1898 N   0  0  0  0  0  0  0  0  0  0  0  0
  -28.5001  -10.8818   19.2352 N   0  0  0  0  0  0  0  0  0  0  0  0
  -29.3283  -24.1145   17.2321 N   0  0  0  0  0  0  0  0  0  0  0  0
  -30.7866  -19.5504   20.1725 N   0  0  0  0  0  0  0  0  0  0  0  0
  -20.3381  -27.3759   20.9430 N   0  0  0  0  0  0  0  0  0  0  0  0
  -26.0234  -29.5405   23.3981 N   0  0  0  0  0  0  0  0  0  0  0  0
  -29.0717  -27.7695   24.1973 N   0  3  0  0  0  0  0  0  0  0  0  0
  -30.7746  -11.0952   19.0360 O   0  0  0  0  0  0  0  0  0  0  0  0
  -21.9796  -28.3215   19.5889 O   0  0  0  0  0  0  0  0  0  0  0  0
  -23.2634  -28.7777   23.4921 O   0  0  0  0  0  0  0  0  0  0  0  0
  -28.7106  -23.1883   15.1679 O   0  0  0  0  0  0  0  0  0  0  0  0
  -27.7633  -28.9285   21.9926 O   0  0  0  0  0  0  0  0  0  0  0  0
  -31.9084  -20.3888   22.0219 O   0  0  0  0  0  0  0  0  0  0  0  0
  -30.8483  -24.4614   21.4010 O   0  0  0  0  0  0  0  0  0  0  0  0
  -30.8606  -25.6067   19.1574 O   0  0  0  0  0  0  0  0  0  0  0  0
  -23.1844  -11.8729   20.5753 O   0  0  0  0  0  0  0  0  0  0  0  0
  -26.3163  -25.4738   16.3072 O   0  0  0  0  0  0  0  0  0  1  0  0
  -22.0849   -6.6071   21.7862 F   0  0  0  0  0  0  0  0  0  0  0  0
  -24.2547   -9.8176   19.0677 F   0  0  0  0  0  0  0  0  0  0  0  0
  -30.2575  -24.6648   20.0877 S   0  0  0  0  0  0  0  0  0  0  0  0
  1  2  1  0  0  0  0
  1  5  2  0  0  0  0
  2  6  2  0  0  0  0
  3 10  2  0  0  0  0
  3 18  1  0  0  0  0
  4 11  1  0  0  0  0
  4 18  2  0  0  0  0
  5 20  1  0  0  0  0
  6 22  1  0  0  0  0
  7 12  2  0  0  0  0
  7 21  1  0  0  0  0
  8  9  2  0  0  0  0
  8 24  1  0  0  0  0
  9 25  1  0  0  0  0
 10 26  1  0  0  0  0
 11 26  2  0  0  0  0
 12 27  1  0  0  0  0
 13 14  2  0  0  0  0
 13 28  1  0  0  0  0
 14 29  1  0  0  0  0
 15 23  1  0  0  0  0
 15 27  2  0  0  0  0
 16 24  2  0  0  0  0
 16 31  1  0  0  0  0
 17 29  2  0  0  0  0
 17 30  1  0  0  0  0
 18 32  1  0  0  0  0
 19 32  1  0  0  0  0
 19 33  2  0  0  0  0
 19 34  1  0  0  0  0
 20 22  2  0  0  0  0
 20 40  1  0  0  0  0
 21 23  2  0  0  0  0
 21 41  1  0  0  0  0
 22 49  1  0  0  0  0
 23 42  1  0  0  0  0
 24 71  1  0  0  0  0
 25 31  2  0  0  0  0
 25 70  1  0  0  0  0
 26 83  1  0  0  0  0
 27 84  1  0  0  0  0
 28 30  2  0  0  0  0
 28 83  1  0  0  0  0
 29 85  1  0  0  0  0
 30 86  1  0  0  0  0
 31 87  1  0  0  0  0
 32 64  2  0  0  0  0
 33 65  1  0  0  0  0
 33 68  1  0  0  0  0
 34 69  1  0  0  0  0
 34 75  2  0  0  0  0
 35 50  1  0  0  0  0
 35 72  1  0  0  0  0
 35 76  2  0  0  0  0
 36 60  1  0  0  0  0
 36 66  1  0  0  0  0
 36 77  2  0  0  0  0
 37 61  1  0  0  0  0
 37 70  1  0  0  0  0
 37 78  2  0  0  0  0
 38 62  1  0  0  0  0
 38 73  1  0  0  0  0
 38 79  2  0  0  0  0
 39 67  1  0  0  0  0
 39 71  1  0  0  0  0
 39 80  2  0  0  0  0
 40 43  1  0  0  0  0
 41 50  1  0  0  0  0
 42 66  1  0  0  0  0
 43 45  1  0  0  0  0
 44 46  1  0  0  0  0
 44 47  1  0  0  0  0
 45 49  1  0  0  0  0
 46 51  1  0  0  0  0
 47 67  1  0  0  0  0
 48 51  1  0  0  0  0
 48 67  1  0  0  0  0
 49 72  1  0  0  0  0
 50 66  1  0  0  0  0
 51 65  1  0  0  0  0
 52 61  1  0  0  0  0
 53 62  1  0  0  0  0
 54 63  1  0  0  0  0
 55 63  1  0  0  0  0
 56 63  1  0  0  0  0
 57 74  1  0  0  0  0
 58 87  1  0  0  0  0
 59 61  1  0  0  0  0
 59 84  1  0  0  0  0
 60 63  1  0  0  0  0
 60 73  1  0  0  0  0
 62 74  1  0  0  0  0
 64 65  1  0  0  0  0
 81 87  2  0  0  0  0
 82 87  2  0  0  0  0
M  CHG  1  74   1
M  ISO  4  39 100  59 101  71 100  84 101
M  END
> <Batch ID>
0062

> <Smiles>
CNC(C)C(=O)NC(C(=O)N1Cc2cc([101O:1][101CH2:1]C(C)C(=O)Nc3ccc([100NH:0][100C:0](=O)N4CCCC(n5nc(-c6ccc(Oc7ccc(F)cc7F)cc6)c(C(N)=O)c5N)C4)cc3S(C)(=O)=O)ccc2CC1C(=O)NC1CCCc2ccccc21)C(C)(C)C

> <Shape>
0.285

> <Color>
0.065

> <Negative vol penalty>
0.000

$$$$

  -OEChem-04042323093D

 85 93  0     1  0  0  0  0  0999 V2000
  -27.9377  -23.7349   17.7750 C   0  0  0  0  0  0  0  0  0  0  0  0
  -26.7574  -24.0503   18.4404 C   0  0  0  0  0  0  0  0  0  0  0  0
  -26.2069  -12.7825   21.2516 C   0  0  0  0  0  0  0  0  0  0  0  0
  -24.4878  -12.8855   19.5572 C   0  0  0  0  0  0  0  0  0  0  0  0
  -29.1469  -24.2776   18.2077 C   0  0  0  0  0  0  0  0  0  0  0  0
  -26.7858  -24.9078   19.5396 C   0  0  0  0  0  0  0  0  0  0  0  0
  -23.0939  -28.3711   19.3977 C   0  0  0  0  0  0  0  0  0  0  0  0
  -25.7265  -11.5395   21.6635 C   0  0  0  0  0  0  0  0  0  0  0  0
  -24.0074  -11.6424   19.9691 C   0  0  0  0  0  0  0  0  0  0  0  0
  -21.8152  -27.9542   19.7651 C   0  0  0  0  0  0  0  0  0  0  0  0
  -24.8403   -8.3926   19.5621 C   0  0  0  0  0  0  0  0  0  0  0  0
  -24.5319   -7.4586   18.5732 C   0  0  0  0  0  0  0  0  0  0  0  0
  -22.1342  -28.9225   21.9514 C   0  0  0  0  0  0  0  0  0  0  0  0
  -20.8071  -19.8812   17.6370 C   0  0  0  0  0  0  0  0  0  0  0  0
  -20.6823  -21.5606   19.3693 C   0  0  0  0  0  0  0  0  0  0  0  0
  -22.2435   -7.3963   19.3456 C   0  0  0  0  0  0  0  0  0  0  0  0
  -25.5875  -13.4556   20.1985 C   0  0  0  0  0  0  0  0  0  0  0  0
  -27.0627  -14.9913   18.7938 C   0  0  0  0  0  0  0  0  0  0  0  0
  -29.1888  -25.1498   19.3068 C   0  0  0  0  0  0  0  0  0  0  0  0
  -23.9078  -29.0585   20.3096 C   0  0  0  0  0  0  0  0  0  0  0  0
  -27.9969  -25.4616   19.9883 C   0  0  0  0  0  0  0  0  0  0  0  0
  -23.4218  -29.3494   21.5923 C   0  0  0  0  0  0  0  0  0  0  0  0
  -18.8082  -21.2156   17.8841 C   0  0  0  0  0  0  0  0  0  0  0  0
  -21.3902  -20.5561   18.7095 C   0  0  0  0  0  0  0  0  0  0  0  0
  -19.5161  -20.2110   17.2243 C   0  0  0  0  0  0  0  0  0  0  0  0
  -19.3913  -21.8904   18.9566 C   0  0  0  0  0  0  0  0  0  0  0  0
  -24.6268  -10.9694   21.0222 C   0  0  0  0  0  0  0  0  0  0  0  0
  -21.3363  -28.2273   21.0431 C   0  0  0  0  0  0  0  0  0  0  0  0
  -23.8503   -8.8284   20.4429 C   0  0  0  0  0  0  0  0  0  0  0  0
  -23.2335   -6.9605   18.4649 C   0  0  0  0  0  0  0  0  0  0  0  0
  -22.5520   -8.3303   20.3346 C   0  0  0  0  0  0  0  0  0  0  0  0
  -26.0829  -14.7399   19.7729 C   0  0  0  0  0  0  0  0  0  0  0  0
  -27.1740  -16.3599   18.7628 C   0  0  0  0  0  0  0  0  0  0  0  0
  -27.8057  -14.0699   17.9846 C   0  0  0  0  0  0  0  0  0  0  0  0
  -26.7209  -28.4907   21.6762 C   0  0  0  0  0  0  0  0  0  0  0  0
  -26.3357  -31.5026   22.8175 C   0  0  0  0  0  0  0  0  0  0  0  0
  -19.1356  -23.6684   20.7217 C   0  0  0  0  0  0  0  0  0  0  0  0
  -24.2055  -34.0392   23.6389 C   0  0  0  0  0  0  0  0  0  0  0  0
  -23.4251  -20.7934   20.1754 C   0  0  0  0  0  0  0  0  0  0  0  0
  -30.5260  -25.6742   19.7668 C   0  0  0  0  0  0  0  0  0  0  0  0
  -25.2745  -29.5250   19.8890 C   0  0  0  0  0  0  0  0  0  0  0  0
  -24.2483  -30.1020   22.6016 C   0  0  0  0  0  0  0  0  0  0  0  0
  -30.4197  -26.8705   20.7091 C   0  0  0  0  0  0  0  0  0  0  0  0
  -26.6610  -20.2227   21.5467 C   0  0  0  0  0  0  0  0  0  0  0  0
  -29.3725  -26.6095   21.7871 C   0  0  0  0  0  0  0  0  0  0  0  0
  -26.9717  -18.7768   21.1531 C   0  0  0  0  0  0  0  0  0  0  0  0
  -25.1843  -20.4126   21.8887 C   0  0  0  0  0  0  0  0  0  0  0  0
  -24.5549  -18.5012   20.4674 C   0  0  0  0  0  0  0  0  0  0  0  0
  -27.9835  -26.4075   21.1695 C   0  0  1  0  0  0  0  0  0  0  0  0
  -26.2123  -29.7669   21.0677 C   0  0  1  0  0  0  0  0  0  0  0  0
  -26.0176  -18.2752   20.0514 C   0  0  2  0  0  0  0  0  0  0  0  0
  -17.4221  -21.5690   17.4412 C   0  0  0  0  0  0  0  0  0  0  0  0
  -24.1822  -36.3641   24.5832 C   0  0  0  0  0  0  0  0  0  0  0  0
  -26.8057  -30.3699   25.6114 C   0  0  0  0  0  0  0  0  0  0  0  0
  -25.8477  -32.4825   26.5533 C   0  0  0  0  0  0  0  0  0  0  0  0
  -27.9242  -32.5634   25.1733 C   0  0  0  0  0  0  0  0  0  0  0  0
  -23.0103  -35.1542   21.1717 C   0  0  0  0  0  0  0  0  0  0  0  0
  -18.0655  -24.6608   21.1550 C   0  0  0  0  0  0  0  0  0  0  0  0
  -18.6529  -25.9317   21.7589 C   0  0  0  0  0  0  0  0  0  0  0  0
  -19.5870  -26.6367   20.7862 C   0  0  0  0  0  0  0  0  0  1  0  0
  -25.7060  -32.1067   24.0493 C   0  0  1  0  0  0  0  0  0  0  0  0
  -24.2343  -35.5226   23.3176 C   0  0  2  0  0  0  0  0  0  0  0  0
  -26.5558  -31.8647   25.3287 C   0  0  0  0  0  0  0  0  0  0  0  0
  -25.6058  -15.8591   20.3242 N   0  0  0  0  0  0  0  0  0  0  0  0
  -26.2888  -16.8269   19.6894 N   0  0  0  0  0  0  0  0  0  0  0  0
  -25.5804  -30.5315   22.1450 N   0  0  0  0  0  0  0  0  0  0  0  0
  -24.3409  -19.9189   20.7978 N   0  0  0  0  0  0  0  0  0  0  0  0
  -18.9434  -19.5160   16.1361 N   0  0  0  0  0  0  0  0  0  0  0  0
  -27.9417  -17.1974   18.0337 N   0  0  0  0  0  0  0  0  0  0  0  0
  -27.5675  -12.6980   18.1440 N   0  0  0  0  0  0  0  0  0  0  0  0
  -18.6908  -22.9119   19.6412 N   0  0  0  0  0  0  0  0  0  0  0  0
  -22.7013  -20.2213   19.1297 N   0  0  0  0  0  0  0  0  0  0  0  0
  -27.4080  -27.6807   20.7924 N   0  0  0  0  0  0  0  0  0  0  0  0
  -25.4764  -33.5143   23.7419 N   0  0  0  0  0  0  0  0  0  0  0  0
  -23.0713  -35.8897   22.4610 N   0  3  0  0  0  0  0  0  0  0  0  0
  -28.6675  -14.4513   17.1567 O   0  0  0  0  0  0  0  0  0  0  0  0
  -26.5071  -28.2588   22.8604 O   0  0  0  0  0  0  0  0  0  0  0  0
  -27.4534  -31.8837   22.4608 O   0  0  0  0  0  0  0  0  0  0  0  0
  -20.2213  -23.5932   21.2874 O   0  0  0  0  0  0  0  0  0  0  0  0
  -23.1603  -33.4100   23.7876 O   0  0  0  0  0  0  0  0  0  0  0  0
  -23.3122  -21.9711   20.5250 O   0  0  0  0  0  0  0  0  0  0  0  0
  -24.1579   -9.7563   21.4237 O   0  0  0  0  0  0  0  0  0  0  0  0
  -20.0889  -27.8209   21.4045 O   0  0  0  0  0  0  0  0  0  1  0  0
  -22.9371   -6.0647   17.5141 F   0  0  0  0  0  0  0  0  0  0  0  0
  -21.5964   -8.7462   21.1771 F   0  0  0  0  0  0  0  0  0  0  0  0
  1  2  1  0  0  0  0
  1  5  2  0  0  0  0
  2  6  2  0  0  0  0
  3  8  2  0  0  0  0
  3 17  1  0  0  0  0
  4  9  1  0  0  0  0
  4 17  2  0  0  0  0
  5 19  1  0  0  0  0
  6 21  1  0  0  0  0
  7 10  2  0  0  0  0
  7 20  1  0  0  0  0
  8 27  1  0  0  0  0
  9 27  2  0  0  0  0
 10 28  1  0  0  0  0
 11 12  2  0  0  0  0
 11 29  1  0  0  0  0
 12 30  1  0  0  0  0
 13 22  1  0  0  0  0
 13 28  2  0  0  0  0
 14 24  1  0  0  0  0
 14 25  2  0  0  0  0
 15 24  2  0  0  0  0
 15 26  1  0  0  0  0
 16 30  2  0  0  0  0
 16 31  1  0  0  0  0
 17 32  1  0  0  0  0
 18 32  1  0  0  0  0
 18 33  2  0  0  0  0
 18 34  1  0  0  0  0
 19 21  2  0  0  0  0
 19 40  1  0  0  0  0
 20 22  2  0  0  0  0
 20 41  1  0  0  0  0
 21 49  1  0  0  0  0
 22 42  1  0  0  0  0
 23 25  1  0  0  0  0
 23 26  2  0  0  0  0
 23 52  1  0  0  0  0
 24 72  1  0  0  0  0
 25 68  1  0  0  0  0
 26 71  1  0  0  0  0
 27 82  1  0  0  0  0
 28 83  1  0  0  0  0
 29 31  2  0  0  0  0
 29 82  1  0  0  0  0
 30 84  1  0  0  0  0
 31 85  1  0  0  0  0
 32 64  2  0  0  0  0
 33 65  1  0  0  0  0
 33 69  1  0  0  0  0
 34 70  1  0  0  0  0
 34 76  2  0  0  0  0
 35 50  1  0  0  0  0
 35 73  1  0  0  0  0
 35 77  2  0  0  0  0
 36 61  1  0  0  0  0
 36 66  1  0  0  0  0
 36 78  2  0  0  0  0
 37 58  1  0  0  0  0
 37 71  1  0  0  0  0
 37 79  2  0  0  0  0
 38 62  1  0  0  0  0
 38 74  1  0  0  0  0
 38 80  2  0  0  0  0
 39 67  1  0  0  0  0
 39 72  1  0  0  0  0
 39 81  2  0  0  0  0
 40 43  1  0  0  0  0
 41 50  1  0  0  0  0
 42 66  1  0  0  0  0
 43 45  1  0  0  0  0
 44 46  1  0  0  0  0
 44 47  1  0  0  0  0
 45 49  1  0  0  0  0
 46 51  1  0  0  0  0
 47 67  1  0  0  0  0
 48 51  1  0  0  0  0
 48 67  1  0  0  0  0
 49 73  1  0  0  0  0
 50 66  1  0  0  0  0
 51 65  1  0  0  0  0
 53 62  1  0  0  0  0
 54 63  1  0  0  0  0
 55 63  1  0  0  0  0
 56 63  1  0  0  0  0
 57 75  1  0  0  0  0
 58 59  1  0  0  0  0
 59 60  1  0  0  0  0
 60 83  1  0  0  0  0
 61 63  1  0  0  0  0
 61 74  1  0  0  0  0
 62 75  1  0  0  0  0
 64 65  1  0  0  0  0
M  CHG  1  75   1
M  ISO  4  39 100  60 101  72 100  83 101
M  END
> <Batch ID>
0062

> <Smiles>
CNC(C)C(=O)NC(C(=O)N1Cc2cc([101O:1][101CH2:1]CCC(=O)Nc3cc([100NH:0][100C:0](=O)N4CCCC(n5nc(-c6ccc(Oc7ccc(F)cc7F)cc6)c(C(N)=O)c5N)C4)cc(N)c3C)ccc2CC1C(=O)NC1CCCc2ccccc21)C(C)(C)C

> <Shape>
0.266

> <Color>
0.071

> <Negative vol penalty>
0.000

$$$$

  -OEChem-04042323093D

 88 96  0     1  0  0  0  0  0999 V2000
  -24.6369  -11.1723   19.9301 C   0  0  0  0  0  0  0  0  0  0  0  0
  -24.0629  -12.4390   19.8949 C   0  0  0  0  0  0  0  0  0  0  0  0
  -26.6139  -31.7503   20.0172 C   0  0  0  0  0  0  0  0  0  0  0  0
  -26.1161  -31.0244   22.2672 C   0  0  0  0  0  0  0  0  0  0  0  0
  -25.8849  -10.9900   20.5245 C   0  0  0  0  0  0  0  0  0  0  0  0
  -24.7361  -13.5241   20.4551 C   0  0  0  0  0  0  0  0  0  0  0  0
  -24.6307  -17.6215   17.4810 C   0  0  0  0  0  0  0  0  0  0  0  0
  -26.8370  -33.0455   20.4844 C   0  0  0  0  0  0  0  0  0  0  0  0
  -26.3392  -32.3196   22.7344 C   0  0  0  0  0  0  0  0  0  0  0  0
  -23.4534  -18.3682   17.4673 C   0  0  0  0  0  0  0  0  0  0  0  0
  -24.9797  -35.7123   21.4134 C   0  0  0  0  0  0  0  0  0  0  0  0
  -24.4190  -36.7662   20.6920 C   0  0  0  0  0  0  0  0  0  0  0  0
  -24.4485  -19.9537   18.9890 C   0  0  0  0  0  0  0  0  0  0  0  0
  -20.8985  -24.7682   23.6317 C   0  0  0  0  0  0  0  0  0  0  0  0
  -19.9506  -23.4878   21.8154 C   0  0  0  0  0  0  0  0  0  0  0  0
  -26.6236  -37.6781   20.3106 C   0  0  0  0  0  0  0  0  0  0  0  0
  -26.2534  -30.7398   20.9086 C   0  0  0  0  0  0  0  0  0  0  0  0
  -26.9691  -28.3674   20.3025 C   0  0  0  0  0  0  0  0  0  0  0  0
  -26.5781  -12.0751   21.0836 C   0  0  0  0  0  0  0  0  0  0  0  0
  -25.7237  -18.0301   18.2586 C   0  0  0  0  0  0  0  0  0  0  0  0
  -25.9940  -13.3559   21.0587 C   0  0  0  0  0  0  0  0  0  0  0  0
  -25.6394  -19.2117   19.0088 C   0  0  0  0  0  0  0  0  0  0  0  0
  -20.6692  -23.7029   24.5024 C   0  0  0  0  0  0  0  0  0  0  0  0
  -20.0806  -22.5300   24.0296 C   0  0  0  0  0  0  0  0  0  0  0  0
  -20.5392  -24.6607   22.2882 C   0  0  0  0  0  0  0  0  0  0  0  0
  -19.7213  -22.4225   22.6861 C   0  0  0  0  0  0  0  0  0  0  0  0
  -26.6997  -33.3302   21.8430 C   0  0  0  0  0  0  0  0  0  0  0  0
  -23.3611  -19.5329   18.2236 C   0  0  0  0  0  0  0  0  0  0  0  0
  -26.3623  -35.6413   21.5835 C   0  0  0  0  0  0  0  0  0  0  0  0
  -25.2409  -37.7491   20.1406 C   0  0  0  0  0  0  0  0  0  0  0  0
  -27.1843  -36.6241   21.0321 C   0  0  0  0  0  0  0  0  0  0  0  0
  -26.0222  -29.4018   20.4265 C   0  0  0  0  0  0  0  0  0  0  0  0
  -26.2547  -27.3060   19.8029 C   0  0  0  0  0  0  0  0  0  0  0  0
  -28.3692  -28.3661   20.6114 C   0  0  0  0  0  0  0  0  0  0  0  0
  -27.3312  -16.7817   20.7002 C   0  0  0  0  0  0  0  0  0  0  0  0
  -29.2580  -19.3503   20.2395 C   0  0  0  0  0  0  0  0  0  0  0  0
  -20.1069  -20.4023   20.2215 C   0  0  0  0  0  0  0  0  0  0  0  0
  -29.6152  -22.5268   19.0441 C   0  0  0  0  0  0  0  0  0  0  0  0
  -20.4773  -25.7996   20.0420 C   0  0  0  0  0  0  0  0  0  0  0  0
  -27.9033  -11.8205   21.7571 C   0  0  0  0  0  0  0  0  0  0  0  0
  -26.9959  -17.2278   18.2416 C   0  0  0  0  0  0  0  0  0  0  0  0
  -26.7915  -19.7045   19.8444 C   0  0  0  0  0  0  0  0  0  0  0  0
  -28.7191  -13.0887   21.9953 C   0  0  0  0  0  0  0  0  0  0  0  0
  -22.4259  -26.3068   17.1055 C   0  0  0  0  0  0  0  0  0  0  0  0
  -27.8408  -14.1843   22.5912 C   0  0  0  0  0  0  0  0  0  0  0  0
  -23.6583  -27.0586   17.6136 C   0  0  0  0  0  0  0  0  0  0  0  0
  -21.1575  -26.7339   17.8421 C   0  0  0  0  0  0  0  0  0  0  0  0
  -22.4680  -27.4124   19.8148 C   0  0  0  0  0  0  0  0  0  0  0  0
  -26.7043  -14.5622   21.6336 C   0  0  1  0  0  0  0  0  0  0  0  0
  -27.8666  -17.4622   19.4722 C   0  0  1  0  0  0  0  0  0  0  0  0
  -23.7803  -26.9692   19.1475 C   0  0  2  0  0  0  0  0  0  0  0  0
  -19.8361  -21.3892   24.9668 C   0  0  0  0  0  0  0  0  0  0  0  0
  -31.2961  -24.3796   18.8458 C   0  0  0  0  0  0  0  0  0  0  0  0
  -21.6948  -25.2426   26.2121 C   0  0  0  0  0  0  0  0  0  0  0  0
  -22.1100  -22.7634   26.3431 C   0  0  0  0  0  0  0  0  0  0  0  0
  -19.8944  -23.7031   26.9673 C   0  0  0  0  0  0  0  0  0  0  0  0
  -28.8782  -20.0078   23.1947 C   0  0  0  0  0  0  0  0  0  0  0  0
  -29.7548  -22.3054   22.7244 C   0  0  0  0  0  0  0  0  0  0  0  0
  -31.2116  -20.3155   22.3490 C   0  0  0  0  0  0  0  0  0  0  0  0
  -29.4880  -22.4824   16.0876 C   0  0  0  0  0  0  0  0  0  0  0  0
  -19.8626  -20.2667   18.7276 C   0  0  0  0  0  0  0  0  0  0  0  0
  -20.9932  -19.5528   18.0035 C   0  0  0  0  0  0  0  0  0  1  0  0
  -29.2956  -20.7660   20.7622 C   0  0  1  0  0  0  0  0  0  0  0  0
  -30.6843  -23.1608   18.1726 C   0  0  2  0  0  0  0  0  0  0  0  0
  -21.0620  -23.8443   25.9366 C   0  0  0  0  0  0  0  0  0  0  0  0
  -29.7625  -20.8387   22.2435 C   0  0  0  0  0  0  0  0  0  0  0  0
  -24.7996  -29.0310   20.0369 N   0  0  0  0  0  0  0  0  0  0  0  0
  -24.9734  -27.7519   19.6631 N   0  0  0  0  0  0  0  0  0  0  0  0
  -28.0117  -18.8820   19.7998 N   0  0  0  0  0  0  0  0  0  0  0  0
  -21.3456  -26.6188   19.2899 N   0  0  0  0  0  0  0  0  0  0  0  0
  -26.6039  -26.0442   19.4738 N   0  0  0  0  0  0  0  0  0  0  0  0
  -28.9430  -29.5408   21.1165 N   0  0  0  0  0  0  0  0  0  0  0  0
  -20.7735  -25.7424   21.4035 N   0  0  0  0  0  0  0  0  0  0  0  0
  -19.1296  -21.2534   22.1925 N   0  0  0  0  0  0  0  0  0  0  0  0
  -27.1993  -15.4122   20.5721 N   0  0  0  0  0  0  0  0  0  0  0  0
  -30.1306  -21.5216   19.8347 N   0  0  0  0  0  0  0  0  0  0  0  0
  -19.0588  -21.0556   20.8440 N   0  0  0  0  0  0  0  0  0  0  0  0
  -30.1037  -23.5866   16.8678 N   0  3  0  0  0  0  0  0  0  0  0  0
  -29.0934  -27.3583   20.4289 O   0  0  0  0  0  0  0  0  0  0  0  0
  -27.0594  -17.4495   21.6910 O   0  0  0  0  0  0  0  0  0  0  0  0
  -30.2977  -18.6868   20.2153 O   0  0  0  0  0  0  0  0  0  0  0  0
  -21.1132  -19.9767   20.7825 O   0  0  0  0  0  0  0  0  0  0  0  0
  -28.4411  -22.8896   19.0279 O   0  0  0  0  0  0  0  0  0  0  0  0
  -19.5565  -25.1719   19.5126 O   0  0  0  0  0  0  0  0  0  0  0  0
  -26.9175  -34.5939   22.2993 O   0  0  0  0  0  0  0  0  0  0  0  0
  -22.2130  -20.2633   18.2126 O   0  0  0  0  0  0  0  0  0  1  0  0
  -24.7024  -38.7603   19.4465 F   0  0  0  0  0  0  0  0  0  0  0  0
  -28.5133  -36.5606   21.1911 F   0  0  0  0  0  0  0  0  0  0  0  0
  1  2  1  0  0  0  0
  1  5  2  0  0  0  0
  2  6  2  0  0  0  0
  3  8  2  0  0  0  0
  3 17  1  0  0  0  0
  4  9  1  0  0  0  0
  4 17  2  0  0  0  0
  5 19  1  0  0  0  0
  6 21  1  0  0  0  0
  7 10  2  0  0  0  0
  7 20  1  0  0  0  0
  8 27  1  0  0  0  0
  9 27  2  0  0  0  0
 10 28  1  0  0  0  0
 11 12  2  0  0  0  0
 11 29  1  0  0  0  0
 12 30  1  0  0  0  0
 13 22  1  0  0  0  0
 13 28  2  0  0  0  0
 14 23  2  0  0  0  0
 14 25  1  0  0  0  0
 15 25  2  0  0  0  0
 15 26  1  0  0  0  0
 16 30  2  0  0  0  0
 16 31  1  0  0  0  0
 17 32  1  0  0  0  0
 18 32  1  0  0  0  0
 18 33  2  0  0  0  0
 18 34  1  0  0  0  0
 19 21  2  0  0  0  0
 19 40  1  0  0  0  0
 20 22  2  0  0  0  0
 20 41  1  0  0  0  0
 21 49  1  0  0  0  0
 22 42  1  0  0  0  0
 23 24  1  0  0  0  0
 23 65  1  0  0  0  0
 24 26  2  0  0  0  0
 24 52  1  0  0  0  0
 25 73  1  0  0  0  0
 26 74  1  0  0  0  0
 27 85  1  0  0  0  0
 28 86  1  0  0  0  0
 29 31  2  0  0  0  0
 29 85  1  0  0  0  0
 30 87  1  0  0  0  0
 31 88  1  0  0  0  0
 32 67  2  0  0  0  0
 33 68  1  0  0  0  0
 33 71  1  0  0  0  0
 34 72  1  0  0  0  0
 34 79  2  0  0  0  0
 35 50  1  0  0  0  0
 35 75  1  0  0  0  0
 35 80  2  0  0  0  0
 36 63  1  0  0  0  0
 36 69  1  0  0  0  0
 36 81  2  0  0  0  0
 37 61  1  0  0  0  0
 37 77  1  0  0  0  0
 37 82  2  0  0  0  0
 38 64  1  0  0  0  0
 38 76  1  0  0  0  0
 38 83  2  0  0  0  0
 39 70  1  0  0  0  0
 39 73  1  0  0  0  0
 39 84  2  0  0  0  0
 40 43  1  0  0  0  0
 41 50  1  0  0  0  0
 42 69  1  0  0  0  0
 43 45  1  0  0  0  0
 44 46  1  0  0  0  0
 44 47  1  0  0  0  0
 45 49  1  0  0  0  0
 46 51  1  0  0  0  0
 47 70  1  0  0  0  0
 48 51  1  0  0  0  0
 48 70  1  0  0  0  0
 49 75  1  0  0  0  0
 50 69  1  0  0  0  0
 51 68  1  0  0  0  0
 53 64  1  0  0  0  0
 54 65  1  0  0  0  0
 55 65  1  0  0  0  0
 56 65  1  0  0  0  0
 57 66  1  0  0  0  0
 58 66  1  0  0  0  0
 59 66  1  0  0  0  0
 60 78  1  0  0  0  0
 61 62  1  0  0  0  0
 62 86  1  0  0  0  0
 63 66  1  0  0  0  0
 63 76  1  0  0  0  0
 64 78  1  0  0  0  0
 67 68  1  0  0  0  0
 74 77  1  0  0  0  0
M  CHG  1  78   1
M  ISO  4  39 100  62 101  73 100  86 101
M  END
> <Batch ID>
0062

> <Smiles>
CNC(C)C(=O)NC(C(=O)N1Cc2cc([101O:1][101CH2:1]CC(=O)NNc3cc([100NH:0][100C:0](=O)N4CCCC(n5nc(-c6ccc(Oc7ccc(F)cc7F)cc6)c(C(N)=O)c5N)C4)cc(C(C)(C)C)c3C)ccc2CC1C(=O)NC1CCCc2ccccc21)C(C)(C)C

> <Shape>
0.202

> <Color>
0.074

> <Negative vol penalty>
0.000

$$$$

  -OEChem-04042323093D

 83 91  0     1  0  0  0  0  0999 V2000
  -20.7070  -33.9165   15.3762 C   0  0  0  0  0  0  0  0  0  0  0  0
  -21.5300  -32.7999   15.4822 C   0  0  0  0  0  0  0  0  0  0  0  0
  -32.2564  -18.5006   21.1899 C   0  0  0  0  0  0  0  0  0  0  0  0
  -22.9327  -11.5986   21.5332 C   0  0  0  0  0  0  0  0  0  0  0  0
  -22.9220  -13.9949   21.2250 C   0  0  0  0  0  0  0  0  0  0  0  0
  -20.9190  -35.0184   16.2037 C   0  0  0  0  0  0  0  0  0  0  0  0
  -22.5662  -32.7849   16.4151 C   0  0  0  0  0  0  0  0  0  0  0  0
  -24.6134  -27.9492   19.5664 C   0  0  0  0  0  0  0  0  0  0  0  0
  -31.4568  -19.6085   20.9094 C   0  0  0  0  0  0  0  0  0  0  0  0
  -31.8228  -17.2214   20.8414 C   0  0  0  0  0  0  0  0  0  0  0  0
  -21.9161  -11.7160   22.4810 C   0  0  0  0  0  0  0  0  0  0  0  0
  -21.9053  -14.1122   22.1727 C   0  0  0  0  0  0  0  0  0  0  0  0
  -25.6987  -27.0954   19.3741 C   0  0  0  0  0  0  0  0  0  0  0  0
  -18.5582  -13.6644   22.3011 C   0  0  0  0  0  0  0  0  0  0  0  0
  -17.4842  -14.5009   21.9971 C   0  0  0  0  0  0  0  0  0  0  0  0
  -27.0050  -28.4198   20.9098 C   0  0  0  0  0  0  0  0  0  0  0  0
  -29.7899  -18.1581   19.9321 C   0  0  0  0  0  0  0  0  0  0  0  0
  -17.9817  -15.8461   23.9414 C   0  0  0  0  0  0  0  0  0  0  0  0
  -23.4357  -12.7381   20.9052 C   0  0  0  0  0  0  0  0  0  0  0  0
  -24.3382  -12.4385   18.5380 C   0  0  0  0  0  0  0  0  0  0  0  0
  -21.9523  -35.0131   17.1539 C   0  0  0  0  0  0  0  0  0  0  0  0
  -24.7194  -29.0528   20.4249 C   0  0  0  0  0  0  0  0  0  0  0  0
  -22.7931  -33.8883   17.2552 C   0  0  0  0  0  0  0  0  0  0  0  0
  -25.9188  -29.2846   21.1133 C   0  0  0  0  0  0  0  0  0  0  0  0
  -30.2236  -19.4373   20.2805 C   0  0  0  0  0  0  0  0  0  0  0  0
  -30.5896  -17.0501   20.2126 C   0  0  0  0  0  0  0  0  0  0  0  0
  -21.4024  -12.9727   22.8007 C   0  0  0  0  0  0  0  0  0  0  0  0
  -26.8956  -27.3323   20.0436 C   0  0  0  0  0  0  0  0  0  0  0  0
  -19.3439  -13.9186   23.4253 C   0  0  0  0  0  0  0  0  0  0  0  0
  -17.1960  -15.5918   22.8172 C   0  0  0  0  0  0  0  0  0  0  0  0
  -19.0557  -15.0095   24.2454 C   0  0  0  0  0  0  0  0  0  0  0  0
  -24.4863  -12.6176   19.9265 C   0  0  0  0  0  0  0  0  0  0  0  0
  -25.6245  -12.3836   18.0598 C   0  0  0  0  0  0  0  0  0  0  0  0
  -23.1445  -12.3315   17.7510 C   0  0  0  0  0  0  0  0  0  0  0  0
  -24.5009  -32.2035   20.0655 C   0  0  0  0  0  0  0  0  0  0  0  0
  -24.7528  -32.1982   23.2995 C   0  0  0  0  0  0  0  0  0  0  0  0
  -29.6888  -21.8983   20.2713 C   0  0  0  0  0  0  0  0  0  0  0  0
  -25.8009  -30.5901   26.1213 C   0  0  0  0  0  0  0  0  0  0  0  0
  -30.8213  -14.5459   20.0656 C   0  0  0  0  0  0  0  0  0  0  0  0
  -22.1724  -36.2463   17.9938 C   0  0  0  0  0  0  0  0  0  0  0  0
  -23.5311  -29.9490   20.6421 C   0  0  0  0  0  0  0  0  0  0  0  0
  -26.0777  -30.4439   22.0615 C   0  0  0  0  0  0  0  0  0  0  0  0
  -23.0573  -36.0025   19.2136 C   0  0  0  0  0  0  0  0  0  0  0  0
  -30.0581  -11.1378   19.3733 C   0  0  0  0  0  0  0  0  0  0  0  0
  -24.2963  -35.2029   18.8230 C   0  0  0  0  0  0  0  0  0  0  0  0
  -28.5294  -11.1154   19.3042 C   0  0  0  0  0  0  0  0  0  0  0  0
  -30.5634  -12.1035   20.4438 C   0  0  0  0  0  0  0  0  0  0  0  0
  -28.5053  -13.4474   20.2779 C   0  0  0  0  0  0  0  0  0  0  0  0
  -23.9122  -33.8244   18.2719 C   0  0  1  0  0  0  0  0  0  0  0  0
  -23.9139  -31.3378   21.1442 C   0  0  1  0  0  0  0  0  0  0  0  0
  -27.9505  -12.5375   19.1698 C   0  0  2  0  0  0  0  0  0  0  0  0
  -25.9023  -30.8514   28.6150 C   0  0  0  0  0  0  0  0  0  0  0  0
  -27.0700  -34.1602   22.9972 C   0  0  0  0  0  0  0  0  0  0  0  0
  -27.7210  -33.6473   25.3597 C   0  0  0  0  0  0  0  0  0  0  0  0
  -25.5021  -34.6789   24.8753 C   0  0  0  0  0  0  0  0  0  0  0  0
  -24.1313  -28.1857   26.5575 C   0  0  0  0  0  0  0  0  0  0  0  0
  -28.5472  -22.7873   19.7981 C   0  0  0  0  0  0  0  0  0  0  0  0
  -28.7992  -24.2651   20.0766 C   0  0  0  0  0  0  0  0  0  0  0  0
  -27.6675  -25.1371   19.5526 C   0  0  0  0  0  0  0  0  0  1  0  0
  -25.8969  -32.2530   24.2828 C   0  0  1  0  0  0  0  0  0  0  0  0
  -25.1024  -30.3110   27.4399 C   0  0  2  0  0  0  0  0  0  0  0  0
  -26.5454  -33.6640   24.3595 C   0  0  0  0  0  0  0  0  0  0  0  0
  -25.7658  -12.6726   20.3057 N   0  0  0  0  0  0  0  0  0  0  0  0
  -26.4334  -12.5272   19.1485 N   0  0  0  0  0  0  0  0  0  0  0  0
  -24.8892  -31.2953   22.2356 N   0  0  0  0  0  0  0  0  0  0  0  0
  -29.9763  -13.4312   20.2504 N   0  0  0  0  0  0  0  0  0  0  0  0
  -26.1313  -12.2269   16.8184 N   0  0  0  0  0  0  0  0  0  0  0  0
  -21.9058  -12.4089   18.4020 N   0  0  0  0  0  0  0  0  0  0  0  0
  -29.4131  -20.5619   19.9958 N   0  0  0  0  0  0  0  0  0  0  0  0
  -30.1497  -15.7505   19.8588 N   0  0  0  0  0  0  0  0  0  0  0  0
  -23.5640  -32.9271   19.3527 N   0  0  0  0  0  0  0  0  0  0  0  0
  -25.3670  -31.7691   25.5531 N   0  0  0  0  0  0  0  0  0  0  0  0
  -24.9212  -28.8440   27.6297 N   0  3  0  0  0  0  0  0  0  0  0  0
  -23.1756  -12.1555   16.5094 O   0  0  0  0  0  0  0  0  0  0  0  0
  -25.7142  -32.2153   19.8936 O   0  0  0  0  0  0  0  0  0  0  0  0
  -23.7709  -32.9245   23.4731 O   0  0  0  0  0  0  0  0  0  0  0  0
  -30.6885  -22.3562   20.8147 O   0  0  0  0  0  0  0  0  0  0  0  0
  -26.6493  -29.8392   25.6449 O   0  0  0  0  0  0  0  0  0  0  0  0
  -32.0500  -14.4353   20.0618 O   0  0  0  0  0  0  0  0  0  0  0  0
  -20.4102  -13.0876   23.7254 O   0  0  0  0  0  0  0  0  0  0  0  0
  -27.9567  -26.5009   19.8572 O   0  0  0  0  0  0  0  0  0  1  0  0
  -16.1657  -16.3960   22.5243 F   0  0  0  0  0  0  0  0  0  0  0  0
  -19.8076  -15.2595   25.3261 F   0  0  0  0  0  0  0  0  0  0  0  0
  1  2  1  0  0  0  0
  1  6  2  0  0  0  0
  2  7  2  0  0  0  0
  3  9  2  0  0  0  0
  3 10  1  0  0  0  0
  4 11  2  0  0  0  0
  4 19  1  0  0  0  0
  5 12  1  0  0  0  0
  5 19  2  0  0  0  0
  6 21  1  0  0  0  0
  7 23  1  0  0  0  0
  8 13  2  0  0  0  0
  8 22  1  0  0  0  0
  9 25  1  0  0  0  0
 10 26  2  0  0  0  0
 11 27  1  0  0  0  0
 12 27  2  0  0  0  0
 13 28  1  0  0  0  0
 14 15  2  0  0  0  0
 14 29  1  0  0  0  0
 15 30  1  0  0  0  0
 16 24  1  0  0  0  0
 16 28  2  0  0  0  0
 17 25  2  0  0  0  0
 17 26  1  0  0  0  0
 18 30  2  0  0  0  0
 18 31  1  0  0  0  0
 19 32  1  0  0  0  0
 20 32  1  0  0  0  0
 20 33  2  0  0  0  0
 20 34  1  0  0  0  0
 21 23  2  0  0  0  0
 21 40  1  0  0  0  0
 22 24  2  0  0  0  0
 22 41  1  0  0  0  0
 23 49  1  0  0  0  0
 24 42  1  0  0  0  0
 25 69  1  0  0  0  0
 26 70  1  0  0  0  0
 27 80  1  0  0  0  0
 28 81  1  0  0  0  0
 29 31  2  0  0  0  0
 29 80  1  0  0  0  0
 30 82  1  0  0  0  0
 31 83  1  0  0  0  0
 32 63  2  0  0  0  0
 33 64  1  0  0  0  0
 33 67  1  0  0  0  0
 34 68  1  0  0  0  0
 34 74  2  0  0  0  0
 35 50  1  0  0  0  0
 35 71  1  0  0  0  0
 35 75  2  0  0  0  0
 36 60  1  0  0  0  0
 36 65  1  0  0  0  0
 36 76  2  0  0  0  0
 37 57  1  0  0  0  0
 37 69  1  0  0  0  0
 37 77  2  0  0  0  0
 38 61  1  0  0  0  0
 38 72  1  0  0  0  0
 38 78  2  0  0  0  0
 39 66  1  0  0  0  0
 39 70  1  0  0  0  0
 39 79  2  0  0  0  0
 40 43  1  0  0  0  0
 41 50  1  0  0  0  0
 42 65  1  0  0  0  0
 43 45  1  0  0  0  0
 44 46  1  0  0  0  0
 44 47  1  0  0  0  0
 45 49  1  0  0  0  0
 46 51  1  0  0  0  0
 47 66  1  0  0  0  0
 48 51  1  0  0  0  0
 48 66  1  0  0  0  0
 49 71  1  0  0  0  0
 50 65  1  0  0  0  0
 51 64  1  0  0  0  0
 52 61  1  0  0  0  0
 53 62  1  0  0  0  0
 54 62  1  0  0  0  0
 55 62  1  0  0  0  0
 56 73  1  0  0  0  0
 57 58  1  0  0  0  0
 58 59  1  0  0  0  0
 59 81  1  0  0  0  0
 60 62  1  0  0  0  0
 60 72  1  0  0  0  0
 61 73  1  0  0  0  0
 63 64  1  0  0  0  0
M  CHG  1  73   1
M  ISO  4  39 100  59 101  70 100  81 101
M  END
> <Batch ID>
0062

> <Smiles>
CNC(C)C(=O)NC(C(=O)N1Cc2cc([101O:1][101CH2:1]CCC(=O)Nc3cccc([100NH:0][100C:0](=O)N4CCCC(n5nc(-c6ccc(Oc7ccc(F)cc7F)cc6)c(C(N)=O)c5N)C4)c3)ccc2CC1C(=O)NC1CCCc2ccccc21)C(C)(C)C

> <Shape>
0.275

> <Color>
0.101

> <Negative vol penalty>
0.000

$$$$

  -OEChem-04042323093D

 85 94  0     1  0  0  0  0  0999 V2000
  -28.0452  -23.7433   17.0810 C   0  0  0  0  0  0  0  0  0  0  0  0
  -26.9139  -23.9305   17.8686 C   0  0  0  0  0  0  0  0  0  0  0  0
  -27.6621  -12.8989   19.4765 C   0  0  0  0  0  0  0  0  0  0  0  0
  -27.9287  -13.8620   21.6762 C   0  0  0  0  0  0  0  0  0  0  0  0
  -29.2420  -24.3725   17.4211 C   0  0  0  0  0  0  0  0  0  0  0  0
  -26.9790  -24.7463   18.9976 C   0  0  0  0  0  0  0  0  0  0  0  0
  -23.0172  -27.8794   19.3616 C   0  0  0  0  0  0  0  0  0  0  0  0
  -28.9310  -12.3276   19.5729 C   0  0  0  0  0  0  0  0  0  0  0  0
  -29.1975  -13.2907   21.7726 C   0  0  0  0  0  0  0  0  0  0  0  0
  -21.8197  -27.3400   19.8293 C   0  0  0  0  0  0  0  0  0  0  0  0
  -30.3486   -9.6462   21.0673 C   0  0  0  0  0  0  0  0  0  0  0  0
  -30.4918   -8.3153   20.6751 C   0  0  0  0  0  0  0  0  0  0  0  0
  -22.2705  -28.2515   22.0168 C   0  0  0  0  0  0  0  0  0  0  0  0
  -18.8694  -20.9313   24.5237 C   0  0  0  0  0  0  0  0  0  0  0  0
  -19.8468  -18.9930   23.4633 C   0  0  0  0  0  0  0  0  0  0  0  0
  -20.2807  -21.1999   22.5813 C   0  0  0  0  0  0  0  0  0  0  0  0
  -32.0969   -8.9825   18.9971 C   0  0  0  0  0  0  0  0  0  0  0  0
  -27.1610  -13.6661   20.5282 C   0  0  0  0  0  0  0  0  0  0  0  0
  -24.6277  -13.6848   20.8279 C   0  0  0  0  0  0  0  0  0  0  0  0
  -29.3193  -25.2041   18.5494 C   0  0  0  0  0  0  0  0  0  0  0  0
  -23.8570  -28.6009   20.2222 C   0  0  0  0  0  0  0  0  0  0  0  0
  -28.1783  -25.3862   19.3540 C   0  0  0  0  0  0  0  0  0  0  0  0
  -23.4769  -28.8012   21.5569 C   0  0  0  0  0  0  0  0  0  0  0  0
  -19.0506  -19.5495   24.4643 C   0  0  0  0  0  0  0  0  0  0  0  0
  -19.4845  -21.7565   23.5822 C   0  0  0  0  0  0  0  0  0  0  0  0
  -20.4619  -19.8182   22.5218 C   0  0  0  0  0  0  0  0  0  0  0  0
  -29.6987  -12.5235   20.7209 C   0  0  0  0  0  0  0  0  0  0  0  0
  -21.4476  -27.5235   21.1578 C   0  0  0  0  0  0  0  0  0  0  0  0
  -31.0795  -10.6453   20.4243 C   0  0  0  0  0  0  0  0  0  0  0  0
  -31.3660   -7.9835   19.6400 C   0  0  0  0  0  0  0  0  0  0  0  0
  -31.9536  -10.3134   19.3892 C   0  0  0  0  0  0  0  0  0  0  0  0
  -25.8506  -14.2569   20.4290 C   0  0  0  0  0  0  0  0  0  0  0  0
  -23.6873  -14.6389   20.5250 C   0  0  0  0  0  0  0  0  0  0  0  0
  -19.8497  -24.1306   22.7702 C   0  0  0  0  0  0  0  0  0  0  0  0
  -24.3654  -12.4054   21.4194 C   0  0  0  0  0  0  0  0  0  0  0  0
  -26.8280  -28.2293   21.2895 C   0  0  0  0  0  0  0  0  0  0  0  0
  -26.3088  -31.1526   22.5961 C   0  0  0  0  0  0  0  0  0  0  0  0
  -24.0670  -33.4631   23.7286 C   0  0  0  0  0  0  0  0  0  0  0  0
  -21.9510  -19.9292   20.4928 C   0  0  0  0  0  0  0  0  0  0  0  0
  -30.6472  -25.8253   18.9038 C   0  0  0  0  0  0  0  0  0  0  0  0
  -25.1326  -29.1992   19.6954 C   0  0  0  0  0  0  0  0  0  0  0  0
  -24.3334  -29.5852   22.5162 C   0  0  0  0  0  0  0  0  0  0  0  0
  -30.5353  -26.9724   19.9047 C   0  0  0  0  0  0  0  0  0  0  0  0
  -24.0718  -18.9023   17.8237 C   0  0  0  0  0  0  0  0  0  0  0  0
  -29.6241  -26.5823   21.0641 C   0  0  0  0  0  0  0  0  0  0  0  0
  -24.6230  -17.5552   18.2963 C   0  0  0  0  0  0  0  0  0  0  0  0
  -18.8346  -25.2542   24.6064 C   0  0  0  0  0  0  0  0  0  0  0  0
  -23.9212  -19.8903   18.9790 C   0  0  0  0  0  0  0  0  0  0  0  0
  -18.4356  -23.7922   24.6302 C   0  0  0  0  0  0  0  0  0  0  0  0
  -23.6996  -18.0459   20.5971 C   0  0  0  0  0  0  0  0  0  0  0  0
  -28.2027  -26.2834   20.5724 C   0  0  1  0  0  0  0  0  0  0  0  0
  -19.2570  -25.4748   23.1611 C   0  0  1  0  0  0  0  0  0  0  0  0
  -26.1582  -29.4781   20.7897 C   0  0  1  0  0  0  0  0  0  0  0  0
  -23.8078  -16.9963   19.4789 C   0  0  2  0  0  0  0  0  0  0  0  0
  -18.3916  -18.6674   25.4705 C   0  0  0  0  0  0  0  0  0  0  0  0
  -23.9442  -35.7410   24.7743 C   0  0  0  0  0  0  0  0  0  0  0  0
  -27.1429  -29.9631   25.2792 C   0  0  0  0  0  0  0  0  0  0  0  0
  -26.1105  -31.9488   26.4015 C   0  0  0  0  0  0  0  0  0  0  0  0
  -28.0276  -32.2599   24.8361 C   0  0  0  0  0  0  0  0  0  0  0  0
  -22.5472  -34.5600   21.4382 C   0  0  0  0  0  0  0  0  0  0  0  0
  -20.2320  -26.6250   22.9938 C   0  0  0  0  0  0  0  0  0  1  0  0
  -25.7552  -31.6542   23.9079 C   0  0  1  0  0  0  0  0  0  0  0  0
  -23.9412  -34.9542   23.4729 C   0  0  2  0  0  0  0  0  0  0  0  0
  -26.7436  -31.4401   25.0889 C   0  0  0  0  0  0  0  0  0  0  0  0
  -25.7034  -15.4797   19.9120 N   0  0  0  0  0  0  0  0  0  0  0  0
  -24.3771  -15.6837   19.9839 N   0  0  0  0  0  0  0  0  0  0  0  0
  -19.2986  -23.1702   23.6434 N   0  0  0  0  0  0  0  0  0  0  0  0
  -25.5741  -30.1449   21.9552 N   0  0  0  0  0  0  0  0  0  0  0  0
  -23.1342  -19.2938   20.0605 N   0  0  0  0  0  0  0  0  0  0  0  0
  -22.3458  -14.6777   20.6714 N   0  0  0  0  0  0  0  0  0  0  0  0
  -25.4466  -11.5476   21.6631 N   0  0  0  0  0  0  0  0  0  0  0  0
  -21.2697  -19.2527   21.5042 N   0  0  0  0  0  0  0  0  0  0  0  0
  -27.4897  -27.5149   20.3090 N   0  0  0  0  0  0  0  0  0  0  0  0
  -25.3809  -33.0469   23.6871 N   0  0  0  0  0  0  0  0  0  0  0  0
  -22.6734  -35.2502   22.7476 N   0  3  0  0  0  0  0  0  0  0  0  0
  -20.6068  -23.9831   21.8218 O   0  0  0  0  0  0  0  0  0  0  0  0
  -23.2046  -12.0272   21.7077 O   0  0  0  0  0  0  0  0  0  0  0  0
  -26.7514  -27.9364   22.4769 O   0  0  0  0  0  0  0  0  0  0  0  0
  -27.3507  -31.6419   22.1527 O   0  0  0  0  0  0  0  0  0  0  0  0
  -23.0971  -32.7406   23.9472 O   0  0  0  0  0  0  0  0  0  0  0  0
  -21.5558  -20.9810   19.9833 O   0  0  0  0  0  0  0  0  0  0  0  0
  -30.9368  -11.9661   20.8153 O   0  0  0  0  0  0  0  0  0  0  0  0
  -20.2796  -26.9975   21.6171 O   0  0  0  0  0  0  0  0  0  1  0  0
  -31.5045   -6.7052   19.2646 F   0  0  0  0  0  0  0  0  0  0  0  0
  -32.6593  -11.2687   18.7686 F   0  0  0  0  0  0  0  0  0  0  0  0
  1  2  1  0  0  0  0
  1  5  2  0  0  0  0
  2  6  2  0  0  0  0
  3  8  2  0  0  0  0
  3 18  1  0  0  0  0
  4  9  1  0  0  0  0
  4 18  2  0  0  0  0
  5 20  1  0  0  0  0
  6 22  1  0  0  0  0
  7 10  2  0  0  0  0
  7 21  1  0  0  0  0
  8 27  1  0  0  0  0
  9 27  2  0  0  0  0
 10 28  1  0  0  0  0
 11 12  2  0  0  0  0
 11 29  1  0  0  0  0
 12 30  1  0  0  0  0
 13 23  1  0  0  0  0
 13 28  2  0  0  0  0
 14 24  2  0  0  0  0
 14 25  1  0  0  0  0
 15 24  1  0  0  0  0
 15 26  2  0  0  0  0
 16 25  2  0  0  0  0
 16 26  1  0  0  0  0
 17 30  2  0  0  0  0
 17 31  1  0  0  0  0
 18 32  1  0  0  0  0
 19 32  1  0  0  0  0
 19 33  2  0  0  0  0
 19 35  1  0  0  0  0
 20 22  2  0  0  0  0
 20 40  1  0  0  0  0
 21 23  2  0  0  0  0
 21 41  1  0  0  0  0
 22 51  1  0  0  0  0
 23 42  1  0  0  0  0
 24 55  1  0  0  0  0
 25 67  1  0  0  0  0
 26 72  1  0  0  0  0
 27 82  1  0  0  0  0
 28 83  1  0  0  0  0
 29 31  2  0  0  0  0
 29 82  1  0  0  0  0
 30 84  1  0  0  0  0
 31 85  1  0  0  0  0
 32 65  2  0  0  0  0
 33 66  1  0  0  0  0
 33 70  1  0  0  0  0
 34 52  1  0  0  0  0
 34 67  1  0  0  0  0
 34 76  2  0  0  0  0
 35 71  1  0  0  0  0
 35 77  2  0  0  0  0
 36 53  1  0  0  0  0
 36 73  1  0  0  0  0
 36 78  2  0  0  0  0
 37 62  1  0  0  0  0
 37 68  1  0  0  0  0
 37 79  2  0  0  0  0
 38 63  1  0  0  0  0
 38 74  1  0  0  0  0
 38 80  2  0  0  0  0
 39 69  1  0  0  0  0
 39 72  1  0  0  0  0
 39 81  2  0  0  0  0
 40 43  1  0  0  0  0
 41 53  1  0  0  0  0
 42 68  1  0  0  0  0
 43 45  1  0  0  0  0
 44 46  1  0  0  0  0
 44 48  1  0  0  0  0
 45 51  1  0  0  0  0
 46 54  1  0  0  0  0
 47 49  1  0  0  0  0
 47 52  1  0  0  0  0
 48 69  1  0  0  0  0
 49 67  1  0  0  0  0
 50 54  1  0  0  0  0
 50 69  1  0  0  0  0
 51 73  1  0  0  0  0
 52 61  1  0  0  0  0
 53 68  1  0  0  0  0
 54 66  1  0  0  0  0
 56 63  1  0  0  0  0
 57 64  1  0  0  0  0
 58 64  1  0  0  0  0
 59 64  1  0  0  0  0
 60 75  1  0  0  0  0
 61 83  1  0  0  0  0
 62 64  1  0  0  0  0
 62 74  1  0  0  0  0
 63 75  1  0  0  0  0
 65 66  1  0  0  0  0
M  CHG  1  75   1
M  ISO  4  39 100  61 101  72 100  83 101
M  END
> <Batch ID>
0062

> <Smiles>
CNC(C)C(=O)NC(C(=O)N1Cc2cc([101O:1][101CH2:1]C3CCN(c4cc(C)cc([100NH:0][100C:0](=O)N5CCCC(n6nc(-c7ccc(Oc8ccc(F)cc8F)cc7)c(C(N)=O)c6N)C5)c4)C3=O)ccc2CC1C(=O)NC1CCCc2ccccc21)C(C)(C)C

> <Shape>
0.269

> <Color>
0.080

> <Negative vol penalty>
0.000

$$$$

  -OEChem-04042323093D

 92101  0     1  0  0  0  0  0999 V2000
  -26.9631  -37.8634   22.5942 C   0  0  0  0  0  0  0  0  0  0  0  0
  -27.5854  -36.8701   21.8448 C   0  0  0  0  0  0  0  0  0  0  0  0
  -24.0293   -9.2427   21.4616 C   0  0  0  0  0  0  0  0  0  0  0  0
  -23.2535  -11.5307   21.4466 C   0  0  0  0  0  0  0  0  0  0  0  0
  -26.1601  -37.5161   23.6797 C   0  0  0  0  0  0  0  0  0  0  0  0
  -27.4058  -35.5288   22.1813 C   0  0  0  0  0  0  0  0  0  0  0  0
  -26.9633  -29.0340   19.1917 C   0  0  0  0  0  0  0  0  0  0  0  0
  -23.0308   -8.9100   22.3769 C   0  0  0  0  0  0  0  0  0  0  0  0
  -22.2548  -11.1980   22.3619 C   0  0  0  0  0  0  0  0  0  0  0  0
  -27.5197  -27.7599   19.2963 C   0  0  0  0  0  0  0  0  0  0  0  0
  -19.7135   -8.2578   22.3168 C   0  0  0  0  0  0  0  0  0  0  0  0
  -18.9871   -7.0894   22.0874 C   0  0  0  0  0  0  0  0  0  0  0  0
  -26.0465  -27.2748   21.1439 C   0  0  0  0  0  0  0  0  0  0  0  0
  -26.2399  -20.6984   18.9512 C   0  0  0  0  0  0  0  0  0  0  0  0
  -27.9864  -19.1218   19.4996 C   0  0  0  0  0  0  0  0  0  0  0  0
  -25.9551  -18.3542   18.4406 C   0  0  0  0  0  0  0  0  0  0  0  0
  -19.7308   -6.2101   24.2113 C   0  0  0  0  0  0  0  0  0  0  0  0
  -24.1407  -10.5530   20.9965 C   0  0  0  0  0  0  0  0  0  0  0  0
  -25.3594  -10.3602   18.7637 C   0  0  0  0  0  0  0  0  0  0  0  0
  -25.9628  -36.1695   24.0238 C   0  0  0  0  0  0  0  0  0  0  0  0
  -25.9501  -29.4426   20.0709 C   0  0  0  0  0  0  0  0  0  0  0  0
  -26.6004  -35.1632   23.2733 C   0  0  0  0  0  0  0  0  0  0  0  0
  -25.4771  -28.5537   21.0467 C   0  0  0  0  0  0  0  0  0  0  0  0
  -27.4991  -20.4287   19.4870 C   0  0  0  0  0  0  0  0  0  0  0  0
  -25.4678  -19.6611   18.4280 C   0  0  0  0  0  0  0  0  0  0  0  0
  -27.2144  -18.0845   18.9764 C   0  0  0  0  0  0  0  0  0  0  0  0
  -22.1435   -9.8876   22.8270 C   0  0  0  0  0  0  0  0  0  0  0  0
  -27.0634  -26.8812   20.2744 C   0  0  0  0  0  0  0  0  0  0  0  0
  -20.4487   -8.4024   23.4934 C   0  0  0  0  0  0  0  0  0  0  0  0
  -18.9957   -6.0655   23.0346 C   0  0  0  0  0  0  0  0  0  0  0  0
  -20.4573   -7.3785   24.4406 C   0  0  0  0  0  0  0  0  0  0  0  0
  -25.1724  -10.8974   20.0514 C   0  0  0  0  0  0  0  0  0  0  0  0
  -26.4657  -11.0125   18.2769 C   0  0  0  0  0  0  0  0  0  0  0  0
  -29.2044  -21.2696   21.0792 C   0  0  0  0  0  0  0  0  0  0  0  0
  -24.6009   -9.3609   18.0697 C   0  0  0  0  0  0  0  0  0  0  0  0
  -25.6622  -31.7391   22.2496 C   0  0  0  0  0  0  0  0  0  0  0  0
  -22.5985  -30.6827   22.3918 C   0  0  0  0  0  0  0  0  0  0  0  0
  -20.3875  -28.1315   21.8926 C   0  0  0  0  0  0  0  0  0  0  0  0
  -23.5507  -21.1673   17.7871 C   0  0  0  0  0  0  0  0  0  0  0  0
  -28.9368  -16.3175   19.4836 C   0  0  0  0  0  0  0  0  0  0  0  0
  -25.1240  -35.8450   25.2344 C   0  0  0  0  0  0  0  0  0  0  0  0
  -25.3417  -30.8107   19.9277 C   0  0  0  0  0  0  0  0  0  0  0  0
  -24.3773  -28.9366   22.0019 C   0  0  0  0  0  0  0  0  0  0  0  0
  -30.2100  -22.3695   21.3630 C   0  0  0  0  0  0  0  0  0  0  0  0
  -24.6834  -34.3848   25.2966 C   0  0  0  0  0  0  0  0  0  0  0  0
  -29.6785  -23.7705   21.1544 C   0  0  0  0  0  0  0  0  0  0  0  0
  -30.5062  -13.1313   19.7327 C   0  0  0  0  0  0  0  0  0  0  0  0
  -25.8599  -33.4592   25.0035 C   0  0  0  0  0  0  0  0  0  0  0  0
  -29.3339  -12.1476   19.7194 C   0  0  0  0  0  0  0  0  0  0  0  0
  -30.1653  -14.4096   20.4965 C   0  0  0  0  0  0  0  0  0  0  0  0
  -27.9792  -22.8750   19.5880 C   0  0  0  0  0  0  0  0  0  0  0  0
  -27.7628  -14.0997   20.0482 C   0  0  0  0  0  0  0  0  0  0  0  0
  -26.4100  -33.6962   23.5918 C   0  0  1  0  0  0  0  0  0  0  0  0
  -24.6720  -31.3037   21.2067 C   0  0  1  0  0  0  0  0  0  0  0  0
  -29.1202  -23.8790   19.7450 C   0  0  1  0  0  0  0  0  0  0  0  0
  -28.0363  -12.8239   19.2351 C   0  0  2  0  0  0  0  0  0  0  0  0
  -17.9572  -27.5551   22.1354 C   0  0  0  0  0  0  0  0  0  0  0  0
  -21.2506  -20.1498   17.9643 C   0  0  0  0  0  0  0  0  0  0  0  0
  -22.2681  -20.4947   15.7118 C   0  0  0  0  0  0  0  0  0  0  0  0
  -21.4997  -22.4692   17.0777 C   0  0  0  0  0  0  0  0  0  0  0  0
  -22.9718  -30.3887   25.4058 C   0  0  0  0  0  0  0  0  0  0  0  0
  -20.9201  -28.9545   25.4497 C   0  0  0  0  0  0  0  0  0  0  0  0
  -20.7614  -31.3333   24.7156 C   0  0  0  0  0  0  0  0  0  0  0  0
  -20.0942  -27.6416   18.9887 C   0  0  0  0  0  0  0  0  0  0  0  0
  -28.6378  -25.2986   19.4542 C   0  0  0  0  0  0  0  0  0  1  0  0
  -21.8640  -29.6386   23.1976 C   0  0  1  0  0  0  0  0  0  0  0  0
  -19.0345  -28.0911   21.2054 C   0  0  2  0  0  0  0  0  0  0  0  0
  -22.1516  -21.0785   17.1285 C   0  0  0  0  0  0  0  0  0  0  0  0
  -21.6514  -30.0719   24.6756 C   0  0  0  0  0  0  0  0  0  0  0  0
  -26.0868  -11.8198   20.3631 N   0  0  0  0  0  0  0  0  0  0  0  0
  -26.8590  -11.8673   19.2642 N   0  0  0  0  0  0  0  0  0  0  0  0
  -28.3003  -21.5054   20.0292 N   0  0  0  0  0  0  0  0  0  0  0  0
  -23.8189  -30.2874   21.8259 N   0  0  0  0  0  0  0  0  0  0  0  0
  -28.9270  -14.9969   19.9803 N   0  0  0  0  0  0  0  0  0  0  0  0
  -27.1308  -10.9326   17.1048 N   0  0  0  0  0  0  0  0  0  0  0  0
  -23.4940   -8.7938   18.7157 N   0  0  0  0  0  0  0  0  0  0  0  0
  -24.2084  -19.9306   17.8913 N   0  0  0  0  0  0  0  0  0  0  0  0
  -27.7090  -16.7568   18.9894 N   0  0  0  0  0  0  0  0  0  0  0  0
  -25.5561  -33.0702   22.6051 N   0  0  0  0  0  0  0  0  0  0  0  0
  -20.6288  -29.3585   22.4734 N   0  0  0  0  0  0  0  0  0  0  0  0
  -19.0919  -27.2170   19.9997 N   0  3  0  0  0  0  0  0  0  0  0  0
  -29.2816  -20.2294   21.7386 O   0  0  0  0  0  0  0  0  0  0  0  0
  -24.9056   -8.9703   16.9172 O   0  0  0  0  0  0  0  0  0  0  0  0
  -26.4622  -30.9272   22.6995 O   0  0  0  0  0  0  0  0  0  0  0  0
  -22.1042  -31.8055   22.2631 O   0  0  0  0  0  0  0  0  0  0  0  0
  -21.1520  -27.1695   21.9154 O   0  0  0  0  0  0  0  0  0  0  0  0
  -24.0030  -22.2458   18.1674 O   0  0  0  0  0  0  0  0  0  0  0  0
  -29.9655  -16.9983   19.4709 O   0  0  0  0  0  0  0  0  0  0  0  0
  -21.1688   -9.5633   23.7200 O   0  0  0  0  0  0  0  0  0  0  0  0
  -27.6052  -25.6373   20.3791 O   0  0  0  0  0  0  0  0  0  1  0  0
  -18.2968   -4.9442   22.8150 F   0  0  0  0  0  0  0  0  0  0  0  0
  -21.1607   -7.5121   25.5734 F   0  0  0  0  0  0  0  0  0  0  0  0
  1  2  1  0  0  0  0
  1  5  2  0  0  0  0
  2  6  2  0  0  0  0
  3  8  2  0  0  0  0
  3 18  1  0  0  0  0
  4  9  1  0  0  0  0
  4 18  2  0  0  0  0
  5 20  1  0  0  0  0
  6 22  1  0  0  0  0
  7 10  2  0  0  0  0
  7 21  1  0  0  0  0
  8 27  1  0  0  0  0
  9 27  2  0  0  0  0
 10 28  1  0  0  0  0
 11 12  2  0  0  0  0
 11 29  1  0  0  0  0
 12 30  1  0  0  0  0
 13 23  1  0  0  0  0
 13 28  2  0  0  0  0
 14 24  1  0  0  0  0
 14 25  2  0  0  0  0
 15 24  2  0  0  0  0
 15 26  1  0  0  0  0
 16 25  1  0  0  0  0
 16 26  2  0  0  0  0
 17 30  2  0  0  0  0
 17 31  1  0  0  0  0
 18 32  1  0  0  0  0
 19 32  1  0  0  0  0
 19 33  2  0  0  0  0
 19 35  1  0  0  0  0
 20 22  2  0  0  0  0
 20 41  1  0  0  0  0
 21 23  2  0  0  0  0
 21 42  1  0  0  0  0
 22 53  1  0  0  0  0
 23 43  1  0  0  0  0
 24 72  1  0  0  0  0
 25 77  1  0  0  0  0
 26 78  1  0  0  0  0
 27 89  1  0  0  0  0
 28 90  1  0  0  0  0
 29 31  2  0  0  0  0
 29 89  1  0  0  0  0
 30 91  1  0  0  0  0
 31 92  1  0  0  0  0
 32 70  2  0  0  0  0
 33 71  1  0  0  0  0
 33 75  1  0  0  0  0
 34 44  1  0  0  0  0
 34 72  1  0  0  0  0
 34 82  2  0  0  0  0
 35 76  1  0  0  0  0
 35 83  2  0  0  0  0
 36 54  1  0  0  0  0
 36 79  1  0  0  0  0
 36 84  2  0  0  0  0
 37 66  1  0  0  0  0
 37 73  1  0  0  0  0
 37 85  2  0  0  0  0
 38 67  1  0  0  0  0
 38 80  1  0  0  0  0
 38 86  2  0  0  0  0
 39 68  1  0  0  0  0
 39 77  1  0  0  0  0
 39 87  2  0  0  0  0
 40 74  1  0  0  0  0
 40 78  1  0  0  0  0
 40 88  2  0  0  0  0
 41 45  1  0  0  0  0
 42 54  1  0  0  0  0
 43 73  1  0  0  0  0
 44 46  1  0  0  0  0
 45 48  1  0  0  0  0
 46 55  1  0  0  0  0
 47 49  1  0  0  0  0
 47 50  1  0  0  0  0
 48 53  1  0  0  0  0
 49 56  1  0  0  0  0
 50 74  1  0  0  0  0
 51 55  1  0  0  0  0
 51 72  1  0  0  0  0
 52 56  1  0  0  0  0
 52 74  1  0  0  0  0
 53 79  1  0  0  0  0
 54 73  1  0  0  0  0
 55 65  1  0  0  0  0
 56 71  1  0  0  0  0
 57 67  1  0  0  0  0
 58 68  1  0  0  0  0
 59 68  1  0  0  0  0
 60 68  1  0  0  0  0
 61 69  1  0  0  0  0
 62 69  1  0  0  0  0
 63 69  1  0  0  0  0
 64 81  1  0  0  0  0
 65 90  1  0  0  0  0
 66 69  1  0  0  0  0
 66 80  1  0  0  0  0
 67 81  1  0  0  0  0
 70 71  1  0  0  0  0
M  CHG  1  81   1
M  ISO  4  40 100  65 101  78 100  90 101
M  END
> <Batch ID>
0062

> <Smiles>
CNC(C)C(=O)NC(C(=O)N1Cc2cc([101O:1][101CH2:1]C3CCC(=O)N(c4cc(NC(=O)C(C)(C)C)cc([100NH:0][100C:0](=O)N5CCCC(n6nc(-c7ccc(Oc8ccc(F)cc8F)cc7)c(C(N)=O)c6N)C5)c4)C3)ccc2CC1C(=O)NC1CCCc2ccccc21)C(C)(C)C

> <Shape>
0.318

> <Color>
0.083

> <Negative vol penalty>
0.000

$$$$

  -OEChem-04042323093D

 86 94  0     1  0  0  0  0  0999 V2000
  -34.7524  -25.5080   20.9751 C   0  0  0  0  0  0  0  0  0  0  0  0
  -33.7440  -24.7547   21.5677 C   0  0  0  0  0  0  0  0  0  0  0  0
  -23.1542   -9.8620   19.9692 C   0  0  0  0  0  0  0  0  0  0  0  0
  -23.8242   -9.9720   22.2879 C   0  0  0  0  0  0  0  0  0  0  0  0
  -34.5643  -26.8717   20.7546 C   0  0  0  0  0  0  0  0  0  0  0  0
  -32.5471  -25.3651   21.9410 C   0  0  0  0  0  0  0  0  0  0  0  0
  -28.4845  -22.6493   20.6127 C   0  0  0  0  0  0  0  0  0  0  0  0
  -22.4413   -8.6920   20.2307 C   0  0  0  0  0  0  0  0  0  0  0  0
  -23.1112   -8.8019   22.5494 C   0  0  0  0  0  0  0  0  0  0  0  0
  -28.1645  -21.5509   21.4096 C   0  0  0  0  0  0  0  0  0  0  0  0
  -23.5373   -5.4758   22.1180 C   0  0  0  0  0  0  0  0  0  0  0  0
  -24.1594   -4.4974   22.8934 C   0  0  0  0  0  0  0  0  0  0  0  0
  -26.4683  -22.8582   22.5199 C   0  0  0  0  0  0  0  0  0  0  0  0
  -30.2169  -16.1515   24.0509 C   0  0  0  0  0  0  0  0  0  0  0  0
  -31.4958  -18.2009   24.0211 C   0  0  0  0  0  0  0  0  0  0  0  0
  -31.7281  -16.6059   22.2214 C   0  0  0  0  0  0  0  0  0  0  0  0
  -22.3883   -4.6666   24.5279 C   0  0  0  0  0  0  0  0  0  0  0  0
  -23.8457  -10.5020   20.9979 C   0  0  0  0  0  0  0  0  0  0  0  0
  -24.1051  -13.0324   20.8039 C   0  0  0  0  0  0  0  0  0  0  0  0
  -33.3608  -27.4972   21.1166 C   0  0  0  0  0  0  0  0  0  0  0  0
  -27.8050  -23.8657   20.7712 C   0  0  0  0  0  0  0  0  0  0  0  0
  -32.3432  -26.7388   21.7263 C   0  0  0  0  0  0  0  0  0  0  0  0
  -26.7798  -23.9698   21.7221 C   0  0  0  0  0  0  0  0  0  0  0  0
  -30.5658  -17.3663   24.6409 C   0  0  0  0  0  0  0  0  0  0  0  0
  -30.7980  -15.7713   22.8412 C   0  0  0  0  0  0  0  0  0  0  0  0
  -22.4197   -8.1620   21.5207 C   0  0  0  0  0  0  0  0  0  0  0  0
  -27.1583  -21.6561   22.3653 C   0  0  0  0  0  0  0  0  0  0  0  0
  -22.3407   -6.0497   22.5476 C   0  0  0  0  0  0  0  0  0  0  0  0
  -23.5849   -4.0928   24.0983 C   0  0  0  0  0  0  0  0  0  0  0  0
  -21.7662   -5.6451   23.7525 C   0  0  0  0  0  0  0  0  0  0  0  0
  -32.0770  -17.8207   22.8114 C   0  0  0  0  0  0  0  0  0  0  0  0
  -24.5829  -11.7103   20.7283 C   0  0  0  0  0  0  0  0  0  0  0  0
  -25.1841  -13.8078   20.4562 C   0  0  0  0  0  0  0  0  0  0  0  0
  -32.6897  -20.8268   20.2303 C   0  0  0  0  0  0  0  0  0  0  0  0
  -32.2229  -19.8601   21.0257 C   0  0  0  0  0  0  0  0  0  0  0  0
  -22.8024  -13.5162   21.1569 C   0  0  0  0  0  0  0  0  0  0  0  0
  -28.6514  -26.8173   21.5929 C   0  0  0  0  0  0  0  0  0  0  0  0
  -25.5664  -27.4906   20.8504 C   0  0  0  0  0  0  0  0  0  0  0  0
  -28.2396  -19.5463   25.5229 C   0  0  0  0  0  0  0  0  0  0  0  0
  -22.3624  -26.3716   20.4910 C   0  0  0  0  0  0  0  0  0  0  0  0
  -30.9263  -14.0090   21.0455 C   0  0  0  0  0  0  0  0  0  0  0  0
  -33.2217  -28.9835   20.9014 C   0  0  0  0  0  0  0  0  0  0  0  0
  -28.1439  -25.0332   19.8855 C   0  0  0  0  0  0  0  0  0  0  0  0
  -26.0065  -25.2473   21.9178 C   0  0  0  0  0  0  0  0  0  0  0  0
  -31.7801  -29.4787   20.9842 C   0  0  0  0  0  0  0  0  0  0  0  0
  -29.3982  -13.0104   17.9886 C   0  0  0  0  0  0  0  0  0  0  0  0
  -31.0827  -28.8897   22.2063 C   0  0  0  0  0  0  0  0  0  0  0  0
  -27.9536  -12.7022   18.3891 C   0  0  0  0  0  0  0  0  0  0  0  0
  -30.3888  -12.5943   19.0745 C   0  0  0  0  0  0  0  0  0  0  0  0
  -28.6581  -12.8185   20.8134 C   0  0  0  0  0  0  0  0  0  0  0  0
  -31.0213  -27.3598   22.1225 C   0  0  1  0  0  0  0  0  0  0  0  0
  -27.7374  -26.3758   20.4851 C   0  0  1  0  0  0  0  0  0  0  0  0
  -27.6187  -13.2792   19.7785 C   0  0  2  0  0  0  0  0  0  0  0  0
  -20.0528  -27.1632   19.9110 C   0  0  0  0  0  0  0  0  0  0  0  0
  -25.3078  -28.7545   23.6154 C   0  0  0  0  0  0  0  0  0  0  0  0
  -22.8201  -28.6584   23.3501 C   0  0  0  0  0  0  0  0  0  0  0  0
  -24.1884  -30.0284   21.7773 C   0  0  0  0  0  0  0  0  0  0  0  0
  -22.2090  -24.5723   18.1463 C   0  0  0  0  0  0  0  0  0  0  0  0
  -29.9401  -17.7739   25.9434 C   0  0  0  0  0  0  0  0  0  0  0  0
  -26.7350  -19.7208   25.3877 C   0  0  0  0  0  0  0  0  0  0  0  0
  -26.3506  -20.8594   24.4555 C   0  0  0  0  0  0  0  0  0  1  0  0
  -24.2626  -27.5067   21.6113 C   0  0  1  0  0  0  0  0  0  0  0  0
  -21.3464  -26.5655   19.3799 C   0  0  2  0  0  0  0  0  0  0  0  0
  -24.1604  -28.7134   22.5864 C   0  0  0  0  0  0  0  0  0  0  0  0
  -25.8655  -11.6458   20.3613 N   0  0  0  0  0  0  0  0  0  0  0  0
  -26.2028  -12.9370   20.2031 N   0  0  0  0  0  0  0  0  0  0  0  0
  -26.3791  -26.3626   21.0319 N   0  0  0  0  0  0  0  0  0  0  0  0
  -30.0105  -13.1816   20.3617 N   0  0  0  0  0  0  0  0  0  0  0  0
  -25.3513  -15.1428   20.3454 N   0  0  0  0  0  0  0  0  0  0  0  0
  -21.8100  -12.5832   21.4870 N   0  0  0  0  0  0  0  0  0  0  0  0
  -30.4438  -14.5367   22.2428 N   0  0  0  0  0  0  0  0  0  0  0  0
  -29.9741  -26.9450   21.2138 N   0  0  0  0  0  0  0  0  0  0  0  0
  -28.5774  -18.2237   25.7714 N   0  0  0  0  0  0  0  0  0  0  0  0
  -23.2041  -27.4574   20.6086 N   0  0  0  0  0  0  0  0  0  0  0  0
  -21.0305  -25.2605   18.7333 N   0  3  0  0  0  0  0  0  0  0  0  0
  -22.5220  -14.7388   21.1629 O   0  0  0  0  0  0  0  0  0  0  0  0
  -28.1906  -27.0280   22.7086 O   0  0  0  0  0  0  0  0  0  0  0  0
  -25.8498  -28.4405   20.1162 O   0  0  0  0  0  0  0  0  0  0  0  0
  -29.0372  -20.4744   25.4211 O   0  0  0  0  0  0  0  0  0  0  0  0
  -22.4027  -25.3599   21.1876 O   0  0  0  0  0  0  0  0  0  0  0  0
  -32.0454  -14.2549   20.5883 O   0  0  0  0  0  0  0  0  0  0  0  0
  -21.7239   -7.0204   21.7762 O   0  0  0  0  0  0  0  0  0  0  0  0
  -26.8444  -20.5858   23.1449 O   0  0  0  0  0  0  0  0  0  1  0  0
  -24.1816   -3.1521   24.8421 F   0  0  0  0  0  0  0  0  0  0  0  0
  -20.6162   -6.1920   24.1698 F   0  0  0  0  0  0  0  0  0  0  0  0
  -33.2675  -18.8863   22.0213 S   0  0  0  0  0  0  0  0  0  0  0  0
  1  2  1  0  0  0  0
  1  5  2  0  0  0  0
  2  6  2  0  0  0  0
  3  8  2  0  0  0  0
  3 18  1  0  0  0  0
  4  9  1  0  0  0  0
  4 18  2  0  0  0  0
  5 20  1  0  0  0  0
  6 22  1  0  0  0  0
  7 10  2  0  0  0  0
  7 21  1  0  0  0  0
  8 26  1  0  0  0  0
  9 26  2  0  0  0  0
 10 27  1  0  0  0  0
 11 12  2  0  0  0  0
 11 28  1  0  0  0  0
 12 29  1  0  0  0  0
 13 23  1  0  0  0  0
 13 27  2  0  0  0  0
 14 24  1  0  0  0  0
 14 25  2  0  0  0  0
 15 24  2  0  0  0  0
 15 31  1  0  0  0  0
 16 25  1  0  0  0  0
 16 31  2  0  0  0  0
 17 29  2  0  0  0  0
 17 30  1  0  0  0  0
 18 32  1  0  0  0  0
 19 32  1  0  0  0  0
 19 33  2  0  0  0  0
 19 36  1  0  0  0  0
 20 22  2  0  0  0  0
 20 42  1  0  0  0  0
 21 23  2  0  0  0  0
 21 43  1  0  0  0  0
 22 51  1  0  0  0  0
 23 44  1  0  0  0  0
 24 59  1  0  0  0  0
 25 71  1  0  0  0  0
 26 82  1  0  0  0  0
 27 83  1  0  0  0  0
 28 30  2  0  0  0  0
 28 82  1  0  0  0  0
 29 84  1  0  0  0  0
 30 85  1  0  0  0  0
 31 86  1  0  0  0  0
 32 65  2  0  0  0  0
 33 66  1  0  0  0  0
 33 69  1  0  0  0  0
 34 35  2  0  0  0  0
 35 86  1  0  0  0  0
 36 70  1  0  0  0  0
 36 76  2  0  0  0  0
 37 52  1  0  0  0  0
 37 72  1  0  0  0  0
 37 77  2  0  0  0  0
 38 62  1  0  0  0  0
 38 67  1  0  0  0  0
 38 78  2  0  0  0  0
 39 60  1  0  0  0  0
 39 73  1  0  0  0  0
 39 79  2  0  0  0  0
 40 63  1  0  0  0  0
 40 74  1  0  0  0  0
 40 80  2  0  0  0  0
 41 68  1  0  0  0  0
 41 71  1  0  0  0  0
 41 81  2  0  0  0  0
 42 45  1  0  0  0  0
 43 52  1  0  0  0  0
 44 67  1  0  0  0  0
 45 47  1  0  0  0  0
 46 48  1  0  0  0  0
 46 49  1  0  0  0  0
 47 51  1  0  0  0  0
 48 53  1  0  0  0  0
 49 68  1  0  0  0  0
 50 53  1  0  0  0  0
 50 68  1  0  0  0  0
 51 72  1  0  0  0  0
 52 67  1  0  0  0  0
 53 66  1  0  0  0  0
 54 63  1  0  0  0  0
 55 64  1  0  0  0  0
 56 64  1  0  0  0  0
 57 64  1  0  0  0  0
 58 75  1  0  0  0  0
 59 73  1  0  0  0  0
 60 61  1  0  0  0  0
 61 83  1  0  0  0  0
 62 64  1  0  0  0  0
 62 74  1  0  0  0  0
 63 75  1  0  0  0  0
 65 66  1  0  0  0  0
M  CHG  1  75   1
M  ISO  4  41 100  61 101  71 100  83 101
M  END
> <Batch ID>
0062

> <Smiles>
C=CSc1cc(CNC(=O)C[101CH2:1][101O:1]c2ccc3c(c2)CN(C(=O)C(NC(=O)C(C)NC)C(C)(C)C)C(C(=O)NC2CCCc4ccccc42)C3)cc([100NH:0][100C:0](=O)N2CCCC(n3nc(-c4ccc(Oc5ccc(F)cc5F)cc4)c(C(N)=O)c3N)C2)c1

> <Shape>
0.250

> <Color>
0.184

> <Negative vol penalty>
0.000

$$$$

  -OEChem-04042323093D

 87 95  0     1  0  0  0  0  0999 V2000
  -19.1091  -31.1215   24.6944 C   0  0  0  0  0  0  0  0  0  0  0  0
  -20.4709  -30.9097   24.5041 C   0  0  0  0  0  0  0  0  0  0  0  0
  -24.4832  -13.1776   21.5648 C   0  0  0  0  0  0  0  0  0  0  0  0
  -26.3198  -13.0664   19.9991 C   0  0  0  0  0  0  0  0  0  0  0  0
  -18.1858  -30.2029   24.1970 C   0  0  0  0  0  0  0  0  0  0  0  0
  -20.9101  -29.7785   23.8171 C   0  0  0  0  0  0  0  0  0  0  0  0
  -25.7788  -29.3736   20.1242 C   0  0  0  0  0  0  0  0  0  0  0  0
  -33.3402  -22.5847   20.7468 C   0  0  0  0  0  0  0  0  0  0  0  0
  -33.1782  -21.4370   21.5227 C   0  0  0  0  0  0  0  0  0  0  0  0
  -23.9461  -12.0125   21.0176 C   0  0  0  0  0  0  0  0  0  0  0  0
  -25.7827  -11.9011   19.4519 C   0  0  0  0  0  0  0  0  0  0  0  0
  -27.0758  -28.9053   20.3300 C   0  0  0  0  0  0  0  0  0  0  0  0
  -24.5008   -8.6828   21.2136 C   0  0  0  0  0  0  0  0  0  0  0  0
  -24.0463   -7.7022   22.0953 C   0  0  0  0  0  0  0  0  0  0  0  0
  -26.4390  -26.7618   19.4251 C   0  0  0  0  0  0  0  0  0  0  0  0
  -30.9653  -22.6209   20.3043 C   0  0  0  0  0  0  0  0  0  0  0  0
  -21.8284   -7.8844   21.1546 C   0  0  0  0  0  0  0  0  0  0  0  0
  -25.6700  -13.7047   21.0555 C   0  0  0  0  0  0  0  0  0  0  0  0
  -27.1397  -15.0046   22.6858 C   0  0  0  0  0  0  0  0  0  0  0  0
  -18.6135  -29.0648   23.4951 C   0  0  0  0  0  0  0  0  0  0  0  0
  -24.7977  -28.5346   19.5765 C   0  0  0  0  0  0  0  0  0  0  0  0
  -19.9916  -28.8432   23.3110 C   0  0  0  0  0  0  0  0  0  0  0  0
  -25.1310  -27.2226   19.2110 C   0  0  0  0  0  0  0  0  0  0  0  0
  -32.2337  -23.1767   20.1376 C   0  0  0  0  0  0  0  0  0  0  0  0
  -31.9097  -20.8811   21.6894 C   0  0  0  0  0  0  0  0  0  0  0  0
  -30.8033  -21.4731   21.0802 C   0  0  0  0  0  0  0  0  0  0  0  0
  -24.5958  -11.3742   19.9611 C   0  0  0  0  0  0  0  0  0  0  0  0
  -27.4053  -27.5983   19.9831 C   0  0  0  0  0  0  0  0  0  0  0  0
  -23.6192   -9.2642   20.3024 C   0  0  0  0  0  0  0  0  0  0  0  0
  -22.7101   -7.3030   22.0658 C   0  0  0  0  0  0  0  0  0  0  0  0
  -22.2830   -8.8650   20.2728 C   0  0  0  0  0  0  0  0  0  0  0  0
  -26.2250  -14.9086   21.6199 C   0  0  0  0  0  0  0  0  0  0  0  0
  -27.3510  -16.3534   22.8364 C   0  0  0  0  0  0  0  0  0  0  0  0
  -35.1623  -27.2783   22.1115 C   0  0  0  0  0  0  0  0  0  0  0  0
  -34.1105  -27.1736   21.2927 C   0  0  0  0  0  0  0  0  0  0  0  0
  -27.7444  -13.9674   23.4694 C   0  0  0  0  0  0  0  0  0  0  0  0
  -33.9534  -25.9692   20.4284 C   0  0  0  0  0  0  0  0  0  0  0  0
  -22.0157  -27.3776   20.5892 C   0  0  0  0  0  0  0  0  0  0  0  0
  -21.8242  -26.2484   17.5543 C   0  0  0  0  0  0  0  0  0  0  0  0
  -23.4507  -25.3001   14.7078 C   0  0  0  0  0  0  0  0  0  0  0  0
  -28.3148  -21.4019   20.6948 C   0  0  0  0  0  0  0  0  0  0  0  0
  -17.5800  -28.0758   23.0171 C   0  0  0  0  0  0  0  0  0  0  0  0
  -23.4102  -29.0632   19.3361 C   0  0  0  0  0  0  0  0  0  0  0  0
  -24.1195  -26.2881   18.6009 C   0  0  0  0  0  0  0  0  0  0  0  0
  -18.1116  -27.0954   21.9748 C   0  0  0  0  0  0  0  0  0  0  0  0
  -24.9272  -20.3128   20.8190 C   0  0  0  0  0  0  0  0  0  0  0  0
  -19.4587  -26.5292   22.4124 C   0  0  0  0  0  0  0  0  0  0  0  0
  -25.0381  -18.8176   21.1261 C   0  0  0  0  0  0  0  0  0  0  0  0
  -26.0453  -20.7857   19.8917 C   0  0  0  0  0  0  0  0  0  0  0  0
  -27.5151  -18.9578   20.6448 C   0  0  0  0  0  0  0  0  0  0  0  0
  -20.5061  -27.6409   22.5494 C   0  0  1  0  0  0  0  0  0  0  0  0
  -22.3582  -27.9619   19.2479 C   0  0  1  0  0  0  0  0  0  0  0  0
  -26.4480  -18.4483   21.6274 C   0  0  2  0  0  0  0  0  0  0  0  0
  -31.7661  -19.6508   22.5253 C   0  0  0  0  0  0  0  0  0  0  0  0
  -23.0284  -24.3859   12.4093 C   0  0  0  0  0  0  0  0  0  0  0  0
  -21.3292  -23.4840   18.7473 C   0  0  0  0  0  0  0  0  0  0  0  0
  -21.8609  -22.4990   16.5078 C   0  0  0  0  0  0  0  0  0  0  0  0
  -19.9103  -24.0330   16.7623 C   0  0  0  0  0  0  0  0  0  0  0  0
  -24.6373  -27.6836   13.4157 C   0  0  0  0  0  0  0  0  0  0  0  0
  -32.4090  -24.4122   19.3027 C   0  0  0  0  0  0  0  0  0  0  0  0
  -30.9948  -27.3862   19.6414 C   0  0  0  0  0  0  0  0  0  0  0  0
  -31.4409  -26.2825   20.5909 C   0  0  0  0  0  0  0  0  0  0  0  0
  -29.7281  -28.0934   20.1077 C   0  0  0  0  0  0  0  0  0  1  0  0
  -22.2526  -24.9801   16.8565 C   0  0  1  0  0  0  0  0  0  0  0  0
  -23.2092  -25.6413   13.2485 C   0  0  2  0  0  0  0  0  0  0  0  0
  -21.3570  -23.7658   17.2317 C   0  0  0  0  0  0  0  0  0  0  0  0
  -25.8789  -16.1013   21.1284 N   0  0  0  0  0  0  0  0  0  0  0  0
  -26.5798  -16.9596   21.8889 N   0  0  0  0  0  0  0  0  0  0  0  0
  -22.7748  -26.8496   18.3914 N   0  0  0  0  0  0  0  0  0  0  0  0
  -27.3517  -20.4045   20.4328 N   0  0  0  0  0  0  0  0  0  0  0  0
  -28.1193  -17.0680   23.6858 N   0  0  0  0  0  0  0  0  0  0  0  0
  -27.4171  -12.6354   23.1814 N   0  0  0  0  0  0  0  0  0  0  0  0
  -29.5067  -20.9238   21.2382 N   0  0  0  0  0  0  0  0  0  0  0  0
  -20.9952  -28.0378   21.2465 N   0  0  0  0  0  0  0  0  0  0  0  0
  -22.2764  -25.2869   15.4304 N   0  0  0  0  0  0  0  0  0  0  0  0
  -32.6218  -25.6075   20.1282 N   0  0  0  0  0  0  0  0  0  0  0  0
  -24.3604  -26.4119   12.6993 N   0  3  0  0  0  0  0  0  0  0  0  0
  -28.5384  -14.2152   24.4084 O   0  0  0  0  0  0  0  0  0  0  0  0
  -34.9520  -25.3555   20.0486 O   0  0  0  0  0  0  0  0  0  0  0  0
  -22.6308  -26.3992   20.9969 O   0  0  0  0  0  0  0  0  0  0  0  0
  -20.6906  -26.6933   17.3581 O   0  0  0  0  0  0  0  0  0  0  0  0
  -24.5688  -25.0649   15.1607 O   0  0  0  0  0  0  0  0  0  0  0  0
  -28.0879  -22.5954   20.4801 O   0  0  0  0  0  0  0  0  0  0  0  0
  -24.0721  -10.2370   19.4271 O   0  0  0  0  0  0  0  0  0  0  0  0
  -28.6704  -27.1386   20.1835 O   0  0  0  0  0  0  0  0  0  1  0  0
  -22.2741   -6.3602   22.9116 F   0  0  0  0  0  0  0  0  0  0  0  0
  -21.4315   -9.4191   19.3989 F   0  0  0  0  0  0  0  0  0  0  0  0
  1  2  1  0  0  0  0
  1  5  2  0  0  0  0
  2  6  2  0  0  0  0
  3 10  2  0  0  0  0
  3 18  1  0  0  0  0
  4 11  1  0  0  0  0
  4 18  2  0  0  0  0
  5 20  1  0  0  0  0
  6 22  1  0  0  0  0
  7 12  2  0  0  0  0
  7 21  1  0  0  0  0
  8  9  2  0  0  0  0
  8 24  1  0  0  0  0
  9 25  1  0  0  0  0
 10 27  1  0  0  0  0
 11 27  2  0  0  0  0
 12 28  1  0  0  0  0
 13 14  2  0  0  0  0
 13 29  1  0  0  0  0
 14 30  1  0  0  0  0
 15 23  1  0  0  0  0
 15 28  2  0  0  0  0
 16 24  2  0  0  0  0
 16 26  1  0  0  0  0
 17 30  2  0  0  0  0
 17 31  1  0  0  0  0
 18 32  1  0  0  0  0
 19 32  1  0  0  0  0
 19 33  2  0  0  0  0
 19 36  1  0  0  0  0
 20 22  2  0  0  0  0
 20 42  1  0  0  0  0
 21 23  2  0  0  0  0
 21 43  1  0  0  0  0
 22 51  1  0  0  0  0
 23 44  1  0  0  0  0
 24 60  1  0  0  0  0
 25 26  2  0  0  0  0
 25 54  1  0  0  0  0
 26 73  1  0  0  0  0
 27 84  1  0  0  0  0
 28 85  1  0  0  0  0
 29 31  2  0  0  0  0
 29 84  1  0  0  0  0
 30 86  1  0  0  0  0
 31 87  1  0  0  0  0
 32 67  2  0  0  0  0
 33 68  1  0  0  0  0
 33 71  1  0  0  0  0
 34 35  2  0  0  0  0
 35 37  1  0  0  0  0
 36 72  1  0  0  0  0
 36 78  2  0  0  0  0
 37 76  1  0  0  0  0
 37 79  2  0  0  0  0
 38 52  1  0  0  0  0
 38 74  1  0  0  0  0
 38 80  2  0  0  0  0
 39 64  1  0  0  0  0
 39 69  1  0  0  0  0
 39 81  2  0  0  0  0
 40 65  1  0  0  0  0
 40 75  1  0  0  0  0
 40 82  2  0  0  0  0
 41 70  1  0  0  0  0
 41 73  1  0  0  0  0
 41 83  2  0  0  0  0
 42 45  1  0  0  0  0
 43 52  1  0  0  0  0
 44 69  1  0  0  0  0
 45 47  1  0  0  0  0
 46 48  1  0  0  0  0
 46 49  1  0  0  0  0
 47 51  1  0  0  0  0
 48 53  1  0  0  0  0
 49 70  1  0  0  0  0
 50 53  1  0  0  0  0
 50 70  1  0  0  0  0
 51 74  1  0  0  0  0
 52 69  1  0  0  0  0
 53 68  1  0  0  0  0
 55 65  1  0  0  0  0
 56 66  1  0  0  0  0
 57 66  1  0  0  0  0
 58 66  1  0  0  0  0
 59 77  1  0  0  0  0
 60 76  1  0  0  0  0
 61 62  1  0  0  0  0
 61 63  1  0  0  0  0
 62 76  1  0  0  0  0
 63 85  1  0  0  0  0
 64 66  1  0  0  0  0
 64 75  1  0  0  0  0
 65 77  1  0  0  0  0
 67 68  1  0  0  0  0
M  CHG  1  77   1
M  ISO  4  41 100  63 101  73 100  85 101
M  END
> <Batch ID>
0062

> <Smiles>
C=CC(=O)N(CC[101CH2:1][101O:1]c1ccc2c(c1)CN(C(=O)C(NC(=O)C(C)NC)C(C)(C)C)C(C(=O)NC1CCCc3ccccc31)C2)Cc1ccc(C)c([100NH:0][100C:0](=O)N2CCCC(n3nc(-c4ccc(Oc5ccc(F)cc5F)cc4)c(C(N)=O)c3N)C2)c1

> <Shape>
0.242

> <Color>
0.080

> <Negative vol penalty>
0.000

$$$$

  -OEChem-04042323093D

 92101  0     1  0  0  0  0  0999 V2000
  -20.2413  -32.0396   21.9620 C   0  0  0  0  0  0  0  0  0  0  0  0
  -21.0914  -31.1001   22.5365 C   0  0  0  0  0  0  0  0  0  0  0  0
  -23.0501   -9.8970   19.9163 C   0  0  0  0  0  0  0  0  0  0  0  0
  -23.8874   -9.7860   22.1799 C   0  0  0  0  0  0  0  0  0  0  0  0
  -18.8597  -31.8759   22.0534 C   0  0  0  0  0  0  0  0  0  0  0  0
  -20.5604  -29.9968   23.2036 C   0  0  0  0  0  0  0  0  0  0  0  0
  -22.9073  -25.6770   21.9883 C   0  0  0  0  0  0  0  0  0  0  0  0
  -22.3060   -8.7376   20.1347 C   0  0  0  0  0  0  0  0  0  0  0  0
  -23.1433   -8.6266   22.3983 C   0  0  0  0  0  0  0  0  0  0  0  0
  -24.1434  -25.4341   22.5856 C   0  0  0  0  0  0  0  0  0  0  0  0
  -19.9312   -7.8203   23.0712 C   0  0  0  0  0  0  0  0  0  0  0  0
  -19.2141   -7.7274   24.2640 C   0  0  0  0  0  0  0  0  0  0  0  0
  -23.0779  -23.9739   24.1830 C   0  0  0  0  0  0  0  0  0  0  0  0
  -32.1739  -16.4451   22.5432 C   0  0  0  0  0  0  0  0  0  0  0  0
  -30.0179  -17.2772   23.2475 C   0  0  0  0  0  0  0  0  0  0  0  0
  -20.4643   -5.7482   24.8614 C   0  0  0  0  0  0  0  0  0  0  0  0
  -23.8409  -10.4212   20.9389 C   0  0  0  0  0  0  0  0  0  0  0  0
  -32.0332  -18.1137   24.2847 C   0  0  0  0  0  0  0  0  0  0  0  0
  -24.1985  -12.9470   20.9314 C   0  0  0  0  0  0  0  0  0  0  0  0
  -18.3115  -30.7649   22.7137 C   0  0  0  0  0  0  0  0  0  0  0  0
  -21.7436  -25.0777   22.4915 C   0  0  0  0  0  0  0  0  0  0  0  0
  -19.1702  -29.8187   23.3051 C   0  0  0  0  0  0  0  0  0  0  0  0
  -21.8286  -24.2088   23.5887 C   0  0  0  0  0  0  0  0  0  0  0  0
  -32.7988  -17.2801   23.4694 C   0  0  0  0  0  0  0  0  0  0  0  0
  -30.6428  -18.1123   24.1738 C   0  0  0  0  0  0  0  0  0  0  0  0
  -30.7835  -16.4436   22.4322 C   0  0  0  0  0  0  0  0  0  0  0  0
  -22.3526   -8.1024   21.3757 C   0  0  0  0  0  0  0  0  0  0  0  0
  -24.2285  -24.5848   23.6849 C   0  0  0  0  0  0  0  0  0  0  0  0
  -20.9148   -6.8771   22.7734 C   0  0  0  0  0  0  0  0  0  0  0  0
  -19.4807   -6.6913   25.1591 C   0  0  0  0  0  0  0  0  0  0  0  0
  -21.1814   -5.8411   23.6686 C   0  0  0  0  0  0  0  0  0  0  0  0
  -24.6102  -11.6185   20.7138 C   0  0  0  0  0  0  0  0  0  0  0  0
  -25.2836  -13.7066   20.5681 C   0  0  0  0  0  0  0  0  0  0  0  0
  -29.7636  -18.9409   26.3999 C   0  0  0  0  0  0  0  0  0  0  0  0
  -33.0546  -20.2294   24.9889 C   0  0  0  0  0  0  0  0  0  0  0  0
  -32.6937  -18.9852   25.2538 C   0  0  0  0  0  0  0  0  0  0  0  0
  -22.9471  -13.4495   21.4185 C   0  0  0  0  0  0  0  0  0  0  0  0
  -19.0326  -26.1538   23.7548 C   0  0  0  0  0  0  0  0  0  0  0  0
  -18.1929  -23.0225   23.6432 C   0  0  0  0  0  0  0  0  0  0  0  0
  -27.0718  -22.6671   24.8624 C   0  0  0  0  0  0  0  0  0  0  0  0
  -19.1849  -19.7582   23.5575 C   0  0  0  0  0  0  0  0  0  0  0  0
  -30.7607  -14.7080   20.6065 C   0  0  0  0  0  0  0  0  0  0  0  0
  -16.8116  -30.6555   22.8277 C   0  0  0  0  0  0  0  0  0  0  0  0
  -20.4217  -25.3289   21.8194 C   0  0  0  0  0  0  0  0  0  0  0  0
  -20.6120  -23.5247   24.1546 C   0  0  0  0  0  0  0  0  0  0  0  0
  -28.6948  -19.9299   26.8067 C   0  0  0  0  0  0  0  0  0  0  0  0
  -16.3312  -29.2629   23.2278 C   0  0  0  0  0  0  0  0  0  0  0  0
  -29.5474  -12.4211   18.1621 C   0  0  0  0  0  0  0  0  0  0  0  0
  -17.1532  -28.7301   24.3971 C   0  0  0  0  0  0  0  0  0  0  0  0
  -28.1209  -12.1177   18.6260 C   0  0  0  0  0  0  0  0  0  0  0  0
  -30.5046  -12.5845   19.3415 C   0  0  0  0  0  0  0  0  0  0  0  0
  -28.6514  -13.2519   20.8212 C   0  0  0  0  0  0  0  0  0  0  0  0
  -28.8828  -19.8961   24.4325 C   0  0  0  0  0  0  0  0  0  0  0  0
  -18.6324  -28.5956   24.0157 C   0  0  1  0  0  0  0  0  0  0  0  0
  -19.2279  -25.0695   22.7332 C   0  0  1  0  0  0  0  0  0  0  0  0
  -27.6378  -13.1431   19.6703 C   0  0  2  0  0  0  0  0  0  0  0  0
  -28.5648  -20.8278   25.5879 C   0  0  1  0  0  0  0  0  0  0  0  0
  -34.9627  -17.6958   22.2454 C   0  0  0  0  0  0  0  0  0  0  0  0
  -34.8266  -15.8729   23.9813 C   0  0  0  0  0  0  0  0  0  0  0  0
  -18.2700  -17.4220   23.5088 C   0  0  0  0  0  0  0  0  0  0  0  0
  -17.5240  -23.2251   26.6133 C   0  0  0  0  0  0  0  0  0  0  0  0
  -17.5409  -20.7237   26.7164 C   0  0  0  0  0  0  0  0  0  0  0  0
  -15.8885  -21.8992   25.2637 C   0  0  0  0  0  0  0  0  0  0  0  0
  -20.4606  -19.1889   20.9484 C   0  0  0  0  0  0  0  0  0  0  0  0
  -25.6141  -23.0743   24.8910 C   0  0  0  0  0  0  0  0  0  1  0  0
  -34.2914  -17.2520   23.5571 C   0  0  0  0  0  0  0  0  0  0  0  0
  -18.3224  -21.8468   24.5813 C   0  0  1  0  0  0  0  0  0  0  0  0
  -18.7569  -18.5982   22.6768 C   0  0  2  0  0  0  0  0  0  0  0  0
  -17.3418  -21.9380   25.7845 C   0  0  0  0  0  0  0  0  0  0  0  0
  -25.8593  -11.5355   20.2481 N   0  0  0  0  0  0  0  0  0  0  0  0
  -26.2419  -12.8214   20.1702 N   0  0  0  0  0  0  0  0  0  0  0  0
  -29.8302  -18.9512   24.9932 N   0  0  0  0  0  0  0  0  0  0  0  0
  -19.3414  -23.8072   23.4666 N   0  0  0  0  0  0  0  0  0  0  0  0
  -29.9839  -13.5743   20.2871 N   0  0  0  0  0  0  0  0  0  0  0  0
  -25.5020  -15.0387   20.5534 N   0  0  0  0  0  0  0  0  0  0  0  0
  -21.9400  -12.5311   21.7452 N   0  0  0  0  0  0  0  0  0  0  0  0
  -30.1489  -15.5956   21.4910 N   0  0  0  0  0  0  0  0  0  0  0  0
  -18.8414  -27.4102   23.2123 N   0  0  0  0  0  0  0  0  0  0  0  0
  -27.2735  -21.4415   25.4775 N   0  0  0  0  0  0  0  0  0  0  0  0
  -18.1543  -20.6510   23.7627 N   0  0  0  0  0  0  0  0  0  0  0  0
  -19.8977  -18.1384   21.8353 N   0  3  0  0  0  0  0  0  0  0  0  0
  -30.3671  -18.2551   27.2122 O   0  0  0  0  0  0  0  0  0  0  0  0
  -22.7227  -14.6772   21.5442 O   0  0  0  0  0  0  0  0  0  0  0  0
  -19.0523  -25.8712   24.9471 O   0  0  0  0  0  0  0  0  0  0  0  0
  -17.1147  -23.2326   23.0821 O   0  0  0  0  0  0  0  0  0  0  0  0
  -27.9456  -23.3614   24.3500 O   0  0  0  0  0  0  0  0  0  0  0  0
  -20.3188  -19.8601   24.0204 O   0  0  0  0  0  0  0  0  0  0  0  0
  -31.8746  -14.8925   20.1093 O   0  0  0  0  0  0  0  0  0  0  0  0
  -21.6264   -6.9712   21.5892 O   0  0  0  0  0  0  0  0  0  0  0  0
  -25.4337  -24.3465   24.2702 O   0  0  0  0  0  0  0  0  0  1  0  0
  -18.7931   -6.6031   26.3052 F   0  0  0  0  0  0  0  0  0  0  0  0
  -22.1260   -4.9327   23.3885 F   0  0  0  0  0  0  0  0  0  0  0  0
  1  2  1  0  0  0  0
  1  5  2  0  0  0  0
  2  6  2  0  0  0  0
  3  8  2  0  0  0  0
  3 17  1  0  0  0  0
  4  9  1  0  0  0  0
  4 17  2  0  0  0  0
  5 20  1  0  0  0  0
  6 22  1  0  0  0  0
  7 10  2  0  0  0  0
  7 21  1  0  0  0  0
  8 27  1  0  0  0  0
  9 27  2  0  0  0  0
 10 28  1  0  0  0  0
 11 12  2  0  0  0  0
 11 29  1  0  0  0  0
 12 30  1  0  0  0  0
 13 23  1  0  0  0  0
 13 28  2  0  0  0  0
 14 24  2  0  0  0  0
 14 26  1  0  0  0  0
 15 25  1  0  0  0  0
 15 26  2  0  0  0  0
 16 30  2  0  0  0  0
 16 31  1  0  0  0  0
 17 32  1  0  0  0  0
 18 24  1  0  0  0  0
 18 25  2  0  0  0  0
 18 36  1  0  0  0  0
 19 32  1  0  0  0  0
 19 33  2  0  0  0  0
 19 37  1  0  0  0  0
 20 22  2  0  0  0  0
 20 43  1  0  0  0  0
 21 23  2  0  0  0  0
 21 44  1  0  0  0  0
 22 54  1  0  0  0  0
 23 45  1  0  0  0  0
 24 66  1  0  0  0  0
 25 72  1  0  0  0  0
 26 77  1  0  0  0  0
 27 89  1  0  0  0  0
 28 90  1  0  0  0  0
 29 31  2  0  0  0  0
 29 89  1  0  0  0  0
 30 91  1  0  0  0  0
 31 92  1  0  0  0  0
 32 70  2  0  0  0  0
 33 71  1  0  0  0  0
 33 75  1  0  0  0  0
 34 46  1  0  0  0  0
 34 72  1  0  0  0  0
 34 82  2  0  0  0  0
 35 36  2  0  0  0  0
 37 76  1  0  0  0  0
 37 83  2  0  0  0  0
 38 55  1  0  0  0  0
 38 78  1  0  0  0  0
 38 84  2  0  0  0  0
 39 67  1  0  0  0  0
 39 73  1  0  0  0  0
 39 85  2  0  0  0  0
 40 65  1  0  0  0  0
 40 79  1  0  0  0  0
 40 86  2  0  0  0  0
 41 68  1  0  0  0  0
 41 80  1  0  0  0  0
 41 87  2  0  0  0  0
 42 74  1  0  0  0  0
 42 77  1  0  0  0  0
 42 88  2  0  0  0  0
 43 47  1  0  0  0  0
 44 55  1  0  0  0  0
 45 73  1  0  0  0  0
 46 57  1  0  0  0  0
 47 49  1  0  0  0  0
 48 50  1  0  0  0  0
 48 51  1  0  0  0  0
 49 54  1  0  0  0  0
 50 56  1  0  0  0  0
 51 74  1  0  0  0  0
 52 56  1  0  0  0  0
 52 74  1  0  0  0  0
 53 57  1  0  0  0  0
 53 72  1  0  0  0  0
 54 78  1  0  0  0  0
 55 73  1  0  0  0  0
 56 71  1  0  0  0  0
 57 79  1  0  0  0  0
 58 66  1  0  0  0  0
 59 66  1  0  0  0  0
 60 68  1  0  0  0  0
 61 69  1  0  0  0  0
 62 69  1  0  0  0  0
 63 69  1  0  0  0  0
 64 81  1  0  0  0  0
 65 90  1  0  0  0  0
 67 69  1  0  0  0  0
 67 80  1  0  0  0  0
 68 81  1  0  0  0  0
 70 71  1  0  0  0  0
M  CHG  1  81   1
M  ISO  4  42 100  65 101  77 100  90 101
M  END
> <Batch ID>
0062

> <Smiles>
C=Cc1c(C(C)C)cc([100NH:0][100C:0](=O)N2CCCC(n3nc(-c4ccc(Oc5ccc(F)cc5F)cc4)c(C(N)=O)c3N)C2)cc1N1CC(NC(=O)[101CH2:1][101O:1]c2ccc3c(c2)CN(C(=O)C(NC(=O)C(C)NC)C(C)(C)C)C(C(=O)NC2CCCc4ccccc42)C3)CC1=O

> <Shape>
0.221

> <Color>
0.196

> <Negative vol penalty>
0.000

$$$$

  -OEChem-04042323093D

 87 96  0     1  0  0  0  0  0999 V2000
  -15.8119  -29.6284   21.7705 C   0  0  0  0  0  0  0  0  0  0  0  0
  -16.6722  -28.5618   22.0108 C   0  0  0  0  0  0  0  0  0  0  0  0
  -22.6441  -10.1270   20.7745 C   0  0  0  0  0  0  0  0  0  0  0  0
  -24.5283   -8.7662   21.4341 C   0  0  0  0  0  0  0  0  0  0  0  0
  -16.3151  -30.8302   21.2741 C   0  0  0  0  0  0  0  0  0  0  0  0
  -18.0361  -28.6961   21.7538 C   0  0  0  0  0  0  0  0  0  0  0  0
  -22.6416  -26.1635   24.8973 C   0  0  0  0  0  0  0  0  0  0  0  0
  -21.8312   -9.4378   21.6743 C   0  0  0  0  0  0  0  0  0  0  0  0
  -23.7154   -8.0770   22.3341 C   0  0  0  0  0  0  0  0  0  0  0  0
  -23.4142  -25.0244   24.6750 C   0  0  0  0  0  0  0  0  0  0  0  0
  -21.4027   -5.6134   22.2198 C   0  0  0  0  0  0  0  0  0  0  0  0
  -21.5054   -4.2227   22.2519 C   0  0  0  0  0  0  0  0  0  0  0  0
  -25.1129  -26.3866   23.6367 C   0  0  0  0  0  0  0  0  0  0  0  0
  -29.1431  -18.3151   21.9439 C   0  0  0  0  0  0  0  0  0  0  0  0
  -31.4796  -18.1392   21.3550 C   0  0  0  0  0  0  0  0  0  0  0  0
  -22.1568   -4.3245   24.5762 C   0  0  0  0  0  0  0  0  0  0  0  0
  -23.9926   -9.7912   20.6543 C   0  0  0  0  0  0  0  0  0  0  0  0
  -24.6688  -10.5942   18.3293 C   0  0  0  0  0  0  0  0  0  0  0  0
  -17.6873  -30.9825   21.0200 C   0  0  0  0  0  0  0  0  0  0  0  0
  -23.0947  -27.4234   24.4804 C   0  0  0  0  0  0  0  0  0  0  0  0
  -18.5580  -29.9007   21.2523 C   0  0  0  0  0  0  0  0  0  0  0  0
  -24.3453  -27.5404   23.8571 C   0  0  0  0  0  0  0  0  0  0  0  0
  -30.6245  -20.1889   22.3061 C   0  0  0  0  0  0  0  0  0  0  0  0
  -29.3519  -19.6229   22.3818 C   0  0  0  0  0  0  0  0  0  0  0  0
  -30.2070  -17.5732   21.4306 C   0  0  0  0  0  0  0  0  0  0  0  0
  -22.3669   -8.4128   22.4542 C   0  0  0  0  0  0  0  0  0  0  0  0
  -24.6488  -25.1355   24.0421 C   0  0  0  0  0  0  0  0  0  0  0  0
  -21.6772   -6.3596   23.3659 C   0  0  0  0  0  0  0  0  0  0  0  0
  -21.8824   -3.5782   23.4301 C   0  0  0  0  0  0  0  0  0  0  0  0
  -31.6884  -19.4471   21.7928 C   0  0  0  0  0  0  0  0  0  0  0  0
  -22.0542   -5.7152   24.5441 C   0  0  0  0  0  0  0  0  0  0  0  0
  -24.8327  -10.5024   19.7245 C   0  0  0  0  0  0  0  0  0  0  0  0
  -25.7188  -11.3746   17.9109 C   0  0  0  0  0  0  0  0  0  0  0  0
  -28.2583  -20.8681   24.2277 C   0  0  0  0  0  0  0  0  0  0  0  0
  -23.6578  -10.0251   17.4869 C   0  0  0  0  0  0  0  0  0  0  0  0
  -22.0469  -29.6206   22.4364 C   0  0  0  0  0  0  0  0  0  0  0  0
  -24.5071  -31.3558   23.6442 C   0  0  0  0  0  0  0  0  0  0  0  0
  -27.5423  -31.3826   25.2041 C   0  0  0  0  0  0  0  0  0  0  0  0
  -28.7980  -15.5233   20.9871 C   0  0  0  0  0  0  0  0  0  0  0  0
  -18.1778  -32.2850   20.4391 C   0  0  0  0  0  0  0  0  0  0  0  0
  -22.2613  -28.6458   24.7515 C   0  0  0  0  0  0  0  0  0  0  0  0
  -24.8862  -28.8726   23.4086 C   0  0  0  0  0  0  0  0  0  0  0  0
  -27.2021  -21.8999   24.5811 C   0  0  0  0  0  0  0  0  0  0  0  0
  -19.6893  -32.4692   20.5472 C   0  0  0  0  0  0  0  0  0  0  0  0
  -30.1092  -12.1162   19.8053 C   0  0  0  0  0  0  0  0  0  0  0  0
  -20.4144  -31.2010   20.1084 C   0  0  0  0  0  0  0  0  0  0  0  0
  -28.9499  -11.6970   18.9043 C   0  0  0  0  0  0  0  0  0  0  0  0
  -26.0759  -21.5821   22.4174 C   0  0  0  0  0  0  0  0  0  0  0  0
  -30.1800  -13.6268   19.9902 C   0  0  0  0  0  0  0  0  0  0  0  0
  -27.0071  -20.4228   22.0995 C   0  0  0  0  0  0  0  0  0  0  0  0
  -27.7352  -13.3431   20.4357 C   0  0  0  0  0  0  0  0  0  0  0  0
  -20.0472  -30.0158   21.0094 C   0  0  1  0  0  0  0  0  0  0  0  0
  -22.5908  -29.8114   23.8240 C   0  0  1  0  0  0  0  0  0  0  0  0
  -25.8545  -21.6644   23.9188 C   0  0  2  0  0  0  0  0  0  0  0  0
  -27.6769  -12.5369   19.1288 C   0  0  2  0  0  0  0  0  0  0  0  0
  -30.8734  -21.5885   22.7673 C   0  0  0  0  0  0  0  0  0  0  0  0
  -29.3223  -32.9504   26.0235 C   0  0  0  0  0  0  0  0  0  0  0  0
  -25.4577  -31.7722   20.7749 C   0  0  0  0  0  0  0  0  0  0  0  0
  -27.6750  -32.4922   21.6878 C   0  0  0  0  0  0  0  0  0  0  0  0
  -25.6205  -33.7981   22.2322 C   0  0  0  0  0  0  0  0  0  0  0  0
  -27.2150  -30.4768   28.0026 C   0  0  0  0  0  0  0  0  0  0  0  0
  -24.8715  -22.7786   24.2683 C   0  0  0  0  0  0  0  0  0  1  0  0
  -25.9653  -31.5301   23.2948 C   0  0  1  0  0  0  0  0  0  0  0  0
  -28.0606  -32.1825   26.3857 C   0  0  2  0  0  0  0  0  0  0  0  0
  -26.1688  -32.3727   22.0040 C   0  0  0  0  0  0  0  0  0  0  0  0
  -25.9027  -11.1708   20.1631 N   0  0  0  0  0  0  0  0  0  0  0  0
  -26.4206  -11.6901   19.0370 N   0  0  0  0  0  0  0  0  0  0  0  0
  -28.2351  -20.3762   22.9113 N   0  0  0  0  0  0  0  0  0  0  0  0
  -24.0314  -30.0377   23.6905 N   0  0  0  0  0  0  0  0  0  0  0  0
  -28.9194  -14.2090   20.4730 N   0  0  0  0  0  0  0  0  0  0  0  0
  -26.1010  -11.8146   16.6932 N   0  0  0  0  0  0  0  0  0  0  0  0
  -23.8778   -8.7507   16.9467 N   0  0  0  0  0  0  0  0  0  0  0  0
  -29.9950  -16.2443   20.9858 N   0  0  0  0  0  0  0  0  0  0  0  0
  -20.7607  -30.0961   22.2660 N   0  0  0  0  0  0  0  0  0  0  0  0
  -26.6052  -32.0894   24.4805 N   0  0  0  0  0  0  0  0  0  0  0  0
  -28.3730  -31.2768   27.5273 N   0  3  0  0  0  0  0  0  0  0  0  0
  -29.0937  -20.5754   25.0875 O   0  0  0  0  0  0  0  0  0  0  0  0
  -22.5982  -10.6357   17.2078 O   0  0  0  0  0  0  0  0  0  0  0  0
  -22.7431  -29.0832   21.5831 O   0  0  0  0  0  0  0  0  0  0  0  0
  -23.8173  -32.3521   23.8748 O   0  0  0  0  0  0  0  0  0  0  0  0
  -27.9327  -30.2461   24.9465 O   0  0  0  0  0  0  0  0  0  0  0  0
  -27.7175  -15.9677   21.3807 O   0  0  0  0  0  0  0  0  0  0  0  0
  -21.5740   -7.7402   23.3326 O   0  0  0  0  0  0  0  0  0  0  0  0
  -25.4046  -24.0252   23.8233 O   0  0  0  0  0  0  0  0  0  1  0  0
  -21.9795   -2.2426   23.4613 F   0  0  0  0  0  0  0  0  0  0  0  0
  -32.9149  -19.9822   21.7142 F   0  0  0  0  0  0  0  0  0  0  0  0
  -22.3179   -6.4267   25.6486 F   0  0  0  0  0  0  0  0  0  0  0  0
  1  2  1  0  0  0  0
  1  5  2  0  0  0  0
  2  6  2  0  0  0  0
  3  8  2  0  0  0  0
  3 17  1  0  0  0  0
  4  9  1  0  0  0  0
  4 17  2  0  0  0  0
  5 19  1  0  0  0  0
  6 21  1  0  0  0  0
  7 10  2  0  0  0  0
  7 20  1  0  0  0  0
  8 26  1  0  0  0  0
  9 26  2  0  0  0  0
 10 27  1  0  0  0  0
 11 12  2  0  0  0  0
 11 28  1  0  0  0  0
 12 29  1  0  0  0  0
 13 22  1  0  0  0  0
 13 27  2  0  0  0  0
 14 24  1  0  0  0  0
 14 25  2  0  0  0  0
 15 25  1  0  0  0  0
 15 30  2  0  0  0  0
 16 29  2  0  0  0  0
 16 31  1  0  0  0  0
 17 32  1  0  0  0  0
 18 32  1  0  0  0  0
 18 33  2  0  0  0  0
 18 35  1  0  0  0  0
 19 21  2  0  0  0  0
 19 40  1  0  0  0  0
 20 22  2  0  0  0  0
 20 41  1  0  0  0  0
 21 52  1  0  0  0  0
 22 42  1  0  0  0  0
 23 24  2  0  0  0  0
 23 30  1  0  0  0  0
 23 56  1  0  0  0  0
 24 68  1  0  0  0  0
 25 73  1  0  0  0  0
 26 83  1  0  0  0  0
 27 84  1  0  0  0  0
 28 31  2  0  0  0  0
 28 83  1  0  0  0  0
 29 85  1  0  0  0  0
 30 86  1  0  0  0  0
 31 87  1  0  0  0  0
 32 66  2  0  0  0  0
 33 67  1  0  0  0  0
 33 71  1  0  0  0  0
 34 43  1  0  0  0  0
 34 68  1  0  0  0  0
 34 77  2  0  0  0  0
 35 72  1  0  0  0  0
 35 78  2  0  0  0  0
 36 53  1  0  0  0  0
 36 74  1  0  0  0  0
 36 79  2  0  0  0  0
 37 63  1  0  0  0  0
 37 69  1  0  0  0  0
 37 80  2  0  0  0  0
 38 64  1  0  0  0  0
 38 75  1  0  0  0  0
 38 81  2  0  0  0  0
 39 70  1  0  0  0  0
 39 73  1  0  0  0  0
 39 82  2  0  0  0  0
 40 44  1  0  0  0  0
 41 53  1  0  0  0  0
 42 69  1  0  0  0  0
 43 54  1  0  0  0  0
 44 46  1  0  0  0  0
 45 47  1  0  0  0  0
 45 49  1  0  0  0  0
 46 52  1  0  0  0  0
 47 55  1  0  0  0  0
 48 50  1  0  0  0  0
 48 54  1  0  0  0  0
 49 70  1  0  0  0  0
 50 68  1  0  0  0  0
 51 55  1  0  0  0  0
 51 70  1  0  0  0  0
 52 74  1  0  0  0  0
 53 69  1  0  0  0  0
 54 62  1  0  0  0  0
 55 67  1  0  0  0  0
 57 64  1  0  0  0  0
 58 65  1  0  0  0  0
 59 65  1  0  0  0  0
 60 65  1  0  0  0  0
 61 76  1  0  0  0  0
 62 84  1  0  0  0  0
 63 65  1  0  0  0  0
 63 75  1  0  0  0  0
 64 76  1  0  0  0  0
 66 67  1  0  0  0  0
M  CHG  1  76   1
M  ISO  4  39 100  62 101  73 100  84 101
M  END
> <Batch ID>
0062

> <Smiles>
CNC(C)C(=O)NC(C(=O)N1Cc2cc([101O:1][101CH2:1]C3CCN(c4cc([100NH:0][100C:0](=O)N5CCCC(n6nc(-c7ccc(Oc8ccc(F)cc8F)cc7)c(C(N)=O)c6N)C5)cc(F)c4C)C(=O)C3)ccc2CC1C(=O)NC1CCCc2ccccc21)C(C)(C)C

> <Shape>
0.254

> <Color>
0.090

> <Negative vol penalty>
0.000

$$$$

  -OEChem-04042323093D

 87 96  0     1  0  0  0  0  0999 V2000
  -18.6396  -26.0289   22.6096 C   0  0  0  0  0  0  0  0  0  0  0  0
  -19.8607  -26.0601   21.9439 C   0  0  0  0  0  0  0  0  0  0  0  0
  -25.8878   -9.3835   22.8697 C   0  0  0  0  0  0  0  0  0  0  0  0
  -26.8352   -9.0619   20.6706 C   0  0  0  0  0  0  0  0  0  0  0  0
  -18.0311  -27.2199   23.0036 C   0  0  0  0  0  0  0  0  0  0  0  0
  -20.4736  -27.2824   21.6707 C   0  0  0  0  0  0  0  0  0  0  0  0
  -25.4289  -27.2473   22.7139 C   0  0  0  0  0  0  0  0  0  0  0  0
  -29.7587  -20.4530   22.5696 C   0  0  0  0  0  0  0  0  0  0  0  0
  -29.1767  -19.3311   21.9797 C   0  0  0  0  0  0  0  0  0  0  0  0
  -26.5203   -8.2218   23.3121 C   0  0  0  0  0  0  0  0  0  0  0  0
  -27.4678   -7.9001   21.1131 C   0  0  0  0  0  0  0  0  0  0  0  0
  -26.2696  -26.6276   21.7904 C   0  0  0  0  0  0  0  0  0  0  0  0
  -27.5958   -5.1443   24.9235 C   0  0  0  0  0  0  0  0  0  0  0  0
  -26.8502   -4.2509   25.6925 C   0  0  0  0  0  0  0  0  0  0  0  0
  -26.8526  -28.7851   20.8824 C   0  0  0  0  0  0  0  0  0  0  0  0
  -25.2855   -3.9883   23.8705 C   0  0  0  0  0  0  0  0  0  0  0  0
  -26.0452   -9.8036   21.5489 C   0  0  0  0  0  0  0  0  0  0  0  0
  -24.0082  -11.2636   21.0727 C   0  0  0  0  0  0  0  0  0  0  0  0
  -18.6414  -28.4570   22.7436 C   0  0  0  0  0  0  0  0  0  0  0  0
  -25.2851  -28.6422   22.7215 C   0  0  0  0  0  0  0  0  0  0  0  0
  -19.8720  -28.4912   22.0603 C   0  0  0  0  0  0  0  0  0  0  0  0
  -26.0114  -29.4203   21.8087 C   0  0  0  0  0  0  0  0  0  0  0  0
  -30.0195  -21.5883   21.8023 C   0  0  0  0  0  0  0  0  0  0  0  0
  -29.6983  -21.6016   20.4450 C   0  0  0  0  0  0  0  0  0  0  0  0
  -28.8555  -19.3443   20.6224 C   0  0  0  0  0  0  0  0  0  0  0  0
  -27.3103   -7.4801   22.4339 C   0  0  0  0  0  0  0  0  0  0  0  0
  -26.9794  -27.3963   20.8725 C   0  0  0  0  0  0  0  0  0  0  0  0
  -27.1862   -5.4599   23.6279 C   0  0  0  0  0  0  0  0  0  0  0  0
  -25.6951   -3.6729   25.1660 C   0  0  0  0  0  0  0  0  0  0  0  0
  -26.0310   -4.8818   23.1015 C   0  0  0  0  0  0  0  0  0  0  0  0
  -29.1163  -20.4796   19.8550 C   0  0  0  0  0  0  0  0  0  0  0  0
  -25.3916  -11.0033   21.0910 C   0  0  0  0  0  0  0  0  0  0  0  0
  -23.9041  -12.5300   20.5513 C   0  0  0  0  0  0  0  0  0  0  0  0
  -31.2643  -23.2734   19.4778 C   0  0  0  0  0  0  0  0  0  0  0  0
  -22.9151  -10.4348   21.4897 C   0  0  0  0  0  0  0  0  0  0  0  0
  -22.8637  -30.6501   22.2645 C   0  0  0  0  0  0  0  0  0  0  0  0
  -25.0550  -32.8768   23.1377 C   0  0  0  0  0  0  0  0  0  0  0  0
  -28.3410  -33.7581   23.4069 C   0  0  0  0  0  0  0  0  0  0  0  0
  -27.9343  -16.9915   20.6414 C   0  0  0  0  0  0  0  0  0  0  0  0
  -17.9226  -29.7201   23.1468 C   0  0  0  0  0  0  0  0  0  0  0  0
  -24.3948  -29.2973   23.7416 C   0  0  0  0  0  0  0  0  0  0  0  0
  -25.9076  -30.9227   21.7886 C   0  0  0  0  0  0  0  0  0  0  0  0
  -31.3205  -24.5485   18.6581 C   0  0  0  0  0  0  0  0  0  0  0  0
  -18.8187  -30.9559   23.1513 C   0  0  0  0  0  0  0  0  0  0  0  0
  -30.2328  -25.4991   19.1246 C   0  0  0  0  0  0  0  0  0  0  0  0
  -26.7915  -15.0080   17.5619 C   0  0  0  0  0  0  0  0  0  0  0  0
  -19.6545  -31.0140   21.8766 C   0  0  0  0  0  0  0  0  0  0  0  0
  -25.6211  -14.2419   18.1738 C   0  0  0  0  0  0  0  0  0  0  0  0
  -27.1154  -16.2808   18.3339 C   0  0  0  0  0  0  0  0  0  0  0  0
  -28.8768  -23.3531   18.8418 C   0  0  0  0  0  0  0  0  0  0  0  0
  -26.9751  -14.7243   20.2867 C   0  0  0  0  0  0  0  0  0  0  0  0
  -20.5801  -29.7962   21.7678 C   0  0  1  0  0  0  0  0  0  0  0  0
  -23.9294  -30.6886   23.3230 C   0  0  1  0  0  0  0  0  0  0  0  0
  -28.8397  -24.8907   18.9228 C   0  0  1  0  0  0  0  0  0  0  0  0
  -25.6247  -14.2646   19.7152 C   0  0  2  0  0  0  0  0  0  0  0  0
  -30.6433  -22.7757   22.4613 C   0  0  0  0  0  0  0  0  0  0  0  0
  -29.8193  -35.6560   24.1208 C   0  0  0  0  0  0  0  0  0  0  0  0
  -24.3866  -34.3643   20.5589 C   0  0  0  0  0  0  0  0  0  0  0  0
  -26.4976  -35.6782   20.8517 C   0  0  0  0  0  0  0  0  0  0  0  0
  -24.6877  -35.8317   22.5615 C   0  0  0  0  0  0  0  0  0  0  0  0
  -29.6274  -32.1185   25.5082 C   0  0  0  0  0  0  0  0  0  0  0  0
  -27.8866  -25.3704   20.0190 C   0  0  0  0  0  0  0  0  0  1  0  0
  -26.0709  -33.7210   22.4069 C   0  0  1  0  0  0  0  0  0  0  0  0
  -29.1291  -34.3708   24.5505 C   0  0  2  0  0  0  0  0  0  0  0  0
  -25.4114  -34.8704   21.5936 C   0  0  0  0  0  0  0  0  0  0  0  0
  -26.1144  -12.0224   20.6187 N   0  0  0  0  0  0  0  0  0  0  0  0
  -25.1816  -12.9353   20.2986 N   0  0  0  0  0  0  0  0  0  0  0  0
  -29.9600  -22.7642   19.6395 N   0  0  0  0  0  0  0  0  0  0  0  0
  -25.0193  -31.5160   22.8017 N   0  0  0  0  0  0  0  0  0  0  0  0
  -27.3508  -16.0436   19.7655 N   0  0  0  0  0  0  0  0  0  0  0  0
  -22.8452  -13.3253   20.2889 N   0  0  0  0  0  0  0  0  0  0  0  0
  -22.3317   -9.5751   20.5490 N   0  0  0  0  0  0  0  0  0  0  0  0
  -28.2631  -18.2027   20.0269 N   0  0  0  0  0  0  0  0  0  0  0  0
  -21.7281  -29.9550   22.6344 N   0  0  0  0  0  0  0  0  0  0  0  0
  -27.0259  -34.1727   23.4131 N   0  0  0  0  0  0  0  0  0  0  0  0
  -30.1684  -33.4177   25.0325 N   0  3  0  0  0  0  0  0  0  0  0  0
  -32.3084  -22.7609   19.8794 O   0  0  0  0  0  0  0  0  0  0  0  0
  -22.4583  -10.4679   22.6575 O   0  0  0  0  0  0  0  0  0  0  0  0
  -23.0567  -31.2109   21.1921 O   0  0  0  0  0  0  0  0  0  0  0  0
  -24.3250  -33.4038   23.9809 O   0  0  0  0  0  0  0  0  0  0  0  0
  -28.8427  -32.9915   22.5877 O   0  0  0  0  0  0  0  0  0  0  0  0
  -28.1117  -16.7461   21.8365 O   0  0  0  0  0  0  0  0  0  0  0  0
  -27.9279   -6.3465   22.8654 O   0  0  0  0  0  0  0  0  0  0  0  0
  -27.8002  -26.7939   19.9696 O   0  0  0  0  0  0  0  0  0  1  0  0
  -24.9801   -2.8137   25.9041 F   0  0  0  0  0  0  0  0  0  0  0  0
  -25.6332   -5.1802   21.8571 F   0  0  0  0  0  0  0  0  0  0  0  0
  -28.8059  -20.4911   18.5495 F   0  0  0  0  0  0  0  0  0  0  0  0
  1  2  1  0  0  0  0
  1  5  2  0  0  0  0
  2  6  2  0  0  0  0
  3 10  2  0  0  0  0
  3 17  1  0  0  0  0
  4 11  1  0  0  0  0
  4 17  2  0  0  0  0
  5 19  1  0  0  0  0
  6 21  1  0  0  0  0
  7 12  2  0  0  0  0
  7 20  1  0  0  0  0
  8  9  1  0  0  0  0
  8 23  2  0  0  0  0
  9 25  2  0  0  0  0
 10 26  1  0  0  0  0
 11 26  2  0  0  0  0
 12 27  1  0  0  0  0
 13 14  2  0  0  0  0
 13 28  1  0  0  0  0
 14 29  1  0  0  0  0
 15 22  1  0  0  0  0
 15 27  2  0  0  0  0
 16 29  2  0  0  0  0
 16 30  1  0  0  0  0
 17 32  1  0  0  0  0
 18 32  1  0  0  0  0
 18 33  2  0  0  0  0
 18 35  1  0  0  0  0
 19 21  2  0  0  0  0
 19 40  1  0  0  0  0
 20 22  2  0  0  0  0
 20 41  1  0  0  0  0
 21 52  1  0  0  0  0
 22 42  1  0  0  0  0
 23 24  1  0  0  0  0
 23 56  1  0  0  0  0
 24 31  2  0  0  0  0
 24 68  1  0  0  0  0
 25 31  1  0  0  0  0
 25 73  1  0  0  0  0
 26 83  1  0  0  0  0
 27 84  1  0  0  0  0
 28 30  2  0  0  0  0
 28 83  1  0  0  0  0
 29 85  1  0  0  0  0
 30 86  1  0  0  0  0
 31 87  1  0  0  0  0
 32 66  2  0  0  0  0
 33 67  1  0  0  0  0
 33 71  1  0  0  0  0
 34 43  1  0  0  0  0
 34 68  1  0  0  0  0
 34 77  2  0  0  0  0
 35 72  1  0  0  0  0
 35 78  2  0  0  0  0
 36 53  1  0  0  0  0
 36 74  1  0  0  0  0
 36 79  2  0  0  0  0
 37 63  1  0  0  0  0
 37 69  1  0  0  0  0
 37 80  2  0  0  0  0
 38 64  1  0  0  0  0
 38 75  1  0  0  0  0
 38 81  2  0  0  0  0
 39 70  1  0  0  0  0
 39 73  1  0  0  0  0
 39 82  2  0  0  0  0
 40 44  1  0  0  0  0
 41 53  1  0  0  0  0
 42 69  1  0  0  0  0
 43 45  1  0  0  0  0
 44 47  1  0  0  0  0
 45 54  1  0  0  0  0
 46 48  1  0  0  0  0
 46 49  1  0  0  0  0
 47 52  1  0  0  0  0
 48 55  1  0  0  0  0
 49 70  1  0  0  0  0
 50 54  1  0  0  0  0
 50 68  1  0  0  0  0
 51 55  1  0  0  0  0
 51 70  1  0  0  0  0
 52 74  1  0  0  0  0
 53 69  1  0  0  0  0
 54 62  1  0  0  0  0
 55 67  1  0  0  0  0
 57 64  1  0  0  0  0
 58 65  1  0  0  0  0
 59 65  1  0  0  0  0
 60 65  1  0  0  0  0
 61 76  1  0  0  0  0
 62 84  1  0  0  0  0
 63 65  1  0  0  0  0
 63 75  1  0  0  0  0
 64 76  1  0  0  0  0
 66 67  1  0  0  0  0
M  CHG  1  76   1
M  ISO  4  39 100  62 101  73 100  84 101
M  END
> <Batch ID>
0062

> <Smiles>
CNC(C)C(=O)NC(C(=O)N1Cc2cc([101O:1][101CH2:1]C3CCC(=O)N(c4c(C)ccc([100NH:0][100C:0](=O)N5CCCC(n6nc(-c7ccc(Oc8ccc(F)cc8F)cc7)c(C(N)=O)c6N)C5)c4F)C3)ccc2CC1C(=O)NC1CCCc2ccccc21)C(C)(C)C

> <Shape>
0.286

> <Color>
0.077

> <Negative vol penalty>
0.000

$$$$

  -OEChem-04042323093D

 87 95  0     1  0  0  0  0  0999 V2000
  -41.7407  -24.7250   21.5269 C   0  0  0  0  0  0  0  0  0  0  0  0
  -40.9653  -25.2419   22.5599 C   0  0  0  0  0  0  0  0  0  0  0  0
  -32.6389  -17.4578   23.4461 C   0  0  0  0  0  0  0  0  0  0  0  0
  -23.0014   -9.8891   19.9825 C   0  0  0  0  0  0  0  0  0  0  0  0
  -23.7245   -9.9459   22.2870 C   0  0  0  0  0  0  0  0  0  0  0  0
  -31.8450  -18.3575   24.1573 C   0  0  0  0  0  0  0  0  0  0  0  0
  -41.1866  -24.5547   20.2589 C   0  0  0  0  0  0  0  0  0  0  0  0
  -39.6355  -25.5898   22.3251 C   0  0  0  0  0  0  0  0  0  0  0  0
  -34.2894  -22.5516   26.0772 C   0  0  0  0  0  0  0  0  0  0  0  0
  -32.0494  -16.5592   22.5569 C   0  0  0  0  0  0  0  0  0  0  0  0
  -22.2359   -8.7544   20.2506 C   0  0  0  0  0  0  0  0  0  0  0  0
  -22.9589   -8.8112   22.5552 C   0  0  0  0  0  0  0  0  0  0  0  0
  -33.2269  -22.1710   26.8972 C   0  0  0  0  0  0  0  0  0  0  0  0
  -21.4796   -5.7192   23.7640 C   0  0  0  0  0  0  0  0  0  0  0  0
  -22.0660   -4.7057   24.5220 C   0  0  0  0  0  0  0  0  0  0  0  0
  -31.6959  -23.4392   25.5203 C   0  0  0  0  0  0  0  0  0  0  0  0
  -23.7941   -4.4567   22.8520 C   0  0  0  0  0  0  0  0  0  0  0  0
  -23.7458  -10.4848   21.0007 C   0  0  0  0  0  0  0  0  0  0  0  0
  -30.4615  -18.3587   23.9793 C   0  0  0  0  0  0  0  0  0  0  0  0
  -24.1287  -13.0004   20.8195 C   0  0  0  0  0  0  0  0  0  0  0  0
  -39.8466  -24.8917   20.0109 C   0  0  0  0  0  0  0  0  0  0  0  0
  -34.0565  -23.3659   24.9654 C   0  0  0  0  0  0  0  0  0  0  0  0
  -39.0634  -25.4251   21.0522 C   0  0  0  0  0  0  0  0  0  0  0  0
  -32.7543  -23.8135   24.6882 C   0  0  0  0  0  0  0  0  0  0  0  0
  -30.6660  -16.5604   22.3789 C   0  0  0  0  0  0  0  0  0  0  0  0
  -22.2146   -8.2155   21.5370 C   0  0  0  0  0  0  0  0  0  0  0  0
  -31.9334  -22.6139   26.6196 C   0  0  0  0  0  0  0  0  0  0  0  0
  -22.0504   -6.1014   22.5500 C   0  0  0  0  0  0  0  0  0  0  0  0
  -23.2233   -4.0745   24.0660 C   0  0  0  0  0  0  0  0  0  0  0  0
  -23.2076   -5.4702   22.0940 C   0  0  0  0  0  0  0  0  0  0  0  0
  -29.8720  -17.4601   23.0901 C   0  0  0  0  0  0  0  0  0  0  0  0
  -24.5373  -11.6567   20.7242 C   0  0  0  0  0  0  0  0  0  0  0  0
  -25.2380  -13.7234   20.4545 C   0  0  0  0  0  0  0  0  0  0  0  0
  -29.6240  -19.3130   24.7332 C   0  0  0  0  0  0  0  0  0  0  0  0
  -22.8598  -13.5464   21.2037 C   0  0  0  0  0  0  0  0  0  0  0  0
  -35.5013  -25.1393   21.9916 C   0  0  0  0  0  0  0  0  0  0  0  0
  -27.4888  -19.5349   27.1080 C   0  0  0  0  0  0  0  0  0  0  0  0
  -32.8252  -23.9351   21.0976 C   0  0  0  0  0  0  0  0  0  0  0  0
  -30.5789  -21.8314   20.4409 C   0  0  0  0  0  0  0  0  0  0  0  0
  -30.7163  -14.6907   20.6912 C   0  0  0  0  0  0  0  0  0  0  0  0
  -39.3054  -24.7340   18.6120 C   0  0  0  0  0  0  0  0  0  0  0  0
  -35.1800  -23.8509   24.0900 C   0  0  0  0  0  0  0  0  0  0  0  0
  -32.5563  -24.7163   23.5013 C   0  0  0  0  0  0  0  0  0  0  0  0
  -37.7812  -24.7767   18.5402 C   0  0  0  0  0  0  0  0  0  0  0  0
  -29.6026  -12.2316   18.3697 C   0  0  0  0  0  0  0  0  0  0  0  0
  -37.2405  -25.9422   19.3624 C   0  0  0  0  0  0  0  0  0  0  0  0
  -28.1519  -11.9733   18.7831 C   0  0  0  0  0  0  0  0  0  0  0  0
  -30.5018  -12.4786   19.5797 C   0  0  0  0  0  0  0  0  0  0  0  0
  -28.5844  -13.2684   20.9098 C   0  0  0  0  0  0  0  0  0  0  0  0
  -37.6100  -25.7911   20.8430 C   0  0  1  0  0  0  0  0  0  0  0  0
  -34.7796  -23.9777   22.6092 C   0  0  1  0  0  0  0  0  0  0  0  0
  -27.6280  -13.0784   19.7212 C   0  0  2  0  0  0  0  0  0  0  0  0
  -26.3215  -20.4830   27.2148 C   0  0  0  0  0  0  0  0  0  0  0  0
  -28.6262  -20.9521   19.1328 C   0  0  0  0  0  0  0  0  0  0  0  0
  -31.5145  -26.6718   21.4080 C   0  0  0  0  0  0  0  0  0  0  0  0
  -29.4760  -25.7437   20.2894 C   0  0  0  0  0  0  0  0  0  0  0  0
  -31.6413  -25.8364   19.0542 C   0  0  0  0  0  0  0  0  0  0  0  0
  -32.0278  -19.3529   19.7223 C   0  0  0  0  0  0  0  0  0  0  0  0
  -29.6083  -20.3837   28.2352 C   0  0  0  0  0  0  0  0  0  0  0  0
  -31.0089  -20.9647   28.0627 C   0  0  0  0  0  0  0  0  0  1  0  0
  -28.8610  -20.1527   26.9262 C   0  0  1  0  0  0  0  0  0  0  0  0
  -31.3440  -24.1444   20.9091 C   0  0  1  0  0  0  0  0  0  0  0  0
  -30.1374  -20.9303   19.3018 C   0  0  2  0  0  0  0  0  0  0  0  0
  -31.0044  -25.5869   20.4387 C   0  0  0  0  0  0  0  0  0  0  0  0
  -25.8071  -11.5306   20.3294 N   0  0  0  0  0  0  0  0  0  0  0  0
  -26.2059  -12.8045   20.1733 N   0  0  0  0  0  0  0  0  0  0  0  0
  -33.3498  -24.2296   22.3619 N   0  0  0  0  0  0  0  0  0  0  0  0
  -29.9449  -13.5408   20.4202 N   0  0  0  0  0  0  0  0  0  0  0  0
  -25.4702  -15.0491   20.3497 N   0  0  0  0  0  0  0  0  0  0  0  0
  -28.8842  -20.1809   24.0430 N   0  0  0  0  0  0  0  0  0  0  0  0
  -21.8286  -12.6619   21.5482 N   0  0  0  0  0  0  0  0  0  0  0  0
  -30.0703  -15.6470   21.4741 N   0  0  0  0  0  0  0  0  0  0  0  0
  -36.7464  -24.8222   21.4831 N   0  0  0  0  0  0  0  0  0  0  0  0
  -30.8967  -23.0975   19.9968 N   0  0  0  0  0  0  0  0  0  0  0  0
  -29.6488  -19.2633   26.0710 N   0  3  0  0  0  0  0  0  0  0  0  0
  -30.5613  -19.5249   19.5591 N   0  3  0  0  0  0  0  0  0  0  0  0
  -22.6418  -14.7815   21.2245 O   0  0  0  0  0  0  0  0  0  0  0  0
  -34.9680  -26.2425   21.9755 O   0  0  0  0  0  0  0  0  0  0  0  0
  -27.3159  -18.3175   27.1699 O   0  0  0  0  0  0  0  0  0  0  0  0
  -33.5022  -23.5272   20.1496 O   0  0  0  0  0  0  0  0  0  0  0  0
  -30.6327  -21.4514   21.6085 O   0  0  0  0  0  0  0  0  0  0  0  0
  -31.8552  -14.8298   20.2379 O   0  0  0  0  0  0  0  0  0  0  0  0
  -21.4674   -7.1084   21.7990 O   0  0  0  0  0  0  0  0  0  0  0  0
  -30.9001  -22.2349   27.4216 O   0  0  0  0  0  0  0  0  0  1  0  0
  -23.7872   -3.1023   24.7947 F   0  0  0  0  0  0  0  0  0  0  0  0
  -23.7612   -5.8339   20.9291 F   0  0  0  0  0  0  0  0  0  0  0  0
  -28.5411  -17.4627   22.9198 F   0  0  0  0  0  0  0  0  0  0  0  0
  1  2  1  0  0  0  0
  1  7  2  0  0  0  0
  2  8  2  0  0  0  0
  3  6  2  0  0  0  0
  3 10  1  0  0  0  0
  4 11  2  0  0  0  0
  4 18  1  0  0  0  0
  5 12  1  0  0  0  0
  5 18  2  0  0  0  0
  6 19  1  0  0  0  0
  7 21  1  0  0  0  0
  8 23  1  0  0  0  0
  9 13  2  0  0  0  0
  9 22  1  0  0  0  0
 10 25  2  0  0  0  0
 11 26  1  0  0  0  0
 12 26  2  0  0  0  0
 13 27  1  0  0  0  0
 14 15  2  0  0  0  0
 14 28  1  0  0  0  0
 15 29  1  0  0  0  0
 16 24  1  0  0  0  0
 16 27  2  0  0  0  0
 17 29  2  0  0  0  0
 17 30  1  0  0  0  0
 18 32  1  0  0  0  0
 19 31  2  0  0  0  0
 19 34  1  0  0  0  0
 20 32  1  0  0  0  0
 20 33  2  0  0  0  0
 20 35  1  0  0  0  0
 21 23  2  0  0  0  0
 21 41  1  0  0  0  0
 22 24  2  0  0  0  0
 22 42  1  0  0  0  0
 23 50  1  0  0  0  0
 24 43  1  0  0  0  0
 25 31  1  0  0  0  0
 25 72  1  0  0  0  0
 26 83  1  0  0  0  0
 27 84  1  0  0  0  0
 28 30  2  0  0  0  0
 28 83  1  0  0  0  0
 29 85  1  0  0  0  0
 30 86  1  0  0  0  0
 31 87  1  0  0  0  0
 32 65  2  0  0  0  0
 33 66  1  0  0  0  0
 33 69  1  0  0  0  0
 34 70  1  0  0  0  0
 34 75  2  0  0  0  0
 35 71  1  0  0  0  0
 35 77  2  0  0  0  0
 36 51  1  0  0  0  0
 36 73  1  0  0  0  0
 36 78  2  0  0  0  0
 37 53  1  0  0  0  0
 37 61  1  0  0  0  0
 37 79  2  0  0  0  0
 38 62  1  0  0  0  0
 38 67  1  0  0  0  0
 38 80  2  0  0  0  0
 39 63  1  0  0  0  0
 39 74  1  0  0  0  0
 39 81  2  0  0  0  0
 40 68  1  0  0  0  0
 40 72  1  0  0  0  0
 40 82  2  0  0  0  0
 41 44  1  0  0  0  0
 42 51  1  0  0  0  0
 43 67  1  0  0  0  0
 44 46  1  0  0  0  0
 45 47  1  0  0  0  0
 45 48  1  0  0  0  0
 46 50  1  0  0  0  0
 47 52  1  0  0  0  0
 48 68  1  0  0  0  0
 49 52  1  0  0  0  0
 49 68  1  0  0  0  0
 50 73  1  0  0  0  0
 51 67  1  0  0  0  0
 52 66  1  0  0  0  0
 54 63  1  0  0  0  0
 55 64  1  0  0  0  0
 56 64  1  0  0  0  0
 57 64  1  0  0  0  0
 58 76  1  0  0  0  0
 59 60  1  0  0  0  0
 59 61  1  0  0  0  0
 60 84  1  0  0  0  0
 61 75  1  0  0  0  0
 62 64  1  0  0  0  0
 62 74  1  0  0  0  0
 63 76  1  0  0  0  0
 65 66  1  0  0  0  0
M  CHG  2  75   1  76   1
M  ISO  4  40 100  60 101  72 100  84 101
M  END
> <Batch ID>
0062

> <Smiles>
CNC(C)C(=O)NC(C(=O)N1Cc2cc([101O:1][101CH2:1]CC(NC(=N)c3cccc([100NH:0][100C:0](=O)N4CCCC(n5nc(-c6ccc(Oc7ccc(F)cc7F)cc6)c(C(N)=O)c5N)C4)c3F)C(C)=O)ccc2CC1C(=O)NC1CCCc2ccccc21)C(C)(C)C

> <Shape>
0.212

> <Color>
0.190

> <Negative vol penalty>
0.000

$$$$

  -OEChem-04042323093D

 88 97  0     1  0  0  0  0  0999 V2000
  -31.5797  -32.4081   15.5695 C   0  0  0  0  0  0  0  0  0  0  0  0
  -32.1264  -31.1676   15.2573 C   0  0  0  0  0  0  0  0  0  0  0  0
  -23.0191   -9.9014   19.9674 C   0  0  0  0  0  0  0  0  0  0  0  0
  -23.7849   -9.9019   22.2588 C   0  0  0  0  0  0  0  0  0  0  0  0
  -31.2182  -32.6983   16.8844 C   0  0  0  0  0  0  0  0  0  0  0  0
  -32.3131  -30.2168   16.2601 C   0  0  0  0  0  0  0  0  0  0  0  0
  -32.2384  -23.1326   17.3204 C   0  0  0  0  0  0  0  0  0  0  0  0
  -22.2410   -8.7734   20.2276 C   0  0  0  0  0  0  0  0  0  0  0  0
  -23.0068   -8.7738   22.5191 C   0  0  0  0  0  0  0  0  0  0  0  0
  -33.0317  -22.1138   17.8464 C   0  0  0  0  0  0  0  0  0  0  0  0
  -19.7575   -8.0793   23.1353 C   0  0  0  0  0  0  0  0  0  0  0  0
  -19.0028   -8.0710   24.3083 C   0  0  0  0  0  0  0  0  0  0  0  0
  -32.2967  -22.6971   20.0687 C   0  0  0  0  0  0  0  0  0  0  0  0
  -31.8149  -19.1738   22.7633 C   0  0  0  0  0  0  0  0  0  0  0  0
  -29.9892  -17.5928   22.7011 C   0  0  0  0  0  0  0  0  0  0  0  0
  -32.0370  -17.1208   21.5093 C   0  0  0  0  0  0  0  0  0  0  0  0
  -20.1864   -6.1020   25.0559 C   0  0  0  0  0  0  0  0  0  0  0  0
  -23.7911  -10.4657   20.9830 C   0  0  0  0  0  0  0  0  0  0  0  0
  -24.2095  -12.9783   20.8436 C   0  0  0  0  0  0  0  0  0  0  0  0
  -31.3915  -31.7471   17.9022 C   0  0  0  0  0  0  0  0  0  0  0  0
  -31.4755  -23.9497   18.1670 C   0  0  0  0  0  0  0  0  0  0  0  0
  -31.9548  -30.4950   17.5901 C   0  0  0  0  0  0  0  0  0  0  0  0
  -31.4926  -23.7239   19.5508 C   0  0  0  0  0  0  0  0  0  0  0  0
  -30.5238  -18.8042   23.1398 C   0  0  0  0  0  0  0  0  0  0  0  0
  -32.5716  -18.3321   21.9479 C   0  0  0  0  0  0  0  0  0  0  0  0
  -30.7458  -16.7511   21.8858 C   0  0  0  0  0  0  0  0  0  0  0  0
  -22.2349   -8.2096   21.5035 C   0  0  0  0  0  0  0  0  0  0  0  0
  -33.0631  -21.8978   19.2209 C   0  0  0  0  0  0  0  0  0  0  0  0
  -20.7266   -7.0989   22.9226 C   0  0  0  0  0  0  0  0  0  0  0  0
  -19.2173   -7.0824   25.2687 C   0  0  0  0  0  0  0  0  0  0  0  0
  -20.9411   -6.1103   23.8829 C   0  0  0  0  0  0  0  0  0  0  0  0
  -24.5954  -11.6306   20.7147 C   0  0  0  0  0  0  0  0  0  0  0  0
  -25.3230  -13.6914   20.4722 C   0  0  0  0  0  0  0  0  0  0  0  0
  -36.0406  -19.9025   21.8385 C   0  0  0  0  0  0  0  0  0  0  0  0
  -36.3554  -19.7339   20.5473 C   0  0  0  0  0  0  0  0  0  0  0  0
  -34.7078  -19.5174   22.3851 C   0  0  0  0  0  0  0  0  0  0  0  0
  -38.1770  -21.3050   20.4518 C   0  0  0  0  0  0  0  0  0  0  0  0
  -37.6372  -20.1492   20.0313 C   0  0  0  0  0  0  0  0  0  0  0  0
  -22.9564  -13.5357   21.2618 C   0  0  0  0  0  0  0  0  0  0  0  0
  -31.4208  -27.0570   18.8342 C   0  0  0  0  0  0  0  0  0  0  0  0
  -28.7976  -26.2432   20.5600 C   0  0  0  0  0  0  0  0  0  0  0  0
  -27.0640  -23.8235   22.2294 C   0  0  0  0  0  0  0  0  0  0  0  0
  -30.8190  -14.5708   20.6259 C   0  0  0  0  0  0  0  0  0  0  0  0
  -31.0295  -32.1237   19.3170 C   0  0  0  0  0  0  0  0  0  0  0  0
  -30.6043  -25.0271   17.5817 C   0  0  0  0  0  0  0  0  0  0  0  0
  -30.6763  -24.5602   20.5009 C   0  0  0  0  0  0  0  0  0  0  0  0
  -30.9127  -30.9253   20.2554 C   0  0  0  0  0  0  0  0  0  0  0  0
  -29.6252  -12.1750   18.2781 C   0  0  0  0  0  0  0  0  0  0  0  0
  -32.1013  -29.9868   20.0732 C   0  0  0  0  0  0  0  0  0  0  0  0
  -28.1784  -11.9307   18.7133 C   0  0  0  0  0  0  0  0  0  0  0  0
  -30.5500  -12.3845   19.4758 C   0  0  0  0  0  0  0  0  0  0  0  0
  -34.4837  -18.1117   20.3494 C   0  0  0  0  0  0  0  0  0  0  0  0
  -28.6698  -13.1769   20.8564 C   0  0  0  0  0  0  0  0  0  0  0  0
  -32.1498  -29.4285   18.6459 C   0  0  1  0  0  0  0  0  0  0  0  0
  -35.4011  -19.0768   19.5871 C   0  0  1  0  0  0  0  0  0  0  0  0
  -30.2660  -26.1300   18.5800 C   0  0  1  0  0  0  0  0  0  0  0  0
  -27.6890  -13.0249   19.6822 C   0  0  2  0  0  0  0  0  0  0  0  0
  -29.7145  -19.7053   24.0106 C   0  0  0  0  0  0  0  0  0  0  0  0
  -24.9723  -23.4684   23.5696 C   0  0  0  0  0  0  0  0  0  0  0  0
  -30.1017  -27.6134   22.9542 C   0  0  0  0  0  0  0  0  0  0  0  0
  -28.4674  -26.4277   24.4345 C   0  0  0  0  0  0  0  0  0  0  0  0
  -27.6490  -28.0403   22.7163 C   0  0  0  0  0  0  0  0  0  0  0  0
  -26.0162  -21.8511   20.2877 C   0  0  0  0  0  0  0  0  0  0  0  0
  -34.5912  -20.1219   18.8123 C   0  0  0  0  0  0  0  0  0  1  0  0
  -28.5488  -25.7952   21.9801 C   0  0  1  0  0  0  0  0  0  0  0  0
  -25.6010  -23.4208   22.1857 C   0  0  2  0  0  0  0  0  0  0  0  0
  -28.7087  -26.9545   23.0038 C   0  0  0  0  0  0  0  0  0  0  0  0
  -25.8557  -11.4932   20.2940 N   0  0  0  0  0  0  0  0  0  0  0  0
  -26.2712  -12.7637   20.1553 N   0  0  0  0  0  0  0  0  0  0  0  0
  -33.9061  -18.7148   21.5589 N   0  0  0  0  0  0  0  0  0  0  0  0
  -29.8453  -25.6054   19.8808 N   0  0  0  0  0  0  0  0  0  0  0  0
  -30.0251  -13.4383   20.3470 N   0  0  0  0  0  0  0  0  0  0  0  0
  -25.5738  -15.0152   20.3889 N   0  0  0  0  0  0  0  0  0  0  0  0
  -21.9182  -12.6603   21.6082 N   0  0  0  0  0  0  0  0  0  0  0  0
  -30.2023  -15.5211   21.4390 N   0  0  0  0  0  0  0  0  0  0  0  0
  -31.1754  -28.3709   18.4835 N   0  0  0  0  0  0  0  0  0  0  0  0
  -27.2304  -25.1705   21.9860 N   0  0  0  0  0  0  0  0  0  0  0  0
  -25.4606  -22.0360   21.6531 N   0  3  0  0  0  0  0  0  0  0  0  0
  -34.4360  -19.9013   23.5225 O   0  0  0  0  0  0  0  0  0  0  0  0
  -22.7580  -14.7733   21.3107 O   0  0  0  0  0  0  0  0  0  0  0  0
  -32.4573  -26.6134   19.3144 O   0  0  0  0  0  0  0  0  0  0  0  0
  -28.0839  -27.1214   20.0691 O   0  0  0  0  0  0  0  0  0  0  0  0
  -27.9683  -23.0240   22.4605 O   0  0  0  0  0  0  0  0  0  0  0  0
  -31.9515  -14.7016   20.1543 O   0  0  0  0  0  0  0  0  0  0  0  0
  -21.4756   -7.1090   21.7578 O   0  0  0  0  0  0  0  0  0  0  0  0
  -33.8371  -20.9045   19.7370 O   0  0  0  0  0  0  0  0  0  1  0  0
  -18.4935   -7.0755   26.3957 F   0  0  0  0  0  0  0  0  0  0  0  0
  -21.8716   -5.1665   23.6846 F   0  0  0  0  0  0  0  0  0  0  0  0
  1  2  1  0  0  0  0
  1  5  2  0  0  0  0
  2  6  2  0  0  0  0
  3  8  2  0  0  0  0
  3 18  1  0  0  0  0
  4  9  1  0  0  0  0
  4 18  2  0  0  0  0
  5 20  1  0  0  0  0
  6 22  1  0  0  0  0
  7 10  2  0  0  0  0
  7 21  1  0  0  0  0
  8 27  1  0  0  0  0
  9 27  2  0  0  0  0
 10 28  1  0  0  0  0
 11 12  2  0  0  0  0
 11 29  1  0  0  0  0
 12 30  1  0  0  0  0
 13 23  1  0  0  0  0
 13 28  2  0  0  0  0
 14 24  2  0  0  0  0
 14 25  1  0  0  0  0
 15 24  1  0  0  0  0
 15 26  2  0  0  0  0
 16 25  2  0  0  0  0
 16 26  1  0  0  0  0
 17 30  2  0  0  0  0
 17 31  1  0  0  0  0
 18 32  1  0  0  0  0
 19 32  1  0  0  0  0
 19 33  2  0  0  0  0
 19 39  1  0  0  0  0
 20 22  2  0  0  0  0
 20 44  1  0  0  0  0
 21 23  2  0  0  0  0
 21 45  1  0  0  0  0
 22 54  1  0  0  0  0
 23 46  1  0  0  0  0
 24 58  1  0  0  0  0
 25 70  1  0  0  0  0
 26 75  1  0  0  0  0
 27 85  1  0  0  0  0
 28 86  1  0  0  0  0
 29 31  2  0  0  0  0
 29 85  1  0  0  0  0
 30 87  1  0  0  0  0
 31 88  1  0  0  0  0
 32 68  2  0  0  0  0
 33 69  1  0  0  0  0
 33 73  1  0  0  0  0
 34 35  2  0  0  0  0
 34 36  1  0  0  0  0
 35 38  1  0  0  0  0
 35 55  1  0  0  0  0
 36 70  1  0  0  0  0
 36 79  2  0  0  0  0
 37 38  2  0  0  0  0
 39 74  1  0  0  0  0
 39 80  2  0  0  0  0
 40 56  1  0  0  0  0
 40 76  1  0  0  0  0
 40 81  2  0  0  0  0
 41 65  1  0  0  0  0
 41 71  1  0  0  0  0
 41 82  2  0  0  0  0
 42 66  1  0  0  0  0
 42 77  1  0  0  0  0
 42 83  2  0  0  0  0
 43 72  1  0  0  0  0
 43 75  1  0  0  0  0
 43 84  2  0  0  0  0
 44 47  1  0  0  0  0
 45 56  1  0  0  0  0
 46 71  1  0  0  0  0
 47 49  1  0  0  0  0
 48 50  1  0  0  0  0
 48 51  1  0  0  0  0
 49 54  1  0  0  0  0
 50 57  1  0  0  0  0
 51 72  1  0  0  0  0
 52 55  1  0  0  0  0
 52 70  1  0  0  0  0
 53 57  1  0  0  0  0
 53 72  1  0  0  0  0
 54 76  1  0  0  0  0
 55 64  1  0  0  0  0
 56 71  1  0  0  0  0
 57 69  1  0  0  0  0
 59 66  1  0  0  0  0
 60 67  1  0  0  0  0
 61 67  1  0  0  0  0
 62 67  1  0  0  0  0
 63 78  1  0  0  0  0
 64 86  1  0  0  0  0
 65 67  1  0  0  0  0
 65 77  1  0  0  0  0
 66 78  1  0  0  0  0
 68 69  1  0  0  0  0
M  CHG  1  78   1
M  ISO  4  43 100  64 101  75 100  86 101
M  END
> <Batch ID>
0062

> <Smiles>
C=CC1=CC(=O)N(c2cc(C)cc([100NH:0][100C:0](=O)N3CCCC(n4nc(-c5ccc(Oc6ccc(F)cc6F)cc5)c(C(N)=O)c4N)C3)c2)CC1[101CH2:1][101O:1]c1ccc2c(c1)CN(C(=O)C(NC(=O)C(C)NC)C(C)(C)C)C(C(=O)NC1CCCc3ccccc31)C2

> <Shape>
0.229

> <Color>
0.204

> <Negative vol penalty>
0.000

$$$$

  -OEChem-04042323093D

 86 94  0     1  0  0  0  0  0999 V2000
  -24.7495  -34.7015   23.9186 C   0  0  0  0  0  0  0  0  0  0  0  0
  -25.4769  -33.5501   23.6349 C   0  0  0  0  0  0  0  0  0  0  0  0
  -21.5327  -10.2024   23.2080 C   0  0  0  0  0  0  0  0  0  0  0  0
  -23.3387  -10.3349   21.6087 C   0  0  0  0  0  0  0  0  0  0  0  0
  -27.9195  -20.2289   21.8199 C   0  0  0  0  0  0  0  0  0  0  0  0
  -23.4020  -34.6061   24.2638 C   0  0  0  0  0  0  0  0  0  0  0  0
  -24.8575  -32.3024   23.6972 C   0  0  0  0  0  0  0  0  0  0  0  0
  -26.0172  -29.3579   19.7437 C   0  0  0  0  0  0  0  0  0  0  0  0
  -26.8164  -19.4183   22.0876 C   0  0  0  0  0  0  0  0  0  0  0  0
  -21.2999   -8.8786   22.8355 C   0  0  0  0  0  0  0  0  0  0  0  0
  -23.1060   -9.0110   21.2362 C   0  0  0  0  0  0  0  0  0  0  0  0
  -27.2630  -28.7322   19.7596 C   0  0  0  0  0  0  0  0  0  0  0  0
  -22.6607   -5.8436   23.4439 C   0  0  0  0  0  0  0  0  0  0  0  0
  -22.4633   -4.9093   24.4606 C   0  0  0  0  0  0  0  0  0  0  0  0
  -26.2203  -26.6883   20.5041 C   0  0  0  0  0  0  0  0  0  0  0  0
  -25.4981  -20.6927   20.5144 C   0  0  0  0  0  0  0  0  0  0  0  0
  -20.2686   -4.4146   23.5799 C   0  0  0  0  0  0  0  0  0  0  0  0
  -22.5521  -10.9306   22.5946 C   0  0  0  0  0  0  0  0  0  0  0  0
  -27.8119  -21.2716   20.8995 C   0  0  0  0  0  0  0  0  0  0  0  0
  -23.6560  -12.7578   23.9912 C   0  0  0  0  0  0  0  0  0  0  0  0
  -22.7633  -33.3573   24.3210 C   0  0  0  0  0  0  0  0  0  0  0  0
  -24.8631  -28.6554   20.1190 C   0  0  0  0  0  0  0  0  0  0  0  0
  -23.5006  -32.1900   24.0448 C   0  0  0  0  0  0  0  0  0  0  0  0
  -24.9607  -27.3066   20.4897 C   0  0  0  0  0  0  0  0  0  0  0  0
  -25.6058  -19.6501   21.4348 C   0  0  0  0  0  0  0  0  0  0  0  0
  -22.0865   -8.2828   21.8496 C   0  0  0  0  0  0  0  0  0  0  0  0
  -27.3651  -27.3980   20.1426 C   0  0  0  0  0  0  0  0  0  0  0  0
  -21.6620   -6.0635   22.4953 C   0  0  0  0  0  0  0  0  0  0  0  0
  -21.2672   -4.1948   24.5286 C   0  0  0  0  0  0  0  0  0  0  0  0
  -26.6012  -21.5034   20.2467 C   0  0  0  0  0  0  0  0  0  0  0  0
  -20.4660   -5.3490   22.5632 C   0  0  0  0  0  0  0  0  0  0  0  0
  -22.7927  -12.2984   22.9785 C   0  0  0  0  0  0  0  0  0  0  0  0
  -23.5274  -14.1249   23.9579 C   0  0  0  0  0  0  0  0  0  0  0  0
  -28.9887  -22.1342   20.6198 C   0  0  0  0  0  0  0  0  0  0  0  0
  -24.4989  -12.0152   24.8821 C   0  0  0  0  0  0  0  0  0  0  0  0
  -22.6967  -28.9683   22.4240 C   0  0  0  0  0  0  0  0  0  0  0  0
  -29.9191  -24.9774   19.2664 C   0  0  0  0  0  0  0  0  0  0  0  0
  -21.2272  -26.5519   20.8354 C   0  0  0  0  0  0  0  0  0  0  0  0
  -21.4982  -23.8928   18.7135 C   0  0  0  0  0  0  0  0  0  0  0  0
  -23.2118  -18.9206   21.1465 C   0  0  0  0  0  0  0  0  0  0  0  0
  -21.3171  -33.3004   24.7449 C   0  0  0  0  0  0  0  0  0  0  0  0
  -23.5232  -29.3371   20.0709 C   0  0  0  0  0  0  0  0  0  0  0  0
  -23.7492  -26.5023   20.8820 C   0  0  0  0  0  0  0  0  0  0  0  0
  -20.6399  -31.9706   24.4233 C   0  0  0  0  0  0  0  0  0  0  0  0
  -20.1987  -17.0621   21.5261 C   0  0  0  0  0  0  0  0  0  0  0  0
  -21.5287  -30.8039   24.8423 C   0  0  0  0  0  0  0  0  0  0  0  0
  -20.6759  -15.6949   22.0211 C   0  0  0  0  0  0  0  0  0  0  0  0
  -21.1645  -17.6654   20.5078 C   0  0  0  0  0  0  0  0  0  0  0  0
  -23.0411  -16.3713   21.4420 C   0  0  0  0  0  0  0  0  0  0  0  0
  -22.8578  -30.8204   24.0776 C   0  0  1  0  0  0  0  0  0  0  0  0
  -22.4822  -28.6725   20.9665 C   0  0  1  0  0  0  0  0  0  0  0  0
  -22.1338  -15.7529   22.5180 C   0  0  2  0  0  0  0  0  0  0  0  0
  -30.3906  -23.3413   17.4189 C   0  0  0  0  0  0  0  0  0  0  0  0
  -20.1302  -22.0886   17.6313 C   0  0  0  0  0  0  0  0  0  0  0  0
  -21.1494  -25.0290   23.4782 C   0  0  0  0  0  0  0  0  0  0  0  0
  -20.6714  -22.9415   22.1812 C   0  0  0  0  0  0  0  0  0  0  0  0
  -19.0648  -24.8484   22.1084 C   0  0  0  0  0  0  0  0  0  0  0  0
  -22.1489  -24.8685   15.9962 C   0  0  0  0  0  0  0  0  0  0  0  0
  -28.6026  -25.3810   19.9057 C   0  0  0  0  0  0  0  0  0  1  0  0
  -30.1502  -23.5085   18.9116 C   0  0  2  0  0  0  0  0  0  0  0  0
  -21.2766  -25.0444   20.8995 C   0  0  1  0  0  0  0  0  0  0  0  0
  -20.6930  -23.4943   17.4898 C   0  0  2  0  0  0  0  0  0  0  0  0
  -20.5638  -24.4813   22.1614 C   0  0  0  0  0  0  0  0  0  0  0  0
  -22.1621  -13.2929   22.3481 N   0  0  0  0  0  0  0  0  0  0  0  0
  -22.6296  -14.3908   22.9663 N   0  0  0  0  0  0  0  0  0  0  0  0
  -22.4624  -27.2152   20.8249 N   0  0  0  0  0  0  0  0  0  0  0  0
  -22.5250  -17.6919   21.0493 N   0  0  0  0  0  0  0  0  0  0  0  0
  -24.0958  -15.1134   24.6806 N   0  0  0  0  0  0  0  0  0  0  0  0
  -24.5108  -10.6174   24.7810 N   0  0  0  0  0  0  0  0  0  0  0  0
  -24.4853  -18.8265   21.7068 N   0  0  0  0  0  0  0  0  0  0  0  0
  -29.0600  -22.6738   19.3416 N   0  0  0  0  0  0  0  0  0  0  0  0
  -22.6742  -30.3146   22.7341 N   0  0  0  0  0  0  0  0  0  0  0  0
  -20.7252  -24.5638   19.6373 N   0  0  0  0  0  0  0  0  0  0  0  0
  -21.5484  -23.5376   16.2702 N   0  3  0  0  0  0  0  0  0  0  0  0
  -29.8283  -22.3072   21.4993 O   0  0  0  0  0  0  0  0  0  0  0  0
  -25.2076  -12.5738   25.7534 O   0  0  0  0  0  0  0  0  0  0  0  0
  -22.8685  -28.0433   23.2093 O   0  0  0  0  0  0  0  0  0  0  0  0
  -30.8125  -25.8086   19.0815 O   0  0  0  0  0  0  0  0  0  0  0  0
  -20.1330  -27.1196   20.7887 O   0  0  0  0  0  0  0  0  0  0  0  0
  -22.6926  -23.6313   18.8390 O   0  0  0  0  0  0  0  0  0  0  0  0
  -22.6968  -19.9822   20.7863 O   0  0  0  0  0  0  0  0  0  0  0  0
  -21.8598   -6.9909   21.4861 O   0  0  0  0  0  0  0  0  0  0  0  0
  -28.5800  -26.7851   20.1596 O   0  0  0  0  0  0  0  0  0  1  0  0
  -21.0784   -3.2964   25.5040 F   0  0  0  0  0  0  0  0  0  0  0  0
  -26.4861  -22.5029   19.3605 F   0  0  0  0  0  0  0  0  0  0  0  0
  -19.5034   -5.5551   21.6540 F   0  0  0  0  0  0  0  0  0  0  0  0
  1  2  1  0  0  0  0
  1  6  2  0  0  0  0
  2  7  2  0  0  0  0
  3 10  2  0  0  0  0
  3 18  1  0  0  0  0
  4 11  1  0  0  0  0
  4 18  2  0  0  0  0
  5  9  2  0  0  0  0
  5 19  1  0  0  0  0
  6 21  1  0  0  0  0
  7 23  1  0  0  0  0
  8 12  2  0  0  0  0
  8 22  1  0  0  0  0
  9 25  1  0  0  0  0
 10 26  1  0  0  0  0
 11 26  2  0  0  0  0
 12 27  1  0  0  0  0
 13 14  2  0  0  0  0
 13 28  1  0  0  0  0
 14 29  1  0  0  0  0
 15 24  1  0  0  0  0
 15 27  2  0  0  0  0
 16 25  2  0  0  0  0
 16 30  1  0  0  0  0
 17 29  2  0  0  0  0
 17 31  1  0  0  0  0
 18 32  1  0  0  0  0
 19 30  2  0  0  0  0
 19 34  1  0  0  0  0
 20 32  1  0  0  0  0
 20 33  2  0  0  0  0
 20 35  1  0  0  0  0
 21 23  2  0  0  0  0
 21 41  1  0  0  0  0
 22 24  2  0  0  0  0
 22 42  1  0  0  0  0
 23 50  1  0  0  0  0
 24 43  1  0  0  0  0
 25 70  1  0  0  0  0
 26 82  1  0  0  0  0
 27 83  1  0  0  0  0
 28 31  2  0  0  0  0
 28 82  1  0  0  0  0
 29 84  1  0  0  0  0
 30 85  1  0  0  0  0
 31 86  1  0  0  0  0
 32 64  2  0  0  0  0
 33 65  1  0  0  0  0
 33 68  1  0  0  0  0
 34 71  1  0  0  0  0
 34 75  2  0  0  0  0
 35 69  1  0  0  0  0
 35 76  2  0  0  0  0
 36 51  1  0  0  0  0
 36 72  1  0  0  0  0
 36 77  2  0  0  0  0
 37 59  1  0  0  0  0
 37 60  1  0  0  0  0
 37 78  2  0  0  0  0
 38 61  1  0  0  0  0
 38 66  1  0  0  0  0
 38 79  2  0  0  0  0
 39 62  1  0  0  0  0
 39 73  1  0  0  0  0
 39 80  2  0  0  0  0
 40 67  1  0  0  0  0
 40 70  1  0  0  0  0
 40 81  2  0  0  0  0
 41 44  1  0  0  0  0
 42 51  1  0  0  0  0
 43 66  1  0  0  0  0
 44 46  1  0  0  0  0
 45 47  1  0  0  0  0
 45 48  1  0  0  0  0
 46 50  1  0  0  0  0
 47 52  1  0  0  0  0
 48 67  1  0  0  0  0
 49 52  1  0  0  0  0
 49 67  1  0  0  0  0
 50 72  1  0  0  0  0
 51 66  1  0  0  0  0
 52 65  1  0  0  0  0
 53 60  1  0  0  0  0
 54 62  1  0  0  0  0
 55 63  1  0  0  0  0
 56 63  1  0  0  0  0
 57 63  1  0  0  0  0
 58 74  1  0  0  0  0
 59 83  1  0  0  0  0
 60 71  1  0  0  0  0
 61 63  1  0  0  0  0
 61 73  1  0  0  0  0
 62 74  1  0  0  0  0
 64 65  1  0  0  0  0
M  CHG  1  74   1
M  ISO  4  40 100  59 101  70 100  83 101
M  END
> <Batch ID>
0062

> <Smiles>
CNC(C)C(=O)NC(C(=O)N1Cc2cc([101O:1][101CH2:1]C(=O)C(C)NC(=O)c3ccc([100NH:0][100C:0](=O)N4CCCC(n5nc(-c6ccc(Oc7ccc(F)cc7F)cc6)c(C(N)=O)c5N)C4)cc3F)ccc2CC1C(=O)NC1CCCc2ccccc21)C(C)(C)C

> <Shape>
0.225

> <Color>
0.099

> <Negative vol penalty>
0.000

$$$$

  -OEChem-04042323093D

 89 98  0     1  0  0  0  0  0999 V2000
  -23.8405  -38.5374   17.8573 C   0  0  0  0  0  0  0  0  0  0  0  0
  -25.0027  -37.7728   17.8512 C   0  0  0  0  0  0  0  0  0  0  0  0
  -22.8735  -11.3149   21.7262 C   0  0  0  0  0  0  0  0  0  0  0  0
  -24.3661   -9.4172   21.8145 C   0  0  0  0  0  0  0  0  0  0  0  0
  -23.0494  -38.5922   19.0041 C   0  0  0  0  0  0  0  0  0  0  0  0
  -25.3752  -37.0634   18.9925 C   0  0  0  0  0  0  0  0  0  0  0  0
  -26.2199  -29.9121   18.8027 C   0  0  0  0  0  0  0  0  0  0  0  0
  -22.1027  -10.7561   22.7456 C   0  0  0  0  0  0  0  0  0  0  0  0
  -23.5953   -8.8584   22.8339 C   0  0  0  0  0  0  0  0  0  0  0  0
  -26.6064  -28.5717   18.7966 C   0  0  0  0  0  0  0  0  0  0  0  0
  -20.6884   -7.1542   23.1107 C   0  0  0  0  0  0  0  0  0  0  0  0
  -20.3799   -5.7969   23.0201 C   0  0  0  0  0  0  0  0  0  0  0  0
  -27.0501  -28.6778   21.1714 C   0  0  0  0  0  0  0  0  0  0  0  0
  -30.0764  -19.7563   21.6580 C   0  0  0  0  0  0  0  0  0  0  0  0
  -30.9388  -17.6046   20.9773 C   0  0  0  0  0  0  0  0  0  0  0  0
  -28.5924  -17.8568   21.4950 C   0  0  0  0  0  0  0  0  0  0  0  0
  -21.5081   -5.4004   25.1194 C   0  0  0  0  0  0  0  0  0  0  0  0
  -24.0052  -10.6454   21.2606 C   0  0  0  0  0  0  0  0  0  0  0  0
  -24.3810  -11.5440   18.9028 C   0  0  0  0  0  0  0  0  0  0  0  0
  -23.4073  -37.8755   20.1568 C   0  0  0  0  0  0  0  0  0  0  0  0
  -26.2323  -30.6371   19.9975 C   0  0  0  0  0  0  0  0  0  0  0  0
  -24.5889  -37.1098   20.1563 C   0  0  0  0  0  0  0  0  0  0  0  0
  -26.6521  -30.0173   21.1860 C   0  0  0  0  0  0  0  0  0  0  0  0
  -31.1460  -18.9550   21.2586 C   0  0  0  0  0  0  0  0  0  0  0  0
  -28.7996  -19.2072   21.7763 C   0  0  0  0  0  0  0  0  0  0  0  0
  -29.6620  -17.0554   21.0955 C   0  0  0  0  0  0  0  0  0  0  0  0
  -22.4636   -9.5279   23.2995 C   0  0  0  0  0  0  0  0  0  0  0  0
  -27.0207  -27.9562   19.9780 C   0  0  0  0  0  0  0  0  0  0  0  0
  -21.4069   -7.6346   24.2056 C   0  0  0  0  0  0  0  0  0  0  0  0
  -20.7897   -4.9200   24.0245 C   0  0  0  0  0  0  0  0  0  0  0  0
  -21.8167   -6.7577   25.2099 C   0  0  0  0  0  0  0  0  0  0  0  0
  -24.8015  -11.2219   20.2071 C   0  0  0  0  0  0  0  0  0  0  0  0
  -25.5014  -12.0597   18.2984 C   0  0  0  0  0  0  0  0  0  0  0  0
  -26.6088  -19.4921   22.9038 C   0  0  0  0  0  0  0  0  0  0  0  0
  -23.0928  -11.3909   18.2922 C   0  0  0  0  0  0  0  0  0  0  0  0
  -25.5746  -33.9076   21.7142 C   0  0  0  0  0  0  0  0  0  0  0  0
  -24.5857  -31.6977   23.5981 C   0  0  0  0  0  0  0  0  0  0  0  0
  -26.9519  -24.4353   20.8449 C   0  0  0  0  0  0  0  0  0  0  0  0
  -22.9407  -29.8349   25.9349 C   0  0  0  0  0  0  0  0  0  0  0  0
  -30.4040  -14.7493   20.4045 C   0  0  0  0  0  0  0  0  0  0  0  0
  -22.5455  -38.0034   21.3879 C   0  0  0  0  0  0  0  0  0  0  0  0
  -25.8830  -32.0999   20.0397 C   0  0  0  0  0  0  0  0  0  0  0  0
  -26.6825  -30.8458   22.4412 C   0  0  0  0  0  0  0  0  0  0  0  0
  -25.3681  -20.3588   23.0186 C   0  0  0  0  0  0  0  0  0  0  0  0
  -22.8126  -36.9235   22.4333 C   0  0  0  0  0  0  0  0  0  0  0  0
  -25.6485  -21.8415   23.1371 C   0  0  0  0  0  0  0  0  0  0  0  0
  -30.2814  -11.7939   18.4226 C   0  0  0  0  0  0  0  0  0  0  0  0
  -24.3123  -36.7543   22.6548 C   0  0  0  0  0  0  0  0  0  0  0  0
  -28.8225  -11.3445   18.5317 C   0  0  0  0  0  0  0  0  0  0  0  0
  -30.7914  -12.3880   19.7344 C   0  0  0  0  0  0  0  0  0  0  0  0
  -28.5042  -13.0154   20.4009 C   0  0  0  0  0  0  0  0  0  0  0  0
  -27.8408  -21.4974   22.0291 C   0  0  0  0  0  0  0  0  0  0  0  0
  -25.0132  -36.3065   21.3665 C   0  0  1  0  0  0  0  0  0  0  0  0
  -25.1687  -32.5126   21.3391 C   0  0  1  0  0  0  0  0  0  0  0  0
  -27.9261  -12.4697   19.0849 C   0  0  2  0  0  0  0  0  0  0  0  0
  -26.5236  -22.2627   21.9730 C   0  0  2  0  0  0  0  0  0  0  0  0
  -32.5114  -19.5424   21.1335 C   0  0  0  0  0  0  0  0  0  0  0  0
  -22.2813  -29.8475   28.3562 C   0  0  0  0  0  0  0  0  0  0  0  0
  -27.4504  -30.9984   24.3780 C   0  0  0  0  0  0  0  0  0  0  0  0
  -26.5684  -30.1133   26.5476 C   0  0  0  0  0  0  0  0  0  0  0  0
  -26.2768  -32.5237   25.9751 C   0  0  0  0  0  0  0  0  0  0  0  0
  -20.0580  -29.7485   25.2701 C   0  0  0  0  0  0  0  0  0  0  0  0
  -27.1740  -25.8988   21.1618 C   0  0  0  0  0  0  0  0  0  1  0  0
  -24.9052  -30.7852   24.7551 C   0  0  1  0  0  0  0  0  0  0  0  0
  -21.8615  -30.2011   26.9379 C   0  0  2  0  0  0  0  0  0  0  0  0
  -26.2906  -31.0950   25.3892 C   0  0  0  0  0  0  0  0  0  0  0  0
  -26.0886  -11.5087   20.4196 N   0  0  0  0  0  0  0  0  0  0  0  0
  -26.4866  -12.0164   19.2406 N   0  0  0  0  0  0  0  0  0  0  0  0
  -27.6902  -20.0390   22.1909 N   0  0  0  0  0  0  0  0  0  0  0  0
  -25.4768  -31.6855   22.5181 N   0  0  0  0  0  0  0  0  0  0  0  0
  -29.8948  -13.4502   20.1955 N   0  0  0  0  0  0  0  0  0  0  0  0
  -25.7301  -12.5413   17.0582 N   0  0  0  0  0  0  0  0  0  0  0  0
  -22.0523  -10.8441   19.0556 N   0  0  0  0  0  0  0  0  0  0  0  0
  -29.4517  -15.6833   20.8112 N   0  0  0  0  0  0  0  0  0  0  0  0
  -24.7968  -34.8939   21.1382 N   0  0  0  0  0  0  0  0  0  0  0  0
  -26.7560  -23.6862   21.9945 N   0  0  0  0  0  0  0  0  0  0  0  0
  -23.7851  -30.8956   25.6833 N   0  0  0  0  0  0  0  0  0  0  0  0
  -20.5977  -29.4752   26.6270 N   0  3  0  0  0  0  0  0  0  0  0  0
  -26.5689  -18.3563   23.3849 O   0  0  0  0  0  0  0  0  0  0  0  0
  -22.8753  -11.7138   17.0998 O   0  0  0  0  0  0  0  0  0  0  0  0
  -26.5227  -34.0780   22.4716 O   0  0  0  0  0  0  0  0  0  0  0  0
  -23.5773  -32.4074   23.6502 O   0  0  0  0  0  0  0  0  0  0  0  0
  -26.9525  -23.9963   19.6981 O   0  0  0  0  0  0  0  0  0  0  0  0
  -23.0282  -28.7186   25.4284 O   0  0  0  0  0  0  0  0  0  0  0  0
  -31.5916  -15.0201   20.2088 O   0  0  0  0  0  0  0  0  0  0  0  0
  -21.7118   -8.9824   24.2944 O   0  0  0  0  0  0  0  0  0  0  0  0
  -27.3924  -26.6460   19.9658 O   0  0  0  0  0  0  0  0  0  1  0  0
  -20.4919   -3.6169   23.9382 F   0  0  0  0  0  0  0  0  0  0  0  0
  -22.5062   -7.2135   26.2648 F   0  0  0  0  0  0  0  0  0  0  0  0
  1  2  1  0  0  0  0
  1  5  2  0  0  0  0
  2  6  2  0  0  0  0
  3  8  2  0  0  0  0
  3 18  1  0  0  0  0
  4  9  1  0  0  0  0
  4 18  2  0  0  0  0
  5 20  1  0  0  0  0
  6 22  1  0  0  0  0
  7 10  2  0  0  0  0
  7 21  1  0  0  0  0
  8 27  1  0  0  0  0
  9 27  2  0  0  0  0
 10 28  1  0  0  0  0
 11 12  2  0  0  0  0
 11 29  1  0  0  0  0
 12 30  1  0  0  0  0
 13 23  1  0  0  0  0
 13 28  2  0  0  0  0
 14 24  2  0  0  0  0
 14 25  1  0  0  0  0
 15 24  1  0  0  0  0
 15 26  2  0  0  0  0
 16 25  2  0  0  0  0
 16 26  1  0  0  0  0
 17 30  2  0  0  0  0
 17 31  1  0  0  0  0
 18 32  1  0  0  0  0
 19 32  1  0  0  0  0
 19 33  2  0  0  0  0
 19 35  1  0  0  0  0
 20 22  2  0  0  0  0
 20 41  1  0  0  0  0
 21 23  2  0  0  0  0
 21 42  1  0  0  0  0
 22 53  1  0  0  0  0
 23 43  1  0  0  0  0
 24 57  1  0  0  0  0
 25 69  1  0  0  0  0
 26 74  1  0  0  0  0
 27 86  1  0  0  0  0
 28 87  1  0  0  0  0
 29 31  2  0  0  0  0
 29 86  1  0  0  0  0
 30 88  1  0  0  0  0
 31 89  1  0  0  0  0
 32 67  2  0  0  0  0
 33 68  1  0  0  0  0
 33 72  1  0  0  0  0
 34 44  1  0  0  0  0
 34 69  1  0  0  0  0
 34 79  2  0  0  0  0
 35 73  1  0  0  0  0
 35 80  2  0  0  0  0
 36 54  1  0  0  0  0
 36 75  1  0  0  0  0
 36 81  2  0  0  0  0
 37 64  1  0  0  0  0
 37 70  1  0  0  0  0
 37 82  2  0  0  0  0
 38 63  1  0  0  0  0
 38 76  1  0  0  0  0
 38 83  2  0  0  0  0
 39 65  1  0  0  0  0
 39 77  1  0  0  0  0
 39 84  2  0  0  0  0
 40 71  1  0  0  0  0
 40 74  1  0  0  0  0
 40 85  2  0  0  0  0
 41 45  1  0  0  0  0
 42 54  1  0  0  0  0
 43 70  1  0  0  0  0
 44 46  1  0  0  0  0
 45 48  1  0  0  0  0
 46 56  1  0  0  0  0
 47 49  1  0  0  0  0
 47 50  1  0  0  0  0
 48 53  1  0  0  0  0
 49 55  1  0  0  0  0
 50 71  1  0  0  0  0
 51 55  1  0  0  0  0
 51 71  1  0  0  0  0
 52 56  1  0  0  0  0
 52 69  1  0  0  0  0
 53 75  1  0  0  0  0
 54 70  1  0  0  0  0
 55 68  1  0  0  0  0
 56 76  1  0  0  0  0
 58 65  1  0  0  0  0
 59 66  1  0  0  0  0
 60 66  1  0  0  0  0
 61 66  1  0  0  0  0
 62 78  1  0  0  0  0
 63 87  1  0  0  0  0
 64 66  1  0  0  0  0
 64 77  1  0  0  0  0
 65 78  1  0  0  0  0
 67 68  1  0  0  0  0
M  CHG  1  78   1
M  ISO  4  40 100  63 101  74 100  87 101
M  END
> <Batch ID>
0062

> <Smiles>
CNC(C)C(=O)NC(C(=O)N1Cc2cc([101O:1][101CH2:1]C(=O)NC3CCC(=O)N(c4cc(C)cc([100NH:0][100C:0](=O)N5CCCC(n6nc(-c7ccc(Oc8ccc(F)cc8F)cc7)c(C(N)=O)c6N)C5)c4)C3)ccc2CC1C(=O)NC1CCCc2ccccc21)C(C)(C)C

> <Shape>
0.272

> <Color>
0.113

> <Negative vol penalty>
0.000

$$$$

  -OEChem-04042323093D

 85 93  0     1  0  0  0  0  0999 V2000
  -32.2275  -27.0741   23.0029 C   0  0  0  0  0  0  0  0  0  0  0  0
  -30.8742  -26.7664   22.9060 C   0  0  0  0  0  0  0  0  0  0  0  0
  -26.4648  -27.8169   15.5676 C   0  0  0  0  0  0  0  0  0  0  0  0
  -28.4227  -26.9287   16.6696 C   0  0  0  0  0  0  0  0  0  0  0  0
  -33.1254  -26.5671   22.0645 C   0  0  0  0  0  0  0  0  0  0  0  0
  -30.4179  -25.9523   21.8700 C   0  0  0  0  0  0  0  0  0  0  0  0
  -27.1473  -22.4298   23.4637 C   0  0  0  0  0  0  0  0  0  0  0  0
  -17.7727  -28.2697   22.2811 C   0  0  0  0  0  0  0  0  0  0  0  0
  -18.1953  -26.9439   22.1856 C   0  0  0  0  0  0  0  0  0  0  0  0
  -27.1379  -27.7855   14.3463 C   0  0  0  0  0  0  0  0  0  0  0  0
  -29.0959  -26.8972   15.4483 C   0  0  0  0  0  0  0  0  0  0  0  0
  -25.8376  -22.8409   23.7078 C   0  0  0  0  0  0  0  0  0  0  0  0
  -30.6803  -29.0894   13.4198 C   0  0  0  0  0  0  0  0  0  0  0  0
  -31.9903  -29.5673   13.3893 C   0  0  0  0  0  0  0  0  0  0  0  0
  -20.4121  -27.5998   22.8875 C   0  0  0  0  0  0  0  0  0  0  0  0
  -25.1684  -21.9623   21.5632 C   0  0  0  0  0  0  0  0  0  0  0  0
  -32.7633  -27.4012   12.6494 C   0  0  0  0  0  0  0  0  0  0  0  0
  -27.1072  -27.3885   16.7292 C   0  0  0  0  0  0  0  0  0  0  0  0
  -19.9895  -28.9257   22.9830 C   0  0  0  0  0  0  0  0  0  0  0  0
  -25.6297  -26.3974   18.5574 C   0  0  0  0  0  0  0  0  0  0  0  0
  -32.6812  -25.7385   21.0220 C   0  0  0  0  0  0  0  0  0  0  0  0
  -27.4801  -21.7905   22.2608 C   0  0  0  0  0  0  0  0  0  0  0  0
  -31.3105  -25.4348   20.9159 C   0  0  0  0  0  0  0  0  0  0  0  0
  -26.4825  -21.5418   21.3073 C   0  0  0  0  0  0  0  0  0  0  0  0
  -18.6699  -29.2607   22.6798 C   0  0  0  0  0  0  0  0  0  0  0  0
  -19.5149  -26.6089   22.4888 C   0  0  0  0  0  0  0  0  0  0  0  0
  -28.4534  -27.3257   14.2866 C   0  0  0  0  0  0  0  0  0  0  0  0
  -24.8485  -22.6098   22.7563 C   0  0  0  0  0  0  0  0  0  0  0  0
  -30.4117  -27.7674   13.0651 C   0  0  0  0  0  0  0  0  0  0  0  0
  -33.0319  -28.7232   13.0041 C   0  0  0  0  0  0  0  0  0  0  0  0
  -31.4532  -26.9233   12.6798 C   0  0  0  0  0  0  0  0  0  0  0  0
  -26.4126  -27.4213   17.9912 C   0  0  0  0  0  0  0  0  0  0  0  0
  -25.1949  -26.9183   19.7517 C   0  0  0  0  0  0  0  0  0  0  0  0
  -20.9655  -29.9608   23.4107 C   0  0  0  0  0  0  0  0  0  0  0  0
  -25.3230  -25.0923   18.0494 C   0  0  0  0  0  0  0  0  0  0  0  0
  -29.4172  -22.4535   19.8294 C   0  0  0  0  0  0  0  0  0  0  0  0
  -28.5641  -19.4821   18.8470 C   0  0  0  0  0  0  0  0  0  0  0  0
  -21.2134  -24.7561   22.6519 C   0  0  0  0  0  0  0  0  0  0  0  0
  -26.2815  -16.9465   18.9322 C   0  0  0  0  0  0  0  0  0  0  0  0
  -23.1011  -31.0482   22.7943 C   0  0  0  0  0  0  0  0  0  0  0  0
  -33.6824  -25.2527   20.0040 C   0  0  0  0  0  0  0  0  0  0  0  0
  -28.8920  -21.3293   22.0240 C   0  0  0  0  0  0  0  0  0  0  0  0
  -26.7839  -20.8412   20.0086 C   0  0  0  0  0  0  0  0  0  0  0  0
  -33.1723  -24.0920   19.1538 C   0  0  0  0  0  0  0  0  0  0  0  0
  -26.5888  -31.1153   22.2207 C   0  0  0  0  0  0  0  0  0  0  0  0
  -31.7606  -24.3781   18.6518 C   0  0  0  0  0  0  0  0  0  0  0  0
  -26.7940  -30.0703   21.1207 C   0  0  0  0  0  0  0  0  0  0  0  0
  -25.2953  -31.9038   22.0201 C   0  0  0  0  0  0  0  0  0  0  0  0
  -24.2945  -30.0469   20.7520 C   0  0  0  0  0  0  0  0  0  0  0  0
  -30.7806  -24.5349   19.8207 C   0  0  1  0  0  0  0  0  0  0  0  0
  -29.2212  -21.1472   20.5456 C   0  0  1  0  0  0  0  0  0  0  0  0
  -25.5479  -29.1787   20.9479 C   0  0  1  0  0  0  0  0  0  0  0  0
  -18.1910  -30.6727   22.7738 C   0  0  0  0  0  0  0  0  0  0  0  0
  -25.8419  -14.6595   17.9974 C   0  0  0  0  0  0  0  0  0  0  0  0
  -27.7720  -20.7284   16.1769 C   0  0  0  0  0  0  0  0  0  0  0  0
  -26.4930  -18.6390   15.6604 C   0  0  0  0  0  0  0  0  0  0  0  0
  -28.9632  -18.5371   15.9929 C   0  0  0  0  0  0  0  0  0  0  0  0
  -26.2785  -15.7194   21.6254 C   0  0  0  0  0  0  0  0  0  0  0  0
  -21.2441  -23.2498   22.4194 C   0  0  0  0  0  0  0  0  0  0  0  0
  -22.6067  -22.7416   21.9735 C   0  0  0  0  0  0  0  0  0  1  0  0
  -27.4585  -18.9161   17.9890 C   0  0  1  0  0  0  0  0  0  0  0  0
  -26.4431  -15.4525   19.1474 C   0  0  2  0  0  0  0  0  0  0  0  0
  -27.6660  -19.2201   16.4783 C   0  0  0  0  0  0  0  0  0  0  0  0
  -26.4733  -28.5102   18.7622 N   0  0  0  0  0  0  0  0  0  0  0  0
  -25.7230  -28.1737   19.8251 N   0  0  0  0  0  0  0  0  0  0  0  0
  -28.1806  -20.4150   19.8209 N   0  0  0  0  0  0  0  0  0  0  0  0
  -24.1626  -30.9878   21.8745 N   0  0  0  0  0  0  0  0  0  0  0  0
  -24.4162  -26.4204   20.7355 N   0  0  0  0  0  0  0  0  0  0  0  0
  -25.8517  -24.7178   16.8066 N   0  0  0  0  0  0  0  0  0  0  0  0
  -19.9437  -25.2638   22.3898 N   0  0  0  0  0  0  0  0  0  0  0  0
  -22.0881  -30.1037   22.5948 N   0  0  0  0  0  0  0  0  0  0  0  0
  -30.4234  -23.2394   20.3581 N   0  0  0  0  0  0  0  0  0  0  0  0
  -27.3818  -17.4945   18.3074 N   0  0  0  0  0  0  0  0  0  0  0  0
  -25.7690  -15.0350   20.4092 N   0  3  0  0  0  0  0  0  0  0  0  0
  -20.7202  -30.6399   24.4040 O   0  0  0  0  0  0  0  0  0  0  0  0
  -24.5880  -24.2882   18.6713 O   0  0  0  0  0  0  0  0  0  0  0  0
  -28.7091  -22.7274   18.8675 O   0  0  0  0  0  0  0  0  0  0  0  0
  -29.7243  -19.1049   18.6648 O   0  0  0  0  0  0  0  0  0  0  0  0
  -22.2034  -25.3804   23.0186 O   0  0  0  0  0  0  0  0  0  0  0  0
  -25.2779  -17.5649   19.2800 O   0  0  0  0  0  0  0  0  0  0  0  0
  -23.0755  -31.8484   23.7347 O   0  0  0  0  0  0  0  0  0  0  0  0
  -29.1104  -27.2947   13.0950 O   0  0  0  0  0  0  0  0  0  0  0  0
  -23.5696  -23.0106   22.9918 O   0  0  0  0  0  0  0  0  0  1  0  0
  -34.2897  -29.1827   12.9735 F   0  0  0  0  0  0  0  0  0  0  0  0
  -31.2012  -25.6526   12.3368 F   0  0  0  0  0  0  0  0  0  0  0  0
  1  2  1  0  0  0  0
  1  5  2  0  0  0  0
  2  6  2  0  0  0  0
  3 10  2  0  0  0  0
  3 18  1  0  0  0  0
  4 11  1  0  0  0  0
  4 18  2  0  0  0  0
  5 21  1  0  0  0  0
  6 23  1  0  0  0  0
  7 12  2  0  0  0  0
  7 22  1  0  0  0  0
  8  9  2  0  0  0  0
  8 25  1  0  0  0  0
  9 26  1  0  0  0  0
 10 27  1  0  0  0  0
 11 27  2  0  0  0  0
 12 28  1  0  0  0  0
 13 14  2  0  0  0  0
 13 29  1  0  0  0  0
 14 30  1  0  0  0  0
 15 19  1  0  0  0  0
 15 26  2  0  0  0  0
 16 24  1  0  0  0  0
 16 28  2  0  0  0  0
 17 30  2  0  0  0  0
 17 31  1  0  0  0  0
 18 32  1  0  0  0  0
 19 25  2  0  0  0  0
 19 34  1  0  0  0  0
 20 32  1  0  0  0  0
 20 33  2  0  0  0  0
 20 35  1  0  0  0  0
 21 23  2  0  0  0  0
 21 41  1  0  0  0  0
 22 24  2  0  0  0  0
 22 42  1  0  0  0  0
 23 50  1  0  0  0  0
 24 43  1  0  0  0  0
 25 53  1  0  0  0  0
 26 70  1  0  0  0  0
 27 82  1  0  0  0  0
 28 83  1  0  0  0  0
 29 31  2  0  0  0  0
 29 82  1  0  0  0  0
 30 84  1  0  0  0  0
 31 85  1  0  0  0  0
 32 64  2  0  0  0  0
 33 65  1  0  0  0  0
 33 68  1  0  0  0  0
 34 71  1  0  0  0  0
 34 75  2  0  0  0  0
 35 69  1  0  0  0  0
 35 76  2  0  0  0  0
 36 51  1  0  0  0  0
 36 72  1  0  0  0  0
 36 77  2  0  0  0  0
 37 61  1  0  0  0  0
 37 66  1  0  0  0  0
 37 78  2  0  0  0  0
 38 59  1  0  0  0  0
 38 70  1  0  0  0  0
 38 79  2  0  0  0  0
 39 62  1  0  0  0  0
 39 73  1  0  0  0  0
 39 80  2  0  0  0  0
 40 67  1  0  0  0  0
 40 71  1  0  0  0  0
 40 81  2  0  0  0  0
 41 44  1  0  0  0  0
 42 51  1  0  0  0  0
 43 66  1  0  0  0  0
 44 46  1  0  0  0  0
 45 47  1  0  0  0  0
 45 48  1  0  0  0  0
 46 50  1  0  0  0  0
 47 52  1  0  0  0  0
 48 67  1  0  0  0  0
 49 52  1  0  0  0  0
 49 67  1  0  0  0  0
 50 72  1  0  0  0  0
 51 66  1  0  0  0  0
 52 65  1  0  0  0  0
 54 62  1  0  0  0  0
 55 63  1  0  0  0  0
 56 63  1  0  0  0  0
 57 63  1  0  0  0  0
 58 74  1  0  0  0  0
 59 60  1  0  0  0  0
 60 83  1  0  0  0  0
 61 63  1  0  0  0  0
 61 73  1  0  0  0  0
 62 74  1  0  0  0  0
 64 65  1  0  0  0  0
M  CHG  1  74   1
M  ISO  4  40 100  60 101  71 100  83 101
M  END
> <Batch ID>
0062

> <Smiles>
CNC(C)C(=O)NC(C(=O)N1Cc2cc([101O:1][101CH2:1]CC(=O)Nc3ccc(C)c(C(=O)[100NH:0][100C:0](=O)N4CCCC(n5nc(-c6ccc(Oc7ccc(F)cc7F)cc6)c(C(N)=O)c5N)C4)c3)ccc2CC1C(=O)NC1CCCc2ccccc21)C(C)(C)C

> <Shape>
0.202

> <Color>
0.081

> <Negative vol penalty>
0.000

$$$$

  -OEChem-04042323093D

 86 94  0     1  0  0  0  0  0999 V2000
  -19.9756  -34.3825   21.9199 C   0  0  0  0  0  0  0  0  0  0  0  0
  -21.2439  -33.9363   21.5625 C   0  0  0  0  0  0  0  0  0  0  0  0
  -27.4559  -12.2209   20.5872 C   0  0  0  0  0  0  0  0  0  0  0  0
  -26.8443  -13.0969   18.4203 C   0  0  0  0  0  0  0  0  0  0  0  0
  -19.1911  -33.6260   22.7896 C   0  0  0  0  0  0  0  0  0  0  0  0
  -21.7289  -32.7338   22.0754 C   0  0  0  0  0  0  0  0  0  0  0  0
  -25.3582  -28.7109   19.2205 C   0  0  0  0  0  0  0  0  0  0  0  0
  -26.5372  -11.1836   20.4272 C   0  0  0  0  0  0  0  0  0  0  0  0
  -25.9256  -12.0596   18.2602 C   0  0  0  0  0  0  0  0  0  0  0  0
  -26.7339  -28.4898   19.2688 C   0  0  0  0  0  0  0  0  0  0  0  0
  -24.0945   -8.5084   20.7432 C   0  0  0  0  0  0  0  0  0  0  0  0
  -23.2696   -8.1980   21.8243 C   0  0  0  0  0  0  0  0  0  0  0  0
  -26.3903  -26.7463   20.9001 C   0  0  0  0  0  0  0  0  0  0  0  0
  -27.6806  -22.1120   15.8031 C   0  0  0  0  0  0  0  0  0  0  0  0
  -28.3140  -22.7287   18.4490 C   0  0  0  0  0  0  0  0  0  0  0  0
  -22.3692  -10.4395   21.7808 C   0  0  0  0  0  0  0  0  0  0  0  0
  -27.6094  -13.1776   19.5838 C   0  0  0  0  0  0  0  0  0  0  0  0
  -29.9129  -14.2522   19.3672 C   0  0  0  0  0  0  0  0  0  0  0  0
  -19.6630  -32.4088   23.3058 C   0  0  0  0  0  0  0  0  0  0  0  0
  -24.4877  -27.9575   20.0210 C   0  0  0  0  0  0  0  0  0  0  0  0
  -20.9506  -31.9609   22.9538 C   0  0  0  0  0  0  0  0  0  0  0  0
  -25.0037  -26.9581   20.8582 C   0  0  0  0  0  0  0  0  0  0  0  0
  -28.2852  -23.3311   16.1095 C   0  0  0  0  0  0  0  0  0  0  0  0
  -27.3926  -21.2013   16.8196 C   0  0  0  0  0  0  0  0  0  0  0  0
  -28.6019  -23.6395   17.4325 C   0  0  0  0  0  0  0  0  0  0  0  0
  -27.7093  -21.5097   18.1426 C   0  0  0  0  0  0  0  0  0  0  0  0
  -25.7721  -11.1029   19.2637 C   0  0  0  0  0  0  0  0  0  0  0  0
  -27.2504  -27.5094   20.1108 C   0  0  0  0  0  0  0  0  0  0  0  0
  -24.0568   -9.7844   20.1809 C   0  0  0  0  0  0  0  0  0  0  0  0
  -22.4070   -9.1635   22.3431 C   0  0  0  0  0  0  0  0  0  0  0  0
  -23.1941  -10.7499   20.6997 C   0  0  0  0  0  0  0  0  0  0  0  0
  -28.5579  -14.2497   19.7488 C   0  0  0  0  0  0  0  0  0  0  0  0
  -30.3718  -15.4924   19.7381 C   0  0  0  0  0  0  0  0  0  0  0  0
  -30.6875  -13.2252   18.7339 C   0  0  0  0  0  0  0  0  0  0  0  0
  -22.4365  -28.6315   22.3539 C   0  0  0  0  0  0  0  0  0  0  0  0
  -21.6906  -25.4868   22.0776 C   0  0  0  0  0  0  0  0  0  0  0  0
  -22.6511  -22.3544   21.1223 C   0  0  0  0  0  0  0  0  0  0  0  0
  -30.0866  -25.1341   18.8176 C   0  0  0  0  0  0  0  0  0  0  0  0
  -27.6816  -20.7659   20.5493 C   0  0  0  0  0  0  0  0  0  0  0  0
  -18.7975  -31.6492   24.2798 C   0  0  0  0  0  0  0  0  0  0  0  0
  -23.0040  -28.1901   19.9375 C   0  0  0  0  0  0  0  0  0  0  0  0
  -24.1100  -26.1082   21.7227 C   0  0  0  0  0  0  0  0  0  0  0  0
  -19.2366  -30.2015   24.4840 C   0  0  0  0  0  0  0  0  0  0  0  0
  -29.6029  -18.9647   22.9454 C   0  0  0  0  0  0  0  0  0  0  0  0
  -20.7452  -30.1261   24.6965 C   0  0  0  0  0  0  0  0  0  0  0  0
  -29.6814  -17.5529   22.3599 C   0  0  0  0  0  0  0  0  0  0  0  0
  -28.2466  -19.6149   22.6779 C   0  0  0  0  0  0  0  0  0  0  0  0
  -27.9053  -18.2072   20.6852 C   0  0  0  0  0  0  0  0  0  0  0  0
  -21.5020  -30.6495   23.4698 C   0  0  1  0  0  0  0  0  0  0  0  0
  -22.2538  -27.7144   21.1778 C   0  0  1  0  0  0  0  0  0  0  0  0
  -29.2757  -17.5361   20.8730 C   0  0  2  0  0  0  0  0  0  0  0  0
  -28.5821  -24.2877   15.0006 C   0  0  0  0  0  0  0  0  0  0  0  0
  -26.7448  -19.9030   16.4624 C   0  0  0  0  0  0  0  0  0  0  0  0
  -21.8411  -19.9802   21.0552 C   0  0  0  0  0  0  0  0  0  0  0  0
  -31.3053  -26.9498   17.5624 C   0  0  0  0  0  0  0  0  0  0  0  0
  -31.4867  -26.8341   20.0745 C   0  0  0  0  0  0  0  0  0  0  0  0
  -22.1969  -25.2318   25.0757 C   0  0  0  0  0  0  0  0  0  0  0  0
  -22.3100  -22.7489   24.7749 C   0  0  0  0  0  0  0  0  0  0  0  0
  -20.2024  -23.9731   24.2438 C   0  0  0  0  0  0  0  0  0  0  0  0
  -22.8517  -22.2472   18.1715 C   0  0  0  0  0  0  0  0  0  0  0  0
  -29.3376  -27.5539   18.9717 C   0  0  0  0  0  0  0  0  0  1  0  0
  -22.1944  -24.2094   22.7049 C   0  0  1  0  0  0  0  0  0  0  0  0
  -21.9475  -21.2934   20.2955 C   0  0  2  0  0  0  0  0  0  0  0  0
  -30.5604  -26.6116   18.8658 C   0  0  0  0  0  0  0  0  0  0  0  0
  -21.7432  -24.0580   24.1851 C   0  0  0  0  0  0  0  0  0  0  0  0
  -28.1806  -15.3972   20.3187 N   0  0  0  0  0  0  0  0  0  0  0  0
  -29.3054  -16.1324   20.2980 N   0  0  0  0  0  0  0  0  0  0  0  0
  -22.6670  -26.3779   21.6103 N   0  0  0  0  0  0  0  0  0  0  0  0
  -27.9310  -19.5661   21.2487 N   0  0  0  0  0  0  0  0  0  0  0  0
  -31.5795  -16.0871   19.6369 N   0  0  0  0  0  0  0  0  0  0  0  0
  -30.0598  -12.0117   18.4213 N   0  0  0  0  0  0  0  0  0  0  0  0
  -29.2160  -24.8721   17.7636 N   0  0  0  0  0  0  0  0  0  0  0  0
  -27.4248  -20.5977   19.1890 N   0  0  0  0  0  0  0  0  0  0  0  0
  -21.5101  -29.6548   22.4186 N   0  0  0  0  0  0  0  0  0  0  0  0
  -21.7555  -23.1255   21.8326 N   0  0  0  0  0  0  0  0  0  0  0  0
  -22.6930  -21.0447   19.0292 N   0  3  0  0  0  0  0  0  0  0  0  0
  -31.9046  -13.3731   18.4684 O   0  0  0  0  0  0  0  0  0  0  0  0
  -23.3494  -28.4251   23.1449 O   0  0  0  0  0  0  0  0  0  0  0  0
  -20.4754  -25.6833   21.9985 O   0  0  0  0  0  0  0  0  0  0  0  0
  -23.8732  -22.4837   21.1393 O   0  0  0  0  0  0  0  0  0  0  0  0
  -30.4652  -24.3191   19.6570 O   0  0  0  0  0  0  0  0  0  0  0  0
  -27.7216  -21.8641   21.1099 O   0  0  0  0  0  0  0  0  0  0  0  0
  -24.8757  -10.0907   19.1071 O   0  0  0  0  0  0  0  0  0  0  0  0
  -28.5928  -27.2919   20.1604 O   0  0  0  0  0  0  0  0  0  1  0  0
  -21.6138   -8.8648   23.3804 F   0  0  0  0  0  0  0  0  0  0  0  0
  -23.1525  -11.9771   20.1630 F   0  0  0  0  0  0  0  0  0  0  0  0
  1  2  1  0  0  0  0
  1  5  2  0  0  0  0
  2  6  2  0  0  0  0
  3  8  2  0  0  0  0
  3 17  1  0  0  0  0
  4  9  1  0  0  0  0
  4 17  2  0  0  0  0
  5 19  1  0  0  0  0
  6 21  1  0  0  0  0
  7 10  2  0  0  0  0
  7 20  1  0  0  0  0
  8 27  1  0  0  0  0
  9 27  2  0  0  0  0
 10 28  1  0  0  0  0
 11 12  2  0  0  0  0
 11 29  1  0  0  0  0
 12 30  1  0  0  0  0
 13 22  1  0  0  0  0
 13 28  2  0  0  0  0
 14 23  1  0  0  0  0
 14 24  2  0  0  0  0
 15 25  1  0  0  0  0
 15 26  2  0  0  0  0
 16 30  2  0  0  0  0
 16 31  1  0  0  0  0
 17 32  1  0  0  0  0
 18 32  1  0  0  0  0
 18 33  2  0  0  0  0
 18 34  1  0  0  0  0
 19 21  2  0  0  0  0
 19 40  1  0  0  0  0
 20 22  2  0  0  0  0
 20 41  1  0  0  0  0
 21 49  1  0  0  0  0
 22 42  1  0  0  0  0
 23 25  2  0  0  0  0
 23 52  1  0  0  0  0
 24 26  1  0  0  0  0
 24 53  1  0  0  0  0
 25 72  1  0  0  0  0
 26 73  1  0  0  0  0
 27 83  1  0  0  0  0
 28 84  1  0  0  0  0
 29 31  2  0  0  0  0
 29 83  1  0  0  0  0
 30 85  1  0  0  0  0
 31 86  1  0  0  0  0
 32 66  2  0  0  0  0
 33 67  1  0  0  0  0
 33 70  1  0  0  0  0
 34 71  1  0  0  0  0
 34 77  2  0  0  0  0
 35 50  1  0  0  0  0
 35 74  1  0  0  0  0
 35 78  2  0  0  0  0
 36 62  1  0  0  0  0
 36 68  1  0  0  0  0
 36 79  2  0  0  0  0
 37 63  1  0  0  0  0
 37 75  1  0  0  0  0
 37 80  2  0  0  0  0
 38 64  1  0  0  0  0
 38 72  1  0  0  0  0
 38 81  2  0  0  0  0
 39 69  1  0  0  0  0
 39 73  1  0  0  0  0
 39 82  2  0  0  0  0
 40 43  1  0  0  0  0
 41 50  1  0  0  0  0
 42 68  1  0  0  0  0
 43 45  1  0  0  0  0
 44 46  1  0  0  0  0
 44 47  1  0  0  0  0
 45 49  1  0  0  0  0
 46 51  1  0  0  0  0
 47 69  1  0  0  0  0
 48 51  1  0  0  0  0
 48 69  1  0  0  0  0
 49 74  1  0  0  0  0
 50 68  1  0  0  0  0
 51 67  1  0  0  0  0
 54 63  1  0  0  0  0
 55 64  1  0  0  0  0
 56 64  1  0  0  0  0
 57 65  1  0  0  0  0
 58 65  1  0  0  0  0
 59 65  1  0  0  0  0
 60 76  1  0  0  0  0
 61 64  1  0  0  0  0
 61 84  1  0  0  0  0
 62 65  1  0  0  0  0
 62 75  1  0  0  0  0
 63 76  1  0  0  0  0
 66 67  1  0  0  0  0
M  CHG  1  76   1
M  ISO  4  39 100  61 101  73 100  84 101
M  END
> <Batch ID>
0062

> <Smiles>
CNC(C)C(=O)NC(C(=O)N1Cc2cc([101O:1][101CH2:1]C(C)(C)C(=O)Nc3cc([100NH:0][100C:0](=O)N4CCCC(n5nc(-c6ccc(Oc7ccc(F)cc7F)cc6)c(C(N)=O)c5N)C4)c(C)cc3C)ccc2CC1C(=O)NC1CCCc2ccccc21)C(C)(C)C

> <Shape>
0.249

> <Color>
0.088

> <Negative vol penalty>
0.000

$$$$

  -OEChem-04042323093D

 89 98  0     1  0  0  0  0  0999 V2000
  -21.6068  -37.1766   18.5841 C   0  0  0  0  0  0  0  0  0  0  0  0
  -21.5114  -35.8791   18.0914 C   0  0  0  0  0  0  0  0  0  0  0  0
  -24.6582   -8.7256   21.5125 C   0  0  0  0  0  0  0  0  0  0  0  0
  -22.9142  -10.3507   21.1192 C   0  0  0  0  0  0  0  0  0  0  0  0
  -22.7553  -37.5803   19.2637 C   0  0  0  0  0  0  0  0  0  0  0  0
  -22.5649  -34.9847   18.2773 C   0  0  0  0  0  0  0  0  0  0  0  0
  -23.8550  -28.0135   19.3042 C   0  0  0  0  0  0  0  0  0  0  0  0
  -23.8280   -8.0513   22.4079 C   0  0  0  0  0  0  0  0  0  0  0  0
  -22.0840   -9.6764   22.0146 C   0  0  0  0  0  0  0  0  0  0  0  0
  -24.6233  -26.9724   18.7850 C   0  0  0  0  0  0  0  0  0  0  0  0
  -21.2303   -5.8924   22.2540 C   0  0  0  0  0  0  0  0  0  0  0  0
  -21.1649   -4.5025   22.1566 C   0  0  0  0  0  0  0  0  0  0  0  0
  -26.5258  -27.7568   20.0436 C   0  0  0  0  0  0  0  0  0  0  0  0
  -25.0311  -20.6913   19.3323 C   0  0  0  0  0  0  0  0  0  0  0  0
  -24.7200  -18.3031   19.5237 C   0  0  0  0  0  0  0  0  0  0  0  0
  -26.9155  -19.2637   19.8305 C   0  0  0  0  0  0  0  0  0  0  0  0
  -21.9724   -4.3054   24.4251 C   0  0  0  0  0  0  0  0  0  0  0  0
  -24.2013   -9.8753   20.8681 C   0  0  0  0  0  0  0  0  0  0  0  0
  -25.1686  -10.3553   18.5569 C   0  0  0  0  0  0  0  0  0  0  0  0
  -23.8195  -36.6875   19.4664 C   0  0  0  0  0  0  0  0  0  0  0  0
  -24.4202  -28.9420   20.1901 C   0  0  0  0  0  0  0  0  0  0  0  0
  -23.7293  -35.3772   18.9591 C   0  0  0  0  0  0  0  0  0  0  0  0
  -25.7619  -28.8072   20.5747 C   0  0  0  0  0  0  0  0  0  0  0  0
  -24.1956  -19.5751   19.2938 C   0  0  0  0  0  0  0  0  0  0  0  0
  -26.3911  -20.5356   19.6006 C   0  0  0  0  0  0  0  0  0  0  0  0
  -26.0799  -18.1474   19.7921 C   0  0  0  0  0  0  0  0  0  0  0  0
  -22.5409   -8.5267   22.6589 C   0  0  0  0  0  0  0  0  0  0  0  0
  -25.9597  -26.8456   19.1524 C   0  0  0  0  0  0  0  0  0  0  0  0
  -21.6669   -6.4888   23.4370 C   0  0  0  0  0  0  0  0  0  0  0  0
  -21.5360   -3.7090   23.2421 C   0  0  0  0  0  0  0  0  0  0  0  0
  -22.0379   -5.6954   24.5225 C   0  0  0  0  0  0  0  0  0  0  0  0
  -25.0586  -10.5726   19.9435 C   0  0  0  0  0  0  0  0  0  0  0  0
  -26.1093  -11.2653   18.1404 C   0  0  0  0  0  0  0  0  0  0  0  0
  -28.6330  -21.6839   19.8961 C   0  0  0  0  0  0  0  0  0  0  0  0
  -24.4817   -9.4151   17.7203 C   0  0  0  0  0  0  0  0  0  0  0  0
  -24.9162  -32.0812   20.1341 C   0  0  0  0  0  0  0  0  0  0  0  0
  -25.8732  -31.5915   23.1946 C   0  0  0  0  0  0  0  0  0  0  0  0
  -27.0910  -29.4309   25.5388 C   0  0  0  0  0  0  0  0  0  0  0  0
  -27.9388  -16.5261   20.3042 C   0  0  0  0  0  0  0  0  0  0  0  0
  -25.0601  -37.1838   20.1659 C   0  0  0  0  0  0  0  0  0  0  0  0
  -23.5709  -30.0437   20.7621 C   0  0  0  0  0  0  0  0  0  0  0  0
  -26.4108  -29.7658   21.5383 C   0  0  0  0  0  0  0  0  0  0  0  0
  -25.9774  -36.0627   20.6476 C   0  0  0  0  0  0  0  0  0  0  0  0
  -29.9556  -13.6549   19.6992 C   0  0  0  0  0  0  0  0  0  0  0  0
  -26.1735  -35.0237   19.5481 C   0  0  0  0  0  0  0  0  0  0  0  0
  -28.9383  -12.5199   19.5609 C   0  0  0  0  0  0  0  0  0  0  0  0
  -29.5303  -14.6720   20.7567 C   0  0  0  0  0  0  0  0  0  0  0  0
  -26.7363  -23.0250   19.4569 C   0  0  0  0  0  0  0  0  0  0  0  0
  -27.1589  -14.0794   20.4491 C   0  0  0  0  0  0  0  0  0  0  0  0
  -24.8408  -34.3705   19.1623 C   0  0  1  0  0  0  0  0  0  0  0  0
  -24.3884  -31.2331   21.2564 C   0  0  1  0  0  0  0  0  0  0  0  0
  -27.9789  -23.8580   19.1678 C   0  0  2  0  0  0  0  0  0  0  0  0
  -27.5119  -13.0642   19.3497 C   0  0  2  0  0  0  0  0  0  0  0  0
  -29.0796  -23.1463   19.9797 C   0  0  1  0  0  0  0  0  0  0  0  0
  -22.7416  -19.7419   19.0055 C   0  0  0  0  0  0  0  0  0  0  0  0
  -29.1258  -23.5449   21.4615 C   0  0  0  0  0  0  0  0  0  0  0  0
  -27.8073  -29.3303   27.9417 C   0  0  0  0  0  0  0  0  0  0  0  0
  -28.4773  -33.0097   22.4751 C   0  0  0  0  0  0  0  0  0  0  0  0
  -29.4903  -32.0562   24.5567 C   0  0  0  0  0  0  0  0  0  0  0  0
  -27.5466  -33.6115   24.7170 C   0  0  0  0  0  0  0  0  0  0  0  0
  -25.0174  -27.4232   26.1936 C   0  0  0  0  0  0  0  0  0  0  0  0
  -31.6389  -23.0812   17.3295 C   0  0  0  0  0  0  0  0  0  0  0  0
  -27.7705  -25.3361   19.4659 C   0  0  0  0  0  0  0  0  0  1  0  0
  -30.4592  -23.3338   19.3462 C   0  0  0  0  0  0  0  0  0  0  0  0
  -27.1846  -31.2590   23.8644 C   0  0  1  0  0  0  0  0  0  0  0  0
  -26.6572  -29.1424   26.9647 C   0  0  2  0  0  0  0  0  0  0  0  0
  -28.1633  -32.4670   23.8836 C   0  0  0  0  0  0  0  0  0  0  0  0
  -25.8651  -11.5442   20.3788 N   0  0  0  0  0  0  0  0  0  0  0  0
  -26.4909  -11.9455   19.2592 N   0  0  0  0  0  0  0  0  0  0  0  0
  -27.2460  -21.6786   19.6396 N   0  0  0  0  0  0  0  0  0  0  0  0
  -25.5405  -30.8300   22.0653 N   0  0  0  0  0  0  0  0  0  0  0  0
  -28.1708  -15.1467   20.4896 N   0  0  0  0  0  0  0  0  0  0  0  0
  -26.6390  -11.5419   16.9299 N   0  0  0  0  0  0  0  0  0  0  0  0
  -23.5470   -8.5537   18.3107 N   0  0  0  0  0  0  0  0  0  0  0  0
  -26.6129  -16.8552   20.0243 N   0  0  0  0  0  0  0  0  0  0  0  0
  -24.4568  -33.3844   20.1495 N   0  0  0  0  0  0  0  0  0  0  0  0
  -26.8481  -30.7416   25.1863 N   0  0  0  0  0  0  0  0  0  0  0  0
  -26.1645  -27.7409   27.0827 N   0  3  0  0  0  0  0  0  0  0  0  0
  -29.3904  -20.7434   20.0925 O   0  0  0  0  0  0  0  0  0  0  0  0
  -24.7027   -9.3299   16.4885 O   0  0  0  0  0  0  0  0  0  0  0  0
  -25.6847  -31.5901   19.3155 O   0  0  0  0  0  0  0  0  0  0  0  0
  -25.1666  -32.4889   23.6605 O   0  0  0  0  0  0  0  0  0  0  0  0
  -27.5983  -28.5796   24.8117 O   0  0  0  0  0  0  0  0  0  0  0  0
  -28.8540  -17.3514   20.3607 O   0  0  0  0  0  0  0  0  0  0  0  0
  -21.7305   -7.8689   23.5324 O   0  0  0  0  0  0  0  0  0  0  0  0
  -26.7120  -25.8307   18.6466 O   0  0  0  0  0  0  0  0  0  1  0  0
  -30.3867  -22.9351   17.9907 O   0  0  0  0  0  0  0  0  0  0  0  0
  -21.4716   -2.3743   23.1489 F   0  0  0  0  0  0  0  0  0  0  0  0
  -22.4569   -6.2627   25.6620 F   0  0  0  0  0  0  0  0  0  0  0  0
  1  2  1  0  0  0  0
  1  5  2  0  0  0  0
  2  6  2  0  0  0  0
  3  8  2  0  0  0  0
  3 18  1  0  0  0  0
  4  9  1  0  0  0  0
  4 18  2  0  0  0  0
  5 20  1  0  0  0  0
  6 22  1  0  0  0  0
  7 10  2  0  0  0  0
  7 21  1  0  0  0  0
  8 27  1  0  0  0  0
  9 27  2  0  0  0  0
 10 28  1  0  0  0  0
 11 12  2  0  0  0  0
 11 29  1  0  0  0  0
 12 30  1  0  0  0  0
 13 23  1  0  0  0  0
 13 28  2  0  0  0  0
 14 24  2  0  0  0  0
 14 25  1  0  0  0  0
 15 24  1  0  0  0  0
 15 26  2  0  0  0  0
 16 25  2  0  0  0  0
 16 26  1  0  0  0  0
 17 30  2  0  0  0  0
 17 31  1  0  0  0  0
 18 32  1  0  0  0  0
 19 32  1  0  0  0  0
 19 33  2  0  0  0  0
 19 35  1  0  0  0  0
 20 22  2  0  0  0  0
 20 40  1  0  0  0  0
 21 23  2  0  0  0  0
 21 41  1  0  0  0  0
 22 50  1  0  0  0  0
 23 42  1  0  0  0  0
 24 55  1  0  0  0  0
 25 70  1  0  0  0  0
 26 75  1  0  0  0  0
 27 85  1  0  0  0  0
 28 86  1  0  0  0  0
 29 31  2  0  0  0  0
 29 85  1  0  0  0  0
 30 88  1  0  0  0  0
 31 89  1  0  0  0  0
 32 68  2  0  0  0  0
 33 69  1  0  0  0  0
 33 73  1  0  0  0  0
 34 54  1  0  0  0  0
 34 70  1  0  0  0  0
 34 79  2  0  0  0  0
 35 74  1  0  0  0  0
 35 80  2  0  0  0  0
 36 51  1  0  0  0  0
 36 76  1  0  0  0  0
 36 81  2  0  0  0  0
 37 65  1  0  0  0  0
 37 71  1  0  0  0  0
 37 82  2  0  0  0  0
 38 66  1  0  0  0  0
 38 77  1  0  0  0  0
 38 83  2  0  0  0  0
 39 72  1  0  0  0  0
 39 75  1  0  0  0  0
 39 84  2  0  0  0  0
 40 43  1  0  0  0  0
 41 51  1  0  0  0  0
 42 71  1  0  0  0  0
 43 45  1  0  0  0  0
 44 46  1  0  0  0  0
 44 47  1  0  0  0  0
 45 50  1  0  0  0  0
 46 53  1  0  0  0  0
 47 72  1  0  0  0  0
 48 52  1  0  0  0  0
 48 70  1  0  0  0  0
 49 53  1  0  0  0  0
 49 72  1  0  0  0  0
 50 76  1  0  0  0  0
 51 71  1  0  0  0  0
 52 54  1  0  0  0  0
 52 63  1  0  0  0  0
 53 69  1  0  0  0  0
 54 56  1  0  0  0  0
 54 64  1  0  0  0  0
 57 66  1  0  0  0  0
 58 67  1  0  0  0  0
 59 67  1  0  0  0  0
 60 67  1  0  0  0  0
 61 78  1  0  0  0  0
 62 87  1  0  0  0  0
 63 86  1  0  0  0  0
 64 87  1  0  0  0  0
 65 67  1  0  0  0  0
 65 77  1  0  0  0  0
 66 78  1  0  0  0  0
 68 69  1  0  0  0  0
M  CHG  1  78   1
M  ISO  4  39 100  63 101  75 100  86 101
M  END
> <Batch ID>
0062

> <Smiles>
CNC(C)C(=O)NC(C(=O)N1Cc2cc([101O:1][101CH2:1]C3CN(c4cc(C)cc([100NH:0][100C:0](=O)N5CCCC(n6nc(-c7ccc(Oc8ccc(F)cc8F)cc7)c(C(N)=O)c6N)C5)c4)C(=O)C3(C)COC)ccc2CC1C(=O)NC1CCCc2ccccc21)C(C)(C)C

> <Shape>
0.292

> <Color>
0.098

> <Negative vol penalty>
0.000

$$$$

  -OEChem-04042323093D

 86 95  0     1  0  0  0  0  0999 V2000
  -34.7574  -28.7607   19.2940 C   0  0  0  0  0  0  0  0  0  0  0  0
  -33.7420  -28.5754   18.3612 C   0  0  0  0  0  0  0  0  0  0  0  0
  -21.9945  -25.8972   22.7305 C   0  0  0  0  0  0  0  0  0  0  0  0
  -29.1671  -16.7453   20.1897 C   0  0  0  0  0  0  0  0  0  0  0  0
  -26.8954  -16.9486   19.3926 C   0  0  0  0  0  0  0  0  0  0  0  0
  -34.5567  -28.3920   20.6236 C   0  0  0  0  0  0  0  0  0  0  0  0
  -32.5257  -28.0202   18.7573 C   0  0  0  0  0  0  0  0  0  0  0  0
  -25.5173  -28.3157   17.3044 C   0  0  0  0  0  0  0  0  0  0  0  0
  -21.0431  -25.4403   21.8186 C   0  0  0  0  0  0  0  0  0  0  0  0
  -23.0063  -25.0433   23.1697 C   0  0  0  0  0  0  0  0  0  0  0  0
  -29.0837  -15.3578   20.0736 C   0  0  0  0  0  0  0  0  0  0  0  0
  -26.8120  -15.5611   19.2765 C   0  0  0  0  0  0  0  0  0  0  0  0
  -24.4457  -27.4799   16.9931 C   0  0  0  0  0  0  0  0  0  0  0  0
  -26.3321  -12.9141   21.3244 C   0  0  0  0  0  0  0  0  0  0  0  0
  -25.1802  -12.2916   21.8052 C   0  0  0  0  0  0  0  0  0  0  0  0
  -24.1841  -26.9539   19.3328 C   0  0  0  0  0  0  0  0  0  0  0  0
  -24.7242  -11.4286   19.5951 C   0  0  0  0  0  0  0  0  0  0  0  0
  -28.0729  -17.5407   19.8492 C   0  0  0  0  0  0  0  0  0  0  0  0
  -28.5850  -19.8857   18.9853 C   0  0  0  0  0  0  0  0  0  0  0  0
  -33.3340  -27.8410   21.0381 C   0  0  0  0  0  0  0  0  0  0  0  0
  -25.9380  -28.4686   18.6334 C   0  0  0  0  0  0  0  0  0  0  0  0
  -32.3090  -27.6426   20.0933 C   0  0  0  0  0  0  0  0  0  0  0  0
  -25.2596  -27.7942   19.6586 C   0  0  0  0  0  0  0  0  0  0  0  0
  -22.1152  -23.2754   21.7850 C   0  0  0  0  0  0  0  0  0  0  0  0
  -21.1034  -24.1293   21.3459 C   0  0  0  0  0  0  0  0  0  0  0  0
  -23.0666  -23.7324   22.6970 C   0  0  0  0  0  0  0  0  0  0  0  0
  -27.9062  -14.7657   19.6170 C   0  0  0  0  0  0  0  0  0  0  0  0
  -23.7807  -26.7966   18.0070 C   0  0  0  0  0  0  0  0  0  0  0  0
  -26.6801  -12.7939   19.9790 C   0  0  0  0  0  0  0  0  0  0  0  0
  -24.3762  -11.5489   20.9406 C   0  0  0  0  0  0  0  0  0  0  0  0
  -25.8762  -12.0511   19.1144 C   0  0  0  0  0  0  0  0  0  0  0  0
  -28.1583  -18.9740   19.9694 C   0  0  0  0  0  0  0  0  0  0  0  0
  -28.4824  -21.1153   19.5887 C   0  0  0  0  0  0  0  0  0  0  0  0
  -20.1638  -23.7437   19.0240 C   0  0  0  0  0  0  0  0  0  0  0  0
  -18.9223  -23.0575   20.8378 C   0  0  0  0  0  0  0  0  0  0  0  0
  -20.9793  -24.4807   18.2593 C   0  0  0  0  0  0  0  0  0  0  0  0
  -29.0339  -19.6429   17.6454 C   0  0  0  0  0  0  0  0  0  0  0  0
  -28.6224  -27.8549   20.2212 C   0  0  0  0  0  0  0  0  0  0  0  0
  -27.0714  -29.3524   22.6449 C   0  0  0  0  0  0  0  0  0  0  0  0
  -24.1027  -30.2812   24.0488 C   0  0  0  0  0  0  0  0  0  0  0  0
  -25.1144  -23.1982   24.0634 C   0  0  0  0  0  0  0  0  0  0  0  0
  -33.1805  -27.4141   22.4764 C   0  0  0  0  0  0  0  0  0  0  0  0
  -27.0786  -29.3947   18.9555 C   0  0  0  0  0  0  0  0  0  0  0  0
  -25.6591  -27.9399   21.1035 C   0  0  0  0  0  0  0  0  0  0  0  0
  -19.0492  -22.9227   18.4530 C   0  0  0  0  0  0  0  0  0  0  0  0
  -18.0771  -22.8105   19.6123 C   0  0  0  0  0  0  0  0  0  0  0  0
  -31.7302  -27.1789   22.8906 C   0  0  0  0  0  0  0  0  0  0  0  0
  -28.6710  -23.2003   23.8958 C   0  0  0  0  0  0  0  0  0  0  0  0
  -31.0041  -26.3433   21.8412 C   0  0  0  0  0  0  0  0  0  0  0  0
  -28.9818  -22.2043   22.7762 C   0  0  0  0  0  0  0  0  0  0  0  0
  -27.4683  -22.7603   24.7287 C   0  0  0  0  0  0  0  0  0  0  0  0
  -26.5660  -21.4644   22.8377 C   0  0  0  0  0  0  0  0  0  0  0  0
  -30.9669  -27.0663   20.4894 C   0  0  1  0  0  0  0  0  0  0  0  0
  -27.7490  -29.0758   20.2882 C   0  0  1  0  0  0  0  0  0  0  0  0
  -27.7297  -21.8976   21.9312 C   0  0  2  0  0  0  0  0  0  0  0  0
  -22.1794  -21.8676   21.2782 C   0  0  0  0  0  0  0  0  0  0  0  0
  -23.1537  -31.4618   26.0496 C   0  0  0  0  0  0  0  0  0  0  0  0
  -27.6483  -26.8982   24.3636 C   0  0  0  0  0  0  0  0  0  0  0  0
  -25.9086  -27.7032   25.9740 C   0  0  0  0  0  0  0  0  0  0  0  0
  -27.9384  -29.0865   25.5390 C   0  0  0  0  0  0  0  0  0  0  0  0
  -22.8278  -32.3550   22.3656 C   0  0  0  0  0  0  0  0  0  0  0  0
  -22.0992  -25.3103   18.7940 C   0  0  0  0  0  0  0  0  0  1  0  0
  -26.1517  -28.9132   23.7586 C   0  0  1  0  0  0  0  0  0  0  0  0
  -23.6260  -31.6081   24.6114 C   0  0  2  0  0  0  0  0  0  0  0  0
  -26.9052  -28.1458   24.8814 C   0  0  0  0  0  0  0  0  0  0  0  0
  -27.8107  -19.5732   21.1114 N   0  0  0  0  0  0  0  0  0  0  0  0
  -28.0189  -20.8746   20.8486 N   0  0  0  0  0  0  0  0  0  0  0  0
  -20.1151  -23.6814   20.4111 N   0  0  0  0  0  0  0  0  0  0  0  0
  -26.7844  -28.8520   21.3670 N   0  0  0  0  0  0  0  0  0  0  0  0
  -26.3189  -22.4915   23.8618 N   0  0  0  0  0  0  0  0  0  0  0  0
  -28.7444  -22.3680   19.1592 N   0  0  0  0  0  0  0  0  0  0  0  0
  -29.0778  -18.3199   17.1850 N   0  0  0  0  0  0  0  0  0  0  0  0
  -24.1020  -22.8821   23.1581 N   0  0  0  0  0  0  0  0  0  0  0  0
  -29.9541  -28.1000   20.4967 N   0  0  0  0  0  0  0  0  0  0  0  0
  -25.4612  -30.1144   24.2154 N   0  0  0  0  0  0  0  0  0  0  0  0
  -22.4964  -32.1400   23.7977 N   0  3  0  0  0  0  0  0  0  0  0  0
  -18.5595  -22.7550   21.9664 O   0  0  0  0  0  0  0  0  0  0  0  0
  -29.4012  -20.5702   16.8847 O   0  0  0  0  0  0  0  0  0  0  0  0
  -28.1246  -26.7706   19.9416 O   0  0  0  0  0  0  0  0  0  0  0  0
  -28.0055  -30.1172   22.8981 O   0  0  0  0  0  0  0  0  0  0  0  0
  -23.3450  -29.4720   23.5181 O   0  0  0  0  0  0  0  0  0  0  0  0
  -24.9990  -24.0427   24.9553 O   0  0  0  0  0  0  0  0  0  0  0  0
  -27.8245  -13.4118   19.5034 O   0  0  0  0  0  0  0  0  0  0  0  0
  -22.7349  -25.9797   17.7058 O   0  0  0  0  0  0  0  0  0  1  0  0
  -23.2709  -10.9499   21.4027 F   0  0  0  0  0  0  0  0  0  0  0  0
  -26.2060  -11.9310   17.8211 F   0  0  0  0  0  0  0  0  0  0  0  0
  1  2  1  0  0  0  0
  1  6  2  0  0  0  0
  2  7  2  0  0  0  0
  3  9  2  0  0  0  0
  3 10  1  0  0  0  0
  4 11  2  0  0  0  0
  4 18  1  0  0  0  0
  5 12  1  0  0  0  0
  5 18  2  0  0  0  0
  6 20  1  0  0  0  0
  7 22  1  0  0  0  0
  8 13  2  0  0  0  0
  8 21  1  0  0  0  0
  9 25  1  0  0  0  0
 10 26  2  0  0  0  0
 11 27  1  0  0  0  0
 12 27  2  0  0  0  0
 13 28  1  0  0  0  0
 14 15  2  0  0  0  0
 14 29  1  0  0  0  0
 15 30  1  0  0  0  0
 16 23  1  0  0  0  0
 16 28  2  0  0  0  0
 17 30  2  0  0  0  0
 17 31  1  0  0  0  0
 18 32  1  0  0  0  0
 19 32  1  0  0  0  0
 19 33  2  0  0  0  0
 19 37  1  0  0  0  0
 20 22  2  0  0  0  0
 20 42  1  0  0  0  0
 21 23  2  0  0  0  0
 21 43  1  0  0  0  0
 22 53  1  0  0  0  0
 23 44  1  0  0  0  0
 24 25  2  0  0  0  0
 24 26  1  0  0  0  0
 24 56  1  0  0  0  0
 25 68  1  0  0  0  0
 26 73  1  0  0  0  0
 27 83  1  0  0  0  0
 28 84  1  0  0  0  0
 29 31  2  0  0  0  0
 29 83  1  0  0  0  0
 30 85  1  0  0  0  0
 31 86  1  0  0  0  0
 32 66  2  0  0  0  0
 33 67  1  0  0  0  0
 33 71  1  0  0  0  0
 34 36  2  0  0  0  0
 34 45  1  0  0  0  0
 34 68  1  0  0  0  0
 35 46  1  0  0  0  0
 35 68  1  0  0  0  0
 35 77  2  0  0  0  0
 36 62  1  0  0  0  0
 37 72  1  0  0  0  0
 37 78  2  0  0  0  0
 38 54  1  0  0  0  0
 38 74  1  0  0  0  0
 38 79  2  0  0  0  0
 39 63  1  0  0  0  0
 39 69  1  0  0  0  0
 39 80  2  0  0  0  0
 40 64  1  0  0  0  0
 40 75  1  0  0  0  0
 40 81  2  0  0  0  0
 41 70  1  0  0  0  0
 41 73  1  0  0  0  0
 41 82  2  0  0  0  0
 42 47  1  0  0  0  0
 43 54  1  0  0  0  0
 44 69  1  0  0  0  0
 45 46  1  0  0  0  0
 47 49  1  0  0  0  0
 48 50  1  0  0  0  0
 48 51  1  0  0  0  0
 49 53  1  0  0  0  0
 50 55  1  0  0  0  0
 51 70  1  0  0  0  0
 52 55  1  0  0  0  0
 52 70  1  0  0  0  0
 53 74  1  0  0  0  0
 54 69  1  0  0  0  0
 55 67  1  0  0  0  0
 57 64  1  0  0  0  0
 58 65  1  0  0  0  0
 59 65  1  0  0  0  0
 60 65  1  0  0  0  0
 61 76  1  0  0  0  0
 62 84  1  0  0  0  0
 63 65  1  0  0  0  0
 63 75  1  0  0  0  0
 64 76  1  0  0  0  0
 66 67  1  0  0  0  0
M  CHG  1  76   1
M  ISO  4  41 100  62 101  73 100  84 101
M  END
> <Batch ID>
0062

> <Smiles>
CNC(C)C(=O)NC(C(=O)N1Cc2cc([101O:1][101CH2:1]C=C3CCC(=O)N3c3cccc([100NH:0][100C:0](=O)N4CCCC(n5nc(-c6ccc(Oc7ccc(F)cc7F)cc6)c(C(N)=O)c5N)C4)c3C)ccc2CC1C(=O)NC1CCCc2ccccc21)C(C)(C)C

> <Shape>
0.194

> <Color>
0.069

> <Negative vol penalty>
0.000

$$$$

  -OEChem-04042323093D

 84 92  0     1  0  0  0  0  0999 V2000
  -17.0969  -30.8921   24.4060 C   0  0  0  0  0  0  0  0  0  0  0  0
  -18.2033  -30.4603   25.1303 C   0  0  0  0  0  0  0  0  0  0  0  0
  -33.2226  -27.5919   23.3078 C   0  0  0  0  0  0  0  0  0  0  0  0
  -28.8692  -17.2819   21.9737 C   0  0  0  0  0  0  0  0  0  0  0  0
  -29.4000  -17.1496   19.6205 C   0  0  0  0  0  0  0  0  0  0  0  0
  -33.1780  -27.1572   24.6324 C   0  0  0  0  0  0  0  0  0  0  0  0
  -16.8981  -30.4384   23.1026 C   0  0  0  0  0  0  0  0  0  0  0  0
  -19.1111  -29.5738   24.5521 C   0  0  0  0  0  0  0  0  0  0  0  0
  -25.1681  -29.4056   25.4412 C   0  0  0  0  0  0  0  0  0  0  0  0
  -32.7137  -26.7839   22.2910 C   0  0  0  0  0  0  0  0  0  0  0  0
  -29.3396  -15.9811   22.1530 C   0  0  0  0  0  0  0  0  0  0  0  0
  -29.8705  -15.8488   19.7997 C   0  0  0  0  0  0  0  0  0  0  0  0
  -25.9744  -28.6165   26.2603 C   0  0  0  0  0  0  0  0  0  0  0  0
  -28.5607  -12.7502   20.1375 C   0  0  0  0  0  0  0  0  0  0  0  0
  -28.1703  -11.7861   19.2082 C   0  0  0  0  0  0  0  0  0  0  0  0
  -32.1157  -25.1063   23.9235 C   0  0  0  0  0  0  0  0  0  0  0  0
  -26.3881  -27.1273   24.4082 C   0  0  0  0  0  0  0  0  0  0  0  0
  -30.4858  -11.3980   18.6381 C   0  0  0  0  0  0  0  0  0  0  0  0
  -28.8993  -17.8662   20.7074 C   0  0  0  0  0  0  0  0  0  0  0  0
  -32.6246  -25.9144   24.9403 C   0  0  0  0  0  0  0  0  0  0  0  0
  -27.1131  -19.6862   20.7770 C   0  0  0  0  0  0  0  0  0  0  0  0
  -17.8091  -29.5534   22.5048 C   0  0  0  0  0  0  0  0  0  0  0  0
  -24.9567  -29.0550   24.1001 C   0  0  0  0  0  0  0  0  0  0  0  0
  -18.9236  -29.1068   23.2401 C   0  0  0  0  0  0  0  0  0  0  0  0
  -25.5808  -27.9151   23.5735 C   0  0  0  0  0  0  0  0  0  0  0  0
  -32.1603  -25.5410   22.5989 C   0  0  0  0  0  0  0  0  0  0  0  0
  -29.8403  -15.2646   21.0660 C   0  0  0  0  0  0  0  0  0  0  0  0
  -26.5822  -27.4755   25.7446 C   0  0  0  0  0  0  0  0  0  0  0  0
  -29.9136  -13.0384   20.3171 C   0  0  0  0  0  0  0  0  0  0  0  0
  -29.1328  -11.1099   18.4586 C   0  0  0  0  0  0  0  0  0  0  0  0
  -30.8762  -12.3622   19.5674 C   0  0  0  0  0  0  0  0  0  0  0  0
  -28.4129  -19.2097   20.5215 C   0  0  0  0  0  0  0  0  0  0  0  0
  -27.1632  -21.0171   20.4413 C   0  0  0  0  0  0  0  0  0  0  0  0
  -25.9633  -18.9882   21.2734 C   0  0  0  0  0  0  0  0  0  0  0  0
  -32.5782  -25.4574   26.3369 C   0  0  0  0  0  0  0  0  0  0  0  0
  -22.4141  -28.2730   22.3601 C   0  0  0  0  0  0  0  0  0  0  0  0
  -24.5468  -28.3524   19.9172 C   0  0  0  0  0  0  0  0  0  0  0  0
  -30.2928  -26.5001   26.7454 C   0  0  0  0  0  0  0  0  0  0  0  0
  -27.7961  -28.1219   18.8993 C   0  0  0  0  0  0  0  0  0  0  0  0
  -31.6094  -25.0019   20.2006 C   0  0  0  0  0  0  0  0  0  0  0  0
  -17.5268  -29.0536   21.1101 C   0  0  0  0  0  0  0  0  0  0  0  0
  -24.1057  -29.9315   23.2225 C   0  0  0  0  0  0  0  0  0  0  0  0
  -25.4021  -27.5063   22.1349 C   0  0  0  0  0  0  0  0  0  0  0  0
  -18.7358  -28.4079   20.4381 C   0  0  0  0  0  0  0  0  0  0  0  0
  -29.4450  -24.0626   17.5340 C   0  0  0  0  0  0  0  0  0  0  0  0
  -19.4225  -27.4372   21.3936 C   0  0  0  0  0  0  0  0  0  0  0  0
  -28.8119  -22.7581   18.0234 C   0  0  0  0  0  0  0  0  0  0  0  0
  -30.9064  -24.1797   17.9634 C   0  0  0  0  0  0  0  0  0  0  0  0
  -30.5143  -22.6954   19.8901 C   0  0  0  0  0  0  0  0  0  0  0  0
  -19.9440  -28.1648   22.6387 C   0  0  1  0  0  0  0  0  0  0  0  0
  -23.5454  -29.1972   22.0084 C   0  0  1  0  0  0  0  0  0  0  0  0
  -29.0239  -22.5620   19.5373 C   0  0  2  0  0  0  0  0  0  0  0  0
  -29.7587  -28.2087   17.3380 C   0  0  0  0  0  0  0  0  0  0  0  0
  -23.6342  -25.5320   19.1943 C   0  0  0  0  0  0  0  0  0  0  0  0
  -25.6928  -25.3013   17.7882 C   0  0  0  0  0  0  0  0  0  0  0  0
  -23.9966  -27.0452   17.2364 C   0  0  0  0  0  0  0  0  0  0  0  0
  -28.2201  -31.0066   19.4069 C   0  0  0  0  0  0  0  0  0  0  0  0
  -29.3354  -26.5906   27.9254 C   0  0  0  0  0  0  0  0  0  0  0  0
  -28.0645  -27.3604   27.6008 C   0  0  0  0  0  0  0  0  0  1  0  0
  -25.4685  -27.3474   19.2697 C   0  0  1  0  0  0  0  0  0  0  0  0
  -28.6281  -28.9976   17.9799 C   0  0  2  0  0  0  0  0  0  0  0  0
  -24.7000  -26.3128   18.3998 C   0  0  0  0  0  0  0  0  0  0  0  0
  -29.2291  -20.1605   20.0591 N   0  0  0  0  0  0  0  0  0  0  0  0
  -28.4401  -21.2478   20.0212 N   0  0  0  0  0  0  0  0  0  0  0  0
  -24.5557  -28.3923   21.3187 N   0  0  0  0  0  0  0  0  0  0  0  0
  -31.0296  -23.9872   19.4100 N   0  0  0  0  0  0  0  0  0  0  0  0
  -26.2391  -22.0008   20.4674 N   0  0  0  0  0  0  0  0  0  0  0  0
  -25.0985  -18.3842   20.3506 N   0  0  0  0  0  0  0  0  0  0  0  0
  -31.6432  -24.7205   21.5659 N   0  0  0  0  0  0  0  0  0  0  0  0
  -31.4506  -25.7794   27.0973 N   0  0  0  0  0  0  0  0  0  0  0  0
  -21.1693  -28.8723   22.3345 N   0  0  0  0  0  0  0  0  0  0  0  0
  -26.4656  -28.1206   18.5372 N   0  0  0  0  0  0  0  0  0  0  0  0
  -29.2209  -30.1327   18.7423 N   0  3  0  0  0  0  0  0  0  0  0  0
  -25.7014  -18.9167   22.4981 O   0  0  0  0  0  0  0  0  0  0  0  0
  -22.6528  -27.1024   22.6329 O   0  0  0  0  0  0  0  0  0  0  0  0
  -23.8501  -29.0803   19.2056 O   0  0  0  0  0  0  0  0  0  0  0  0
  -30.0540  -27.0005   25.6510 O   0  0  0  0  0  0  0  0  0  0  0  0
  -28.2787  -27.4983   19.8420 O   0  0  0  0  0  0  0  0  0  0  0  0
  -32.0192  -26.0553   19.7062 O   0  0  0  0  0  0  0  0  0  0  0  0
  -30.2997  -13.9953   21.2406 O   0  0  0  0  0  0  0  0  0  0  0  0
  -27.3691  -26.7031   26.5421 O   0  0  0  0  0  0  0  0  0  1  0  0
  -28.7578  -10.1830   17.5673 F   0  0  0  0  0  0  0  0  0  0  0  0
  -32.1775  -12.6338   19.7363 F   0  0  0  0  0  0  0  0  0  0  0  0
  -33.8357  -24.5709   27.0111 S   0  0  0  0  0  0  0  0  0  0  0  0
  1  2  1  0  0  0  0
  1  7  2  0  0  0  0
  2  8  2  0  0  0  0
  3  6  2  0  0  0  0
  3 10  1  0  0  0  0
  4 11  2  0  0  0  0
  4 19  1  0  0  0  0
  5 12  1  0  0  0  0
  5 19  2  0  0  0  0
  6 20  1  0  0  0  0
  7 22  1  0  0  0  0
  8 24  1  0  0  0  0
  9 13  2  0  0  0  0
  9 23  1  0  0  0  0
 10 26  2  0  0  0  0
 11 27  1  0  0  0  0
 12 27  2  0  0  0  0
 13 28  1  0  0  0  0
 14 15  2  0  0  0  0
 14 29  1  0  0  0  0
 15 30  1  0  0  0  0
 16 20  2  0  0  0  0
 16 26  1  0  0  0  0
 17 25  1  0  0  0  0
 17 28  2  0  0  0  0
 18 30  2  0  0  0  0
 18 31  1  0  0  0  0
 19 32  1  0  0  0  0
 20 35  1  0  0  0  0
 21 32  1  0  0  0  0
 21 33  2  0  0  0  0
 21 34  1  0  0  0  0
 22 24  2  0  0  0  0
 22 41  1  0  0  0  0
 23 25  2  0  0  0  0
 23 42  1  0  0  0  0
 24 50  1  0  0  0  0
 25 43  1  0  0  0  0
 26 69  1  0  0  0  0
 27 80  1  0  0  0  0
 28 81  1  0  0  0  0
 29 31  2  0  0  0  0
 29 80  1  0  0  0  0
 30 82  1  0  0  0  0
 31 83  1  0  0  0  0
 32 63  2  0  0  0  0
 33 64  1  0  0  0  0
 33 67  1  0  0  0  0
 34 68  1  0  0  0  0
 34 74  2  0  0  0  0
 35 70  1  0  0  0  0
 35 84  2  0  0  0  0
 36 51  1  0  0  0  0
 36 71  1  0  0  0  0
 36 75  2  0  0  0  0
 37 60  1  0  0  0  0
 37 65  1  0  0  0  0
 37 76  2  0  0  0  0
 38 58  1  0  0  0  0
 38 70  1  0  0  0  0
 38 77  2  0  0  0  0
 39 61  1  0  0  0  0
 39 72  1  0  0  0  0
 39 78  2  0  0  0  0
 40 66  1  0  0  0  0
 40 69  1  0  0  0  0
 40 79  2  0  0  0  0
 41 44  1  0  0  0  0
 42 51  1  0  0  0  0
 43 65  1  0  0  0  0
 44 46  1  0  0  0  0
 45 47  1  0  0  0  0
 45 48  1  0  0  0  0
 46 50  1  0  0  0  0
 47 52  1  0  0  0  0
 48 66  1  0  0  0  0
 49 52  1  0  0  0  0
 49 66  1  0  0  0  0
 50 71  1  0  0  0  0
 51 65  1  0  0  0  0
 52 64  1  0  0  0  0
 53 61  1  0  0  0  0
 54 62  1  0  0  0  0
 55 62  1  0  0  0  0
 56 62  1  0  0  0  0
 57 73  1  0  0  0  0
 58 59  1  0  0  0  0
 59 81  1  0  0  0  0
 60 62  1  0  0  0  0
 60 72  1  0  0  0  0
 61 73  1  0  0  0  0
 63 64  1  0  0  0  0
M  CHG  1  73   1
M  ISO  4  40 100  59 101  69 100  81 101
M  END
> <Batch ID>
0062

> <Smiles>
CNC(C)C(=O)NC(C(=O)N1Cc2cc([101O:1][101CH2:1]CC(=O)NC(=S)c3cccc([100NH:0][100C:0](=O)N4CCCC(n5nc(-c6ccc(Oc7ccc(F)cc7F)cc6)c(C(N)=O)c5N)C4)c3)ccc2CC1C(=O)NC1CCCc2ccccc21)C(C)(C)C

> <Shape>
0.250

> <Color>
0.067

> <Negative vol penalty>
0.000

$$$$

  -OEChem-04042323093D

 86 94  0     1  0  0  0  0  0999 V2000
  -18.4423  -17.1746   22.6597 C   0  0  0  0  0  0  0  0  0  0  0  0
  -19.6777  -17.7306   22.9758 C   0  0  0  0  0  0  0  0  0  0  0  0
  -23.0779   -9.8646   19.9424 C   0  0  0  0  0  0  0  0  0  0  0  0
  -23.8323   -9.8788   22.2375 C   0  0  0  0  0  0  0  0  0  0  0  0
  -17.3710  -18.0026   22.3270 C   0  0  0  0  0  0  0  0  0  0  0  0
  -19.8428  -19.1151   22.9583 C   0  0  0  0  0  0  0  0  0  0  0  0
  -22.3766  -20.8205   26.9977 C   0  0  0  0  0  0  0  0  0  0  0  0
  -22.3337   -8.7120   20.1942 C   0  0  0  0  0  0  0  0  0  0  0  0
  -23.0882   -8.7263   22.4893 C   0  0  0  0  0  0  0  0  0  0  0  0
  -23.7618  -20.6625   26.9938 C   0  0  0  0  0  0  0  0  0  0  0  0
  -19.8588   -7.9294   23.0867 C   0  0  0  0  0  0  0  0  0  0  0  0
  -19.0991   -7.8929   24.2559 C   0  0  0  0  0  0  0  0  0  0  0  0
  -24.0166  -22.9657   26.3235 C   0  0  0  0  0  0  0  0  0  0  0  0
  -31.8412  -18.3705   24.1993 C   0  0  0  0  0  0  0  0  0  0  0  0
  -32.0570  -16.6168   22.5516 C   0  0  0  0  0  0  0  0  0  0  0  0
  -29.8710  -17.4652   23.1335 C   0  0  0  0  0  0  0  0  0  0  0  0
  -20.3393   -5.9580   25.0013 C   0  0  0  0  0  0  0  0  0  0  0  0
  -23.8272  -10.4480   20.9641 C   0  0  0  0  0  0  0  0  0  0  0  0
  -24.1687  -12.9729   20.8371 C   0  0  0  0  0  0  0  0  0  0  0  0
  -17.5205  -19.3983   22.3148 C   0  0  0  0  0  0  0  0  0  0  0  0
  -21.7996  -22.0514   26.6534 C   0  0  0  0  0  0  0  0  0  0  0  0
  -18.7729  -19.9626   22.6239 C   0  0  0  0  0  0  0  0  0  0  0  0
  -22.6239  -23.1375   26.3263 C   0  0  0  0  0  0  0  0  0  0  0  0
  -32.6418  -17.5031   23.4561 C   0  0  0  0  0  0  0  0  0  0  0  0
  -30.4558  -18.3515   24.0380 C   0  0  0  0  0  0  0  0  0  0  0  0
  -30.6716  -16.5978   22.3903 C   0  0  0  0  0  0  0  0  0  0  0  0
  -22.3388   -8.1428   21.4676 C   0  0  0  0  0  0  0  0  0  0  0  0
  -24.5819  -21.7344   26.6538 C   0  0  0  0  0  0  0  0  0  0  0  0
  -20.8587   -6.9802   22.8747 C   0  0  0  0  0  0  0  0  0  0  0  0
  -19.3394   -6.9072   25.2132 C   0  0  0  0  0  0  0  0  0  0  0  0
  -21.0990   -5.9946   23.8320 C   0  0  0  0  0  0  0  0  0  0  0  0
  -24.5966  -11.6383   20.7045 C   0  0  0  0  0  0  0  0  0  0  0  0
  -25.2615  -13.7215   20.4741 C   0  0  0  0  0  0  0  0  0  0  0  0
  -27.7811  -20.3903   25.7039 C   0  0  0  0  0  0  0  0  0  0  0  0
  -26.4733  -20.6456   25.8124 C   0  0  0  0  0  0  0  0  0  1  0  0
  -22.8971  -13.4896   21.2514 C   0  0  0  0  0  0  0  0  0  0  0  0
  -28.2595  -19.3425   24.7555 C   0  0  0  0  0  0  0  0  0  0  0  0
  -19.8434  -23.0468   24.3543 C   0  0  0  0  0  0  0  0  0  0  0  0
  -19.9164  -25.8228   26.0308 C   0  0  0  0  0  0  0  0  0  0  0  0
  -21.5726  -27.8326   28.2364 C   0  0  0  0  0  0  0  0  0  0  0  0
  -30.7269  -14.7692   20.6584 C   0  0  0  0  0  0  0  0  0  0  0  0
  -16.3463  -20.2506   21.9028 C   0  0  0  0  0  0  0  0  0  0  0  0
  -20.3046  -22.2131   26.6884 C   0  0  0  0  0  0  0  0  0  0  0  0
  -22.0549  -24.4854   25.9687 C   0  0  0  0  0  0  0  0  0  0  0  0
  -16.5034  -21.7234   22.2723 C   0  0  0  0  0  0  0  0  0  0  0  0
  -29.6188  -12.3477   18.2950 C   0  0  0  0  0  0  0  0  0  0  0  0
  -17.8907  -22.2258   21.8854 C   0  0  0  0  0  0  0  0  0  0  0  0
  -28.1782  -12.0571   18.7221 C   0  0  0  0  0  0  0  0  0  0  0  0
  -30.5310  -12.5805   19.4981 C   0  0  0  0  0  0  0  0  0  0  0  0
  -28.6206  -13.3087   20.8726 C   0  0  0  0  0  0  0  0  0  0  0  0
  -18.9848  -21.4609   22.6401 C   0  0  1  0  0  0  0  0  0  0  0  0
  -19.8079  -23.3664   25.8221 C   0  0  1  0  0  0  0  0  0  0  0  0
  -27.6506  -13.1315   19.6931 C   0  0  2  0  0  0  0  0  0  0  0  0
  -21.4018  -30.0567   29.3861 C   0  0  0  0  0  0  0  0  0  0  0  0
  -20.7167  -27.2210   23.4396 C   0  0  0  0  0  0  0  0  0  0  0  0
  -21.4432  -29.1883   24.8072 C   0  0  0  0  0  0  0  0  0  0  0  0
  -19.0543  -28.4704   24.8287 C   0  0  0  0  0  0  0  0  0  0  0  0
  -21.5503  -26.5762   30.9159 C   0  0  0  0  0  0  0  0  0  0  0  0
  -20.7835  -27.0585   26.0155 C   0  0  1  0  0  0  0  0  0  0  0  0
  -21.1019  -28.5686   29.4778 C   0  0  2  0  0  0  0  0  0  0  0  0
  -34.1231  -17.5229   23.6299 C   0  0  0  0  0  0  0  0  0  0  0  0
  -20.5104  -27.9587   24.7776 C   0  0  0  0  0  0  0  0  0  0  0  0
  -25.8625  -11.5415   20.2895 N   0  0  0  0  0  0  0  0  0  0  0  0
  -26.2393  -12.8248   20.1581 N   0  0  0  0  0  0  0  0  0  0  0  0
  -20.5871  -24.5917   26.0112 N   0  0  0  0  0  0  0  0  0  0  0  0
  -29.9697  -13.6139   20.3710 N   0  0  0  0  0  0  0  0  0  0  0  0
  -25.4717  -15.0528   20.3975 N   0  0  0  0  0  0  0  0  0  0  0  0
  -21.8846  -12.5812   21.5891 N   0  0  0  0  0  0  0  0  0  0  0  0
  -29.6432  -19.2325   24.7932 N   0  0  0  0  0  0  0  0  0  0  0  0
  -30.0774  -15.6965   21.4725 N   0  0  0  0  0  0  0  0  0  0  0  0
  -19.0915  -21.9427   24.0006 N   0  0  0  0  0  0  0  0  0  0  0  0
  -20.5697  -27.7231   27.2965 N   0  0  0  0  0  0  0  0  0  0  0  0
  -21.7793  -28.0265   30.6895 N   0  3  0  0  0  0  0  0  0  0  0  0
  -22.6603  -14.7203   21.3044 O   0  0  0  0  0  0  0  0  0  0  0  0
  -27.4736  -18.7032   24.0661 O   0  0  0  0  0  0  0  0  0  0  0  0
  -20.5028  -23.7508   23.5984 O   0  0  0  0  0  0  0  0  0  0  0  0
  -18.6895  -25.9454   26.0664 O   0  0  0  0  0  0  0  0  0  0  0  0
  -22.7167  -27.4015   28.1113 O   0  0  0  0  0  0  0  0  0  0  0  0
  -31.8571  -14.9368   20.1930 O   0  0  0  0  0  0  0  0  0  0  0  0
  -21.6126   -7.0183   21.7137 O   0  0  0  0  0  0  0  0  0  0  0  0
  -25.9343  -21.5826   26.6485 O   0  0  0  0  0  0  0  0  0  1  0  0
  -18.6108   -6.8732   26.3367 F   0  0  0  0  0  0  0  0  0  0  0  0
  -22.0590   -5.0807   23.6344 F   0  0  0  0  0  0  0  0  0  0  0  0
  -34.5544  -18.4381   24.5475 F   0  0  0  0  0  0  0  0  0  0  0  0
  -34.6404  -16.3296   24.0468 F   0  0  0  0  0  0  0  0  0  0  0  0
  -34.7832  -17.8244   22.4740 F   0  0  0  0  0  0  0  0  0  0  0  0
  1  2  1  0  0  0  0
  1  5  2  0  0  0  0
  2  6  2  0  0  0  0
  3  8  2  0  0  0  0
  3 18  1  0  0  0  0
  4  9  1  0  0  0  0
  4 18  2  0  0  0  0
  5 20  1  0  0  0  0
  6 22  1  0  0  0  0
  7 10  2  0  0  0  0
  7 21  1  0  0  0  0
  8 27  1  0  0  0  0
  9 27  2  0  0  0  0
 10 28  1  0  0  0  0
 11 12  2  0  0  0  0
 11 29  1  0  0  0  0
 12 30  1  0  0  0  0
 13 23  1  0  0  0  0
 13 28  2  0  0  0  0
 14 24  1  0  0  0  0
 14 25  2  0  0  0  0
 15 24  2  0  0  0  0
 15 26  1  0  0  0  0
 16 25  1  0  0  0  0
 16 26  2  0  0  0  0
 17 30  2  0  0  0  0
 17 31  1  0  0  0  0
 18 32  1  0  0  0  0
 19 32  1  0  0  0  0
 19 33  2  0  0  0  0
 19 36  1  0  0  0  0
 20 22  2  0  0  0  0
 20 42  1  0  0  0  0
 21 23  2  0  0  0  0
 21 43  1  0  0  0  0
 22 51  1  0  0  0  0
 23 44  1  0  0  0  0
 24 61  1  0  0  0  0
 25 69  1  0  0  0  0
 26 70  1  0  0  0  0
 27 80  1  0  0  0  0
 28 81  1  0  0  0  0
 29 31  2  0  0  0  0
 29 80  1  0  0  0  0
 30 82  1  0  0  0  0
 31 83  1  0  0  0  0
 32 63  2  0  0  0  0
 33 64  1  0  0  0  0
 33 67  1  0  0  0  0
 34 35  2  0  0  0  0
 34 37  1  0  0  0  0
 35 81  1  0  0  0  0
 36 68  1  0  0  0  0
 36 74  2  0  0  0  0
 37 69  1  0  0  0  0
 37 75  2  0  0  0  0
 38 52  1  0  0  0  0
 38 71  1  0  0  0  0
 38 76  2  0  0  0  0
 39 59  1  0  0  0  0
 39 65  1  0  0  0  0
 39 77  2  0  0  0  0
 40 60  1  0  0  0  0
 40 72  1  0  0  0  0
 40 78  2  0  0  0  0
 41 66  1  0  0  0  0
 41 70  1  0  0  0  0
 41 79  2  0  0  0  0
 42 45  1  0  0  0  0
 43 52  1  0  0  0  0
 44 65  1  0  0  0  0
 45 47  1  0  0  0  0
 46 48  1  0  0  0  0
 46 49  1  0  0  0  0
 47 51  1  0  0  0  0
 48 53  1  0  0  0  0
 49 66  1  0  0  0  0
 50 53  1  0  0  0  0
 50 66  1  0  0  0  0
 51 71  1  0  0  0  0
 52 65  1  0  0  0  0
 53 64  1  0  0  0  0
 54 60  1  0  0  0  0
 55 62  1  0  0  0  0
 56 62  1  0  0  0  0
 57 62  1  0  0  0  0
 58 73  1  0  0  0  0
 59 62  1  0  0  0  0
 59 72  1  0  0  0  0
 60 73  1  0  0  0  0
 61 84  1  0  0  0  0
 61 85  1  0  0  0  0
 61 86  1  0  0  0  0
 63 64  1  0  0  0  0
M  CHG  1  73   1
M  ISO  4  35 101  41 100  70 100  81 101
M  END
> <Batch ID>
0062

> <Smiles>
CNC(C)C(=O)NC(C(=O)N1Cc2cc([101O:1][101CH:1]=CC(=O)Nc3cc([100NH:0][100C:0](=O)N4CCCC(n5nc(-c6ccc(Oc7ccc(F)cc7F)cc6)c(C(N)=O)c5N)C4)cc(C(F)(F)F)c3)ccc2CC1C(=O)NC1CCCc2ccccc21)C(C)(C)C

> <Shape>
0.180

> <Color>
0.191

> <Negative vol penalty>
0.000

$$$$

  -OEChem-04042323093D

 90 99  0     1  0  0  0  0  0999 V2000
  -21.9339  -32.2929   14.6678 C   0  0  0  0  0  0  0  0  0  0  0  0
  -23.0933  -31.6795   15.1314 C   0  0  0  0  0  0  0  0  0  0  0  0
  -23.9409   -9.1807   21.3051 C   0  0  0  0  0  0  0  0  0  0  0  0
  -23.1571  -11.3826   20.6932 C   0  0  0  0  0  0  0  0  0  0  0  0
  -21.2990  -33.2597   15.4464 C   0  0  0  0  0  0  0  0  0  0  0  0
  -23.6191  -32.0333   16.3735 C   0  0  0  0  0  0  0  0  0  0  0  0
  -25.0140  -28.0075   19.1107 C   0  0  0  0  0  0  0  0  0  0  0  0
  -22.7215   -8.9204   21.9303 C   0  0  0  0  0  0  0  0  0  0  0  0
  -21.9377  -11.1223   21.3184 C   0  0  0  0  0  0  0  0  0  0  0  0
  -26.2245  -27.4006   18.7792 C   0  0  0  0  0  0  0  0  0  0  0  0
  -19.5885   -8.0414   21.0111 C   0  0  0  0  0  0  0  0  0  0  0  0
  -18.9886   -6.8050   20.7725 C   0  0  0  0  0  0  0  0  0  0  0  0
  -27.2958  -28.5520   20.6083 C   0  0  0  0  0  0  0  0  0  0  0  0
  -28.8525  -18.6343   18.0513 C   0  0  0  0  0  0  0  0  0  0  0  0
  -26.7886  -17.7453   17.1643 C   0  0  0  0  0  0  0  0  0  0  0  0
  -19.0814   -6.3042   23.1342 C   0  0  0  0  0  0  0  0  0  0  0  0
  -24.1587  -10.4119   20.6866 C   0  0  0  0  0  0  0  0  0  0  0  0
  -25.9932   -9.9729   18.9691 C   0  0  0  0  0  0  0  0  0  0  0  0
  -21.8119  -33.6186   16.7029 C   0  0  0  0  0  0  0  0  0  0  0  0
  -24.9375  -28.9012   20.1887 C   0  0  0  0  0  0  0  0  0  0  0  0
  -22.9913  -33.0067   17.1690 C   0  0  0  0  0  0  0  0  0  0  0  0
  -26.0825  -29.1670   20.9531 C   0  0  0  0  0  0  0  0  0  0  0  0
  -27.6104  -19.8843   16.3985 C   0  0  0  0  0  0  0  0  0  0  0  0
  -28.7125  -19.7639   17.2451 C   0  0  0  0  0  0  0  0  0  0  0  0
  -27.8906  -17.6250   18.0108 C   0  0  0  0  0  0  0  0  0  0  0  0
  -21.7199   -9.8912   21.9369 C   0  0  0  0  0  0  0  0  0  0  0  0
  -27.3663  -27.6750   19.5262 C   0  0  0  0  0  0  0  0  0  0  0  0
  -19.9350   -8.4092   22.3113 C   0  0  0  0  0  0  0  0  0  0  0  0
  -18.7350   -5.9364   21.8340 C   0  0  0  0  0  0  0  0  0  0  0  0
  -26.6485  -18.8750   16.3581 C   0  0  0  0  0  0  0  0  0  0  0  0
  -19.6814   -7.5406   23.3728 C   0  0  0  0  0  0  0  0  0  0  0  0
  -25.4184  -10.6816   20.0411 C   0  0  0  0  0  0  0  0  0  0  0  0
  -27.1805  -10.6196   18.7273 C   0  0  0  0  0  0  0  0  0  0  0  0
  -30.4488  -21.1524   16.1524 C   0  0  0  0  0  0  0  0  0  0  0  0
  -25.4981   -8.8320   18.2556 C   0  0  0  0  0  0  0  0  0  0  0  0
  -24.2056  -31.9783   20.5038 C   0  0  0  0  0  0  0  0  0  0  0  0
  -24.4542  -31.3123   23.6687 C   0  0  0  0  0  0  0  0  0  0  0  0
  -29.6987  -24.9665   18.9864 C   0  0  0  0  0  0  0  0  0  0  0  0
  -24.8678  -31.1540   27.0526 C   0  0  0  0  0  0  0  0  0  0  0  0
  -29.0656  -16.2013   19.7252 C   0  0  0  0  0  0  0  0  0  0  0  0
  -21.1171  -34.7029   17.4879 C   0  0  0  0  0  0  0  0  0  0  0  0
  -23.6183  -29.5270   20.5499 C   0  0  0  0  0  0  0  0  0  0  0  0
  -26.0490  -30.1032   22.1324 C   0  0  0  0  0  0  0  0  0  0  0  0
  -31.2580  -22.4359   16.2207 C   0  0  0  0  0  0  0  0  0  0  0  0
  -21.5299  -34.7512   18.9568 C   0  0  0  0  0  0  0  0  0  0  0  0
  -31.7821  -22.7976   17.5947 C   0  0  0  0  0  0  0  0  0  0  0  0
  -30.5553  -13.2024   20.9352 C   0  0  0  0  0  0  0  0  0  0  0  0
  -23.0473  -34.6682   19.0879 C   0  0  0  0  0  0  0  0  0  0  0  0
  -29.4615  -12.1499   20.7401 C   0  0  0  0  0  0  0  0  0  0  0  0
  -29.9748  -14.5538   21.3481 C   0  0  0  0  0  0  0  0  0  0  0  0
  -27.8233  -14.0172   20.2745 C   0  0  0  0  0  0  0  0  0  0  0  0
  -30.1048  -21.3000   18.6326 C   0  0  0  0  0  0  0  0  0  0  0  0
  -23.5785  -33.3457   18.5219 C   0  0  1  0  0  0  0  0  0  0  0  0
  -23.7682  -30.8168   21.3507 C   0  0  1  0  0  0  0  0  0  0  0  0
  -28.3543  -12.6564   19.7950 C   0  0  2  0  0  0  0  0  0  0  0  0
  -30.6829  -22.7096   18.6382 C   0  0  2  0  0  0  0  0  0  0  0  0
  -27.4369  -21.0854   15.5263 C   0  0  0  0  0  0  0  0  0  0  0  0
  -25.3397  -32.5991   29.0492 C   0  0  0  0  0  0  0  0  0  0  0  0
  -27.3891  -31.4794   22.8511 C   0  0  0  0  0  0  0  0  0  0  0  0
  -27.9460  -32.0475   25.2250 C   0  0  0  0  0  0  0  0  0  0  0  0
  -26.4765  -33.5613   23.8939 C   0  0  0  0  0  0  0  0  0  0  0  0
  -22.2920  -30.4402   28.3233 C   0  0  0  0  0  0  0  0  0  0  0  0
  -28.4877  -25.7909   18.6050 C   0  0  0  0  0  0  0  0  0  1  0  0
  -25.5737  -31.3348   24.6813 C   0  0  1  0  0  0  0  0  0  0  0  0
  -24.2618  -31.9693   28.1807 C   0  0  2  0  0  0  0  0  0  0  0  0
  -26.8324  -32.0817   24.1566 C   0  0  0  0  0  0  0  0  0  0  0  0
  -26.1781  -11.7004   20.4521 N   0  0  0  0  0  0  0  0  0  0  0  0
  -27.2425  -11.6365   19.6341 N   0  0  0  0  0  0  0  0  0  0  0  0
  -29.7207  -20.7995   17.3014 N   0  0  0  0  0  0  0  0  0  0  0  0
  -24.7370  -30.6952   22.4419 N   0  0  0  0  0  0  0  0  0  0  0  0
  -28.9354  -14.9717   20.4048 N   0  0  0  0  0  0  0  0  0  0  0  0
  -28.1672  -10.4119   17.8297 N   0  0  0  0  0  0  0  0  0  0  0  0
  -24.2608   -8.2930   18.6335 N   0  0  0  0  0  0  0  0  0  0  0  0
  -28.0329  -16.4773   18.8297 N   0  0  0  0  0  0  0  0  0  0  0  0
  -23.3489  -32.2667   19.4586 N   0  0  0  0  0  0  0  0  0  0  0  0
  -29.6507  -23.6979   18.4299 N   0  0  0  0  0  0  0  0  0  0  0  0
  -25.0089  -31.9002   25.9018 N   0  0  0  0  0  0  0  0  0  0  0  0
  -23.4082  -31.1049   29.0439 N   0  3  0  0  0  0  0  0  0  0  0  0
  -30.4353  -20.5361   15.0827 O   0  0  0  0  0  0  0  0  0  0  0  0
  -26.1417   -8.2962   17.3218 O   0  0  0  0  0  0  0  0  0  0  0  0
  -25.2428  -32.5701   20.7791 O   0  0  0  0  0  0  0  0  0  0  0  0
  -23.3666  -31.8170   23.9584 O   0  0  0  0  0  0  0  0  0  0  0  0
  -30.5966  -25.3977   19.7046 O   0  0  0  0  0  0  0  0  0  0  0  0
  -25.1877  -29.9743   27.1807 O   0  0  0  0  0  0  0  0  0  0  0  0
  -30.0365  -16.9414   19.9030 O   0  0  0  0  0  0  0  0  0  0  0  0
  -20.5298   -9.6374   22.5467 O   0  0  0  0  0  0  0  0  0  0  0  0
  -28.5494  -27.0845   19.2044 O   0  0  0  0  0  0  0  0  0  1  0  0
  -18.1575   -4.7497   21.6049 F   0  0  0  0  0  0  0  0  0  0  0  0
  -25.5849  -18.9816   15.5493 F   0  0  0  0  0  0  0  0  0  0  0  0
  -20.0108   -7.8889   24.6242 F   0  0  0  0  0  0  0  0  0  0  0  0
  1  2  1  0  0  0  0
  1  5  2  0  0  0  0
  2  6  2  0  0  0  0
  3  8  2  0  0  0  0
  3 17  1  0  0  0  0
  4  9  1  0  0  0  0
  4 17  2  0  0  0  0
  5 19  1  0  0  0  0
  6 21  1  0  0  0  0
  7 10  2  0  0  0  0
  7 20  1  0  0  0  0
  8 26  1  0  0  0  0
  9 26  2  0  0  0  0
 10 27  1  0  0  0  0
 11 12  2  0  0  0  0
 11 28  1  0  0  0  0
 12 29  1  0  0  0  0
 13 22  1  0  0  0  0
 13 27  2  0  0  0  0
 14 24  1  0  0  0  0
 14 25  2  0  0  0  0
 15 25  1  0  0  0  0
 15 30  2  0  0  0  0
 16 29  2  0  0  0  0
 16 31  1  0  0  0  0
 17 32  1  0  0  0  0
 18 32  1  0  0  0  0
 18 33  2  0  0  0  0
 18 35  1  0  0  0  0
 19 21  2  0  0  0  0
 19 41  1  0  0  0  0
 20 22  2  0  0  0  0
 20 42  1  0  0  0  0
 21 53  1  0  0  0  0
 22 43  1  0  0  0  0
 23 24  2  0  0  0  0
 23 30  1  0  0  0  0
 23 57  1  0  0  0  0
 24 69  1  0  0  0  0
 25 74  1  0  0  0  0
 26 86  1  0  0  0  0
 27 87  1  0  0  0  0
 28 31  2  0  0  0  0
 28 86  1  0  0  0  0
 29 88  1  0  0  0  0
 30 89  1  0  0  0  0
 31 90  1  0  0  0  0
 32 67  2  0  0  0  0
 33 68  1  0  0  0  0
 33 72  1  0  0  0  0
 34 44  1  0  0  0  0
 34 69  1  0  0  0  0
 34 79  2  0  0  0  0
 35 73  1  0  0  0  0
 35 80  2  0  0  0  0
 36 54  1  0  0  0  0
 36 75  1  0  0  0  0
 36 81  2  0  0  0  0
 37 64  1  0  0  0  0
 37 70  1  0  0  0  0
 37 82  2  0  0  0  0
 38 63  1  0  0  0  0
 38 76  1  0  0  0  0
 38 83  2  0  0  0  0
 39 65  1  0  0  0  0
 39 77  1  0  0  0  0
 39 84  2  0  0  0  0
 40 71  1  0  0  0  0
 40 74  1  0  0  0  0
 40 85  2  0  0  0  0
 41 45  1  0  0  0  0
 42 54  1  0  0  0  0
 43 70  1  0  0  0  0
 44 46  1  0  0  0  0
 45 48  1  0  0  0  0
 46 56  1  0  0  0  0
 47 49  1  0  0  0  0
 47 50  1  0  0  0  0
 48 53  1  0  0  0  0
 49 55  1  0  0  0  0
 50 71  1  0  0  0  0
 51 55  1  0  0  0  0
 51 71  1  0  0  0  0
 52 56  1  0  0  0  0
 52 69  1  0  0  0  0
 53 75  1  0  0  0  0
 54 70  1  0  0  0  0
 55 68  1  0  0  0  0
 56 76  1  0  0  0  0
 58 65  1  0  0  0  0
 59 66  1  0  0  0  0
 60 66  1  0  0  0  0
 61 66  1  0  0  0  0
 62 78  1  0  0  0  0
 63 87  1  0  0  0  0
 64 66  1  0  0  0  0
 64 77  1  0  0  0  0
 65 78  1  0  0  0  0
 67 68  1  0  0  0  0
M  CHG  1  78   1
M  ISO  4  40 100  63 101  74 100  87 101
M  END
> <Batch ID>
0062

> <Smiles>
CNC(C)C(=O)NC(C(=O)N1Cc2cc([101O:1][101CH2:1]C(=O)NC3CCC(=O)N(c4cc([100NH:0][100C:0](=O)N5CCCC(n6nc(-c7ccc(Oc8ccc(F)cc8F)cc7)c(C(N)=O)c6N)C5)cc(F)c4C)C3)ccc2CC1C(=O)NC1CCCc2ccccc21)C(C)(C)C

> <Shape>
0.253

> <Color>
0.117

> <Negative vol penalty>
0.000

$$$$

  -OEChem-04042323093D

 88 97  0     1  0  0  0  0  0999 V2000
  -28.4460  -26.3765   15.0544 C   0  0  0  0  0  0  0  0  0  0  0  0
  -27.2834  -26.9432   15.5644 C   0  0  0  0  0  0  0  0  0  0  0  0
  -24.2671  -25.1297   18.9459 C   0  0  0  0  0  0  0  0  0  0  0  0
  -27.3397  -13.6357   18.6445 C   0  0  0  0  0  0  0  0  0  0  0  0
  -25.1942  -14.4454   19.4048 C   0  0  0  0  0  0  0  0  0  0  0  0
  -29.5714  -26.2538   15.8665 C   0  0  0  0  0  0  0  0  0  0  0  0
  -27.2495  -27.3982   16.8830 C   0  0  0  0  0  0  0  0  0  0  0  0
  -23.2181  -29.8340   18.3037 C   0  0  0  0  0  0  0  0  0  0  0  0
  -22.9476  -24.7962   19.2513 C   0  0  0  0  0  0  0  0  0  0  0  0
  -25.2797  -24.1830   19.1011 C   0  0  0  0  0  0  0  0  0  0  0  0
  -27.1901  -12.4965   19.4354 C   0  0  0  0  0  0  0  0  0  0  0  0
  -25.0445  -13.3062   20.1957 C   0  0  0  0  0  0  0  0  0  0  0  0
  -21.9912  -29.2050   18.5108 C   0  0  0  0  0  0  0  0  0  0  0  0
  -24.1710  -10.0708   19.7602 C   0  0  0  0  0  0  0  0  0  0  0  0
  -22.9351   -9.4246   19.7359 C   0  0  0  0  0  0  0  0  0  0  0  0
  -22.3373  -29.3281   20.8950 C   0  0  0  0  0  0  0  0  0  0  0  0
  -22.6955   -9.7933   22.1116 C   0  0  0  0  0  0  0  0  0  0  0  0
  -26.3418  -14.6102   18.6292 C   0  0  0  0  0  0  0  0  0  0  0  0
  -26.0856  -15.9551   16.4767 C   0  0  0  0  0  0  0  0  0  0  0  0
  -29.5465  -26.6965   17.1993 C   0  0  0  0  0  0  0  0  0  0  0  0
  -24.0201  -30.2056   19.3923 C   0  0  0  0  0  0  0  0  0  0  0  0
  -28.3825  -27.3051   17.7113 C   0  0  0  0  0  0  0  0  0  0  0  0
  -23.5728  -29.9640   20.6991 C   0  0  0  0  0  0  0  0  0  0  0  0
  -22.6406  -23.5159   19.7121 C   0  0  0  0  0  0  0  0  0  0  0  0
  -23.6532  -22.5691   19.8674 C   0  0  0  0  0  0  0  0  0  0  0  0
  -24.9727  -22.9027   19.5619 C   0  0  0  0  0  0  0  0  0  0  0  0
  -26.0425  -12.3318   20.2110 C   0  0  0  0  0  0  0  0  0  0  0  0
  -21.5520  -28.9493   19.8065 C   0  0  0  0  0  0  0  0  0  0  0  0
  -24.6692  -10.5782   20.9603 C   0  0  0  0  0  0  0  0  0  0  0  0
  -22.1974   -9.2859   20.9115 C   0  0  0  0  0  0  0  0  0  0  0  0
  -23.9315  -10.4395   22.1359 C   0  0  0  0  0  0  0  0  0  0  0  0
  -26.4960  -15.7874   17.8128 C   0  0  0  0  0  0  0  0  0  0  0  0
  -26.4577  -17.2392   16.1618 C   0  0  0  0  0  0  0  0  0  0  0  0
  -19.7783  -23.8917   18.2050 C   0  0  0  0  0  0  0  0  0  0  0  0
  -19.9842  -25.2928   20.2905 C   0  0  0  0  0  0  0  0  0  0  0  0
  -25.4269  -15.0326   15.5987 C   0  0  0  0  0  0  0  0  0  0  0  0
  -26.9261  -29.4164   20.4102 C   0  0  0  0  0  0  0  0  0  0  0  0
  -26.3743  -31.7565   22.5877 C   0  0  0  0  0  0  0  0  0  0  0  0
  -24.1041  -33.6260   24.3192 C   0  0  0  0  0  0  0  0  0  0  0  0
  -27.3728  -22.1460   19.4468 C   0  0  0  0  0  0  0  0  0  0  0  0
  -30.7955  -26.5464   18.0316 C   0  0  0  0  0  0  0  0  0  0  0  0
  -25.3288  -30.9074   19.1527 C   0  0  0  0  0  0  0  0  0  0  0  0
  -24.3870  -30.3615   21.9022 C   0  0  0  0  0  0  0  0  0  0  0  0
  -18.8099  -24.8992   17.6329 C   0  0  0  0  0  0  0  0  0  0  0  0
  -30.5273  -26.6470   19.5297 C   0  0  0  0  0  0  0  0  0  0  0  0
  -18.0844  -25.6714   18.7127 C   0  0  0  0  0  0  0  0  0  0  0  0
  -29.7113  -20.5737   17.2705 C   0  0  0  0  0  0  0  0  0  0  0  0
  -29.6870  -27.8802   19.8256 C   0  0  0  0  0  0  0  0  0  0  0  0
  -29.1118  -19.1853   17.0361 C   0  0  0  0  0  0  0  0  0  0  0  0
  -29.4786  -21.0580   18.7005 C   0  0  0  0  0  0  0  0  0  0  0  0
  -27.4812  -19.6319   18.9146 C   0  0  0  0  0  0  0  0  0  0  0  0
  -28.3127  -27.7792   19.1517 C   0  0  1  0  0  0  0  0  0  0  0  0
  -19.0712  -26.3306   19.6639 C   0  0  2  0  0  0  0  0  0  0  0  0
  -26.2987  -30.7789   20.3232 C   0  0  1  0  0  0  0  0  0  0  0  0
  -27.6338  -19.1292   17.4698 C   0  0  2  0  0  0  0  0  0  0  0  0
  -23.3189  -21.1967   20.3620 C   0  0  0  0  0  0  0  0  0  0  0  0
  -23.9539  -35.4323   26.0548 C   0  0  0  0  0  0  0  0  0  0  0  0
  -27.0516  -29.7229   24.7592 C   0  0  0  0  0  0  0  0  0  0  0  0
  -25.9856  -31.2545   26.4285 C   0  0  0  0  0  0  0  0  0  0  0  0
  -27.9861  -32.0105   25.1442 C   0  0  0  0  0  0  0  0  0  0  0  0
  -22.7202  -35.4621   22.4557 C   0  0  0  0  0  0  0  0  0  0  0  0
  -21.2123  -23.1834   20.0334 C   0  0  0  0  0  0  0  0  0  0  0  0
  -19.9136  -27.4218   19.0076 C   0  0  0  0  0  0  0  0  0  1  0  0
  -25.7586  -31.8117   23.9650 C   0  0  1  0  0  0  0  0  0  0  0  0
  -24.0099  -35.1207   24.5673 C   0  0  2  0  0  0  0  0  0  0  0  0
  -26.6808  -31.1905   25.0517 C   0  0  0  0  0  0  0  0  0  0  0  0
  -27.0840  -16.8777   18.3124 N   0  0  0  0  0  0  0  0  0  0  0  0
  -27.0458  -17.7428   17.2846 N   0  0  0  0  0  0  0  0  0  0  0  0
  -20.2859  -24.1719   19.4906 N   0  0  0  0  0  0  0  0  0  0  0  0
  -25.6622  -31.0392   21.6160 N   0  0  0  0  0  0  0  0  0  0  0  0
  -28.0560  -20.9805   19.0397 N   0  0  0  0  0  0  0  0  0  0  0  0
  -26.3361  -17.9753   15.0368 N   0  0  0  0  0  0  0  0  0  0  0  0
  -25.1170  -13.7545   16.0831 N   0  0  0  0  0  0  0  0  0  0  0  0
  -26.0168  -21.9566   19.7117 N   0  0  0  0  0  0  0  0  0  0  0  0
  -27.6298  -29.0477   19.2796 N   0  0  0  0  0  0  0  0  0  0  0  0
  -25.4132  -33.2092   24.2020 N   0  0  0  0  0  0  0  0  0  0  0  0
  -22.7857  -35.6764   23.9243 N   0  3  0  0  0  0  0  0  0  0  0  0
  -20.1115  -22.9158   17.5277 O   0  0  0  0  0  0  0  0  0  0  0  0
  -20.4484  -25.4939   21.4155 O   0  0  0  0  0  0  0  0  0  0  0  0
  -25.1368  -15.3274   14.4144 O   0  0  0  0  0  0  0  0  0  0  0  0
  -26.7836  -28.7495   21.4284 O   0  0  0  0  0  0  0  0  0  0  0  0
  -27.4439  -32.3347   22.3799 O   0  0  0  0  0  0  0  0  0  0  0  0
  -23.1153  -32.9002   24.2412 O   0  0  0  0  0  0  0  0  0  0  0  0
  -27.9421  -23.2375   19.5264 O   0  0  0  0  0  0  0  0  0  0  0  0
  -25.8960  -11.2202   20.9827 O   0  0  0  0  0  0  0  0  0  0  0  0
  -20.3552  -28.3349   20.0114 O   0  0  0  0  0  0  0  0  0  1  0  0
  -21.0099   -8.6667   20.8877 F   0  0  0  0  0  0  0  0  0  0  0  0
  -24.4044  -10.9259   23.2916 F   0  0  0  0  0  0  0  0  0  0  0  0
  1  2  1  0  0  0  0
  1  6  2  0  0  0  0
  2  7  2  0  0  0  0
  3  9  2  0  0  0  0
  3 10  1  0  0  0  0
  4 11  2  0  0  0  0
  4 18  1  0  0  0  0
  5 12  1  0  0  0  0
  5 18  2  0  0  0  0
  6 20  1  0  0  0  0
  7 22  1  0  0  0  0
  8 13  2  0  0  0  0
  8 21  1  0  0  0  0
  9 24  1  0  0  0  0
 10 26  2  0  0  0  0
 11 27  1  0  0  0  0
 12 27  2  0  0  0  0
 13 28  1  0  0  0  0
 14 15  2  0  0  0  0
 14 29  1  0  0  0  0
 15 30  1  0  0  0  0
 16 23  1  0  0  0  0
 16 28  2  0  0  0  0
 17 30  2  0  0  0  0
 17 31  1  0  0  0  0
 18 32  1  0  0  0  0
 19 32  1  0  0  0  0
 19 33  2  0  0  0  0
 19 36  1  0  0  0  0
 20 22  2  0  0  0  0
 20 41  1  0  0  0  0
 21 23  2  0  0  0  0
 21 42  1  0  0  0  0
 22 52  1  0  0  0  0
 23 43  1  0  0  0  0
 24 25  2  0  0  0  0
 24 62  1  0  0  0  0
 25 26  1  0  0  0  0
 25 56  1  0  0  0  0
 26 74  1  0  0  0  0
 27 85  1  0  0  0  0
 28 86  1  0  0  0  0
 29 31  2  0  0  0  0
 29 85  1  0  0  0  0
 30 87  1  0  0  0  0
 31 88  1  0  0  0  0
 32 67  2  0  0  0  0
 33 68  1  0  0  0  0
 33 72  1  0  0  0  0
 34 44  1  0  0  0  0
 34 69  1  0  0  0  0
 34 78  2  0  0  0  0
 35 53  1  0  0  0  0
 35 69  1  0  0  0  0
 35 79  2  0  0  0  0
 36 73  1  0  0  0  0
 36 80  2  0  0  0  0
 37 54  1  0  0  0  0
 37 75  1  0  0  0  0
 37 81  2  0  0  0  0
 38 64  1  0  0  0  0
 38 70  1  0  0  0  0
 38 82  2  0  0  0  0
 39 65  1  0  0  0  0
 39 76  1  0  0  0  0
 39 83  2  0  0  0  0
 40 71  1  0  0  0  0
 40 74  1  0  0  0  0
 40 84  2  0  0  0  0
 41 45  1  0  0  0  0
 42 54  1  0  0  0  0
 43 70  1  0  0  0  0
 44 46  1  0  0  0  0
 45 48  1  0  0  0  0
 46 53  1  0  0  0  0
 47 49  1  0  0  0  0
 47 50  1  0  0  0  0
 48 52  1  0  0  0  0
 49 55  1  0  0  0  0
 50 71  1  0  0  0  0
 51 55  1  0  0  0  0
 51 71  1  0  0  0  0
 52 75  1  0  0  0  0
 53 63  1  0  0  0  0
 54 70  1  0  0  0  0
 55 68  1  0  0  0  0
 57 65  1  0  0  0  0
 58 66  1  0  0  0  0
 59 66  1  0  0  0  0
 60 66  1  0  0  0  0
 61 77  1  0  0  0  0
 62 69  1  0  0  0  0
 63 86  1  0  0  0  0
 64 66  1  0  0  0  0
 64 76  1  0  0  0  0
 65 77  1  0  0  0  0
 67 68  1  0  0  0  0
M  CHG  1  77   1
M  ISO  4  40 100  63 101  74 100  86 101
M  END
> <Batch ID>
0062

> <Smiles>
CNC(C)C(=O)NC(C(=O)N1Cc2cc([101O:1][101CH2:1]C3CCC(=O)N(Cc4cccc([100NH:0][100C:0](=O)N5CCCC(n6nc(-c7ccc(Oc8ccc(F)cc8F)cc7)c(C(N)=O)c6N)C5)c4C)C3=O)ccc2CC1C(=O)NC1CCCc2ccccc21)C(C)(C)C

> <Shape>
0.239

> <Color>
0.073

> <Negative vol penalty>
0.000

$$$$

  -OEChem-04042323093D

 84 92  0     1  0  0  0  0  0999 V2000
  -25.6076  -38.2329   19.1753 C   0  0  0  0  0  0  0  0  0  0  0  0
  -25.6627  -37.0869   18.3886 C   0  0  0  0  0  0  0  0  0  0  0  0
  -24.4059   -9.2666   19.9880 C   0  0  0  0  0  0  0  0  0  0  0  0
  -24.3007   -9.5906   22.3798 C   0  0  0  0  0  0  0  0  0  0  0  0
  -26.0248  -38.1851   20.5048 C   0  0  0  0  0  0  0  0  0  0  0  0
  -26.1361  -35.8925   18.9307 C   0  0  0  0  0  0  0  0  0  0  0  0
  -25.1984  -28.8041   18.4928 C   0  0  0  0  0  0  0  0  0  0  0  0
  -25.3386  -20.8368   23.3580 C   0  0  0  0  0  0  0  0  0  0  0  0
  -25.7200  -21.5959   22.2518 C   0  0  0  0  0  0  0  0  0  0  0  0
  -24.2207   -7.8955   20.1655 C   0  0  0  0  0  0  0  0  0  0  0  0
  -24.1155   -8.2195   22.5574 C   0  0  0  0  0  0  0  0  0  0  0  0
  -25.9275  -27.6309   18.3040 C   0  0  0  0  0  0  0  0  0  0  0  0
  -21.5844   -5.9954   22.2972 C   0  0  0  0  0  0  0  0  0  0  0  0
  -20.5945   -5.5872   23.1911 C   0  0  0  0  0  0  0  0  0  0  0  0
  -26.5469  -27.6477   20.6353 C   0  0  0  0  0  0  0  0  0  0  0  0
  -22.2612   -4.4431   24.5142 C   0  0  0  0  0  0  0  0  0  0  0  0
  -24.4460  -10.1141   21.0951 C   0  0  0  0  0  0  0  0  0  0  0  0
  -23.6400  -12.5077   20.7363 C   0  0  0  0  0  0  0  0  0  0  0  0
  -26.4945  -36.9873   21.0662 C   0  0  0  0  0  0  0  0  0  0  0  0
  -25.1470  -29.4150   19.7540 C   0  0  0  0  0  0  0  0  0  0  0  0
  -26.5612  -35.8290   20.2685 C   0  0  0  0  0  0  0  0  0  0  0  0
  -25.8144  -28.8273   20.8381 C   0  0  0  0  0  0  0  0  0  0  0  0
  -25.8112  -19.5328   23.5056 C   0  0  0  0  0  0  0  0  0  0  0  0
  -26.5741  -21.0510   21.2930 C   0  0  0  0  0  0  0  0  0  0  0  0
  -26.6653  -18.9878   22.5468 C   0  0  0  0  0  0  0  0  0  0  0  0
  -24.0754   -7.3720   21.4502 C   0  0  0  0  0  0  0  0  0  0  0  0
  -26.6043  -27.0540   19.3746 C   0  0  0  0  0  0  0  0  0  0  0  0
  -22.9127   -5.6275   22.5118 C   0  0  0  0  0  0  0  0  0  0  0  0
  -20.9329   -4.8111   24.2996 C   0  0  0  0  0  0  0  0  0  0  0  0
  -23.2511   -4.8513   23.6203 C   0  0  0  0  0  0  0  0  0  0  0  0
  -27.0467  -19.7469   21.4405 C   0  0  0  0  0  0  0  0  0  0  0  0
  -24.6379  -11.5304   20.9124 C   0  0  0  0  0  0  0  0  0  0  0  0
  -24.3330  -13.6866   20.6079 C   0  0  0  0  0  0  0  0  0  0  0  0
  -22.2143  -12.3628   20.6928 C   0  0  0  0  0  0  0  0  0  0  0  0
  -26.0559  -32.2277   20.9229 C   0  0  0  0  0  0  0  0  0  0  0  0
  -24.5602  -31.1612   23.5964 C   0  0  0  0  0  0  0  0  0  0  0  0
  -26.5846  -23.1318   19.8739 C   0  0  0  0  0  0  0  0  0  0  0  0
  -23.4641  -28.5062   25.4393 C   0  0  0  0  0  0  0  0  0  0  0  0
  -28.3717  -17.1633   22.2217 C   0  0  0  0  0  0  0  0  0  0  0  0
  -26.9789  -36.9959   22.4945 C   0  0  0  0  0  0  0  0  0  0  0  0
  -24.3342  -30.6657   19.9472 C   0  0  0  0  0  0  0  0  0  0  0  0
  -25.7741  -29.4325   22.2167 C   0  0  0  0  0  0  0  0  0  0  0  0
  -27.1155  -35.6011   23.0997 C   0  0  0  0  0  0  0  0  0  0  0  0
  -29.2819  -14.5475   19.9842 C   0  0  0  0  0  0  0  0  0  0  0  0
  -27.8356  -34.6674   22.1320 C   0  0  0  0  0  0  0  0  0  0  0  0
  -28.0727  -13.6098   20.0117 C   0  0  0  0  0  0  0  0  0  0  0  0
  -29.5575  -15.1580   21.3572 C   0  0  0  0  0  0  0  0  0  0  0  0
  -27.1982  -14.8843   22.0112 C   0  0  0  0  0  0  0  0  0  0  0  0
  -27.0453  -34.5086   20.8275 C   0  0  1  0  0  0  0  0  0  0  0  0
  -24.7729  -31.4822   21.1589 C   0  0  1  0  0  0  0  0  0  0  0  0
  -26.8418  -14.2956   20.6364 C   0  0  2  0  0  0  0  0  0  0  0  0
  -25.3861  -18.7433   24.7011 C   0  0  0  0  0  0  0  0  0  0  0  0
  -22.3117  -27.9479   27.5975 C   0  0  0  0  0  0  0  0  0  0  0  0
  -27.1362  -31.7512   25.1216 C   0  0  0  0  0  0  0  0  0  0  0  0
  -26.2737  -30.3262   26.9908 C   0  0  0  0  0  0  0  0  0  0  0  0
  -25.0403  -32.3905   26.3271 C   0  0  0  0  0  0  0  0  0  0  0  0
  -21.2118  -27.1991   24.0330 C   0  0  0  0  0  0  0  0  0  0  0  0
  -27.2278  -23.5865   18.5687 C   0  0  0  0  0  0  0  0  0  0  0  0
  -26.8572  -25.0108   18.1842 C   0  0  0  0  0  0  0  0  0  1  0  0
  -24.9782  -30.3682   24.8111 C   0  0  1  0  0  0  0  0  0  0  0  0
  -22.1326  -28.2293   26.1137 C   0  0  2  0  0  0  0  0  0  0  0  0
  -25.8596  -31.1984   25.7864 C   0  0  0  0  0  0  0  0  0  0  0  0
  -25.8708  -12.0438   20.8975 N   0  0  0  0  0  0  0  0  0  0  0  0
  -25.6523  -13.3566   20.7105 N   0  0  0  0  0  0  0  0  0  0  0  0
  -24.9710  -30.6588   22.3535 N   0  0  0  0  0  0  0  0  0  0  0  0
  -28.3480  -15.7934   21.8846 N   0  0  0  0  0  0  0  0  0  0  0  0
  -23.9363  -14.9630   20.4183 N   0  0  0  0  0  0  0  0  0  0  0  0
  -21.6681  -11.0807   20.8417 N   0  0  0  0  0  0  0  0  0  0  0  0
  -26.9597  -21.8247   20.1725 N   0  0  0  0  0  0  0  0  0  0  0  0
  -27.1547  -17.6649   22.6819 N   0  0  0  0  0  0  0  0  0  0  0  0
  -25.9342  -33.6009   21.0171 N   0  0  0  0  0  0  0  0  0  0  0  0
  -23.7491  -29.8548   25.4062 N   0  0  0  0  0  0  0  0  0  0  0  0
  -21.4704  -27.0498   25.4882 N   0  3  0  0  0  0  0  0  0  0  0  0
  -21.4481  -13.3391   20.5104 O   0  0  0  0  0  0  0  0  0  0  0  0
  -27.0807  -31.6031   20.6751 O   0  0  0  0  0  0  0  0  0  0  0  0
  -23.8877  -32.1846   23.7445 O   0  0  0  0  0  0  0  0  0  0  0  0
  -25.8464  -23.8619   20.5269 O   0  0  0  0  0  0  0  0  0  0  0  0
  -24.1813  -27.6149   24.9902 O   0  0  0  0  0  0  0  0  0  0  0  0
  -29.3888  -17.8479   22.0845 O   0  0  0  0  0  0  0  0  0  0  0  0
  -23.8944   -6.0342   21.6239 O   0  0  0  0  0  0  0  0  0  0  0  0
  -27.3172  -25.9092   19.1929 O   0  0  0  0  0  0  0  0  0  1  0  0
  -19.9824   -4.4204   25.1588 F   0  0  0  0  0  0  0  0  0  0  0  0
  -24.5256   -4.4957   23.8323 F   0  0  0  0  0  0  0  0  0  0  0  0
  -27.8690  -19.2242   20.5176 F   0  0  0  0  0  0  0  0  0  0  0  0
  1  2  1  0  0  0  0
  1  5  2  0  0  0  0
  2  6  2  0  0  0  0
  3 10  2  0  0  0  0
  3 17  1  0  0  0  0
  4 11  1  0  0  0  0
  4 17  2  0  0  0  0
  5 19  1  0  0  0  0
  6 21  1  0  0  0  0
  7 12  2  0  0  0  0
  7 20  1  0  0  0  0
  8  9  2  0  0  0  0
  8 23  1  0  0  0  0
  9 24  1  0  0  0  0
 10 26  1  0  0  0  0
 11 26  2  0  0  0  0
 12 27  1  0  0  0  0
 13 14  2  0  0  0  0
 13 28  1  0  0  0  0
 14 29  1  0  0  0  0
 15 22  1  0  0  0  0
 15 27  2  0  0  0  0
 16 29  2  0  0  0  0
 16 30  1  0  0  0  0
 17 32  1  0  0  0  0
 18 32  1  0  0  0  0
 18 33  2  0  0  0  0
 18 34  1  0  0  0  0
 19 21  2  0  0  0  0
 19 40  1  0  0  0  0
 20 22  2  0  0  0  0
 20 41  1  0  0  0  0
 21 49  1  0  0  0  0
 22 42  1  0  0  0  0
 23 25  2  0  0  0  0
 23 52  1  0  0  0  0
 24 31  2  0  0  0  0
 24 69  1  0  0  0  0
 25 31  1  0  0  0  0
 25 70  1  0  0  0  0
 26 80  1  0  0  0  0
 27 81  1  0  0  0  0
 28 30  2  0  0  0  0
 28 80  1  0  0  0  0
 29 82  1  0  0  0  0
 30 83  1  0  0  0  0
 31 84  1  0  0  0  0
 32 63  2  0  0  0  0
 33 64  1  0  0  0  0
 33 67  1  0  0  0  0
 34 68  1  0  0  0  0
 34 74  2  0  0  0  0
 35 50  1  0  0  0  0
 35 71  1  0  0  0  0
 35 75  2  0  0  0  0
 36 60  1  0  0  0  0
 36 65  1  0  0  0  0
 36 76  2  0  0  0  0
 37 58  1  0  0  0  0
 37 69  1  0  0  0  0
 37 77  2  0  0  0  0
 38 61  1  0  0  0  0
 38 72  1  0  0  0  0
 38 78  2  0  0  0  0
 39 66  1  0  0  0  0
 39 70  1  0  0  0  0
 39 79  2  0  0  0  0
 40 43  1  0  0  0  0
 41 50  1  0  0  0  0
 42 65  1  0  0  0  0
 43 45  1  0  0  0  0
 44 46  1  0  0  0  0
 44 47  1  0  0  0  0
 45 49  1  0  0  0  0
 46 51  1  0  0  0  0
 47 66  1  0  0  0  0
 48 51  1  0  0  0  0
 48 66  1  0  0  0  0
 49 71  1  0  0  0  0
 50 65  1  0  0  0  0
 51 64  1  0  0  0  0
 53 61  1  0  0  0  0
 54 62  1  0  0  0  0
 55 62  1  0  0  0  0
 56 62  1  0  0  0  0
 57 73  1  0  0  0  0
 58 59  1  0  0  0  0
 59 81  1  0  0  0  0
 60 62  1  0  0  0  0
 60 72  1  0  0  0  0
 61 73  1  0  0  0  0
 63 64  1  0  0  0  0
M  CHG  1  73   1
M  ISO  4  39 100  59 101  70 100  81 101
M  END
> <Batch ID>
0062

> <Smiles>
CNC(C)C(=O)NC(C(=O)N1Cc2cc([101O:1][101CH2:1]CC(=O)Nc3ccc(C)c([100NH:0][100C:0](=O)N4CCCC(n5nc(-c6ccc(Oc7ccc(F)cc7F)cc6)c(C(N)=O)c5N)C4)c3F)ccc2CC1C(=O)NC1CCCc2ccccc21)C(C)(C)C

> <Shape>
0.260

> <Color>
0.123

> <Negative vol penalty>
0.000

$$$$

  -OEChem-04042323093D

 86 95  0     1  0  0  0  0  0999 V2000
  -24.2572  -29.2784   20.1314 C   0  0  0  0  0  0  0  0  0  0  0  0
  -25.3943  -28.6489   20.6275 C   0  0  0  0  0  0  0  0  0  0  0  0
  -22.6501  -10.2919   20.3629 C   0  0  0  0  0  0  0  0  0  0  0  0
  -24.1638   -9.8046   22.1818 C   0  0  0  0  0  0  0  0  0  0  0  0
  -23.4990  -30.1020   20.9625 C   0  0  0  0  0  0  0  0  0  0  0  0
  -25.7745  -28.8436   21.9549 C   0  0  0  0  0  0  0  0  0  0  0  0
  -27.0927  -24.5268   24.2512 C   0  0  0  0  0  0  0  0  0  0  0  0
  -32.5868  -17.8135   23.1888 C   0  0  0  0  0  0  0  0  0  0  0  0
  -32.0308  -16.8347   22.3651 C   0  0  0  0  0  0  0  0  0  0  0  0
  -21.8784   -9.1824   20.7079 C   0  0  0  0  0  0  0  0  0  0  0  0
  -23.3920   -8.6951   22.5268 C   0  0  0  0  0  0  0  0  0  0  0  0
  -28.3598  -24.0175   23.9705 C   0  0  0  0  0  0  0  0  0  0  0  0
  -20.5049   -8.0864   24.1744 C   0  0  0  0  0  0  0  0  0  0  0  0
  -20.2142   -7.8958   25.5252 C   0  0  0  0  0  0  0  0  0  0  0  0
  -29.1825  -24.9387   26.0427 C   0  0  0  0  0  0  0  0  0  0  0  0
  -29.8334  -17.7656   22.7420 C   0  0  0  0  0  0  0  0  0  0  0  0
  -21.3294   -5.7534   25.4630 C   0  0  0  0  0  0  0  0  0  0  0  0
  -23.7929  -10.6030   21.0998 C   0  0  0  0  0  0  0  0  0  0  0  0
  -24.1770  -13.0935   20.7034 C   0  0  0  0  0  0  0  0  0  0  0  0
  -23.8647  -30.2991   22.3034 C   0  0  0  0  0  0  0  0  0  0  0  0
  -26.8632  -25.2565   25.4265 C   0  0  0  0  0  0  0  0  0  0  0  0
  -25.0212  -29.6716   22.8044 C   0  0  0  0  0  0  0  0  0  0  0  0
  -27.9109  -25.4540   26.3372 C   0  0  0  0  0  0  0  0  0  0  0  0
  -31.7661  -18.7684   23.7891 C   0  0  0  0  0  0  0  0  0  0  0  0
  -30.6542  -16.8108   22.1417 C   0  0  0  0  0  0  0  0  0  0  0  0
  -22.2493   -8.3840   21.7899 C   0  0  0  0  0  0  0  0  0  0  0  0
  -29.4056  -24.2259   24.8649 C   0  0  0  0  0  0  0  0  0  0  0  0
  -21.2078   -7.1104   23.4678 C   0  0  0  0  0  0  0  0  0  0  0  0
  -20.6265   -6.7294   26.1695 C   0  0  0  0  0  0  0  0  0  0  0  0
  -30.3894  -18.7444   23.5657 C   0  0  0  0  0  0  0  0  0  0  0  0
  -21.6200   -5.9440   24.1121 C   0  0  0  0  0  0  0  0  0  0  0  0
  -24.5909  -11.7486   20.7436 C   0  0  0  0  0  0  0  0  0  0  0  0
  -25.2962  -13.7856   20.3100 C   0  0  0  0  0  0  0  0  0  0  0  0
  -33.5129  -19.5197   25.3811 C   0  0  0  0  0  0  0  0  0  0  0  0
  -22.8954  -13.6661   20.9956 C   0  0  0  0  0  0  0  0  0  0  0  0
  -25.9470  -28.2297   26.0780 C   0  0  0  0  0  0  0  0  0  0  0  0
  -25.9116  -27.1346   29.1312 C   0  0  0  0  0  0  0  0  0  0  0  0
  -27.9846  -25.0232   31.1957 C   0  0  0  0  0  0  0  0  0  0  0  0
  -30.7623  -14.7961   20.6332 C   0  0  0  0  0  0  0  0  0  0  0  0
  -23.0403  -31.2360   23.1504 C   0  0  0  0  0  0  0  0  0  0  0  0
  -25.4842  -25.7763   25.7274 C   0  0  0  0  0  0  0  0  0  0  0  0
  -27.7118  -26.2132   27.6226 C   0  0  0  0  0  0  0  0  0  0  0  0
  -34.2110  -20.7211   25.9901 C   0  0  0  0  0  0  0  0  0  0  0  0
  -23.3011  -31.0923   24.6476 C   0  0  0  0  0  0  0  0  0  0  0  0
  -33.2766  -21.8134   26.4618 C   0  0  0  0  0  0  0  0  0  0  0  0
  -29.7286  -12.1314   18.5100 C   0  0  0  0  0  0  0  0  0  0  0  0
  -24.8001  -31.0476   24.9266 C   0  0  0  0  0  0  0  0  0  0  0  0
  -28.2657  -11.9049   18.8985 C   0  0  0  0  0  0  0  0  0  0  0  0
  -30.5877  -12.4913   19.7208 C   0  0  0  0  0  0  0  0  0  0  0  0
  -31.5569  -21.0078   24.8690 C   0  0  0  0  0  0  0  0  0  0  0  0
  -28.6270  -13.3894   20.9116 C   0  0  0  0  0  0  0  0  0  0  0  0
  -25.4521  -29.8383   24.2455 C   0  0  1  0  0  0  0  0  0  0  0  0
  -25.4870  -26.9453   26.7077 C   0  0  1  0  0  0  0  0  0  0  0  0
  -32.3755  -22.2211   25.3078 C   0  0  1  0  0  0  0  0  0  0  0  0
  -27.7098  -13.0880   19.7151 C   0  0  2  0  0  0  0  0  0  0  0  0
  -27.4013  -23.6049   33.1821 C   0  0  0  0  0  0  0  0  0  0  0  0
  -26.7392  -29.5809   30.7562 C   0  0  0  0  0  0  0  0  0  0  0  0
  -27.7727  -28.0326   32.4304 C   0  0  0  0  0  0  0  0  0  0  0  0
  -25.3183  -27.9376   31.9950 C   0  0  0  0  0  0  0  0  0  0  0  0
  -29.1239  -22.5958   29.9431 C   0  0  0  0  0  0  0  0  0  0  0  0
  -31.4609  -23.3768   25.7081 C   0  0  0  0  0  0  0  0  0  1  0  0
  -26.9216  -27.0557   30.2504 C   0  0  1  0  0  0  0  0  0  0  0  0
  -27.6555  -23.6236   31.6828 C   0  0  2  0  0  0  0  0  0  0  0  0
  -26.6959  -28.1509   31.3307 C   0  0  0  0  0  0  0  0  0  0  0  0
  -25.8729  -11.5932   20.4027 N   0  0  0  0  0  0  0  0  0  0  0  0
  -26.2743  -12.8495   20.1446 N   0  0  0  0  0  0  0  0  0  0  0  0
  -32.3458  -19.7829   24.6434 N   0  0  0  0  0  0  0  0  0  0  0  0
  -26.3469  -26.7071   27.8688 N   0  0  0  0  0  0  0  0  0  0  0  0
  -30.0021  -13.6227   20.4432 N   0  0  0  0  0  0  0  0  0  0  0  0
  -25.5294  -15.0974   20.0928 N   0  0  0  0  0  0  0  0  0  0  0  0
  -22.6281  -14.0697   22.3109 N   0  0  0  0  0  0  0  0  0  0  0  0
  -30.0897  -15.8163   21.3050 N   0  0  0  0  0  0  0  0  0  0  0  0
  -25.1855  -28.6305   24.9968 N   0  0  0  0  0  0  0  0  0  0  0  0
  -26.8589  -25.6906   30.7613 N   0  0  0  0  0  0  0  0  0  0  0  0
  -28.7814  -22.6936   31.3854 N   0  3  0  0  0  0  0  0  0  0  0  0
  -34.0386  -18.4119   25.5197 O   0  0  0  0  0  0  0  0  0  0  0  0
  -22.0074  -13.8003   20.1198 O   0  0  0  0  0  0  0  0  0  0  0  0
  -26.9198  -28.8145   26.5399 O   0  0  0  0  0  0  0  0  0  0  0  0
  -24.7760  -27.5532   29.3698 O   0  0  0  0  0  0  0  0  0  0  0  0
  -29.1255  -25.4801   31.2034 O   0  0  0  0  0  0  0  0  0  0  0  0
  -31.9150  -14.8988   20.2059 O   0  0  0  0  0  0  0  0  0  0  0  0
  -21.4963   -7.3015   22.1269 O   0  0  0  0  0  0  0  0  0  0  0  0
  -30.6436  -23.7304   24.5931 O   0  0  0  0  0  0  0  0  0  1  0  0
  -20.3486   -6.5472   27.4671 F   0  0  0  0  0  0  0  0  0  0  0  0
  -29.5908  -19.6569   24.1381 F   0  0  0  0  0  0  0  0  0  0  0  0
  -22.2966   -5.0034   23.4388 F   0  0  0  0  0  0  0  0  0  0  0  0
  1  2  1  0  0  0  0
  1  5  2  0  0  0  0
  2  6  2  0  0  0  0
  3 10  2  0  0  0  0
  3 18  1  0  0  0  0
  4 11  1  0  0  0  0
  4 18  2  0  0  0  0
  5 20  1  0  0  0  0
  6 22  1  0  0  0  0
  7 12  2  0  0  0  0
  7 21  1  0  0  0  0
  8  9  2  0  0  0  0
  8 24  1  0  0  0  0
  9 25  1  0  0  0  0
 10 26  1  0  0  0  0
 11 26  2  0  0  0  0
 12 27  1  0  0  0  0
 13 14  2  0  0  0  0
 13 28  1  0  0  0  0
 14 29  1  0  0  0  0
 15 23  1  0  0  0  0
 15 27  2  0  0  0  0
 16 25  2  0  0  0  0
 16 30  1  0  0  0  0
 17 29  2  0  0  0  0
 17 31  1  0  0  0  0
 18 32  1  0  0  0  0
 19 32  1  0  0  0  0
 19 33  2  0  0  0  0
 19 35  1  0  0  0  0
 20 22  2  0  0  0  0
 20 40  1  0  0  0  0
 21 23  2  0  0  0  0
 21 41  1  0  0  0  0
 22 52  1  0  0  0  0
 23 42  1  0  0  0  0
 24 30  2  0  0  0  0
 24 67  1  0  0  0  0
 25 72  1  0  0  0  0
 26 82  1  0  0  0  0
 27 83  1  0  0  0  0
 28 31  2  0  0  0  0
 28 82  1  0  0  0  0
 29 84  1  0  0  0  0
 30 85  1  0  0  0  0
 31 86  1  0  0  0  0
 32 65  2  0  0  0  0
 33 66  1  0  0  0  0
 33 70  1  0  0  0  0
 34 43  1  0  0  0  0
 34 67  1  0  0  0  0
 34 76  2  0  0  0  0
 35 71  1  0  0  0  0
 35 77  2  0  0  0  0
 36 53  1  0  0  0  0
 36 73  1  0  0  0  0
 36 78  2  0  0  0  0
 37 62  1  0  0  0  0
 37 68  1  0  0  0  0
 37 79  2  0  0  0  0
 38 63  1  0  0  0  0
 38 74  1  0  0  0  0
 38 80  2  0  0  0  0
 39 69  1  0  0  0  0
 39 72  1  0  0  0  0
 39 81  2  0  0  0  0
 40 44  1  0  0  0  0
 41 53  1  0  0  0  0
 42 68  1  0  0  0  0
 43 45  1  0  0  0  0
 44 47  1  0  0  0  0
 45 54  1  0  0  0  0
 46 48  1  0  0  0  0
 46 49  1  0  0  0  0
 47 52  1  0  0  0  0
 48 55  1  0  0  0  0
 49 69  1  0  0  0  0
 50 54  1  0  0  0  0
 50 67  1  0  0  0  0
 51 55  1  0  0  0  0
 51 69  1  0  0  0  0
 52 73  1  0  0  0  0
 53 68  1  0  0  0  0
 54 61  1  0  0  0  0
 55 66  1  0  0  0  0
 56 63  1  0  0  0  0
 57 64  1  0  0  0  0
 58 64  1  0  0  0  0
 59 64  1  0  0  0  0
 60 75  1  0  0  0  0
 61 83  1  0  0  0  0
 62 64  1  0  0  0  0
 62 74  1  0  0  0  0
 63 75  1  0  0  0  0
 65 66  1  0  0  0  0
M  CHG  1  75   1
M  ISO  4  39 100  61 101  72 100  83 101
M  END
> <Batch ID>
0062

> <Smiles>
CNC(C)C(=O)NC(C(=O)N1Cc2cc([101O:1][101CH2:1]C3CCC(=O)N(c4ccc([100NH:0][100C:0](=O)N5CCCC(n6nc(-c7ccc(Oc8ccc(F)cc8F)cc7)c(C(N)=O)c6N)C5)cc4F)C3)ccc2CC1C(=O)NC1CCCc2ccccc21)C(C)(C)C

> <Shape>
0.226

> <Color>
0.166

> <Negative vol penalty>
0.000

$$$$

  -OEChem-04042323093D

 89 98  0     1  0  0  0  0  0999 V2000
  -27.7336  -36.4378   18.2293 C   0  0  0  0  0  0  0  0  0  0  0  0
  -28.4033  -35.2269   18.0848 C   0  0  0  0  0  0  0  0  0  0  0  0
  -33.7042  -16.9389   22.6837 C   0  0  0  0  0  0  0  0  0  0  0  0
  -23.4253  -11.0179   23.2948 C   0  0  0  0  0  0  0  0  0  0  0  0
  -24.9223  -12.4163   24.5757 C   0  0  0  0  0  0  0  0  0  0  0  0
  -26.8809  -36.6362   19.3144 C   0  0  0  0  0  0  0  0  0  0  0  0
  -28.2214  -34.2142   19.0259 C   0  0  0  0  0  0  0  0  0  0  0  0
  -27.9990  -27.0750   19.5723 C   0  0  0  0  0  0  0  0  0  0  0  0
  -33.1744  -17.9283   23.5120 C   0  0  0  0  0  0  0  0  0  0  0  0
  -32.8530  -16.1328   21.9277 C   0  0  0  0  0  0  0  0  0  0  0  0
  -22.9455  -10.4503   24.4751 C   0  0  0  0  0  0  0  0  0  0  0  0
  -24.4424  -11.8487   25.7561 C   0  0  0  0  0  0  0  0  0  0  0  0
  -28.5631  -26.0329   20.3069 C   0  0  0  0  0  0  0  0  0  0  0  0
  -20.7843  -11.2806   26.9394 C   0  0  0  0  0  0  0  0  0  0  0  0
  -19.4039  -11.1304   27.0721 C   0  0  0  0  0  0  0  0  0  0  0  0
  -27.0044  -26.4596   22.0978 C   0  0  0  0  0  0  0  0  0  0  0  0
  -19.6860   -8.7421   27.3039 C   0  0  0  0  0  0  0  0  0  0  0  0
  -24.4138  -12.0009   23.3451 C   0  0  0  0  0  0  0  0  0  0  0  0
  -24.1701  -13.2952   21.1603 C   0  0  0  0  0  0  0  0  0  0  0  0
  -26.6810  -35.6219   20.2641 C   0  0  0  0  0  0  0  0  0  0  0  0
  -26.9387  -27.8255   20.1003 C   0  0  0  0  0  0  0  0  0  0  0  0
  -27.3662  -34.3998   20.1254 C   0  0  0  0  0  0  0  0  0  0  0  0
  -26.4269  -27.5090   21.3668 C   0  0  0  0  0  0  0  0  0  0  0  0
  -31.7935  -18.1116   23.5843 C   0  0  0  0  0  0  0  0  0  0  0  0
  -30.9424  -17.3055   22.8284 C   0  0  0  0  0  0  0  0  0  0  0  0
  -31.4722  -16.3161   22.0000 C   0  0  0  0  0  0  0  0  0  0  0  0
  -23.4540  -10.8657   25.7057 C   0  0  0  0  0  0  0  0  0  0  0  0
  -28.0677  -25.7269   21.5710 C   0  0  0  0  0  0  0  0  0  0  0  0
  -21.6156  -10.1615   26.9889 C   0  0  0  0  0  0  0  0  0  0  0  0
  -18.8548   -9.8612   27.2544 C   0  0  0  0  0  0  0  0  0  0  0  0
  -21.0664   -8.8923   27.1711 C   0  0  0  0  0  0  0  0  0  0  0  0
  -24.9102  -12.5872   22.1261 C   0  0  0  0  0  0  0  0  0  0  0  0
  -25.0942  -13.6402   20.2046 C   0  0  0  0  0  0  0  0  0  0  0  0
  -29.4774  -20.7737   23.8511 C   0  0  0  0  0  0  0  0  0  0  0  0
  -27.9473  -17.7210   20.9159 C   0  0  0  0  0  0  0  0  0  0  0  0
  -28.9019  -18.2205   21.7090 C   0  0  0  0  0  0  0  0  0  0  0  0
  -22.7722  -13.6127   21.1299 C   0  0  0  0  0  0  0  0  0  0  0  0
  -26.5173  -30.8811   20.8680 C   0  0  0  0  0  0  0  0  0  0  0  0
  -23.4618  -29.9249   21.3894 C   0  0  0  0  0  0  0  0  0  0  0  0
  -21.3060  -27.3804   22.1142 C   0  0  0  0  0  0  0  0  0  0  0  0
  -31.0105  -14.4641   20.3559 C   0  0  0  0  0  0  0  0  0  0  0  0
  -25.7860  -35.9000   21.4457 C   0  0  0  0  0  0  0  0  0  0  0  0
  -26.3236  -28.9292   19.2842 C   0  0  0  0  0  0  0  0  0  0  0  0
  -25.2766  -28.2712   21.9704 C   0  0  0  0  0  0  0  0  0  0  0  0
  -29.0569  -21.9451   22.9837 C   0  0  0  0  0  0  0  0  0  0  0  0
  -25.3585  -34.6410   22.1957 C   0  0  0  0  0  0  0  0  0  0  0  0
  -29.2320  -12.1706   18.2934 C   0  0  0  0  0  0  0  0  0  0  0  0
  -26.5582  -33.7303   22.4373 C   0  0  0  0  0  0  0  0  0  0  0  0
  -27.8526  -12.0862   18.9508 C   0  0  0  0  0  0  0  0  0  0  0  0
  -31.3413  -22.1334   22.0586 C   0  0  0  0  0  0  0  0  0  0  0  0
  -30.3471  -12.3004   19.3295 C   0  0  0  0  0  0  0  0  0  0  0  0
  -31.8477  -21.1259   23.0755 C   0  0  0  0  0  0  0  0  0  0  0  0
  -28.7926  -13.3072   20.9540 C   0  0  0  0  0  0  0  0  0  0  0  0
  -27.1757  -33.2681   21.1119 C   0  0  1  0  0  0  0  0  0  0  0  0
  -25.5854  -29.9597   20.1330 C   0  0  1  0  0  0  0  0  0  0  0  0
  -30.1803  -22.9192   22.6536 C   0  0  1  0  0  0  0  0  0  0  0  0
  -27.6320  -13.2407   19.9479 C   0  0  2  0  0  0  0  0  0  0  0  0
  -18.8730  -26.9134   22.5134 C   0  0  0  0  0  0  0  0  0  0  0  0
  -23.6865  -31.1488   24.1754 C   0  0  0  0  0  0  0  0  0  0  0  0
  -21.6507  -29.8491   24.8345 C   0  0  0  0  0  0  0  0  0  0  0  0
  -21.5036  -31.5623   23.0273 C   0  0  0  0  0  0  0  0  0  0  0  0
  -21.1641  -25.5286   19.8099 C   0  0  0  0  0  0  0  0  0  0  0  0
  -29.4615  -17.5060   22.9092 C   0  0  0  0  0  0  0  0  0  0  0  0
  -31.2499  -19.1838   24.4838 C   0  0  0  0  0  0  0  0  0  0  0  0
  -29.6982  -23.9996   21.6890 C   0  0  0  0  0  0  0  0  0  1  0  0
  -22.6990  -29.3812   22.5733 C   0  0  1  0  0  0  0  0  0  0  0  0
  -19.9898  -26.9646   21.4825 C   0  0  2  0  0  0  0  0  0  0  0  0
  -22.4079  -30.4721   23.6423 C   0  0  0  0  0  0  0  0  0  0  0  0
  -26.2047  -12.4874   21.8125 N   0  0  0  0  0  0  0  0  0  0  0  0
  -26.2852  -13.1372   20.6388 N   0  0  0  0  0  0  0  0  0  0  0  0
  -30.7987  -20.3481   23.7333 N   0  0  0  0  0  0  0  0  0  0  0  0
  -24.7132  -29.3454   21.1361 N   0  0  0  0  0  0  0  0  0  0  0  0
  -30.0725  -13.4169   20.2367 N   0  0  0  0  0  0  0  0  0  0  0  0
  -24.9960  -14.3217   19.0434 N   0  0  0  0  0  0  0  0  0  0  0  0
  -21.9660  -13.1819   22.1923 N   0  0  0  0  0  0  0  0  0  0  0  0
  -30.6263  -15.4864   21.2230 N   0  0  0  0  0  0  0  0  0  0  0  0
  -26.3793  -32.2124   20.5242 N   0  0  0  0  0  0  0  0  0  0  0  0
  -21.5048  -28.7423   22.0310 N   0  0  0  0  0  0  0  0  0  0  0  0
  -20.1170  -25.6166   20.8600 N   0  3  0  0  0  0  0  0  0  0  0  0
  -28.6284  -20.2105   24.5477 O   0  0  0  0  0  0  0  0  0  0  0  0
  -22.2505  -14.2451   20.1805 O   0  0  0  0  0  0  0  0  0  0  0  0
  -27.3023  -30.4187   21.6875 O   0  0  0  0  0  0  0  0  0  0  0  0
  -22.9625  -30.8253   20.7101 O   0  0  0  0  0  0  0  0  0  0  0  0
  -22.0788  -26.5778   22.6331 O   0  0  0  0  0  0  0  0  0  0  0  0
  -32.0640  -14.4679   19.7139 O   0  0  0  0  0  0  0  0  0  0  0  0
  -22.9858  -10.3123   26.8577 O   0  0  0  0  0  0  0  0  0  0  0  0
  -28.6169  -24.7107   22.2904 O   0  0  0  0  0  0  0  0  0  1  0  0
  -17.5293   -9.7174   27.3833 F   0  0  0  0  0  0  0  0  0  0  0  0
  -21.8600   -7.8136   27.2206 F   0  0  0  0  0  0  0  0  0  0  0  0
  1  2  1  0  0  0  0
  1  6  2  0  0  0  0
  2  7  2  0  0  0  0
  3  9  1  0  0  0  0
  3 10  2  0  0  0  0
  4 11  2  0  0  0  0
  4 18  1  0  0  0  0
  5 12  1  0  0  0  0
  5 18  2  0  0  0  0
  6 20  1  0  0  0  0
  7 22  1  0  0  0  0
  8 13  2  0  0  0  0
  8 21  1  0  0  0  0
  9 24  2  0  0  0  0
 10 26  1  0  0  0  0
 11 27  1  0  0  0  0
 12 27  2  0  0  0  0
 13 28  1  0  0  0  0
 14 15  2  0  0  0  0
 14 29  1  0  0  0  0
 15 30  1  0  0  0  0
 16 23  1  0  0  0  0
 16 28  2  0  0  0  0
 17 30  2  0  0  0  0
 17 31  1  0  0  0  0
 18 32  1  0  0  0  0
 19 32  1  0  0  0  0
 19 33  2  0  0  0  0
 19 37  1  0  0  0  0
 20 22  2  0  0  0  0
 20 42  1  0  0  0  0
 21 23  2  0  0  0  0
 21 43  1  0  0  0  0
 22 54  1  0  0  0  0
 23 44  1  0  0  0  0
 24 25  1  0  0  0  0
 24 64  1  0  0  0  0
 25 26  2  0  0  0  0
 25 63  1  0  0  0  0
 26 76  1  0  0  0  0
 27 86  1  0  0  0  0
 28 87  1  0  0  0  0
 29 31  2  0  0  0  0
 29 86  1  0  0  0  0
 30 88  1  0  0  0  0
 31 89  1  0  0  0  0
 32 69  2  0  0  0  0
 33 70  1  0  0  0  0
 33 74  1  0  0  0  0
 34 45  1  0  0  0  0
 34 71  1  0  0  0  0
 34 80  2  0  0  0  0
 35 36  2  0  0  0  0
 36 63  1  0  0  0  0
 37 75  1  0  0  0  0
 37 81  2  0  0  0  0
 38 55  1  0  0  0  0
 38 77  1  0  0  0  0
 38 82  2  0  0  0  0
 39 66  1  0  0  0  0
 39 72  1  0  0  0  0
 39 83  2  0  0  0  0
 40 67  1  0  0  0  0
 40 78  1  0  0  0  0
 40 84  2  0  0  0  0
 41 73  1  0  0  0  0
 41 76  1  0  0  0  0
 41 85  2  0  0  0  0
 42 46  1  0  0  0  0
 43 55  1  0  0  0  0
 44 72  1  0  0  0  0
 45 56  1  0  0  0  0
 46 48  1  0  0  0  0
 47 49  1  0  0  0  0
 47 51  1  0  0  0  0
 48 54  1  0  0  0  0
 49 57  1  0  0  0  0
 50 52  1  0  0  0  0
 50 56  1  0  0  0  0
 51 73  1  0  0  0  0
 52 71  1  0  0  0  0
 53 57  1  0  0  0  0
 53 73  1  0  0  0  0
 54 77  1  0  0  0  0
 55 72  1  0  0  0  0
 56 65  1  0  0  0  0
 57 70  1  0  0  0  0
 58 67  1  0  0  0  0
 59 68  1  0  0  0  0
 60 68  1  0  0  0  0
 61 68  1  0  0  0  0
 62 79  1  0  0  0  0
 64 71  1  0  0  0  0
 65 87  1  0  0  0  0
 66 68  1  0  0  0  0
 66 78  1  0  0  0  0
 67 79  1  0  0  0  0
 69 70  1  0  0  0  0
M  CHG  1  79   1
M  ISO  4  41 100  65 101  76 100  87 101
M  END
> <Batch ID>
0062

> <Smiles>
C=CCc1c(CN2CCC([101CH2:1][101O:1]c3ccc4c(c3)CN(C(=O)C(NC(=O)C(C)NC)C(C)(C)C)C(C(=O)NC3CCCc5ccccc53)C4)CC2=O)cccc1[100NH:0][100C:0](=O)N1CCCC(n2nc(-c3ccc(Oc4ccc(F)cc4F)cc3)c(C(N)=O)c2N)C1

> <Shape>
0.249

> <Color>
0.106

> <Negative vol penalty>
0.000

$$$$

  -OEChem-04042323093D

 83 91  0     1  0  0  0  0  0999 V2000
  -25.0593   -9.9824   25.5744 C   0  0  0  0  0  0  0  0  0  0  0  0
  -25.3675  -11.3377   25.5140 C   0  0  0  0  0  0  0  0  0  0  0  0
  -22.6656  -10.1824   20.1258 C   0  0  0  0  0  0  0  0  0  0  0  0
  -24.2815   -9.4430   21.7627 C   0  0  0  0  0  0  0  0  0  0  0  0
  -23.7610   -9.5768   25.8805 C   0  0  0  0  0  0  0  0  0  0  0  0
  -24.3771  -12.2883   25.7587 C   0  0  0  0  0  0  0  0  0  0  0  0
  -25.9683  -16.0134   28.7978 C   0  0  0  0  0  0  0  0  0  0  0  0
  -31.2640  -19.0976   20.8794 C   0  0  0  0  0  0  0  0  0  0  0  0
  -31.1064  -17.7136   20.8074 C   0  0  0  0  0  0  0  0  0  0  0  0
  -21.9314   -9.0128   20.3222 C   0  0  0  0  0  0  0  0  0  0  0  0
  -23.5472   -8.2734   21.9592 C   0  0  0  0  0  0  0  0  0  0  0  0
  -26.7673  -17.0033   28.2271 C   0  0  0  0  0  0  0  0  0  0  0  0
  -20.7620   -7.3335   23.6263 C   0  0  0  0  0  0  0  0  0  0  0  0
  -20.5465   -6.9184   24.9404 C   0  0  0  0  0  0  0  0  0  0  0  0
  -24.8464  -18.4539   28.0687 C   0  0  0  0  0  0  0  0  0  0  0  0
  -29.4784  -17.8062   22.5902 C   0  0  0  0  0  0  0  0  0  0  0  0
  -21.6915   -4.8430   24.4726 C   0  0  0  0  0  0  0  0  0  0  0  0
  -23.8407  -10.3975   20.8459 C   0  0  0  0  0  0  0  0  0  0  0  0
  -24.1627  -12.9281   20.8444 C   0  0  0  0  0  0  0  0  0  0  0  0
  -22.7564  -10.5229   26.1386 C   0  0  0  0  0  0  0  0  0  0  0  0
  -24.5979  -16.2328   28.9985 C   0  0  0  0  0  0  0  0  0  0  0  0
  -23.0637  -11.8950   26.0673 C   0  0  0  0  0  0  0  0  0  0  0  0
  -24.0328  -17.4662   28.6444 C   0  0  0  0  0  0  0  0  0  0  0  0
  -30.5288  -19.8360   21.8069 C   0  0  0  0  0  0  0  0  0  0  0  0
  -30.2136  -17.0679   21.6628 C   0  0  0  0  0  0  0  0  0  0  0  0
  -29.6360  -19.1903   22.6622 C   0  0  0  0  0  0  0  0  0  0  0  0
  -22.3722   -8.0583   21.2390 C   0  0  0  0  0  0  0  0  0  0  0  0
  -26.2058  -18.2227   27.8598 C   0  0  0  0  0  0  0  0  0  0  0  0
  -21.4421   -6.5032   22.7352 C   0  0  0  0  0  0  0  0  0  0  0  0
  -21.0113   -5.6732   25.3635 C   0  0  0  0  0  0  0  0  0  0  0  0
  -21.9069   -5.2580   23.1584 C   0  0  0  0  0  0  0  0  0  0  0  0
  -24.5999  -11.6052   20.6430 C   0  0  0  0  0  0  0  0  0  0  0  0
  -25.2481  -13.7024   20.5145 C   0  0  0  0  0  0  0  0  0  0  0  0
  -22.8893  -13.4136   21.2898 C   0  0  0  0  0  0  0  0  0  0  0  0
  -21.9290  -14.8807   27.9249 C   0  0  0  0  0  0  0  0  0  0  0  0
  -20.5200  -16.8922   30.0442 C   0  0  0  0  0  0  0  0  0  0  0  0
  -27.9575  -19.4252   24.5254 C   0  0  0  0  0  0  0  0  0  0  0  0
  -20.6934  -19.7820   31.8512 C   0  0  0  0  0  0  0  0  0  0  0  0
  -30.7064  -14.7815   20.7268 C   0  0  0  0  0  0  0  0  0  0  0  0
  -21.3564  -10.0370   26.4189 C   0  0  0  0  0  0  0  0  0  0  0  0
  -23.7551  -15.1647   29.6398 C   0  0  0  0  0  0  0  0  0  0  0  0
  -22.5708  -17.7590   28.8576 C   0  0  0  0  0  0  0  0  0  0  0  0
  -20.4532  -11.1034   27.0332 C   0  0  0  0  0  0  0  0  0  0  0  0
  -29.6049  -12.4733   18.2497 C   0  0  0  0  0  0  0  0  0  0  0  0
  -20.5882  -12.4194   26.2738 C   0  0  0  0  0  0  0  0  0  0  0  0
  -28.1686  -12.1505   18.6681 C   0  0  0  0  0  0  0  0  0  0  0  0
  -30.5211  -12.6524   19.4588 C   0  0  0  0  0  0  0  0  0  0  0  0
  -28.6121  -13.2960   20.8768 C   0  0  0  0  0  0  0  0  0  0  0  0
  -22.0226  -12.9561   26.3508 C   0  0  1  0  0  0  0  0  0  0  0  0
  -22.2691  -15.3069   29.3251 C   0  0  1  0  0  0  0  0  0  0  0  0
  -27.6377  -13.1708   19.6941 C   0  0  2  0  0  0  0  0  0  0  0  0
  -30.7180  -21.3172   21.8617 C   0  0  0  0  0  0  0  0  0  0  0  0
  -19.3726  -21.1792   33.4639 C   0  0  0  0  0  0  0  0  0  0  0  0
  -18.7729  -17.8860   27.7485 C   0  0  0  0  0  0  0  0  0  0  0  0
  -18.1789  -19.8720   29.1525 C   0  0  0  0  0  0  0  0  0  0  0  0
  -17.5683  -17.5778   29.9184 C   0  0  0  0  0  0  0  0  0  0  0  0
  -22.7492  -19.4977   33.9612 C   0  0  0  0  0  0  0  0  0  0  0  0
  -27.3717  -20.5583   25.3603 C   0  0  0  0  0  0  0  0  0  0  0  0
  -26.3520  -20.0813   26.3833 C   0  0  0  0  0  0  0  0  0  1  0  0
  -19.9890  -18.3042   29.9873 C   0  0  1  0  0  0  0  0  0  0  0  0
  -20.4070  -20.0747   33.3130 C   0  0  2  0  0  0  0  0  0  0  0  0
  -18.6545  -18.4041   29.1958 C   0  0  0  0  0  0  0  0  0  0  0  0
  -25.8644  -11.5391   20.2180 N   0  0  0  0  0  0  0  0  0  0  0  0
  -26.2310  -12.8302   20.1495 N   0  0  0  0  0  0  0  0  0  0  0  0
  -21.7870  -16.6806   29.4822 N   0  0  0  0  0  0  0  0  0  0  0  0
  -29.9564  -13.6363   20.3850 N   0  0  0  0  0  0  0  0  0  0  0  0
  -25.4480  -15.0375   20.5039 N   0  0  0  0  0  0  0  0  0  0  0  0
  -22.6857  -13.5910   22.6651 N   0  0  0  0  0  0  0  0  0  0  0  0
  -28.8814  -19.9220   23.6098 N   0  0  0  0  0  0  0  0  0  0  0  0
  -30.0539  -15.6619   21.5892 N   0  0  0  0  0  0  0  0  0  0  0  0
  -22.2637  -13.5710   27.6386 N   0  0  0  0  0  0  0  0  0  0  0  0
  -19.8997  -18.7627   31.3694 N   0  0  0  0  0  0  0  0  0  0  0  0
  -21.6537  -20.5000   34.0100 N   0  3  0  0  0  0  0  0  0  0  0  0
  -21.9540  -13.6666   20.4931 O   0  0  0  0  0  0  0  0  0  0  0  0
  -21.4006  -15.6805   27.1615 O   0  0  0  0  0  0  0  0  0  0  0  0
  -19.8389  -16.0108   30.5742 O   0  0  0  0  0  0  0  0  0  0  0  0
  -27.6215  -18.2564   24.6839 O   0  0  0  0  0  0  0  0  0  0  0  0
  -21.5343  -20.3987   31.2007 O   0  0  0  0  0  0  0  0  0  0  0  0
  -31.8330  -14.9810   20.2652 O   0  0  0  0  0  0  0  0  0  0  0  0
  -21.6559   -6.9171   21.4311 O   0  0  0  0  0  0  0  0  0  0  0  0
  -26.9833  -19.1903   27.3020 O   0  0  0  0  0  0  0  0  0  1  0  0
  -20.8057   -5.2754   26.6259 F   0  0  0  0  0  0  0  0  0  0  0  0
  -22.5620   -4.4566   22.3073 F   0  0  0  0  0  0  0  0  0  0  0  0
  1  2  1  0  0  0  0
  1  5  2  0  0  0  0
  2  6  2  0  0  0  0
  3 10  2  0  0  0  0
  3 18  1  0  0  0  0
  4 11  1  0  0  0  0
  4 18  2  0  0  0  0
  5 20  1  0  0  0  0
  6 22  1  0  0  0  0
  7 12  2  0  0  0  0
  7 21  1  0  0  0  0
  8  9  2  0  0  0  0
  8 24  1  0  0  0  0
  9 25  1  0  0  0  0
 10 27  1  0  0  0  0
 11 27  2  0  0  0  0
 12 28  1  0  0  0  0
 13 14  2  0  0  0  0
 13 29  1  0  0  0  0
 14 30  1  0  0  0  0
 15 23  1  0  0  0  0
 15 28  2  0  0  0  0
 16 25  2  0  0  0  0
 16 26  1  0  0  0  0
 17 30  2  0  0  0  0
 17 31  1  0  0  0  0
 18 32  1  0  0  0  0
 19 32  1  0  0  0  0
 19 33  2  0  0  0  0
 19 34  1  0  0  0  0
 20 22  2  0  0  0  0
 20 40  1  0  0  0  0
 21 23  2  0  0  0  0
 21 41  1  0  0  0  0
 22 49  1  0  0  0  0
 23 42  1  0  0  0  0
 24 26  2  0  0  0  0
 24 52  1  0  0  0  0
 25 70  1  0  0  0  0
 26 69  1  0  0  0  0
 27 80  1  0  0  0  0
 28 81  1  0  0  0  0
 29 31  2  0  0  0  0
 29 80  1  0  0  0  0
 30 82  1  0  0  0  0
 31 83  1  0  0  0  0
 32 63  2  0  0  0  0
 33 64  1  0  0  0  0
 33 67  1  0  0  0  0
 34 68  1  0  0  0  0
 34 74  2  0  0  0  0
 35 50  1  0  0  0  0
 35 71  1  0  0  0  0
 35 75  2  0  0  0  0
 36 60  1  0  0  0  0
 36 65  1  0  0  0  0
 36 76  2  0  0  0  0
 37 58  1  0  0  0  0
 37 69  1  0  0  0  0
 37 77  2  0  0  0  0
 38 61  1  0  0  0  0
 38 72  1  0  0  0  0
 38 78  2  0  0  0  0
 39 66  1  0  0  0  0
 39 70  1  0  0  0  0
 39 79  2  0  0  0  0
 40 43  1  0  0  0  0
 41 50  1  0  0  0  0
 42 65  1  0  0  0  0
 43 45  1  0  0  0  0
 44 46  1  0  0  0  0
 44 47  1  0  0  0  0
 45 49  1  0  0  0  0
 46 51  1  0  0  0  0
 47 66  1  0  0  0  0
 48 51  1  0  0  0  0
 48 66  1  0  0  0  0
 49 71  1  0  0  0  0
 50 65  1  0  0  0  0
 51 64  1  0  0  0  0
 53 61  1  0  0  0  0
 54 62  1  0  0  0  0
 55 62  1  0  0  0  0
 56 62  1  0  0  0  0
 57 73  1  0  0  0  0
 58 59  1  0  0  0  0
 59 81  1  0  0  0  0
 60 62  1  0  0  0  0
 60 72  1  0  0  0  0
 61 73  1  0  0  0  0
 63 64  1  0  0  0  0
M  CHG  1  73   1
M  ISO  4  39 100  59 101  70 100  81 101
M  END
> <Batch ID>
0062

> <Smiles>
CNC(C)C(=O)NC(C(=O)N1Cc2cc([101O:1][101CH2:1]CC(=O)Nc3cc([100NH:0][100C:0](=O)N4CCCC(n5nc(-c6ccc(Oc7ccc(F)cc7F)cc6)c(C(N)=O)c5N)C4)ccc3C)ccc2CC1C(=O)NC1CCCc2ccccc21)C(C)(C)C

> <Shape>
0.192

> <Color>
0.178

> <Negative vol penalty>
0.000

$$$$

  -OEChem-04042323093D

 84 92  0     1  0  0  0  0  0999 V2000
  -32.7276  -19.1908   14.6421 C   0  0  0  0  0  0  0  0  0  0  0  0
  -31.7665  -19.3102   15.6407 C   0  0  0  0  0  0  0  0  0  0  0  0
  -23.0745   -9.8673   19.9438 C   0  0  0  0  0  0  0  0  0  0  0  0
  -23.8314   -9.8794   22.2381 C   0  0  0  0  0  0  0  0  0  0  0  0
  -34.0451  -19.5703   14.8952 C   0  0  0  0  0  0  0  0  0  0  0  0
  -32.1226  -19.8083   16.8935 C   0  0  0  0  0  0  0  0  0  0  0  0
  -28.6801  -23.2656   20.5952 C   0  0  0  0  0  0  0  0  0  0  0  0
  -32.6477  -17.4974   23.4512 C   0  0  0  0  0  0  0  0  0  0  0  0
  -32.0607  -16.6114   22.5478 C   0  0  0  0  0  0  0  0  0  0  0  0
  -22.3299   -8.7150   20.1955 C   0  0  0  0  0  0  0  0  0  0  0  0
  -23.0867   -8.7272   22.4899 C   0  0  0  0  0  0  0  0  0  0  0  0
  -27.8955  -22.9571   21.7056 C   0  0  0  0  0  0  0  0  0  0  0  0
  -19.3794   -7.9230   21.6448 C   0  0  0  0  0  0  0  0  0  0  0  0
  -18.0731   -7.8760   21.1579 C   0  0  0  0  0  0  0  0  0  0  0  0
  -29.7287  -23.5484   23.1577 C   0  0  0  0  0  0  0  0  0  0  0  0
  -29.8764  -17.4623   23.1324 C   0  0  0  0  0  0  0  0  0  0  0  0
  -18.6339   -5.9296   19.8411 C   0  0  0  0  0  0  0  0  0  0  0  0
  -23.8253  -10.4495   20.9651 C   0  0  0  0  0  0  0  0  0  0  0  0
  -24.1682  -12.9742   20.8394 C   0  0  0  0  0  0  0  0  0  0  0  0
  -34.4156  -20.0823   16.1486 C   0  0  0  0  0  0  0  0  0  0  0  0
  -30.0008  -23.7083   20.7577 C   0  0  0  0  0  0  0  0  0  0  0  0
  -33.4466  -20.1938   17.1641 C   0  0  0  0  0  0  0  0  0  0  0  0
  -30.5272  -23.8644   22.0479 C   0  0  0  0  0  0  0  0  0  0  0  0
  -31.8490  -18.3658   24.1952 C   0  0  0  0  0  0  0  0  0  0  0  0
  -30.6751  -16.5939   22.3884 C   0  0  0  0  0  0  0  0  0  0  0  0
  -30.4634  -18.3483   24.0358 C   0  0  0  0  0  0  0  0  0  0  0  0
  -22.3359   -8.1450   21.4685 C   0  0  0  0  0  0  0  0  0  0  0  0
  -28.4207  -23.0957   22.9870 C   0  0  0  0  0  0  0  0  0  0  0  0
  -20.3130   -6.9732   21.2297 C   0  0  0  0  0  0  0  0  0  0  0  0
  -17.7003   -6.8794   20.2561 C   0  0  0  0  0  0  0  0  0  0  0  0
  -19.9402   -5.9766   20.3279 C   0  0  0  0  0  0  0  0  0  0  0  0
  -24.5952  -11.6394   20.7055 C   0  0  0  0  0  0  0  0  0  0  0  0
  -25.2611  -13.7224   20.4758 C   0  0  0  0  0  0  0  0  0  0  0  0
  -22.8974  -13.4915   21.2554 C   0  0  0  0  0  0  0  0  0  0  0  0
  -32.8566  -22.6100   19.8966 C   0  0  0  0  0  0  0  0  0  0  0  0
  -33.8767  -25.4462   21.0957 C   0  0  0  0  0  0  0  0  0  0  0  0
  -28.2487  -19.3224   24.7350 C   0  0  0  0  0  0  0  0  0  0  0  0
  -33.3119  -28.0737   23.1990 C   0  0  0  0  0  0  0  0  0  0  0  0
  -30.7275  -14.7664   20.6552 C   0  0  0  0  0  0  0  0  0  0  0  0
  -35.8619  -20.4350   16.3901 C   0  0  0  0  0  0  0  0  0  0  0  0
  -30.8253  -24.0625   19.5506 C   0  0  0  0  0  0  0  0  0  0  0  0
  -31.9325  -24.3553   22.2770 C   0  0  0  0  0  0  0  0  0  0  0  0
  -36.0787  -21.3044   17.6260 C   0  0  0  0  0  0  0  0  0  0  0  0
  -29.6153  -12.3473   18.2913 C   0  0  0  0  0  0  0  0  0  0  0  0
  -35.2957  -20.7506   18.8122 C   0  0  0  0  0  0  0  0  0  0  0  0
  -28.1750  -12.0573   18.7196 C   0  0  0  0  0  0  0  0  0  0  0  0
  -30.5289  -12.5786   19.4936 C   0  0  0  0  0  0  0  0  0  0  0  0
  -28.6204  -13.3071   20.8706 C   0  0  0  0  0  0  0  0  0  0  0  0
  -33.7888  -20.7529   18.5280 C   0  0  1  0  0  0  0  0  0  0  0  0
  -32.3266  -24.0137   19.8172 C   0  0  1  0  0  0  0  0  0  0  0  0
  -27.6491  -13.1314   19.6919 C   0  0  2  0  0  0  0  0  0  0  0  0
  -32.5050  -19.3041   25.1555 C   0  0  0  0  0  0  0  0  0  0  0  0
  -34.3427  -30.2205   23.9903 C   0  0  0  0  0  0  0  0  0  0  0  0
  -35.8205  -23.8674   22.8390 C   0  0  0  0  0  0  0  0  0  0  0  0
  -36.1197  -25.9193   24.2421 C   0  0  0  0  0  0  0  0  0  0  0  0
  -36.7746  -25.9499   21.8353 C   0  0  0  0  0  0  0  0  0  0  0  0
  -31.0407  -29.6748   22.1805 C   0  0  0  0  0  0  0  0  0  0  0  0
  -27.7586  -20.3914   25.7019 C   0  0  0  0  0  0  0  0  0  0  0  0
  -26.4716  -21.0616   25.2334 C   0  0  0  0  0  0  0  0  0  0  0  0
  -26.6639  -21.7834   23.9076 C   0  0  0  0  0  0  0  0  0  1  0  0
  -34.3229  -25.9348   22.4526 C   0  0  1  0  0  0  0  0  0  0  0  0
  -33.4035  -29.5737   22.9841 C   0  0  2  0  0  0  0  0  0  0  0  0
  -35.7335  -25.4067   22.8382 C   0  0  0  0  0  0  0  0  0  0  0  0
  -25.8605  -11.5421   20.2891 N   0  0  0  0  0  0  0  0  0  0  0  0
  -26.2381  -12.8253   20.1582 N   0  0  0  0  0  0  0  0  0  0  0  0
  -32.7011  -24.6828   21.0647 N   0  0  0  0  0  0  0  0  0  0  0  0
  -29.9692  -13.6118   20.3677 N   0  0  0  0  0  0  0  0  0  0  0  0
  -25.4721  -15.0536   20.3999 N   0  0  0  0  0  0  0  0  0  0  0  0
  -21.8847  -12.5835   21.5936 N   0  0  0  0  0  0  0  0  0  0  0  0
  -29.6363  -19.2215   24.7817 N   0  0  0  0  0  0  0  0  0  0  0  0
  -30.0794  -15.6936   21.4705 N   0  0  0  0  0  0  0  0  0  0  0  0
  -33.2480  -22.0867   18.6790 N   0  0  0  0  0  0  0  0  0  0  0  0
  -34.2185  -27.3895   22.4173 N   0  0  0  0  0  0  0  0  0  0  0  0
  -32.0589  -30.2004   23.1261 N   0  3  0  0  0  0  0  0  0  0  0  0
  -22.6615  -14.7223   21.3095 O   0  0  0  0  0  0  0  0  0  0  0  0
  -32.9082  -22.0442   20.9823 O   0  0  0  0  0  0  0  0  0  0  0  0
  -34.5427  -25.7374   20.0991 O   0  0  0  0  0  0  0  0  0  0  0  0
  -27.4774  -18.6728   24.0370 O   0  0  0  0  0  0  0  0  0  0  0  0
  -32.5182  -27.5606   23.9846 O   0  0  0  0  0  0  0  0  0  0  0  0
  -31.8573  -14.9335   20.1887 O   0  0  0  0  0  0  0  0  0  0  0  0
  -21.6092   -7.0207   21.7146 O   0  0  0  0  0  0  0  0  0  0  0  0
  -27.6572  -22.7946   24.0725 O   0  0  0  0  0  0  0  0  0  1  0  0
  -16.4455   -6.8335   19.7898 F   0  0  0  0  0  0  0  0  0  0  0  0
  -20.8323   -5.0607   19.9265 F   0  0  0  0  0  0  0  0  0  0  0  0
  1  2  1  0  0  0  0
  1  5  2  0  0  0  0
  2  6  2  0  0  0  0
  3 10  2  0  0  0  0
  3 18  1  0  0  0  0
  4 11  1  0  0  0  0
  4 18  2  0  0  0  0
  5 20  1  0  0  0  0
  6 22  1  0  0  0  0
  7 12  2  0  0  0  0
  7 21  1  0  0  0  0
  8  9  2  0  0  0  0
  8 24  1  0  0  0  0
  9 25  1  0  0  0  0
 10 27  1  0  0  0  0
 11 27  2  0  0  0  0
 12 28  1  0  0  0  0
 13 14  2  0  0  0  0
 13 29  1  0  0  0  0
 14 30  1  0  0  0  0
 15 23  1  0  0  0  0
 15 28  2  0  0  0  0
 16 25  2  0  0  0  0
 16 26  1  0  0  0  0
 17 30  2  0  0  0  0
 17 31  1  0  0  0  0
 18 32  1  0  0  0  0
 19 32  1  0  0  0  0
 19 33  2  0  0  0  0
 19 34  1  0  0  0  0
 20 22  2  0  0  0  0
 20 40  1  0  0  0  0
 21 23  2  0  0  0  0
 21 41  1  0  0  0  0
 22 49  1  0  0  0  0
 23 42  1  0  0  0  0
 24 26  2  0  0  0  0
 24 52  1  0  0  0  0
 25 71  1  0  0  0  0
 26 70  1  0  0  0  0
 27 81  1  0  0  0  0
 28 82  1  0  0  0  0
 29 31  2  0  0  0  0
 29 81  1  0  0  0  0
 30 83  1  0  0  0  0
 31 84  1  0  0  0  0
 32 64  2  0  0  0  0
 33 65  1  0  0  0  0
 33 68  1  0  0  0  0
 34 69  1  0  0  0  0
 34 75  2  0  0  0  0
 35 50  1  0  0  0  0
 35 72  1  0  0  0  0
 35 76  2  0  0  0  0
 36 61  1  0  0  0  0
 36 66  1  0  0  0  0
 36 77  2  0  0  0  0
 37 58  1  0  0  0  0
 37 70  1  0  0  0  0
 37 78  2  0  0  0  0
 38 62  1  0  0  0  0
 38 73  1  0  0  0  0
 38 79  2  0  0  0  0
 39 67  1  0  0  0  0
 39 71  1  0  0  0  0
 39 80  2  0  0  0  0
 40 43  1  0  0  0  0
 41 50  1  0  0  0  0
 42 66  1  0  0  0  0
 43 45  1  0  0  0  0
 44 46  1  0  0  0  0
 44 47  1  0  0  0  0
 45 49  1  0  0  0  0
 46 51  1  0  0  0  0
 47 67  1  0  0  0  0
 48 51  1  0  0  0  0
 48 67  1  0  0  0  0
 49 72  1  0  0  0  0
 50 66  1  0  0  0  0
 51 65  1  0  0  0  0
 53 62  1  0  0  0  0
 54 63  1  0  0  0  0
 55 63  1  0  0  0  0
 56 63  1  0  0  0  0
 57 74  1  0  0  0  0
 58 59  1  0  0  0  0
 59 60  1  0  0  0  0
 60 82  1  0  0  0  0
 61 63  1  0  0  0  0
 61 73  1  0  0  0  0
 62 74  1  0  0  0  0
 64 65  1  0  0  0  0
M  CHG  1  74   1
M  ISO  4  39 100  60 101  71 100  82 101
M  END
> <Batch ID>
0062

> <Smiles>
CNC(C)C(=O)NC(C(=O)N1Cc2cc([101O:1][101CH2:1]CCC(=O)Nc3cc([100NH:0][100C:0](=O)N4CCCC(n5nc(-c6ccc(Oc7ccc(F)cc7F)cc6)c(C(N)=O)c5N)C4)ccc3C)ccc2CC1C(=O)NC1CCCc2ccccc21)C(C)(C)C

> <Shape>
0.170

> <Color>
0.191

> <Negative vol penalty>
0.000

$$$$

  -OEChem-04042323093D

 88 97  0     1  0  0  0  0  0999 V2000
  -22.6073   -7.8378   20.5524 C   0  0  0  0  0  0  0  0  0  0  0  0
  -21.7855   -8.8858   20.1502 C   0  0  0  0  0  0  0  0  0  0  0  0
  -29.2615  -26.2020   19.6740 C   0  0  0  0  0  0  0  0  0  0  0  0
  -27.3303  -24.7891   19.3402 C   0  0  0  0  0  0  0  0  0  0  0  0
  -23.6949   -8.0875   21.3882 C   0  0  0  0  0  0  0  0  0  0  0  0
  -22.0503  -10.1842   20.5846 C   0  0  0  0  0  0  0  0  0  0  0  0
  -21.5521  -17.0002   18.4375 C   0  0  0  0  0  0  0  0  0  0  0  0
  -30.0332  -25.0779   19.9678 C   0  0  0  0  0  0  0  0  0  0  0  0
  -28.1020  -23.6649   19.6339 C   0  0  0  0  0  0  0  0  0  0  0  0
  -21.0455  -18.2283   18.8604 C   0  0  0  0  0  0  0  0  0  0  0  0
  -31.5790  -22.6022   18.2607 C   0  0  0  0  0  0  0  0  0  0  0  0
  -32.8397  -22.5091   17.6711 C   0  0  0  0  0  0  0  0  0  0  0  0
  -22.9988  -18.5527   20.2383 C   0  0  0  0  0  0  0  0  0  0  0  0
  -18.1359  -26.9023   23.2695 C   0  0  0  0  0  0  0  0  0  0  0  0
  -19.7444  -28.6947   23.4617 C   0  0  0  0  0  0  0  0  0  0  0  0
  -19.8837  -27.1390   21.6184 C   0  0  0  0  0  0  0  0  0  0  0  0
  -33.8596  -22.4527   19.8606 C   0  0  0  0  0  0  0  0  0  0  0  0
  -27.9100  -26.0577   19.3602 C   0  0  0  0  0  0  0  0  0  0  0  0
  -26.9046  -27.8009   17.7924 C   0  0  0  0  0  0  0  0  0  0  0  0
  -23.9788   -9.3910   21.8253 C   0  0  0  0  0  0  0  0  0  0  0  0
  -22.7828  -16.5333   18.9211 C   0  0  0  0  0  0  0  0  0  0  0  0
  -23.1420  -10.4513   21.4281 C   0  0  0  0  0  0  0  0  0  0  0  0
  -23.5200  -17.3194   19.8180 C   0  0  0  0  0  0  0  0  0  0  0  0
  -18.6256  -28.0183   23.9480 C   0  0  0  0  0  0  0  0  0  0  0  0
  -18.7650  -26.4626   22.1048 C   0  0  0  0  0  0  0  0  0  0  0  0
  -20.3735  -28.2550   22.2969 C   0  0  0  0  0  0  0  0  0  0  0  0
  -29.4535  -23.8093   19.9478 C   0  0  0  0  0  0  0  0  0  0  0  0
  -21.7675  -19.0035   19.7631 C   0  0  0  0  0  0  0  0  0  0  0  0
  -31.4586  -22.6205   19.6503 C   0  0  0  0  0  0  0  0  0  0  0  0
  -33.9799  -22.4344   18.4710 C   0  0  0  0  0  0  0  0  0  0  0  0
  -32.5989  -22.5457   20.4502 C   0  0  0  0  0  0  0  0  0  0  0  0
  -27.1122  -27.2186   19.0572 C   0  0  0  0  0  0  0  0  0  0  0  0
  -26.0786  -28.8704   18.0382 C   0  0  0  0  0  0  0  0  0  0  0  0
  -21.1587  -23.0914   20.1868 C   0  0  0  0  0  0  0  0  0  0  0  0
  -20.1211  -24.1897   20.2069 C   0  0  0  0  0  0  0  0  0  0  0  0
  -27.4129  -27.4099   16.5101 C   0  0  0  0  0  0  0  0  0  0  0  0
  -23.7165  -14.0090   20.6122 C   0  0  0  0  0  0  0  0  0  0  0  0
  -26.6788  -15.1689   19.9781 C   0  0  0  0  0  0  0  0  0  0  0  0
  -28.6289  -17.8520   19.1750 C   0  0  0  0  0  0  0  0  0  0  0  0
  -22.1235  -30.0663   22.3547 C   0  0  0  0  0  0  0  0  0  0  0  0
  -25.1379   -9.6048   22.7663 C   0  0  0  0  0  0  0  0  0  0  0  0
  -23.3279  -15.2185   18.4346 C   0  0  0  0  0  0  0  0  0  0  0  0
  -24.8558  -16.8727   20.3514 C   0  0  0  0  0  0  0  0  0  0  0  0
  -25.5698  -11.0646   22.8788 C   0  0  0  0  0  0  0  0  0  0  0  0
  -24.9575  -32.0273   21.4605 C   0  0  0  0  0  0  0  0  0  0  0  0
  -24.3547  -11.9681   23.0636 C   0  0  0  0  0  0  0  0  0  0  0  0
  -25.8099  -31.0715   20.6225 C   0  0  0  0  0  0  0  0  0  0  0  0
  -19.9996  -21.9841   22.0648 C   0  0  0  0  0  0  0  0  0  0  0  0
  -24.2622  -31.3048   22.6130 C   0  0  0  0  0  0  0  0  0  0  0  0
  -19.3321  -23.2997   22.4160 C   0  0  0  0  0  0  0  0  0  0  0  0
  -24.3310  -29.1697   21.3859 C   0  0  0  0  0  0  0  0  0  0  0  0
  -23.4112  -11.8771   21.8582 C   0  0  1  0  0  0  0  0  0  0  0  0
  -21.3551  -22.2538   21.4299 C   0  0  1  0  0  0  0  0  0  0  0  0
  -24.3499  -14.6061   19.3874 C   0  0  1  0  0  0  0  0  0  0  0  0
  -24.9996  -29.8394   20.1743 C   0  0  2  0  0  0  0  0  0  0  0  0
  -17.9530  -28.4882   25.1934 C   0  0  0  0  0  0  0  0  0  0  0  0
  -31.0186  -18.4972   18.7623 C   0  0  0  0  0  0  0  0  0  0  0  0
  -27.2166  -15.0880   22.9805 C   0  0  0  0  0  0  0  0  0  0  0  0
  -29.1815  -16.5919   22.5985 C   0  0  0  0  0  0  0  0  0  0  0  0
  -29.1267  -14.3255   21.5576 C   0  0  0  0  0  0  0  0  0  0  0  0
  -28.0434  -18.6943   16.3989 C   0  0  0  0  0  0  0  0  0  0  0  0
  -18.2376  -25.2615   21.3745 C   0  0  0  0  0  0  0  0  0  0  0  0
  -22.0675  -20.9446   21.1040 C   0  0  0  0  0  0  0  0  0  1  0  0
  -27.6144  -16.1402   20.6566 C   0  0  1  0  0  0  0  0  0  0  0  0
  -29.7162  -18.0304   18.1309 C   0  0  2  0  0  0  0  0  0  0  0  0
  -28.2587  -15.5442   21.9399 C   0  0  0  0  0  0  0  0  0  0  0  0
  -26.4700  -27.8647   20.0340 N   0  0  0  0  0  0  0  0  0  0  0  0
  -25.8508  -28.8641   19.3829 N   0  0  0  0  0  0  0  0  0  0  0  0
  -19.2327  -24.2038   21.2757 N   0  0  0  0  0  0  0  0  0  0  0  0
  -25.3434  -15.5769   19.8507 N   0  0  0  0  0  0  0  0  0  0  0  0
  -23.5108  -30.1517   22.1124 N   0  0  0  0  0  0  0  0  0  0  0  0
  -25.5323  -29.8062   17.2331 N   0  0  0  0  0  0  0  0  0  0  0  0
  -28.2481  -26.2869   16.4365 N   0  0  0  0  0  0  0  0  0  0  0  0
  -21.5099  -28.9422   21.8028 N   0  0  0  0  0  0  0  0  0  0  0  0
  -23.9301  -12.6508   20.7507 N   0  0  0  0  0  0  0  0  0  0  0  0
  -28.5771  -16.5558   19.6423 N   0  0  0  0  0  0  0  0  0  0  0  0
  -29.2988  -19.0379   17.1152 N   0  3  0  0  0  0  0  0  0  0  0  0
  -21.8311  -22.9797   19.1686 O   0  0  0  0  0  0  0  0  0  0  0  0
  -20.1397  -24.9724   19.2631 O   0  0  0  0  0  0  0  0  0  0  0  0
  -27.1478  -28.0475   15.4628 O   0  0  0  0  0  0  0  0  0  0  0  0
  -23.0824  -14.7276   21.3758 O   0  0  0  0  0  0  0  0  0  0  0  0
  -27.1181  -14.0911   19.5697 O   0  0  0  0  0  0  0  0  0  0  0  0
  -27.9008  -18.7716   19.5424 O   0  0  0  0  0  0  0  0  0  0  0  0
  -21.5190  -30.9408   22.9806 O   0  0  0  0  0  0  0  0  0  0  0  0
  -30.2063  -22.7121   20.2341 O   0  0  0  0  0  0  0  0  0  0  0  0
  -21.2751  -20.2023   20.1780 O   0  0  0  0  0  0  0  0  0  1  0  0
  -35.1904  -22.3435   17.9046 F   0  0  0  0  0  0  0  0  0  0  0  0
  -32.4894  -22.5617   21.7857 F   0  0  0  0  0  0  0  0  0  0  0  0
  1  2  1  0  0  0  0
  1  5  2  0  0  0  0
  2  6  2  0  0  0  0
  3  8  2  0  0  0  0
  3 18  1  0  0  0  0
  4  9  1  0  0  0  0
  4 18  2  0  0  0  0
  5 20  1  0  0  0  0
  6 22  1  0  0  0  0
  7 10  2  0  0  0  0
  7 21  1  0  0  0  0
  8 27  1  0  0  0  0
  9 27  2  0  0  0  0
 10 28  1  0  0  0  0
 11 12  2  0  0  0  0
 11 29  1  0  0  0  0
 12 30  1  0  0  0  0
 13 23  1  0  0  0  0
 13 28  2  0  0  0  0
 14 24  2  0  0  0  0
 14 25  1  0  0  0  0
 15 24  1  0  0  0  0
 15 26  2  0  0  0  0
 16 25  2  0  0  0  0
 16 26  1  0  0  0  0
 17 30  2  0  0  0  0
 17 31  1  0  0  0  0
 18 32  1  0  0  0  0
 19 32  1  0  0  0  0
 19 33  2  0  0  0  0
 19 36  1  0  0  0  0
 20 22  2  0  0  0  0
 20 41  1  0  0  0  0
 21 23  2  0  0  0  0
 21 42  1  0  0  0  0
 22 52  1  0  0  0  0
 23 43  1  0  0  0  0
 24 56  1  0  0  0  0
 25 62  1  0  0  0  0
 26 74  1  0  0  0  0
 27 85  1  0  0  0  0
 28 86  1  0  0  0  0
 29 31  2  0  0  0  0
 29 85  1  0  0  0  0
 30 87  1  0  0  0  0
 31 88  1  0  0  0  0
 32 67  2  0  0  0  0
 33 68  1  0  0  0  0
 33 72  1  0  0  0  0
 34 35  1  0  0  0  0
 34 53  1  0  0  0  0
 34 78  2  0  0  0  0
 35 69  1  0  0  0  0
 35 79  2  0  0  0  0
 36 73  1  0  0  0  0
 36 80  2  0  0  0  0
 37 54  1  0  0  0  0
 37 75  1  0  0  0  0
 37 81  2  0  0  0  0
 38 64  1  0  0  0  0
 38 70  1  0  0  0  0
 38 82  2  0  0  0  0
 39 65  1  0  0  0  0
 39 76  1  0  0  0  0
 39 83  2  0  0  0  0
 40 71  1  0  0  0  0
 40 74  1  0  0  0  0
 40 84  2  0  0  0  0
 41 44  1  0  0  0  0
 42 54  1  0  0  0  0
 43 70  1  0  0  0  0
 44 46  1  0  0  0  0
 45 47  1  0  0  0  0
 45 49  1  0  0  0  0
 46 52  1  0  0  0  0
 47 55  1  0  0  0  0
 48 50  1  0  0  0  0
 48 53  1  0  0  0  0
 49 71  1  0  0  0  0
 50 69  1  0  0  0  0
 51 55  1  0  0  0  0
 51 71  1  0  0  0  0
 52 75  1  0  0  0  0
 53 63  1  0  0  0  0
 54 70  1  0  0  0  0
 55 68  1  0  0  0  0
 57 65  1  0  0  0  0
 58 66  1  0  0  0  0
 59 66  1  0  0  0  0
 60 66  1  0  0  0  0
 61 77  1  0  0  0  0
 62 69  1  0  0  0  0
 63 86  1  0  0  0  0
 64 66  1  0  0  0  0
 64 76  1  0  0  0  0
 65 77  1  0  0  0  0
 67 68  1  0  0  0  0
M  CHG  1  77   1
M  ISO  4  40 100  63 101  74 100  86 101
M  END
> <Batch ID>
0062

> <Smiles>
CNC(C)C(=O)NC(C(=O)N1Cc2cc([101O:1][101CH2:1]C3CCN(Cc4cc(C)cc([100NH:0][100C:0](=O)N5CCCC(n6nc(-c7ccc(Oc8ccc(F)cc8F)cc7)c(C(N)=O)c6N)C5)c4)C(=O)C3=O)ccc2CC1C(=O)NC1CCCc2ccccc21)C(C)(C)C

> <Shape>
0.256

> <Color>
0.070

> <Negative vol penalty>
0.000

$$$$

  -OEChem-04042323093D

 84 92  0     1  0  0  0  0  0999 V2000
  -19.6888  -27.8882   26.7626 C   0  0  0  0  0  0  0  0  0  0  0  0
  -20.9087  -27.4183   26.2867 C   0  0  0  0  0  0  0  0  0  0  0  0
  -32.4598  -19.0927   20.3759 C   0  0  0  0  0  0  0  0  0  0  0  0
  -22.8639  -11.9152   21.9674 C   0  0  0  0  0  0  0  0  0  0  0  0
  -22.8749  -14.3166   22.2323 C   0  0  0  0  0  0  0  0  0  0  0  0
  -31.6494  -20.2148   20.5479 C   0  0  0  0  0  0  0  0  0  0  0  0
  -18.7184  -28.3363   25.8673 C   0  0  0  0  0  0  0  0  0  0  0  0
  -21.1585  -27.3953   24.9150 C   0  0  0  0  0  0  0  0  0  0  0  0
  -26.5282  -28.3645   22.1343 C   0  0  0  0  0  0  0  0  0  0  0  0
  -31.8915  -17.8191   20.3511 C   0  0  0  0  0  0  0  0  0  0  0  0
  -21.9667  -11.8021   23.0293 C   0  0  0  0  0  0  0  0  0  0  0  0
  -21.9776  -14.2035   23.2943 C   0  0  0  0  0  0  0  0  0  0  0  0
  -27.4918  -27.4945   21.6261 C   0  0  0  0  0  0  0  0  0  0  0  0
  -18.6579  -13.7246   23.7079 C   0  0  0  0  0  0  0  0  0  0  0  0
  -17.5764  -14.6049   23.7370 C   0  0  0  0  0  0  0  0  0  0  0  0
  -29.7023  -18.7898   20.6704 C   0  0  0  0  0  0  0  0  0  0  0  0
  -26.5211  -27.7127   19.4285 C   0  0  0  0  0  0  0  0  0  0  0  0
  -18.3271  -15.4567   25.8696 C   0  0  0  0  0  0  0  0  0  0  0  0
  -23.3181  -13.1725   21.5689 C   0  0  0  0  0  0  0  0  0  0  0  0
  -30.2706  -20.0634   20.6952 C   0  0  0  0  0  0  0  0  0  0  0  0
  -23.9336  -13.4421   19.1080 C   0  0  0  0  0  0  0  0  0  0  0  0
  -18.9602  -28.3277   24.4845 C   0  0  0  0  0  0  0  0  0  0  0  0
  -25.5455  -28.9075   21.2942 C   0  0  0  0  0  0  0  0  0  0  0  0
  -20.1900  -27.8424   24.0003 C   0  0  0  0  0  0  0  0  0  0  0  0
  -25.5477  -28.5914   19.9281 C   0  0  0  0  0  0  0  0  0  0  0  0
  -30.5127  -17.6676   20.4984 C   0  0  0  0  0  0  0  0  0  0  0  0
  -21.5235  -12.9462   23.6927 C   0  0  0  0  0  0  0  0  0  0  0  0
  -27.4866  -27.1662   20.2736 C   0  0  0  0  0  0  0  0  0  0  0  0
  -19.5741  -13.7103   24.7596 C   0  0  0  0  0  0  0  0  0  0  0  0
  -17.4109  -15.4710   24.8178 C   0  0  0  0  0  0  0  0  0  0  0  0
  -19.4086  -14.5763   25.8405 C   0  0  0  0  0  0  0  0  0  0  0  0
  -24.2454  -13.2899   20.4723 C   0  0  0  0  0  0  0  0  0  0  0  0
  -25.1544  -13.5065   18.4819 C   0  0  0  0  0  0  0  0  0  0  0  0
  -29.4114  -21.2513   20.8769 C   0  0  0  0  0  0  0  0  0  0  0  0
  -22.6548  -13.5185   18.4641 C   0  0  0  0  0  0  0  0  0  0  0  0
  -22.3732  -28.7558   21.1627 C   0  0  0  0  0  0  0  0  0  0  0  0
  -22.7550  -30.9512   18.8055 C   0  0  0  0  0  0  0  0  0  0  0  0
  -28.6345  -23.4025   19.9042 C   0  0  0  0  0  0  0  0  0  0  0  0
  -24.7773  -32.3215   16.4223 C   0  0  0  0  0  0  0  0  0  0  0  0
  -30.5982  -15.1568   20.3113 C   0  0  0  0  0  0  0  0  0  0  0  0
  -17.8628  -28.7779   23.5529 C   0  0  0  0  0  0  0  0  0  0  0  0
  -24.5293  -29.8654   21.8528 C   0  0  0  0  0  0  0  0  0  0  0  0
  -24.5265  -29.1634   18.9802 C   0  0  0  0  0  0  0  0  0  0  0  0
  -18.3488  -29.0706   22.1358 C   0  0  0  0  0  0  0  0  0  0  0  0
  -29.6791  -12.0043   18.9351 C   0  0  0  0  0  0  0  0  0  0  0  0
  -19.2581  -27.9501   21.6411 C   0  0  0  0  0  0  0  0  0  0  0  0
  -28.1526  -11.9926   19.0434 C   0  0  0  0  0  0  0  0  0  0  0  0
  -30.3275  -12.6930   20.1347 C   0  0  0  0  0  0  0  0  0  0  0  0
  -28.2967  -14.0299   20.5320 C   0  0  0  0  0  0  0  0  0  0  0  0
  -20.5079  -27.8249   22.5209 C   0  0  1  0  0  0  0  0  0  0  0  0
  -23.2640  -29.9556   21.0052 C   0  0  1  0  0  0  0  0  0  0  0  0
  -27.5961  -13.4041   19.3150 C   0  0  2  0  0  0  0  0  0  0  0  0
  -24.7979  -34.0745   14.6268 C   0  0  0  0  0  0  0  0  0  0  0  0
  -21.0933  -29.1279   17.0098 C   0  0  0  0  0  0  0  0  0  0  0  0
  -21.9352  -30.4196   15.0372 C   0  0  0  0  0  0  0  0  0  0  0  0
  -20.5756  -31.5645   16.7874 C   0  0  0  0  0  0  0  0  0  0  0  0
  -26.9743  -33.8069   17.7361 C   0  0  0  0  0  0  0  0  0  0  0  0
  -28.8589  -24.2296   18.6588 C   0  0  0  0  0  0  0  0  0  0  0  0
  -28.0481  -25.5156   18.6561 C   0  0  0  0  0  0  0  0  0  1  0  0
  -22.9556  -30.8907   17.3104 C   0  0  1  0  0  0  0  0  0  0  0  0
  -25.1007  -33.7658   16.0848 C   0  0  2  0  0  0  0  0  0  0  0  0
  -21.6581  -30.4882   16.5542 C   0  0  0  0  0  0  0  0  0  0  0  0
  -25.5611  -13.2593   20.7003 N   0  0  0  0  0  0  0  0  0  0  0  0
  -26.0869  -13.3930   19.4708 N   0  0  0  0  0  0  0  0  0  0  0  0
  -23.5499  -30.0904   19.5754 N   0  0  0  0  0  0  0  0  0  0  0  0
  -29.7539  -14.0265   20.3283 N   0  0  0  0  0  0  0  0  0  0  0  0
  -25.5106  -13.6484   17.1875 N   0  0  0  0  0  0  0  0  0  0  0  0
  -21.5018  -13.4356   19.2565 N   0  0  0  0  0  0  0  0  0  0  0  0
  -29.9363  -16.3735   20.4731 N   0  0  0  0  0  0  0  0  0  0  0  0
  -29.4039  -22.1793   19.9099 N   0  0  0  0  0  0  0  0  0  0  0  0
  -21.4613  -28.8638   22.1953 N   0  0  0  0  0  0  0  0  0  0  0  0
  -23.4979  -32.1872   16.9186 N   0  0  0  0  0  0  0  0  0  0  0  0
  -28.6932  -21.3320   21.9966 N   0  3  0  0  0  0  0  0  0  0  0  0
  -26.5430  -34.0457   16.3346 N   0  3  0  0  0  0  0  0  0  0  0  0
  -22.5381  -13.6398   17.2211 O   0  0  0  0  0  0  0  0  0  0  0  0
  -22.5027  -27.8033   20.4027 O   0  0  0  0  0  0  0  0  0  0  0  0
  -21.9286  -31.7386   19.2733 O   0  0  0  0  0  0  0  0  0  0  0  0
  -27.8938  -23.6971   20.8308 O   0  0  0  0  0  0  0  0  0  0  0  0
  -25.5782  -31.4038   16.2585 O   0  0  0  0  0  0  0  0  0  0  0  0
  -31.8153  -15.0552   20.1369 O   0  0  0  0  0  0  0  0  0  0  0  0
  -20.6477  -12.8363   24.7289 O   0  0  0  0  0  0  0  0  0  0  0  0
  -28.4256  -26.3168   19.7750 O   0  0  0  0  0  0  0  0  0  1  0  0
  -16.3731  -16.3173   24.8449 F   0  0  0  0  0  0  0  0  0  0  0  0
  -20.2861  -14.5680   26.8533 F   0  0  0  0  0  0  0  0  0  0  0  0
  1  2  1  0  0  0  0
  1  7  2  0  0  0  0
  2  8  2  0  0  0  0
  3  6  2  0  0  0  0
  3 10  1  0  0  0  0
  4 11  2  0  0  0  0
  4 19  1  0  0  0  0
  5 12  1  0  0  0  0
  5 19  2  0  0  0  0
  6 20  1  0  0  0  0
  7 22  1  0  0  0  0
  8 24  1  0  0  0  0
  9 13  2  0  0  0  0
  9 23  1  0  0  0  0
 10 26  2  0  0  0  0
 11 27  1  0  0  0  0
 12 27  2  0  0  0  0
 13 28  1  0  0  0  0
 14 15  2  0  0  0  0
 14 29  1  0  0  0  0
 15 30  1  0  0  0  0
 16 20  2  0  0  0  0
 16 26  1  0  0  0  0
 17 25  1  0  0  0  0
 17 28  2  0  0  0  0
 18 30  2  0  0  0  0
 18 31  1  0  0  0  0
 19 32  1  0  0  0  0
 20 34  1  0  0  0  0
 21 32  1  0  0  0  0
 21 33  2  0  0  0  0
 21 35  1  0  0  0  0
 22 24  2  0  0  0  0
 22 41  1  0  0  0  0
 23 25  2  0  0  0  0
 23 42  1  0  0  0  0
 24 50  1  0  0  0  0
 25 43  1  0  0  0  0
 26 69  1  0  0  0  0
 27 81  1  0  0  0  0
 28 82  1  0  0  0  0
 29 31  2  0  0  0  0
 29 81  1  0  0  0  0
 30 83  1  0  0  0  0
 31 84  1  0  0  0  0
 32 63  2  0  0  0  0
 33 64  1  0  0  0  0
 33 67  1  0  0  0  0
 34 70  1  0  0  0  0
 34 73  2  0  0  0  0
 35 68  1  0  0  0  0
 35 75  2  0  0  0  0
 36 51  1  0  0  0  0
 36 71  1  0  0  0  0
 36 76  2  0  0  0  0
 37 60  1  0  0  0  0
 37 65  1  0  0  0  0
 37 77  2  0  0  0  0
 38 58  1  0  0  0  0
 38 70  1  0  0  0  0
 38 78  2  0  0  0  0
 39 61  1  0  0  0  0
 39 72  1  0  0  0  0
 39 79  2  0  0  0  0
 40 66  1  0  0  0  0
 40 69  1  0  0  0  0
 40 80  2  0  0  0  0
 41 44  1  0  0  0  0
 42 51  1  0  0  0  0
 43 65  1  0  0  0  0
 44 46  1  0  0  0  0
 45 47  1  0  0  0  0
 45 48  1  0  0  0  0
 46 50  1  0  0  0  0
 47 52  1  0  0  0  0
 48 66  1  0  0  0  0
 49 52  1  0  0  0  0
 49 66  1  0  0  0  0
 50 71  1  0  0  0  0
 51 65  1  0  0  0  0
 52 64  1  0  0  0  0
 53 61  1  0  0  0  0
 54 62  1  0  0  0  0
 55 62  1  0  0  0  0
 56 62  1  0  0  0  0
 57 74  1  0  0  0  0
 58 59  1  0  0  0  0
 59 82  1  0  0  0  0
 60 62  1  0  0  0  0
 60 72  1  0  0  0  0
 61 74  1  0  0  0  0
 63 64  1  0  0  0  0
M  CHG  2  73   1  74   1
M  ISO  4  40 100  59 101  69 100  82 101
M  END
> <Batch ID>
0062

> <Smiles>
CNC(C)C(=O)NC(C(=O)N1Cc2cc([101O:1][101CH2:1]CC(=O)NC(=N)c3cccc([100NH:0][100C:0](=O)N4CCCC(n5nc(-c6ccc(Oc7ccc(F)cc7F)cc6)c(C(N)=O)c5N)C4)c3)ccc2CC1C(=O)NC1CCCc2ccccc21)C(C)(C)C

> <Shape>
0.243

> <Color>
0.098

> <Negative vol penalty>
0.000

$$$$

  -OEChem-04042323093D

 87 95  0     1  0  0  0  0  0999 V2000
  -28.0276  -33.0456   26.7341 C   0  0  0  0  0  0  0  0  0  0  0  0
  -28.1761  -31.9196   25.9306 C   0  0  0  0  0  0  0  0  0  0  0  0
  -23.3804  -11.8117   23.3142 C   0  0  0  0  0  0  0  0  0  0  0  0
  -23.3456  -14.2188   23.1103 C   0  0  0  0  0  0  0  0  0  0  0  0
  -26.7550  -33.4552   27.1298 C   0  0  0  0  0  0  0  0  0  0  0  0
  -27.0520  -31.2020   25.5233 C   0  0  0  0  0  0  0  0  0  0  0  0
  -27.2081  -29.9693   20.6140 C   0  0  0  0  0  0  0  0  0  0  0  0
  -22.6199  -11.8995   24.4802 C   0  0  0  0  0  0  0  0  0  0  0  0
  -22.5850  -14.3066   24.2762 C   0  0  0  0  0  0  0  0  0  0  0  0
  -28.0172  -28.8927   20.2533 C   0  0  0  0  0  0  0  0  0  0  0  0
  -19.3552  -13.8891   25.1786 C   0  0  0  0  0  0  0  0  0  0  0  0
  -18.2571  -14.7491   25.1710 C   0  0  0  0  0  0  0  0  0  0  0  0
  -26.0729  -27.4673   20.1693 C   0  0  0  0  0  0  0  0  0  0  0  0
  -31.6730  -19.7506   20.9961 C   0  0  0  0  0  0  0  0  0  0  0  0
  -31.9658  -17.3652   20.7484 C   0  0  0  0  0  0  0  0  0  0  0  0
  -29.7940  -18.3597   20.3861 C   0  0  0  0  0  0  0  0  0  0  0  0
  -19.2282  -16.0054   26.9919 C   0  0  0  0  0  0  0  0  0  0  0  0
  -23.7433  -12.9713   22.6293 C   0  0  0  0  0  0  0  0  0  0  0  0
  -24.0530  -12.7628   20.1057 C   0  0  0  0  0  0  0  0  0  0  0  0
  -25.6141  -32.7479   26.7191 C   0  0  0  0  0  0  0  0  0  0  0  0
  -25.8244  -29.8001   20.7660 C   0  0  0  0  0  0  0  0  0  0  0  0
  -25.7630  -31.6018   25.9150 C   0  0  0  0  0  0  0  0  0  0  0  0
  -25.2481  -28.5439   20.5295 C   0  0  0  0  0  0  0  0  0  0  0  0
  -32.4945  -18.6240   21.0343 C   0  0  0  0  0  0  0  0  0  0  0  0
  -30.3227  -19.6185   20.6720 C   0  0  0  0  0  0  0  0  0  0  0  0
  -30.6155  -17.2331   20.4243 C   0  0  0  0  0  0  0  0  0  0  0  0
  -22.2221  -13.1469   24.9612 C   0  0  0  0  0  0  0  0  0  0  0  0
  -27.4500  -27.6409   20.0336 C   0  0  0  0  0  0  0  0  0  0  0  0
  -20.3899  -14.0872   26.0930 C   0  0  0  0  0  0  0  0  0  0  0  0
  -18.1936  -15.8072   26.0776 C   0  0  0  0  0  0  0  0  0  0  0  0
  -20.3264  -15.1453   26.9996 C   0  0  0  0  0  0  0  0  0  0  0  0
  -24.5294  -12.8813   21.4251 C   0  0  0  0  0  0  0  0  0  0  0  0
  -25.1880  -12.7147   19.3338 C   0  0  0  0  0  0  0  0  0  0  0  0
  -22.7049  -12.7019   19.6212 C   0  0  0  0  0  0  0  0  0  0  0  0
  -23.7785  -30.1087   23.1791 C   0  0  0  0  0  0  0  0  0  0  0  0
  -21.5721  -29.5441   20.8692 C   0  0  0  0  0  0  0  0  0  0  0  0
  -29.8485  -22.0823   20.8892 C   0  0  0  0  0  0  0  0  0  0  0  0
  -20.8528  -28.1986   17.8165 C   0  0  0  0  0  0  0  0  0  0  0  0
  -30.7548  -14.7351   20.1297 C   0  0  0  0  0  0  0  0  0  0  0  0
  -24.2625  -33.2015   27.2112 C   0  0  0  0  0  0  0  0  0  0  0  0
  -24.9619  -30.9776   21.1295 C   0  0  0  0  0  0  0  0  0  0  0  0
  -23.7652  -28.3145   20.6597 C   0  0  0  0  0  0  0  0  0  0  0  0
  -23.0969  -32.6035   26.4276 C   0  0  0  0  0  0  0  0  0  0  0  0
  -29.7803  -11.3676   19.5074 C   0  0  0  0  0  0  0  0  0  0  0  0
  -23.2948  -31.1029   26.2384 C   0  0  0  0  0  0  0  0  0  0  0  0
  -28.2787  -11.3642   19.8026 C   0  0  0  0  0  0  0  0  0  0  0  0
  -30.5443  -12.2817   20.4637 C   0  0  0  0  0  0  0  0  0  0  0  0
  -28.5333  -13.6530   20.8435 C   0  0  0  0  0  0  0  0  0  0  0  0
  -24.5662  -30.8115   25.4322 C   0  0  1  0  0  0  0  0  0  0  0  0
  -23.6318  -30.5728   21.7575 C   0  0  1  0  0  0  0  0  0  0  0  0
  -27.7134  -12.7968   19.8646 C   0  0  2  0  0  0  0  0  0  0  0  0
  -18.9543  -27.8603   16.2107 C   0  0  0  0  0  0  0  0  0  0  0  0
  -34.1783  -18.6386   22.8846 C   0  0  0  0  0  0  0  0  0  0  0  0
  -20.4847  -27.3026   22.6308 C   0  0  0  0  0  0  0  0  0  0  0  0
  -19.2667  -26.4163   20.6310 C   0  0  0  0  0  0  0  0  0  0  0  0
  -18.7330  -28.6899   21.5078 C   0  0  0  0  0  0  0  0  0  0  0  0
  -22.2035  -29.7748   15.7069 C   0  0  0  0  0  0  0  0  0  0  0  0
  -28.6445  -23.0016   20.7370 C   0  0  0  0  0  0  0  0  0  0  0  0
  -29.0307  -24.4048   20.2822 C   0  0  0  0  0  0  0  0  0  0  0  0
  -27.8080  -25.2904   20.0915 C   0  0  0  0  0  0  0  0  0  1  0  0
  -20.9182  -28.3111   20.2939 C   0  0  1  0  0  0  0  0  0  0  0  0
  -20.1104  -28.7607   16.6176 C   0  0  2  0  0  0  0  0  0  0  0  0
  -33.9381  -18.7656   21.3822 C   0  0  0  0  0  0  0  0  0  0  0  0
  -19.8789  -27.6835   21.2652 C   0  0  0  0  0  0  0  0  0  0  0  0
  -25.8632  -12.9067   21.4913 N   0  0  0  0  0  0  0  0  0  0  0  0
  -26.2346  -12.8034   20.2039 N   0  0  0  0  0  0  0  0  0  0  0  0
  -22.9648  -29.4955   21.0234 N   0  0  0  0  0  0  0  0  0  0  0  0
  -29.9552  -13.6225   20.4668 N   0  0  0  0  0  0  0  0  0  0  0  0
  -25.3830  -12.6054   18.0025 N   0  0  0  0  0  0  0  0  0  0  0  0
  -21.6575  -12.7647   20.5504 N   0  0  0  0  0  0  0  0  0  0  0  0
  -29.4896  -20.7618   20.6336 N   0  0  0  0  0  0  0  0  0  0  0  0
  -30.0781  -15.9543   20.1352 N   0  0  0  0  0  0  0  0  0  0  0  0
  -24.3369  -31.0495   24.0232 N   0  0  0  0  0  0  0  0  0  0  0  0
  -20.3664  -28.7065   19.0025 N   0  0  0  0  0  0  0  0  0  0  0  0
  -21.0323  -28.8965   15.4545 N   0  3  0  0  0  0  0  0  0  0  0  0
  -22.4374  -12.5783   18.4019 O   0  0  0  0  0  0  0  0  0  0  0  0
  -23.4109  -28.9812   23.4876 O   0  0  0  0  0  0  0  0  0  0  0  0
  -20.8738  -30.5173   21.1641 O   0  0  0  0  0  0  0  0  0  0  0  0
  -30.9571  -22.5069   21.1973 O   0  0  0  0  0  0  0  0  0  0  0  0
  -21.7699  -27.3871   17.7116 O   0  0  0  0  0  0  0  0  0  0  0  0
  -31.9452  -14.6118   19.8299 O   0  0  0  0  0  0  0  0  0  0  0  0
  -21.4798  -13.2330   26.0988 O   0  0  0  0  0  0  0  0  0  0  0  0
  -28.2375  -26.5882   19.6821 O   0  0  0  0  0  0  0  0  0  1  0  0
  -17.1397  -16.6339   26.0692 F   0  0  0  0  0  0  0  0  0  0  0  0
  -21.3179  -15.3414   27.8795 F   0  0  0  0  0  0  0  0  0  0  0  0
  -34.4682  -19.9688   20.9915 F   0  0  0  0  0  0  0  0  0  0  0  0
  -34.7317  -17.8301   20.7685 F   0  0  0  0  0  0  0  0  0  0  0  0
  1  2  1  0  0  0  0
  1  5  2  0  0  0  0
  2  6  2  0  0  0  0
  3  8  2  0  0  0  0
  3 18  1  0  0  0  0
  4  9  1  0  0  0  0
  4 18  2  0  0  0  0
  5 20  1  0  0  0  0
  6 22  1  0  0  0  0
  7 10  2  0  0  0  0
  7 21  1  0  0  0  0
  8 27  1  0  0  0  0
  9 27  2  0  0  0  0
 10 28  1  0  0  0  0
 11 12  2  0  0  0  0
 11 29  1  0  0  0  0
 12 30  1  0  0  0  0
 13 23  1  0  0  0  0
 13 28  2  0  0  0  0
 14 24  1  0  0  0  0
 14 25  2  0  0  0  0
 15 24  2  0  0  0  0
 15 26  1  0  0  0  0
 16 25  1  0  0  0  0
 16 26  2  0  0  0  0
 17 30  2  0  0  0  0
 17 31  1  0  0  0  0
 18 32  1  0  0  0  0
 19 32  1  0  0  0  0
 19 33  2  0  0  0  0
 19 34  1  0  0  0  0
 20 22  2  0  0  0  0
 20 40  1  0  0  0  0
 21 23  2  0  0  0  0
 21 41  1  0  0  0  0
 22 49  1  0  0  0  0
 23 42  1  0  0  0  0
 24 63  1  0  0  0  0
 25 71  1  0  0  0  0
 26 72  1  0  0  0  0
 27 82  1  0  0  0  0
 28 83  1  0  0  0  0
 29 31  2  0  0  0  0
 29 82  1  0  0  0  0
 30 84  1  0  0  0  0
 31 85  1  0  0  0  0
 32 65  2  0  0  0  0
 33 66  1  0  0  0  0
 33 69  1  0  0  0  0
 34 70  1  0  0  0  0
 34 76  2  0  0  0  0
 35 50  1  0  0  0  0
 35 73  1  0  0  0  0
 35 77  2  0  0  0  0
 36 61  1  0  0  0  0
 36 67  1  0  0  0  0
 36 78  2  0  0  0  0
 37 58  1  0  0  0  0
 37 71  1  0  0  0  0
 37 79  2  0  0  0  0
 38 62  1  0  0  0  0
 38 74  1  0  0  0  0
 38 80  2  0  0  0  0
 39 68  1  0  0  0  0
 39 72  1  0  0  0  0
 39 81  2  0  0  0  0
 40 43  1  0  0  0  0
 41 50  1  0  0  0  0
 42 67  1  0  0  0  0
 43 45  1  0  0  0  0
 44 46  1  0  0  0  0
 44 47  1  0  0  0  0
 45 49  1  0  0  0  0
 46 51  1  0  0  0  0
 47 68  1  0  0  0  0
 48 51  1  0  0  0  0
 48 68  1  0  0  0  0
 49 73  1  0  0  0  0
 50 67  1  0  0  0  0
 51 66  1  0  0  0  0
 52 62  1  0  0  0  0
 53 63  1  0  0  0  0
 54 64  1  0  0  0  0
 55 64  1  0  0  0  0
 56 64  1  0  0  0  0
 57 75  1  0  0  0  0
 58 59  1  0  0  0  0
 59 60  1  0  0  0  0
 60 83  1  0  0  0  0
 61 64  1  0  0  0  0
 61 74  1  0  0  0  0
 62 75  1  0  0  0  0
 63 86  1  0  0  0  0
 63 87  1  0  0  0  0
 65 66  1  0  0  0  0
M  CHG  1  75   1
M  ISO  4  39 100  60 101  72 100  83 101
M  END
> <Batch ID>
0062

> <Smiles>
CNC(C)C(=O)NC(C(=O)N1Cc2cc([101O:1][101CH2:1]CCC(=O)Nc3cc([100NH:0][100C:0](=O)N4CCCC(n5nc(-c6ccc(Oc7ccc(F)cc7F)cc6)c(C(N)=O)c5N)C4)cc(C(C)(F)F)c3)ccc2CC1C(=O)NC1CCCc2ccccc21)C(C)(C)C

> <Shape>
0.276

> <Color>
0.115

> <Negative vol penalty>
0.000

$$$$

  -OEChem-04042323093D

 87 96  0     1  0  0  0  0  0999 V2000
  -26.1022  -34.6598   24.8906 C   0  0  0  0  0  0  0  0  0  0  0  0
  -26.6366  -33.4650   24.4190 C   0  0  0  0  0  0  0  0  0  0  0  0
  -29.8217  -21.9218   23.2015 C   0  0  0  0  0  0  0  0  0  0  0  0
  -24.0245  -12.7897   20.2417 C   0  0  0  0  0  0  0  0  0  0  0  0
  -26.1016  -13.6082   21.1650 C   0  0  0  0  0  0  0  0  0  0  0  0
  -24.7637  -34.7192   25.2764 C   0  0  0  0  0  0  0  0  0  0  0  0
  -25.8329  -32.3286   24.3338 C   0  0  0  0  0  0  0  0  0  0  0  0
  -26.4402  -29.8428   19.9638 C   0  0  0  0  0  0  0  0  0  0  0  0
  -30.2638  -23.1419   22.6902 C   0  0  0  0  0  0  0  0  0  0  0  0
  -29.0010  -21.0986   22.4303 C   0  0  0  0  0  0  0  0  0  0  0  0
  -24.5109  -11.4839   20.3050 C   0  0  0  0  0  0  0  0  0  0  0  0
  -26.5880  -12.3025   21.2283 C   0  0  0  0  0  0  0  0  0  0  0  0
  -27.5742  -29.0414   19.8395 C   0  0  0  0  0  0  0  0  0  0  0  0
  -24.9282   -9.0925   22.6586 C   0  0  0  0  0  0  0  0  0  0  0  0
  -24.0783   -8.1078   23.1623 C   0  0  0  0  0  0  0  0  0  0  0  0
  -26.2434  -27.0917   20.3366 C   0  0  0  0  0  0  0  0  0  0  0  0
  -29.0644  -22.7160   20.6366 C   0  0  0  0  0  0  0  0  0  0  0  0
  -24.2186   -6.9146   21.0662 C   0  0  0  0  0  0  0  0  0  0  0  0
  -24.8198  -13.8519   20.6717 C   0  0  0  0  0  0  0  0  0  0  0  0
  -23.1768  -15.7158   21.2497 C   0  0  0  0  0  0  0  0  0  0  0  0
  -23.9407  -33.5854   25.1868 C   0  0  0  0  0  0  0  0  0  0  0  0
  -25.1993  -29.2751   20.2868 C   0  0  0  0  0  0  0  0  0  0  0  0
  -24.4825  -32.3726   24.7200 C   0  0  0  0  0  0  0  0  0  0  0  0
  -25.0947  -27.8878   20.4620 C   0  0  0  0  0  0  0  0  0  0  0  0
  -29.8851  -23.5390   21.4078 C   0  0  0  0  0  0  0  0  0  0  0  0
  -28.6224  -21.4958   21.1479 C   0  0  0  0  0  0  0  0  0  0  0  0
  -25.7927  -11.2403   20.7983 C   0  0  0  0  0  0  0  0  0  0  0  0
  -27.4765  -27.6660   20.0287 C   0  0  0  0  0  0  0  0  0  0  0  0
  -25.4233   -8.9883   21.3587 C   0  0  0  0  0  0  0  0  0  0  0  0
  -23.7235   -7.0189   22.3661 C   0  0  0  0  0  0  0  0  0  0  0  0
  -25.0685   -7.8993   20.5625 C   0  0  0  0  0  0  0  0  0  0  0  0
  -24.3181  -15.2010   20.6061 C   0  0  0  0  0  0  0  0  0  0  0  0
  -23.1344  -17.0351   20.8702 C   0  0  0  0  0  0  0  0  0  0  0  0
  -31.0693  -24.7729   19.7674 C   0  0  0  0  0  0  0  0  0  0  0  0
  -22.2389  -15.0600   22.1134 C   0  0  0  0  0  0  0  0  0  0  0  0
  -23.1561  -29.5751   22.7031 C   0  0  0  0  0  0  0  0  0  0  0  0
  -21.2974  -27.6608   20.8584 C   0  0  0  0  0  0  0  0  0  0  0  0
  -21.7623  -24.7439   18.7864 C   0  0  0  0  0  0  0  0  0  0  0  0
  -32.3225  -23.7335   17.9428 C   0  0  0  0  0  0  0  0  0  0  0  0
  -27.3202  -20.9029   19.0744 C   0  0  0  0  0  0  0  0  0  0  0  0
  -22.5122  -33.6861   25.6600 C   0  0  0  0  0  0  0  0  0  0  0  0
  -23.9803  -30.1501   20.3910 C   0  0  0  0  0  0  0  0  0  0  0  0
  -23.7818  -27.2267   20.7901 C   0  0  0  0  0  0  0  0  0  0  0  0
  -21.6309  -32.5334   25.1860 C   0  0  0  0  0  0  0  0  0  0  0  0
  -24.3990  -19.9416   17.2802 C   0  0  0  0  0  0  0  0  0  0  0  0
  -22.3369  -31.1984   25.4006 C   0  0  0  0  0  0  0  0  0  0  0  0
  -23.9394  -18.6670   17.9919 C   0  0  0  0  0  0  0  0  0  0  0  0
  -25.9222  -20.0354   17.2122 C   0  0  0  0  0  0  0  0  0  0  0  0
  -26.1518  -18.6157   19.2124 C   0  0  0  0  0  0  0  0  0  0  0  0
  -29.9528  -25.9600   21.6822 C   0  0  0  0  0  0  0  0  0  0  0  0
  -30.8947  -27.5706   20.0067 C   0  0  0  0  0  0  0  0  0  0  0  0
  -23.6363  -31.1248   24.5896 C   0  0  1  0  0  0  0  0  0  0  0  0
  -22.8680  -29.5277   21.2292 C   0  0  1  0  0  0  0  0  0  0  0  0
  -24.6255  -18.5085   19.3629 C   0  0  2  0  0  0  0  0  0  0  0  0
  -29.6675  -27.1523   20.7887 C   0  0  1  0  0  0  0  0  0  1  0  0
  -33.2825  -22.5913   17.8230 C   0  0  0  0  0  0  0  0  0  0  0  0
  -20.4626  -23.9296   16.8002 C   0  0  0  0  0  0  0  0  0  0  0  0
  -19.7683  -25.9946   22.9067 C   0  0  0  0  0  0  0  0  0  0  0  0
  -19.7030  -24.1297   21.2376 C   0  0  0  0  0  0  0  0  0  0  0  0
  -18.5895  -26.3017   20.7226 C   0  0  0  0  0  0  0  0  0  0  0  0
  -24.1864  -24.6544   17.0909 C   0  0  0  0  0  0  0  0  0  0  0  0
  -21.1143  -26.1696   20.7105 C   0  0  1  0  0  0  0  0  0  0  0  0
  -21.6953  -24.6857   17.2710 C   0  0  2  0  0  0  0  0  0  0  0  0
  -19.8186  -25.6601   21.4026 C   0  0  0  0  0  0  0  0  0  0  0  0
  -24.9547  -16.1184   19.8732 N   0  0  0  0  0  0  0  0  0  0  0  0
  -24.2108  -17.2230   20.0538 N   0  0  0  0  0  0  0  0  0  0  0  0
  -30.3255  -24.7522   20.8992 N   0  0  0  0  0  0  0  0  0  0  0  0
  -22.6199  -28.1256   20.8876 N   0  0  0  0  0  0  0  0  0  0  0  0
  -26.5026  -19.8806   18.5479 N   0  0  0  0  0  0  0  0  0  0  0  0
  -22.2818  -18.0412   21.1584 N   0  0  0  0  0  0  0  0  0  0  0  0
  -22.4893  -15.0575   23.4924 N   0  0  0  0  0  0  0  0  0  0  0  0
  -27.7885  -20.6593   20.3651 N   0  0  0  0  0  0  0  0  0  0  0  0
  -23.3487  -30.8509   23.1980 N   0  0  0  0  0  0  0  0  0  0  0  0
  -21.1768  -25.8907   19.2798 N   0  0  0  0  0  0  0  0  0  0  0  0
  -31.5379  -23.6896   19.1382 N   0  3  0  0  0  0  0  0  0  0  0  0
  -22.9023  -24.0030   16.7250 N   0  3  0  0  0  0  0  0  0  0  0  0
  -21.2179  -14.4789   21.6737 O   0  0  0  0  0  0  0  0  0  0  0  0
  -23.1989  -28.5317   23.3443 O   0  0  0  0  0  0  0  0  0  0  0  0
  -20.3036  -28.3872   20.9378 O   0  0  0  0  0  0  0  0  0  0  0  0
  -22.2788  -23.8588   19.4649 O   0  0  0  0  0  0  0  0  0  0  0  0
  -32.2009  -24.6298   17.1196 O   0  0  0  0  0  0  0  0  0  0  0  0
  -27.5633  -21.9317   18.4385 O   0  0  0  0  0  0  0  0  0  0  0  0
  -26.2676   -9.9663   20.8604 O   0  0  0  0  0  0  0  0  0  0  0  0
  -28.5820  -26.8815   19.9086 O   0  0  0  0  0  0  0  0  0  1  0  0
  -22.9086   -6.0725   22.8505 F   0  0  0  0  0  0  0  0  0  0  0  0
  -25.5419   -7.7931   19.3134 F   0  0  0  0  0  0  0  0  0  0  0  0
  -31.5551  -26.2570   18.9659 S   0  0  0  0  0  0  0  0  0  0  0  0
  1  2  1  0  0  0  0
  1  6  2  0  0  0  0
  2  7  2  0  0  0  0
  3  9  2  0  0  0  0
  3 10  1  0  0  0  0
  4 11  2  0  0  0  0
  4 19  1  0  0  0  0
  5 12  1  0  0  0  0
  5 19  2  0  0  0  0
  6 21  1  0  0  0  0
  7 23  1  0  0  0  0
  8 13  2  0  0  0  0
  8 22  1  0  0  0  0
  9 25  1  0  0  0  0
 10 26  2  0  0  0  0
 11 27  1  0  0  0  0
 12 27  2  0  0  0  0
 13 28  1  0  0  0  0
 14 15  2  0  0  0  0
 14 29  1  0  0  0  0
 15 30  1  0  0  0  0
 16 24  1  0  0  0  0
 16 28  2  0  0  0  0
 17 25  2  0  0  0  0
 17 26  1  0  0  0  0
 18 30  2  0  0  0  0
 18 31  1  0  0  0  0
 19 32  1  0  0  0  0
 20 32  1  0  0  0  0
 20 33  2  0  0  0  0
 20 35  1  0  0  0  0
 21 23  2  0  0  0  0
 21 41  1  0  0  0  0
 22 24  2  0  0  0  0
 22 42  1  0  0  0  0
 23 52  1  0  0  0  0
 24 43  1  0  0  0  0
 25 67  1  0  0  0  0
 26 72  1  0  0  0  0
 27 83  1  0  0  0  0
 28 84  1  0  0  0  0
 29 31  2  0  0  0  0
 29 83  1  0  0  0  0
 30 85  1  0  0  0  0
 31 86  1  0  0  0  0
 32 65  2  0  0  0  0
 33 66  1  0  0  0  0
 33 70  1  0  0  0  0
 34 67  1  0  0  0  0
 34 75  2  0  0  0  0
 34 87  1  0  0  0  0
 35 71  1  0  0  0  0
 35 77  2  0  0  0  0
 36 53  1  0  0  0  0
 36 73  1  0  0  0  0
 36 78  2  0  0  0  0
 37 62  1  0  0  0  0
 37 68  1  0  0  0  0
 37 79  2  0  0  0  0
 38 63  1  0  0  0  0
 38 74  1  0  0  0  0
 38 80  2  0  0  0  0
 39 56  1  0  0  0  0
 39 75  1  0  0  0  0
 39 81  2  0  0  0  0
 40 69  1  0  0  0  0
 40 72  1  0  0  0  0
 40 82  2  0  0  0  0
 41 44  1  0  0  0  0
 42 53  1  0  0  0  0
 43 68  1  0  0  0  0
 44 46  1  0  0  0  0
 45 47  1  0  0  0  0
 45 48  1  0  0  0  0
 46 52  1  0  0  0  0
 47 54  1  0  0  0  0
 48 69  1  0  0  0  0
 49 54  1  0  0  0  0
 49 69  1  0  0  0  0
 50 55  1  0  0  0  0
 50 67  1  0  0  0  0
 51 55  1  0  0  0  0
 51 87  1  0  0  0  0
 52 73  1  0  0  0  0
 53 68  1  0  0  0  0
 54 66  1  0  0  0  0
 55 84  1  0  0  0  0
 57 63  1  0  0  0  0
 58 64  1  0  0  0  0
 59 64  1  0  0  0  0
 60 64  1  0  0  0  0
 61 76  1  0  0  0  0
 62 64  1  0  0  0  0
 62 74  1  0  0  0  0
 63 76  1  0  0  0  0
 65 66  1  0  0  0  0
M  CHG  2  75   1  76   1
M  ISO  4  40 100  55 101  72 100  84 101
M  END
> <Batch ID>
0062

> <Smiles>
CNC(C)C(=O)NC(C(=O)N1Cc2cc([101O:1][101CH:1]3CSC(=NC(C)=O)N(c4cccc([100NH:0][100C:0](=O)N5CCCC(n6nc(-c7ccc(Oc8ccc(F)cc8F)cc7)c(C(N)=O)c6N)C5)c4)C3)ccc2CC1C(=O)NC1CCCc2ccccc21)C(C)(C)C

> <Shape>
0.262

> <Color>
0.079

> <Negative vol penalty>
0.000

$$$$

  -OEChem-04042323093D

 85 93  0     1  0  0  0  0  0999 V2000
  -28.7528  -37.3673   19.6749 C   0  0  0  0  0  0  0  0  0  0  0  0
  -29.0465  -36.0237   19.4655 C   0  0  0  0  0  0  0  0  0  0  0  0
  -24.8558   -8.5272   21.5589 C   0  0  0  0  0  0  0  0  0  0  0  0
  -23.5466   -9.6506   19.8676 C   0  0  0  0  0  0  0  0  0  0  0  0
  -27.9276  -37.7424   20.7343 C   0  0  0  0  0  0  0  0  0  0  0  0
  -28.5159  -35.0544   20.3160 C   0  0  0  0  0  0  0  0  0  0  0  0
  -26.7622  -29.3864   18.7983 C   0  0  0  0  0  0  0  0  0  0  0  0
  -23.7859   -7.6707   21.8183 C   0  0  0  0  0  0  0  0  0  0  0  0
  -22.4766   -8.7941   20.1269 C   0  0  0  0  0  0  0  0  0  0  0  0
  -27.3938  -28.1482   18.9075 C   0  0  0  0  0  0  0  0  0  0  0  0
  -22.4024   -4.9195   20.4220 C   0  0  0  0  0  0  0  0  0  0  0  0
  -22.6781   -3.5582   20.5497 C   0  0  0  0  0  0  0  0  0  0  0  0
  -26.2422  -27.7513   20.9897 C   0  0  0  0  0  0  0  0  0  0  0  0
  -29.1911  -19.0999   15.4702 C   0  0  0  0  0  0  0  0  0  0  0  0
  -28.6700  -18.7291   17.8000 C   0  0  0  0  0  0  0  0  0  0  0  0
  -21.8007   -3.5917   22.8005 C   0  0  0  0  0  0  0  0  0  0  0  0
  -24.7361   -9.5172   20.5836 C   0  0  0  0  0  0  0  0  0  0  0  0
  -26.8784  -10.2096   19.3840 C   0  0  0  0  0  0  0  0  0  0  0  0
  -27.3789  -36.7764   21.5924 C   0  0  0  0  0  0  0  0  0  0  0  0
  -25.8727  -29.8217   19.7911 C   0  0  0  0  0  0  0  0  0  0  0  0
  -27.6837  -35.4170   21.3887 C   0  0  0  0  0  0  0  0  0  0  0  0
  -25.5987  -28.9942   20.8894 C   0  0  0  0  0  0  0  0  0  0  0  0
  -29.3131  -17.7237   15.2784 C   0  0  0  0  0  0  0  0  0  0  0  0
  -29.1135  -16.8502   16.3474 C   0  0  0  0  0  0  0  0  0  0  0  0
  -28.8696  -19.6026   16.7310 C   0  0  0  0  0  0  0  0  0  0  0  0
  -28.7920  -17.3528   17.6082 C   0  0  0  0  0  0  0  0  0  0  0  0
  -22.5963   -7.8041   21.1023 C   0  0  0  0  0  0  0  0  0  0  0  0
  -27.1360  -27.3317   20.0048 C   0  0  0  0  0  0  0  0  0  0  0  0
  -21.8260   -5.6170   21.4836 C   0  0  0  0  0  0  0  0  0  0  0  0
  -22.3772   -2.8943   21.7389 C   0  0  0  0  0  0  0  0  0  0  0  0
  -21.5251   -4.9531   22.6728 C   0  0  0  0  0  0  0  0  0  0  0  0
  -25.8408  -10.4027   20.3156 C   0  0  0  0  0  0  0  0  0  0  0  0
  -27.6679  -11.3260   19.5131 C   0  0  0  0  0  0  0  0  0  0  0  0
  -27.1079   -9.1187   18.4823 C   0  0  0  0  0  0  0  0  0  0  0  0
  -25.7959  -32.2697   21.8172 C   0  0  0  0  0  0  0  0  0  0  0  0
  -22.8477  -31.1044   22.5043 C   0  0  0  0  0  0  0  0  0  0  0  0
  -28.4347  -21.6666   18.1070 C   0  0  0  0  0  0  0  0  0  0  0  0
  -20.7229  -28.4340   22.5359 C   0  0  0  0  0  0  0  0  0  0  0  0
  -28.2632  -16.8392   20.0171 C   0  0  0  0  0  0  0  0  0  0  0  0
  -26.5304  -37.2339   22.7524 C   0  0  0  0  0  0  0  0  0  0  0  0
  -25.1792  -31.1484   19.6450 C   0  0  0  0  0  0  0  0  0  0  0  0
  -24.6364  -29.4065   21.9723 C   0  0  0  0  0  0  0  0  0  0  0  0
  -25.7058  -36.1145   23.3827 C   0  0  0  0  0  0  0  0  0  0  0  0
  -27.6382  -14.9963   22.9988 C   0  0  0  0  0  0  0  0  0  0  0  0
  -26.5681  -34.8759   23.6042 C   0  0  0  0  0  0  0  0  0  0  0  0
  -27.2002  -13.6210   22.4899 C   0  0  0  0  0  0  0  0  0  0  0  0
  -27.1220  -16.1225   22.1050 C   0  0  0  0  0  0  0  0  0  0  0  0
  -27.0017  -14.6029   20.1697 C   0  0  0  0  0  0  0  0  0  0  0  0
  -27.1072  -34.3341   22.2748 C   0  0  1  0  0  0  0  0  0  0  0  0
  -24.6844  -31.7133   20.9730 C   0  0  1  0  0  0  0  0  0  0  0  0
  -27.5521  -13.4327   21.0012 C   0  0  2  0  0  0  0  0  0  0  0  0
  -29.6577  -17.2114   13.9179 C   0  0  0  0  0  0  0  0  0  0  0  0
  -29.2455  -15.3742   16.1360 C   0  0  0  0  0  0  0  0  0  0  0  0
  -18.3901  -27.7804   23.1902 C   0  0  0  0  0  0  0  0  0  0  0  0
  -23.6843  -31.0649   25.4384 C   0  0  0  0  0  0  0  0  0  0  0  0
  -21.7401  -29.5566   25.9003 C   0  0  0  0  0  0  0  0  0  0  0  0
  -21.3491  -31.8615   25.0301 C   0  0  0  0  0  0  0  0  0  0  0  0
  -20.0228  -27.7046   19.7544 C   0  0  0  0  0  0  0  0  0  0  0  0
  -28.4047  -23.1713   17.8775 C   0  0  0  0  0  0  0  0  0  0  0  0
  -28.0667  -23.9519   19.1429 C   0  0  0  0  0  0  0  0  0  0  0  0
  -28.0895  -25.4539   18.8999 C   0  0  0  0  0  0  0  0  0  1  0  0
  -22.2980  -30.0983   23.4865 C   0  0  1  0  0  0  0  0  0  0  0  0
  -19.2860  -28.2844   22.0695 C   0  0  2  0  0  0  0  0  0  0  0  0
  -22.2876  -30.6381   24.9445 C   0  0  0  0  0  0  0  0  0  0  0  0
  -25.9579  -11.5513   20.9872 N   0  0  0  0  0  0  0  0  0  0  0  0
  -27.0785  -12.0900   20.4770 N   0  0  0  0  0  0  0  0  0  0  0  0
  -23.9881  -30.7154   21.7875 N   0  0  0  0  0  0  0  0  0  0  0  0
  -27.4966  -15.8787   20.7103 N   0  0  0  0  0  0  0  0  0  0  0  0
  -28.8020  -11.7189   18.8951 N   0  0  0  0  0  0  0  0  0  0  0  0
  -26.1986   -8.0522   18.4789 N   0  0  0  0  0  0  0  0  0  0  0  0
  -28.7467  -20.9989   16.9261 N   0  0  0  0  0  0  0  0  0  0  0  0
  -28.5864  -16.4835   18.7081 N   0  0  0  0  0  0  0  0  0  0  0  0
  -26.0761  -33.6005   21.5726 N   0  0  0  0  0  0  0  0  0  0  0  0
  -20.9844  -29.7119   22.9829 N   0  0  0  0  0  0  0  0  0  0  0  0
  -19.2072  -27.3209   20.9354 N   0  3  0  0  0  0  0  0  0  0  0  0
  -28.0991   -9.0828   17.7145 O   0  0  0  0  0  0  0  0  0  0  0  0
  -26.3568  -31.5456   22.6313 O   0  0  0  0  0  0  0  0  0  0  0  0
  -22.2817  -32.1925   22.3727 O   0  0  0  0  0  0  0  0  0  0  0  0
  -28.2061  -21.1707   19.2053 O   0  0  0  0  0  0  0  0  0  0  0  0
  -21.5314  -27.5086   22.5100 O   0  0  0  0  0  0  0  0  0  0  0  0
  -28.6308  -17.8870   20.5546 O   0  0  0  0  0  0  0  0  0  0  0  0
  -21.5522   -6.9684   21.3549 O   0  0  0  0  0  0  0  0  0  0  0  0
  -27.7516  -26.1230   20.1142 O   0  0  0  0  0  0  0  0  0  1  0  0
  -22.6406   -1.5866   21.8608 F   0  0  0  0  0  0  0  0  0  0  0  0
  -20.9702   -5.6175   23.6957 F   0  0  0  0  0  0  0  0  0  0  0  0
  1  2  1  0  0  0  0
  1  5  2  0  0  0  0
  2  6  2  0  0  0  0
  3  8  2  0  0  0  0
  3 17  1  0  0  0  0
  4  9  1  0  0  0  0
  4 17  2  0  0  0  0
  5 19  1  0  0  0  0
  6 21  1  0  0  0  0
  7 10  2  0  0  0  0
  7 20  1  0  0  0  0
  8 27  1  0  0  0  0
  9 27  2  0  0  0  0
 10 28  1  0  0  0  0
 11 12  2  0  0  0  0
 11 29  1  0  0  0  0
 12 30  1  0  0  0  0
 13 22  1  0  0  0  0
 13 28  2  0  0  0  0
 14 23  2  0  0  0  0
 14 25  1  0  0  0  0
 15 25  2  0  0  0  0
 15 26  1  0  0  0  0
 16 30  2  0  0  0  0
 16 31  1  0  0  0  0
 17 32  1  0  0  0  0
 18 32  1  0  0  0  0
 18 33  2  0  0  0  0
 18 34  1  0  0  0  0
 19 21  2  0  0  0  0
 19 40  1  0  0  0  0
 20 22  2  0  0  0  0
 20 41  1  0  0  0  0
 21 49  1  0  0  0  0
 22 42  1  0  0  0  0
 23 24  1  0  0  0  0
 23 52  1  0  0  0  0
 24 26  2  0  0  0  0
 24 53  1  0  0  0  0
 25 71  1  0  0  0  0
 26 72  1  0  0  0  0
 27 82  1  0  0  0  0
 28 83  1  0  0  0  0
 29 31  2  0  0  0  0
 29 82  1  0  0  0  0
 30 84  1  0  0  0  0
 31 85  1  0  0  0  0
 32 65  2  0  0  0  0
 33 66  1  0  0  0  0
 33 69  1  0  0  0  0
 34 70  1  0  0  0  0
 34 76  2  0  0  0  0
 35 50  1  0  0  0  0
 35 73  1  0  0  0  0
 35 77  2  0  0  0  0
 36 62  1  0  0  0  0
 36 67  1  0  0  0  0
 36 78  2  0  0  0  0
 37 59  1  0  0  0  0
 37 71  1  0  0  0  0
 37 79  2  0  0  0  0
 38 63  1  0  0  0  0
 38 74  1  0  0  0  0
 38 80  2  0  0  0  0
 39 68  1  0  0  0  0
 39 72  1  0  0  0  0
 39 81  2  0  0  0  0
 40 43  1  0  0  0  0
 41 50  1  0  0  0  0
 42 67  1  0  0  0  0
 43 45  1  0  0  0  0
 44 46  1  0  0  0  0
 44 47  1  0  0  0  0
 45 49  1  0  0  0  0
 46 51  1  0  0  0  0
 47 68  1  0  0  0  0
 48 51  1  0  0  0  0
 48 68  1  0  0  0  0
 49 73  1  0  0  0  0
 50 67  1  0  0  0  0
 51 66  1  0  0  0  0
 54 63  1  0  0  0  0
 55 64  1  0  0  0  0
 56 64  1  0  0  0  0
 57 64  1  0  0  0  0
 58 75  1  0  0  0  0
 59 60  1  0  0  0  0
 60 61  1  0  0  0  0
 61 83  1  0  0  0  0
 62 64  1  0  0  0  0
 62 74  1  0  0  0  0
 63 75  1  0  0  0  0
 65 66  1  0  0  0  0
M  CHG  1  75   1
M  ISO  4  39 100  61 101  72 100  83 101
M  END
> <Batch ID>
0062

> <Smiles>
CNC(C)C(=O)NC(C(=O)N1Cc2cc([101O:1][101CH2:1]CCC(=O)Nc3cc(C)c(C)c([100NH:0][100C:0](=O)N4CCCC(n5nc(-c6ccc(Oc7ccc(F)cc7F)cc6)c(C(N)=O)c5N)C4)c3)ccc2CC1C(=O)NC1CCCc2ccccc21)C(C)(C)C

> <Shape>
0.271

> <Color>
0.099

> <Negative vol penalty>
0.000

$$$$

  -OEChem-04042323093D

 85 93  0     1  0  0  0  0  0999 V2000
  -16.7640  -29.1949   24.5986 C   0  0  0  0  0  0  0  0  0  0  0  0
  -17.8053  -28.2729   24.6308 C   0  0  0  0  0  0  0  0  0  0  0  0
  -23.0894   -9.8065   20.0147 C   0  0  0  0  0  0  0  0  0  0  0  0
  -23.7552   -9.9787   22.3308 C   0  0  0  0  0  0  0  0  0  0  0  0
  -16.7459  -30.1905   23.6227 C   0  0  0  0  0  0  0  0  0  0  0  0
  -18.8285  -28.3453   23.6863 C   0  0  0  0  0  0  0  0  0  0  0  0
  -24.7414  -27.0073   24.5547 C   0  0  0  0  0  0  0  0  0  0  0  0
  -22.3226   -8.6818   20.3188 C   0  0  0  0  0  0  0  0  0  0  0  0
  -22.9883   -8.8540   22.6349 C   0  0  0  0  0  0  0  0  0  0  0  0
  -25.4971  -25.8703   24.2721 C   0  0  0  0  0  0  0  0  0  0  0  0
  -19.3085   -8.0215   21.7017 C   0  0  0  0  0  0  0  0  0  0  0  0
  -18.0220   -7.9503   21.1674 C   0  0  0  0  0  0  0  0  0  0  0  0
  -29.8447  -17.5559   22.9179 C   0  0  0  0  0  0  0  0  0  0  0  0
  -31.7837  -18.5198   23.9892 C   0  0  0  0  0  0  0  0  0  0  0  0
  -26.2157  -26.8709   22.1980 C   0  0  0  0  0  0  0  0  0  0  0  0
  -32.0410  -16.6479   22.4836 C   0  0  0  0  0  0  0  0  0  0  0  0
  -18.6125   -5.9089   20.0179 C   0  0  0  0  0  0  0  0  0  0  0  0
  -23.8058  -10.4550   21.0207 C   0  0  0  0  0  0  0  0  0  0  0  0
  -30.4053  -18.5012   23.7768 C   0  0  0  0  0  0  0  0  0  0  0  0
  -24.1817  -12.9610   20.7272 C   0  0  0  0  0  0  0  0  0  0  0  0
  -17.7745  -30.2810   22.6717 C   0  0  0  0  0  0  0  0  0  0  0  0
  -24.7084  -28.0820   23.6544 C   0  0  0  0  0  0  0  0  0  0  0  0
  -18.8235  -29.3422   22.6959 C   0  0  0  0  0  0  0  0  0  0  0  0
  -25.4608  -28.0214   22.4727 C   0  0  0  0  0  0  0  0  0  0  0  0
  -30.6625  -16.6292   22.2713 C   0  0  0  0  0  0  0  0  0  0  0  0
  -22.2720   -8.2055   21.6288 C   0  0  0  0  0  0  0  0  0  0  0  0
  -26.2321  -25.8008   23.0922 C   0  0  0  0  0  0  0  0  0  0  0  0
  -20.2470   -7.0364   21.3941 C   0  0  0  0  0  0  0  0  0  0  0  0
  -17.6740   -6.8940   20.3255 C   0  0  0  0  0  0  0  0  0  0  0  0
  -32.6016  -17.5931   23.3426 C   0  0  0  0  0  0  0  0  0  0  0  0
  -19.8990   -5.9801   20.5522 C   0  0  0  0  0  0  0  0  0  0  0  0
  -24.5986  -11.6165   20.7072 C   0  0  0  0  0  0  0  0  0  0  0  0
  -25.2964  -13.6717   20.3548 C   0  0  0  0  0  0  0  0  0  0  0  0
  -29.5398  -19.4816   24.4626 C   0  0  0  0  0  0  0  0  0  0  0  0
  -22.9013  -13.5176   21.0534 C   0  0  0  0  0  0  0  0  0  0  0  0
  -22.4382  -29.5106   21.9489 C   0  0  0  0  0  0  0  0  0  0  0  0
  -27.8303  -22.4877   23.3345 C   0  0  0  0  0  0  0  0  0  0  0  0
  -24.8281  -31.5814   21.2260 C   0  0  0  0  0  0  0  0  0  0  0  0
  -28.1809  -32.1504   20.9396 C   0  0  0  0  0  0  0  0  0  0  0  0
  -30.7628  -14.6805   20.6780 C   0  0  0  0  0  0  0  0  0  0  0  0
  -17.6871  -31.3456   21.6069 C   0  0  0  0  0  0  0  0  0  0  0  0
  -23.9095  -29.3123   23.9866 C   0  0  0  0  0  0  0  0  0  0  0  0
  -25.4753  -29.1564   21.4828 C   0  0  0  0  0  0  0  0  0  0  0  0
  -19.0043  -31.5822   20.8726 C   0  0  0  0  0  0  0  0  0  0  0  0
  -29.7178  -12.1057   18.4519 C   0  0  0  0  0  0  0  0  0  0  0  0
  -19.6375  -30.2539   20.4706 C   0  0  0  0  0  0  0  0  0  0  0  0
  -28.2585  -11.8595   18.8418 C   0  0  0  0  0  0  0  0  0  0  0  0
  -30.5857  -12.4160   19.6701 C   0  0  0  0  0  0  0  0  0  0  0  0
  -28.6326  -13.2583   20.9132 C   0  0  0  0  0  0  0  0  0  0  0  0
  -19.9645  -29.4031   21.7038 C   0  0  1  0  0  0  0  0  0  0  0  0
  -23.5408  -30.1355   22.7562 C   0  0  1  0  0  0  0  0  0  0  0  0
  -27.7067  -13.0056   19.7122 C   0  0  2  0  0  0  0  0  0  0  0  0
  -29.8289  -33.9282   20.2910 C   0  0  0  0  0  0  0  0  0  0  0  0
  -24.1876  -31.0978   18.2823 C   0  0  0  0  0  0  0  0  0  0  0  0
  -26.4048  -32.1078   17.7058 C   0  0  0  0  0  0  0  0  0  0  0  0
  -24.6748  -33.4803   18.8661 C   0  0  0  0  0  0  0  0  0  0  0  0
  -29.4081  -32.1586   23.6327 C   0  0  0  0  0  0  0  0  0  0  0  0
  -27.8969  -21.3158   24.2785 C   0  0  0  0  0  0  0  0  0  0  0  0
  -26.9457  -23.6371   23.7745 C   0  0  0  0  0  0  0  0  0  1  0  0
  -25.8808  -31.6646   20.1471 C   0  0  1  0  0  0  0  0  0  0  0  0
  -29.0552  -33.2889   21.4335 C   0  0  2  0  0  0  0  0  0  0  0  0
  -25.2854  -32.0653   18.7679 C   0  0  0  0  0  0  0  0  0  0  0  0
  -25.8783  -11.4788   20.3501 N   0  0  0  0  0  0  0  0  0  0  0  0
  -26.2751  -12.7458   20.1422 N   0  0  0  0  0  0  0  0  0  0  0  0
  -24.6732  -30.3353   21.8496 N   0  0  0  0  0  0  0  0  0  0  0  0
  -30.0035  -13.5144   20.4443 N   0  0  0  0  0  0  0  0  0  0  0  0
  -25.5252  -14.9921   20.1916 N   0  0  0  0  0  0  0  0  0  0  0  0
  -21.8659  -12.6450   21.4152 N   0  0  0  0  0  0  0  0  0  0  0  0
  -30.0934  -15.6698   21.3976 N   0  0  0  0  0  0  0  0  0  0  0  0
  -28.7980  -20.3221   23.7196 N   0  0  0  0  0  0  0  0  0  0  0  0
  -21.1687  -29.8853   22.3456 N   0  0  0  0  0  0  0  0  0  0  0  0
  -26.9037  -32.5782   20.6445 N   0  0  0  0  0  0  0  0  0  0  0  0
  -29.5348  -19.4910   25.7957 N   0  3  0  0  0  0  0  0  0  0  0  0
  -30.0326  -32.7912   22.4425 N   0  3  0  0  0  0  0  0  0  0  0  0
  -22.6773  -14.7511   21.0091 O   0  0  0  0  0  0  0  0  0  0  0  0
  -22.7186  -28.7464   21.0329 O   0  0  0  0  0  0  0  0  0  0  0  0
  -28.4508  -22.5175   22.2727 O   0  0  0  0  0  0  0  0  0  0  0  0
  -24.1725  -32.5870   21.5101 O   0  0  0  0  0  0  0  0  0  0  0  0
  -28.5910  -30.9977   20.8234 O   0  0  0  0  0  0  0  0  0  0  0  0
  -31.9119  -14.8040   20.2464 O   0  0  0  0  0  0  0  0  0  0  0  0
  -21.5236   -7.1081   21.9260 O   0  0  0  0  0  0  0  0  0  0  0  0
  -26.9701  -24.6919   22.8136 O   0  0  0  0  0  0  0  0  0  1  0  0
  -16.4381   -6.8249   19.8137 F   0  0  0  0  0  0  0  0  0  0  0  0
  -33.9253  -17.6111   23.5466 F   0  0  0  0  0  0  0  0  0  0  0  0
  -20.7959   -5.0302   20.2540 F   0  0  0  0  0  0  0  0  0  0  0  0
  1  2  1  0  0  0  0
  1  5  2  0  0  0  0
  2  6  2  0  0  0  0
  3  8  2  0  0  0  0
  3 18  1  0  0  0  0
  4  9  1  0  0  0  0
  4 18  2  0  0  0  0
  5 21  1  0  0  0  0
  6 23  1  0  0  0  0
  7 10  2  0  0  0  0
  7 22  1  0  0  0  0
  8 26  1  0  0  0  0
  9 26  2  0  0  0  0
 10 27  1  0  0  0  0
 11 12  2  0  0  0  0
 11 28  1  0  0  0  0
 12 29  1  0  0  0  0
 13 19  2  0  0  0  0
 13 25  1  0  0  0  0
 14 19  1  0  0  0  0
 14 30  2  0  0  0  0
 15 24  1  0  0  0  0
 15 27  2  0  0  0  0
 16 25  2  0  0  0  0
 16 30  1  0  0  0  0
 17 29  2  0  0  0  0
 17 31  1  0  0  0  0
 18 32  1  0  0  0  0
 19 34  1  0  0  0  0
 20 32  1  0  0  0  0
 20 33  2  0  0  0  0
 20 35  1  0  0  0  0
 21 23  2  0  0  0  0
 21 41  1  0  0  0  0
 22 24  2  0  0  0  0
 22 42  1  0  0  0  0
 23 50  1  0  0  0  0
 24 43  1  0  0  0  0
 25 69  1  0  0  0  0
 26 81  1  0  0  0  0
 27 82  1  0  0  0  0
 28 31  2  0  0  0  0
 28 81  1  0  0  0  0
 29 83  1  0  0  0  0
 30 84  1  0  0  0  0
 31 85  1  0  0  0  0
 32 63  2  0  0  0  0
 33 64  1  0  0  0  0
 33 67  1  0  0  0  0
 34 70  1  0  0  0  0
 34 73  2  0  0  0  0
 35 68  1  0  0  0  0
 35 75  2  0  0  0  0
 36 51  1  0  0  0  0
 36 71  1  0  0  0  0
 36 76  2  0  0  0  0
 37 58  1  0  0  0  0
 37 59  1  0  0  0  0
 37 77  2  0  0  0  0
 38 60  1  0  0  0  0
 38 65  1  0  0  0  0
 38 78  2  0  0  0  0
 39 61  1  0  0  0  0
 39 72  1  0  0  0  0
 39 79  2  0  0  0  0
 40 66  1  0  0  0  0
 40 69  1  0  0  0  0
 40 80  2  0  0  0  0
 41 44  1  0  0  0  0
 42 51  1  0  0  0  0
 43 65  1  0  0  0  0
 44 46  1  0  0  0  0
 45 47  1  0  0  0  0
 45 48  1  0  0  0  0
 46 50  1  0  0  0  0
 47 52  1  0  0  0  0
 48 66  1  0  0  0  0
 49 52  1  0  0  0  0
 49 66  1  0  0  0  0
 50 71  1  0  0  0  0
 51 65  1  0  0  0  0
 52 64  1  0  0  0  0
 53 61  1  0  0  0  0
 54 62  1  0  0  0  0
 55 62  1  0  0  0  0
 56 62  1  0  0  0  0
 57 74  1  0  0  0  0
 58 70  1  0  0  0  0
 59 82  1  0  0  0  0
 60 62  1  0  0  0  0
 60 72  1  0  0  0  0
 61 74  1  0  0  0  0
 63 64  1  0  0  0  0
M  CHG  2  73   1  74   1
M  ISO  4  40 100  59 101  69 100  82 101
M  END
> <Batch ID>
0062

> <Smiles>
CNC(C)C(=O)NC(C(=O)N1Cc2cc([101O:1][101CH2:1]C(=O)CNC(=N)c3cc(F)cc([100NH:0][100C:0](=O)N4CCCC(n5nc(-c6ccc(Oc7ccc(F)cc7F)cc6)c(C(N)=O)c5N)C4)c3)ccc2CC1C(=O)NC1CCCc2ccccc21)C(C)(C)C

> <Shape>
0.250

> <Color>
0.219

> <Negative vol penalty>
0.000

$$$$

  -OEChem-04042323093D

 87 96  0     1  0  0  0  0  0999 V2000
  -19.5311  -28.8230   26.3053 C   0  0  0  0  0  0  0  0  0  0  0  0
  -20.8466  -28.5239   25.9654 C   0  0  0  0  0  0  0  0  0  0  0  0
  -24.4160  -11.3847   18.2344 C   0  0  0  0  0  0  0  0  0  0  0  0
  -22.6064  -12.8775   18.8124 C   0  0  0  0  0  0  0  0  0  0  0  0
  -18.5112  -28.6326   25.3739 C   0  0  0  0  0  0  0  0  0  0  0  0
  -21.1427  -28.0332   24.6942 C   0  0  0  0  0  0  0  0  0  0  0  0
  -26.1843  -29.1465   21.4005 C   0  0  0  0  0  0  0  0  0  0  0  0
  -23.6333  -10.8274   17.2233 C   0  0  0  0  0  0  0  0  0  0  0  0
  -21.8237  -12.3202   17.8012 C   0  0  0  0  0  0  0  0  0  0  0  0
  -27.3551  -28.4161   21.2016 C   0  0  0  0  0  0  0  0  0  0  0  0
  -21.1119   -8.5905   16.9727 C   0  0  0  0  0  0  0  0  0  0  0  0
  -21.0944   -7.2004   16.8595 C   0  0  0  0  0  0  0  0  0  0  0  0
  -26.4396  -27.5162   19.1592 C   0  0  0  0  0  0  0  0  0  0  0  0
  -30.1438  -21.6822   20.1724 C   0  0  0  0  0  0  0  0  0  0  0  0
  -30.5346  -19.9352   18.5500 C   0  0  0  0  0  0  0  0  0  0  0  0
  -21.9650   -7.3725   14.6123 C   0  0  0  0  0  0  0  0  0  0  0  0
  -23.9026  -12.4098   19.0290 C   0  0  0  0  0  0  0  0  0  0  0  0
  -25.2647  -12.3205   21.1840 C   0  0  0  0  0  0  0  0  0  0  0  0
  -18.7962  -28.1484   24.0875 C   0  0  0  0  0  0  0  0  0  0  0  0
  -25.1263  -29.0587   20.4843 C   0  0  0  0  0  0  0  0  0  0  0  0
  -20.1255  -27.8349   23.7452 C   0  0  0  0  0  0  0  0  0  0  0  0
  -25.2575  -28.2485   19.3474 C   0  0  0  0  0  0  0  0  0  0  0  0
  -31.9064  -21.9239   18.5380 C   0  0  0  0  0  0  0  0  0  0  0  0
  -31.1886  -22.4256   19.6236 C   0  0  0  0  0  0  0  0  0  0  0  0
  -29.8168  -20.4369   19.6357 C   0  0  0  0  0  0  0  0  0  0  0  0
  -22.3372  -11.2951   17.0067 C   0  0  0  0  0  0  0  0  0  0  0  0
  -27.4817  -27.5986   20.0824 C   0  0  0  0  0  0  0  0  0  0  0  0
  -21.5558   -9.3717   15.9057 C   0  0  0  0  0  0  0  0  0  0  0  0
  -21.5210   -6.5914   15.6793 C   0  0  0  0  0  0  0  0  0  0  0  0
  -31.5794  -20.6786   18.0012 C   0  0  0  0  0  0  0  0  0  0  0  0
  -21.9824   -8.7627   14.7256 C   0  0  0  0  0  0  0  0  0  0  0  0
  -24.7104  -12.9855   20.0740 C   0  0  0  0  0  0  0  0  0  0  0  0
  -25.9387  -13.3009   21.8703 C   0  0  0  0  0  0  0  0  0  0  0  0
  -32.7881  -23.9643   20.7300 C   0  0  0  0  0  0  0  0  0  0  0  0
  -25.1781  -10.9399   21.5611 C   0  0  0  0  0  0  0  0  0  0  0  0
  -22.1039  -28.0861   20.6346 C   0  0  0  0  0  0  0  0  0  0  0  0
  -21.9979  -29.2148   17.5954 C   0  0  0  0  0  0  0  0  0  0  0  0
  -23.6883  -30.0080   14.7388 C   0  0  0  0  0  0  0  0  0  0  0  0
  -28.2939  -18.4264   19.7874 C   0  0  0  0  0  0  0  0  0  0  0  0
  -17.6543  -27.9143   23.1305 C   0  0  0  0  0  0  0  0  0  0  0  0
  -23.8805  -29.8737   20.6994 C   0  0  0  0  0  0  0  0  0  0  0  0
  -24.1588  -28.1351   18.3235 C   0  0  0  0  0  0  0  0  0  0  0  0
  -33.1294  -25.4151   21.0132 C   0  0  0  0  0  0  0  0  0  0  0  0
  -18.0999  -27.7447   21.6803 C   0  0  0  0  0  0  0  0  0  0  0  0
  -31.9603  -26.2506   21.4867 C   0  0  0  0  0  0  0  0  0  0  0  0
  -25.2578  -18.0856   22.1091 C   0  0  0  0  0  0  0  0  0  0  0  0
  -19.2814  -26.7838   21.5938 C   0  0  0  0  0  0  0  0  0  0  0  0
  -25.3557  -16.5977   22.4376 C   0  0  0  0  0  0  0  0  0  0  0  0
  -26.5956  -18.6701   21.6733 C   0  0  0  0  0  0  0  0  0  0  0  0
  -30.4039  -24.6691   20.3823 C   0  0  0  0  0  0  0  0  0  0  0  0
  -26.6225  -16.6356   20.2186 C   0  0  0  0  0  0  0  0  0  0  0  0
  -20.4898  -27.3241   22.3681 C   0  0  1  0  0  0  0  0  0  0  0  0
  -22.6650  -29.3109   19.9692 C   0  0  1  0  0  0  0  0  0  0  0  0
  -30.8315  -26.1330   20.4759 C   0  0  1  0  0  0  0  0  0  0  0  0
  -26.2929  -15.8297   21.4848 C   0  0  2  0  0  0  0  0  0  0  0  0
  -33.0290  -22.7019   17.9312 C   0  0  0  0  0  0  0  0  0  0  0  0
  -23.3259  -30.8723   12.4109 C   0  0  0  0  0  0  0  0  0  0  0  0
  -20.9200  -26.4874   16.7531 C   0  0  0  0  0  0  0  0  0  0  0  0
  -21.4751  -27.0772   14.3841 C   0  0  0  0  0  0  0  0  0  0  0  0
  -19.8074  -28.4354   15.6478 C   0  0  0  0  0  0  0  0  0  0  0  0
  -25.3866  -32.3813   15.2309 C   0  0  0  0  0  0  0  0  0  0  0  0
  -29.6508  -27.0194   20.8670 C   0  0  0  0  0  0  0  0  0  1  0  0
  -22.2604  -28.6307   16.2283 C   0  0  1  0  0  0  0  0  0  0  0  0
  -23.6453  -31.2392   13.8518 C   0  0  2  0  0  0  0  0  0  0  0  0
  -21.1358  -27.6581   15.7734 C   0  0  0  0  0  0  0  0  0  0  0  0
  -25.0065  -14.2878   20.0524 N   0  0  0  0  0  0  0  0  0  0  0  0
  -25.7541  -14.4489   21.1575 N   0  0  0  0  0  0  0  0  0  0  0  0
  -31.5125  -23.7155   20.1948 N   0  0  0  0  0  0  0  0  0  0  0  0
  -22.9578  -28.9466   18.5815 N   0  0  0  0  0  0  0  0  0  0  0  0
  -27.2090  -17.9378   20.5558 N   0  0  0  0  0  0  0  0  0  0  0  0
  -26.6653  -13.2843   23.0079 N   0  0  0  0  0  0  0  0  0  0  0  0
  -24.1211  -10.5386   22.3894 N   0  0  0  0  0  0  0  0  0  0  0  0
  -28.7552  -19.6814   20.1934 N   0  0  0  0  0  0  0  0  0  0  0  0
  -21.1583  -28.3564   21.6054 N   0  0  0  0  0  0  0  0  0  0  0  0
  -22.4684  -29.7640   15.3333 N   0  0  0  0  0  0  0  0  0  0  0  0
  -24.9590  -31.9424   13.8776 N   0  3  0  0  0  0  0  0  0  0  0  0
  -33.6604  -23.1143   20.9285 O   0  0  0  0  0  0  0  0  0  0  0  0
  -26.0225  -10.0905   21.1884 O   0  0  0  0  0  0  0  0  0  0  0  0
  -22.4985  -26.9778   20.2916 O   0  0  0  0  0  0  0  0  0  0  0  0
  -20.9822  -29.8902   17.7796 O   0  0  0  0  0  0  0  0  0  0  0  0
  -24.7017  -29.3285   14.8863 O   0  0  0  0  0  0  0  0  0  0  0  0
  -28.7751  -17.7745   18.8582 O   0  0  0  0  0  0  0  0  0  0  0  0
  -21.5733  -10.7516   16.0200 O   0  0  0  0  0  0  0  0  0  0  0  0
  -28.6232  -26.8840   19.8862 O   0  0  0  0  0  0  0  0  0  1  0  0
  -21.5057   -5.2563   15.5713 F   0  0  0  0  0  0  0  0  0  0  0  0
  -32.2619  -20.1881   16.9569 F   0  0  0  0  0  0  0  0  0  0  0  0
  -22.4111   -9.5078   13.6976 F   0  0  0  0  0  0  0  0  0  0  0  0
  1  2  1  0  0  0  0
  1  5  2  0  0  0  0
  2  6  2  0  0  0  0
  3  8  2  0  0  0  0
  3 17  1  0  0  0  0
  4  9  1  0  0  0  0
  4 17  2  0  0  0  0
  5 19  1  0  0  0  0
  6 21  1  0  0  0  0
  7 10  2  0  0  0  0
  7 20  1  0  0  0  0
  8 26  1  0  0  0  0
  9 26  2  0  0  0  0
 10 27  1  0  0  0  0
 11 12  2  0  0  0  0
 11 28  1  0  0  0  0
 12 29  1  0  0  0  0
 13 22  1  0  0  0  0
 13 27  2  0  0  0  0
 14 24  1  0  0  0  0
 14 25  2  0  0  0  0
 15 25  1  0  0  0  0
 15 30  2  0  0  0  0
 16 29  2  0  0  0  0
 16 31  1  0  0  0  0
 17 32  1  0  0  0  0
 18 32  1  0  0  0  0
 18 33  2  0  0  0  0
 18 35  1  0  0  0  0
 19 21  2  0  0  0  0
 19 40  1  0  0  0  0
 20 22  2  0  0  0  0
 20 41  1  0  0  0  0
 21 52  1  0  0  0  0
 22 42  1  0  0  0  0
 23 24  2  0  0  0  0
 23 30  1  0  0  0  0
 23 56  1  0  0  0  0
 24 68  1  0  0  0  0
 25 73  1  0  0  0  0
 26 83  1  0  0  0  0
 27 84  1  0  0  0  0
 28 31  2  0  0  0  0
 28 83  1  0  0  0  0
 29 85  1  0  0  0  0
 30 86  1  0  0  0  0
 31 87  1  0  0  0  0
 32 66  2  0  0  0  0
 33 67  1  0  0  0  0
 33 71  1  0  0  0  0
 34 43  1  0  0  0  0
 34 68  1  0  0  0  0
 34 77  2  0  0  0  0
 35 72  1  0  0  0  0
 35 78  2  0  0  0  0
 36 53  1  0  0  0  0
 36 74  1  0  0  0  0
 36 79  2  0  0  0  0
 37 63  1  0  0  0  0
 37 69  1  0  0  0  0
 37 80  2  0  0  0  0
 38 64  1  0  0  0  0
 38 75  1  0  0  0  0
 38 81  2  0  0  0  0
 39 70  1  0  0  0  0
 39 73  1  0  0  0  0
 39 82  2  0  0  0  0
 40 44  1  0  0  0  0
 41 53  1  0  0  0  0
 42 69  1  0  0  0  0
 43 45  1  0  0  0  0
 44 47  1  0  0  0  0
 45 54  1  0  0  0  0
 46 48  1  0  0  0  0
 46 49  1  0  0  0  0
 47 52  1  0  0  0  0
 48 55  1  0  0  0  0
 49 70  1  0  0  0  0
 50 54  1  0  0  0  0
 50 68  1  0  0  0  0
 51 55  1  0  0  0  0
 51 70  1  0  0  0  0
 52 74  1  0  0  0  0
 53 69  1  0  0  0  0
 54 62  1  0  0  0  0
 55 67  1  0  0  0  0
 57 64  1  0  0  0  0
 58 65  1  0  0  0  0
 59 65  1  0  0  0  0
 60 65  1  0  0  0  0
 61 76  1  0  0  0  0
 62 84  1  0  0  0  0
 63 65  1  0  0  0  0
 63 75  1  0  0  0  0
 64 76  1  0  0  0  0
 66 67  1  0  0  0  0
M  CHG  1  76   1
M  ISO  4  39 100  62 101  73 100  84 101
M  END
> <Batch ID>
0062

> <Smiles>
CNC(C)C(=O)NC(C(=O)N1Cc2cc([101O:1][101CH2:1]C3CCC(=O)N(c4cc([100NH:0][100C:0](=O)N5CCCC(n6nc(-c7ccc(Oc8ccc(F)cc8F)cc7)c(C(N)=O)c6N)C5)cc(F)c4C)C3)ccc2CC1C(=O)NC1CCCc2ccccc21)C(C)(C)C

> <Shape>
0.197

> <Color>
0.074

> <Negative vol penalty>
0.000

$$$$

  -OEChem-04042323093D

 84 92  0     1  0  0  0  0  0999 V2000
  -29.9422  -33.0998   29.9317 C   0  0  0  0  0  0  0  0  0  0  0  0
  -29.8329  -31.7129   29.9279 C   0  0  0  0  0  0  0  0  0  0  0  0
  -23.0710   -9.8797   19.9499 C   0  0  0  0  0  0  0  0  0  0  0  0
  -23.8252   -9.8973   22.2451 C   0  0  0  0  0  0  0  0  0  0  0  0
  -29.1690  -33.8613   29.0564 C   0  0  0  0  0  0  0  0  0  0  0  0
  -28.9495  -31.0867   29.0493 C   0  0  0  0  0  0  0  0  0  0  0  0
  -29.7292  -25.6840   26.2729 C   0  0  0  0  0  0  0  0  0  0  0  0
  -32.6731  -17.4813   23.4400 C   0  0  0  0  0  0  0  0  0  0  0  0
  -32.0835  -16.5945   22.5392 C   0  0  0  0  0  0  0  0  0  0  0  0
  -22.3211   -8.7316   20.2051 C   0  0  0  0  0  0  0  0  0  0  0  0
  -23.0752   -8.7493   22.5004 C   0  0  0  0  0  0  0  0  0  0  0  0
  -29.2622  -24.4033   26.5650 C   0  0  0  0  0  0  0  0  0  0  0  0
  -19.8418   -7.9705   23.0996 C   0  0  0  0  0  0  0  0  0  0  0  0
  -19.0818   -7.9414   24.2688 C   0  0  0  0  0  0  0  0  0  0  0  0
  -27.4336  -24.7254   25.0250 C   0  0  0  0  0  0  0  0  0  0  0  0
  -29.9022  -17.4572   23.1179 C   0  0  0  0  0  0  0  0  0  0  0  0
  -20.3121   -6.0027   25.0204 C   0  0  0  0  0  0  0  0  0  0  0  0
  -23.8231  -10.4625   20.9699 C   0  0  0  0  0  0  0  0  0  0  0  0
  -24.1772  -12.9852   20.8351 C   0  0  0  0  0  0  0  0  0  0  0  0
  -28.2827  -33.2436   28.1599 C   0  0  0  0  0  0  0  0  0  0  0  0
  -29.0446  -26.5005   25.3613 C   0  0  0  0  0  0  0  0  0  0  0  0
  -28.1627  -31.8407   28.1621 C   0  0  0  0  0  0  0  0  0  0  0  0
  -27.8954  -26.0151   24.7212 C   0  0  0  0  0  0  0  0  0  0  0  0
  -31.8774  -18.3561   24.1798 C   0  0  0  0  0  0  0  0  0  0  0  0
  -30.6980  -16.5824   22.3782 C   0  0  0  0  0  0  0  0  0  0  0  0
  -30.4919  -18.3440   24.0187 C   0  0  0  0  0  0  0  0  0  0  0  0
  -22.3231   -8.1664   21.4803 C   0  0  0  0  0  0  0  0  0  0  0  0
  -28.1126  -23.9248   25.9433 C   0  0  0  0  0  0  0  0  0  0  0  0
  -20.8370   -7.0156   22.8908 C   0  0  0  0  0  0  0  0  0  0  0  0
  -19.3169   -6.9576   25.2293 C   0  0  0  0  0  0  0  0  0  0  0  0
  -21.0722   -6.0318   23.8512 C   0  0  0  0  0  0  0  0  0  0  0  0
  -24.5985  -11.6481   20.7067 C   0  0  0  0  0  0  0  0  0  0  0  0
  -25.2738  -13.7273   20.4699 C   0  0  0  0  0  0  0  0  0  0  0  0
  -28.1087  -21.6351   25.4661 C   0  0  0  0  0  0  0  0  0  1  0  0
  -22.9082  -13.5096   21.2476 C   0  0  0  0  0  0  0  0  0  0  0  0
  -27.7350  -20.3605   25.6437 C   0  0  0  0  0  0  0  0  0  0  0  0
  -28.2829  -19.3129   24.7230 C   0  0  0  0  0  0  0  0  0  0  0  0
  -27.5685  -29.3102   25.5360 C   0  0  0  0  0  0  0  0  0  0  0  0
  -27.3163  -28.9382   22.3235 C   0  0  0  0  0  0  0  0  0  0  0  0
  -27.2413  -26.8191   19.6493 C   0  0  0  0  0  0  0  0  0  0  0  0
  -30.7445  -14.7481   20.6520 C   0  0  0  0  0  0  0  0  0  0  0  0
  -27.4331  -34.1111   27.2654 C   0  0  0  0  0  0  0  0  0  0  0  0
  -29.5764  -27.8696   25.0370 C   0  0  0  0  0  0  0  0  0  0  0  0
  -27.1355  -26.8445   23.7196 C   0  0  0  0  0  0  0  0  0  0  0  0
  -26.7955  -33.3499   26.1059 C   0  0  0  0  0  0  0  0  0  0  0  0
  -29.6246  -12.3249   18.2960 C   0  0  0  0  0  0  0  0  0  0  0  0
  -26.1719  -32.0486   26.6003 C   0  0  0  0  0  0  0  0  0  0  0  0
  -28.1825  -12.0428   18.7237 C   0  0  0  0  0  0  0  0  0  0  0  0
  -30.5377  -12.5569   19.4985 C   0  0  0  0  0  0  0  0  0  0  0  0
  -28.6308  -13.2989   20.8704 C   0  0  0  0  0  0  0  0  0  0  0  0
  -27.2339  -31.1234   27.2067 C   0  0  1  0  0  0  0  0  0  0  0  0
  -28.5107  -28.8078   24.4789 C   0  0  1  0  0  0  0  0  0  0  0  0
  -27.6601  -13.1229   19.6912 C   0  0  2  0  0  0  0  0  0  0  0  0
  -32.5363  -19.2951   25.1372 C   0  0  0  0  0  0  0  0  0  0  0  0
  -26.7487  -19.8922   26.6681 C   0  0  0  0  0  0  0  0  0  0  0  0
  -26.9852  -26.8059   17.1530 C   0  0  0  0  0  0  0  0  0  0  0  0
  -24.3162  -29.4014   22.6312 C   0  0  0  0  0  0  0  0  0  0  0  0
  -24.0047  -28.4525   20.3354 C   0  0  0  0  0  0  0  0  0  0  0  0
  -25.3485  -30.5301   20.6527 C   0  0  0  0  0  0  0  0  0  0  0  0
  -29.9241  -25.6304   19.2642 C   0  0  0  0  0  0  0  0  0  0  0  0
  -26.3038  -28.3105   21.3962 C   0  0  1  0  0  0  0  0  0  0  0  0
  -27.9648  -26.8548   18.3153 C   0  0  2  0  0  0  0  0  0  0  0  0
  -25.0063  -29.1585   21.2741 C   0  0  0  0  0  0  0  0  0  0  0  0
  -25.8639  -11.5437   20.2923 N   0  0  0  0  0  0  0  0  0  0  0  0
  -26.2472  -12.8247   20.1569 N   0  0  0  0  0  0  0  0  0  0  0  0
  -27.6916  -28.1788   23.4408 N   0  0  0  0  0  0  0  0  0  0  0  0
  -29.9815  -13.5957   20.3680 N   0  0  0  0  0  0  0  0  0  0  0  0
  -25.4907  -15.0573   20.3892 N   0  0  0  0  0  0  0  0  0  0  0  0
  -21.8911  -12.6074   21.5879 N   0  0  0  0  0  0  0  0  0  0  0  0
  -29.6671  -19.2243   24.7608 N   0  0  0  0  0  0  0  0  0  0  0  0
  -30.0994  -15.6813   21.4631 N   0  0  0  0  0  0  0  0  0  0  0  0
  -27.9900  -30.4683   26.1610 N   0  0  0  0  0  0  0  0  0  0  0  0
  -26.9932  -28.0875   20.1299 N   0  0  0  0  0  0  0  0  0  0  0  0
  -28.8919  -25.6940   18.1976 N   0  3  0  0  0  0  0  0  0  0  0  0
  -22.6776  -14.7417   21.2967 O   0  0  0  0  0  0  0  0  0  0  0  0
  -27.5025  -18.6153   24.0825 O   0  0  0  0  0  0  0  0  0  0  0  0
  -26.5349  -28.6937   25.7665 O   0  0  0  0  0  0  0  0  0  0  0  0
  -27.7632  -30.0578   22.0622 O   0  0  0  0  0  0  0  0  0  0  0  0
  -26.9244  -25.7710   20.2074 O   0  0  0  0  0  0  0  0  0  0  0  0
  -31.8755  -14.9086   20.1863 O   0  0  0  0  0  0  0  0  0  0  0  0
  -21.5913   -7.0463   21.7298 O   0  0  0  0  0  0  0  0  0  0  0  0
  -27.6542  -22.6754   26.2270 O   0  0  0  0  0  0  0  0  0  1  0  0
  -18.5880   -6.9307   26.3527 F   0  0  0  0  0  0  0  0  0  0  0  0
  -22.0277   -5.1125   23.6567 F   0  0  0  0  0  0  0  0  0  0  0  0
  1  2  1  0  0  0  0
  1  5  2  0  0  0  0
  2  6  2  0  0  0  0
  3 10  2  0  0  0  0
  3 18  1  0  0  0  0
  4 11  1  0  0  0  0
  4 18  2  0  0  0  0
  5 20  1  0  0  0  0
  6 22  1  0  0  0  0
  7 12  2  0  0  0  0
  7 21  1  0  0  0  0
  8  9  2  0  0  0  0
  8 24  1  0  0  0  0
  9 25  1  0  0  0  0
 10 27  1  0  0  0  0
 11 27  2  0  0  0  0
 12 28  1  0  0  0  0
 13 14  2  0  0  0  0
 13 29  1  0  0  0  0
 14 30  1  0  0  0  0
 15 23  1  0  0  0  0
 15 28  2  0  0  0  0
 16 25  2  0  0  0  0
 16 26  1  0  0  0  0
 17 30  2  0  0  0  0
 17 31  1  0  0  0  0
 18 32  1  0  0  0  0
 19 32  1  0  0  0  0
 19 33  2  0  0  0  0
 19 35  1  0  0  0  0
 20 22  2  0  0  0  0
 20 42  1  0  0  0  0
 21 23  2  0  0  0  0
 21 43  1  0  0  0  0
 22 51  1  0  0  0  0
 23 44  1  0  0  0  0
 24 26  2  0  0  0  0
 24 54  1  0  0  0  0
 25 71  1  0  0  0  0
 26 70  1  0  0  0  0
 27 81  1  0  0  0  0
 28 82  1  0  0  0  0
 29 31  2  0  0  0  0
 29 81  1  0  0  0  0
 30 83  1  0  0  0  0
 31 84  1  0  0  0  0
 32 64  2  0  0  0  0
 33 65  1  0  0  0  0
 33 68  1  0  0  0  0
 34 36  2  0  0  0  0
 34 82  1  0  0  0  0
 35 69  1  0  0  0  0
 35 75  2  0  0  0  0
 36 37  1  0  0  0  0
 36 55  1  0  0  0  0
 37 70  1  0  0  0  0
 37 76  2  0  0  0  0
 38 52  1  0  0  0  0
 38 72  1  0  0  0  0
 38 77  2  0  0  0  0
 39 61  1  0  0  0  0
 39 66  1  0  0  0  0
 39 78  2  0  0  0  0
 40 62  1  0  0  0  0
 40 73  1  0  0  0  0
 40 79  2  0  0  0  0
 41 67  1  0  0  0  0
 41 71  1  0  0  0  0
 41 80  2  0  0  0  0
 42 45  1  0  0  0  0
 43 52  1  0  0  0  0
 44 66  1  0  0  0  0
 45 47  1  0  0  0  0
 46 48  1  0  0  0  0
 46 49  1  0  0  0  0
 47 51  1  0  0  0  0
 48 53  1  0  0  0  0
 49 67  1  0  0  0  0
 50 53  1  0  0  0  0
 50 67  1  0  0  0  0
 51 72  1  0  0  0  0
 52 66  1  0  0  0  0
 53 65  1  0  0  0  0
 56 62  1  0  0  0  0
 57 63  1  0  0  0  0
 58 63  1  0  0  0  0
 59 63  1  0  0  0  0
 60 74  1  0  0  0  0
 61 63  1  0  0  0  0
 61 73  1  0  0  0  0
 62 74  1  0  0  0  0
 64 65  1  0  0  0  0
M  CHG  1  74   1
M  ISO  4  34 101  41 100  71 100  82 101
M  END
> <Batch ID>
0062

> <Smiles>
CNC(C)C(=O)NC(C(=O)N1Cc2cc([101O:1][101CH:1]=C(C)C(=O)Nc3cc([100NH:0][100C:0](=O)N4CCCC(n5nc(-c6ccc(Oc7ccc(F)cc7F)cc6)c(C(N)=O)c5N)C4)ccc3C)ccc2CC1C(=O)NC1CCCc2ccccc21)C(C)(C)C

> <Shape>
0.269

> <Color>
0.188

> <Negative vol penalty>
0.000

$$$$

  -OEChem-04042323093D

 85 93  0     1  0  0  0  0  0999 V2000
  -28.7579  -25.1604   33.0248 C   0  0  0  0  0  0  0  0  0  0  0  0
  -28.7409  -23.7695   33.0476 C   0  0  0  0  0  0  0  0  0  0  0  0
  -23.1894   -9.8191   19.9324 C   0  0  0  0  0  0  0  0  0  0  0  0
  -23.5700   -9.9994   22.3114 C   0  0  0  0  0  0  0  0  0  0  0  0
  -28.3048  -25.8436   31.8970 C   0  0  0  0  0  0  0  0  0  0  0  0
  -28.2695  -23.0610   31.9429 C   0  0  0  0  0  0  0  0  0  0  0  0
  -30.3140  -17.6685   29.8823 C   0  0  0  0  0  0  0  0  0  0  0  0
  -33.3884  -11.7947   25.1054 C   0  0  0  0  0  0  0  0  0  0  0  0
  -32.6605  -12.1058   23.9570 C   0  0  0  0  0  0  0  0  0  0  0  0
  -22.4234   -8.6723   20.1418 C   0  0  0  0  0  0  0  0  0  0  0  0
  -22.8040   -8.8527   22.5209 C   0  0  0  0  0  0  0  0  0  0  0  0
  -29.8512  -16.3639   30.0492 C   0  0  0  0  0  0  0  0  0  0  0  0
  -23.2052   -5.5060   22.2563 C   0  0  0  0  0  0  0  0  0  0  0  0
  -23.7045   -4.5447   23.1349 C   0  0  0  0  0  0  0  0  0  0  0  0
  -28.6787  -16.5172   27.9466 C   0  0  0  0  0  0  0  0  0  0  0  0
  -30.7010  -12.5149   25.3098 C   0  0  0  0  0  0  0  0  0  0  0  0
  -21.7493   -4.8044   24.5302 C   0  0  0  0  0  0  0  0  0  0  0  0
  -23.7627  -10.4826   21.0172 C   0  0  0  0  0  0  0  0  0  0  0  0
  -24.1009  -12.9993   20.7732 C   0  0  0  0  0  0  0  0  0  0  0  0
  -27.8367  -25.1429   30.7743 C   0  0  0  0  0  0  0  0  0  0  0  0
  -29.9531  -18.4122   28.7495 C   0  0  0  0  0  0  0  0  0  0  0  0
  -27.8084  -23.7355   30.7996 C   0  0  0  0  0  0  0  0  0  0  0  0
  -29.1403  -17.8300   27.7664 C   0  0  0  0  0  0  0  0  0  0  0  0
  -32.7726  -11.8436   26.3561 C   0  0  0  0  0  0  0  0  0  0  0  0
  -31.3168  -12.4659   24.0591 C   0  0  0  0  0  0  0  0  0  0  0  0
  -31.4289  -12.2037   26.4582 C   0  0  0  0  0  0  0  0  0  0  0  0
  -22.2307   -8.1891   21.4361 C   0  0  0  0  0  0  0  0  0  0  0  0
  -29.0311  -15.7891   29.0828 C   0  0  0  0  0  0  0  0  0  0  0  0
  -21.9779   -6.1166   22.5146 C   0  0  0  0  0  0  0  0  0  0  0  0
  -22.9766   -4.1939   24.2719 C   0  0  0  0  0  0  0  0  0  0  0  0
  -21.2500   -5.7658   23.6515 C   0  0  0  0  0  0  0  0  0  0  0  0
  -24.5545  -11.6669   20.8014 C   0  0  0  0  0  0  0  0  0  0  0  0
  -25.2317  -13.7421   20.5368 C   0  0  0  0  0  0  0  0  0  0  0  0
  -22.7758  -13.5191   20.9453 C   0  0  0  0  0  0  0  0  0  0  0  0
  -28.3462  -21.1099   28.2559 C   0  0  0  0  0  0  0  0  0  0  0  0
  -29.2827  -20.6484   25.1847 C   0  0  0  0  0  0  0  0  0  0  0  0
  -29.4433  -12.0229   27.9980 C   0  0  0  0  0  0  0  0  0  0  0  0
  -30.2967  -18.4699   22.7613 C   0  0  0  0  0  0  0  0  0  0  0  0
  -31.0373  -12.7821   21.5755 C   0  0  0  0  0  0  0  0  0  0  0  0
  -27.3128  -25.9258   29.5965 C   0  0  0  0  0  0  0  0  0  0  0  0
  -30.4824  -19.8088   28.5713 C   0  0  0  0  0  0  0  0  0  0  0  0
  -28.7405  -18.5790   26.5224 C   0  0  0  0  0  0  0  0  0  0  0  0
  -27.1791  -25.0943   28.3233 C   0  0  0  0  0  0  0  0  0  0  0  0
  -29.5217  -13.4637   18.4266 C   0  0  0  0  0  0  0  0  0  0  0  0
  -26.4993  -23.7624   28.6245 C   0  0  0  0  0  0  0  0  0  0  0  0
  -28.0339  -13.2074   18.6773 C   0  0  0  0  0  0  0  0  0  0  0  0
  -30.4037  -12.4787   19.1919 C   0  0  0  0  0  0  0  0  0  0  0  0
  -28.6456  -12.1370   20.8835 C   0  0  0  0  0  0  0  0  0  0  0  0
  -27.3277  -22.9310   29.6114 C   0  0  1  0  0  0  0  0  0  0  0  0
  -29.6326  -20.6540   27.6275 C   0  0  1  0  0  0  0  0  0  0  0  0
  -27.7189  -13.1454   20.1848 C   0  0  2  0  0  0  0  0  0  0  0  0
  -33.5768  -11.5053   27.5692 C   0  0  0  0  0  0  0  0  0  0  0  0
  -30.9519  -18.3820   20.3405 C   0  0  0  0  0  0  0  0  0  0  0  0
  -26.3490  -20.8983   24.3842 C   0  0  0  0  0  0  0  0  0  0  0  0
  -26.9371  -19.8779   22.1749 C   0  0  0  0  0  0  0  0  0  0  0  0
  -27.9509  -22.0546   22.8508 C   0  0  0  0  0  0  0  0  0  0  0  0
  -33.0060  -17.4717   23.4110 C   0  0  0  0  0  0  0  0  0  0  0  0
  -29.9151  -11.1460   30.3213 C   0  0  0  0  0  0  0  0  0  0  0  0
  -29.4105  -13.6174   29.9748 C   0  0  0  0  0  0  0  0  0  1  0  0
  -28.7086  -19.9279   23.9888 C   0  0  1  0  0  0  0  0  0  0  0  0
  -29.1438  -12.1849   29.4980 C   0  0  1  0  0  0  0  0  0  0  0  0
  -31.4460  -18.5283   21.7713 C   0  0  2  0  0  0  0  0  0  0  0  0
  -27.4922  -20.6760   23.3740 C   0  0  0  0  0  0  0  0  0  0  0  0
  -25.8709  -11.5660   20.5990 N   0  0  0  0  0  0  0  0  0  0  0  0
  -26.2541  -12.8444   20.4412 N   0  0  0  0  0  0  0  0  0  0  0  0
  -29.2784  -19.9437   26.3969 N   0  0  0  0  0  0  0  0  0  0  0  0
  -30.0513  -12.4772   20.6135 N   0  0  0  0  0  0  0  0  0  0  0  0
  -25.4414  -15.0690   20.4034 N   0  0  0  0  0  0  0  0  0  0  0  0
  -21.7294  -12.6167   21.1804 N   0  0  0  0  0  0  0  0  0  0  0  0
  -30.7864  -12.2589   27.7180 N   0  0  0  0  0  0  0  0  0  0  0  0
  -30.5778  -12.7818   22.8921 N   0  0  0  0  0  0  0  0  0  0  0  0
  -28.4458  -22.3095   28.9347 N   0  0  0  0  0  0  0  0  0  0  0  0
  -29.8174  -19.7273   23.0621 N   0  0  0  0  0  0  0  0  0  0  0  0
  -29.3211  -10.9752   31.6709 N   0  3  0  0  0  0  0  0  0  0  0  0
  -32.4219  -17.4359   22.0455 N   0  3  0  0  0  0  0  0  0  0  0  0
  -22.5243  -14.7460   20.8760 O   0  0  0  0  0  0  0  0  0  0  0  0
  -27.3375  -20.4250   28.1328 O   0  0  0  0  0  0  0  0  0  0  0  0
  -29.7254  -21.7915   25.0469 O   0  0  0  0  0  0  0  0  0  0  0  0
  -28.5633  -11.7274   27.1945 O   0  0  0  0  0  0  0  0  0  0  0  0
  -29.8648  -17.4143   23.2190 O   0  0  0  0  0  0  0  0  0  0  0  0
  -32.1971  -13.0524   21.2531 O   0  0  0  0  0  0  0  0  0  0  0  0
  -21.4832   -7.0703   21.6408 O   0  0  0  0  0  0  0  0  0  0  0  0
  -28.5775  -14.5162   29.2436 O   0  0  0  0  0  0  0  0  0  1  0  0
  -23.4555   -3.2696   25.1148 F   0  0  0  0  0  0  0  0  0  0  0  0
  -20.0698   -6.3481   23.9043 F   0  0  0  0  0  0  0  0  0  0  0  0
  1  2  1  0  0  0  0
  1  5  2  0  0  0  0
  2  6  2  0  0  0  0
  3 10  2  0  0  0  0
  3 18  1  0  0  0  0
  4 11  1  0  0  0  0
  4 18  2  0  0  0  0
  5 20  1  0  0  0  0
  6 22  1  0  0  0  0
  7 12  2  0  0  0  0
  7 21  1  0  0  0  0
  8  9  2  0  0  0  0
  8 24  1  0  0  0  0
  9 25  1  0  0  0  0
 10 27  1  0  0  0  0
 11 27  2  0  0  0  0
 12 28  1  0  0  0  0
 13 14  2  0  0  0  0
 13 29  1  0  0  0  0
 14 30  1  0  0  0  0
 15 23  1  0  0  0  0
 15 28  2  0  0  0  0
 16 25  2  0  0  0  0
 16 26  1  0  0  0  0
 17 30  2  0  0  0  0
 17 31  1  0  0  0  0
 18 32  1  0  0  0  0
 19 32  1  0  0  0  0
 19 33  2  0  0  0  0
 19 34  1  0  0  0  0
 20 22  2  0  0  0  0
 20 40  1  0  0  0  0
 21 23  2  0  0  0  0
 21 41  1  0  0  0  0
 22 49  1  0  0  0  0
 23 42  1  0  0  0  0
 24 26  2  0  0  0  0
 24 52  1  0  0  0  0
 25 71  1  0  0  0  0
 26 70  1  0  0  0  0
 27 82  1  0  0  0  0
 28 83  1  0  0  0  0
 29 31  2  0  0  0  0
 29 82  1  0  0  0  0
 30 84  1  0  0  0  0
 31 85  1  0  0  0  0
 32 64  2  0  0  0  0
 33 65  1  0  0  0  0
 33 68  1  0  0  0  0
 34 69  1  0  0  0  0
 34 76  2  0  0  0  0
 35 50  1  0  0  0  0
 35 72  1  0  0  0  0
 35 77  2  0  0  0  0
 36 60  1  0  0  0  0
 36 66  1  0  0  0  0
 36 78  2  0  0  0  0
 37 61  1  0  0  0  0
 37 70  1  0  0  0  0
 37 79  2  0  0  0  0
 38 62  1  0  0  0  0
 38 73  1  0  0  0  0
 38 80  2  0  0  0  0
 39 67  1  0  0  0  0
 39 71  1  0  0  0  0
 39 81  2  0  0  0  0
 40 43  1  0  0  0  0
 41 50  1  0  0  0  0
 42 66  1  0  0  0  0
 43 45  1  0  0  0  0
 44 46  1  0  0  0  0
 44 47  1  0  0  0  0
 45 49  1  0  0  0  0
 46 51  1  0  0  0  0
 47 67  1  0  0  0  0
 48 51  1  0  0  0  0
 48 67  1  0  0  0  0
 49 72  1  0  0  0  0
 50 66  1  0  0  0  0
 51 65  1  0  0  0  0
 53 62  1  0  0  0  0
 54 63  1  0  0  0  0
 55 63  1  0  0  0  0
 56 63  1  0  0  0  0
 57 75  1  0  0  0  0
 58 61  1  0  0  0  0
 58 74  1  0  0  0  0
 59 61  1  0  0  0  0
 59 83  1  0  0  0  0
 60 63  1  0  0  0  0
 60 73  1  0  0  0  0
 62 75  1  0  0  0  0
 64 65  1  0  0  0  0
M  CHG  2  74   1  75   1
M  ISO  4  39 100  59 101  71 100  83 101
M  END
> <Batch ID>
0062

> <Smiles>
CNC(C)C(=O)NC(C(=O)N1Cc2cc([101O:1][101CH2:1]C(CN)C(=O)Nc3cc([100NH:0][100C:0](=O)N4CCCC(n5nc(-c6ccc(Oc7ccc(F)cc7F)cc6)c(C(N)=O)c5N)C4)ccc3C)ccc2CC1C(=O)NC1CCCc2ccccc21)C(C)(C)C

> <Shape>
0.159

> <Color>
0.175

> <Negative vol penalty>
0.000

$$$$

  -OEChem-04042323093D

 84 92  0     1  0  0  0  0  0999 V2000
  -31.7922  -32.6260   23.4921 C   0  0  0  0  0  0  0  0  0  0  0  0
  -31.6624  -31.5512   22.6184 C   0  0  0  0  0  0  0  0  0  0  0  0
  -21.6704  -22.0261   19.4181 C   0  0  0  0  0  0  0  0  0  0  0  0
  -23.9532   -9.7698   21.9967 C   0  0  0  0  0  0  0  0  0  0  0  0
  -22.1949  -10.3701   20.4523 C   0  0  0  0  0  0  0  0  0  0  0  0
  -30.9276  -32.7477   24.5791 C   0  0  0  0  0  0  0  0  0  0  0  0
  -30.6684  -30.5968   22.8319 C   0  0  0  0  0  0  0  0  0  0  0  0
  -27.5123  -27.5492   18.5591 C   0  0  0  0  0  0  0  0  0  0  0  0
  -22.1533  -21.9888   18.1100 C   0  0  0  0  0  0  0  0  0  0  0  0
  -21.9778  -20.9940   20.3048 C   0  0  0  0  0  0  0  0  0  0  0  0
  -23.4695   -8.4622   22.0391 C   0  0  0  0  0  0  0  0  0  0  0  0
  -21.7112   -9.0624   20.4948 C   0  0  0  0  0  0  0  0  0  0  0  0
  -27.6579  -26.2727   18.0175 C   0  0  0  0  0  0  0  0  0  0  0  0
  -20.9549   -6.7849   23.5517 C   0  0  0  0  0  0  0  0  0  0  0  0
  -20.8484   -6.1744   24.8013 C   0  0  0  0  0  0  0  0  0  0  0  0
  -26.0145  -25.4329   19.5709 C   0  0  0  0  0  0  0  0  0  0  0  0
  -22.3746   -4.4436   24.0856 C   0  0  0  0  0  0  0  0  0  0  0  0
  -23.3158  -10.7238   21.2033 C   0  0  0  0  0  0  0  0  0  0  0  0
  -24.7732  -12.5987   20.2715 C   0  0  0  0  0  0  0  0  0  0  0  0
  -29.9164  -31.7995   24.8005 C   0  0  0  0  0  0  0  0  0  0  0  0
  -26.6232  -27.7753   19.6196 C   0  0  0  0  0  0  0  0  0  0  0  0
  -29.7903  -30.7051   23.9236 C   0  0  0  0  0  0  0  0  0  0  0  0
  -25.8575  -26.7136   20.1224 C   0  0  0  0  0  0  0  0  0  0  0  0
  -22.9435  -20.9194   17.6886 C   0  0  0  0  0  0  0  0  0  0  0  0
  -23.2509  -19.8874   18.5752 C   0  0  0  0  0  0  0  0  0  0  0  0
  -22.7681  -19.9247   19.8833 C   0  0  0  0  0  0  0  0  0  0  0  0
  -22.3485   -8.1085   21.2882 C   0  0  0  0  0  0  0  0  0  0  0  0
  -26.9111  -25.2138   18.5254 C   0  0  0  0  0  0  0  0  0  0  0  0
  -21.7712   -6.2248   22.5690 C   0  0  0  0  0  0  0  0  0  0  0  0
  -21.5582   -5.0037   25.0683 C   0  0  0  0  0  0  0  0  0  0  0  0
  -22.4810   -5.0541   22.8360 C   0  0  0  0  0  0  0  0  0  0  0  0
  -23.8146  -12.0748   21.1595 C   0  0  0  0  0  0  0  0  0  0  0  0
  -24.8984  -13.9160   20.6395 C   0  0  0  0  0  0  0  0  0  0  0  0
  -25.4864  -11.9524   19.2088 C   0  0  0  0  0  0  0  0  0  0  0  0
  -26.9212  -28.7744   22.6224 C   0  0  0  0  0  0  0  0  0  0  0  0
  -23.6788  -28.7018   22.5573 C   0  0  0  0  0  0  0  0  0  0  0  0
  -25.3128  -22.5491   16.0889 C   0  0  0  0  0  0  0  0  0  0  0  0
  -20.8369  -27.4280   21.1618 C   0  0  0  0  0  0  0  0  0  0  0  0
  -22.6591  -18.7911   22.1303 C   0  0  0  0  0  0  0  0  0  0  0  0
  -29.0358  -31.9477   26.0159 C   0  0  0  0  0  0  0  0  0  0  0  0
  -26.4581  -29.1634   20.1749 C   0  0  0  0  0  0  0  0  0  0  0  0
  -24.8744  -26.9078   21.2467 C   0  0  0  0  0  0  0  0  0  0  0  0
  -27.7703  -31.0959   25.9587 C   0  0  0  0  0  0  0  0  0  0  0  0
  -23.1566  -16.3807   24.7032 C   0  0  0  0  0  0  0  0  0  0  0  0
  -28.1031  -29.6745   25.5163 C   0  0  0  0  0  0  0  0  0  0  0  0
  -23.4510  -15.0887   23.9376 C   0  0  0  0  0  0  0  0  0  0  0  0
  -22.1114  -17.2368   23.9902 C   0  0  0  0  0  0  0  0  0  0  0  0
  -22.6997  -16.2386   21.8162 C   0  0  0  0  0  0  0  0  0  0  0  0
  -28.7088  -29.6627   24.1077 C   0  0  1  0  0  0  0  0  0  0  0  0
  -25.9011  -29.1765   21.5951 C   0  0  1  0  0  0  0  0  0  0  0  0
  -23.7943  -15.3736   22.4623 C   0  0  2  0  0  0  0  0  0  0  0  0
  -24.0994  -18.7422   18.1184 C   0  0  0  0  0  0  0  0  0  0  0  0
  -18.3361  -27.5295   21.3445 C   0  0  0  0  0  0  0  0  0  0  0  0
  -23.7927  -26.9520   25.0544 C   0  0  0  0  0  0  0  0  0  0  0  0
  -21.4075  -26.3178   24.6339 C   0  0  0  0  0  0  0  0  0  0  0  0
  -22.0024  -28.6980   25.0847 C   0  0  0  0  0  0  0  0  0  0  0  0
  -20.5602  -28.4464   18.3968 C   0  0  0  0  0  0  0  0  0  0  0  0
  -23.4502  -20.9042   16.2753 C   0  0  0  0  0  0  0  0  0  0  0  0
  -26.8315  -22.6008   16.0303 C   0  0  0  0  0  0  0  0  0  0  0  0
  -27.4054  -23.8801   16.6193 C   0  0  0  0  0  0  0  0  0  1  0  0
  -22.6264  -27.6638   22.8637 C   0  0  1  0  0  0  0  0  0  0  0  0
  -19.5704  -28.1006   20.6638 C   0  0  2  0  0  0  0  0  0  0  0  0
  -22.4771  -27.4035   24.3893 C   0  0  0  0  0  0  0  0  0  0  0  0
  -23.3632  -12.9850   22.0265 N   0  0  0  0  0  0  0  0  0  0  0  0
  -24.0410  -14.0941   21.6852 N   0  0  0  0  0  0  0  0  0  0  0  0
  -24.7533  -28.2822   21.7603 N   0  0  0  0  0  0  0  0  0  0  0  0
  -22.5057  -17.4691   22.5991 N   0  0  0  0  0  0  0  0  0  0  0  0
  -25.6574  -14.9278   20.1676 N   0  0  0  0  0  0  0  0  0  0  0  0
  -25.2373  -10.5948   18.9658 N   0  0  0  0  0  0  0  0  0  0  0  0
  -23.0685  -18.8875   20.8008 N   0  0  0  0  0  0  0  0  0  0  0  0
  -27.6727  -29.8262   23.1106 N   0  0  0  0  0  0  0  0  0  0  0  0
  -24.8527  -21.2449   16.1999 N   0  0  0  0  0  0  0  0  0  0  0  0
  -21.4027  -28.1187   22.2125 N   0  0  0  0  0  0  0  0  0  0  0  0
  -19.4265  -27.9097   19.1928 N   0  3  0  0  0  0  0  0  0  0  0  0
  -26.3320  -12.5567   18.5064 O   0  0  0  0  0  0  0  0  0  0  0  0
  -27.0182  -27.5973   22.9491 O   0  0  0  0  0  0  0  0  0  0  0  0
  -23.5486  -29.8447   23.0026 O   0  0  0  0  0  0  0  0  0  0  0  0
  -24.6025  -23.5497   16.0422 O   0  0  0  0  0  0  0  0  0  0  0  0
  -21.2780  -26.3914   20.6704 O   0  0  0  0  0  0  0  0  0  0  0  0
  -22.4697  -19.7654   22.8629 O   0  0  0  0  0  0  0  0  0  0  0  0
  -21.8764   -6.8326   21.3292 O   0  0  0  0  0  0  0  0  0  0  0  0
  -27.0517  -23.9667   17.9991 O   0  0  0  0  0  0  0  0  0  1  0  0
  -21.4571   -4.4184   26.2688 F   0  0  0  0  0  0  0  0  0  0  0  0
  -23.2677   -4.5119   21.8964 F   0  0  0  0  0  0  0  0  0  0  0  0
  1  2  1  0  0  0  0
  1  6  2  0  0  0  0
  2  7  2  0  0  0  0
  3  9  2  0  0  0  0
  3 10  1  0  0  0  0
  4 11  2  0  0  0  0
  4 18  1  0  0  0  0
  5 12  1  0  0  0  0
  5 18  2  0  0  0  0
  6 20  1  0  0  0  0
  7 22  1  0  0  0  0
  8 13  2  0  0  0  0
  8 21  1  0  0  0  0
  9 24  1  0  0  0  0
 10 26  2  0  0  0  0
 11 27  1  0  0  0  0
 12 27  2  0  0  0  0
 13 28  1  0  0  0  0
 14 15  2  0  0  0  0
 14 29  1  0  0  0  0
 15 30  1  0  0  0  0
 16 23  1  0  0  0  0
 16 28  2  0  0  0  0
 17 30  2  0  0  0  0
 17 31  1  0  0  0  0
 18 32  1  0  0  0  0
 19 32  1  0  0  0  0
 19 33  2  0  0  0  0
 19 34  1  0  0  0  0
 20 22  2  0  0  0  0
 20 40  1  0  0  0  0
 21 23  2  0  0  0  0
 21 41  1  0  0  0  0
 22 49  1  0  0  0  0
 23 42  1  0  0  0  0
 24 25  2  0  0  0  0
 24 58  1  0  0  0  0
 25 26  1  0  0  0  0
 25 52  1  0  0  0  0
 26 70  1  0  0  0  0
 27 81  1  0  0  0  0
 28 82  1  0  0  0  0
 29 31  2  0  0  0  0
 29 81  1  0  0  0  0
 30 83  1  0  0  0  0
 31 84  1  0  0  0  0
 32 64  2  0  0  0  0
 33 65  1  0  0  0  0
 33 68  1  0  0  0  0
 34 69  1  0  0  0  0
 34 75  2  0  0  0  0
 35 50  1  0  0  0  0
 35 71  1  0  0  0  0
 35 76  2  0  0  0  0
 36 61  1  0  0  0  0
 36 66  1  0  0  0  0
 36 77  2  0  0  0  0
 37 59  1  0  0  0  0
 37 72  1  0  0  0  0
 37 78  2  0  0  0  0
 38 62  1  0  0  0  0
 38 73  1  0  0  0  0
 38 79  2  0  0  0  0
 39 67  1  0  0  0  0
 39 70  1  0  0  0  0
 39 80  2  0  0  0  0
 40 43  1  0  0  0  0
 41 50  1  0  0  0  0
 42 66  1  0  0  0  0
 43 45  1  0  0  0  0
 44 46  1  0  0  0  0
 44 47  1  0  0  0  0
 45 49  1  0  0  0  0
 46 51  1  0  0  0  0
 47 67  1  0  0  0  0
 48 51  1  0  0  0  0
 48 67  1  0  0  0  0
 49 71  1  0  0  0  0
 50 66  1  0  0  0  0
 51 65  1  0  0  0  0
 53 62  1  0  0  0  0
 54 63  1  0  0  0  0
 55 63  1  0  0  0  0
 56 63  1  0  0  0  0
 57 74  1  0  0  0  0
 58 72  1  0  0  0  0
 59 60  1  0  0  0  0
 60 82  1  0  0  0  0
 61 63  1  0  0  0  0
 61 73  1  0  0  0  0
 62 74  1  0  0  0  0
 64 65  1  0  0  0  0
M  CHG  1  74   1
M  ISO  4  39 100  60 101  70 100  82 101
M  END
> <Batch ID>
0062

> <Smiles>
CNC(C)C(=O)NC(C(=O)N1Cc2cc([101O:1][101CH2:1]CC(=O)NCc3cccc([100NH:0][100C:0](=O)N4CCCC(n5nc(-c6ccc(Oc7ccc(F)cc7F)cc6)c(C(N)=O)c5N)C4)c3C)ccc2CC1C(=O)NC1CCCc2ccccc21)C(C)(C)C

> <Shape>
0.204

> <Color>
0.111

> <Negative vol penalty>
0.000

$$$$

  -OEChem-04042323093D

 86 94  0     1  0  0  0  0  0999 V2000
  -29.5130  -39.6540   23.8069 C   0  0  0  0  0  0  0  0  0  0  0  0
  -29.9348  -38.3283   23.7996 C   0  0  0  0  0  0  0  0  0  0  0  0
  -24.5470   -9.8226   21.6946 C   0  0  0  0  0  0  0  0  0  0  0  0
  -24.7866  -11.0495   23.7620 C   0  0  0  0  0  0  0  0  0  0  0  0
  -28.1515  -39.9514   23.7653 C   0  0  0  0  0  0  0  0  0  0  0  0
  -28.9951  -37.2991   23.7516 C   0  0  0  0  0  0  0  0  0  0  0  0
  -29.5836  -31.9062   20.9099 C   0  0  0  0  0  0  0  0  0  0  0  0
  -24.2236   -8.6725   22.4145 C   0  0  0  0  0  0  0  0  0  0  0  0
  -24.4632   -9.8994   24.4820 C   0  0  0  0  0  0  0  0  0  0  0  0
  -29.9311  -30.6367   21.3697 C   0  0  0  0  0  0  0  0  0  0  0  0
  -21.5208   -7.4059   24.0031 C   0  0  0  0  0  0  0  0  0  0  0  0
  -20.4375   -6.6470   23.5602 C   0  0  0  0  0  0  0  0  0  0  0  0
  -27.3049  -21.5350   20.7232 C   0  0  0  0  0  0  0  0  0  0  0  0
  -27.5934  -30.0736   21.5637 C   0  0  0  0  0  0  0  0  0  0  0  0
  -29.6331  -20.1713   20.0143 C   0  0  0  0  0  0  0  0  0  0  0  0
  -21.8955   -4.7453   23.2522 C   0  0  0  0  0  0  0  0  0  0  0  0
  -24.8285  -11.0111   22.3683 C   0  0  0  0  0  0  0  0  0  0  0  0
  -28.4060  -22.2404   20.2379 C   0  0  0  0  0  0  0  0  0  0  0  0
  -24.2749  -13.1806   21.1459 C   0  0  0  0  0  0  0  0  0  0  0  0
  -27.1950  -38.9255   23.7070 C   0  0  0  0  0  0  0  0  0  0  0  0
  -28.2361  -32.2733   20.7837 C   0  0  0  0  0  0  0  0  0  0  0  0
  -27.6195  -37.5831   23.7105 C   0  0  0  0  0  0  0  0  0  0  0  0
  -27.2315  -31.3475   21.0997 C   0  0  0  0  0  0  0  0  0  0  0  0
  -28.5320  -19.4658   20.4997 C   0  0  0  0  0  0  0  0  0  0  0  0
  -24.1817   -8.7109   23.8082 C   0  0  0  0  0  0  0  0  0  0  0  0
  -28.9360  -29.7212   21.6994 C   0  0  0  0  0  0  0  0  0  0  0  0
  -22.7915   -6.8345   24.0704 C   0  0  0  0  0  0  0  0  0  0  0  0
  -20.6248   -5.3167   23.1847 C   0  0  0  0  0  0  0  0  0  0  0  0
  -27.3680  -20.1477   20.8542 C   0  0  0  0  0  0  0  0  0  0  0  0
  -29.5701  -21.5586   19.8834 C   0  0  0  0  0  0  0  0  0  0  0  0
  -22.9789   -5.5042   23.6950 C   0  0  0  0  0  0  0  0  0  0  0  0
  -25.1632  -12.1993   21.6252 C   0  0  0  0  0  0  0  0  0  0  0  0
  -25.0816  -14.0936   20.5116 C   0  0  0  0  0  0  0  0  0  0  0  0
  -28.3365  -23.7097   20.1002 C   0  0  0  0  0  0  0  0  0  0  0  0
  -22.8482  -13.2599   21.2637 C   0  0  0  0  0  0  0  0  0  0  0  0
  -26.3836  -34.4948   22.1016 C   0  0  0  0  0  0  0  0  0  0  0  0
  -24.2084  -33.3952   19.9611 C   0  0  0  0  0  0  0  0  0  0  0  0
  -29.3042  -25.8932   20.7879 C   0  0  0  0  0  0  0  0  0  0  0  0
  -23.1327  -30.8332   17.9798 C   0  0  0  0  0  0  0  0  0  0  0  0
  -29.6787  -17.2296   20.3242 C   0  0  0  0  0  0  0  0  0  0  0  0
  -25.7328  -39.2952   23.7111 C   0  0  0  0  0  0  0  0  0  0  0  0
  -27.8779  -33.6374   20.2610 C   0  0  0  0  0  0  0  0  0  0  0  0
  -25.7702  -31.6854   20.9626 C   0  0  0  0  0  0  0  0  0  0  0  0
  -24.8146  -38.1532   23.2832 C   0  0  0  0  0  0  0  0  0  0  0  0
  -29.9779  -13.8477   19.2517 C   0  0  0  0  0  0  0  0  0  0  0  0
  -25.2021  -36.8612   23.9954 C   0  0  0  0  0  0  0  0  0  0  0  0
  -28.6789  -13.1981   19.7341 C   0  0  0  0  0  0  0  0  0  0  0  0
  -30.4969  -14.8845   20.2463 C   0  0  0  0  0  0  0  0  0  0  0  0
  -28.2244  -15.2627   21.1190 C   0  0  0  0  0  0  0  0  0  0  0  0
  -26.6314  -36.4393   23.6341 C   0  0  1  0  0  0  0  0  0  0  0  0
  -26.4737  -34.0804   20.6602 C   0  0  1  0  0  0  0  0  0  0  0  0
  -27.6282  -14.2578   20.1198 C   0  0  2  0  0  0  0  0  0  0  0  0
  -21.3046  -30.2182   16.3745 C   0  0  0  0  0  0  0  0  0  0  0  0
  -22.2876  -33.0094   22.3002 C   0  0  0  0  0  0  0  0  0  0  0  0
  -20.8915  -31.5483   20.8222 C   0  0  0  0  0  0  0  0  0  0  0  0
  -21.2386  -33.9473   20.2328 C   0  0  0  0  0  0  0  0  0  0  0  0
  -25.0539  -30.4331   15.7645 C   0  0  0  0  0  0  0  0  0  0  0  0
  -30.4081  -26.4125   21.6809 C   0  0  0  0  0  0  0  0  0  0  0  0
  -30.5003  -27.9300   21.6754 C   0  0  0  0  0  0  0  0  0  1  0  0
  -23.1524  -32.3165   19.9683 C   0  0  1  0  0  0  0  0  0  0  0  0
  -22.7027  -30.7975   16.5244 C   0  0  2  0  0  0  0  0  0  0  0  0
  -21.9200  -32.6993   20.8354 C   0  0  0  0  0  0  0  0  0  0  0  0
  -26.4366  -12.4638   21.3211 N   0  0  0  0  0  0  0  0  0  0  0  0
  -26.3544  -13.6218   20.6440 N   0  0  0  0  0  0  0  0  0  0  0  0
  -25.4706  -33.0339   20.4533 N   0  0  0  0  0  0  0  0  0  0  0  0
  -29.4490  -15.8578   20.5614 N   0  0  0  0  0  0  0  0  0  0  0  0
  -24.8192  -15.2459   19.8591 N   0  0  0  0  0  0  0  0  0  0  0  0
  -22.1764  -12.2375   21.9475 N   0  0  0  0  0  0  0  0  0  0  0  0
  -28.5988  -18.0566   20.6316 N   0  0  0  0  0  0  0  0  0  0  0  0
  -29.2138  -24.4509   20.7909 N   0  0  0  0  0  0  0  0  0  0  0  0
  -26.6621  -35.8303   22.3216 N   0  0  0  0  0  0  0  0  0  0  0  0
  -22.8378  -32.0440   18.5700 N   0  0  0  0  0  0  0  0  0  0  0  0
  -27.4008  -24.2138   19.2963 N   0  3  0  0  0  0  0  0  0  0  0  0
  -23.6450  -29.9635   15.7261 N   0  3  0  0  0  0  0  0  0  0  0  0
  -22.1870  -14.2009   20.7628 O   0  0  0  0  0  0  0  0  0  0  0  0
  -26.0823  -33.6647   22.9512 O   0  0  0  0  0  0  0  0  0  0  0  0
  -23.9259  -34.5152   19.5280 O   0  0  0  0  0  0  0  0  0  0  0  0
  -28.5464  -26.5807   20.1193 O   0  0  0  0  0  0  0  0  0  0  0  0
  -23.6726  -29.8808   18.5384 O   0  0  0  0  0  0  0  0  0  0  0  0
  -30.7444  -17.6376   19.8554 O   0  0  0  0  0  0  0  0  0  0  0  0
  -23.8659   -7.5889   24.5111 O   0  0  0  0  0  0  0  0  0  0  0  0
  -29.2724  -28.4816   22.1490 O   0  0  0  0  0  0  0  0  0  1  0  0
  -19.5841   -4.5877   22.7609 F   0  0  0  0  0  0  0  0  0  0  0  0
  -26.3036  -19.4798   21.3221 F   0  0  0  0  0  0  0  0  0  0  0  0
  -30.6335  -22.2277   19.4162 F   0  0  0  0  0  0  0  0  0  0  0  0
  -24.1971   -4.9495   23.7587 F   0  0  0  0  0  0  0  0  0  0  0  0
  1  2  1  0  0  0  0
  1  5  2  0  0  0  0
  2  6  2  0  0  0  0
  3  8  2  0  0  0  0
  3 17  1  0  0  0  0
  4  9  1  0  0  0  0
  4 17  2  0  0  0  0
  5 20  1  0  0  0  0
  6 22  1  0  0  0  0
  7 10  2  0  0  0  0
  7 21  1  0  0  0  0
  8 25  1  0  0  0  0
  9 25  2  0  0  0  0
 10 26  1  0  0  0  0
 11 12  2  0  0  0  0
 11 27  1  0  0  0  0
 12 28  1  0  0  0  0
 13 18  1  0  0  0  0
 13 29  2  0  0  0  0
 14 23  1  0  0  0  0
 14 26  2  0  0  0  0
 15 24  2  0  0  0  0
 15 30  1  0  0  0  0
 16 28  2  0  0  0  0
 16 31  1  0  0  0  0
 17 32  1  0  0  0  0
 18 30  2  0  0  0  0
 18 34  1  0  0  0  0
 19 32  1  0  0  0  0
 19 33  2  0  0  0  0
 19 35  1  0  0  0  0
 20 22  2  0  0  0  0
 20 41  1  0  0  0  0
 21 23  2  0  0  0  0
 21 42  1  0  0  0  0
 22 50  1  0  0  0  0
 23 43  1  0  0  0  0
 24 29  1  0  0  0  0
 24 69  1  0  0  0  0
 25 81  1  0  0  0  0
 26 82  1  0  0  0  0
 27 31  2  0  0  0  0
 27 81  1  0  0  0  0
 28 83  1  0  0  0  0
 29 84  1  0  0  0  0
 30 85  1  0  0  0  0
 31 86  1  0  0  0  0
 32 63  2  0  0  0  0
 33 64  1  0  0  0  0
 33 67  1  0  0  0  0
 34 70  1  0  0  0  0
 34 73  2  0  0  0  0
 35 68  1  0  0  0  0
 35 75  2  0  0  0  0
 36 51  1  0  0  0  0
 36 71  1  0  0  0  0
 36 76  2  0  0  0  0
 37 60  1  0  0  0  0
 37 65  1  0  0  0  0
 37 77  2  0  0  0  0
 38 58  1  0  0  0  0
 38 70  1  0  0  0  0
 38 78  2  0  0  0  0
 39 61  1  0  0  0  0
 39 72  1  0  0  0  0
 39 79  2  0  0  0  0
 40 66  1  0  0  0  0
 40 69  1  0  0  0  0
 40 80  2  0  0  0  0
 41 44  1  0  0  0  0
 42 51  1  0  0  0  0
 43 65  1  0  0  0  0
 44 46  1  0  0  0  0
 45 47  1  0  0  0  0
 45 48  1  0  0  0  0
 46 50  1  0  0  0  0
 47 52  1  0  0  0  0
 48 66  1  0  0  0  0
 49 52  1  0  0  0  0
 49 66  1  0  0  0  0
 50 71  1  0  0  0  0
 51 65  1  0  0  0  0
 52 64  1  0  0  0  0
 53 61  1  0  0  0  0
 54 62  1  0  0  0  0
 55 62  1  0  0  0  0
 56 62  1  0  0  0  0
 57 74  1  0  0  0  0
 58 59  1  0  0  0  0
 59 82  1  0  0  0  0
 60 62  1  0  0  0  0
 60 72  1  0  0  0  0
 61 74  1  0  0  0  0
 63 64  1  0  0  0  0
M  CHG  2  73   1  74   1
M  ISO  4  40 100  59 101  69 100  82 101
M  END
> <Batch ID>
0062

> <Smiles>
CNC(C)C(=O)NC(C(=O)N1Cc2cc([101O:1][101CH2:1]CC(=O)NC(=N)c3cc(F)c([100NH:0][100C:0](=O)N4CCCC(n5nc(-c6ccc(Oc7ccc(F)cc7F)cc6)c(C(N)=O)c5N)C4)cc3F)ccc2CC1C(=O)NC1CCCc2ccccc21)C(C)(C)C

> <Shape>
0.269

> <Color>
0.116

> <Negative vol penalty>
0.000

$$$$

  -OEChem-04042323093D

 85 93  0     1  0  0  0  0  0999 V2000
  -32.3151  -34.6034   17.0540 C   0  0  0  0  0  0  0  0  0  0  0  0
  -32.2791  -33.2126   17.0593 C   0  0  0  0  0  0  0  0  0  0  0  0
  -23.0929   -9.9390   21.5184 C   0  0  0  0  0  0  0  0  0  0  0  0
  -23.8604  -10.8484   23.6210 C   0  0  0  0  0  0  0  0  0  0  0  0
  -31.8800  -35.3151   18.1711 C   0  0  0  0  0  0  0  0  0  0  0  0
  -31.8090  -32.5328   18.1824 C   0  0  0  0  0  0  0  0  0  0  0  0
  -28.6609  -27.2802   18.2560 C   0  0  0  0  0  0  0  0  0  0  0  0
  -29.7644  -18.2804   21.4461 C   0  0  0  0  0  0  0  0  0  0  0  0
  -22.3713   -8.9620   22.2043 C   0  0  0  0  0  0  0  0  0  0  0  0
  -23.1388   -9.8714   24.3069 C   0  0  0  0  0  0  0  0  0  0  0  0
  -29.0474  -25.9579   18.4704 C   0  0  0  0  0  0  0  0  0  0  0  0
  -23.0060   -6.0267   23.7553 C   0  0  0  0  0  0  0  0  0  0  0  0
  -23.0887   -4.7145   23.2896 C   0  0  0  0  0  0  0  0  0  0  0  0
  -30.3377  -19.4563   21.9302 C   0  0  0  0  0  0  0  0  0  0  0  0
  -28.4181  -26.1564   20.7907 C   0  0  0  0  0  0  0  0  0  0  0  0
  -31.9625  -17.3058   21.2104 C   0  0  0  0  0  0  0  0  0  0  0  0
  -20.7003   -4.6932   22.9259 C   0  0  0  0  0  0  0  0  0  0  0  0
  -23.8375  -10.8822   22.2267 C   0  0  0  0  0  0  0  0  0  0  0  0
  -24.1320  -13.1674   21.1318 C   0  0  0  0  0  0  0  0  0  0  0  0
  -31.3953  -34.6439   19.3048 C   0  0  0  0  0  0  0  0  0  0  0  0
  -28.1594  -28.0552   19.3117 C   0  0  0  0  0  0  0  0  0  0  0  0
  -31.3683  -33.2362   19.3163 C   0  0  0  0  0  0  0  0  0  0  0  0
  -28.0235  -27.4875   20.5865 C   0  0  0  0  0  0  0  0  0  0  0  0
  -32.5358  -18.4817   21.6945 C   0  0  0  0  0  0  0  0  0  0  0  0
  -30.5768  -17.2051   21.0862 C   0  0  0  0  0  0  0  0  0  0  0  0
  -22.3943   -8.9282   23.5986 C   0  0  0  0  0  0  0  0  0  0  0  0
  -28.9288  -25.3967   19.7385 C   0  0  0  0  0  0  0  0  0  0  0  0
  -21.7705   -6.6722   23.8064 C   0  0  0  0  0  0  0  0  0  0  0  0
  -21.9358   -4.0477   22.8749 C   0  0  0  0  0  0  0  0  0  0  0  0
  -20.6176   -6.0054   23.3916 C   0  0  0  0  0  0  0  0  0  0  0  0
  -31.7233  -19.5569   22.0544 C   0  0  0  0  0  0  0  0  0  0  0  0
  -24.5835  -11.8913   21.5187 C   0  0  0  0  0  0  0  0  0  0  0  0
  -25.2089  -13.7339   20.4946 C   0  0  0  0  0  0  0  0  0  0  0  0
  -22.8537  -13.7854   21.3307 C   0  0  0  0  0  0  0  0  0  0  0  0
  -29.0833  -30.7234   20.7715 C   0  0  0  0  0  0  0  0  0  0  0  0
  -26.2447  -30.4029   22.3083 C   0  0  0  0  0  0  0  0  0  0  0  0
  -30.7952  -22.6486   21.1792 C   0  0  0  0  0  0  0  0  0  0  0  0
  -23.7252  -28.3456   23.3407 C   0  0  0  0  0  0  0  0  0  0  0  0
  -30.6553  -14.8510   20.1928 C   0  0  0  0  0  0  0  0  0  0  0  0
  -30.9802  -35.4551   20.5066 C   0  0  0  0  0  0  0  0  0  0  0  0
  -27.7219  -29.4718   19.0580 C   0  0  0  0  0  0  0  0  0  0  0  0
  -27.4721  -28.2708   21.7488 C   0  0  0  0  0  0  0  0  0  0  0  0
  -30.1458  -34.6682   21.5140 C   0  0  0  0  0  0  0  0  0  0  0  0
  -29.5776  -11.6895   18.9597 C   0  0  0  0  0  0  0  0  0  0  0  0
  -30.7797  -33.3074   21.7849 C   0  0  0  0  0  0  0  0  0  0  0  0
  -28.1451  -11.5651   19.4837 C   0  0  0  0  0  0  0  0  0  0  0  0
  -30.4925  -12.3815   19.9686 C   0  0  0  0  0  0  0  0  0  0  0  0
  -28.5772  -13.5557   20.9797 C   0  0  0  0  0  0  0  0  0  0  0  0
  -30.8420  -32.4634   20.5062 C   0  0  1  0  0  0  0  0  0  0  0  0
  -27.7057  -30.3273   20.3210 C   0  0  1  0  0  0  0  0  0  0  0  0
  -27.6037  -12.9231   19.9718 C   0  0  2  0  0  0  0  0  0  0  0  0
  -34.0228  -18.5576   21.8149 C   0  0  0  0  0  0  0  0  0  0  0  0
  -21.5596  -28.3662   24.6084 C   0  0  0  0  0  0  0  0  0  0  0  0
  -27.7864  -30.6002   24.9340 C   0  0  0  0  0  0  0  0  0  0  0  0
  -25.7737  -29.6797   26.1043 C   0  0  0  0  0  0  0  0  0  0  0  0
  -25.6247  -31.8573   24.8965 C   0  0  0  0  0  0  0  0  0  0  0  0
  -22.2033  -27.4001   20.9851 C   0  0  0  0  0  0  0  0  0  0  0  0
  -29.7890  -23.7767   21.2522 C   0  0  0  0  0  0  0  0  0  1  0  0
  -25.7834  -29.7117   23.5686 C   0  0  1  0  0  0  0  0  0  0  0  0
  -22.2158  -28.4730   23.2407 C   0  0  2  0  0  0  0  0  0  0  0  0
  -26.2543  -30.4478   24.8546 C   0  0  0  0  0  0  0  0  0  0  0  0
  -25.8484  -11.6604   21.1574 N   0  0  0  0  0  0  0  0  0  0  0  0
  -32.4864  -20.8728   24.1990 N   0  0  0  0  0  0  0  0  0  0  0  0
  -26.2010  -12.7990   20.5367 N   0  0  0  0  0  0  0  0  0  0  0  0
  -27.0639  -29.6538   21.4518 N   0  0  0  0  0  0  0  0  0  0  0  0
  -29.9176  -13.6633   20.3824 N   0  0  0  0  0  0  0  0  0  0  0  0
  -25.3943  -14.9355   19.9080 N   0  0  0  0  0  0  0  0  0  0  0  0
  -21.8599  -13.0629   22.0050 N   0  0  0  0  0  0  0  0  0  0  0  0
  -29.9938  -16.0110   20.5943 N   0  0  0  0  0  0  0  0  0  0  0  0
  -29.5428  -31.8991   20.2093 N   0  0  0  0  0  0  0  0  0  0  0  0
  -24.3353  -29.5770   23.4535 N   0  0  0  0  0  0  0  0  0  0  0  0
  -31.2641  -22.3073   22.4379 N   0  0  0  0  0  0  0  0  0  0  0  0
  -21.6620  -27.3989   22.3686 N   0  3  0  0  0  0  0  0  0  0  0  0
  -22.5949  -14.9377   20.9080 O   0  0  0  0  0  0  0  0  0  0  0  0
  -29.6843  -30.0155   21.5711 O   0  0  0  0  0  0  0  0  0  0  0  0
  -25.8855  -31.5623   22.0883 O   0  0  0  0  0  0  0  0  0  0  0  0
  -31.1266  -22.1241   20.1196 O   0  0  0  0  0  0  0  0  0  0  0  0
  -24.3047  -27.2619   23.3244 O   0  0  0  0  0  0  0  0  0  0  0  0
  -31.7795  -14.8425   19.6847 O   0  0  0  0  0  0  0  0  0  0  0  0
  -33.5189  -21.4102   21.7945 O   0  0  0  0  0  0  0  0  0  0  0  0
  -21.6902   -7.9752   24.2682 O   0  0  0  0  0  0  0  0  0  0  0  0
  -29.3059  -24.1065   19.9506 O   0  0  0  0  0  0  0  0  0  1  0  0
  -22.0156   -2.7882   22.4263 F   0  0  0  0  0  0  0  0  0  0  0  0
  -19.4280   -6.6206   23.4373 F   0  0  0  0  0  0  0  0  0  0  0  0
  -32.4156  -21.0614   22.6707 S   0  0  2  0  0  0  0  0  0  0  0  0
  1  2  1  0  0  0  0
  1  5  2  0  0  0  0
  2  6  2  0  0  0  0
  3  9  2  0  0  0  0
  3 18  1  0  0  0  0
  4 10  1  0  0  0  0
  4 18  2  0  0  0  0
  5 20  1  0  0  0  0
  6 22  1  0  0  0  0
  7 11  2  0  0  0  0
  7 21  1  0  0  0  0
  8 14  2  0  0  0  0
  8 25  1  0  0  0  0
  9 26  1  0  0  0  0
 10 26  2  0  0  0  0
 11 27  1  0  0  0  0
 12 13  2  0  0  0  0
 12 28  1  0  0  0  0
 13 29  1  0  0  0  0
 14 31  1  0  0  0  0
 15 23  1  0  0  0  0
 15 27  2  0  0  0  0
 16 24  1  0  0  0  0
 16 25  2  0  0  0  0
 17 29  2  0  0  0  0
 17 30  1  0  0  0  0
 18 32  1  0  0  0  0
 19 32  1  0  0  0  0
 19 33  2  0  0  0  0
 19 34  1  0  0  0  0
 20 22  2  0  0  0  0
 20 40  1  0  0  0  0
 21 23  2  0  0  0  0
 21 41  1  0  0  0  0
 22 49  1  0  0  0  0
 23 42  1  0  0  0  0
 24 31  2  0  0  0  0
 24 52  1  0  0  0  0
 25 69  1  0  0  0  0
 26 81  1  0  0  0  0
 27 82  1  0  0  0  0
 28 30  2  0  0  0  0
 28 81  1  0  0  0  0
 29 83  1  0  0  0  0
 30 84  1  0  0  0  0
 31 85  1  0  0  0  0
 32 62  2  0  0  0  0
 33 64  1  0  0  0  0
 33 67  1  0  0  0  0
 34 68  1  0  0  0  0
 34 74  2  0  0  0  0
 35 50  1  0  0  0  0
 35 70  1  0  0  0  0
 35 75  2  0  0  0  0
 36 59  1  0  0  0  0
 36 65  1  0  0  0  0
 36 76  2  0  0  0  0
 37 58  1  0  0  0  0
 37 72  1  0  0  0  0
 37 77  2  0  0  0  0
 38 60  1  0  0  0  0
 38 71  1  0  0  0  0
 38 78  2  0  0  0  0
 39 66  1  0  0  0  0
 39 69  1  0  0  0  0
 39 79  2  0  0  0  0
 40 43  1  0  0  0  0
 41 50  1  0  0  0  0
 42 65  1  0  0  0  0
 43 45  1  0  0  0  0
 44 46  1  0  0  0  0
 44 47  1  0  0  0  0
 45 49  1  0  0  0  0
 46 51  1  0  0  0  0
 47 66  1  0  0  0  0
 48 51  1  0  0  0  0
 48 66  1  0  0  0  0
 49 70  1  0  0  0  0
 50 65  1  0  0  0  0
 51 64  1  0  0  0  0
 53 60  1  0  0  0  0
 54 61  1  0  0  0  0
 55 61  1  0  0  0  0
 56 61  1  0  0  0  0
 57 73  1  0  0  0  0
 58 82  1  0  0  0  0
 59 61  1  0  0  0  0
 59 71  1  0  0  0  0
 60 73  1  0  0  0  0
 62 64  1  0  0  0  0
 63 85  2  0  0  0  0
 72 85  1  0  0  0  0
 80 85  2  0  0  0  0
M  CHG  1  73   1
M  ISO  4  39 100  58 101  69 100  82 101
M  END
> <Batch ID>
0062

> <Smiles>
CNC(C)C(=O)NC(C(=O)N1Cc2cc([101O:1][101CH2:1]C(=O)NS(=N)(=O)c3ccc([100NH:0][100C:0](=O)N4CCCC(n5nc(-c6ccc(Oc7ccc(F)cc7F)cc6)c(C(N)=O)c5N)C4)cc3C)ccc2CC1C(=O)NC1CCCc2ccccc21)C(C)(C)C

> <Shape>
0.288

> <Color>
0.168

> <Negative vol penalty>
0.000

$$$$

  -OEChem-04042323093D

 83 91  0     1  0  0  0  0  0999 V2000
  -17.5315  -29.8727   27.1145 C   0  0  0  0  0  0  0  0  0  0  0  0
  -18.2283  -28.6715   27.1979 C   0  0  0  0  0  0  0  0  0  0  0  0
  -23.0681  -12.4757   24.8548 C   0  0  0  0  0  0  0  0  0  0  0  0
  -23.7504  -11.5264   24.0940 C   0  0  0  0  0  0  0  0  0  0  0  0
  -30.6902  -19.9558   19.3576 C   0  0  0  0  0  0  0  0  0  0  0  0
  -28.7580  -20.4084   20.7356 C   0  0  0  0  0  0  0  0  0  0  0  0
  -17.2114  -30.4064   25.8669 C   0  0  0  0  0  0  0  0  0  0  0  0
  -18.6045  -28.0027   26.0336 C   0  0  0  0  0  0  0  0  0  0  0  0
  -23.7009  -24.7223   25.1554 C   0  0  0  0  0  0  0  0  0  0  0  0
  -23.1673  -13.8294   24.5334 C   0  0  0  0  0  0  0  0  0  0  0  0
  -24.5321  -11.9308   23.0118 C   0  0  0  0  0  0  0  0  0  0  0  0
  -30.5466  -21.2016   18.7470 C   0  0  0  0  0  0  0  0  0  0  0  0
  -28.6144  -21.6543   20.1251 C   0  0  0  0  0  0  0  0  0  0  0  0
  -23.9540  -23.3520   25.2014 C   0  0  0  0  0  0  0  0  0  0  0  0
  -28.6076  -22.5937   16.3540 C   0  0  0  0  0  0  0  0  0  0  0  0
  -28.7220  -22.6510   14.9650 C   0  0  0  0  0  0  0  0  0  0  0  0
  -23.6787  -23.2270   22.8081 C   0  0  0  0  0  0  0  0  0  0  0  0
  -30.5870  -24.1715   15.1813 C   0  0  0  0  0  0  0  0  0  0  0  0
  -29.7958  -19.5591   20.3518 C   0  0  0  0  0  0  0  0  0  0  0  0
  -30.6940  -17.9708   22.1345 C   0  0  0  0  0  0  0  0  0  0  0  0
  -17.5923  -29.7488   24.6866 C   0  0  0  0  0  0  0  0  0  0  0  0
  -23.4236  -25.3543   23.9347 C   0  0  0  0  0  0  0  0  0  0  0  0
  -18.2880  -28.5275   24.7690 C   0  0  0  0  0  0  0  0  0  0  0  0
  -23.4250  -24.6058   22.7490 C   0  0  0  0  0  0  0  0  0  0  0  0
  -23.9489  -14.2338   23.4512 C   0  0  0  0  0  0  0  0  0  0  0  0
  -24.6313  -13.2846   22.6903 C   0  0  0  0  0  0  0  0  0  0  0  0
  -29.5088  -22.0509   19.1308 C   0  0  0  0  0  0  0  0  0  0  0  0
  -23.9401  -22.6036   24.0280 C   0  0  0  0  0  0  0  0  0  0  0  0
  -29.4829  -23.3254   17.1566 C   0  0  0  0  0  0  0  0  0  0  0  0
  -29.7117  -23.4399   14.3787 C   0  0  0  0  0  0  0  0  0  0  0  0
  -30.4726  -24.1142   16.5703 C   0  0  0  0  0  0  0  0  0  0  0  0
  -29.9432  -18.2719   20.9824 C   0  0  0  0  0  0  0  0  0  0  0  0
  -30.5104  -16.6225   22.3213 C   0  0  0  0  0  0  0  0  0  0  0  0
  -23.7557  -17.9727   23.1760 C   0  0  0  0  0  0  0  0  0  0  0  0
  -23.2584  -19.1165   23.6665 C   0  0  0  0  0  0  0  0  0  0  0  0
  -31.4866  -18.8327   22.9619 C   0  0  0  0  0  0  0  0  0  0  0  0
  -23.4139  -16.6643   23.8092 C   0  0  0  0  0  0  0  0  0  0  0  0
  -20.9405  -26.9415   22.7436 C   0  0  0  0  0  0  0  0  0  0  0  0
  -22.9700  -27.4844   20.2721 C   0  0  0  0  0  0  0  0  0  0  0  0
  -25.7237  -26.4979   18.5141 C   0  0  0  0  0  0  0  0  0  0  0  0
  -26.1648  -12.8372   20.7424 C   0  0  0  0  0  0  0  0  0  0  0  0
  -17.1825  -30.3406   23.3613 C   0  0  0  0  0  0  0  0  0  0  0  0
  -23.1791  -26.8380   23.8986 C   0  0  0  0  0  0  0  0  0  0  0  0
  -23.1528  -25.2402   21.4104 C   0  0  0  0  0  0  0  0  0  0  0  0
  -17.9450  -29.7599   22.1731 C   0  0  0  0  0  0  0  0  0  0  0  0
  -29.6139  -12.5934   19.8929 C   0  0  0  0  0  0  0  0  0  0  0  0
  -17.9959  -28.2381   22.2637 C   0  0  0  0  0  0  0  0  0  0  0  0
  -30.1594  -13.9928   20.1865 C   0  0  0  0  0  0  0  0  0  0  0  0
  -28.1967  -12.6448   19.3248 C   0  0  0  0  0  0  0  0  0  0  0  0
  -27.7800  -14.8125   20.4187 C   0  0  0  0  0  0  0  0  0  0  0  0
  -18.7352  -27.7850   23.5285 C   0  0  1  0  0  0  0  0  0  0  0  0
  -22.4010  -27.2855   22.6650 C   0  0  1  0  0  0  0  0  0  0  0  0
  -29.1804  -14.8089   21.0532 C   0  0  2  0  0  0  0  0  0  0  0  0
  -27.1159  -27.1205   16.5213 C   0  0  0  0  0  0  0  0  0  0  0  0
  -20.8155  -26.3691   18.4216 C   0  0  0  0  0  0  0  0  0  0  0  0
  -22.5637  -26.1287   16.6455 C   0  0  0  0  0  0  0  0  0  0  0  0
  -22.0025  -28.3875   17.5432 C   0  0  0  0  0  0  0  0  0  0  0  0
  -28.1404  -26.8855   20.1779 C   0  0  0  0  0  0  0  0  0  0  0  0
  -23.5553  -20.4579   23.0775 C   0  0  0  0  0  0  0  0  0  1  0  0
  -23.3032  -26.7687   18.9853 C   0  0  1  0  0  0  0  0  0  0  0  0
  -26.9356  -27.2696   18.0240 C   0  0  2  0  0  0  0  0  0  0  0  0
  -22.1745  -26.9009   17.9242 C   0  0  0  0  0  0  0  0  0  0  0  0
  -29.3285  -17.2011   20.4731 N   0  0  0  0  0  0  0  0  0  0  0  0
  -29.6928  -16.2139   21.3090 N   0  0  0  0  0  0  0  0  0  0  0  0
  -22.9133  -26.6928   21.4279 N   0  0  0  0  0  0  0  0  0  0  0  0
  -27.3247  -13.4305   20.2007 N   0  0  0  0  0  0  0  0  0  0  0  0
  -30.9701  -15.7584   23.2510 N   0  0  0  0  0  0  0  0  0  0  0  0
  -31.5671  -20.1913   22.6272 N   0  0  0  0  0  0  0  0  0  0  0  0
  -24.0338  -15.6142   23.1446 N   0  0  0  0  0  0  0  0  0  0  0  0
  -25.4314  -13.6705   21.5864 N   0  0  0  0  0  0  0  0  0  0  0  0
  -20.1658  -27.9116   23.3504 N   0  0  0  0  0  0  0  0  0  0  0  0
  -24.5951  -27.2892   18.5515 N   0  0  0  0  0  0  0  0  0  0  0  0
  -28.1706  -26.7764   18.6967 N   0  3  0  0  0  0  0  0  0  0  0  0
  -32.1183  -18.4075   23.9587 O   0  0  0  0  0  0  0  0  0  0  0  0
  -22.6760  -16.6033   24.7855 O   0  0  0  0  0  0  0  0  0  0  0  0
  -20.5454  -25.8754   22.2863 O   0  0  0  0  0  0  0  0  0  0  0  0
  -22.7744  -28.7022   20.2535 O   0  0  0  0  0  0  0  0  0  0  0  0
  -25.7725  -25.3107   18.8286 O   0  0  0  0  0  0  0  0  0  0  0  0
  -25.8602  -11.6668   20.4987 O   0  0  0  0  0  0  0  0  0  0  0  0
  -29.3686  -23.2668   18.5355 O   0  0  0  0  0  0  0  0  0  0  0  0
  -24.1861  -21.2659   24.0702 O   0  0  0  0  0  0  0  0  0  1  0  0
  -29.8223  -23.4936   13.0448 F   0  0  0  0  0  0  0  0  0  0  0  0
  -31.3172  -24.8185   17.3362 F   0  0  0  0  0  0  0  0  0  0  0  0
  1  2  1  0  0  0  0
  1  7  2  0  0  0  0
  2  8  2  0  0  0  0
  3  4  1  0  0  0  0
  3 10  2  0  0  0  0
  4 11  2  0  0  0  0
  5 12  2  0  0  0  0
  5 19  1  0  0  0  0
  6 13  1  0  0  0  0
  6 19  2  0  0  0  0
  7 21  1  0  0  0  0
  8 23  1  0  0  0  0
  9 14  2  0  0  0  0
  9 22  1  0  0  0  0
 10 25  1  0  0  0  0
 11 26  1  0  0  0  0
 12 27  1  0  0  0  0
 13 27  2  0  0  0  0
 14 28  1  0  0  0  0
 15 16  2  0  0  0  0
 15 29  1  0  0  0  0
 16 30  1  0  0  0  0
 17 24  1  0  0  0  0
 17 28  2  0  0  0  0
 18 30  2  0  0  0  0
 18 31  1  0  0  0  0
 19 32  1  0  0  0  0
 20 32  1  0  0  0  0
 20 33  2  0  0  0  0
 20 36  1  0  0  0  0
 21 23  2  0  0  0  0
 21 42  1  0  0  0  0
 22 24  2  0  0  0  0
 22 43  1  0  0  0  0
 23 51  1  0  0  0  0
 24 44  1  0  0  0  0
 25 26  2  0  0  0  0
 25 69  1  0  0  0  0
 26 70  1  0  0  0  0
 27 80  1  0  0  0  0
 28 81  1  0  0  0  0
 29 31  2  0  0  0  0
 29 80  1  0  0  0  0
 30 82  1  0  0  0  0
 31 83  1  0  0  0  0
 32 63  2  0  0  0  0
 33 64  1  0  0  0  0
 33 67  1  0  0  0  0
 34 35  2  0  0  0  0
 34 37  1  0  0  0  0
 35 59  1  0  0  0  0
 36 68  1  0  0  0  0
 36 74  2  0  0  0  0
 37 69  1  0  0  0  0
 37 75  2  0  0  0  0
 38 52  1  0  0  0  0
 38 71  1  0  0  0  0
 38 76  2  0  0  0  0
 39 60  1  0  0  0  0
 39 65  1  0  0  0  0
 39 77  2  0  0  0  0
 40 61  1  0  0  0  0
 40 72  1  0  0  0  0
 40 78  2  0  0  0  0
 41 66  1  0  0  0  0
 41 70  1  0  0  0  0
 41 79  2  0  0  0  0
 42 45  1  0  0  0  0
 43 52  1  0  0  0  0
 44 65  1  0  0  0  0
 45 47  1  0  0  0  0
 46 48  1  0  0  0  0
 46 49  1  0  0  0  0
 47 51  1  0  0  0  0
 48 53  1  0  0  0  0
 49 66  1  0  0  0  0
 50 53  1  0  0  0  0
 50 66  1  0  0  0  0
 51 71  1  0  0  0  0
 52 65  1  0  0  0  0
 53 64  1  0  0  0  0
 54 61  1  0  0  0  0
 55 62  1  0  0  0  0
 56 62  1  0  0  0  0
 57 62  1  0  0  0  0
 58 73  1  0  0  0  0
 59 81  1  0  0  0  0
 60 62  1  0  0  0  0
 60 72  1  0  0  0  0
 61 73  1  0  0  0  0
 63 64  1  0  0  0  0
M  CHG  1  73   1
M  ISO  4  41 100  59 101  70 100  81 101
M  END
> <Batch ID>
0062

> <Smiles>
CNC(C)C(=O)NC(C(=O)N1Cc2cc([101O:1][101CH2:1]C=CC(=O)Nc3ccccc3[100NH:0][100C:0](=O)N3CCCC(n4nc(-c5ccc(Oc6ccc(F)cc6F)cc5)c(C(N)=O)c4N)C3)ccc2CC1C(=O)NC1CCCc2ccccc21)C(C)(C)C

> <Shape>
0.211

> <Color>
0.059

> <Negative vol penalty>
0.000

$$$$

  -OEChem-04042323093D

 91100  0     1  0  0  0  0  0999 V2000
  -29.5476  -31.6596   25.7270 C   0  0  0  0  0  0  0  0  0  0  0  0
  -29.2917  -30.5628   24.9103 C   0  0  0  0  0  0  0  0  0  0  0  0
  -22.4084  -10.4901   22.5663 C   0  0  0  0  0  0  0  0  0  0  0  0
  -24.4223  -10.0453   21.3080 C   0  0  0  0  0  0  0  0  0  0  0  0
  -28.4981  -32.2915   26.3929 C   0  0  0  0  0  0  0  0  0  0  0  0
  -27.9861  -30.0965   24.7600 C   0  0  0  0  0  0  0  0  0  0  0  0
  -26.8318  -29.0745   19.9363 C   0  0  0  0  0  0  0  0  0  0  0  0
  -21.9407   -9.2098   22.2705 C   0  0  0  0  0  0  0  0  0  0  0  0
  -23.9547   -8.7649   21.0122 C   0  0  0  0  0  0  0  0  0  0  0  0
  -27.3126  -27.8780   19.4063 C   0  0  0  0  0  0  0  0  0  0  0  0
  -22.4634   -6.0528   23.3628 C   0  0  0  0  0  0  0  0  0  0  0  0
  -21.9034   -5.3109   24.4028 C   0  0  0  0  0  0  0  0  0  0  0  0
  -25.1513  -26.8636   19.7516 C   0  0  0  0  0  0  0  0  0  0  0  0
  -31.0536  -18.7294   21.4756 C   0  0  0  0  0  0  0  0  0  0  0  0
  -29.0072  -19.5058   19.7459 C   0  0  0  0  0  0  0  0  0  0  0  0
  -19.8172   -5.1863   23.1905 C   0  0  0  0  0  0  0  0  0  0  0  0
  -23.6492  -10.9080   22.0850 C   0  0  0  0  0  0  0  0  0  0  0  0
  -24.9104  -12.6172   23.4977 C   0  0  0  0  0  0  0  0  0  0  0  0
  -27.1779  -31.8386   26.2429 C   0  0  0  0  0  0  0  0  0  0  0  0
  -25.5081  -29.1716   20.3887 C   0  0  0  0  0  0  0  0  0  0  0  0
  -26.9182  -30.7220   25.4255 C   0  0  0  0  0  0  0  0  0  0  0  0
  -24.6554  -28.0633   20.2845 C   0  0  0  0  0  0  0  0  0  0  0  0
  -31.3105  -19.6509   20.4605 C   0  0  0  0  0  0  0  0  0  0  0  0
  -29.7735  -18.1960   21.6258 C   0  0  0  0  0  0  0  0  0  0  0  0
  -30.2873  -20.0392   19.5957 C   0  0  0  0  0  0  0  0  0  0  0  0
  -28.7503  -18.5842   20.7609 C   0  0  0  0  0  0  0  0  0  0  0  0
  -22.7138   -8.3472   21.4934 C   0  0  0  0  0  0  0  0  0  0  0  0
  -26.4732  -26.7715   19.3165 C   0  0  0  0  0  0  0  0  0  0  0  0
  -21.7003   -6.3616   22.2367 C   0  0  0  0  0  0  0  0  0  0  0  0
  -20.5804   -4.8776   24.3166 C   0  0  0  0  0  0  0  0  0  0  0  0
  -20.3772   -5.9283   22.1506 C   0  0  0  0  0  0  0  0  0  0  0  0
  -24.1326  -12.2307   22.3898 C   0  0  0  0  0  0  0  0  0  0  0  0
  -25.1033  -13.9664   23.3279 C   0  0  0  0  0  0  0  0  0  0  0  0
  -30.0371  -24.0911   17.3072 C   0  0  0  0  0  0  0  0  0  0  0  0
  -30.9947  -23.3305   17.8971 C   0  0  0  0  0  0  0  0  0  0  0  0
  -25.4136  -11.8272   24.5833 C   0  0  0  0  0  0  0  0  0  0  0  0
  -24.1338  -29.7660   23.1926 C   0  0  0  0  0  0  0  0  0  0  0  0
  -21.4145  -29.7442   21.4242 C   0  0  0  0  0  0  0  0  0  0  0  0
  -19.8007  -28.7003   18.6041 C   0  0  0  0  0  0  0  0  0  0  0  0
  -26.3274  -18.3453   20.1139 C   0  0  0  0  0  0  0  0  0  0  0  0
  -26.0824  -32.5246   27.0202 C   0  0  0  0  0  0  0  0  0  0  0  0
  -24.9970  -30.4773   20.9332 C   0  0  0  0  0  0  0  0  0  0  0  0
  -23.2202  -28.1215   20.7375 C   0  0  0  0  0  0  0  0  0  0  0  0
  -24.6800  -32.2002   26.5120 C   0  0  0  0  0  0  0  0  0  0  0  0
  -22.9487  -17.2221   20.1061 C   0  0  0  0  0  0  0  0  0  0  0  0
  -24.5289  -30.6996   26.2836 C   0  0  0  0  0  0  0  0  0  0  0  0
  -23.0195  -15.8552   20.7907 C   0  0  0  0  0  0  0  0  0  0  0  0
  -28.2920  -23.1178   18.9088 C   0  0  0  0  0  0  0  0  0  0  0  0
  -24.1722  -17.4810   19.2288 C   0  0  0  0  0  0  0  0  0  0  0  0
  -25.5369  -15.9438   20.5866 C   0  0  0  0  0  0  0  0  0  0  0  0
  -29.4942  -22.9231   19.8086 C   0  0  0  0  0  0  0  0  0  0  0  0
  -25.5124  -30.2019   25.2175 C   0  0  1  0  0  0  0  0  0  0  0  0
  -23.7800  -30.3119   21.8382 C   0  0  1  0  0  0  0  0  0  0  0  0
  -24.3572  -15.6649   21.5322 C   0  0  2  0  0  0  0  0  0  0  0  0
  -28.5735  -24.1540   17.7962 C   0  0  2  0  0  0  0  0  0  0  0  0
  -32.6889  -20.2083   20.3188 C   0  0  0  0  0  0  0  0  0  0  0  0
  -29.5269  -17.2108   22.7219 C   0  0  0  0  0  0  0  0  0  0  0  0
  -32.4441  -23.3453   17.4760 C   0  0  0  0  0  0  0  0  0  0  0  0
  -27.5733  -23.8825   16.6536 C   0  0  0  0  0  0  0  0  0  0  0  0
  -30.1728  -24.2084   14.8428 C   0  0  0  0  0  0  0  0  0  0  0  0
  -17.5725  -28.8093   17.4550 C   0  0  0  0  0  0  0  0  0  0  0  0
  -20.3070  -27.6819   23.3814 C   0  0  0  0  0  0  0  0  0  0  0  0
  -18.5350  -27.1388   21.6982 C   0  0  0  0  0  0  0  0  0  0  0  0
  -18.6675  -29.4319   22.6712 C   0  0  0  0  0  0  0  0  0  0  0  0
  -20.9521  -30.0747   16.2495 C   0  0  0  0  0  0  0  0  0  0  0  0
  -30.5400  -21.0286   18.4965 C   0  0  0  0  0  0  0  0  0  0  0  0
  -30.3662  -24.9799   16.1215 C   0  0  0  0  0  0  0  0  0  0  0  0
  -28.2883  -25.5626   18.3680 C   0  0  0  0  0  0  0  0  0  1  0  0
  -20.4193  -28.6887   21.0066 C   0  0  1  0  0  0  0  0  0  0  0  0
  -18.9450  -29.4485   17.5979 C   0  0  2  0  0  0  0  0  0  0  0  0
  -19.5097  -28.2333   22.1825 C   0  0  0  0  0  0  0  0  0  0  0  0
  -23.8505  -13.2518   21.5764 N   0  0  0  0  0  0  0  0  0  0  0  0
  -24.4543  -14.2934   22.1737 N   0  0  0  0  0  0  0  0  0  0  0  0
  -22.7693  -29.4186   21.2684 N   0  0  0  0  0  0  0  0  0  0  0  0
  -25.4024  -17.2861   19.9993 N   0  0  0  0  0  0  0  0  0  0  0  0
  -25.7630  -14.8931   24.0548 N   0  0  0  0  0  0  0  0  0  0  0  0
  -25.1223  -10.4564   24.6031 N   0  0  0  0  0  0  0  0  0  0  0  0
  -27.4435  -18.0538   20.8974 N   0  0  0  0  0  0  0  0  0  0  0  0
  -25.0372  -30.5419   23.8935 N   0  0  0  0  0  0  0  0  0  0  0  0
  -19.6926  -29.2405   19.8682 N   0  0  0  0  0  0  0  0  0  0  0  0
  -30.6625  -22.4469   18.9947 N   0  3  1  0  0  0  0  0  0  0  0  0
  -19.6028  -29.4533   16.2606 N   0  3  0  0  0  0  0  0  0  0  0  0
  -26.0873  -12.3253   25.5168 O   0  0  0  0  0  0  0  0  0  0  0  0
  -23.6237  -28.7192   23.5742 O   0  0  0  0  0  0  0  0  0  0  0  0
  -21.0048  -30.8208   21.8656 O   0  0  0  0  0  0  0  0  0  0  0  0
  -20.4927  -27.7312   18.3000 O   0  0  0  0  0  0  0  0  0  0  0  0
  -26.1299  -19.4399   19.5803 O   0  0  0  0  0  0  0  0  0  0  0  0
  -22.2579   -7.0976   21.2048 O   0  0  0  0  0  0  0  0  0  0  0  0
  -26.9453  -25.5890   18.7944 O   0  0  0  0  0  0  0  0  0  1  0  0
  -20.0432   -4.1638   25.3147 F   0  0  0  0  0  0  0  0  0  0  0  0
  -19.6395   -6.2208   21.0707 F   0  0  0  0  0  0  0  0  0  0  0  0
  1  2  1  0  0  0  0
  1  5  2  0  0  0  0
  2  6  2  0  0  0  0
  3  8  2  0  0  0  0
  3 17  1  0  0  0  0
  4  9  1  0  0  0  0
  4 17  2  0  0  0  0
  5 19  1  0  0  0  0
  6 21  1  0  0  0  0
  7 10  2  0  0  0  0
  7 20  1  0  0  0  0
  8 27  1  0  0  0  0
  9 27  2  0  0  0  0
 10 28  1  0  0  0  0
 11 12  2  0  0  0  0
 11 29  1  0  0  0  0
 12 30  1  0  0  0  0
 13 22  1  0  0  0  0
 13 28  2  0  0  0  0
 14 23  1  0  0  0  0
 14 24  2  0  0  0  0
 15 25  1  0  0  0  0
 15 26  2  0  0  0  0
 16 30  2  0  0  0  0
 16 31  1  0  0  0  0
 17 32  1  0  0  0  0
 18 32  1  0  0  0  0
 18 33  2  0  0  0  0
 18 36  1  0  0  0  0
 19 21  2  0  0  0  0
 19 41  1  0  0  0  0
 20 22  2  0  0  0  0
 20 42  1  0  0  0  0
 21 52  1  0  0  0  0
 22 43  1  0  0  0  0
 23 25  2  0  0  0  0
 23 56  1  0  0  0  0
 24 26  1  0  0  0  0
 24 57  1  0  0  0  0
 25 66  1  0  0  0  0
 26 78  1  0  0  0  0
 27 88  1  0  0  0  0
 28 89  1  0  0  0  0
 29 31  2  0  0  0  0
 29 88  1  0  0  0  0
 30 90  1  0  0  0  0
 31 91  1  0  0  0  0
 32 72  2  0  0  0  0
 33 73  1  0  0  0  0
 33 76  1  0  0  0  0
 34 35  2  0  0  0  0
 34 55  1  0  0  0  0
 34 67  1  0  0  0  0
 35 58  1  0  0  0  0
 35 81  1  0  0  0  0
 36 77  1  0  0  0  0
 36 83  2  0  0  0  0
 37 53  1  0  0  0  0
 37 79  1  0  0  0  0
 37 84  2  0  0  0  0
 38 69  1  0  0  0  0
 38 74  1  0  0  0  0
 38 85  2  0  0  0  0
 39 70  1  0  0  0  0
 39 80  1  0  0  0  0
 39 86  2  0  0  0  0
 40 75  1  0  0  0  0
 40 78  1  0  0  0  0
 40 87  2  0  0  0  0
 41 44  1  0  0  0  0
 42 53  1  0  0  0  0
 43 74  1  0  0  0  0
 44 46  1  0  0  0  0
 45 47  1  0  0  0  0
 45 49  1  0  0  0  0
 46 52  1  0  0  0  0
 47 54  1  0  0  0  0
 48 51  1  0  0  0  0
 48 55  1  0  0  0  0
 49 75  1  0  0  0  0
 50 54  1  0  0  0  0
 50 75  1  0  0  0  0
 51 81  1  0  0  0  0
 52 79  1  0  0  0  0
 53 74  1  0  0  0  0
 54 73  1  0  0  0  0
 55 59  1  0  0  0  0
 55 68  1  0  0  0  0
 60 67  1  0  0  0  0
 61 70  1  0  0  0  0
 62 71  1  0  0  0  0
 63 71  1  0  0  0  0
 64 71  1  0  0  0  0
 65 82  1  0  0  0  0
 66 81  1  0  0  0  0
 68 89  1  0  0  0  0
 69 71  1  0  0  0  0
 69 80  1  0  0  0  0
 70 82  1  0  0  0  0
 72 73  1  0  0  0  0
M  CHG  2  81   1  82   1
M  ISO  4  40 100  68 101  78 100  89 101
M  END
> <Batch ID>
0062

> <Smiles>
CCC1=C(C)N(Cc2cc([100NH:0][100C:0](=O)N3CCCC(n4nc(-c5ccc(Oc6ccc(F)cc6F)cc5)c(C(N)=O)c4N)C3)c(C)cc2C)CCC1(C)[101CH2:1][101O:1]c1ccc2c(c1)CN(C(=O)C(NC(=O)C(C)NC)C(C)(C)C)C(C(=O)NC1CCCc3ccccc31)C2

> <Shape>
0.308

> <Color>
0.073

> <Negative vol penalty>
0.000

$$$$

  -OEChem-04042323093D

 93101  0     1  0  0  0  0  0999 V2000
  -17.2867  -26.8007   22.5632 C   0  0  0  0  0  0  0  0  0  0  0  0
  -18.3866  -26.4817   21.7734 C   0  0  0  0  0  0  0  0  0  0  0  0
  -23.0401   -9.8734   23.3408 C   0  0  0  0  0  0  0  0  0  0  0  0
  -23.7831  -10.0248   21.0469 C   0  0  0  0  0  0  0  0  0  0  0  0
  -17.1571  -28.0850   23.0900 C   0  0  0  0  0  0  0  0  0  0  0  0
  -19.3572  -27.4474   21.5091 C   0  0  0  0  0  0  0  0  0  0  0  0
  -24.0673  -25.6562   22.0113 C   0  0  0  0  0  0  0  0  0  0  0  0
  -22.3294   -8.7131   23.0340 C   0  0  0  0  0  0  0  0  0  0  0  0
  -23.0725   -8.8644   20.7401 C   0  0  0  0  0  0  0  0  0  0  0  0
  -24.5673  -24.8784   20.9679 C   0  0  0  0  0  0  0  0  0  0  0  0
  -20.6124   -5.5103   22.9366 C   0  0  0  0  0  0  0  0  0  0  0  0
  -20.7139   -4.4352   23.8194 C   0  0  0  0  0  0  0  0  0  0  0  0
  -27.6391  -19.8697   19.8843 C   0  0  0  0  0  0  0  0  0  0  0  0
  -25.7793  -26.7894   20.1321 C   0  0  0  0  0  0  0  0  0  0  0  0
  -29.1948  -18.0958   20.4039 C   0  0  0  0  0  0  0  0  0  0  0  0
  -23.1000   -4.3559   23.4485 C   0  0  0  0  0  0  0  0  0  0  0  0
  -23.7670  -10.5293   22.3472 C   0  0  0  0  0  0  0  0  0  0  0  0
  -28.6276  -20.5204   19.1460 C   0  0  0  0  0  0  0  0  0  0  0  0
  -25.8358  -11.8173   23.1014 C   0  0  0  0  0  0  0  0  0  0  0  0
  -18.1315  -29.0642   22.8399 C   0  0  0  0  0  0  0  0  0  0  0  0
  -24.4114  -27.0115   22.1169 C   0  0  0  0  0  0  0  0  0  0  0  0
  -19.2399  -28.7465   22.0319 C   0  0  0  0  0  0  0  0  0  0  0  0
  -25.2843  -27.5816   21.1793 C   0  0  0  0  0  0  0  0  0  0  0  0
  -29.8997  -19.9588   19.0366 C   0  0  0  0  0  0  0  0  0  0  0  0
  -27.9227  -18.6574   20.5133 C   0  0  0  0  0  0  0  0  0  0  0  0
  -30.1833  -18.7464   19.6655 C   0  0  0  0  0  0  0  0  0  0  0  0
  -22.3456   -8.2085   21.7337 C   0  0  0  0  0  0  0  0  0  0  0  0
  -25.4211  -25.4457   20.0264 C   0  0  0  0  0  0  0  0  0  0  0  0
  -21.7547   -6.0082   22.3097 C   0  0  0  0  0  0  0  0  0  0  0  0
  -21.9577   -3.8580   24.0754 C   0  0  0  0  0  0  0  0  0  0  0  0
  -22.9985   -5.4310   22.5656 C   0  0  0  0  0  0  0  0  0  0  0  0
  -24.5009  -11.7283   22.6633 C   0  0  0  0  0  0  0  0  0  0  0  0
  -26.0558  -13.1636   23.2606 C   0  0  0  0  0  0  0  0  0  0  0  0
  -31.0414  -16.0151   16.5505 C   0  0  0  0  0  0  0  0  0  0  0  0
  -30.7641  -16.8666   17.5429 C   0  0  0  0  0  0  0  0  0  0  0  0
  -28.2948  -21.8098   18.4874 C   0  0  0  0  0  0  0  0  0  0  0  0
  -26.7914  -10.7760   23.3427 C   0  0  0  0  0  0  0  0  0  0  0  0
  -31.8200  -17.2451   18.5274 C   0  0  0  0  0  0  0  0  0  0  0  0
  -22.7964  -29.7483   22.0419 C   0  0  0  0  0  0  0  0  0  0  0  0
  -25.6810  -31.0205   22.8057 C   0  0  0  0  0  0  0  0  0  0  0  0
  -29.0803  -30.7198   22.7729 C   0  0  0  0  0  0  0  0  0  0  0  0
  -25.6058  -18.4176   21.4729 C   0  0  0  0  0  0  0  0  0  0  0  0
  -17.9241  -30.4523   23.3920 C   0  0  0  0  0  0  0  0  0  0  0  0
  -23.8848  -27.8303   23.2636 C   0  0  0  0  0  0  0  0  0  0  0  0
  -25.7005  -29.0269   21.2596 C   0  0  0  0  0  0  0  0  0  0  0  0
  -19.1868  -31.3100   23.3737 C   0  0  0  0  0  0  0  0  0  0  0  0
  -22.8211  -17.0569   23.2253 C   0  0  0  0  0  0  0  0  0  0  0  0
  -19.8862  -31.2017   22.0224 C   0  0  0  0  0  0  0  0  0  0  0  0
  -23.1197  -15.5566   23.2714 C   0  0  0  0  0  0  0  0  0  0  0  0
  -23.2716  -17.6846   21.9075 C   0  0  0  0  0  0  0  0  0  0  0  0
  -24.9697  -15.9282   21.5902 C   0  0  0  0  0  0  0  0  0  0  0  0
  -20.3263  -29.7595   21.7430 C   0  0  1  0  0  0  0  0  0  0  0  0
  -23.8924  -29.3293   22.9805 C   0  0  1  0  0  0  0  0  0  0  0  0
  -24.5928  -15.2642   22.9246 C   0  0  2  0  0  0  0  0  0  0  0  0
  -30.9595  -20.6576   18.2429 C   0  0  0  0  0  0  0  0  0  0  0  0
  -25.1669  -24.4775   14.7129 C   0  0  0  0  0  0  0  0  0  0  0  0
  -31.1721  -31.9375   23.4356 C   0  0  0  0  0  0  0  0  0  0  0  0
  -25.3574  -32.8771   20.4061 C   0  0  0  0  0  0  0  0  0  0  0  0
  -27.8071  -33.3739   20.5484 C   0  0  0  0  0  0  0  0  0  0  0  0
  -26.3036  -33.9671   22.4484 C   0  0  0  0  0  0  0  0  0  0  0  0
  -24.4425  -22.1478   16.6266 C   0  0  0  0  0  0  0  0  0  0  0  0
  -32.5126  -18.5789   20.5426 C   0  0  0  0  0  0  0  0  0  0  0  0
  -29.8917  -28.5573   24.6234 C   0  0  0  0  0  0  0  0  0  0  0  0
  -25.0173  -24.5931   16.2259 C   0  0  0  0  0  0  0  0  0  0  0  0
  -26.8442  -22.9319   16.8163 C   0  0  0  0  0  0  0  0  0  0  0  0
  -25.0921  -23.6146   18.5449 C   0  0  0  0  0  0  0  0  0  1  0  0
  -26.8623  -31.5386   22.0215 C   0  0  1  0  0  0  0  0  0  0  0  0
  -30.1201  -30.9245   23.8598 C   0  0  2  0  0  0  0  0  0  0  0  0
  -26.5734  -32.9124   21.3532 C   0  0  0  0  0  0  0  0  0  0  0  0
  -25.3600  -23.3133   17.0470 C   0  0  2  0  0  0  0  0  0  0  0  0
  -23.9141  -12.9229   22.5515 N   0  0  0  0  0  0  0  0  0  0  0  0
  -24.8849  -13.7754   22.9218 N   0  0  0  0  0  0  0  0  0  0  0  0
  -25.1541  -29.7876   22.3954 N   0  0  0  0  0  0  0  0  0  0  0  0
  -24.6778  -17.3692   21.6470 N   0  0  0  0  0  0  0  0  0  0  0  0
  -27.1348  -13.8721   23.6561 N   0  0  0  0  0  0  0  0  0  0  0  0
  -26.4000   -9.4473   23.1290 N   0  0  0  0  0  0  0  0  0  0  0  0
  -26.9187  -17.9967   21.2638 N   0  0  0  0  0  0  0  0  0  0  0  0
  -27.2658  -21.7711   17.5549 N   0  0  0  0  0  0  0  0  0  0  0  0
  -21.5252  -29.4434   22.4895 N   0  0  0  0  0  0  0  0  0  0  0  0
  -27.9921  -31.5490   22.9446 N   0  0  0  0  0  0  0  0  0  0  0  0
  -31.4510  -18.1663   19.5691 N   0  0  0  0  0  0  0  0  0  0  0  0
  -30.8050  -29.6378   24.1703 N   0  3  0  0  0  0  0  0  0  0  0  0
  -28.9399  -22.8145   18.7750 O   0  0  0  0  0  0  0  0  0  0  0  0
  -27.9527  -11.0157   23.7519 O   0  0  0  0  0  0  0  0  0  0  0  0
  -32.9521  -16.7802   18.3924 O   0  0  0  0  0  0  0  0  0  0  0  0
  -23.0829  -30.3082   20.9902 O   0  0  0  0  0  0  0  0  0  0  0  0
  -25.2463  -31.6816   23.7520 O   0  0  0  0  0  0  0  0  0  0  0  0
  -29.2211  -29.9083   21.8607 O   0  0  0  0  0  0  0  0  0  0  0  0
  -25.2659  -19.6020   21.5339 O   0  0  0  0  0  0  0  0  0  0  0  0
  -21.6524   -7.0762   21.4341 O   0  0  0  0  0  0  0  0  0  0  0  0
  -25.9101  -24.6888   19.0066 O   0  0  0  0  0  0  0  0  0  1  0  0
  -22.0553   -2.8265   24.9244 F   0  0  0  0  0  0  0  0  0  0  0  0
  -24.0995   -5.9058   21.9672 F   0  0  0  0  0  0  0  0  0  0  0  0
  1  2  1  0  0  0  0
  1  5  2  0  0  0  0
  2  6  2  0  0  0  0
  3  8  2  0  0  0  0
  3 17  1  0  0  0  0
  4  9  1  0  0  0  0
  4 17  2  0  0  0  0
  5 20  1  0  0  0  0
  6 22  1  0  0  0  0
  7 10  2  0  0  0  0
  7 21  1  0  0  0  0
  8 27  1  0  0  0  0
  9 27  2  0  0  0  0
 10 28  1  0  0  0  0
 11 12  2  0  0  0  0
 11 29  1  0  0  0  0
 12 30  1  0  0  0  0
 13 18  2  0  0  0  0
 13 25  1  0  0  0  0
 14 23  1  0  0  0  0
 14 28  2  0  0  0  0
 15 25  2  0  0  0  0
 15 26  1  0  0  0  0
 16 30  2  0  0  0  0
 16 31  1  0  0  0  0
 17 32  1  0  0  0  0
 18 24  1  0  0  0  0
 18 36  1  0  0  0  0
 19 32  1  0  0  0  0
 19 33  2  0  0  0  0
 19 37  1  0  0  0  0
 20 22  2  0  0  0  0
 20 43  1  0  0  0  0
 21 23  2  0  0  0  0
 21 44  1  0  0  0  0
 22 52  1  0  0  0  0
 23 45  1  0  0  0  0
 24 26  2  0  0  0  0
 24 55  1  0  0  0  0
 25 77  1  0  0  0  0
 26 81  1  0  0  0  0
 27 90  1  0  0  0  0
 28 91  1  0  0  0  0
 29 31  2  0  0  0  0
 29 90  1  0  0  0  0
 30 92  1  0  0  0  0
 31 93  1  0  0  0  0
 32 71  2  0  0  0  0
 33 72  1  0  0  0  0
 33 75  1  0  0  0  0
 34 35  2  0  0  0  0
 35 38  1  0  0  0  0
 36 78  1  0  0  0  0
 36 83  2  0  0  0  0
 37 76  1  0  0  0  0
 37 84  2  0  0  0  0
 38 81  1  0  0  0  0
 38 85  2  0  0  0  0
 39 53  1  0  0  0  0
 39 79  1  0  0  0  0
 39 86  2  0  0  0  0
 40 67  1  0  0  0  0
 40 73  1  0  0  0  0
 40 87  2  0  0  0  0
 41 68  1  0  0  0  0
 41 80  1  0  0  0  0
 41 88  2  0  0  0  0
 42 74  1  0  0  0  0
 42 77  1  0  0  0  0
 42 89  2  0  0  0  0
 43 46  1  0  0  0  0
 44 53  1  0  0  0  0
 45 73  1  0  0  0  0
 46 48  1  0  0  0  0
 47 49  1  0  0  0  0
 47 50  1  0  0  0  0
 48 52  1  0  0  0  0
 49 54  1  0  0  0  0
 50 74  1  0  0  0  0
 51 54  1  0  0  0  0
 51 74  1  0  0  0  0
 52 79  1  0  0  0  0
 53 73  1  0  0  0  0
 54 72  1  0  0  0  0
 56 64  1  0  0  0  0
 57 68  1  0  0  0  0
 58 69  1  0  0  0  0
 59 69  1  0  0  0  0
 60 69  1  0  0  0  0
 61 70  1  0  0  0  0
 62 81  1  0  0  0  0
 63 82  1  0  0  0  0
 64 70  1  0  0  0  0
 65 70  1  0  0  0  0
 65 78  1  0  0  0  0
 66 70  1  0  0  0  0
 66 91  1  0  0  0  0
 67 69  1  0  0  0  0
 67 80  1  0  0  0  0
 68 82  1  0  0  0  0
 71 72  1  0  0  0  0
M  CHG  1  82   1
M  ISO  4  42 100  66 101  77 100  91 101
M  END
> <Batch ID>
0062

> <Smiles>
C=CC(=O)N(C)c1cc([100NH:0][100C:0](=O)N2CCCC(n3nc(-c4ccc(Oc5ccc(F)cc5F)cc4)c(C(N)=O)c3N)C2)cc(C(=O)NCC(C)(CC)[101CH2:1][101O:1]c2ccc3c(c2)CN(C(=O)C(NC(=O)C(C)NC)C(C)(C)C)C(C(=O)NC2CCCc4ccccc42)C3)c1C

> <Shape>
0.237

> <Color>
0.081

> <Negative vol penalty>
0.000

$$$$

  -OEChem-04042323093D

 83 91  0     1  0  0  0  0  0999 V2000
  -24.2775  -32.8869   32.3065 C   0  0  0  0  0  0  0  0  0  0  0  0
  -24.7139  -31.6252   31.9153 C   0  0  0  0  0  0  0  0  0  0  0  0
  -30.9162  -19.4288   20.7499 C   0  0  0  0  0  0  0  0  0  0  0  0
  -23.2096   -9.7813   19.8894 C   0  0  0  0  0  0  0  0  0  0  0  0
  -23.8954   -9.8366   22.2053 C   0  0  0  0  0  0  0  0  0  0  0  0
  -23.3254  -33.5615   31.5433 C   0  0  0  0  0  0  0  0  0  0  0  0
  -24.1977  -31.0369   30.7613 C   0  0  0  0  0  0  0  0  0  0  0  0
  -27.1773  -27.4063   26.8310 C   0  0  0  0  0  0  0  0  0  0  0  0
  -30.1245  -20.1941   21.6061 C   0  0  0  0  0  0  0  0  0  0  0  0
  -30.8097  -18.0380   20.7583 C   0  0  0  0  0  0  0  0  0  0  0  0
  -22.5248   -8.5884   20.1206 C   0  0  0  0  0  0  0  0  0  0  0  0
  -23.2106   -8.6436   22.4366 C   0  0  0  0  0  0  0  0  0  0  0  0
  -27.2253  -26.0206   26.6859 C   0  0  0  0  0  0  0  0  0  0  0  0
  -20.0155   -7.6651   22.9411 C   0  0  0  0  0  0  0  0  0  0  0  0
  -19.2256   -7.5849   24.0879 C   0  0  0  0  0  0  0  0  0  0  0  0
  -25.5133  -26.1448   24.9910 C   0  0  0  0  0  0  0  0  0  0  0  0
  -20.5511   -5.7227   24.8706 C   0  0  0  0  0  0  0  0  0  0  0  0
  -23.8950  -10.4054   20.9317 C   0  0  0  0  0  0  0  0  0  0  0  0
  -24.0967  -12.9456   20.8123 C   0  0  0  0  0  0  0  0  0  0  0  0
  -22.8044  -32.9853   30.3741 C   0  0  0  0  0  0  0  0  0  0  0  0
  -26.2877  -28.1720   26.0636 C   0  0  0  0  0  0  0  0  0  0  0  0
  -23.2368  -31.7038   29.9825 C   0  0  0  0  0  0  0  0  0  0  0  0
  -25.4578  -27.5404   25.1264 C   0  0  0  0  0  0  0  0  0  0  0  0
  -29.1197  -18.1779   22.4791 C   0  0  0  0  0  0  0  0  0  0  0  0
  -29.2262  -19.5687   22.4707 C   0  0  0  0  0  0  0  0  0  0  0  0
  -29.9114  -17.4126   21.6229 C   0  0  0  0  0  0  0  0  0  0  0  0
  -22.5253   -8.0195   21.3942 C   0  0  0  0  0  0  0  0  0  0  0  0
  -26.3912  -25.3893   25.7679 C   0  0  0  0  0  0  0  0  0  0  0  0
  -21.0732   -6.7741   22.7589 C   0  0  0  0  0  0  0  0  0  0  0  0
  -19.4935   -6.6137   25.0527 C   0  0  0  0  0  0  0  0  0  0  0  0
  -21.3410   -5.8029   23.7237 C   0  0  0  0  0  0  0  0  0  0  0  0
  -24.6030  -11.6375   20.6934 C   0  0  0  0  0  0  0  0  0  0  0  0
  -25.1555  -13.7551   20.4804 C   0  0  0  0  0  0  0  0  0  0  0  0
  -27.4515  -22.2091   24.4616 C   0  0  0  0  0  0  0  0  0  0  0  0
  -27.3032  -23.5150   24.7067 C   0  0  0  0  0  0  0  0  0  1  0  0
  -22.7865  -13.3894   21.1893 C   0  0  0  0  0  0  0  0  0  0  0  0
  -28.4318  -21.7504   23.4345 C   0  0  0  0  0  0  0  0  0  0  0  0
  -23.8315  -30.0809   26.7167 C   0  0  0  0  0  0  0  0  0  0  0  0
  -23.9416  -30.6669   23.5281 C   0  0  0  0  0  0  0  0  0  0  0  0
  -24.8576  -29.6043   20.4171 C   0  0  0  0  0  0  0  0  0  0  0  0
  -30.5454  -15.1099   20.8216 C   0  0  0  0  0  0  0  0  0  0  0  0
  -21.7422  -33.7327   29.6075 C   0  0  0  0  0  0  0  0  0  0  0  0
  -26.2671  -29.6685   26.2130 C   0  0  0  0  0  0  0  0  0  0  0  0
  -24.4994  -28.3190   24.2640 C   0  0  0  0  0  0  0  0  0  0  0  0
  -21.5217  -33.1991   28.1944 C   0  0  0  0  0  0  0  0  0  0  0  0
  -29.6446  -12.6314   18.4294 C   0  0  0  0  0  0  0  0  0  0  0  0
  -21.4211  -31.6771   28.2082 C   0  0  0  0  0  0  0  0  0  0  0  0
  -28.2110  -12.2595   18.8149 C   0  0  0  0  0  0  0  0  0  0  0  0
  -30.5070  -12.9145   19.6581 C   0  0  0  0  0  0  0  0  0  0  0  0
  -28.5196  -13.5325   20.9762 C   0  0  0  0  0  0  0  0  0  0  0  0
  -22.7188  -31.0431   28.7234 C   0  0  1  0  0  0  0  0  0  0  0  0
  -24.9580  -30.2976   25.7463 C   0  0  1  0  0  0  0  0  0  0  0  0
  -27.5957  -13.3017   19.7692 C   0  0  2  0  0  0  0  0  0  0  0  0
  -28.1559  -17.5063   23.4081 C   0  0  0  0  0  0  0  0  0  0  0  0
  -24.7811  -30.2822   18.0021 C   0  0  0  0  0  0  0  0  0  0  0  0
  -20.9832  -29.9282   23.4171 C   0  0  0  0  0  0  0  0  0  0  0  0
  -21.2055  -29.6979   20.9340 C   0  0  0  0  0  0  0  0  0  0  0  0
  -21.6181  -31.9044   22.0221 C   0  0  0  0  0  0  0  0  0  0  0  0
  -27.8097  -29.6153   20.2065 C   0  0  0  0  0  0  0  0  0  0  0  0
  -23.3102  -30.0473   22.3049 C   0  0  1  0  0  0  0  0  0  0  0  0
  -25.5917  -30.3059   19.2886 C   0  0  2  0  0  0  0  0  0  0  0  0
  -21.7958  -30.3793   22.1870 C   0  0  0  0  0  0  0  0  0  0  0  0
  -25.8838  -11.6127   20.3152 N   0  0  0  0  0  0  0  0  0  0  0  0
  -26.1912  -12.9153   20.1936 N   0  0  0  0  0  0  0  0  0  0  0  0
  -24.5118  -29.7792   24.4515 N   0  0  0  0  0  0  0  0  0  0  0  0
  -29.8632  -13.9139   20.5134 N   0  0  0  0  0  0  0  0  0  0  0  0
  -25.2922  -15.0962   20.4086 N   0  0  0  0  0  0  0  0  0  0  0  0
  -21.8176  -12.4250   21.4984 N   0  0  0  0  0  0  0  0  0  0  0  0
  -28.4332  -20.3657   23.3324 N   0  0  0  0  0  0  0  0  0  0  0  0
  -29.8212  -15.9985   21.6157 N   0  0  0  0  0  0  0  0  0  0  0  0
  -23.7325  -31.0562   27.6906 N   0  0  0  0  0  0  0  0  0  0  0  0
  -24.1088  -30.4873   21.1660 N   0  0  0  0  0  0  0  0  0  0  0  0
  -26.9012  -29.6427   19.0313 N   0  3  0  0  0  0  0  0  0  0  0  0
  -22.4791  -14.6047   21.2343 O   0  0  0  0  0  0  0  0  0  0  0  0
  -29.1117  -22.5510   22.8033 O   0  0  0  0  0  0  0  0  0  0  0  0
  -23.1049  -29.1023   26.5903 O   0  0  0  0  0  0  0  0  0  0  0  0
  -23.9356  -31.8938   23.6561 O   0  0  0  0  0  0  0  0  0  0  0  0
  -24.9373  -28.3935   20.6122 O   0  0  0  0  0  0  0  0  0  0  0  0
  -31.6772  -15.3414   20.3888 O   0  0  0  0  0  0  0  0  0  0  0  0
  -21.8570   -6.8555   21.6202 O   0  0  0  0  0  0  0  0  0  0  0  0
  -26.4356  -24.0367   25.6247 O   0  0  0  0  0  0  0  0  0  1  0  0
  -18.7358   -6.5377   26.1547 F   0  0  0  0  0  0  0  0  0  0  0  0
  -22.3565   -4.9449   23.5548 F   0  0  0  0  0  0  0  0  0  0  0  0
  1  2  1  0  0  0  0
  1  6  2  0  0  0  0
  2  7  2  0  0  0  0
  3  9  2  0  0  0  0
  3 10  1  0  0  0  0
  4 11  2  0  0  0  0
  4 18  1  0  0  0  0
  5 12  1  0  0  0  0
  5 18  2  0  0  0  0
  6 20  1  0  0  0  0
  7 22  1  0  0  0  0
  8 13  2  0  0  0  0
  8 21  1  0  0  0  0
  9 25  1  0  0  0  0
 10 26  2  0  0  0  0
 11 27  1  0  0  0  0
 12 27  2  0  0  0  0
 13 28  1  0  0  0  0
 14 15  2  0  0  0  0
 14 29  1  0  0  0  0
 15 30  1  0  0  0  0
 16 23  1  0  0  0  0
 16 28  2  0  0  0  0
 17 30  2  0  0  0  0
 17 31  1  0  0  0  0
 18 32  1  0  0  0  0
 19 32  1  0  0  0  0
 19 33  2  0  0  0  0
 19 36  1  0  0  0  0
 20 22  2  0  0  0  0
 20 42  1  0  0  0  0
 21 23  2  0  0  0  0
 21 43  1  0  0  0  0
 22 51  1  0  0  0  0
 23 44  1  0  0  0  0
 24 25  2  0  0  0  0
 24 26  1  0  0  0  0
 24 54  1  0  0  0  0
 25 69  1  0  0  0  0
 26 70  1  0  0  0  0
 27 80  1  0  0  0  0
 28 81  1  0  0  0  0
 29 31  2  0  0  0  0
 29 80  1  0  0  0  0
 30 82  1  0  0  0  0
 31 83  1  0  0  0  0
 32 63  2  0  0  0  0
 33 64  1  0  0  0  0
 33 67  1  0  0  0  0
 34 35  2  0  0  0  0
 34 37  1  0  0  0  0
 35 81  1  0  0  0  0
 36 68  1  0  0  0  0
 36 74  2  0  0  0  0
 37 69  1  0  0  0  0
 37 75  2  0  0  0  0
 38 52  1  0  0  0  0
 38 71  1  0  0  0  0
 38 76  2  0  0  0  0
 39 60  1  0  0  0  0
 39 65  1  0  0  0  0
 39 77  2  0  0  0  0
 40 61  1  0  0  0  0
 40 72  1  0  0  0  0
 40 78  2  0  0  0  0
 41 66  1  0  0  0  0
 41 70  1  0  0  0  0
 41 79  2  0  0  0  0
 42 45  1  0  0  0  0
 43 52  1  0  0  0  0
 44 65  1  0  0  0  0
 45 47  1  0  0  0  0
 46 48  1  0  0  0  0
 46 49  1  0  0  0  0
 47 51  1  0  0  0  0
 48 53  1  0  0  0  0
 49 66  1  0  0  0  0
 50 53  1  0  0  0  0
 50 66  1  0  0  0  0
 51 71  1  0  0  0  0
 52 65  1  0  0  0  0
 53 64  1  0  0  0  0
 55 61  1  0  0  0  0
 56 62  1  0  0  0  0
 57 62  1  0  0  0  0
 58 62  1  0  0  0  0
 59 73  1  0  0  0  0
 60 62  1  0  0  0  0
 60 72  1  0  0  0  0
 61 73  1  0  0  0  0
 63 64  1  0  0  0  0
M  CHG  1  73   1
M  ISO  4  35 101  41 100  70 100  81 101
M  END
> <Batch ID>
0062

> <Smiles>
CNC(C)C(=O)NC(C(=O)N1Cc2cc([101O:1][101CH:1]=CC(=O)Nc3cccc([100NH:0][100C:0](=O)N4CCCC(n5nc(-c6ccc(Oc7ccc(F)cc7F)cc6)c(C(N)=O)c5N)C4)c3C)ccc2CC1C(=O)NC1CCCc2ccccc21)C(C)(C)C

> <Shape>
0.268

> <Color>
0.201

> <Negative vol penalty>
0.000

$$$$

  -OEChem-04042323093D

 85 93  0     1  0  0  0  0  0999 V2000
  -30.3386  -18.3511   16.0137 C   0  0  0  0  0  0  0  0  0  0  0  0
  -29.9567  -18.7092   17.3026 C   0  0  0  0  0  0  0  0  0  0  0  0
  -23.0741   -9.8641   19.9477 C   0  0  0  0  0  0  0  0  0  0  0  0
  -23.8314   -9.8812   22.2419 C   0  0  0  0  0  0  0  0  0  0  0  0
  -31.6139  -18.6730   15.5510 C   0  0  0  0  0  0  0  0  0  0  0  0
  -30.8504  -19.3884   18.1300 C   0  0  0  0  0  0  0  0  0  0  0  0
  -28.6817  -23.2621   20.5664 C   0  0  0  0  0  0  0  0  0  0  0  0
  -22.3294   -8.7125   20.2020 C   0  0  0  0  0  0  0  0  0  0  0  0
  -23.0866   -8.7295   22.4962 C   0  0  0  0  0  0  0  0  0  0  0  0
  -27.8968  -22.9564   21.6773 C   0  0  0  0  0  0  0  0  0  0  0  0
  -19.3791   -7.9239   21.6535 C   0  0  0  0  0  0  0  0  0  0  0  0
  -18.0728   -7.8761   21.1670 C   0  0  0  0  0  0  0  0  0  0  0  0
  -29.7296  -23.5513   23.1286 C   0  0  0  0  0  0  0  0  0  0  0  0
  -29.8771  -17.4651   23.1184 C   0  0  0  0  0  0  0  0  0  0  0  0
  -32.0616  -16.6133   22.5360 C   0  0  0  0  0  0  0  0  0  0  0  0
  -18.6330   -5.9268   19.8542 C   0  0  0  0  0  0  0  0  0  0  0  0
  -23.8252  -10.4484   20.9676 C   0  0  0  0  0  0  0  0  0  0  0  0
  -24.1684  -12.9729   20.8364 C   0  0  0  0  0  0  0  0  0  0  0  0
  -32.5202  -19.3650   16.3697 C   0  0  0  0  0  0  0  0  0  0  0  0
  -30.0023  -23.7051   20.7282 C   0  0  0  0  0  0  0  0  0  0  0  0
  -32.1394  -19.7186   17.6783 C   0  0  0  0  0  0  0  0  0  0  0  0
  -30.5283  -23.8645   22.0182 C   0  0  0  0  0  0  0  0  0  0  0  0
  -31.8493  -18.3715   24.1794 C   0  0  0  0  0  0  0  0  0  0  0  0
  -30.6760  -16.5951   22.3765 C   0  0  0  0  0  0  0  0  0  0  0  0
  -30.4637  -18.3533   24.0198 C   0  0  0  0  0  0  0  0  0  0  0  0
  -22.3356   -8.1452   21.4763 C   0  0  0  0  0  0  0  0  0  0  0  0
  -28.4216  -23.0982   22.9586 C   0  0  0  0  0  0  0  0  0  0  0  0
  -20.3125   -6.9732   21.2404 C   0  0  0  0  0  0  0  0  0  0  0  0
  -17.6997   -6.8776   20.2673 C   0  0  0  0  0  0  0  0  0  0  0  0
  -32.6483  -17.5015   23.4375 C   0  0  0  0  0  0  0  0  0  0  0  0
  -19.9394   -5.9746   20.3408 C   0  0  0  0  0  0  0  0  0  0  0  0
  -24.5952  -11.6378   20.7053 C   0  0  0  0  0  0  0  0  0  0  0  0
  -25.2613  -13.7201   20.4710 C   0  0  0  0  0  0  0  0  0  0  0  0
  -22.8977  -13.4912   21.2515 C   0  0  0  0  0  0  0  0  0  0  0  0
  -32.8584  -22.6046   19.8707 C   0  0  0  0  0  0  0  0  0  0  0  0
  -33.8783  -25.4437   21.0631 C   0  0  0  0  0  0  0  0  0  0  0  0
  -28.2489  -19.3293   24.7160 C   0  0  0  0  0  0  0  0  0  0  0  0
  -33.3129  -28.0765   23.1596 C   0  0  0  0  0  0  0  0  0  0  0  0
  -30.7278  -14.7639   20.6473 C   0  0  0  0  0  0  0  0  0  0  0  0
  -33.9042  -19.6492   15.8421 C   0  0  0  0  0  0  0  0  0  0  0  0
  -30.8272  -24.0564   19.5205 C   0  0  0  0  0  0  0  0  0  0  0  0
  -31.9336  -24.3559   22.2465 C   0  0  0  0  0  0  0  0  0  0  0  0
  -34.6603  -20.7003   16.6507 C   0  0  0  0  0  0  0  0  0  0  0  0
  -29.6150  -12.3398   18.2887 C   0  0  0  0  0  0  0  0  0  0  0  0
  -34.5356  -20.4164   18.1442 C   0  0  0  0  0  0  0  0  0  0  0  0
  -28.1747  -12.0509   18.7180 C   0  0  0  0  0  0  0  0  0  0  0  0
  -30.5288  -12.5737   19.4904 C   0  0  0  0  0  0  0  0  0  0  0  0
  -28.6206  -13.3053   20.8661 C   0  0  0  0  0  0  0  0  0  0  0  0
  -33.0718  -20.4778   18.5971 C   0  0  1  0  0  0  0  0  0  0  0  0
  -32.3284  -24.0082   19.7877 C   0  0  1  0  0  0  0  0  0  0  0  0
  -27.6491  -13.1272   19.6880 C   0  0  2  0  0  0  0  0  0  0  0  0
  -32.5016  -19.3126   25.1397 C   0  0  0  0  0  0  0  0  0  0  0  0
  -34.3436  -30.2252   23.9459 C   0  0  0  0  0  0  0  0  0  0  0  0
  -35.8214  -23.8692   22.8109 C   0  0  0  0  0  0  0  0  0  0  0  0
  -36.1203  -25.9246   24.2090 C   0  0  0  0  0  0  0  0  0  0  0  0
  -36.7759  -25.9492   21.8023 C   0  0  0  0  0  0  0  0  0  0  0  0
  -31.0421  -29.6752   22.1364 C   0  0  0  0  0  0  0  0  0  0  0  0
  -27.7585  -20.4007   25.6800 C   0  0  0  0  0  0  0  0  0  0  0  0
  -26.4717  -21.0697   25.2094 C   0  0  0  0  0  0  0  0  0  0  0  0
  -26.6645  -21.7882   23.8819 C   0  0  0  0  0  0  0  0  0  1  0  0
  -34.3241  -25.9357   22.4189 C   0  0  1  0  0  0  0  0  0  0  0  0
  -33.4046  -29.5760   22.9411 C   0  0  2  0  0  0  0  0  0  0  0  0
  -35.7345  -25.4085   22.8063 C   0  0  0  0  0  0  0  0  0  0  0  0
  -25.8604  -11.5394   20.2889 N   0  0  0  0  0  0  0  0  0  0  0  0
  -26.2381  -12.8222   20.1552 N   0  0  0  0  0  0  0  0  0  0  0  0
  -32.7026  -24.6803   21.0336 N   0  0  0  0  0  0  0  0  0  0  0  0
  -29.9693  -13.6088   20.3624 N   0  0  0  0  0  0  0  0  0  0  0  0
  -25.4725  -15.0512   20.3922 N   0  0  0  0  0  0  0  0  0  0  0  0
  -21.8849  -12.5841   21.5918 N   0  0  0  0  0  0  0  0  0  0  0  0
  -29.6365  -19.2284   24.7632 N   0  0  0  0  0  0  0  0  0  0  0  0
  -30.0800  -15.6930   21.4607 N   0  0  0  0  0  0  0  0  0  0  0  0
  -32.6417  -21.8531   18.7315 N   0  0  0  0  0  0  0  0  0  0  0  0
  -34.2197  -27.3903   22.3799 N   0  0  0  0  0  0  0  0  0  0  0  0
  -32.0600  -30.2031   23.0811 N   0  3  0  0  0  0  0  0  0  0  0  0
  -22.6620  -14.7222   21.3030 O   0  0  0  0  0  0  0  0  0  0  0  0
  -33.4235  -22.2316   20.8921 O   0  0  0  0  0  0  0  0  0  0  0  0
  -34.5446  -25.7324   20.0659 O   0  0  0  0  0  0  0  0  0  0  0  0
  -27.4778  -18.6779   24.0193 O   0  0  0  0  0  0  0  0  0  0  0  0
  -32.5189  -27.5654   23.9463 O   0  0  0  0  0  0  0  0  0  0  0  0
  -31.8575  -14.9299   20.1802 O   0  0  0  0  0  0  0  0  0  0  0  0
  -21.6088   -7.0216   21.7249 O   0  0  0  0  0  0  0  0  0  0  0  0
  -27.6578  -22.7998   24.0446 O   0  0  0  0  0  0  0  0  0  1  0  0
  -16.4448   -6.8308   19.8014 F   0  0  0  0  0  0  0  0  0  0  0  0
  -33.9806  -17.5098   23.5845 F   0  0  0  0  0  0  0  0  0  0  0  0
  -20.8314   -5.0578   19.9411 F   0  0  0  0  0  0  0  0  0  0  0  0
  1  2  1  0  0  0  0
  1  5  2  0  0  0  0
  2  6  2  0  0  0  0
  3  8  2  0  0  0  0
  3 17  1  0  0  0  0
  4  9  1  0  0  0  0
  4 17  2  0  0  0  0
  5 19  1  0  0  0  0
  6 21  1  0  0  0  0
  7 10  2  0  0  0  0
  7 20  1  0  0  0  0
  8 26  1  0  0  0  0
  9 26  2  0  0  0  0
 10 27  1  0  0  0  0
 11 12  2  0  0  0  0
 11 28  1  0  0  0  0
 12 29  1  0  0  0  0
 13 22  1  0  0  0  0
 13 27  2  0  0  0  0
 14 24  2  0  0  0  0
 14 25  1  0  0  0  0
 15 24  1  0  0  0  0
 15 30  2  0  0  0  0
 16 29  2  0  0  0  0
 16 31  1  0  0  0  0
 17 32  1  0  0  0  0
 18 32  1  0  0  0  0
 18 33  2  0  0  0  0
 18 34  1  0  0  0  0
 19 21  2  0  0  0  0
 19 40  1  0  0  0  0
 20 22  2  0  0  0  0
 20 41  1  0  0  0  0
 21 49  1  0  0  0  0
 22 42  1  0  0  0  0
 23 25  2  0  0  0  0
 23 30  1  0  0  0  0
 23 52  1  0  0  0  0
 24 71  1  0  0  0  0
 25 70  1  0  0  0  0
 26 81  1  0  0  0  0
 27 82  1  0  0  0  0
 28 31  2  0  0  0  0
 28 81  1  0  0  0  0
 29 83  1  0  0  0  0
 30 84  1  0  0  0  0
 31 85  1  0  0  0  0
 32 64  2  0  0  0  0
 33 65  1  0  0  0  0
 33 68  1  0  0  0  0
 34 69  1  0  0  0  0
 34 75  2  0  0  0  0
 35 50  1  0  0  0  0
 35 72  1  0  0  0  0
 35 76  2  0  0  0  0
 36 61  1  0  0  0  0
 36 66  1  0  0  0  0
 36 77  2  0  0  0  0
 37 58  1  0  0  0  0
 37 70  1  0  0  0  0
 37 78  2  0  0  0  0
 38 62  1  0  0  0  0
 38 73  1  0  0  0  0
 38 79  2  0  0  0  0
 39 67  1  0  0  0  0
 39 71  1  0  0  0  0
 39 80  2  0  0  0  0
 40 43  1  0  0  0  0
 41 50  1  0  0  0  0
 42 66  1  0  0  0  0
 43 45  1  0  0  0  0
 44 46  1  0  0  0  0
 44 47  1  0  0  0  0
 45 49  1  0  0  0  0
 46 51  1  0  0  0  0
 47 67  1  0  0  0  0
 48 51  1  0  0  0  0
 48 67  1  0  0  0  0
 49 72  1  0  0  0  0
 50 66  1  0  0  0  0
 51 65  1  0  0  0  0
 53 62  1  0  0  0  0
 54 63  1  0  0  0  0
 55 63  1  0  0  0  0
 56 63  1  0  0  0  0
 57 74  1  0  0  0  0
 58 59  1  0  0  0  0
 59 60  1  0  0  0  0
 60 82  1  0  0  0  0
 61 63  1  0  0  0  0
 61 73  1  0  0  0  0
 62 74  1  0  0  0  0
 64 65  1  0  0  0  0
M  CHG  1  74   1
M  ISO  4  39 100  60 101  71 100  82 101
M  END
> <Batch ID>
0062

> <Smiles>
CNC(C)C(=O)NC(C(=O)N1Cc2cc([101O:1][101CH2:1]CCC(=O)Nc3cc([100NH:0][100C:0](=O)N4CCCC(n5nc(-c6ccc(Oc7ccc(F)cc7F)cc6)c(C(N)=O)c5N)C4)cc(F)c3C)ccc2CC1C(=O)NC1CCCc2ccccc21)C(C)(C)C

> <Shape>
0.175

> <Color>
0.191

> <Negative vol penalty>
0.000

$$$$

  -OEChem-04042323093D

 87 96  0     1  0  0  0  0  0999 V2000
  -17.8425  -24.7098   23.6392 C   0  0  0  0  0  0  0  0  0  0  0  0
  -18.9984  -24.6946   22.8652 C   0  0  0  0  0  0  0  0  0  0  0  0
  -23.0078  -10.3717   21.7366 C   0  0  0  0  0  0  0  0  0  0  0  0
  -23.9430   -9.0756   19.9247 C   0  0  0  0  0  0  0  0  0  0  0  0
  -17.5816  -25.7916   24.4792 C   0  0  0  0  0  0  0  0  0  0  0  0
  -19.8936  -25.7618   22.9299 C   0  0  0  0  0  0  0  0  0  0  0  0
  -24.7133  -24.2385   23.2382 C   0  0  0  0  0  0  0  0  0  0  0  0
  -22.2665   -9.2636   22.1466 C   0  0  0  0  0  0  0  0  0  0  0  0
  -23.2016   -7.9675   20.3348 C   0  0  0  0  0  0  0  0  0  0  0  0
  -25.3219  -23.8089   22.0598 C   0  0  0  0  0  0  0  0  0  0  0  0
  -22.8054   -6.4058   23.8716 C   0  0  0  0  0  0  0  0  0  0  0  0
  -22.7826   -6.1094   25.2344 C   0  0  0  0  0  0  0  0  0  0  0  0
  -26.4013  -25.9552   21.8418 C   0  0  0  0  0  0  0  0  0  0  0  0
  -29.2275  -19.8602   20.9611 C   0  0  0  0  0  0  0  0  0  0  0  0
  -30.3854  -19.1466   18.9644 C   0  0  0  0  0  0  0  0  0  0  0  0
  -20.3812   -6.3744   25.2518 C   0  0  0  0  0  0  0  0  0  0  0  0
  -23.8461  -10.2777   20.6256 C   0  0  0  0  0  0  0  0  0  0  0  0
  -24.1140  -12.6750   19.7955 C   0  0  0  0  0  0  0  0  0  0  0  0
  -18.4788  -26.8681   24.5615 C   0  0  0  0  0  0  0  0  0  0  0  0
  -24.9359  -25.5356   23.7223 C   0  0  0  0  0  0  0  0  0  0  0  0
  -19.6438  -26.8596   23.7708 C   0  0  0  0  0  0  0  0  0  0  0  0
  -25.7963  -26.3980   23.0280 C   0  0  0  0  0  0  0  0  0  0  0  0
  -29.1106  -18.5313   21.3683 C   0  0  0  0  0  0  0  0  0  0  0  0
  -29.8649  -20.1679   19.7591 C   0  0  0  0  0  0  0  0  0  0  0  0
  -29.6311  -17.5100   20.5736 C   0  0  0  0  0  0  0  0  0  0  0  0
  -22.3634   -8.0615   21.4458 C   0  0  0  0  0  0  0  0  0  0  0  0
  -26.1637  -24.6682   21.3598 C   0  0  0  0  0  0  0  0  0  0  0  0
  -21.6161   -6.6866   23.1989 C   0  0  0  0  0  0  0  0  0  0  0  0
  -21.5705   -6.0936   25.9245 C   0  0  0  0  0  0  0  0  0  0  0  0
  -30.2685  -17.8176   19.3716 C   0  0  0  0  0  0  0  0  0  0  0  0
  -20.4040   -6.6709   23.8890 C   0  0  0  0  0  0  0  0  0  0  0  0
  -24.6117  -11.4222   20.2012 C   0  0  0  0  0  0  0  0  0  0  0  0
  -25.2353  -13.4092   19.4956 C   0  0  0  0  0  0  0  0  0  0  0  0
  -31.0737  -21.9665   18.5533 C   0  0  0  0  0  0  0  0  0  0  0  0
  -22.7591  -13.1340   19.6985 C   0  0  0  0  0  0  0  0  0  0  0  0
  -23.0984  -28.0698   24.2747 C   0  0  0  0  0  0  0  0  0  0  0  0
  -25.8288  -29.2885   25.5324 C   0  0  0  0  0  0  0  0  0  0  0  0
  -29.3349  -29.3203   24.6818 C   0  0  0  0  0  0  0  0  0  0  0  0
  -30.4019  -15.1140   20.6801 C   0  0  0  0  0  0  0  0  0  0  0  0
  -18.1306  -28.0372   25.4484 C   0  0  0  0  0  0  0  0  0  0  0  0
  -24.2930  -25.9748   25.0093 C   0  0  0  0  0  0  0  0  0  0  0  0
  -26.0841  -27.7934   23.5163 C   0  0  0  0  0  0  0  0  0  0  0  0
  -30.9521  -23.3330   17.9059 C   0  0  0  0  0  0  0  0  0  0  0  0
  -19.3153  -28.9548   25.7398 C   0  0  0  0  0  0  0  0  0  0  0  0
  -30.2128  -24.3558   18.7404 C   0  0  0  0  0  0  0  0  0  0  0  0
  -30.0691  -11.9889   19.0068 C   0  0  0  0  0  0  0  0  0  0  0  0
  -20.0784  -29.2653   24.4561 C   0  0  0  0  0  0  0  0  0  0  0  0
  -28.5787  -11.6659   19.1350 C   0  0  0  0  0  0  0  0  0  0  0  0
  -30.6109  -12.6737   20.2603 C   0  0  0  0  0  0  0  0  0  0  0  0
  -29.0486  -22.5194   19.9302 C   0  0  0  0  0  0  0  0  0  0  0  0
  -28.3730  -13.5392   20.8188 C   0  0  0  0  0  0  0  0  0  0  0  0
  -20.6513  -27.9871   23.8320 C   0  0  1  0  0  0  0  0  0  0  0  0
  -24.1849  -27.4912   25.1362 C   0  0  1  0  0  0  0  0  0  0  0  0
  -28.8502  -23.7942   19.1116 C   0  0  1  0  0  0  0  0  0  0  0  0
  -27.7672  -12.9071   19.5551 C   0  0  2  0  0  0  0  0  0  0  0  0
  -28.4216  -18.2311   22.6602 C   0  0  0  0  0  0  0  0  0  0  0  0
  -31.3658  -29.5325   26.1405 C   0  0  0  0  0  0  0  0  0  0  0  0
  -25.6198  -32.2648   24.8937 C   0  0  0  0  0  0  0  0  0  0  0  0
  -28.1194  -32.3435   24.7743 C   0  0  0  0  0  0  0  0  0  0  0  0
  -26.9935  -31.7250   26.9127 C   0  0  0  0  0  0  0  0  0  0  0  0
  -30.4990  -26.8130   23.6247 C   0  0  0  0  0  0  0  0  0  0  0  0
  -28.0294  -24.8183   19.8926 C   0  0  0  0  0  0  0  0  0  1  0  0
  -26.9941  -30.0813   24.9917 C   0  0  1  0  0  0  0  0  0  0  0  0
  -30.4496  -28.5754   25.3939 C   0  0  2  0  0  0  0  0  0  0  0  0
  -26.9170  -31.5857   25.3766 C   0  0  0  0  0  0  0  0  0  0  0  0
  -25.9454  -11.3604   20.1634 N   0  0  0  0  0  0  0  0  0  0  0  0
  -26.2952  -12.5836   19.7304 N   0  0  0  0  0  0  0  0  0  0  0  0
  -29.9847  -21.5471   19.3367 N   0  0  0  0  0  0  0  0  0  0  0  0
  -25.4268  -28.1784   24.7761 N   0  0  0  0  0  0  0  0  0  0  0  0
  -29.7952  -13.8430   20.5952 N   0  0  0  0  0  0  0  0  0  0  0  0
  -25.4083  -14.6740   19.0565 N   0  0  0  0  0  0  0  0  0  0  0  0
  -22.0764  -12.9503   18.4883 N   0  0  0  0  0  0  0  0  0  0  0  0
  -29.5213  -16.1549   20.9728 N   0  0  0  0  0  0  0  0  0  0  0  0
  -21.8397  -27.5664   24.5427 N   0  0  0  0  0  0  0  0  0  0  0  0
  -28.1996  -29.4058   25.4596 N   0  0  0  0  0  0  0  0  0  0  0  0
  -31.2693  -27.8089   24.4134 N   0  3  0  0  0  0  0  0  0  0  0  0
  -32.0795  -21.2954   18.3063 O   0  0  0  0  0  0  0  0  0  0  0  0
  -22.1767  -13.7054   20.6513 O   0  0  0  0  0  0  0  0  0  0  0  0
  -23.3808  -28.9119   23.4303 O   0  0  0  0  0  0  0  0  0  0  0  0
  -25.2994  -29.6370   26.5907 O   0  0  0  0  0  0  0  0  0  0  0  0
  -29.4601  -29.7833   23.5502 O   0  0  0  0  0  0  0  0  0  0  0  0
  -31.6089  -15.2716   20.4791 O   0  0  0  0  0  0  0  0  0  0  0  0
  -21.6403   -6.9800   21.8457 O   0  0  0  0  0  0  0  0  0  0  0  0
  -26.7585  -24.2515   20.2089 O   0  0  0  0  0  0  0  0  0  1  0  0
  -21.5486   -5.8074   27.2328 F   0  0  0  0  0  0  0  0  0  0  0  0
  -30.7727  -16.8446   18.5992 F   0  0  0  0  0  0  0  0  0  0  0  0
  -19.2581   -6.9386   23.2479 F   0  0  0  0  0  0  0  0  0  0  0  0
  1  2  1  0  0  0  0
  1  5  2  0  0  0  0
  2  6  2  0  0  0  0
  3  8  2  0  0  0  0
  3 17  1  0  0  0  0
  4  9  1  0  0  0  0
  4 17  2  0  0  0  0
  5 19  1  0  0  0  0
  6 21  1  0  0  0  0
  7 10  2  0  0  0  0
  7 20  1  0  0  0  0
  8 26  1  0  0  0  0
  9 26  2  0  0  0  0
 10 27  1  0  0  0  0
 11 12  2  0  0  0  0
 11 28  1  0  0  0  0
 12 29  1  0  0  0  0
 13 22  1  0  0  0  0
 13 27  2  0  0  0  0
 14 23  2  0  0  0  0
 14 24  1  0  0  0  0
 15 24  2  0  0  0  0
 15 30  1  0  0  0  0
 16 29  2  0  0  0  0
 16 31  1  0  0  0  0
 17 32  1  0  0  0  0
 18 32  1  0  0  0  0
 18 33  2  0  0  0  0
 18 35  1  0  0  0  0
 19 21  2  0  0  0  0
 19 40  1  0  0  0  0
 20 22  2  0  0  0  0
 20 41  1  0  0  0  0
 21 52  1  0  0  0  0
 22 42  1  0  0  0  0
 23 25  1  0  0  0  0
 23 56  1  0  0  0  0
 24 68  1  0  0  0  0
 25 30  2  0  0  0  0
 25 73  1  0  0  0  0
 26 83  1  0  0  0  0
 27 84  1  0  0  0  0
 28 31  2  0  0  0  0
 28 83  1  0  0  0  0
 29 85  1  0  0  0  0
 30 86  1  0  0  0  0
 31 87  1  0  0  0  0
 32 66  2  0  0  0  0
 33 67  1  0  0  0  0
 33 71  1  0  0  0  0
 34 43  1  0  0  0  0
 34 68  1  0  0  0  0
 34 77  2  0  0  0  0
 35 72  1  0  0  0  0
 35 78  2  0  0  0  0
 36 53  1  0  0  0  0
 36 74  1  0  0  0  0
 36 79  2  0  0  0  0
 37 63  1  0  0  0  0
 37 69  1  0  0  0  0
 37 80  2  0  0  0  0
 38 64  1  0  0  0  0
 38 75  1  0  0  0  0
 38 81  2  0  0  0  0
 39 70  1  0  0  0  0
 39 73  1  0  0  0  0
 39 82  2  0  0  0  0
 40 44  1  0  0  0  0
 41 53  1  0  0  0  0
 42 69  1  0  0  0  0
 43 45  1  0  0  0  0
 44 47  1  0  0  0  0
 45 54  1  0  0  0  0
 46 48  1  0  0  0  0
 46 49  1  0  0  0  0
 47 52  1  0  0  0  0
 48 55  1  0  0  0  0
 49 70  1  0  0  0  0
 50 54  1  0  0  0  0
 50 68  1  0  0  0  0
 51 55  1  0  0  0  0
 51 70  1  0  0  0  0
 52 74  1  0  0  0  0
 53 69  1  0  0  0  0
 54 62  1  0  0  0  0
 55 67  1  0  0  0  0
 57 64  1  0  0  0  0
 58 65  1  0  0  0  0
 59 65  1  0  0  0  0
 60 65  1  0  0  0  0
 61 76  1  0  0  0  0
 62 84  1  0  0  0  0
 63 65  1  0  0  0  0
 63 75  1  0  0  0  0
 64 76  1  0  0  0  0
 66 67  1  0  0  0  0
M  CHG  1  76   1
M  ISO  4  39 100  62 101  73 100  84 101
M  END
> <Batch ID>
0062

> <Smiles>
CNC(C)C(=O)NC(C(=O)N1Cc2cc([101O:1][101CH2:1]C3CCC(=O)N(c4cc(C)c([100NH:0][100C:0](=O)N5CCCC(n6nc(-c7ccc(Oc8ccc(F)cc8F)cc7)c(C(N)=O)c6N)C5)c(F)c4)C3)ccc2CC1C(=O)NC1CCCc2ccccc21)C(C)(C)C

> <Shape>
0.292

> <Color>
0.142

> <Negative vol penalty>
0.000

$$$$

  -OEChem-04042323093D

 84 92  0     1  0  0  0  0  0999 V2000
  -19.4765  -24.0797   21.6537 C   0  0  0  0  0  0  0  0  0  0  0  0
  -20.4683  -24.5921   20.8235 C   0  0  0  0  0  0  0  0  0  0  0  0
  -23.6385  -15.3599   19.9540 C   0  0  0  0  0  0  0  0  0  0  0  0
  -25.4424  -15.9973   21.4294 C   0  0  0  0  0  0  0  0  0  0  0  0
  -18.7343  -24.9385   22.4633 C   0  0  0  0  0  0  0  0  0  0  0  0
  -20.7177  -25.9639   20.8017 C   0  0  0  0  0  0  0  0  0  0  0  0
  -25.6644  -27.0411   20.9251 C   0  0  0  0  0  0  0  0  0  0  0  0
  -29.1003  -23.2355   20.8107 C   0  0  0  0  0  0  0  0  0  0  0  0
  -24.1172  -14.0500   19.9345 C   0  0  0  0  0  0  0  0  0  0  0  0
  -25.9211  -14.6873   21.4099 C   0  0  0  0  0  0  0  0  0  0  0  0
  -26.3766  -26.8999   19.7350 C   0  0  0  0  0  0  0  0  0  0  0  0
  -24.0291  -11.3354   21.9486 C   0  0  0  0  0  0  0  0  0  0  0  0
  -30.4054  -23.6782   21.0261 C   0  0  0  0  0  0  0  0  0  0  0  0
  -23.1022  -10.3042   22.0998 C   0  0  0  0  0  0  0  0  0  0  0  0
  -29.1079  -24.2743   18.6294 C   0  0  0  0  0  0  0  0  0  0  0  0
  -26.2439  -29.2823   19.3800 C   0  0  0  0  0  0  0  0  0  0  0  0
  -23.7280   -9.4247   19.9384 C   0  0  0  0  0  0  0  0  0  0  0  0
  -24.3011  -16.3336   20.7014 C   0  0  0  0  0  0  0  0  0  0  0  0
  -30.4130  -24.7170   18.8448 C   0  0  0  0  0  0  0  0  0  0  0  0
  -22.8763  -18.2391   21.6216 C   0  0  0  0  0  0  0  0  0  0  0  0
  -18.9813  -26.3204   22.4586 C   0  0  0  0  0  0  0  0  0  0  0  0
  -25.2263  -28.3047   21.3469 C   0  0  0  0  0  0  0  0  0  0  0  0
  -19.9772  -26.8421   21.6110 C   0  0  0  0  0  0  0  0  0  0  0  0
  -25.5284  -29.4371   20.5772 C   0  0  0  0  0  0  0  0  0  0  0  0
  -28.4516  -23.5335   19.6123 C   0  0  0  0  0  0  0  0  0  0  0  0
  -25.2585  -13.7136   20.6625 C   0  0  0  0  0  0  0  0  0  0  0  0
  -26.6640  -28.0203   18.9607 C   0  0  0  0  0  0  0  0  0  0  0  0
  -24.8054  -11.4114   20.7922 C   0  0  0  0  0  0  0  0  0  0  0  0
  -22.9516   -9.3488   21.0947 C   0  0  0  0  0  0  0  0  0  0  0  0
  -31.0617  -24.4190   20.0432 C   0  0  0  0  0  0  0  0  0  0  0  0
  -24.6549  -10.4560   19.7871 C   0  0  0  0  0  0  0  0  0  0  0  0
  -23.8073  -17.6871   20.7215 C   0  0  0  0  0  0  0  0  0  0  0  0
  -22.7439  -19.5460   21.2203 C   0  0  0  0  0  0  0  0  0  0  0  0
  -30.1640  -27.5146   17.3710 C   0  0  0  0  0  0  0  0  0  0  0  0
  -31.1109  -25.5077   17.7938 C   0  0  0  0  0  0  0  0  0  0  0  0
  -22.1924  -17.6254   22.7222 C   0  0  0  0  0  0  0  0  0  0  0  0
  -22.3882  -29.6279   21.8929 C   0  0  0  0  0  0  0  0  0  0  0  0
  -24.1851  -32.1074   22.9633 C   0  0  0  0  0  0  0  0  0  0  0  0
  -27.1682  -33.7637   22.8988 C   0  0  0  0  0  0  0  0  0  0  0  0
  -26.3386  -23.2919   18.2620 C   0  0  0  0  0  0  0  0  0  0  0  0
  -18.1212  -27.2145   23.3161 C   0  0  0  0  0  0  0  0  0  0  0  0
  -24.4822  -28.4434   22.6467 C   0  0  0  0  0  0  0  0  0  0  0  0
  -25.0984  -30.8184   20.9961 C   0  0  0  0  0  0  0  0  0  0  0  0
  -18.7017  -28.6128   23.5117 C   0  0  0  0  0  0  0  0  0  0  0  0
  -23.0451  -22.3160   17.3253 C   0  0  0  0  0  0  0  0  0  0  0  0
  -19.1785  -29.1839   22.1800 C   0  0  0  0  0  0  0  0  0  0  0  0
  -22.7798  -21.0720   18.1763 C   0  0  0  0  0  0  0  0  0  0  0  0
  -24.4984  -22.3852   16.8597 C   0  0  0  0  0  0  0  0  0  0  0  0
  -25.2335  -21.0277   18.7796 C   0  0  0  0  0  0  0  0  0  0  0  0
  -20.2942  -28.3215   21.5777 C   0  0  1  0  0  0  0  0  0  0  0  0
  -23.6396  -29.7131   22.7202 C   0  0  1  0  0  0  0  0  0  0  0  0
  -23.7987  -20.9478   19.3260 C   0  0  2  0  0  0  0  0  0  0  0  0
  -28.3239  -35.7782   23.8494 C   0  0  0  0  0  0  0  0  0  0  0  0
  -22.6176  -33.9027   21.0580 C   0  0  0  0  0  0  0  0  0  0  0  0
  -24.3997  -35.6387   21.3388 C   0  0  0  0  0  0  0  0  0  0  0  0
  -23.0575  -34.9017   23.3081 C   0  0  0  0  0  0  0  0  0  0  0  0
  -29.2409  -32.1027   24.2042 C   0  0  0  0  0  0  0  0  0  0  0  0
  -29.3340  -28.4731   16.5613 C   0  0  0  0  0  0  0  0  0  0  0  0
  -28.1728  -28.9861   17.3966 C   0  0  0  0  0  0  0  0  0  1  0  0
  -24.7901  -33.3391   22.3342 C   0  0  1  0  0  0  0  0  0  0  0  0
  -28.0519  -34.2911   24.0148 C   0  0  2  0  0  0  0  0  0  0  0  0
  -23.7228  -34.4194   22.0006 C   0  0  0  0  0  0  0  0  0  0  0  0
  -24.2359  -18.5709   19.8164 N   0  0  0  0  0  0  0  0  0  0  0  0
  -30.3564  -26.3016   16.9642 N   0  0  0  0  0  0  0  0  0  0  0  0
  -23.5712  -19.6915   20.1457 N   0  0  0  0  0  0  0  0  0  0  0  0
  -24.3680  -30.9016   22.2717 N   0  0  0  0  0  0  0  0  0  0  0  0
  -25.4061  -22.2652   18.0027 N   0  0  0  0  0  0  0  0  0  0  0  0
  -22.0017  -20.5733   21.6851 N   0  0  0  0  0  0  0  0  0  0  0  0
  -22.4448  -16.2743   22.9961 N   0  0  0  0  0  0  0  0  0  0  0  0
  -27.1259  -23.0833   19.3939 N   0  0  0  0  0  0  0  0  0  0  0  0
  -21.5520  -28.5851   22.2433 N   0  0  0  0  0  0  0  0  0  0  0  0
  -25.8343  -33.7925   23.2466 N   0  0  0  0  0  0  0  0  0  0  0  0
  -32.3823  -25.4420   17.6107 N   0  3  0  0  0  0  0  0  0  0  0  0
  -29.3576  -33.5728   24.0250 N   0  3  0  0  0  0  0  0  0  0  0  0
  -21.3691  -18.2522   23.4313 O   0  0  0  0  0  0  0  0  0  0  0  0
  -22.1950  -30.4484   21.0034 O   0  0  0  0  0  0  0  0  0  0  0  0
  -23.5788  -32.2102   24.0326 O   0  0  0  0  0  0  0  0  0  0  0  0
  -27.6162  -33.3694   21.8244 O   0  0  0  0  0  0  0  0  0  0  0  0
  -26.4133  -24.2960   17.5491 O   0  0  0  0  0  0  0  0  0  0  0  0
  -25.7258  -12.4354   20.6439 O   0  0  0  0  0  0  0  0  0  0  0  0
  -27.3585  -27.8852   17.7983 O   0  0  0  0  0  0  0  0  0  1  0  0
  -22.0625   -8.3576   21.2408 F   0  0  0  0  0  0  0  0  0  0  0  0
  -32.3158  -24.8393   20.2607 F   0  0  0  0  0  0  0  0  0  0  0  0
  -25.3988  -10.5231   18.6745 F   0  0  0  0  0  0  0  0  0  0  0  0
  1  2  1  0  0  0  0
  1  5  2  0  0  0  0
  2  6  2  0  0  0  0
  3  9  2  0  0  0  0
  3 18  1  0  0  0  0
  4 10  1  0  0  0  0
  4 18  2  0  0  0  0
  5 21  1  0  0  0  0
  6 23  1  0  0  0  0
  7 11  2  0  0  0  0
  7 22  1  0  0  0  0
  8 13  2  0  0  0  0
  8 25  1  0  0  0  0
  9 26  1  0  0  0  0
 10 26  2  0  0  0  0
 11 27  1  0  0  0  0
 12 14  2  0  0  0  0
 12 28  1  0  0  0  0
 13 30  1  0  0  0  0
 14 29  1  0  0  0  0
 15 19  1  0  0  0  0
 15 25  2  0  0  0  0
 16 24  1  0  0  0  0
 16 27  2  0  0  0  0
 17 29  2  0  0  0  0
 17 31  1  0  0  0  0
 18 32  1  0  0  0  0
 19 30  2  0  0  0  0
 19 35  1  0  0  0  0
 20 32  1  0  0  0  0
 20 33  2  0  0  0  0
 20 36  1  0  0  0  0
 21 23  2  0  0  0  0
 21 41  1  0  0  0  0
 22 24  2  0  0  0  0
 22 42  1  0  0  0  0
 23 50  1  0  0  0  0
 24 43  1  0  0  0  0
 25 70  1  0  0  0  0
 26 80  1  0  0  0  0
 27 81  1  0  0  0  0
 28 31  2  0  0  0  0
 28 80  1  0  0  0  0
 29 82  1  0  0  0  0
 30 83  1  0  0  0  0
 31 84  1  0  0  0  0
 32 63  2  0  0  0  0
 33 65  1  0  0  0  0
 33 68  1  0  0  0  0
 34 58  1  0  0  0  0
 34 64  2  0  0  0  0
 35 64  1  0  0  0  0
 35 73  2  0  0  0  0
 36 69  1  0  0  0  0
 36 75  2  0  0  0  0
 37 51  1  0  0  0  0
 37 71  1  0  0  0  0
 37 76  2  0  0  0  0
 38 60  1  0  0  0  0
 38 66  1  0  0  0  0
 38 77  2  0  0  0  0
 39 61  1  0  0  0  0
 39 72  1  0  0  0  0
 39 78  2  0  0  0  0
 40 67  1  0  0  0  0
 40 70  1  0  0  0  0
 40 79  2  0  0  0  0
 41 44  1  0  0  0  0
 42 51  1  0  0  0  0
 43 66  1  0  0  0  0
 44 46  1  0  0  0  0
 45 47  1  0  0  0  0
 45 48  1  0  0  0  0
 46 50  1  0  0  0  0
 47 52  1  0  0  0  0
 48 67  1  0  0  0  0
 49 52  1  0  0  0  0
 49 67  1  0  0  0  0
 50 71  1  0  0  0  0
 51 66  1  0  0  0  0
 52 65  1  0  0  0  0
 53 61  1  0  0  0  0
 54 62  1  0  0  0  0
 55 62  1  0  0  0  0
 56 62  1  0  0  0  0
 57 74  1  0  0  0  0
 58 59  1  0  0  0  0
 59 81  1  0  0  0  0
 60 62  1  0  0  0  0
 60 72  1  0  0  0  0
 61 74  1  0  0  0  0
 63 65  1  0  0  0  0
M  CHG  2  73   1  74   1
M  ISO  4  40 100  59 101  70 100  81 101
M  END
> <Batch ID>
0062

> <Smiles>
CNC(C)C(=O)NC(C(=O)N1Cc2cc([101O:1][101CH2:1]CC=NC(=N)c3cc([100NH:0][100C:0](=O)N4CCCC(n5nc(-c6ccc(Oc7ccc(F)cc7F)cc6)c(C(N)=O)c5N)C4)ccc3F)ccc2CC1C(=O)NC1CCCc2ccccc21)C(C)(C)C

> <Shape>
0.244

> <Color>
0.094

> <Negative vol penalty>
0.000

$$$$

  -OEChem-04042323093D

 88 97  0     1  0  0  0  0  0999 V2000
  -25.7103  -37.7525   27.2094 C   0  0  0  0  0  0  0  0  0  0  0  0
  -25.3644  -36.4801   27.6529 C   0  0  0  0  0  0  0  0  0  0  0  0
  -22.6500  -10.2392   20.5503 C   0  0  0  0  0  0  0  0  0  0  0  0
  -24.4846   -9.0727   21.6040 C   0  0  0  0  0  0  0  0  0  0  0  0
  -25.5824  -38.0777   25.8597 C   0  0  0  0  0  0  0  0  0  0  0  0
  -24.8894  -35.5324   26.7470 C   0  0  0  0  0  0  0  0  0  0  0  0
  -28.2691  -29.2336   25.8560 C   0  0  0  0  0  0  0  0  0  0  0  0
  -25.3829  -19.7219   20.4724 C   0  0  0  0  0  0  0  0  0  0  0  0
  -25.7231  -18.3695   20.4997 C   0  0  0  0  0  0  0  0  0  0  0  0
  -21.7482   -9.5643   21.3730 C   0  0  0  0  0  0  0  0  0  0  0  0
  -23.5828   -8.3977   22.4268 C   0  0  0  0  0  0  0  0  0  0  0  0
  -28.7378  -27.9218   25.7817 C   0  0  0  0  0  0  0  0  0  0  0  0
  -21.4674   -5.7721   22.1781 C   0  0  0  0  0  0  0  0  0  0  0  0
  -21.6462   -4.3991   22.3464 C   0  0  0  0  0  0  0  0  0  0  0  0
  -27.1184  -27.4297   24.0544 C   0  0  0  0  0  0  0  0  0  0  0  0
  -28.0391  -18.9591   20.8543 C   0  0  0  0  0  0  0  0  0  0  0  0
  -21.9171   -4.7259   24.7249 C   0  0  0  0  0  0  0  0  0  0  0  0
  -24.0182   -9.9933   20.6657 C   0  0  0  0  0  0  0  0  0  0  0  0
  -25.0023  -10.6621   18.4092 C   0  0  0  0  0  0  0  0  0  0  0  0
  -25.1148  -37.1306   24.9352 C   0  0  0  0  0  0  0  0  0  0  0  0
  -27.2323  -29.6532   25.0180 C   0  0  0  0  0  0  0  0  0  0  0  0
  -24.7539  -35.8457   25.3838 C   0  0  0  0  0  0  0  0  0  0  0  0
  -26.6531  -28.7460   24.1156 C   0  0  0  0  0  0  0  0  0  0  0  0
  -26.3708  -20.6930   20.6361 C   0  0  0  0  0  0  0  0  0  0  0  0
  -27.6989  -20.3116   20.8270 C   0  0  0  0  0  0  0  0  0  0  0  0
  -27.0512  -17.9881   20.6906 C   0  0  0  0  0  0  0  0  0  0  0  0
  -22.2146   -8.6436   22.3113 C   0  0  0  0  0  0  0  0  0  0  0  0
  -28.1637  -27.0220   24.8833 C   0  0  0  0  0  0  0  0  0  0  0  0
  -21.5135   -6.6221   23.2831 C   0  0  0  0  0  0  0  0  0  0  0  0
  -21.8710   -3.8760   23.6198 C   0  0  0  0  0  0  0  0  0  0  0  0
  -21.7383   -6.0990   24.5565 C   0  0  0  0  0  0  0  0  0  0  0  0
  -24.9501  -10.6898   19.8157 C   0  0  0  0  0  0  0  0  0  0  0  0
  -26.0567  -11.4817   18.0885 C   0  0  0  0  0  0  0  0  0  0  0  0
  -29.7979  -21.3185   20.0585 C   0  0  0  0  0  0  0  0  0  0  0  0
  -28.6301  -22.1885   22.1067 C   0  0  0  0  0  0  0  0  0  0  0  0
  -24.1718   -9.9584   17.4760 C   0  0  0  0  0  0  0  0  0  0  0  0
  -24.9901  -32.4573   23.9291 C   0  0  0  0  0  0  0  0  0  0  0  0
  -25.8089  -30.9356   21.3945 C   0  0  0  0  0  0  0  0  0  0  0  0
  -26.6274  -30.0003   18.2176 C   0  0  0  0  0  0  0  0  0  0  0  0
  -28.6655  -16.0652   20.8975 C   0  0  0  0  0  0  0  0  0  0  0  0
  -24.9488  -37.5433   23.4941 C   0  0  0  0  0  0  0  0  0  0  0  0
  -26.6543  -31.0396   25.1068 C   0  0  0  0  0  0  0  0  0  0  0  0
  -25.5168  -29.2320   23.2580 C   0  0  0  0  0  0  0  0  0  0  0  0
  -30.9595  -22.2474   20.3449 C   0  0  0  0  0  0  0  0  0  0  0  0
  -24.7923  -36.3643   22.5370 C   0  0  0  0  0  0  0  0  0  0  0  0
  -30.9952  -22.7713   21.7615 C   0  0  0  0  0  0  0  0  0  0  0  0
  -30.2355  -13.0576   19.8174 C   0  0  0  0  0  0  0  0  0  0  0  0
  -23.7854  -35.3596   23.0878 C   0  0  0  0  0  0  0  0  0  0  0  0
  -29.0627  -12.1085   19.5606 C   0  0  0  0  0  0  0  0  0  0  0  0
  -29.9807  -13.9606   21.0230 C   0  0  0  0  0  0  0  0  0  0  0  0
  -27.5435  -13.7571   20.7272 C   0  0  0  0  0  0  0  0  0  0  0  0
  -24.2583  -34.7826   24.4276 C   0  0  1  0  0  0  0  0  0  0  0  0
  -29.6271  -23.3385   22.0957 C   0  0  2  0  0  0  0  0  0  0  0  0
  -26.2030  -31.5937   23.7436 C   0  0  1  0  0  0  0  0  0  0  0  0
  -27.7261  -12.8722   19.4833 C   0  0  2  0  0  0  0  0  0  0  0  0
  -25.9775  -22.1342   20.6024 C   0  0  0  0  0  0  0  0  0  0  0  0
  -25.7531  -30.0394   15.8657 C   0  0  0  0  0  0  0  0  0  0  0  0
  -23.8957  -28.6586   22.0717 C   0  0  0  0  0  0  0  0  0  0  0  0
  -23.7823  -28.1221   19.6288 C   0  0  0  0  0  0  0  0  0  0  0  0
  -22.9888  -30.3379   20.4554 C   0  0  0  0  0  0  0  0  0  0  0  0
  -28.9113  -31.6279   17.2724 C   0  0  0  0  0  0  0  0  0  0  0  0
  -29.6589  -24.0731   23.4339 C   0  0  0  0  0  0  0  0  0  0  0  0
  -28.5308  -25.0869   23.5499 C   0  0  0  0  0  0  0  0  0  1  0  0
  -25.4689  -29.8490   20.4061 C   0  0  1  0  0  0  0  0  0  0  0  0
  -26.5980  -30.7609   16.9042 C   0  0  2  0  0  0  0  0  0  0  0  0
  -24.0589  -29.2424   20.6541 C   0  0  0  0  0  0  0  0  0  0  0  0
  -25.8962  -11.4655   20.3516 N   0  0  0  0  0  0  0  0  0  0  0  0
  -26.5529  -11.9327   19.2762 N   0  0  0  0  0  0  0  0  0  0  0  0
  -28.7399  -21.3054   20.9988 N   0  0  0  0  0  0  0  0  0  0  0  0
  -25.8128  -30.5802   22.7488 N   0  0  0  0  0  0  0  0  0  0  0  0
  -28.6994  -14.6548   20.8782 N   0  0  0  0  0  0  0  0  0  0  0  0
  -26.5986  -11.8534   16.9093 N   0  0  0  0  0  0  0  0  0  0  0  0
  -23.1334   -9.1604   17.9753 N   0  0  0  0  0  0  0  0  0  0  0  0
  -27.3962  -16.6140   20.7182 N   0  0  0  0  0  0  0  0  0  0  0  0
  -25.2783  -33.7785   24.2136 N   0  0  0  0  0  0  0  0  0  0  0  0
  -25.6433  -30.4335   19.0808 N   0  0  0  0  0  0  0  0  0  0  0  0
  -27.9782  -30.9139   16.3633 N   0  3  0  0  0  0  0  0  0  0  0  0
  -29.8053  -20.6982   18.9902 O   0  0  0  0  0  0  0  0  0  0  0  0
  -27.8253  -22.0678   23.0326 O   0  0  0  0  0  0  0  0  0  0  0  0
  -24.3557  -10.0221   16.2368 O   0  0  0  0  0  0  0  0  0  0  0  0
  -23.8741  -31.9629   23.8209 O   0  0  0  0  0  0  0  0  0  0  0  0
  -26.0591  -32.0710   20.9802 O   0  0  0  0  0  0  0  0  0  0  0  0
  -27.4396  -29.1083   18.4528 O   0  0  0  0  0  0  0  0  0  0  0  0
  -29.6912  -16.7371   21.0339 O   0  0  0  0  0  0  0  0  0  0  0  0
  -21.3350   -7.9850   23.1145 O   0  0  0  0  0  0  0  0  0  0  0  0
  -28.6292  -25.7441   24.8127 O   0  0  0  0  0  0  0  0  0  1  0  0
  -22.0412   -2.5572   23.7815 F   0  0  0  0  0  0  0  0  0  0  0  0
  -21.7825   -6.9105   25.6220 F   0  0  0  0  0  0  0  0  0  0  0  0
  1  2  1  0  0  0  0
  1  5  2  0  0  0  0
  2  6  2  0  0  0  0
  3 10  2  0  0  0  0
  3 18  1  0  0  0  0
  4 11  1  0  0  0  0
  4 18  2  0  0  0  0
  5 20  1  0  0  0  0
  6 22  1  0  0  0  0
  7 12  2  0  0  0  0
  7 21  1  0  0  0  0
  8  9  2  0  0  0  0
  8 24  1  0  0  0  0
  9 26  1  0  0  0  0
 10 27  1  0  0  0  0
 11 27  2  0  0  0  0
 12 28  1  0  0  0  0
 13 14  2  0  0  0  0
 13 29  1  0  0  0  0
 14 30  1  0  0  0  0
 15 23  1  0  0  0  0
 15 28  2  0  0  0  0
 16 25  1  0  0  0  0
 16 26  2  0  0  0  0
 17 30  2  0  0  0  0
 17 31  1  0  0  0  0
 18 32  1  0  0  0  0
 19 32  1  0  0  0  0
 19 33  2  0  0  0  0
 19 36  1  0  0  0  0
 20 22  2  0  0  0  0
 20 41  1  0  0  0  0
 21 23  2  0  0  0  0
 21 42  1  0  0  0  0
 22 52  1  0  0  0  0
 23 43  1  0  0  0  0
 24 25  2  0  0  0  0
 24 56  1  0  0  0  0
 25 69  1  0  0  0  0
 26 74  1  0  0  0  0
 27 85  1  0  0  0  0
 28 86  1  0  0  0  0
 29 31  2  0  0  0  0
 29 85  1  0  0  0  0
 30 87  1  0  0  0  0
 31 88  1  0  0  0  0
 32 67  2  0  0  0  0
 33 68  1  0  0  0  0
 33 72  1  0  0  0  0
 34 44  1  0  0  0  0
 34 69  1  0  0  0  0
 34 78  2  0  0  0  0
 35 53  1  0  0  0  0
 35 69  1  0  0  0  0
 35 79  2  0  0  0  0
 36 73  1  0  0  0  0
 36 80  2  0  0  0  0
 37 54  1  0  0  0  0
 37 75  1  0  0  0  0
 37 81  2  0  0  0  0
 38 64  1  0  0  0  0
 38 70  1  0  0  0  0
 38 82  2  0  0  0  0
 39 65  1  0  0  0  0
 39 76  1  0  0  0  0
 39 83  2  0  0  0  0
 40 71  1  0  0  0  0
 40 74  1  0  0  0  0
 40 84  2  0  0  0  0
 41 45  1  0  0  0  0
 42 54  1  0  0  0  0
 43 70  1  0  0  0  0
 44 46  1  0  0  0  0
 45 48  1  0  0  0  0
 46 53  1  0  0  0  0
 47 49  1  0  0  0  0
 47 50  1  0  0  0  0
 48 52  1  0  0  0  0
 49 55  1  0  0  0  0
 50 71  1  0  0  0  0
 51 55  1  0  0  0  0
 51 71  1  0  0  0  0
 52 75  1  0  0  0  0
 53 62  1  0  0  0  0
 54 70  1  0  0  0  0
 55 68  1  0  0  0  0
 57 65  1  0  0  0  0
 58 66  1  0  0  0  0
 59 66  1  0  0  0  0
 60 66  1  0  0  0  0
 61 77  1  0  0  0  0
 62 63  1  0  0  0  0
 63 86  1  0  0  0  0
 64 66  1  0  0  0  0
 64 76  1  0  0  0  0
 65 77  1  0  0  0  0
 67 68  1  0  0  0  0
M  CHG  1  77   1
M  ISO  4  40 100  63 101  74 100  86 101
M  END
> <Batch ID>
0062

> <Smiles>
CNC(C)C(=O)NC(C(=O)N1Cc2cc([101O:1][101CH2:1]CC3CCC(=O)N(c4cc([100NH:0][100C:0](=O)N5CCCC(n6nc(-c7ccc(Oc8ccc(F)cc8F)cc7)c(C(N)=O)c6N)C5)ccc4C)C3=O)ccc2CC1C(=O)NC1CCCc2ccccc21)C(C)(C)C

> <Shape>
0.308

> <Color>
0.104

> <Negative vol penalty>
0.000

$$$$

  -OEChem-04042323093D

 92101  0     1  0  0  0  0  0999 V2000
  -21.2636  -33.4977   25.4067 C   0  0  0  0  0  0  0  0  0  0  0  0
  -21.8732  -32.2906   25.7333 C   0  0  0  0  0  0  0  0  0  0  0  0
  -23.1450   -9.7958   19.8736 C   0  0  0  0  0  0  0  0  0  0  0  0
  -23.9482   -9.7151   22.1508 C   0  0  0  0  0  0  0  0  0  0  0  0
  -20.4288  -33.5767   24.2928 C   0  0  0  0  0  0  0  0  0  0  0  0
  -21.6473  -31.1615   24.9469 C   0  0  0  0  0  0  0  0  0  0  0  0
  -25.6410  -26.6922   23.6893 C   0  0  0  0  0  0  0  0  0  0  0  0
  -22.4542   -8.6010   20.0749 C   0  0  0  0  0  0  0  0  0  0  0  0
  -23.2573   -8.5202   22.3521 C   0  0  0  0  0  0  0  0  0  0  0  0
  -25.8328  -25.4243   24.2365 C   0  0  0  0  0  0  0  0  0  0  0  0
  -20.0770   -7.5569   22.9668 C   0  0  0  0  0  0  0  0  0  0  0  0
  -19.3451   -7.4241   24.1467 C   0  0  0  0  0  0  0  0  0  0  0  0
  -24.4868  -24.4682   22.4776 C   0  0  0  0  0  0  0  0  0  0  0  0
  -30.9021  -17.9142   20.8056 C   0  0  0  0  0  0  0  0  0  0  0  0
  -29.2985  -17.9405   22.6125 C   0  0  0  0  0  0  0  0  0  0  0  0
  -20.6791   -5.5048   24.7582 C   0  0  0  0  0  0  0  0  0  0  0  0
  -23.8921  -10.3529   20.9116 C   0  0  0  0  0  0  0  0  0  0  0  0
  -24.1274  -12.8930   20.9196 C   0  0  0  0  0  0  0  0  0  0  0  0
  -20.2002  -32.4504   23.4867 C   0  0  0  0  0  0  0  0  0  0  0  0
  -24.8604  -26.8592   22.5364 C   0  0  0  0  0  0  0  0  0  0  0  0
  -20.8076  -31.2252   23.8220 C   0  0  0  0  0  0  0  0  0  0  0  0
  -24.2888  -25.7390   21.9163 C   0  0  0  0  0  0  0  0  0  0  0  0
  -31.0121  -19.3026   20.8830 C   0  0  0  0  0  0  0  0  0  0  0  0
  -30.2654  -20.0099   21.8252 C   0  0  0  0  0  0  0  0  0  0  0  0
  -29.4085  -19.3288   22.6900 C   0  0  0  0  0  0  0  0  0  0  0  0
  -30.0453  -17.2332   21.6703 C   0  0  0  0  0  0  0  0  0  0  0  0
  -22.5103   -7.9631   21.3141 C   0  0  0  0  0  0  0  0  0  0  0  0
  -25.2533  -24.3124   23.6323 C   0  0  0  0  0  0  0  0  0  0  0  0
  -21.1099   -6.6636   22.6824 C   0  0  0  0  0  0  0  0  0  0  0  0
  -19.6462   -6.3980   25.0424 C   0  0  0  0  0  0  0  0  0  0  0  0
  -21.4110   -5.6376   23.5781 C   0  0  0  0  0  0  0  0  0  0  0  0
  -24.6064  -11.5869   20.7041 C   0  0  0  0  0  0  0  0  0  0  0  0
  -25.1806  -13.7058   20.5778 C   0  0  0  0  0  0  0  0  0  0  0  0
  -27.6713  -21.0310   23.4066 C   0  0  0  0  0  0  0  0  0  0  0  0
  -22.8451  -13.3323   21.3870 C   0  0  0  0  0  0  0  0  0  0  0  0
  -22.1722  -28.4119   21.8532 C   0  0  0  0  0  0  0  0  0  0  0  0
  -22.8632  -27.4804   18.8238 C   0  0  0  0  0  0  0  0  0  0  0  0
  -28.8998  -20.2708   18.6060 C   0  0  0  0  0  0  0  0  0  0  0  0
  -24.4640  -25.2810   16.7630 C   0  0  0  0  0  0  0  0  0  0  0  0
  -30.6015  -14.9699   20.7139 C   0  0  0  0  0  0  0  0  0  0  0  0
  -19.2524  -32.5729   22.3200 C   0  0  0  0  0  0  0  0  0  0  0  0
  -24.6852  -28.2303   21.9433 C   0  0  0  0  0  0  0  0  0  0  0  0
  -23.4587  -25.8622   20.6656 C   0  0  0  0  0  0  0  0  0  0  0  0
  -19.3621  -31.4224   21.3227 C   0  0  0  0  0  0  0  0  0  0  0  0
  -29.5417  -12.6382   18.2406 C   0  0  0  0  0  0  0  0  0  0  0  0
  -19.3887  -30.0835   22.0530 C   0  0  0  0  0  0  0  0  0  0  0  0
  -28.1238  -12.2643   18.6787 C   0  0  0  0  0  0  0  0  0  0  0  0
  -28.0829  -20.9384   25.7489 C   0  0  0  0  0  0  0  0  0  0  0  0
  -30.4697  -12.8423   19.4368 C   0  0  0  0  0  0  0  0  0  0  0  0
  -28.7257  -19.7405   25.0789 C   0  0  0  0  0  0  0  0  0  0  0  0
  -28.5616  -13.4128   20.8870 C   0  0  0  0  0  0  0  0  0  0  0  0
  -20.6069  -29.9844   22.9792 C   0  0  1  0  0  0  0  0  0  0  0  0
  -27.0299  -21.3758   24.7410 C   0  0  1  0  0  0  0  0  0  0  0  0
  -23.4466  -28.3455   21.0601 C   0  0  1  0  0  0  0  0  0  0  0  0
  -27.5742  -13.2605   19.7185 C   0  0  2  0  0  0  0  0  0  0  0  0
  -30.3874  -21.4997   21.9042 C   0  0  0  0  0  0  0  0  0  0  0  0
  -27.7055  -21.1893   18.5385 C   0  0  0  0  0  0  0  0  0  0  0  0
  -24.8115  -24.7529   14.3344 C   0  0  0  0  0  0  0  0  0  0  0  0
  -20.0582  -26.2877   18.6842 C   0  0  0  0  0  0  0  0  0  0  0  0
  -20.7872  -24.9860   16.6737 C   0  0  0  0  0  0  0  0  0  0  0  0
  -20.7893  -27.4797   16.6109 C   0  0  0  0  0  0  0  0  0  0  0  0
  -30.2975  -22.3365   18.2885 C   0  0  0  0  0  0  0  0  0  0  0  0
  -27.3876  -25.6901   16.9730 C   0  0  0  0  0  0  0  0  0  0  0  0
  -31.9375  -20.0076   19.9457 C   0  0  0  0  0  0  0  0  0  0  0  0
  -26.6619  -22.8426   24.8617 C   0  0  0  0  0  0  0  0  0  1  0  0
  -31.3838  -20.1355   18.5223 C   0  0  0  0  0  0  0  0  0  0  0  0
  -22.5412  -26.2728   17.9769 C   0  0  1  0  0  0  0  0  0  0  0  0
  -25.3459  -25.4995   15.5468 C   0  0  2  0  0  0  0  0  0  0  0  0
  -21.0580  -26.2541   17.5111 C   0  0  0  0  0  0  0  0  0  0  0  0
  -25.8658  -11.5664   20.2597 N   0  0  0  0  0  0  0  0  0  0  0  0
  -26.1871  -12.8696   20.1931 N   0  0  0  0  0  0  0  0  0  0  0  0
  -28.6344  -20.0328   23.6605 N   0  0  0  0  0  0  0  0  0  0  0  0
  -23.3113  -27.2246   20.1275 N   0  0  0  0  0  0  0  0  0  0  0  0
  -29.8859  -13.8015   20.3770 N   0  0  0  0  0  0  0  0  0  0  0  0
  -25.3346  -15.0469   20.5718 N   0  0  0  0  0  0  0  0  0  0  0  0
  -21.8782  -12.3650   21.6929 N   0  0  0  0  0  0  0  0  0  0  0  0
  -29.9326  -15.8229   21.5911 N   0  0  0  0  0  0  0  0  0  0  0  0
  -21.8006  -29.6928   22.2147 N   0  0  0  0  0  0  0  0  0  0  0  0
  -23.5102  -26.2691   16.8863 N   0  0  0  0  0  0  0  0  0  0  0  0
  -30.1589  -20.8882   18.4770 N   0  0  0  0  0  0  0  0  0  0  0  0
  -26.7313  -25.0227   15.8193 N   0  3  0  0  0  0  0  0  0  0  0  0
  -27.3171  -21.5252   22.3460 O   0  0  0  0  0  0  0  0  0  0  0  0
  -22.5596  -14.5473   21.5134 O   0  0  0  0  0  0  0  0  0  0  0  0
  -21.5698  -27.3777   22.1165 O   0  0  0  0  0  0  0  0  0  0  0  0
  -22.7291  -28.6088   18.3439 O   0  0  0  0  0  0  0  0  0  0  0  0
  -28.7201  -19.0606   18.7660 O   0  0  0  0  0  0  0  0  0  0  0  0
  -24.6046  -24.3271   17.5250 O   0  0  0  0  0  0  0  0  0  0  0  0
  -31.7134  -15.2102   20.2366 O   0  0  0  0  0  0  0  0  0  0  0  0
  -21.8361   -6.7972   21.5109 O   0  0  0  0  0  0  0  0  0  0  0  0
  -25.4384  -23.0738   24.1647 O   0  0  0  0  0  0  0  0  0  1  0  0
  -18.9443   -6.2715   26.1762 F   0  0  0  0  0  0  0  0  0  0  0  0
  -22.4029   -4.7771   23.3110 F   0  0  0  0  0  0  0  0  0  0  0  0
  1  2  1  0  0  0  0
  1  5  2  0  0  0  0
  2  6  2  0  0  0  0
  3  8  2  0  0  0  0
  3 17  1  0  0  0  0
  4  9  1  0  0  0  0
  4 17  2  0  0  0  0
  5 19  1  0  0  0  0
  6 21  1  0  0  0  0
  7 10  2  0  0  0  0
  7 20  1  0  0  0  0
  8 27  1  0  0  0  0
  9 27  2  0  0  0  0
 10 28  1  0  0  0  0
 11 12  2  0  0  0  0
 11 29  1  0  0  0  0
 12 30  1  0  0  0  0
 13 22  1  0  0  0  0
 13 28  2  0  0  0  0
 14 23  2  0  0  0  0
 14 26  1  0  0  0  0
 15 25  1  0  0  0  0
 15 26  2  0  0  0  0
 16 30  2  0  0  0  0
 16 31  1  0  0  0  0
 17 32  1  0  0  0  0
 18 32  1  0  0  0  0
 18 33  2  0  0  0  0
 18 35  1  0  0  0  0
 19 21  2  0  0  0  0
 19 41  1  0  0  0  0
 20 22  2  0  0  0  0
 20 42  1  0  0  0  0
 21 52  1  0  0  0  0
 22 43  1  0  0  0  0
 23 24  1  0  0  0  0
 23 64  1  0  0  0  0
 24 25  2  0  0  0  0
 24 56  1  0  0  0  0
 25 72  1  0  0  0  0
 26 77  1  0  0  0  0
 27 89  1  0  0  0  0
 28 90  1  0  0  0  0
 29 31  2  0  0  0  0
 29 89  1  0  0  0  0
 30 91  1  0  0  0  0
 31 92  1  0  0  0  0
 32 70  2  0  0  0  0
 33 71  1  0  0  0  0
 33 75  1  0  0  0  0
 34 53  1  0  0  0  0
 34 72  1  0  0  0  0
 34 82  2  0  0  0  0
 35 76  1  0  0  0  0
 35 83  2  0  0  0  0
 36 54  1  0  0  0  0
 36 78  1  0  0  0  0
 36 84  2  0  0  0  0
 37 67  1  0  0  0  0
 37 73  1  0  0  0  0
 37 85  2  0  0  0  0
 38 57  1  0  0  0  0
 38 80  1  0  0  0  0
 38 86  2  0  0  0  0
 39 68  1  0  0  0  0
 39 79  1  0  0  0  0
 39 87  2  0  0  0  0
 40 74  1  0  0  0  0
 40 77  1  0  0  0  0
 40 88  2  0  0  0  0
 41 44  1  0  0  0  0
 42 54  1  0  0  0  0
 43 73  1  0  0  0  0
 44 46  1  0  0  0  0
 45 47  1  0  0  0  0
 45 49  1  0  0  0  0
 46 52  1  0  0  0  0
 47 55  1  0  0  0  0
 48 50  1  0  0  0  0
 48 53  1  0  0  0  0
 49 74  1  0  0  0  0
 50 72  1  0  0  0  0
 51 55  1  0  0  0  0
 51 74  1  0  0  0  0
 52 78  1  0  0  0  0
 53 65  1  0  0  0  0
 54 73  1  0  0  0  0
 55 71  1  0  0  0  0
 58 68  1  0  0  0  0
 59 69  1  0  0  0  0
 60 69  1  0  0  0  0
 61 69  1  0  0  0  0
 62 80  1  0  0  0  0
 63 81  1  0  0  0  0
 64 66  1  0  0  0  0
 65 90  1  0  0  0  0
 66 80  1  0  0  0  0
 67 69  1  0  0  0  0
 67 79  1  0  0  0  0
 68 81  1  0  0  0  0
 70 71  1  0  0  0  0
M  CHG  1  81   1
M  ISO  4  40 100  65 101  77 100  90 101
M  END
> <Batch ID>
0062

> <Smiles>
CNC(C)C(=O)NC(C(=O)N1Cc2cc([101O:1][101CH2:1]C3CCN(c4cc([100NH:0][100C:0](=O)N5CCCC(n6nc(-c7ccc(Oc8ccc(F)cc8F)cc7)c(C(N)=O)c6N)C5)cc(CCN(C)C(C)=O)c4C)C3=O)ccc2CC1C(=O)NC1CCCc2ccccc21)C(C)(C)C

> <Shape>
0.248

> <Color>
0.196

> <Negative vol penalty>
0.000

$$$$

  -OEChem-04042323093D

 84 92  0     1  0  0  0  0  0999 V2000
  -20.7207  -33.9255   15.3727 C   0  0  0  0  0  0  0  0  0  0  0  0
  -21.5434  -32.8087   15.4789 C   0  0  0  0  0  0  0  0  0  0  0  0
  -22.9241  -11.6112   21.5097 C   0  0  0  0  0  0  0  0  0  0  0  0
  -22.9174  -14.0074   21.2018 C   0  0  0  0  0  0  0  0  0  0  0  0
  -20.9309  -35.0262   16.2022 C   0  0  0  0  0  0  0  0  0  0  0  0
  -22.5777  -32.7925   16.4141 C   0  0  0  0  0  0  0  0  0  0  0  0
  -24.6178  -27.9523   19.5632 C   0  0  0  0  0  0  0  0  0  0  0  0
  -21.9054  -11.7298   22.4550 C   0  0  0  0  0  0  0  0  0  0  0  0
  -21.8986  -14.1261   22.1471 C   0  0  0  0  0  0  0  0  0  0  0  0
  -25.7035  -27.0988   19.3720 C   0  0  0  0  0  0  0  0  0  0  0  0
  -18.5506  -13.6829   22.2674 C   0  0  0  0  0  0  0  0  0  0  0  0
  -17.4786  -14.5210   21.9609 C   0  0  0  0  0  0  0  0  0  0  0  0
  -27.0065  -28.4211   20.9125 C   0  0  0  0  0  0  0  0  0  0  0  0
  -31.4583  -19.6095   20.9096 C   0  0  0  0  0  0  0  0  0  0  0  0
  -31.8236  -17.2224   20.8402 C   0  0  0  0  0  0  0  0  0  0  0  0
  -29.7931  -18.1607   19.9271 C   0  0  0  0  0  0  0  0  0  0  0  0
  -17.9733  -15.8652   23.9066 C   0  0  0  0  0  0  0  0  0  0  0  0
  -23.4302  -12.7500   20.8831 C   0  0  0  0  0  0  0  0  0  0  0  0
  -24.3379  -12.4495   18.5181 C   0  0  0  0  0  0  0  0  0  0  0  0
  -21.9621  -35.0196   17.1547 C   0  0  0  0  0  0  0  0  0  0  0  0
  -24.7219  -29.0548   20.4235 C   0  0  0  0  0  0  0  0  0  0  0  0
  -22.8027  -33.8947   17.2563 C   0  0  0  0  0  0  0  0  0  0  0  0
  -25.9198  -29.2856   21.1148 C   0  0  0  0  0  0  0  0  0  0  0  0
  -32.2569  -18.5010   21.1908 C   0  0  0  0  0  0  0  0  0  0  0  0
  -30.2264  -19.4394   20.2778 C   0  0  0  0  0  0  0  0  0  0  0  0
  -30.5917  -17.0522   20.2083 C   0  0  0  0  0  0  0  0  0  0  0  0
  -21.3926  -12.9872   22.7737 C   0  0  0  0  0  0  0  0  0  0  0  0
  -26.8990  -27.3347   20.0445 C   0  0  0  0  0  0  0  0  0  0  0  0
  -19.3339  -13.9359   23.3935 C   0  0  0  0  0  0  0  0  0  0  0  0
  -17.1899  -15.6122   22.7805 C   0  0  0  0  0  0  0  0  0  0  0  0
  -19.0453  -15.0270   24.2131 C   0  0  0  0  0  0  0  0  0  0  0  0
  -24.4829  -12.6282   19.9069 C   0  0  0  0  0  0  0  0  0  0  0  0
  -25.6253  -12.3929   18.0429 C   0  0  0  0  0  0  0  0  0  0  0  0
  -23.1460  -12.3443   17.7281 C   0  0  0  0  0  0  0  0  0  0  0  0
  -24.5042  -32.2059   20.0680 C   0  0  0  0  0  0  0  0  0  0  0  0
  -24.7490  -32.1961   23.3025 C   0  0  0  0  0  0  0  0  0  0  0  0
  -29.6916  -21.9004   20.2709 C   0  0  0  0  0  0  0  0  0  0  0  0
  -25.7908  -30.5840   26.1243 C   0  0  0  0  0  0  0  0  0  0  0  0
  -30.8202  -14.5477   20.0615 C   0  0  0  0  0  0  0  0  0  0  0  0
  -22.1804  -36.2516   17.9968 C   0  0  0  0  0  0  0  0  0  0  0  0
  -23.5331  -29.9506   20.6393 C   0  0  0  0  0  0  0  0  0  0  0  0
  -26.0766  -30.4436   22.0650 C   0  0  0  0  0  0  0  0  0  0  0  0
  -23.0626  -36.0061   19.2182 C   0  0  0  0  0  0  0  0  0  0  0  0
  -30.0540  -11.1407   19.3669 C   0  0  0  0  0  0  0  0  0  0  0  0
  -24.3024  -35.2071   18.8292 C   0  0  0  0  0  0  0  0  0  0  0  0
  -28.5255  -11.1204   19.2941 C   0  0  0  0  0  0  0  0  0  0  0  0
  -30.5580  -12.1056   20.4387 C   0  0  0  0  0  0  0  0  0  0  0  0
  -28.5022  -13.4524   20.2681 C   0  0  0  0  0  0  0  0  0  0  0  0
  -23.9195  -33.8294   18.2754 C   0  0  1  0  0  0  0  0  0  0  0  0
  -23.9148  -31.3387   21.1442 C   0  0  1  0  0  0  0  0  0  0  0  0
  -27.9488  -12.5433   19.1585 C   0  0  2  0  0  0  0  0  0  0  0  0
  -33.5735  -18.6833   21.8677 C   0  0  0  0  0  0  0  0  0  0  0  0
  -25.8867  -30.8418   28.6187 C   0  0  0  0  0  0  0  0  0  0  0  0
  -27.0668  -34.1585   23.0081 C   0  0  0  0  0  0  0  0  0  0  0  0
  -27.7126  -33.6423   25.3713 C   0  0  0  0  0  0  0  0  0  0  0  0
  -25.4947  -34.6746   24.8834 C   0  0  0  0  0  0  0  0  0  0  0  0
  -24.1202  -28.1790   26.5535 C   0  0  0  0  0  0  0  0  0  0  0  0
  -28.5510  -22.7901   19.7963 C   0  0  0  0  0  0  0  0  0  0  0  0
  -28.8025  -24.2675   20.0774 C   0  0  0  0  0  0  0  0  0  0  0  0
  -27.6720  -25.1402   19.5521 C   0  0  0  0  0  0  0  0  0  1  0  0
  -25.8909  -32.2495   24.2884 C   0  0  1  0  0  0  0  0  0  0  0  0
  -25.0894  -30.3031   27.4410 C   0  0  2  0  0  0  0  0  0  0  0  0
  -26.5393  -33.6604   24.3685 C   0  0  0  0  0  0  0  0  0  0  0  0
  -25.7616  -12.6813   20.2892 N   0  0  0  0  0  0  0  0  0  0  0  0
  -26.4318  -12.5352   19.1335 N   0  0  0  0  0  0  0  0  0  0  0  0
  -24.8877  -31.2947   22.2377 N   0  0  0  0  0  0  0  0  0  0  0  0
  -29.9733  -13.4341   20.2441 N   0  0  0  0  0  0  0  0  0  0  0  0
  -26.1349  -12.2357   16.8027 N   0  0  0  0  0  0  0  0  0  0  0  0
  -21.9058  -12.4233   18.3762 N   0  0  0  0  0  0  0  0  0  0  0  0
  -29.4165  -20.5644   19.9929 N   0  0  0  0  0  0  0  0  0  0  0  0
  -30.1509  -15.7532   19.8533 N   0  0  0  0  0  0  0  0  0  0  0  0
  -23.5689  -32.9306   19.3541 N   0  0  0  0  0  0  0  0  0  0  0  0
  -25.3582  -31.7639   25.5568 N   0  0  0  0  0  0  0  0  0  0  0  0
  -24.9078  -28.8358   27.6284 N   0  3  0  0  0  0  0  0  0  0  0  0
  -23.1798  -12.1684   16.4866 O   0  0  0  0  0  0  0  0  0  0  0  0
  -25.7179  -32.2180   19.8988 O   0  0  0  0  0  0  0  0  0  0  0  0
  -23.7667  -32.9222   23.4750 O   0  0  0  0  0  0  0  0  0  0  0  0
  -30.6901  -22.3575   20.8171 O   0  0  0  0  0  0  0  0  0  0  0  0
  -26.6403  -29.8338   25.6488 O   0  0  0  0  0  0  0  0  0  0  0  0
  -32.0488  -14.4354   20.0606 O   0  0  0  0  0  0  0  0  0  0  0  0
  -20.3983  -13.1033   23.6960 O   0  0  0  0  0  0  0  0  0  0  0  0
  -27.9605  -26.5036   19.8593 O   0  0  0  0  0  0  0  0  0  1  0  0
  -16.1614  -16.4178   22.4852 F   0  0  0  0  0  0  0  0  0  0  0  0
  -19.7950  -15.2758   25.2956 F   0  0  0  0  0  0  0  0  0  0  0  0
  1  2  1  0  0  0  0
  1  5  2  0  0  0  0
  2  6  2  0  0  0  0
  3  8  2  0  0  0  0
  3 18  1  0  0  0  0
  4  9  1  0  0  0  0
  4 18  2  0  0  0  0
  5 20  1  0  0  0  0
  6 22  1  0  0  0  0
  7 10  2  0  0  0  0
  7 21  1  0  0  0  0
  8 27  1  0  0  0  0
  9 27  2  0  0  0  0
 10 28  1  0  0  0  0
 11 12  2  0  0  0  0
 11 29  1  0  0  0  0
 12 30  1  0  0  0  0
 13 23  1  0  0  0  0
 13 28  2  0  0  0  0
 14 24  2  0  0  0  0
 14 25  1  0  0  0  0
 15 24  1  0  0  0  0
 15 26  2  0  0  0  0
 16 25  2  0  0  0  0
 16 26  1  0  0  0  0
 17 30  2  0  0  0  0
 17 31  1  0  0  0  0
 18 32  1  0  0  0  0
 19 32  1  0  0  0  0
 19 33  2  0  0  0  0
 19 34  1  0  0  0  0
 20 22  2  0  0  0  0
 20 40  1  0  0  0  0
 21 23  2  0  0  0  0
 21 41  1  0  0  0  0
 22 49  1  0  0  0  0
 23 42  1  0  0  0  0
 24 52  1  0  0  0  0
 25 70  1  0  0  0  0
 26 71  1  0  0  0  0
 27 81  1  0  0  0  0
 28 82  1  0  0  0  0
 29 31  2  0  0  0  0
 29 81  1  0  0  0  0
 30 83  1  0  0  0  0
 31 84  1  0  0  0  0
 32 64  2  0  0  0  0
 33 65  1  0  0  0  0
 33 68  1  0  0  0  0
 34 69  1  0  0  0  0
 34 75  2  0  0  0  0
 35 50  1  0  0  0  0
 35 72  1  0  0  0  0
 35 76  2  0  0  0  0
 36 61  1  0  0  0  0
 36 66  1  0  0  0  0
 36 77  2  0  0  0  0
 37 58  1  0  0  0  0
 37 70  1  0  0  0  0
 37 78  2  0  0  0  0
 38 62  1  0  0  0  0
 38 73  1  0  0  0  0
 38 79  2  0  0  0  0
 39 67  1  0  0  0  0
 39 71  1  0  0  0  0
 39 80  2  0  0  0  0
 40 43  1  0  0  0  0
 41 50  1  0  0  0  0
 42 66  1  0  0  0  0
 43 45  1  0  0  0  0
 44 46  1  0  0  0  0
 44 47  1  0  0  0  0
 45 49  1  0  0  0  0
 46 51  1  0  0  0  0
 47 67  1  0  0  0  0
 48 51  1  0  0  0  0
 48 67  1  0  0  0  0
 49 72  1  0  0  0  0
 50 66  1  0  0  0  0
 51 65  1  0  0  0  0
 53 62  1  0  0  0  0
 54 63  1  0  0  0  0
 55 63  1  0  0  0  0
 56 63  1  0  0  0  0
 57 74  1  0  0  0  0
 58 59  1  0  0  0  0
 59 60  1  0  0  0  0
 60 82  1  0  0  0  0
 61 63  1  0  0  0  0
 61 73  1  0  0  0  0
 62 74  1  0  0  0  0
 64 65  1  0  0  0  0
M  CHG  1  74   1
M  ISO  4  39 100  60 101  71 100  82 101
M  END
> <Batch ID>
0062

> <Smiles>
CNC(C)C(=O)NC(C(=O)N1Cc2cc([101O:1][101CH2:1]CCC(=O)Nc3cc(C)cc([100NH:0][100C:0](=O)N4CCCC(n5nc(-c6ccc(Oc7ccc(F)cc7F)cc6)c(C(N)=O)c5N)C4)c3)ccc2CC1C(=O)NC1CCCc2ccccc21)C(C)(C)C

> <Shape>
0.273

> <Color>
0.101

> <Negative vol penalty>
0.000

$$$$

  -OEChem-04042323103D

 89 98  0     1  0  0  0  0  0999 V2000
  -28.9374  -23.8955   18.7263 C   0  0  0  0  0  0  0  0  0  0  0  0
  -27.6624  -24.2604   19.1466 C   0  0  0  0  0  0  0  0  0  0  0  0
  -23.8000   -9.6511   22.1586 C   0  0  0  0  0  0  0  0  0  0  0  0
  -22.4546   -9.9300   20.1714 C   0  0  0  0  0  0  0  0  0  0  0  0
  -30.0586  -24.4385   19.3524 C   0  0  0  0  0  0  0  0  0  0  0  0
  -27.5078  -25.1678   20.1940 C   0  0  0  0  0  0  0  0  0  0  0  0
  -23.9912  -28.6791   19.2195 C   0  0  0  0  0  0  0  0  0  0  0  0
  -23.6118   -8.2706   22.0922 C   0  0  0  0  0  0  0  0  0  0  0  0
  -22.2664   -8.5495   20.1050 C   0  0  0  0  0  0  0  0  0  0  0  0
  -22.6569  -28.3002   19.3605 C   0  0  0  0  0  0  0  0  0  0  0  0
  -21.1903   -6.0468   22.8767 C   0  0  0  0  0  0  0  0  0  0  0  0
  -20.8725   -5.3792   24.0594 C   0  0  0  0  0  0  0  0  0  0  0  0
  -22.4730  -20.9761   18.0936 C   0  0  0  0  0  0  0  0  0  0  0  0
  -22.5895  -29.3645   21.5242 C   0  0  0  0  0  0  0  0  0  0  0  0
  -20.9424  -20.7977   20.4192 C   0  0  0  0  0  0  0  0  0  0  0  0
  -22.8678   -4.0352   23.8370 C   0  0  0  0  0  0  0  0  0  0  0  0
  -23.2213  -10.4808   21.1981 C   0  0  0  0  0  0  0  0  0  0  0  0
  -22.3155  -19.7461   18.7322 C   0  0  0  0  0  0  0  0  0  0  0  0
  -24.4489  -12.6540   20.6710 C   0  0  0  0  0  0  0  0  0  0  0  0
  -29.9177  -25.3604   20.4017 C   0  0  0  0  0  0  0  0  0  0  0  0
  -24.6390  -29.3953   20.2363 C   0  0  0  0  0  0  0  0  0  0  0  0
  -28.6282  -25.7227   20.8356 C   0  0  0  0  0  0  0  0  0  0  0  0
  -23.9313  -29.7536   21.3926 C   0  0  0  0  0  0  0  0  0  0  0  0
  -21.8652  -22.1170   18.6179 C   0  0  0  0  0  0  0  0  0  0  0  0
  -21.1000  -22.0278   19.7806 C   0  0  0  0  0  0  0  0  0  0  0  0
  -21.5502  -19.6568   19.8949 C   0  0  0  0  0  0  0  0  0  0  0  0
  -22.8450   -7.7198   21.0655 C   0  0  0  0  0  0  0  0  0  0  0  0
  -21.9567  -28.6404   20.5142 C   0  0  0  0  0  0  0  0  0  0  0  0
  -22.3468   -5.7085   22.1740 C   0  0  0  0  0  0  0  0  0  0  0  0
  -21.7112   -4.3735   24.5396 C   0  0  0  0  0  0  0  0  0  0  0  0
  -23.1856   -4.7027   22.6541 C   0  0  0  0  0  0  0  0  0  0  0  0
  -23.4149  -11.9070   21.2664 C   0  0  0  0  0  0  0  0  0  0  0  0
  -24.1852  -13.9530   21.0309 C   0  0  0  0  0  0  0  0  0  0  0  0
  -19.0024  -25.1725   20.2550 C   0  0  0  0  0  0  0  0  0  0  0  0
  -19.5532  -25.6850   21.3623 C   0  0  0  0  0  0  0  0  0  0  0  0
  -19.5211  -23.9345   19.6086 C   0  0  0  0  0  0  0  0  0  0  0  0
  -24.2783  -18.4611   18.0171 C   0  0  0  0  0  0  0  0  0  0  0  0
  -22.9666  -18.5759   18.1557 C   0  0  0  0  0  0  0  0  0  0  0  0
  -25.5494  -12.2132   19.8645 C   0  0  0  0  0  0  0  0  0  0  0  0
  -27.1361  -28.8474   22.1251 C   0  0  0  0  0  0  0  0  0  0  0  0
  -26.6199  -31.9152   23.0442 C   0  0  0  0  0  0  0  0  0  0  0  0
  -24.4369  -34.5210   23.3455 C   0  0  0  0  0  0  0  0  0  0  0  0
  -20.6407  -18.1899   21.7299 C   0  0  0  0  0  0  0  0  0  0  0  0
  -31.1591  -25.8844   21.0791 C   0  0  0  0  0  0  0  0  0  0  0  0
  -26.0708  -29.8197   20.0574 C   0  0  0  0  0  0  0  0  0  0  0  0
  -24.5750  -30.5394   22.5047 C   0  0  0  0  0  0  0  0  0  0  0  0
  -20.6791  -24.9909   22.0596 C   0  0  0  0  0  0  0  0  0  0  0  0
  -30.9095  -27.1250   21.9329 C   0  0  0  0  0  0  0  0  0  0  0  0
  -20.9021  -15.8384   24.3906 C   0  0  0  0  0  0  0  0  0  0  0  0
  -29.6749  -26.9315   22.8077 C   0  0  0  0  0  0  0  0  0  0  0  0
  -21.6642  -14.6674   23.7661 C   0  0  0  0  0  0  0  0  0  0  0  0
  -20.6871  -23.4972   21.7593 C   0  0  0  0  0  0  0  0  0  0  0  0
  -19.9396  -16.4841   23.3954 C   0  0  0  0  0  0  0  0  0  0  0  0
  -21.3064  -15.7166   21.4949 C   0  0  0  0  0  0  0  0  0  0  0  0
  -28.4196  -26.7229   21.9520 C   0  0  1  0  0  0  0  0  0  0  0  0
  -26.7800  -30.1016   21.3783 C   0  0  1  0  0  0  0  0  0  0  0  0
  -22.3355  -15.0752   22.4399 C   0  0  2  0  0  0  0  0  0  0  0  0
  -22.0513  -23.4217   17.9140 C   0  0  0  0  0  0  0  0  0  0  0  0
  -24.2959  -36.8876   24.1681 C   0  0  0  0  0  0  0  0  0  0  0  0
  -26.5374  -30.9071   25.9229 C   0  0  0  0  0  0  0  0  0  0  0  0
  -25.4734  -33.0765   26.5785 C   0  0  0  0  0  0  0  0  0  0  0  0
  -27.7706  -33.0596   25.6063 C   0  0  0  0  0  0  0  0  0  0  0  0
  -23.7460  -35.5381   20.6535 C   0  0  0  0  0  0  0  0  0  0  0  0
  -19.0876  -26.9800   21.9570 C   0  0  0  0  0  0  0  0  0  0  0  0
  -20.1860  -28.0343   21.9816 C   0  0  0  0  0  0  0  0  0  1  0  0
  -25.7881  -32.5862   24.1104 C   0  0  1  0  0  0  0  0  0  0  0  0
  -24.5606  -35.9871   22.9716 C   0  0  2  0  0  0  0  0  0  0  0  0
  -26.3806  -32.3909   25.5346 C   0  0  0  0  0  0  0  0  0  0  0  0
  -22.5583  -12.6681   21.9527 N   0  0  0  0  0  0  0  0  0  0  0  0
  -23.0535  -13.9069   21.7907 N   0  0  0  0  0  0  0  0  0  0  0  0
  -20.4645  -23.1965   20.3395 N   0  0  0  0  0  0  0  0  0  0  0  0
  -25.9786  -30.9257   22.2855 N   0  0  0  0  0  0  0  0  0  0  0  0
  -20.6465  -16.8478   22.1654 N   0  0  0  0  0  0  0  0  0  0  0  0
  -24.8132  -15.1188   20.7684 N   0  0  0  0  0  0  0  0  0  0  0  0
  -25.6709  -10.8440   19.5910 N   0  0  0  0  0  0  0  0  0  0  0  0
  -21.3733  -18.4216   20.5662 N   0  0  0  0  0  0  0  0  0  0  0  0
  -27.9549  -27.9861   21.4201 N   0  0  0  0  0  0  0  0  0  0  0  0
  -25.6536  -33.9813   23.7054 N   0  0  0  0  0  0  0  0  0  0  0  0
  -23.5854  -36.3321   21.8988 N   0  3  0  0  0  0  0  0  0  0  0  0
  -19.0620  -23.6468   18.5031 O   0  0  0  0  0  0  0  0  0  0  0  0
  -26.4090  -13.0079   19.4140 O   0  0  0  0  0  0  0  0  0  0  0  0
  -26.7014  -28.6746   23.2578 O   0  0  0  0  0  0  0  0  0  0  0  0
  -27.7932  -32.2613   22.8854 O   0  0  0  0  0  0  0  0  0  0  0  0
  -23.3672  -33.9161   23.3243 O   0  0  0  0  0  0  0  0  0  0  0  0
  -20.0533  -19.0737   22.3590 O   0  0  0  0  0  0  0  0  0  0  0  0
  -22.6614   -6.3727   21.0003 O   0  0  0  0  0  0  0  0  0  0  0  0
  -20.6545  -28.2712   20.6546 O   0  0  0  0  0  0  0  0  0  1  0  0
  -21.4067   -3.7335   25.6763 F   0  0  0  0  0  0  0  0  0  0  0  0
  -24.2986   -4.3742   21.9841 F   0  0  0  0  0  0  0  0  0  0  0  0
  1  2  1  0  0  0  0
  1  5  2  0  0  0  0
  2  6  2  0  0  0  0
  3  8  2  0  0  0  0
  3 17  1  0  0  0  0
  4  9  1  0  0  0  0
  4 17  2  0  0  0  0
  5 20  1  0  0  0  0
  6 22  1  0  0  0  0
  7 10  2  0  0  0  0
  7 21  1  0  0  0  0
  8 27  1  0  0  0  0
  9 27  2  0  0  0  0
 10 28  1  0  0  0  0
 11 12  2  0  0  0  0
 11 29  1  0  0  0  0
 12 30  1  0  0  0  0
 13 18  1  0  0  0  0
 13 24  2  0  0  0  0
 14 23  1  0  0  0  0
 14 28  2  0  0  0  0
 15 25  2  0  0  0  0
 15 26  1  0  0  0  0
 16 30  2  0  0  0  0
 16 31  1  0  0  0  0
 17 32  1  0  0  0  0
 18 26  2  0  0  0  0
 18 38  1  0  0  0  0
 19 32  1  0  0  0  0
 19 33  2  0  0  0  0
 19 39  1  0  0  0  0
 20 22  2  0  0  0  0
 20 44  1  0  0  0  0
 21 23  2  0  0  0  0
 21 45  1  0  0  0  0
 22 55  1  0  0  0  0
 23 46  1  0  0  0  0
 24 25  1  0  0  0  0
 24 58  1  0  0  0  0
 25 71  1  0  0  0  0
 26 76  1  0  0  0  0
 27 86  1  0  0  0  0
 28 87  1  0  0  0  0
 29 31  2  0  0  0  0
 29 86  1  0  0  0  0
 30 88  1  0  0  0  0
 31 89  1  0  0  0  0
 32 69  2  0  0  0  0
 33 70  1  0  0  0  0
 33 74  1  0  0  0  0
 34 35  2  0  0  0  0
 34 36  1  0  0  0  0
 35 47  1  0  0  0  0
 35 64  1  0  0  0  0
 36 71  1  0  0  0  0
 36 80  2  0  0  0  0
 37 38  2  0  0  0  0
 39 75  1  0  0  0  0
 39 81  2  0  0  0  0
 40 56  1  0  0  0  0
 40 77  1  0  0  0  0
 40 82  2  0  0  0  0
 41 66  1  0  0  0  0
 41 72  1  0  0  0  0
 41 83  2  0  0  0  0
 42 67  1  0  0  0  0
 42 78  1  0  0  0  0
 42 84  2  0  0  0  0
 43 73  1  0  0  0  0
 43 76  1  0  0  0  0
 43 85  2  0  0  0  0
 44 48  1  0  0  0  0
 45 56  1  0  0  0  0
 46 72  1  0  0  0  0
 47 52  1  0  0  0  0
 48 50  1  0  0  0  0
 49 51  1  0  0  0  0
 49 53  1  0  0  0  0
 50 55  1  0  0  0  0
 51 57  1  0  0  0  0
 52 71  1  0  0  0  0
 53 73  1  0  0  0  0
 54 57  1  0  0  0  0
 54 73  1  0  0  0  0
 55 77  1  0  0  0  0
 56 72  1  0  0  0  0
 57 70  1  0  0  0  0
 59 67  1  0  0  0  0
 60 68  1  0  0  0  0
 61 68  1  0  0  0  0
 62 68  1  0  0  0  0
 63 79  1  0  0  0  0
 64 65  1  0  0  0  0
 65 87  1  0  0  0  0
 66 68  1  0  0  0  0
 66 78  1  0  0  0  0
 67 79  1  0  0  0  0
 69 70  1  0  0  0  0
M  CHG  1  79   1
M  ISO  4  43 100  65 101  76 100  87 101
M  END
> <Batch ID>
0062

> <Smiles>
C=Cc1cc(C)c(N2CCC(=C[101CH2:1][101O:1]c3ccc4c(c3)CN(C(=O)C(NC(=O)C(C)NC)C(C)(C)C)C(C(=O)NC3CCCc5ccccc53)C4)CC2=O)cc1[100NH:0][100C:0](=O)N1CCCC(n2nc(-c3ccc(Oc4ccc(F)cc4F)cc3)c(C(N)=O)c2N)C1

> <Shape>
0.311

> <Color>
0.097

> <Negative vol penalty>
0.000

$$$$

  -OEChem-04042323103D

 86 94  0     1  0  0  0  0  0999 V2000
  -21.9721  -12.3196   14.0261 C   0  0  0  0  0  0  0  0  0  0  0  0
  -23.0159  -12.6979   14.8644 C   0  0  0  0  0  0  0  0  0  0  0  0
  -26.4915  -28.6550   19.0270 C   0  0  0  0  0  0  0  0  0  0  0  0
  -26.1519  -27.6535   21.1993 C   0  0  0  0  0  0  0  0  0  0  0  0
  -20.6517  -12.5413   14.4152 C   0  0  0  0  0  0  0  0  0  0  0  0
  -22.7398  -13.2992   16.0919 C   0  0  0  0  0  0  0  0  0  0  0  0
  -25.5345  -11.3937   19.8607 C   0  0  0  0  0  0  0  0  0  0  0  0
  -25.5291  -29.6206   19.3217 C   0  0  0  0  0  0  0  0  0  0  0  0
  -25.1895  -28.6192   21.4940 C   0  0  0  0  0  0  0  0  0  0  0  0
  -26.8567  -11.8260   19.9544 C   0  0  0  0  0  0  0  0  0  0  0  0
  -22.9017  -31.0358   22.9584 C   0  0  0  0  0  0  0  0  0  0  0  0
  -22.9501  -31.6382   24.2155 C   0  0  0  0  0  0  0  0  0  0  0  0
  -26.2228  -13.3671   21.6987 C   0  0  0  0  0  0  0  0  0  0  0  0
  -28.2204  -18.1461   20.6035 C   0  0  0  0  0  0  0  0  0  0  0  0
  -27.3572  -19.5646   22.3583 C   0  0  0  0  0  0  0  0  0  0  0  0
  -25.1731  -32.4553   23.7383 C   0  0  0  0  0  0  0  0  0  0  0  0
  -26.8029  -27.6713   19.9658 C   0  0  0  0  0  0  0  0  0  0  0  0
  -29.1799  -26.7469   19.9122 C   0  0  0  0  0  0  0  0  0  0  0  0
  -20.3591  -13.1368   15.6523 C   0  0  0  0  0  0  0  0  0  0  0  0
  -24.5429  -11.9536   20.6791 C   0  0  0  0  0  0  0  0  0  0  0  0
  -21.4143  -13.5303   16.4973 C   0  0  0  0  0  0  0  0  0  0  0  0
  -24.8893  -12.9384   21.6152 C   0  0  0  0  0  0  0  0  0  0  0  0
  -28.4427  -17.4792   22.9149 C   0  0  0  0  0  0  0  0  0  0  0  0
  -27.5708  -19.3140   21.0029 C   0  0  0  0  0  0  0  0  0  0  0  0
  -28.6563  -17.2286   21.5595 C   0  0  0  0  0  0  0  0  0  0  0  0
  -24.8781  -29.6028   20.5552 C   0  0  0  0  0  0  0  0  0  0  0  0
  -27.2005  -12.8149   20.8715 C   0  0  0  0  0  0  0  0  0  0  0  0
  -23.9890  -31.1430   22.0912 C   0  0  0  0  0  0  0  0  0  0  0  0
  -24.0858  -32.3480   24.6054 C   0  0  0  0  0  0  0  0  0  0  0  0
  -27.7931  -18.6471   23.3144 C   0  0  0  0  0  0  0  0  0  0  0  0
  -25.1247  -31.8528   22.4812 C   0  0  0  0  0  0  0  0  0  0  0  0
  -27.7965  -26.6732   19.6618 C   0  0  0  0  0  0  0  0  0  0  0  0
  -29.6778  -25.5563   19.4421 C   0  0  0  0  0  0  0  0  0  0  0  0
  -29.9462  -27.7976   20.5159 C   0  0  0  0  0  0  0  0  0  0  0  0
  -21.8774  -13.6064   20.1623 C   0  0  0  0  0  0  0  0  0  0  0  0
  -21.5038  -13.2588   23.3658 C   0  0  0  0  0  0  0  0  0  0  0  0
  -29.5986  -15.6588   19.8299 C   0  0  0  0  0  0  0  0  0  0  0  0
  -22.9506  -12.7261   26.4104 C   0  0  0  0  0  0  0  0  0  0  0  0
  -27.2603  -20.1500   18.6468 C   0  0  0  0  0  0  0  0  0  0  0  0
  -18.9173  -13.3992   16.0087 C   0  0  0  0  0  0  0  0  0  0  0  0
  -23.1262  -11.4573   20.5843 C   0  0  0  0  0  0  0  0  0  0  0  0
  -23.8659  -13.5570   22.5309 C   0  0  0  0  0  0  0  0  0  0  0  0
  -18.7012  -13.7008   17.4895 C   0  0  0  0  0  0  0  0  0  0  0  0
  -28.8197  -22.1714   16.1649 C   0  0  0  0  0  0  0  0  0  0  0  0
  -19.7298  -14.7128   17.9839 C   0  0  0  0  0  0  0  0  0  0  0  0
  -28.8657  -23.5606   16.8052 C   0  0  0  0  0  0  0  0  0  0  0  0
  -27.5401  -21.4208   16.5298 C   0  0  0  0  0  0  0  0  0  0  0  0
  -27.3072  -22.7214   18.6091 C   0  0  0  0  0  0  0  0  0  0  0  0
  -21.1547  -14.1627   17.8474 C   0  0  1  0  0  0  0  0  0  0  0  0
  -22.1049  -12.4619   21.1089 C   0  0  1  0  0  0  0  0  0  0  0  0
  -28.6074  -23.4904   18.3231 C   0  0  2  0  0  0  0  0  0  0  0  0
  -28.9014  -16.5126   23.9583 C   0  0  0  0  0  0  0  0  0  0  0  0
  -32.3058  -15.2792   18.5204 C   0  0  0  0  0  0  0  0  0  0  0  0
  -22.3930  -12.5318   28.8494 C   0  0  0  0  0  0  0  0  0  0  0  0
  -21.1806  -16.2883   23.5306 C   0  0  0  0  0  0  0  0  0  0  0  0
  -21.5806  -16.1269   25.9968 C   0  0  0  0  0  0  0  0  0  0  0  0
  -19.6071  -14.9910   24.9781 C   0  0  0  0  0  0  0  0  0  0  0  0
  -23.9678   -9.9499   26.5408 C   0  0  0  0  0  0  0  0  0  0  0  0
  -31.2378  -14.1930   18.5586 C   0  0  0  0  0  0  0  0  0  0  0  0
  -29.2797  -13.1828   19.7772 C   0  0  0  0  0  0  0  0  0  1  0  0
  -21.9198  -14.0494   24.5826 C   0  0  1  0  0  0  0  0  0  0  0  0
  -30.3262  -14.3050   19.7928 C   0  0  2  0  0  0  0  0  0  0  0  0
  -22.5948  -11.7800   27.5430 C   0  0  2  0  0  0  0  0  0  0  0  0
  -21.0912  -15.3538   24.7536 C   0  0  0  0  0  0  0  0  0  0  0  0
  -27.4386  -25.5265   19.0777 N   0  0  0  0  0  0  0  0  0  0  0  0
  -28.6044  -24.8688   18.9572 N   0  0  0  0  0  0  0  0  0  0  0  0
  -22.4930  -13.0428   22.3958 N   0  0  0  0  0  0  0  0  0  0  0  0
  -27.3636  -21.3909   17.9833 N   0  0  0  0  0  0  0  0  0  0  0  0
  -30.9249  -25.0409   19.4003 N   0  0  0  0  0  0  0  0  0  0  0  0
  -29.2766  -28.9525   20.9428 N   0  0  0  0  0  0  0  0  0  0  0  0
  -29.3131  -16.0494   21.1346 N   0  0  0  0  0  0  0  0  0  0  0  0
  -27.1279  -20.2459   20.0317 N   0  0  0  0  0  0  0  0  0  0  0  0
  -21.4372  -13.2220   18.9102 N   0  0  0  0  0  0  0  0  0  0  0  0
  -21.8320  -13.1330   25.7144 N   0  0  0  0  0  0  0  0  0  0  0  0
  -23.6796  -10.7773   27.7405 N   0  3  0  0  0  0  0  0  0  0  0  0
  -31.1903  -27.7217   20.6573 O   0  0  0  0  0  0  0  0  0  0  0  0
  -22.0845  -14.7535   20.5405 O   0  0  0  0  0  0  0  0  0  0  0  0
  -20.3459  -12.8418   23.2823 O   0  0  0  0  0  0  0  0  0  0  0  0
  -29.3061  -16.2589   18.7994 O   0  0  0  0  0  0  0  0  0  0  0  0
  -24.1049  -13.0726   26.1697 O   0  0  0  0  0  0  0  0  0  0  0  0
  -27.3147  -19.0803   18.0346 O   0  0  0  0  0  0  0  0  0  0  0  0
  -23.9391  -30.5450   20.8432 O   0  0  0  0  0  0  0  0  0  0  0  0
  -28.4901  -13.2392   20.9645 O   0  0  0  0  0  0  0  0  0  1  0  0
  -24.1316  -32.9278   25.8121 F   0  0  0  0  0  0  0  0  0  0  0  0
  -27.5843  -18.8982   24.6144 F   0  0  0  0  0  0  0  0  0  0  0  0
  -26.1719  -31.9603   21.6519 F   0  0  0  0  0  0  0  0  0  0  0  0
  1  2  1  0  0  0  0
  1  5  2  0  0  0  0
  2  6  2  0  0  0  0
  3  8  2  0  0  0  0
  3 17  1  0  0  0  0
  4  9  1  0  0  0  0
  4 17  2  0  0  0  0
  5 19  1  0  0  0  0
  6 21  1  0  0  0  0
  7 10  2  0  0  0  0
  7 20  1  0  0  0  0
  8 26  1  0  0  0  0
  9 26  2  0  0  0  0
 10 27  1  0  0  0  0
 11 12  2  0  0  0  0
 11 28  1  0  0  0  0
 12 29  1  0  0  0  0
 13 22  1  0  0  0  0
 13 27  2  0  0  0  0
 14 24  2  0  0  0  0
 14 25  1  0  0  0  0
 15 24  1  0  0  0  0
 15 30  2  0  0  0  0
 16 29  2  0  0  0  0
 16 31  1  0  0  0  0
 17 32  1  0  0  0  0
 18 32  1  0  0  0  0
 18 33  2  0  0  0  0
 18 34  1  0  0  0  0
 19 21  2  0  0  0  0
 19 40  1  0  0  0  0
 20 22  2  0  0  0  0
 20 41  1  0  0  0  0
 21 49  1  0  0  0  0
 22 42  1  0  0  0  0
 23 25  2  0  0  0  0
 23 30  1  0  0  0  0
 23 52  1  0  0  0  0
 24 72  1  0  0  0  0
 25 71  1  0  0  0  0
 26 82  1  0  0  0  0
 27 83  1  0  0  0  0
 28 31  2  0  0  0  0
 28 82  1  0  0  0  0
 29 84  1  0  0  0  0
 30 85  1  0  0  0  0
 31 86  1  0  0  0  0
 32 65  2  0  0  0  0
 33 66  1  0  0  0  0
 33 69  1  0  0  0  0
 34 70  1  0  0  0  0
 34 76  2  0  0  0  0
 35 50  1  0  0  0  0
 35 73  1  0  0  0  0
 35 77  2  0  0  0  0
 36 61  1  0  0  0  0
 36 67  1  0  0  0  0
 36 78  2  0  0  0  0
 37 62  1  0  0  0  0
 37 71  1  0  0  0  0
 37 79  2  0  0  0  0
 38 63  1  0  0  0  0
 38 74  1  0  0  0  0
 38 80  2  0  0  0  0
 39 68  1  0  0  0  0
 39 72  1  0  0  0  0
 39 81  2  0  0  0  0
 40 43  1  0  0  0  0
 41 50  1  0  0  0  0
 42 67  1  0  0  0  0
 43 45  1  0  0  0  0
 44 46  1  0  0  0  0
 44 47  1  0  0  0  0
 45 49  1  0  0  0  0
 46 51  1  0  0  0  0
 47 68  1  0  0  0  0
 48 51  1  0  0  0  0
 48 68  1  0  0  0  0
 49 73  1  0  0  0  0
 50 67  1  0  0  0  0
 51 66  1  0  0  0  0
 53 59  1  0  0  0  0
 54 63  1  0  0  0  0
 55 64  1  0  0  0  0
 56 64  1  0  0  0  0
 57 64  1  0  0  0  0
 58 75  1  0  0  0  0
 59 62  1  0  0  0  0
 60 62  1  0  0  0  0
 60 83  1  0  0  0  0
 61 64  1  0  0  0  0
 61 74  1  0  0  0  0
 63 75  1  0  0  0  0
 65 66  1  0  0  0  0
M  CHG  1  75   1
M  ISO  4  39 100  60 101  72 100  83 101
M  END
> <Batch ID>
0062

> <Smiles>
CCC(C(=O)Nc1cc([100NH:0][100C:0](=O)N2CCCC(n3nc(-c4ccc(Oc5ccc(F)cc5F)cc4)c(C(N)=O)c3N)C2)cc(F)c1C)[101CH2:1][101O:1]c1ccc2c(c1)CN(C(=O)C(NC(=O)C(C)NC)C(C)(C)C)C(C(=O)NC1CCCc3ccccc31)C2

> <Shape>
0.230

> <Color>
0.061

> <Negative vol penalty>
0.000

$$$$

  -OEChem-04042323103D

 88 96  0     1  0  0  0  0  0999 V2000
  -29.2822  -33.8390   24.9281 C   0  0  0  0  0  0  0  0  0  0  0  0
  -29.0641  -32.4830   24.7067 C   0  0  0  0  0  0  0  0  0  0  0  0
  -24.8043   -8.8391   21.7081 C   0  0  0  0  0  0  0  0  0  0  0  0
  -23.2591  -10.0002   20.2584 C   0  0  0  0  0  0  0  0  0  0  0  0
  -28.2042  -34.7230   24.9486 C   0  0  0  0  0  0  0  0  0  0  0  0
  -27.7677  -32.0100   24.5066 C   0  0  0  0  0  0  0  0  0  0  0  0
  -27.4663  -28.7384   20.6530 C   0  0  0  0  0  0  0  0  0  0  0  0
  -23.7353   -8.3684   22.4705 C   0  0  0  0  0  0  0  0  0  0  0  0
  -22.1901   -9.5294   21.0208 C   0  0  0  0  0  0  0  0  0  0  0  0
  -27.8979  -27.4340   20.8898 C   0  0  0  0  0  0  0  0  0  0  0  0
  -21.4048   -5.9282   22.2533 C   0  0  0  0  0  0  0  0  0  0  0  0
  -21.4130   -4.5823   22.6197 C   0  0  0  0  0  0  0  0  0  0  0  0
  -25.6073  -26.7349   21.1784 C   0  0  0  0  0  0  0  0  0  0  0  0
  -25.0241  -17.2900   17.1104 C   0  0  0  0  0  0  0  0  0  0  0  0
  -26.5378  -18.6875   18.3725 C   0  0  0  0  0  0  0  0  0  0  0  0
  -21.3987   -5.2168   24.9508 C   0  0  0  0  0  0  0  0  0  0  0  0
  -24.5662   -9.6551   20.6021 C   0  0  0  0  0  0  0  0  0  0  0  0
  -26.2543   -9.5214   18.6942 C   0  0  0  0  0  0  0  0  0  0  0  0
  -26.8949  -34.2620   24.7392 C   0  0  0  0  0  0  0  0  0  0  0  0
  -26.1003  -29.0535   20.6878 C   0  0  0  0  0  0  0  0  0  0  0  0
  -26.6710  -32.8884   24.5257 C   0  0  0  0  0  0  0  0  0  0  0  0
  -25.1607  -28.0435   20.9391 C   0  0  0  0  0  0  0  0  0  0  0  0
  -24.2602  -18.4109   16.7854 C   0  0  0  0  0  0  0  0  0  0  0  0
  -24.6351  -19.6701   17.2538 C   0  0  0  0  0  0  0  0  0  0  0  0
  -26.1629  -17.4283   17.9040 C   0  0  0  0  0  0  0  0  0  0  0  0
  -25.7739  -19.8084   18.0474 C   0  0  0  0  0  0  0  0  0  0  0  0
  -22.4282   -8.7135   22.1268 C   0  0  0  0  0  0  0  0  0  0  0  0
  -26.9686  -26.4326   21.1555 C   0  0  0  0  0  0  0  0  0  0  0  0
  -21.3937   -6.9184   23.2357 C   0  0  0  0  0  0  0  0  0  0  0  0
  -21.4099   -4.2266   23.9684 C   0  0  0  0  0  0  0  0  0  0  0  0
  -21.3906   -6.5627   24.5845 C   0  0  0  0  0  0  0  0  0  0  0  0
  -25.6701  -10.1422   19.8145 C   0  0  0  0  0  0  0  0  0  0  0  0
  -27.2568  -10.3784   18.3107 C   0  0  0  0  0  0  0  0  0  0  0  0
  -25.9206   -8.2811   18.0572 C   0  0  0  0  0  0  0  0  0  0  0  0
  -24.2840  -30.9658   22.4620 C   0  0  0  0  0  0  0  0  0  0  0  0
  -21.9790  -30.0846   20.3567 C   0  0  0  0  0  0  0  0  0  0  0  0
  -27.2738  -21.3718   19.3315 C   0  0  0  0  0  0  0  0  0  0  0  0
  -20.8364  -27.7888   18.1048 C   0  0  0  0  0  0  0  0  0  0  0  0
  -28.0962  -16.2528   19.0117 C   0  0  0  0  0  0  0  0  0  0  0  0
  -25.7567  -35.2485   24.8174 C   0  0  0  0  0  0  0  0  0  0  0  0
  -25.6492  -30.4600   20.4038 C   0  0  0  0  0  0  0  0  0  0  0  0
  -23.6815  -28.3257   20.9677 C   0  0  0  0  0  0  0  0  0  0  0  0
  -24.4525  -34.7219   24.2242 C   0  0  0  0  0  0  0  0  0  0  0  0
  -30.2722  -13.6477   20.0866 C   0  0  0  0  0  0  0  0  0  0  0  0
  -24.1742  -33.3061   24.7189 C   0  0  0  0  0  0  0  0  0  0  0  0
  -29.3938  -12.3956   20.0310 C   0  0  0  0  0  0  0  0  0  0  0  0
  -29.4838  -14.8737   20.5439 C   0  0  0  0  0  0  0  0  0  0  0  0
  -27.3778  -13.8893   19.7282 C   0  0  0  0  0  0  0  0  0  0  0  0
  -25.2819  -32.3407   24.2800 C   0  0  1  0  0  0  0  0  0  0  0  0
  -24.2680  -30.7708   20.9723 C   0  0  1  0  0  0  0  0  0  0  0  0
  -28.1126  -12.6420   19.2105 C   0  0  2  0  0  0  0  0  0  0  0  0
  -23.8118  -20.8697   16.9019 C   0  0  0  0  0  0  0  0  0  0  0  0
  -18.9039  -27.3254   16.5724 C   0  0  0  0  0  0  0  0  0  0  0  0
  -20.2769  -29.2683   22.7539 C   0  0  0  0  0  0  0  0  0  0  0  0
  -18.8167  -27.9716   21.1872 C   0  0  0  0  0  0  0  0  0  0  0  0
  -19.0241  -30.4449   20.9371 C   0  0  0  0  0  0  0  0  0  0  0  0
  -22.5783  -27.8104   15.7123 C   0  0  0  0  0  0  0  0  0  0  0  0
  -27.3335  -22.8638   19.6280 C   0  0  0  0  0  0  0  0  0  0  0  0
  -28.5255  -23.2421   20.5003 C   0  0  0  0  0  0  0  0  0  0  0  0
  -28.5906  -24.7429   20.7433 C   0  0  0  0  0  0  0  0  0  1  0  0
  -20.9680  -28.9658   20.2847 C   0  0  1  0  0  0  0  0  0  0  0  0
  -20.2873  -27.9445   16.6981 C   0  0  2  0  0  0  0  0  0  0  0  0
  -23.0455  -18.2354   15.9335 C   0  0  0  0  0  0  0  0  0  0  0  0
  -19.7994  -29.1574   21.2922 C   0  0  0  0  0  0  0  0  0  0  0  0
  -26.2530  -11.3038   20.1227 N   0  0  0  0  0  0  0  0  0  0  0  0
  -27.2140  -11.4197   19.1905 N   0  0  0  0  0  0  0  0  0  0  0  0
  -23.2906  -29.7177   20.6900 N   0  0  0  0  0  0  0  0  0  0  0  0
  -28.2864  -15.0466   19.7186 N   0  0  0  0  0  0  0  0  0  0  0  0
  -28.1620  -10.3352   17.3101 N   0  0  0  0  0  0  0  0  0  0  0  0
  -24.8629   -7.5247   18.5801 N   0  0  0  0  0  0  0  0  0  0  0  0
  -26.1715  -21.0763   18.5343 N   0  0  0  0  0  0  0  0  0  0  0  0
  -26.9385  -16.2897   18.2351 N   0  0  0  0  0  0  0  0  0  0  0  0
  -25.1176  -31.9825   22.8874 N   0  0  0  0  0  0  0  0  0  0  0  0
  -20.5474  -28.8848   18.8901 N   0  0  0  0  0  0  0  0  0  0  0  0
  -21.1896  -27.2829   15.7137 N   0  3  0  0  0  0  0  0  0  0  0  0
  -26.5526   -7.8481   17.0639 O   0  0  0  0  0  0  0  0  0  0  0  0
  -23.5903  -30.2481   23.1728 O   0  0  0  0  0  0  0  0  0  0  0  0
  -21.6199  -31.2404   20.1187 O   0  0  0  0  0  0  0  0  0  0  0  0
  -28.1115  -20.5877   19.7649 O   0  0  0  0  0  0  0  0  0  0  0  0
  -21.4562  -26.7929   18.4715 O   0  0  0  0  0  0  0  0  0  0  0  0
  -28.9148  -17.1741   19.0682 O   0  0  0  0  0  0  0  0  0  0  0  0
  -21.3848   -8.2541   22.8704 O   0  0  0  0  0  0  0  0  0  0  0  0
  -27.3872  -25.1588   21.3877 O   0  0  0  0  0  0  0  0  0  1  0  0
  -21.4161   -2.9342   24.3200 F   0  0  0  0  0  0  0  0  0  0  0  0
  -21.3787   -7.5095   25.5328 F   0  0  0  0  0  0  0  0  0  0  0  0
  -22.8232  -16.9410   15.5615 F   0  0  0  0  0  0  0  0  0  0  0  0
  -21.8915  -18.6365   16.5419 F   0  0  0  0  0  0  0  0  0  0  0  0
  -23.1153  -18.9457   14.7712 F   0  0  0  0  0  0  0  0  0  0  0  0
  1  2  1  0  0  0  0
  1  5  2  0  0  0  0
  2  6  2  0  0  0  0
  3  8  2  0  0  0  0
  3 17  1  0  0  0  0
  4  9  1  0  0  0  0
  4 17  2  0  0  0  0
  5 19  1  0  0  0  0
  6 21  1  0  0  0  0
  7 10  2  0  0  0  0
  7 20  1  0  0  0  0
  8 27  1  0  0  0  0
  9 27  2  0  0  0  0
 10 28  1  0  0  0  0
 11 12  2  0  0  0  0
 11 29  1  0  0  0  0
 12 30  1  0  0  0  0
 13 22  1  0  0  0  0
 13 28  2  0  0  0  0
 14 23  2  0  0  0  0
 14 25  1  0  0  0  0
 15 25  2  0  0  0  0
 15 26  1  0  0  0  0
 16 30  2  0  0  0  0
 16 31  1  0  0  0  0
 17 32  1  0  0  0  0
 18 32  1  0  0  0  0
 18 33  2  0  0  0  0
 18 34  1  0  0  0  0
 19 21  2  0  0  0  0
 19 40  1  0  0  0  0
 20 22  2  0  0  0  0
 20 41  1  0  0  0  0
 21 49  1  0  0  0  0
 22 42  1  0  0  0  0
 23 24  1  0  0  0  0
 23 63  1  0  0  0  0
 24 26  2  0  0  0  0
 24 52  1  0  0  0  0
 25 72  1  0  0  0  0
 26 71  1  0  0  0  0
 27 82  1  0  0  0  0
 28 83  1  0  0  0  0
 29 31  2  0  0  0  0
 29 82  1  0  0  0  0
 30 84  1  0  0  0  0
 31 85  1  0  0  0  0
 32 65  2  0  0  0  0
 33 66  1  0  0  0  0
 33 69  1  0  0  0  0
 34 70  1  0  0  0  0
 34 76  2  0  0  0  0
 35 50  1  0  0  0  0
 35 73  1  0  0  0  0
 35 77  2  0  0  0  0
 36 61  1  0  0  0  0
 36 67  1  0  0  0  0
 36 78  2  0  0  0  0
 37 58  1  0  0  0  0
 37 71  1  0  0  0  0
 37 79  2  0  0  0  0
 38 62  1  0  0  0  0
 38 74  1  0  0  0  0
 38 80  2  0  0  0  0
 39 68  1  0  0  0  0
 39 72  1  0  0  0  0
 39 81  2  0  0  0  0
 40 43  1  0  0  0  0
 41 50  1  0  0  0  0
 42 67  1  0  0  0  0
 43 45  1  0  0  0  0
 44 46  1  0  0  0  0
 44 47  1  0  0  0  0
 45 49  1  0  0  0  0
 46 51  1  0  0  0  0
 47 68  1  0  0  0  0
 48 51  1  0  0  0  0
 48 68  1  0  0  0  0
 49 73  1  0  0  0  0
 50 67  1  0  0  0  0
 51 66  1  0  0  0  0
 53 62  1  0  0  0  0
 54 64  1  0  0  0  0
 55 64  1  0  0  0  0
 56 64  1  0  0  0  0
 57 75  1  0  0  0  0
 58 59  1  0  0  0  0
 59 60  1  0  0  0  0
 60 83  1  0  0  0  0
 61 64  1  0  0  0  0
 61 74  1  0  0  0  0
 62 75  1  0  0  0  0
 63 86  1  0  0  0  0
 63 87  1  0  0  0  0
 63 88  1  0  0  0  0
 65 66  1  0  0  0  0
M  CHG  1  75   1
M  ISO  4  39 100  60 101  72 100  83 101
M  END
> <Batch ID>
0062

> <Smiles>
CNC(C)C(=O)NC(C(=O)N1Cc2cc([101O:1][101CH2:1]CCC(=O)Nc3cc([100NH:0][100C:0](=O)N4CCCC(n5nc(-c6ccc(Oc7ccc(F)cc7F)cc6)c(C(N)=O)c5N)C4)cc(C(F)(F)F)c3C)ccc2CC1C(=O)NC1CCCc2ccccc21)C(C)(C)C

> <Shape>
0.280

> <Color>
0.077

> <Negative vol penalty>
0.000

$$$$

  -OEChem-04042323103D

 85 93  0     1  0  0  0  0  0999 V2000
  -28.7563  -24.0915   17.3127 C   0  0  0  0  0  0  0  0  0  0  0  0
  -27.5609  -24.7248   17.6335 C   0  0  0  0  0  0  0  0  0  0  0  0
  -24.6409  -14.0535   20.1583 C   0  0  0  0  0  0  0  0  0  0  0  0
  -22.5794  -15.0980   20.8629 C   0  0  0  0  0  0  0  0  0  0  0  0
  -29.8874  -24.3076   18.0968 C   0  0  0  0  0  0  0  0  0  0  0  0
  -27.4993  -25.5837   18.7314 C   0  0  0  0  0  0  0  0  0  0  0  0
  -23.3251  -28.1100   19.3614 C   0  0  0  0  0  0  0  0  0  0  0  0
  -23.4747  -24.8771   24.1809 C   0  0  0  0  0  0  0  0  0  0  0  0
  -24.2111  -24.1150   23.2740 C   0  0  0  0  0  0  0  0  0  0  0  0
  -24.3149  -12.9140   20.8937 C   0  0  0  0  0  0  0  0  0  0  0  0
  -22.2534  -13.9585   21.5983 C   0  0  0  0  0  0  0  0  0  0  0  0
  -22.1397  -27.5128   19.7880 C   0  0  0  0  0  0  0  0  0  0  0  0
  -22.3051  -10.2169   20.5482 C   0  0  0  0  0  0  0  0  0  0  0  0
  -22.4896   -8.9765   19.9375 C   0  0  0  0  0  0  0  0  0  0  0  0
  -22.4785  -28.4298   21.9933 C   0  0  0  0  0  0  0  0  0  0  0  0
  -22.1778  -23.0536   22.5149 C   0  0  0  0  0  0  0  0  0  0  0  0
  -24.0387   -8.3481   21.6818 C   0  0  0  0  0  0  0  0  0  0  0  0
  -23.7732  -15.1456   20.1429 C   0  0  0  0  0  0  0  0  0  0  0  0
  -23.7853  -16.5899   18.0403 C   0  0  0  0  0  0  0  0  0  0  0  0
  -29.8356  -25.1600   19.2120 C   0  0  0  0  0  0  0  0  0  0  0  0
  -24.1029  -28.8638   20.2519 C   0  0  0  0  0  0  0  0  0  0  0  0
  -28.6363  -25.8334   19.5210 C   0  0  0  0  0  0  0  0  0  0  0  0
  -23.6720  -29.0377   21.5749 C   0  0  0  0  0  0  0  0  0  0  0  0
  -22.0899  -24.7274   24.2548 C   0  0  0  0  0  0  0  0  0  0  0  0
  -23.5627  -23.2032   22.4410 C   0  0  0  0  0  0  0  0  0  0  0  0
  -23.1211  -12.8664   21.6137 C   0  0  0  0  0  0  0  0  0  0  0  0
  -21.7177  -27.6702   21.1049 C   0  0  0  0  0  0  0  0  0  0  0  0
  -22.9875  -10.5230   21.7257 C   0  0  0  0  0  0  0  0  0  0  0  0
  -23.3564   -8.0421   20.5043 C   0  0  0  0  0  0  0  0  0  0  0  0
  -23.8542   -9.5886   22.2925 C   0  0  0  0  0  0  0  0  0  0  0  0
  -21.4414  -23.8157   23.4218 C   0  0  0  0  0  0  0  0  0  0  0  0
  -24.1096  -16.3232   19.3839 C   0  0  0  0  0  0  0  0  0  0  0  0
  -24.3277  -17.8278   17.7953 C   0  0  0  0  0  0  0  0  0  0  0  0
  -23.0585  -15.7904   17.0978 C   0  0  0  0  0  0  0  0  0  0  0  0
  -27.0527  -28.6229   21.4114 C   0  0  0  0  0  0  0  0  0  0  0  0
  -26.3575  -31.5105   22.7156 C   0  0  0  0  0  0  0  0  0  0  0  0
  -23.9763  -33.7076   23.7878 C   0  0  0  0  0  0  0  0  0  0  0  0
  -25.6912  -22.4570   21.3189 C   0  0  0  0  0  0  0  0  0  0  0  0
  -31.0919  -25.3641   20.0216 C   0  0  0  0  0  0  0  0  0  0  0  0
  -25.3654  -29.5238   19.7691 C   0  0  0  0  0  0  0  0  0  0  0  0
  -24.4604  -29.8541   22.5650 C   0  0  0  0  0  0  0  0  0  0  0  0
  -30.8186  -25.9338   21.4098 C   0  0  0  0  0  0  0  0  0  0  0  0
  -27.9148  -20.6842   19.1766 C   0  0  0  0  0  0  0  0  0  0  0  0
  -29.9034  -27.1444   21.3038 C   0  0  0  0  0  0  0  0  0  0  0  0
  -27.1593  -19.3916   18.8594 C   0  0  0  0  0  0  0  0  0  0  0  0
  -27.6781  -21.1412   20.6149 C   0  0  0  0  0  0  0  0  0  0  0  0
  -25.5117  -19.9704   20.6863 C   0  0  0  0  0  0  0  0  0  0  0  0
  -28.5378  -26.7481   20.7285 C   0  0  1  0  0  0  0  0  0  0  0  0
  -26.3419  -29.8427   20.8970 C   0  0  1  0  0  0  0  0  0  0  0  0
  -25.6673  -19.5058   19.2291 C   0  0  2  0  0  0  0  0  0  0  0  0
  -21.3309  -25.5592   25.2364 C   0  0  0  0  0  0  0  0  0  0  0  0
  -23.7150  -35.9705   24.8406 C   0  0  0  0  0  0  0  0  0  0  0  0
  -17.7564  -26.3584   21.3734 C   0  0  0  0  0  0  0  0  0  0  0  0
  -27.1607  -30.3433   25.4180 C   0  0  0  0  0  0  0  0  0  0  0  0
  -26.0024  -32.2718   26.5168 C   0  0  0  0  0  0  0  0  0  0  0  0
  -27.9515  -32.6814   25.0149 C   0  0  0  0  0  0  0  0  0  0  0  0
  -22.4804  -34.7480   21.4558 C   0  0  0  0  0  0  0  0  0  0  0  0
  -20.1770  -25.8721   20.8831 C   0  0  0  0  0  0  0  0  0  1  0  0
  -25.7401  -31.9775   24.0117 C   0  0  1  0  0  0  0  0  0  0  0  0
  -23.7896  -35.1929   23.5358 C   0  0  2  0  0  0  0  0  0  0  0  0
  -18.8906  -25.3533   21.5175 C   0  0  1  0  0  0  0  0  0  0  0  0
  -26.6996  -31.8014   25.2224 C   0  0  0  0  0  0  0  0  0  0  0  0
  -24.8045  -17.3120   19.9527 N   0  0  0  0  0  0  0  0  0  0  0  0
  -24.9212  -18.2120   18.9616 N   0  0  0  0  0  0  0  0  0  0  0  0
  -25.6910  -30.4742   22.0466 N   0  0  0  0  0  0  0  0  0  0  0  0
  -26.2428  -21.2307   20.8916 N   0  0  0  0  0  0  0  0  0  0  0  0
  -24.3503  -18.6140   16.6982 N   0  0  0  0  0  0  0  0  0  0  0  0
  -22.5706  -14.5444   17.5147 N   0  0  0  0  0  0  0  0  0  0  0  0
  -24.3115  -22.4300   21.5195 N   0  0  0  0  0  0  0  0  0  0  0  0
  -27.7775  -27.9463   20.4490 N   0  0  0  0  0  0  0  0  0  0  0  0
  -25.3087  -33.3528   23.7861 N   0  0  0  0  0  0  0  0  0  0  0  0
  -19.1287  -25.1152   22.9663 N   0  0  0  0  0  0  0  0  0  0  0  0
  -22.5330  -35.4347   22.7721 N   0  3  0  0  0  0  0  0  0  0  0  0
  -22.8622  -16.1624   15.9161 O   0  0  0  0  0  0  0  0  0  0  0  0
  -26.9523  -28.3191   22.5944 O   0  0  0  0  0  0  0  0  0  0  0  0
  -27.3891  -32.0503   22.3082 O   0  0  0  0  0  0  0  0  0  0  0  0
  -23.0345  -32.9396   23.9718 O   0  0  0  0  0  0  0  0  0  0  0  0
  -26.3871  -23.4648   21.4678 O   0  0  0  0  0  0  0  0  0  0  0  0
  -19.3238  -22.5887   22.5162 O   0  0  0  0  0  0  0  0  0  0  0  0
  -19.3352  -23.4331   24.8850 O   0  0  0  0  0  0  0  0  0  0  0  0
  -22.8026  -11.7546   22.3312 O   0  0  0  0  0  0  0  0  0  0  0  0
  -20.5614  -27.0878   21.5240 O   0  0  0  0  0  0  0  0  0  1  0  0
  -23.5323   -6.8504   19.9186 F   0  0  0  0  0  0  0  0  0  0  0  0
  -24.5116   -9.8765   23.4242 F   0  0  0  0  0  0  0  0  0  0  0  0
  -19.6880  -23.6017   23.4883 S   0  0  0  0  0  0  0  0  0  0  0  0
  1  2  1  0  0  0  0
  1  5  2  0  0  0  0
  2  6  2  0  0  0  0
  3 10  2  0  0  0  0
  3 18  1  0  0  0  0
  4 11  1  0  0  0  0
  4 18  2  0  0  0  0
  5 20  1  0  0  0  0
  6 22  1  0  0  0  0
  7 12  2  0  0  0  0
  7 21  1  0  0  0  0
  8  9  2  0  0  0  0
  8 24  1  0  0  0  0
  9 25  1  0  0  0  0
 10 26  1  0  0  0  0
 11 26  2  0  0  0  0
 12 27  1  0  0  0  0
 13 14  2  0  0  0  0
 13 28  1  0  0  0  0
 14 29  1  0  0  0  0
 15 23  1  0  0  0  0
 15 27  2  0  0  0  0
 16 25  2  0  0  0  0
 16 31  1  0  0  0  0
 17 29  2  0  0  0  0
 17 30  1  0  0  0  0
 18 32  1  0  0  0  0
 19 32  1  0  0  0  0
 19 33  2  0  0  0  0
 19 34  1  0  0  0  0
 20 22  2  0  0  0  0
 20 39  1  0  0  0  0
 21 23  2  0  0  0  0
 21 40  1  0  0  0  0
 22 48  1  0  0  0  0
 23 41  1  0  0  0  0
 24 31  2  0  0  0  0
 24 51  1  0  0  0  0
 25 69  1  0  0  0  0
 26 81  1  0  0  0  0
 27 82  1  0  0  0  0
 28 30  2  0  0  0  0
 28 81  1  0  0  0  0
 29 83  1  0  0  0  0
 30 84  1  0  0  0  0
 31 85  1  0  0  0  0
 32 63  2  0  0  0  0
 33 64  1  0  0  0  0
 33 67  1  0  0  0  0
 34 68  1  0  0  0  0
 34 74  2  0  0  0  0
 35 49  1  0  0  0  0
 35 70  1  0  0  0  0
 35 75  2  0  0  0  0
 36 59  1  0  0  0  0
 36 65  1  0  0  0  0
 36 76  2  0  0  0  0
 37 60  1  0  0  0  0
 37 71  1  0  0  0  0
 37 77  2  0  0  0  0
 38 66  1  0  0  0  0
 38 69  1  0  0  0  0
 38 78  2  0  0  0  0
 39 42  1  0  0  0  0
 40 49  1  0  0  0  0
 41 65  1  0  0  0  0
 42 44  1  0  0  0  0
 43 45  1  0  0  0  0
 43 46  1  0  0  0  0
 44 48  1  0  0  0  0
 45 50  1  0  0  0  0
 46 66  1  0  0  0  0
 47 50  1  0  0  0  0
 47 66  1  0  0  0  0
 48 70  1  0  0  0  0
 49 65  1  0  0  0  0
 50 64  1  0  0  0  0
 52 60  1  0  0  0  0
 53 61  1  0  0  0  0
 54 62  1  0  0  0  0
 55 62  1  0  0  0  0
 56 62  1  0  0  0  0
 57 73  1  0  0  0  0
 58 61  1  0  0  0  0
 58 82  1  0  0  0  0
 59 62  1  0  0  0  0
 59 71  1  0  0  0  0
 60 73  1  0  0  0  0
 61 72  1  0  0  0  0
 63 64  1  0  0  0  0
 72 85  1  0  0  0  0
 79 85  2  0  0  0  0
 80 85  2  0  0  0  0
M  CHG  1  73   1
M  ISO  4  38 100  58 101  69 100  82 101
M  END
> <Batch ID>
0062

> <Smiles>
CNC(C)C(=O)NC(C(=O)N1Cc2cc([101O:1][101CH2:1]C(C)NS(=O)(=O)c3cc([100NH:0][100C:0](=O)N4CCCC(n5nc(-c6ccc(Oc7ccc(F)cc7F)cc6)c(C(N)=O)c5N)C4)ccc3C)ccc2CC1C(=O)NC1CCCc2ccccc21)C(C)(C)C

> <Shape>
0.276

> <Color>
0.065

> <Negative vol penalty>
0.000

$$$$

  -OEChem-04042323103D

 86 95  0     1  0  0  0  0  0999 V2000
  -29.1962  -33.4745   26.7859 C   0  0  0  0  0  0  0  0  0  0  0  0
  -28.6818  -32.2115   26.5111 C   0  0  0  0  0  0  0  0  0  0  0  0
  -31.4377  -19.9425   20.6479 C   0  0  0  0  0  0  0  0  0  0  0  0
  -23.8053   -9.8171   21.7887 C   0  0  0  0  0  0  0  0  0  0  0  0
  -24.4403  -11.0758   23.7507 C   0  0  0  0  0  0  0  0  0  0  0  0
  -28.4601  -34.6123   26.4582 C   0  0  0  0  0  0  0  0  0  0  0  0
  -27.4302  -32.0856   25.9092 C   0  0  0  0  0  0  0  0  0  0  0  0
  -27.4068  -28.6681   22.1722 C   0  0  0  0  0  0  0  0  0  0  0  0
  -30.4588  -20.8921   20.9404 C   0  0  0  0  0  0  0  0  0  0  0  0
  -31.0679  -18.6395   20.3146 C   0  0  0  0  0  0  0  0  0  0  0  0
  -23.3070   -8.7998   22.6026 C   0  0  0  0  0  0  0  0  0  0  0  0
  -23.9419  -10.0586   24.5647 C   0  0  0  0  0  0  0  0  0  0  0  0
  -27.3577  -27.3239   22.5390 C   0  0  0  0  0  0  0  0  0  0  0  0
  -20.5253   -8.2109   24.4324 C   0  0  0  0  0  0  0  0  0  0  0  0
  -19.2805   -7.6719   24.1076 C   0  0  0  0  0  0  0  0  0  0  0  0
  -24.9890  -27.2923   22.0835 C   0  0  0  0  0  0  0  0  0  0  0  0
  -20.2928   -5.4945   23.8412 C   0  0  0  0  0  0  0  0  0  0  0  0
  -24.3720  -10.9551   22.3628 C   0  0  0  0  0  0  0  0  0  0  0  0
  -24.1859  -13.1239   21.0326 C   0  0  0  0  0  0  0  0  0  0  0  0
  -27.2031  -34.5004   25.8432 C   0  0  0  0  0  0  0  0  0  0  0  0
  -26.2433  -29.3385   21.7681 C   0  0  0  0  0  0  0  0  0  0  0  0
  -26.6760  -33.2229   25.5742 C   0  0  0  0  0  0  0  0  0  0  0  0
  -25.0264  -28.6443   21.7096 C   0  0  0  0  0  0  0  0  0  0  0  0
  -28.7402  -19.2357   20.5664 C   0  0  0  0  0  0  0  0  0  0  0  0
  -29.1100  -20.5388   20.8997 C   0  0  0  0  0  0  0  0  0  0  0  0
  -29.7191  -18.2861   20.2738 C   0  0  0  0  0  0  0  0  0  0  0  0
  -23.3753   -8.9206   23.9906 C   0  0  0  0  0  0  0  0  0  0  0  0
  -26.1481  -26.6365   22.4974 C   0  0  0  0  0  0  0  0  0  0  0  0
  -21.6539   -7.3917   24.4616 C   0  0  0  0  0  0  0  0  0  0  0  0
  -19.1642   -6.3137   23.8120 C   0  0  0  0  0  0  0  0  0  0  0  0
  -21.5377   -6.0335   24.1660 C   0  0  0  0  0  0  0  0  0  0  0  0
  -24.8874  -12.0060   21.5225 C   0  0  0  0  0  0  0  0  0  0  0  0
  -25.1137  -13.8135   20.2909 C   0  0  0  0  0  0  0  0  0  0  0  0
  -27.1531  -21.9435   20.3748 C   0  0  0  0  0  0  0  0  0  0  0  0
  -26.3780  -22.8552   20.9734 C   0  0  0  0  0  0  0  0  0  0  0  0
  -25.2255  -23.8658   19.1170 C   0  0  0  0  0  0  0  0  0  0  0  0
  -25.2254  -23.4854   20.4126 C   0  0  0  0  0  0  0  0  0  0  0  0
  -22.8179  -13.5049   21.2303 C   0  0  0  0  0  0  0  0  0  0  0  0
  -24.5915  -31.8238   22.8630 C   0  0  0  0  0  0  0  0  0  0  0  0
  -22.8891  -31.3976   20.1349 C   0  0  0  0  0  0  0  0  0  0  0  0
  -21.8880  -29.2906   17.6439 C   0  0  0  0  0  0  0  0  0  0  0  0
  -30.2285  -15.9081   19.6168 C   0  0  0  0  0  0  0  0  0  0  0  0
  -26.4236  -35.7580   25.5506 C   0  0  0  0  0  0  0  0  0  0  0  0
  -26.3180  -30.7815   21.3501 C   0  0  0  0  0  0  0  0  0  0  0  0
  -23.7527  -29.3129   21.2635 C   0  0  0  0  0  0  0  0  0  0  0  0
  -25.2698  -35.5460   24.5738 C   0  0  0  0  0  0  0  0  0  0  0  0
  -29.7516  -12.4857   18.7583 C   0  0  0  0  0  0  0  0  0  0  0  0
  -24.4651  -34.3086   24.9586 C   0  0  0  0  0  0  0  0  0  0  0  0
  -28.3859  -12.1478   19.3607 C   0  0  0  0  0  0  0  0  0  0  0  0
  -30.5425  -13.4432   19.6479 C   0  0  0  0  0  0  0  0  0  0  0  0
  -28.0841  -22.1439   22.5053 C   0  0  0  0  0  0  0  0  0  0  0  0
  -28.4648  -14.3327   20.6282 C   0  0  0  0  0  0  0  0  0  0  0  0
  -25.3329  -33.0457   24.8996 C   0  0  1  0  0  0  0  0  0  0  0  0
  -26.8661  -23.1069   22.3809 C   0  0  1  0  0  0  0  0  0  0  0  0
  -24.9766  -31.5017   21.4468 C   0  0  1  0  0  0  0  0  0  0  0  0
  -27.6048  -13.4222   19.7365 C   0  0  2  0  0  0  0  0  0  0  0  0
  -27.2922  -18.8569   20.5219 C   0  0  0  0  0  0  0  0  0  0  0  0
  -20.4676  -29.2192   15.5763 C   0  0  0  0  0  0  0  0  0  0  0  0
  -20.3786  -31.2936   21.8659 C   0  0  0  0  0  0  0  0  0  0  0  0
  -19.1623  -30.2936   19.9195 C   0  0  0  0  0  0  0  0  0  0  0  0
  -20.1273  -32.5869   19.7402 C   0  0  0  0  0  0  0  0  0  0  0  0
  -24.2083  -28.6221   15.9327 C   0  0  0  0  0  0  0  0  0  0  0  0
  -27.2705  -24.5441   22.6305 C   0  0  0  0  0  0  0  0  0  1  0  0
  -21.6752  -30.5880   19.7477 C   0  0  1  0  0  0  0  0  0  0  0  0
  -21.8622  -29.4551   16.1350 C   0  0  2  0  0  0  0  0  0  0  0  0
  -20.3593  -31.1782   20.3286 C   0  0  0  0  0  0  0  0  0  0  0  0
  -26.1625  -11.9828   21.1254 N   0  0  0  0  0  0  0  0  0  0  0  0
  -26.2695  -13.0946   20.3780 N   0  0  0  0  0  0  0  0  0  0  0  0
  -28.1623  -21.4876   21.1894 N   0  0  0  0  0  0  0  0  0  0  0  0
  -23.8760  -30.7264   20.8708 N   0  0  0  0  0  0  0  0  0  0  0  0
  -29.7413  -14.6290   19.9592 N   0  0  0  0  0  0  0  0  0  0  0  0
  -25.0455  -14.9586   19.5792 N   0  0  0  0  0  0  0  0  0  0  0  0
  -22.0029  -12.6830   22.0206 N   0  0  0  0  0  0  0  0  0  0  0  0
  -29.3657  -16.9572   19.9321 N   0  0  0  0  0  0  0  0  0  0  0  0
  -25.5073  -32.6159   23.5287 N   0  0  0  0  0  0  0  0  0  0  0  0
  -21.6957  -30.4923   18.2921 N   0  0  0  0  0  0  0  0  0  0  0  0
  -22.7959  -28.4874   15.4925 N   0  3  0  0  0  0  0  0  0  0  0  0
  -22.3283  -14.5349   20.7079 O   0  0  0  0  0  0  0  0  0  0  0  0
  -23.5406  -31.3872   23.3175 O   0  0  0  0  0  0  0  0  0  0  0  0
  -22.9624  -32.5799   19.7907 O   0  0  0  0  0  0  0  0  0  0  0  0
  -22.0576  -28.2040   18.1927 O   0  0  0  0  0  0  0  0  0  0  0  0
  -31.3182  -16.0594   19.0583 O   0  0  0  0  0  0  0  0  0  0  0  0
  -22.8889   -7.9282   24.7851 O   0  0  0  0  0  0  0  0  0  0  0  0
  -26.0973  -25.3246   22.8555 O   0  0  0  0  0  0  0  0  0  1  0  0
  -17.9685   -5.7959   23.5016 F   0  0  0  0  0  0  0  0  0  0  0  0
  -22.6181   -5.2413   24.1936 F   0  0  0  0  0  0  0  0  0  0  0  0
  1  2  1  0  0  0  0
  1  6  2  0  0  0  0
  2  7  2  0  0  0  0
  3  9  2  0  0  0  0
  3 10  1  0  0  0  0
  4 11  2  0  0  0  0
  4 18  1  0  0  0  0
  5 12  1  0  0  0  0
  5 18  2  0  0  0  0
  6 20  1  0  0  0  0
  7 22  1  0  0  0  0
  8 13  2  0  0  0  0
  8 21  1  0  0  0  0
  9 25  1  0  0  0  0
 10 26  2  0  0  0  0
 11 27  1  0  0  0  0
 12 27  2  0  0  0  0
 13 28  1  0  0  0  0
 14 15  2  0  0  0  0
 14 29  1  0  0  0  0
 15 30  1  0  0  0  0
 16 23  1  0  0  0  0
 16 28  2  0  0  0  0
 17 30  2  0  0  0  0
 17 31  1  0  0  0  0
 18 32  1  0  0  0  0
 19 32  1  0  0  0  0
 19 33  2  0  0  0  0
 19 38  1  0  0  0  0
 20 22  2  0  0  0  0
 20 43  1  0  0  0  0
 21 23  2  0  0  0  0
 21 44  1  0  0  0  0
 22 53  1  0  0  0  0
 23 45  1  0  0  0  0
 24 25  2  0  0  0  0
 24 26  1  0  0  0  0
 24 57  1  0  0  0  0
 25 69  1  0  0  0  0
 26 74  1  0  0  0  0
 27 83  1  0  0  0  0
 28 84  1  0  0  0  0
 29 31  2  0  0  0  0
 29 83  1  0  0  0  0
 30 85  1  0  0  0  0
 31 86  1  0  0  0  0
 32 67  2  0  0  0  0
 33 68  1  0  0  0  0
 33 72  1  0  0  0  0
 34 35  2  0  0  0  0
 34 69  1  0  0  0  0
 35 37  1  0  0  0  0
 35 54  1  0  0  0  0
 36 37  2  0  0  0  0
 38 73  1  0  0  0  0
 38 78  2  0  0  0  0
 39 55  1  0  0  0  0
 39 75  1  0  0  0  0
 39 79  2  0  0  0  0
 40 64  1  0  0  0  0
 40 70  1  0  0  0  0
 40 80  2  0  0  0  0
 41 65  1  0  0  0  0
 41 76  1  0  0  0  0
 41 81  2  0  0  0  0
 42 71  1  0  0  0  0
 42 74  1  0  0  0  0
 42 82  2  0  0  0  0
 43 46  1  0  0  0  0
 44 55  1  0  0  0  0
 45 70  1  0  0  0  0
 46 48  1  0  0  0  0
 47 49  1  0  0  0  0
 47 50  1  0  0  0  0
 48 53  1  0  0  0  0
 49 56  1  0  0  0  0
 50 71  1  0  0  0  0
 51 54  1  0  0  0  0
 51 69  1  0  0  0  0
 52 56  1  0  0  0  0
 52 71  1  0  0  0  0
 53 75  1  0  0  0  0
 54 63  1  0  0  0  0
 55 70  1  0  0  0  0
 56 68  1  0  0  0  0
 58 65  1  0  0  0  0
 59 66  1  0  0  0  0
 60 66  1  0  0  0  0
 61 66  1  0  0  0  0
 62 77  1  0  0  0  0
 63 84  1  0  0  0  0
 64 66  1  0  0  0  0
 64 76  1  0  0  0  0
 65 77  1  0  0  0  0
 67 68  1  0  0  0  0
M  CHG  1  77   1
M  ISO  4  42 100  63 101  74 100  84 101
M  END
> <Batch ID>
0062

> <Smiles>
C=CC1=CN(c2cccc([100NH:0][100C:0](=O)N3CCCC(n4nc(-c5ccc(Oc6ccc(F)cc6F)cc5)c(C(N)=O)c4N)C3)c2C)CC1[101CH2:1][101O:1]c1ccc2c(c1)CN(C(=O)C(NC(=O)C(C)NC)C(C)(C)C)C(C(=O)NC1CCCc3ccccc31)C2

> <Shape>
0.282

> <Color>
0.131

> <Negative vol penalty>
0.000

$$$$

  -OEChem-04042323103D

 85 93  0     1  0  0  0  0  0999 V2000
  -26.2763  -38.5607   21.8769 C   0  0  0  0  0  0  0  0  0  0  0  0
  -26.7353  -37.2490   21.9401 C   0  0  0  0  0  0  0  0  0  0  0  0
  -31.2051  -18.8937   18.6487 C   0  0  0  0  0  0  0  0  0  0  0  0
  -23.1274   -9.8494   21.1302 C   0  0  0  0  0  0  0  0  0  0  0  0
  -23.9188  -10.5979   23.2867 C   0  0  0  0  0  0  0  0  0  0  0  0
  -24.9952  -38.8723   22.3304 C   0  0  0  0  0  0  0  0  0  0  0  0
  -25.9139  -36.2482   22.4578 C   0  0  0  0  0  0  0  0  0  0  0  0
  -25.6340  -30.4072   20.6384 C   0  0  0  0  0  0  0  0  0  0  0  0
  -30.4808  -19.9269   19.2432 C   0  0  0  0  0  0  0  0  0  0  0  0
  -31.0494  -17.5831   19.1003 C   0  0  0  0  0  0  0  0  0  0  0  0
  -22.4116   -8.8244   21.7487 C   0  0  0  0  0  0  0  0  0  0  0  0
  -23.2029   -9.5729   23.9052 C   0  0  0  0  0  0  0  0  0  0  0  0
  -26.2069  -29.2397   21.1409 C   0  0  0  0  0  0  0  0  0  0  0  0
  -20.0010   -8.9583   24.7943 C   0  0  0  0  0  0  0  0  0  0  0  0
  -19.2614   -9.2814   25.9319 C   0  0  0  0  0  0  0  0  0  0  0  0
  -24.1737  -28.7702   22.3513 C   0  0  0  0  0  0  0  0  0  0  0  0
  -20.5535   -7.6988   27.2215 C   0  0  0  0  0  0  0  0  0  0  0  0
  -23.8811  -10.7361   21.8993 C   0  0  0  0  0  0  0  0  0  0  0  0
  -24.1679  -13.0967   20.9756 C   0  0  0  0  0  0  0  0  0  0  0  0
  -24.1540  -37.8732   22.8450 C   0  0  0  0  0  0  0  0  0  0  0  0
  -24.3283  -30.7711   20.9978 C   0  0  0  0  0  0  0  0  0  0  0  0
  -24.6208  -36.5469   22.9198 C   0  0  0  0  0  0  0  0  0  0  0  0
  -23.5856  -29.9415   21.8499 C   0  0  0  0  0  0  0  0  0  0  0  0
  -29.4450  -18.3390   20.7409 C   0  0  0  0  0  0  0  0  0  0  0  0
  -29.6007  -19.6496   20.2892 C   0  0  0  0  0  0  0  0  0  0  0  0
  -30.1693  -17.3058   20.1464 C   0  0  0  0  0  0  0  0  0  0  0  0
  -22.4493   -8.6861   23.1362 C   0  0  0  0  0  0  0  0  0  0  0  0
  -25.4778  -28.4225   21.9998 C   0  0  0  0  0  0  0  0  0  0  0  0
  -21.0168   -8.0053   24.8702 C   0  0  0  0  0  0  0  0  0  0  0  0
  -19.5377   -8.6517   27.1455 C   0  0  0  0  0  0  0  0  0  0  0  0
  -21.2931   -7.3756   26.0838 C   0  0  0  0  0  0  0  0  0  0  0  0
  -24.6212  -11.7948   21.2609 C   0  0  0  0  0  0  0  0  0  0  0  0
  -25.2388  -13.7084   20.3712 C   0  0  0  0  0  0  0  0  0  0  0  0
  -22.8928  -13.6992   21.2339 C   0  0  0  0  0  0  0  0  0  0  0  0
  -23.0266  -33.2372   22.5234 C   0  0  0  0  0  0  0  0  0  0  0  0
  -20.2476  -31.7996   21.6672 C   0  0  0  0  0  0  0  0  0  0  0  0
  -28.9244  -22.0628   20.5384 C   0  0  0  0  0  0  0  0  0  0  0  0
  -18.6226  -28.9336   20.7774 C   0  0  0  0  0  0  0  0  0  0  0  0
  -30.6837  -14.8402   20.0955 C   0  0  0  0  0  0  0  0  0  0  0  0
  -22.7947  -38.2664   23.3668 C   0  0  0  0  0  0  0  0  0  0  0  0
  -23.7152  -32.0199   20.4258 C   0  0  0  0  0  0  0  0  0  0  0  0
  -22.1729  -30.2770   22.2503 C   0  0  0  0  0  0  0  0  0  0  0  0
  -21.8488  -37.0831   23.5548 C   0  0  0  0  0  0  0  0  0  0  0  0
  -29.5876  -11.7810   18.6405 C   0  0  0  0  0  0  0  0  0  0  0  0
  -22.5597  -35.9401   24.2724 C   0  0  0  0  0  0  0  0  0  0  0  0
  -28.1605  -11.6190   19.1691 C   0  0  0  0  0  0  0  0  0  0  0  0
  -30.5143  -12.3947   19.6886 C   0  0  0  0  0  0  0  0  0  0  0  0
  -28.6119  -13.4914   20.8053 C   0  0  0  0  0  0  0  0  0  0  0  0
  -23.7503  -35.4293   23.4519 C   0  0  1  0  0  0  0  0  0  0  0  0
  -22.5614  -32.5581   21.2664 C   0  0  1  0  0  0  0  0  0  0  0  0
  -27.6266  -12.9371   19.7634 C   0  0  2  0  0  0  0  0  0  0  0  0
  -28.5008  -18.0414   21.8646 C   0  0  0  0  0  0  0  0  0  0  0  0
  -16.3461  -28.0653   20.1763 C   0  0  0  0  0  0  0  0  0  0  0  0
  -19.4364  -31.8981   24.6070 C   0  0  0  0  0  0  0  0  0  0  0  0
  -17.6545  -30.2141   24.0996 C   0  0  0  0  0  0  0  0  0  0  0  0
  -17.6025  -32.4524   22.9996 C   0  0  0  0  0  0  0  0  0  0  0  0
  -19.5279  -28.0865   18.0901 C   0  0  0  0  0  0  0  0  0  0  0  0
  -27.9853  -22.8716   21.4248 C   0  0  0  0  0  0  0  0  0  0  0  0
  -27.9778  -24.3680   21.1151 C   0  0  0  0  0  0  0  0  0  0  0  0
  -26.9702  -25.1348   21.9725 C   0  0  0  0  0  0  0  0  0  0  0  0
  -27.0037  -26.6276   21.6749 C   0  0  0  0  0  0  0  0  0  1  0  0
  -19.3442  -30.7628   22.2899 C   0  0  1  0  0  0  0  0  0  0  0  0
  -17.6537  -28.6342   19.6477 C   0  0  2  0  0  0  0  0  0  0  0  0
  -18.5367  -31.3262   23.4932 C   0  0  0  0  0  0  0  0  0  0  0  0
  -25.8819  -11.5905   20.8697 N   0  0  0  0  0  0  0  0  0  0  0  0
  -26.2298  -12.7722   20.3324 N   0  0  0  0  0  0  0  0  0  0  0  0
  -21.6198  -31.5117   21.6698 N   0  0  0  0  0  0  0  0  0  0  0  0
  -29.9459  -13.6423   20.2035 N   0  0  0  0  0  0  0  0  0  0  0  0
  -25.4201  -14.9505   19.8743 N   0  0  0  0  0  0  0  0  0  0  0  0
  -21.9050  -12.9291   21.8629 N   0  0  0  0  0  0  0  0  0  0  0  0
  -28.8772  -20.7137   20.8785 N   0  0  0  0  0  0  0  0  0  0  0  0
  -30.0284  -15.9675   20.5899 N   0  0  0  0  0  0  0  0  0  0  0  0
  -23.2929  -34.5844   22.3696 N   0  0  0  0  0  0  0  0  0  0  0  0
  -18.5173  -30.2393   21.2080 N   0  0  0  0  0  0  0  0  0  0  0  0
  -18.2484  -27.6465   18.7035 N   0  3  0  0  0  0  0  0  0  0  0  0
  -22.6314  -14.8802   20.9016 O   0  0  0  0  0  0  0  0  0  0  0  0
  -23.1344  -32.5874   23.5568 O   0  0  0  0  0  0  0  0  0  0  0  0
  -19.7533  -32.8239   21.1895 O   0  0  0  0  0  0  0  0  0  0  0  0
  -29.5888  -22.5823   19.6478 O   0  0  0  0  0  0  0  0  0  0  0  0
  -19.3929  -28.0922   21.2348 O   0  0  0  0  0  0  0  0  0  0  0  0
  -31.8023  -14.8688   19.5761 O   0  0  0  0  0  0  0  0  0  0  0  0
  -21.7507   -7.6862   23.7401 O   0  0  0  0  0  0  0  0  0  0  0  0
  -26.0348  -27.2828   22.4923 O   0  0  0  0  0  0  0  0  0  1  0  0
  -18.8284   -8.9632   28.2382 F   0  0  0  0  0  0  0  0  0  0  0  0
  -22.2686   -6.4602   26.1632 F   0  0  0  0  0  0  0  0  0  0  0  0
  1  2  1  0  0  0  0
  1  6  2  0  0  0  0
  2  7  2  0  0  0  0
  3  9  2  0  0  0  0
  3 10  1  0  0  0  0
  4 11  2  0  0  0  0
  4 18  1  0  0  0  0
  5 12  1  0  0  0  0
  5 18  2  0  0  0  0
  6 20  1  0  0  0  0
  7 22  1  0  0  0  0
  8 13  2  0  0  0  0
  8 21  1  0  0  0  0
  9 25  1  0  0  0  0
 10 26  2  0  0  0  0
 11 27  1  0  0  0  0
 12 27  2  0  0  0  0
 13 28  1  0  0  0  0
 14 15  2  0  0  0  0
 14 29  1  0  0  0  0
 15 30  1  0  0  0  0
 16 23  1  0  0  0  0
 16 28  2  0  0  0  0
 17 30  2  0  0  0  0
 17 31  1  0  0  0  0
 18 32  1  0  0  0  0
 19 32  1  0  0  0  0
 19 33  2  0  0  0  0
 19 34  1  0  0  0  0
 20 22  2  0  0  0  0
 20 40  1  0  0  0  0
 21 23  2  0  0  0  0
 21 41  1  0  0  0  0
 22 49  1  0  0  0  0
 23 42  1  0  0  0  0
 24 25  2  0  0  0  0
 24 26  1  0  0  0  0
 24 52  1  0  0  0  0
 25 71  1  0  0  0  0
 26 72  1  0  0  0  0
 27 82  1  0  0  0  0
 28 83  1  0  0  0  0
 29 31  2  0  0  0  0
 29 82  1  0  0  0  0
 30 84  1  0  0  0  0
 31 85  1  0  0  0  0
 32 65  2  0  0  0  0
 33 66  1  0  0  0  0
 33 69  1  0  0  0  0
 34 70  1  0  0  0  0
 34 76  2  0  0  0  0
 35 50  1  0  0  0  0
 35 73  1  0  0  0  0
 35 77  2  0  0  0  0
 36 62  1  0  0  0  0
 36 67  1  0  0  0  0
 36 78  2  0  0  0  0
 37 58  1  0  0  0  0
 37 71  1  0  0  0  0
 37 79  2  0  0  0  0
 38 63  1  0  0  0  0
 38 74  1  0  0  0  0
 38 80  2  0  0  0  0
 39 68  1  0  0  0  0
 39 72  1  0  0  0  0
 39 81  2  0  0  0  0
 40 43  1  0  0  0  0
 41 50  1  0  0  0  0
 42 67  1  0  0  0  0
 43 45  1  0  0  0  0
 44 46  1  0  0  0  0
 44 47  1  0  0  0  0
 45 49  1  0  0  0  0
 46 51  1  0  0  0  0
 47 68  1  0  0  0  0
 48 51  1  0  0  0  0
 48 68  1  0  0  0  0
 49 73  1  0  0  0  0
 50 67  1  0  0  0  0
 51 66  1  0  0  0  0
 53 63  1  0  0  0  0
 54 64  1  0  0  0  0
 55 64  1  0  0  0  0
 56 64  1  0  0  0  0
 57 75  1  0  0  0  0
 58 59  1  0  0  0  0
 59 60  1  0  0  0  0
 60 61  1  0  0  0  0
 61 83  1  0  0  0  0
 62 64  1  0  0  0  0
 62 74  1  0  0  0  0
 63 75  1  0  0  0  0
 65 66  1  0  0  0  0
M  CHG  1  75   1
M  ISO  4  39 100  61 101  72 100  83 101
M  END
> <Batch ID>
0062

> <Smiles>
CNC(C)C(=O)NC(C(=O)N1Cc2cc([101O:1][101CH2:1]CCCC(=O)Nc3cccc([100NH:0][100C:0](=O)N4CCCC(n5nc(-c6ccc(Oc7ccc(F)cc7F)cc6)c(C(N)=O)c5N)C4)c3C)ccc2CC1C(=O)NC1CCCc2ccccc21)C(C)(C)C

> <Shape>
0.297

> <Color>
0.179

> <Negative vol penalty>
0.000

$$$$
