
  -OEChem-04042323123D

 90 99  0     1  0  0  0  0  0999 V2000
  -19.8977  -34.0037   20.6749 C   0  0  0  0  0  0  0  0  0  0  0  0
  -21.2485  -33.6741   20.7207 C   0  0  0  0  0  0  0  0  0  0  0  0
  -26.5966  -11.6500   21.1773 C   0  0  0  0  0  0  0  0  0  0  0  0
  -25.7249  -13.2938   19.6362 C   0  0  0  0  0  0  0  0  0  0  0  0
  -18.9707  -33.2407   21.3836 C   0  0  0  0  0  0  0  0  0  0  0  0
  -21.6733  -32.5818   21.4762 C   0  0  0  0  0  0  0  0  0  0  0  0
  -26.2782  -28.7640   20.1626 C   0  0  0  0  0  0  0  0  0  0  0  0
  -25.2959  -11.2986   21.5382 C   0  0  0  0  0  0  0  0  0  0  0  0
  -24.4242  -12.9424   19.9971 C   0  0  0  0  0  0  0  0  0  0  0  0
  -27.6005  -28.7039   20.6001 C   0  0  0  0  0  0  0  0  0  0  0  0
  -22.1996   -9.7179   22.6009 C   0  0  0  0  0  0  0  0  0  0  0  0
  -21.8969   -8.3594   22.6937 C   0  0  0  0  0  0  0  0  0  0  0  0
  -29.3683  -22.8203   19.0040 C   0  0  0  0  0  0  0  0  0  0  0  0
  -29.4109  -20.4563   18.5080 C   0  0  0  0  0  0  0  0  0  0  0  0
  -26.9689  -27.0780   22.2665 C   0  0  0  0  0  0  0  0  0  0  0  0
  -30.6997  -21.3259   20.3572 C   0  0  0  0  0  0  0  0  0  0  0  0
  -22.4742   -8.0716   20.3654 C   0  0  0  0  0  0  0  0  0  0  0  0
  -26.8111  -12.6476   20.2263 C   0  0  0  0  0  0  0  0  0  0  0  0
  -28.9530  -21.7425   18.2223 C   0  0  0  0  0  0  0  0  0  0  0  0
  -28.9304  -12.4539   18.8196 C   0  0  0  0  0  0  0  0  0  0  0  0
  -19.3832  -32.1326   22.1405 C   0  0  0  0  0  0  0  0  0  0  0  0
  -25.2875  -27.9885   20.7819 C   0  0  0  0  0  0  0  0  0  0  0  0
  -20.7511  -31.8040   22.1968 C   0  0  0  0  0  0  0  0  0  0  0  0
  -25.6351  -27.1282   21.8332 C   0  0  0  0  0  0  0  0  0  0  0  0
  -30.2418  -22.6121   20.0715 C   0  0  0  0  0  0  0  0  0  0  0  0
  -30.2843  -20.2480   19.5755 C   0  0  0  0  0  0  0  0  0  0  0  0
  -24.2097  -11.9447   20.9481 C   0  0  0  0  0  0  0  0  0  0  0  0
  -27.9456  -27.8629   21.6541 C   0  0  0  0  0  0  0  0  0  0  0  0
  -22.6395  -10.2532   21.3902 C   0  0  0  0  0  0  0  0  0  0  0  0
  -22.0342   -7.5363   21.5760 C   0  0  0  0  0  0  0  0  0  0  0  0
  -22.7768   -9.4301   20.2725 C   0  0  0  0  0  0  0  0  0  0  0  0
  -28.1545  -13.0115   19.8535 C   0  0  0  0  0  0  0  0  0  0  0  0
  -30.1199  -13.1384   18.8756 C   0  0  0  0  0  0  0  0  0  0  0  0
  -31.3713  -24.9725   22.6045 C   0  0  0  0  0  0  0  0  0  0  0  0
  -31.2459  -25.7866   21.5585 C   0  0  0  0  0  0  0  0  0  0  0  0
  -30.9911  -23.6153   22.1876 C   0  0  0  0  0  0  0  0  0  0  0  0
  -30.7937  -24.9863   20.4038 C   0  0  0  0  0  0  0  0  0  0  0  0
  -28.0422  -21.9596   17.1095 C   0  0  0  0  0  0  0  0  0  0  0  0
  -28.6049  -11.4106   17.8915 C   0  0  0  0  0  0  0  0  0  0  0  0
  -22.6221  -28.6238   22.3930 C   0  0  0  0  0  0  0  0  0  0  0  0
  -22.2515  -25.4030   22.2838 C   0  0  0  0  0  0  0  0  0  0  0  0
  -23.7010  -22.3286   21.9776 C   0  0  0  0  0  0  0  0  0  0  0  0
  -31.6183  -18.5615   20.8880 C   0  0  0  0  0  0  0  0  0  0  0  0
  -18.3500  -31.3662   22.9278 C   0  0  0  0  0  0  0  0  0  0  0  0
  -23.8705  -28.0448   20.2806 C   0  0  0  0  0  0  0  0  0  0  0  0
  -24.6128  -26.2599   22.5184 C   0  0  0  0  0  0  0  0  0  0  0  0
  -18.8368  -29.9997   23.4031 C   0  0  0  0  0  0  0  0  0  0  0  0
  -32.9714  -15.4456   21.9545 C   0  0  0  0  0  0  0  0  0  0  0  0
  -20.2287  -30.1127   24.0169 C   0  0  0  0  0  0  0  0  0  0  0  0
  -31.9635  -14.4166   21.4374 C   0  0  0  0  0  0  0  0  0  0  0  0
  -32.2839  -16.7260   22.4252 C   0  0  0  0  0  0  0  0  0  0  0  0
  -30.3714  -16.3122   20.9284 C   0  0  0  0  0  0  0  0  0  0  0  0
  -21.2477  -30.6115   22.9852 C   0  0  1  0  0  0  0  0  0  0  0  0
  -22.8501  -27.5952   21.3216 C   0  0  1  0  0  0  0  0  0  0  0  0
  -31.0221  -15.0306   20.3827 C   0  0  2  0  0  0  0  0  0  0  0  0
  -23.1457  -19.8814   21.9648 C   0  0  0  0  0  0  0  0  0  0  0  0
  -21.9294  -25.4628   25.3174 C   0  0  0  0  0  0  0  0  0  0  0  0
  -22.3316  -22.9918   25.3389 C   0  0  0  0  0  0  0  0  0  0  0  0
  -20.3568  -23.9217   24.1315 C   0  0  0  0  0  0  0  0  0  0  0  0
  -24.7174  -21.9938   19.2183 C   0  0  0  0  0  0  0  0  0  0  0  0
  -26.2919  -24.3777   15.4401 C   0  0  0  0  0  0  0  0  0  0  0  0
  -31.5050  -27.2549   21.4774 C   0  0  0  0  0  0  0  0  0  0  0  0
  -30.2546  -28.0446   21.1145 C   0  0  0  0  0  0  0  0  0  1  0  0
  -22.6689  -24.2485   23.1622 C   0  0  1  0  0  0  0  0  0  0  0  0
  -23.3460  -21.1287   21.1181 C   0  0  2  0  0  0  0  0  0  0  0  0
  -21.8408  -24.1739   24.4761 C   0  0  0  0  0  0  0  0  0  0  0  0
  -28.7972  -13.9757   20.5178 N   0  0  0  0  0  0  0  0  0  0  0  0
  -27.6128  -23.1464   16.8388 N   0  0  0  0  0  0  0  0  0  0  0  0
  -29.9894  -14.0293   19.8999 N   0  0  0  0  0  0  0  0  0  0  0  0
  -30.6558  -23.6864   20.8508 N   0  0  0  0  0  0  0  0  0  0  0  0
  -23.2396  -26.3552   21.9962 N   0  0  0  0  0  0  0  0  0  0  0  0
  -31.4119  -17.2527   21.3730 N   0  0  0  0  0  0  0  0  0  0  0  0
  -31.2543  -13.0589   18.1481 N   0  0  0  0  0  0  0  0  0  0  0  0
  -27.3390  -10.8148   17.9731 N   0  0  0  0  0  0  0  0  0  0  0  0
  -30.7491  -18.9413   19.8657 N   0  0  0  0  0  0  0  0  0  0  0  0
  -21.6305  -29.5382   22.0931 N   0  0  0  0  0  0  0  0  0  0  0  0
  -22.5818  -23.0518   22.3323 N   0  0  0  0  0  0  0  0  0  0  0  0
  -24.4306  -20.8585   20.1325 N   0  3  0  0  0  0  0  0  0  0  0  0
  -30.9953  -22.6508   22.9351 O   0  0  0  0  0  0  0  0  0  0  0  0
  -30.5931  -25.4407   19.2888 O   0  0  0  0  0  0  0  0  0  0  0  0
  -29.4188  -11.0072   17.0264 O   0  0  0  0  0  0  0  0  0  0  0  0
  -23.2949  -28.5893   23.4166 O   0  0  0  0  0  0  0  0  0  0  0  0
  -21.0933  -25.4543   21.8622 O   0  0  0  0  0  0  0  0  0  0  0  0
  -24.8552  -22.5955   22.3048 O   0  0  0  0  0  0  0  0  0  0  0  0
  -32.5185  -19.2818   21.3269 O   0  0  0  0  0  0  0  0  0  0  0  0
  -22.9403  -11.6019   21.2998 O   0  0  0  0  0  0  0  0  0  0  0  0
  -29.2354  -27.8027   22.0836 O   0  0  0  0  0  0  0  0  0  1  0  0
  -26.7588  -23.0687   15.7300 O   0  0  0  0  0  0  0  0  0  0  0  0
  -21.7450   -6.2315   21.6658 F   0  0  0  0  0  0  0  0  0  0  0  0
  -23.2001   -9.9384   19.1071 F   0  0  0  0  0  0  0  0  0  0  0  0
  1  2  1  0  0  0  0
  1  5  2  0  0  0  0
  2  6  2  0  0  0  0
  3  8  2  0  0  0  0
  3 18  1  0  0  0  0
  4  9  1  0  0  0  0
  4 18  2  0  0  0  0
  5 21  1  0  0  0  0
  6 23  1  0  0  0  0
  7 10  2  0  0  0  0
  7 22  1  0  0  0  0
  8 27  1  0  0  0  0
  9 27  2  0  0  0  0
 10 28  1  0  0  0  0
 11 12  2  0  0  0  0
 11 29  1  0  0  0  0
 12 30  1  0  0  0  0
 13 19  2  0  0  0  0
 13 25  1  0  0  0  0
 14 19  1  0  0  0  0
 14 26  2  0  0  0  0
 15 24  1  0  0  0  0
 15 28  2  0  0  0  0
 16 25  2  0  0  0  0
 16 26  1  0  0  0  0
 17 30  2  0  0  0  0
 17 31  1  0  0  0  0
 18 32  1  0  0  0  0
 19 38  1  0  0  0  0
 20 32  1  0  0  0  0
 20 33  2  0  0  0  0
 20 39  1  0  0  0  0
 21 23  2  0  0  0  0
 21 44  1  0  0  0  0
 22 24  2  0  0  0  0
 22 45  1  0  0  0  0
 23 53  1  0  0  0  0
 24 46  1  0  0  0  0
 25 70  1  0  0  0  0
 26 75  1  0  0  0  0
 27 86  1  0  0  0  0
 28 87  1  0  0  0  0
 29 31  2  0  0  0  0
 29 86  1  0  0  0  0
 30 89  1  0  0  0  0
 31 90  1  0  0  0  0
 32 67  2  0  0  0  0
 33 69  1  0  0  0  0
 33 73  1  0  0  0  0
 34 35  2  0  0  0  0
 34 36  1  0  0  0  0
 35 37  1  0  0  0  0
 35 62  1  0  0  0  0
 36 70  1  0  0  0  0
 36 79  2  0  0  0  0
 37 70  1  0  0  0  0
 37 80  2  0  0  0  0
 38 68  2  0  0  0  0
 39 74  1  0  0  0  0
 39 81  2  0  0  0  0
 40 54  1  0  0  0  0
 40 76  1  0  0  0  0
 40 82  2  0  0  0  0
 41 64  1  0  0  0  0
 41 71  1  0  0  0  0
 41 83  2  0  0  0  0
 42 65  1  0  0  0  0
 42 77  1  0  0  0  0
 42 84  2  0  0  0  0
 43 72  1  0  0  0  0
 43 75  1  0  0  0  0
 43 85  2  0  0  0  0
 44 47  1  0  0  0  0
 45 54  1  0  0  0  0
 46 71  1  0  0  0  0
 47 49  1  0  0  0  0
 48 50  1  0  0  0  0
 48 51  1  0  0  0  0
 49 53  1  0  0  0  0
 50 55  1  0  0  0  0
 51 72  1  0  0  0  0
 52 55  1  0  0  0  0
 52 72  1  0  0  0  0
 53 76  1  0  0  0  0
 54 71  1  0  0  0  0
 55 69  1  0  0  0  0
 56 65  1  0  0  0  0
 57 66  1  0  0  0  0
 58 66  1  0  0  0  0
 59 66  1  0  0  0  0
 60 78  1  0  0  0  0
 61 88  1  0  0  0  0
 62 63  1  0  0  0  0
 63 87  1  0  0  0  0
 64 66  1  0  0  0  0
 64 77  1  0  0  0  0
 65 78  1  0  0  0  0
 67 69  1  0  0  0  0
 68 88  1  0  0  0  0
M  CHG  1  78   1
M  ISO  4  43 100  63 101  75 100  87 101
M  END
> <Batch ID>
0063

> <Smiles>
CNC(C)C(=O)NC(C(=O)N1Cc2cc([101O:1][101CH2:1]C=C3CC(=O)N(c4cc(C=NOC)cc([100NH:0][100C:0](=O)N5CCCC(n6nc(-c7ccc(Oc8ccc(F)cc8F)cc7)c(C(N)=O)c6N)C5)c4)C3=O)ccc2CC1C(=O)NC1CCCc2ccccc21)C(C)(C)C

> <Shape>
0.257

> <Color>
0.091

> <Negative vol penalty>
0.000

$$$$

  -OEChem-04042323123D

 84 92  0     1  0  0  0  0  0999 V2000
  -17.1765  -26.8006   21.8019 C   0  0  0  0  0  0  0  0  0  0  0  0
  -18.4217  -26.1890   21.9058 C   0  0  0  0  0  0  0  0  0  0  0  0
  -23.3623   -9.1839   20.5607 C   0  0  0  0  0  0  0  0  0  0  0  0
  -23.1831  -10.8024   22.3454 C   0  0  0  0  0  0  0  0  0  0  0  0
  -30.8283  -19.5006   20.5744 C   0  0  0  0  0  0  0  0  0  0  0  0
  -17.0878  -28.1375   21.4161 C   0  0  0  0  0  0  0  0  0  0  0  0
  -19.5789  -26.9136   21.6228 C   0  0  0  0  0  0  0  0  0  0  0  0
  -25.0334  -26.3523   24.3503 C   0  0  0  0  0  0  0  0  0  0  0  0
  -30.6359  -18.1328   20.3803 C   0  0  0  0  0  0  0  0  0  0  0  0
  -22.5833   -8.2890   21.2940 C   0  0  0  0  0  0  0  0  0  0  0  0
  -22.4040   -9.9075   23.0788 C   0  0  0  0  0  0  0  0  0  0  0  0
  -26.1972  -25.6748   23.9895 C   0  0  0  0  0  0  0  0  0  0  0  0
  -23.0110   -6.1531   23.8785 C   0  0  0  0  0  0  0  0  0  0  0  0
  -23.4366   -4.8263   23.9427 C   0  0  0  0  0  0  0  0  0  0  0  0
  -27.0823  -27.7104   23.0451 C   0  0  0  0  0  0  0  0  0  0  0  0
  -28.3906  -18.5599   19.5970 C   0  0  0  0  0  0  0  0  0  0  0  0
  -21.3695   -4.1134   22.9151 C   0  0  0  0  0  0  0  0  0  0  0  0
  -23.6622  -10.4407   21.0864 C   0  0  0  0  0  0  0  0  0  0  0  0
  -29.8019  -20.3980   20.2799 C   0  0  0  0  0  0  0  0  0  0  0  0
  -24.0155  -12.3303   19.4094 C   0  0  0  0  0  0  0  0  0  0  0  0
  -18.2450  -28.8816   21.1376 C   0  0  0  0  0  0  0  0  0  0  0  0
  -24.8805  -27.7137   24.0510 C   0  0  0  0  0  0  0  0  0  0  0  0
  -19.5055  -28.2613   21.2316 C   0  0  0  0  0  0  0  0  0  0  0  0
  -25.9167  -28.4036   23.4054 C   0  0  0  0  0  0  0  0  0  0  0  0
  -28.5831  -19.9277   19.7912 C   0  0  0  0  0  0  0  0  0  0  0  0
  -29.4171  -17.6624   19.8916 C   0  0  0  0  0  0  0  0  0  0  0  0
  -22.1041   -8.6507   22.5531 C   0  0  0  0  0  0  0  0  0  0  0  0
  -27.2207  -26.3531   23.3342 C   0  0  0  0  0  0  0  0  0  0  0  0
  -21.7646   -6.4600   23.3327 C   0  0  0  0  0  0  0  0  0  0  0  0
  -22.6159   -3.8065   23.4610 C   0  0  0  0  0  0  0  0  0  0  0  0
  -20.9439   -5.4402   22.8510 C   0  0  0  0  0  0  0  0  0  0  0  0
  -24.4673  -11.3654   20.3296 C   0  0  0  0  0  0  0  0  0  0  0  0
  -25.1609  -12.9459   18.9673 C   0  0  0  0  0  0  0  0  0  0  0  0
  -30.0270  -21.8427   20.4921 C   0  0  0  0  0  0  0  0  0  0  0  0
  -22.6799  -12.6422   18.9918 C   0  0  0  0  0  0  0  0  0  0  0  0
  -22.8599  -29.4069   22.2749 C   0  0  0  0  0  0  0  0  0  0  0  0
  -24.4347  -31.9252   23.5790 C   0  0  0  0  0  0  0  0  0  0  0  0
  -29.2803  -23.8924   21.6802 C   0  0  0  0  0  0  0  0  0  0  0  0
  -27.2761  -33.1231   25.0411 C   0  0  0  0  0  0  0  0  0  0  0  0
  -30.1373  -15.2488   19.9345 C   0  0  0  0  0  0  0  0  0  0  0  0
  -18.0963  -30.3105   20.6784 C   0  0  0  0  0  0  0  0  0  0  0  0
  -23.6300  -28.4365   24.4707 C   0  0  0  0  0  0  0  0  0  0  0  0
  -25.8103  -29.8701   23.0793 C   0  0  0  0  0  0  0  0  0  0  0  0
  -19.3917  -31.1141   20.7590 C   0  0  0  0  0  0  0  0  0  0  0  0
  -30.0260  -11.7048   19.6101 C   0  0  0  0  0  0  0  0  0  0  0  0
  -20.5518  -30.3172   20.1711 C   0  0  0  0  0  0  0  0  0  0  0  0
  -28.5327  -11.3800   19.6926 C   0  0  0  0  0  0  0  0  0  0  0  0
  -30.4086  -12.8542   20.5408 C   0  0  0  0  0  0  0  0  0  0  0  0
  -28.1150  -13.7502   20.4638 C   0  0  0  0  0  0  0  0  0  0  0  0
  -20.7851  -29.0212   20.9569 C   0  0  1  0  0  0  0  0  0  0  0  0
  -23.3691  -29.7008   23.6577 C   0  0  1  0  0  0  0  0  0  0  0  0
  -27.6698  -12.6418   19.4959 C   0  0  2  0  0  0  0  0  0  0  0  0
  -27.4700  -20.8691   19.4659 C   0  0  0  0  0  0  0  0  0  0  0  0
  -28.2795  -35.2307   25.9624 C   0  0  0  0  0  0  0  0  0  0  0  0
  -24.9139  -32.9351   20.7399 C   0  0  0  0  0  0  0  0  0  0  0  0
  -26.6774  -34.4590   21.6543 C   0  0  0  0  0  0  0  0  0  0  0  0
  -24.3078  -34.7129   22.3911 C   0  0  0  0  0  0  0  0  0  0  0  0
  -27.5619  -31.9447   27.7409 C   0  0  0  0  0  0  0  0  0  0  0  0
  -28.2365  -24.3033   22.6843 C   0  0  0  0  0  0  0  0  0  1  0  0
  -25.6536  -32.7335   23.2053 C   0  0  1  0  0  0  0  0  0  0  0  0
  -27.4899  -33.9709   26.2821 C   0  0  2  0  0  0  0  0  0  0  0  0
  -25.3897  -33.6820   22.0019 C   0  0  0  0  0  0  0  0  0  0  0  0
  -25.7961  -11.3642   20.4648 N   0  0  0  0  0  0  0  0  0  0  0  0
  -26.1892  -12.3358   19.6236 N   0  0  0  0  0  0  0  0  0  0  0  0
  -24.5655  -30.5312   23.5046 N   0  0  0  0  0  0  0  0  0  0  0  0
  -29.5521  -14.0164   20.2943 N   0  0  0  0  0  0  0  0  0  0  0  0
  -25.3788  -13.9441   18.0849 N   0  0  0  0  0  0  0  0  0  0  0  0
  -21.6191  -11.9128   19.5458 N   0  0  0  0  0  0  0  0  0  0  0  0
  -29.2222  -16.2730   19.6934 N   0  0  0  0  0  0  0  0  0  0  0  0
  -29.2252  -22.4877   21.3506 N   0  0  0  0  0  0  0  0  0  0  0  0
  -21.4848  -29.2986   22.1930 N   0  0  0  0  0  0  0  0  0  0  0  0
  -26.0794  -33.4164   24.4222 N   0  0  0  0  0  0  0  0  0  0  0  0
  -31.0195  -22.4214   19.8167 N   0  3  0  0  0  0  0  0  0  0  0  0
  -28.2361  -33.1981   27.3151 N   0  3  0  0  0  0  0  0  0  0  0  0
  -22.4356  -13.5301   18.1400 O   0  0  0  0  0  0  0  0  0  0  0  0
  -23.6556  -29.2886   21.3505 O   0  0  0  0  0  0  0  0  0  0  0  0
  -23.4066  -32.5089   23.9310 O   0  0  0  0  0  0  0  0  0  0  0  0
  -30.1048  -24.6412   21.1760 O   0  0  0  0  0  0  0  0  0  0  0  0
  -28.0911  -32.2871   24.6570 O   0  0  0  0  0  0  0  0  0  0  0  0
  -31.3589  -15.3783   19.8201 O   0  0  0  0  0  0  0  0  0  0  0  0
  -21.3438   -7.7778   23.2689 O   0  0  0  0  0  0  0  0  0  0  0  0
  -28.3575  -25.6940   22.9804 O   0  0  0  0  0  0  0  0  0  1  0  0
  -23.0255   -2.5326   23.5214 F   0  0  0  0  0  0  0  0  0  0  0  0
  -19.7459   -5.7290   22.3244 F   0  0  0  0  0  0  0  0  0  0  0  0
  1  2  1  0  0  0  0
  1  6  2  0  0  0  0
  2  7  2  0  0  0  0
  3 10  2  0  0  0  0
  3 18  1  0  0  0  0
  4 11  1  0  0  0  0
  4 18  2  0  0  0  0
  5  9  2  0  0  0  0
  5 19  1  0  0  0  0
  6 21  1  0  0  0  0
  7 23  1  0  0  0  0
  8 12  2  0  0  0  0
  8 22  1  0  0  0  0
  9 26  1  0  0  0  0
 10 27  1  0  0  0  0
 11 27  2  0  0  0  0
 12 28  1  0  0  0  0
 13 14  2  0  0  0  0
 13 29  1  0  0  0  0
 14 30  1  0  0  0  0
 15 24  1  0  0  0  0
 15 28  2  0  0  0  0
 16 25  1  0  0  0  0
 16 26  2  0  0  0  0
 17 30  2  0  0  0  0
 17 31  1  0  0  0  0
 18 32  1  0  0  0  0
 19 25  2  0  0  0  0
 19 34  1  0  0  0  0
 20 32  1  0  0  0  0
 20 33  2  0  0  0  0
 20 35  1  0  0  0  0
 21 23  2  0  0  0  0
 21 41  1  0  0  0  0
 22 24  2  0  0  0  0
 22 42  1  0  0  0  0
 23 50  1  0  0  0  0
 24 43  1  0  0  0  0
 25 53  1  0  0  0  0
 26 69  1  0  0  0  0
 27 81  1  0  0  0  0
 28 82  1  0  0  0  0
 29 31  2  0  0  0  0
 29 81  1  0  0  0  0
 30 83  1  0  0  0  0
 31 84  1  0  0  0  0
 32 63  2  0  0  0  0
 33 64  1  0  0  0  0
 33 67  1  0  0  0  0
 34 70  1  0  0  0  0
 34 73  2  0  0  0  0
 35 68  1  0  0  0  0
 35 75  2  0  0  0  0
 36 51  1  0  0  0  0
 36 71  1  0  0  0  0
 36 76  2  0  0  0  0
 37 60  1  0  0  0  0
 37 65  1  0  0  0  0
 37 77  2  0  0  0  0
 38 59  1  0  0  0  0
 38 70  1  0  0  0  0
 38 78  2  0  0  0  0
 39 61  1  0  0  0  0
 39 72  1  0  0  0  0
 39 79  2  0  0  0  0
 40 66  1  0  0  0  0
 40 69  1  0  0  0  0
 40 80  2  0  0  0  0
 41 44  1  0  0  0  0
 42 51  1  0  0  0  0
 43 65  1  0  0  0  0
 44 46  1  0  0  0  0
 45 47  1  0  0  0  0
 45 48  1  0  0  0  0
 46 50  1  0  0  0  0
 47 52  1  0  0  0  0
 48 66  1  0  0  0  0
 49 52  1  0  0  0  0
 49 66  1  0  0  0  0
 50 71  1  0  0  0  0
 51 65  1  0  0  0  0
 52 64  1  0  0  0  0
 54 61  1  0  0  0  0
 55 62  1  0  0  0  0
 56 62  1  0  0  0  0
 57 62  1  0  0  0  0
 58 74  1  0  0  0  0
 59 82  1  0  0  0  0
 60 62  1  0  0  0  0
 60 72  1  0  0  0  0
 61 74  1  0  0  0  0
 63 64  1  0  0  0  0
M  CHG  2  73   1  74   1
M  ISO  4  40 100  59 101  69 100  82 101
M  END
> <Batch ID>
0063

> <Smiles>
CNC(C)C(=O)NC(C(=O)N1Cc2cc([101O:1][101CH2:1]C(=O)NC(=N)c3ccc([100NH:0][100C:0](=O)N4CCCC(n5nc(-c6ccc(Oc7ccc(F)cc7F)cc6)c(C(N)=O)c5N)C4)cc3C)ccc2CC1C(=O)NC1CCCc2ccccc21)C(C)(C)C

> <Shape>
0.315

> <Color>
0.125

> <Negative vol penalty>
0.000

$$$$

  -OEChem-04042323123D

 86 95  0     1  0  0  0  0  0999 V2000
  -23.9046  -35.6468   15.0542 C   0  0  0  0  0  0  0  0  0  0  0  0
  -24.5011  -34.3999   15.2124 C   0  0  0  0  0  0  0  0  0  0  0  0
  -23.7218   -8.7218   20.0877 C   0  0  0  0  0  0  0  0  0  0  0  0
  -23.2569  -10.4206   21.7414 C   0  0  0  0  0  0  0  0  0  0  0  0
  -23.8941  -36.5527   16.1140 C   0  0  0  0  0  0  0  0  0  0  0  0
  -25.0884  -34.0587   16.4302 C   0  0  0  0  0  0  0  0  0  0  0  0
  -25.2408  -28.5098   19.0171 C   0  0  0  0  0  0  0  0  0  0  0  0
  -30.1535  -19.7067   19.8995 C   0  0  0  0  0  0  0  0  0  0  0  0
  -30.0920  -18.3186   19.7768 C   0  0  0  0  0  0  0  0  0  0  0  0
  -22.9825   -7.7991   20.8277 C   0  0  0  0  0  0  0  0  0  0  0  0
  -22.5175   -9.4979   22.4814 C   0  0  0  0  0  0  0  0  0  0  0  0
  -26.2204  -27.5184   19.0535 C   0  0  0  0  0  0  0  0  0  0  0  0
  -23.4276   -5.8814   23.5752 C   0  0  0  0  0  0  0  0  0  0  0  0
  -23.9746   -4.6114   23.7583 C   0  0  0  0  0  0  0  0  0  0  0  0
  -26.9620  -28.3384   21.1975 C   0  0  0  0  0  0  0  0  0  0  0  0
  -27.9404  -19.8889   18.9478 C   0  0  0  0  0  0  0  0  0  0  0  0
  -22.0667   -3.6296   22.6478 C   0  0  0  0  0  0  0  0  0  0  0  0
  -23.8590  -10.0326   20.5445 C   0  0  0  0  0  0  0  0  0  0  0  0
  -24.1474  -11.8413   18.7688 C   0  0  0  0  0  0  0  0  0  0  0  0
  -24.4731  -36.2186   17.3485 C   0  0  0  0  0  0  0  0  0  0  0  0
  -25.1213  -29.4312   20.0674 C   0  0  0  0  0  0  0  0  0  0  0  0
  -25.0868  -34.9614   17.5071 C   0  0  0  0  0  0  0  0  0  0  0  0
  -25.9784  -29.3389   21.1732 C   0  0  0  0  0  0  0  0  0  0  0  0
  -27.8789  -18.5008   18.8250 C   0  0  0  0  0  0  0  0  0  0  0  0
  -29.0776  -20.4919   19.4851 C   0  0  0  0  0  0  0  0  0  0  0  0
  -28.9548  -17.7157   19.2395 C   0  0  0  0  0  0  0  0  0  0  0  0
  -22.3804   -8.1871   22.0245 C   0  0  0  0  0  0  0  0  0  0  0  0
  -27.0831  -27.4344   20.1424 C   0  0  0  0  0  0  0  0  0  0  0  0
  -22.2001   -6.0255   22.9285 C   0  0  0  0  0  0  0  0  0  0  0  0
  -23.2942   -3.4855   23.2946 C   0  0  0  0  0  0  0  0  0  0  0  0
  -21.5197   -4.8996   22.4648 C   0  0  0  0  0  0  0  0  0  0  0  0
  -24.6230  -10.9861   19.7808 C   0  0  0  0  0  0  0  0  0  0  0  0
  -25.2564  -12.5420   18.3621 C   0  0  0  0  0  0  0  0  0  0  0  0
  -29.9249  -24.0322   19.8036 C   0  0  0  0  0  0  0  0  0  0  0  0
  -30.3124  -22.6075   19.5472 C   0  0  0  0  0  0  0  0  0  0  0  0
  -22.8215  -11.9892   18.2435 C   0  0  0  0  0  0  0  0  0  0  0  0
  -25.3892  -32.5882   20.3230 C   0  0  0  0  0  0  0  0  0  0  0  0
  -24.3692  -32.0386   23.3528 C   0  0  0  0  0  0  0  0  0  0  0  0
  -24.0707  -29.8542   25.9578 C   0  0  0  0  0  0  0  0  0  0  0  0
  -29.9016  -15.3953   19.4954 C   0  0  0  0  0  0  0  0  0  0  0  0
  -24.4788  -37.2488   18.4500 C   0  0  0  0  0  0  0  0  0  0  0  0
  -24.0421  -30.4781   20.0254 C   0  0  0  0  0  0  0  0  0  0  0  0
  -25.8785  -30.2913   22.3357 C   0  0  0  0  0  0  0  0  0  0  0  0
  -24.7927  -36.6673   19.8261 C   0  0  0  0  0  0  0  0  0  0  0  0
  -30.1597  -11.8452   19.4082 C   0  0  0  0  0  0  0  0  0  0  0  0
  -25.9954  -35.7323   19.7489 C   0  0  0  0  0  0  0  0  0  0  0  0
  -28.7031  -11.3756   19.4142 C   0  0  0  0  0  0  0  0  0  0  0  0
  -30.3601  -13.0828   20.2811 C   0  0  0  0  0  0  0  0  0  0  0  0
  -27.9734  -22.7253   19.8224 C   0  0  0  0  0  0  0  0  0  0  0  0
  -28.0018  -13.7339   19.9916 C   0  0  0  0  0  0  0  0  0  0  0  0
  -25.7125  -34.5450   18.8206 C   0  0  1  0  0  0  0  0  0  0  0  0
  -28.4852  -24.1152   20.2104 C   0  0  2  0  0  0  0  0  0  0  0  0
  -24.3438  -31.6832   20.9109 C   0  0  1  0  0  0  0  0  0  0  0  0
  -27.7380  -12.5283   19.0747 C   0  0  2  0  0  0  0  0  0  0  0  0
  -26.6475  -17.8815   18.2480 C   0  0  0  0  0  0  0  0  0  0  0  0
  -23.2268  -29.7048   28.3164 C   0  0  0  0  0  0  0  0  0  0  0  0
  -26.8143  -33.5846   24.3230 C   0  0  0  0  0  0  0  0  0  0  0  0
  -26.4439  -32.6060   26.5975 C   0  0  0  0  0  0  0  0  0  0  0  0
  -24.7057  -34.0746   25.5753 C   0  0  0  0  0  0  0  0  0  0  0  0
  -22.1210  -27.7433   25.2495 C   0  0  0  0  0  0  0  0  0  0  0  0
  -27.7509  -25.2403   19.5131 C   0  0  0  0  0  0  0  0  0  1  0  0
  -25.0431  -31.7383   24.6698 C   0  0  1  0  0  0  0  0  0  0  0  0
  -22.8917  -29.5020   26.8470 C   0  0  2  0  0  0  0  0  0  0  0  0
  -25.7551  -32.9840   25.2688 C   0  0  0  0  0  0  0  0  0  0  0  0
  -25.9323  -11.1287   20.0032 N   0  0  0  0  0  0  0  0  0  0  0  0
  -26.2888  -12.0816   19.1252 N   0  0  0  0  0  0  0  0  0  0  0  0
  -29.1381  -21.8750   19.6100 N   0  0  0  0  0  0  0  0  0  0  0  0
  -24.8111  -31.3013   22.2451 N   0  0  0  0  0  0  0  0  0  0  0  0
  -29.4146  -14.1342   19.8995 N   0  0  0  0  0  0  0  0  0  0  0  0
  -25.4395  -13.5008   17.4296 N   0  0  0  0  0  0  0  0  0  0  0  0
  -21.7994  -11.1910   18.7750 N   0  0  0  0  0  0  0  0  0  0  0  0
  -28.9110  -16.3041   19.1247 N   0  0  0  0  0  0  0  0  0  0  0  0
  -24.8819  -33.5669   19.4897 N   0  0  0  0  0  0  0  0  0  0  0  0
  -24.0160  -31.1647   25.5326 N   0  0  0  0  0  0  0  0  0  0  0  0
  -22.4990  -28.0784   26.6466 N   0  3  0  0  0  0  0  0  0  0  0  0
  -30.7326  -24.9339   19.7053 O   0  0  0  0  0  0  0  0  0  0  0  0
  -31.4609  -22.2795   19.3338 O   0  0  0  0  0  0  0  0  0  0  0  0
  -22.5544  -12.7933   17.3186 O   0  0  0  0  0  0  0  0  0  0  0  0
  -26.5686  -32.4126   20.6055 O   0  0  0  0  0  0  0  0  0  0  0  0
  -23.4783  -32.8907   23.3098 O   0  0  0  0  0  0  0  0  0  0  0  0
  -24.9538  -29.0486   25.6724 O   0  0  0  0  0  0  0  0  0  0  0  0
  -31.1098  -15.6413   19.4533 O   0  0  0  0  0  0  0  0  0  0  0  0
  -21.6587   -7.2871   22.7468 O   0  0  0  0  0  0  0  0  0  0  0  0
  -28.0405  -26.4681   20.1802 O   0  0  0  0  0  0  0  0  0  1  0  0
  -23.8204   -2.2662   23.4691 F   0  0  0  0  0  0  0  0  0  0  0  0
  -20.3407   -5.0318   21.8417 F   0  0  0  0  0  0  0  0  0  0  0  0
  1  2  1  0  0  0  0
  1  5  2  0  0  0  0
  2  6  2  0  0  0  0
  3 10  2  0  0  0  0
  3 18  1  0  0  0  0
  4 11  1  0  0  0  0
  4 18  2  0  0  0  0
  5 20  1  0  0  0  0
  6 22  1  0  0  0  0
  7 12  2  0  0  0  0
  7 21  1  0  0  0  0
  8  9  2  0  0  0  0
  8 25  1  0  0  0  0
  9 26  1  0  0  0  0
 10 27  1  0  0  0  0
 11 27  2  0  0  0  0
 12 28  1  0  0  0  0
 13 14  2  0  0  0  0
 13 29  1  0  0  0  0
 14 30  1  0  0  0  0
 15 23  1  0  0  0  0
 15 28  2  0  0  0  0
 16 24  1  0  0  0  0
 16 25  2  0  0  0  0
 17 30  2  0  0  0  0
 17 31  1  0  0  0  0
 18 32  1  0  0  0  0
 19 32  1  0  0  0  0
 19 33  2  0  0  0  0
 19 36  1  0  0  0  0
 20 22  2  0  0  0  0
 20 41  1  0  0  0  0
 21 23  2  0  0  0  0
 21 42  1  0  0  0  0
 22 51  1  0  0  0  0
 23 43  1  0  0  0  0
 24 26  2  0  0  0  0
 24 55  1  0  0  0  0
 25 67  1  0  0  0  0
 26 72  1  0  0  0  0
 27 83  1  0  0  0  0
 28 84  1  0  0  0  0
 29 31  2  0  0  0  0
 29 83  1  0  0  0  0
 30 85  1  0  0  0  0
 31 86  1  0  0  0  0
 32 65  2  0  0  0  0
 33 66  1  0  0  0  0
 33 70  1  0  0  0  0
 34 35  1  0  0  0  0
 34 52  1  0  0  0  0
 34 76  2  0  0  0  0
 35 67  1  0  0  0  0
 35 77  2  0  0  0  0
 36 71  1  0  0  0  0
 36 78  2  0  0  0  0
 37 53  1  0  0  0  0
 37 73  1  0  0  0  0
 37 79  2  0  0  0  0
 38 62  1  0  0  0  0
 38 68  1  0  0  0  0
 38 80  2  0  0  0  0
 39 63  1  0  0  0  0
 39 74  1  0  0  0  0
 39 81  2  0  0  0  0
 40 69  1  0  0  0  0
 40 72  1  0  0  0  0
 40 82  2  0  0  0  0
 41 44  1  0  0  0  0
 42 53  1  0  0  0  0
 43 68  1  0  0  0  0
 44 46  1  0  0  0  0
 45 47  1  0  0  0  0
 45 48  1  0  0  0  0
 46 51  1  0  0  0  0
 47 54  1  0  0  0  0
 48 69  1  0  0  0  0
 49 52  1  0  0  0  0
 49 67  1  0  0  0  0
 50 54  1  0  0  0  0
 50 69  1  0  0  0  0
 51 73  1  0  0  0  0
 52 61  1  0  0  0  0
 53 68  1  0  0  0  0
 54 66  1  0  0  0  0
 56 63  1  0  0  0  0
 57 64  1  0  0  0  0
 58 64  1  0  0  0  0
 59 64  1  0  0  0  0
 60 75  1  0  0  0  0
 61 84  1  0  0  0  0
 62 64  1  0  0  0  0
 62 74  1  0  0  0  0
 63 75  1  0  0  0  0
 65 66  1  0  0  0  0
M  CHG  1  75   1
M  ISO  4  40 100  61 101  72 100  84 101
M  END
> <Batch ID>
0063

> <Smiles>
CNC(C)C(=O)NC(C(=O)N1Cc2cc([101O:1][101CH2:1]C3CN(c4ccc([100NH:0][100C:0](=O)N5CCCC(n6nc(-c7ccc(Oc8ccc(F)cc8F)cc7)c(C(N)=O)c6N)C5)c(C)c4)C(=O)C3=O)ccc2CC1C(=O)NC1CCCc2ccccc21)C(C)(C)C

> <Shape>
0.297

> <Color>
0.138

> <Negative vol penalty>
0.000

$$$$

  -OEChem-04042323123D

 86 94  0     1  0  0  0  0  0999 V2000
  -30.8941  -24.7346   14.7397 C   0  0  0  0  0  0  0  0  0  0  0  0
  -29.5370  -24.7733   15.0433 C   0  0  0  0  0  0  0  0  0  0  0  0
  -24.2206  -12.4226   21.3888 C   0  0  0  0  0  0  0  0  0  0  0  0
  -25.0794  -14.3423   20.1997 C   0  0  0  0  0  0  0  0  0  0  0  0
  -17.2610  -23.0572   20.5930 C   0  0  0  0  0  0  0  0  0  0  0  0
  -31.8388  -24.8594   15.7575 C   0  0  0  0  0  0  0  0  0  0  0  0
  -29.1238  -24.9359   16.3651 C   0  0  0  0  0  0  0  0  0  0  0  0
  -24.1838  -27.9757   18.3305 C   0  0  0  0  0  0  0  0  0  0  0  0
  -17.3758  -21.6676   20.5580 C   0  0  0  0  0  0  0  0  0  0  0  0
  -25.2385  -11.6345   20.8518 C   0  0  0  0  0  0  0  0  0  0  0  0
  -26.0974  -13.5543   19.6626 C   0  0  0  0  0  0  0  0  0  0  0  0
  -22.9109  -27.5517   18.7093 C   0  0  0  0  0  0  0  0  0  0  0  0
  -29.0647  -12.2922   20.6738 C   0  0  0  0  0  0  0  0  0  0  0  0
  -30.3578  -12.8153   20.6779 C   0  0  0  0  0  0  0  0  0  0  0  0
  -23.6052  -27.5513   21.0196 C   0  0  0  0  0  0  0  0  0  0  0  0
  -19.1157  -21.7691   22.2311 C   0  0  0  0  0  0  0  0  0  0  0  0
  -30.4304  -12.6544   18.2683 C   0  0  0  0  0  0  0  0  0  0  0  0
  -24.1410  -13.7765   21.0628 C   0  0  0  0  0  0  0  0  0  0  0  0
  -18.0737  -23.8029   21.4470 C   0  0  0  0  0  0  0  0  0  0  0  0
  -23.1240  -15.3210   22.8199 C   0  0  0  0  0  0  0  0  0  0  0  0
  -31.4369  -25.0333   17.0913 C   0  0  0  0  0  0  0  0  0  0  0  0
  -25.1819  -28.1805   19.2939 C   0  0  0  0  0  0  0  0  0  0  0  0
  -30.0639  -25.0619   17.4019 C   0  0  0  0  0  0  0  0  0  0  0  0
  -24.8893  -27.9803   20.6506 C   0  0  0  0  0  0  0  0  0  0  0  0
  -19.0010  -23.1588   22.2661 C   0  0  0  0  0  0  0  0  0  0  0  0
  -18.3031  -21.0235   21.3771 C   0  0  0  0  0  0  0  0  0  0  0  0
  -26.1769  -12.2003   19.9887 C   0  0  0  0  0  0  0  0  0  0  0  0
  -22.6222  -27.3367   20.0538 C   0  0  0  0  0  0  0  0  0  0  0  0
  -28.4545  -11.9502   19.4670 C   0  0  0  0  0  0  0  0  0  0  0  0
  -31.0406  -12.9964   19.4751 C   0  0  0  0  0  0  0  0  0  0  0  0
  -29.1373  -12.1313   18.2643 C   0  0  0  0  0  0  0  0  0  0  0  0
  -23.0894  -14.5909   21.6168 C   0  0  0  0  0  0  0  0  0  0  0  0
  -21.8901  -15.9198   22.8937 C   0  0  0  0  0  0  0  0  0  0  0  0
  -17.9304  -25.2815   21.4630 C   0  0  0  0  0  0  0  0  0  0  0  0
  -24.1772  -15.4468   23.7845 C   0  0  0  0  0  0  0  0  0  0  0  0
  -28.0296  -26.8964   19.8816 C   0  0  0  0  0  0  0  0  0  0  0  0
  -28.1883  -29.2353   22.1236 C   0  0  0  0  0  0  0  0  0  0  0  0
  -26.5287  -31.4051   24.1693 C   0  0  0  0  0  0  0  0  0  0  0  0
  -20.4744  -27.9608   20.7014 C   0  0  0  0  0  0  0  0  0  1  0  0
  -17.6889  -18.7242   20.5510 C   0  0  0  0  0  0  0  0  0  0  0  0
  -32.4946  -25.1164   18.1632 C   0  0  0  0  0  0  0  0  0  0  0  0
  -26.5422  -28.6636   18.8714 C   0  0  0  0  0  0  0  0  0  0  0  0
  -25.9197  -28.2055   21.7257 C   0  0  0  0  0  0  0  0  0  0  0  0
  -31.9747  -25.6612   19.4910 C   0  0  0  0  0  0  0  0  0  0  0  0
  -17.7034  -15.1870   20.1448 C   0  0  0  0  0  0  0  0  0  0  0  0
  -30.6610  -24.9839   19.8683 C   0  0  0  0  0  0  0  0  0  0  0  0
  -19.1088  -14.7767   20.5905 C   0  0  0  0  0  0  0  0  0  0  0  0
  -17.7113  -16.5214   19.4011 C   0  0  0  0  0  0  0  0  0  0  0  0
  -19.7718  -17.2152   20.5597 C   0  0  0  0  0  0  0  0  0  0  0  0
  -29.5764  -25.2616   18.8205 C   0  0  1  0  0  0  0  0  0  0  0  0
  -27.6324  -28.3454   19.8901 C   0  0  1  0  0  0  0  0  0  0  0  0
  -19.8059  -15.9090   21.3698 C   0  0  2  0  0  0  0  0  0  0  0  0
  -19.8843  -23.9336   23.1888 C   0  0  0  0  0  0  0  0  0  0  0  0
  -26.9280  -33.1635   25.9145 C   0  0  0  0  0  0  0  0  0  0  0  0
  -18.7846  -27.9657   22.5234 C   0  0  0  0  0  0  0  0  0  0  0  0
  -18.0577  -27.9613   20.1123 C   0  0  0  0  0  0  0  0  0  0  0  0
  -28.8162  -27.0596   24.1686 C   0  0  0  0  0  0  0  0  0  0  0  0
  -28.2667  -28.6997   25.9787 C   0  0  0  0  0  0  0  0  0  0  0  0
  -30.1639  -29.1509   24.4232 C   0  0  0  0  0  0  0  0  0  0  0  0
  -25.2217  -33.4939   22.5299 C   0  0  0  0  0  0  0  0  0  0  0  0
  -27.7908  -29.3536   23.5751 C   0  0  1  0  0  0  0  0  0  0  0  0
  -26.7210  -32.8875   24.4333 C   0  0  2  0  0  0  0  0  0  0  0  0
  -19.0907  -27.4471   21.1164 C   0  0  0  0  0  0  0  0  0  0  0  0
  -28.7403  -28.5598   24.5162 C   0  0  0  0  0  0  0  0  0  0  0  0
  -21.9257  -14.7132   20.9727 N   0  0  0  0  0  0  0  0  0  0  0  0
  -21.2175  -15.5270   21.7741 N   0  0  0  0  0  0  0  0  0  0  0  0
  -27.2368  -28.6717   21.2617 N   0  0  0  0  0  0  0  0  0  0  0  0
  -18.3838  -17.5470   20.2016 N   0  0  0  0  0  0  0  0  0  0  0  0
  -21.3256  -16.7387   23.8065 N   0  0  0  0  0  0  0  0  0  0  0  0
  -25.3797  -14.7648   23.5535 N   0  0  0  0  0  0  0  0  0  0  0  0
  -18.4189  -19.6118   21.3409 N   0  0  0  0  0  0  0  0  0  0  0  0
  -19.0643  -25.9992   21.1232 N   0  0  0  0  0  0  0  0  0  0  0  0
  -29.0406  -26.5954   18.9890 N   0  0  0  0  0  0  0  0  0  0  0  0
  -27.7202  -30.7819   23.8640 N   0  0  0  0  0  0  0  0  0  0  0  0
  -25.5284  -33.6544   23.9746 N   0  3  0  0  0  0  0  0  0  0  0  0
  -16.8540  -25.7766   21.7866 O   0  0  0  0  0  0  0  0  0  0  0  0
  -24.0498  -16.1301   24.8287 O   0  0  0  0  0  0  0  0  0  0  0  0
  -27.4621  -26.1099   20.6306 O   0  0  0  0  0  0  0  0  0  0  0  0
  -29.2992  -29.6350   21.7663 O   0  0  0  0  0  0  0  0  0  0  0  0
  -25.4318  -30.8542   24.2315 O   0  0  0  0  0  0  0  0  0  0  0  0
  -20.7495  -29.1546   20.6221 O   0  0  0  0  0  0  0  0  0  0  0  0
  -16.5222  -18.9175   20.1998 O   0  0  0  0  0  0  0  0  0  0  0  0
  -27.1704  -11.4317   19.4647 O   0  0  0  0  0  0  0  0  0  0  0  0
  -21.3807  -26.9222   20.4263 O   0  0  0  0  0  0  0  0  0  1  0  0
  -32.2817  -13.5002   19.4790 F   0  0  0  0  0  0  0  0  0  0  0  0
  -28.5558  -11.8056   17.1017 F   0  0  0  0  0  0  0  0  0  0  0  0
  1  2  1  0  0  0  0
  1  6  2  0  0  0  0
  2  7  2  0  0  0  0
  3 10  2  0  0  0  0
  3 18  1  0  0  0  0
  4 11  1  0  0  0  0
  4 18  2  0  0  0  0
  5  9  2  0  0  0  0
  5 19  1  0  0  0  0
  6 21  1  0  0  0  0
  7 23  1  0  0  0  0
  8 12  2  0  0  0  0
  8 22  1  0  0  0  0
  9 26  1  0  0  0  0
 10 27  1  0  0  0  0
 11 27  2  0  0  0  0
 12 28  1  0  0  0  0
 13 14  2  0  0  0  0
 13 29  1  0  0  0  0
 14 30  1  0  0  0  0
 15 24  1  0  0  0  0
 15 28  2  0  0  0  0
 16 25  1  0  0  0  0
 16 26  2  0  0  0  0
 17 30  2  0  0  0  0
 17 31  1  0  0  0  0
 18 32  1  0  0  0  0
 19 25  2  0  0  0  0
 19 34  1  0  0  0  0
 20 32  1  0  0  0  0
 20 33  2  0  0  0  0
 20 35  1  0  0  0  0
 21 23  2  0  0  0  0
 21 41  1  0  0  0  0
 22 24  2  0  0  0  0
 22 42  1  0  0  0  0
 23 50  1  0  0  0  0
 24 43  1  0  0  0  0
 25 53  1  0  0  0  0
 26 71  1  0  0  0  0
 27 83  1  0  0  0  0
 28 84  1  0  0  0  0
 29 31  2  0  0  0  0
 29 83  1  0  0  0  0
 30 85  1  0  0  0  0
 31 86  1  0  0  0  0
 32 65  2  0  0  0  0
 33 66  1  0  0  0  0
 33 69  1  0  0  0  0
 34 72  1  0  0  0  0
 34 76  2  0  0  0  0
 35 70  1  0  0  0  0
 35 77  2  0  0  0  0
 36 51  1  0  0  0  0
 36 73  1  0  0  0  0
 36 78  2  0  0  0  0
 37 61  1  0  0  0  0
 37 67  1  0  0  0  0
 37 79  2  0  0  0  0
 38 62  1  0  0  0  0
 38 74  1  0  0  0  0
 38 80  2  0  0  0  0
 39 63  1  0  0  0  0
 39 81  2  0  0  0  0
 39 84  1  0  0  0  0
 40 68  1  0  0  0  0
 40 71  1  0  0  0  0
 40 82  2  0  0  0  0
 41 44  1  0  0  0  0
 42 51  1  0  0  0  0
 43 67  1  0  0  0  0
 44 46  1  0  0  0  0
 45 47  1  0  0  0  0
 45 48  1  0  0  0  0
 46 50  1  0  0  0  0
 47 52  1  0  0  0  0
 48 68  1  0  0  0  0
 49 52  1  0  0  0  0
 49 68  1  0  0  0  0
 50 73  1  0  0  0  0
 51 67  1  0  0  0  0
 52 66  1  0  0  0  0
 54 62  1  0  0  0  0
 55 63  1  0  0  0  0
 56 63  1  0  0  0  0
 57 64  1  0  0  0  0
 58 64  1  0  0  0  0
 59 64  1  0  0  0  0
 60 75  1  0  0  0  0
 61 64  1  0  0  0  0
 61 74  1  0  0  0  0
 62 75  1  0  0  0  0
 63 72  1  0  0  0  0
 65 66  1  0  0  0  0
M  CHG  1  75   1
M  ISO  4  39 101  40 100  71 100  84 101
M  END
> <Batch ID>
0063

> <Smiles>
CNC(C)C(=O)NC(C(=O)N1Cc2cc([101O:1][101C:1](=O)C(C)(C)NC(=O)c3ccc([100NH:0][100C:0](=O)N4CCCC(n5nc(-c6ccc(Oc7ccc(F)cc7F)cc6)c(C(N)=O)c5N)C4)cc3C)ccc2CC1C(=O)NC1CCCc2ccccc21)C(C)(C)C

> <Shape>
0.245

> <Color>
0.080

> <Negative vol penalty>
0.000

$$$$

  -OEChem-04042323123D

 84 92  0     1  0  0  0  0  0999 V2000
  -30.3438  -35.2066   18.7619 C   0  0  0  0  0  0  0  0  0  0  0  0
  -30.2359  -33.8620   19.1025 C   0  0  0  0  0  0  0  0  0  0  0  0
  -24.9595   -8.4290   21.4400 C   0  0  0  0  0  0  0  0  0  0  0  0
  -23.6002   -9.5694   19.8003 C   0  0  0  0  0  0  0  0  0  0  0  0
  -29.5617  -36.1558   19.4185 C   0  0  0  0  0  0  0  0  0  0  0  0
  -29.3464  -33.4660   20.1007 C   0  0  0  0  0  0  0  0  0  0  0  0
  -26.6678  -29.3691   18.8025 C   0  0  0  0  0  0  0  0  0  0  0  0
  -29.0681  -19.1021   15.3958 C   0  0  0  0  0  0  0  0  0  0  0  0
  -23.9028   -7.5600   21.7117 C   0  0  0  0  0  0  0  0  0  0  0  0
  -22.5435   -8.7004   20.0719 C   0  0  0  0  0  0  0  0  0  0  0  0
  -27.3086  -28.1342   18.8936 C   0  0  0  0  0  0  0  0  0  0  0  0
  -21.0232   -7.6172   23.4806 C   0  0  0  0  0  0  0  0  0  0  0  0
  -29.1918  -17.7270   15.1978 C   0  0  0  0  0  0  0  0  0  0  0  0
  -20.7346   -7.3473   24.8183 C   0  0  0  0  0  0  0  0  0  0  0  0
  -26.2116  -27.7276   21.0032 C   0  0  0  0  0  0  0  0  0  0  0  0
  -28.6067  -18.7236   17.7369 C   0  0  0  0  0  0  0  0  0  0  0  0
  -21.1527   -4.9988   24.4345 C   0  0  0  0  0  0  0  0  0  0  0  0
  -24.8082   -9.4338   20.4844 C   0  0  0  0  0  0  0  0  0  0  0  0
  -26.9147  -10.1624   19.2437 C   0  0  0  0  0  0  0  0  0  0  0  0
  -28.6552  -35.7701   20.4186 C   0  0  0  0  0  0  0  0  0  0  0  0
  -25.8011  -29.7979   19.8180 C   0  0  0  0  0  0  0  0  0  0  0  0
  -28.5523  -34.4111   20.7722 C   0  0  0  0  0  0  0  0  0  0  0  0
  -25.5591  -28.9671   20.9213 C   0  0  0  0  0  0  0  0  0  0  0  0
  -28.7756  -19.6004   16.6654 C   0  0  0  0  0  0  0  0  0  0  0  0
  -28.7303  -17.3484   17.5389 C   0  0  0  0  0  0  0  0  0  0  0  0
  -22.6948   -7.6957   21.0276 C   0  0  0  0  0  0  0  0  0  0  0  0
  -27.0828  -27.3145   19.9955 C   0  0  0  0  0  0  0  0  0  0  0  0
  -21.3765   -6.5780   22.6198 C   0  0  0  0  0  0  0  0  0  0  0  0
  -20.7993   -6.0381   25.2953 C   0  0  0  0  0  0  0  0  0  0  0  0
  -29.0228  -16.8501   16.2693 C   0  0  0  0  0  0  0  0  0  0  0  0
  -21.4413   -5.2688   23.0968 C   0  0  0  0  0  0  0  0  0  0  0  0
  -25.8992  -10.3321   20.2038 C   0  0  0  0  0  0  0  0  0  0  0  0
  -27.6989  -11.2827   19.3716 C   0  0  0  0  0  0  0  0  0  0  0  0
  -27.1298   -9.0881   18.3188 C   0  0  0  0  0  0  0  0  0  0  0  0
  -25.7618  -32.2421   21.8498 C   0  0  0  0  0  0  0  0  0  0  0  0
  -22.8381  -31.0595   22.6085 C   0  0  0  0  0  0  0  0  0  0  0  0
  -28.3642  -21.6597   18.0556 C   0  0  0  0  0  0  0  0  0  0  0  0
  -20.7292  -28.3775   22.6884 C   0  0  0  0  0  0  0  0  0  0  0  0
  -28.2654  -16.7914   19.9514 C   0  0  0  0  0  0  0  0  0  0  0  0
  -27.8651  -36.8377   21.1332 C   0  0  0  0  0  0  0  0  0  0  0  0
  -25.0969  -31.1210   19.6918 C   0  0  0  0  0  0  0  0  0  0  0  0
  -24.6221  -29.3723   22.0287 C   0  0  0  0  0  0  0  0  0  0  0  0
  -26.6756  -36.2920   21.9190 C   0  0  0  0  0  0  0  0  0  0  0  0
  -27.7285  -14.8955   22.9169 C   0  0  0  0  0  0  0  0  0  0  0  0
  -27.0909  -35.0748   22.7393 C   0  0  0  0  0  0  0  0  0  0  0  0
  -27.2882  -13.5253   22.3964 C   0  0  0  0  0  0  0  0  0  0  0  0
  -27.1819  -16.0320   22.0547 C   0  0  0  0  0  0  0  0  0  0  0  0
  -27.0247  -14.5432   20.0983 C   0  0  0  0  0  0  0  0  0  0  0  0
  -27.5810  -33.9395   21.8325 C   0  0  1  0  0  0  0  0  0  0  0  0
  -24.6326  -31.6811   21.0327 C   0  0  1  0  0  0  0  0  0  0  0  0
  -27.6044  -13.3640   20.8965 C   0  0  2  0  0  0  0  0  0  0  0  0
  -18.4171  -27.7102   23.3997 C   0  0  0  0  0  0  0  0  0  0  0  0
  -23.7481  -31.0197   25.5205 C   0  0  0  0  0  0  0  0  0  0  0  0
  -21.8243  -29.5000   26.0282 C   0  0  0  0  0  0  0  0  0  0  0  0
  -21.3991  -31.8042   25.1723 C   0  0  0  0  0  0  0  0  0  0  0  0
  -19.9636  -27.6490   19.9240 C   0  0  0  0  0  0  0  0  0  0  0  0
  -28.3203  -23.1646   17.8296 C   0  0  0  0  0  0  0  0  0  0  0  0
  -28.0099  -23.9412   19.1045 C   0  0  0  0  0  0  0  0  0  0  0  0
  -28.0184  -25.4438   18.8637 C   0  0  0  0  0  0  0  0  0  1  0  0
  -22.3186  -30.0488   23.6022 C   0  0  1  0  0  0  0  0  0  0  0  0
  -19.2819  -28.2210   22.2578 C   0  0  2  0  0  0  0  0  0  0  0  0
  -22.3417  -30.5861   25.0611 C   0  0  0  0  0  0  0  0  0  0  0  0
  -26.0245  -11.4705   20.8910 N   0  0  0  0  0  0  0  0  0  0  0  0
  -27.1279  -12.0263   20.3622 N   0  0  0  0  0  0  0  0  0  0  0  0
  -23.9623  -30.6779   21.8626 N   0  0  0  0  0  0  0  0  0  0  0  0
  -27.5234  -15.8138   20.6474 N   0  0  0  0  0  0  0  0  0  0  0  0
  -28.8143  -11.6945   18.7323 N   0  0  0  0  0  0  0  0  0  0  0  0
  -26.2287   -8.0147   18.3203 N   0  0  0  0  0  0  0  0  0  0  0  0
  -28.6501  -20.9957   16.8660 N   0  0  0  0  0  0  0  0  0  0  0  0
  -28.5585  -16.4596   18.6290 N   0  0  0  0  0  0  0  0  0  0  0  0
  -26.4584  -33.2583   21.2240 N   0  0  0  0  0  0  0  0  0  0  0  0
  -20.9949  -29.6561   23.1310 N   0  0  0  0  0  0  0  0  0  0  0  0
  -19.1799  -27.2589   21.1243 N   0  3  0  0  0  0  0  0  0  0  0  0
  -28.1019   -9.0725   17.5262 O   0  0  0  0  0  0  0  0  0  0  0  0
  -25.9838  -31.7876   22.9660 O   0  0  0  0  0  0  0  0  0  0  0  0
  -22.2631  -32.1448   22.4930 O   0  0  0  0  0  0  0  0  0  0  0  0
  -28.1658  -21.1608   19.1583 O   0  0  0  0  0  0  0  0  0  0  0  0
  -21.5417  -27.4566   22.6406 O   0  0  0  0  0  0  0  0  0  0  0  0
  -28.6385  -17.8332   20.4968 O   0  0  0  0  0  0  0  0  0  0  0  0
  -21.6635   -6.8477   21.2922 O   0  0  0  0  0  0  0  0  0  0  0  0
  -27.7075  -26.1090   20.0873 O   0  0  0  0  0  0  0  0  0  1  0  0
  -20.5237   -5.7792   26.5802 F   0  0  0  0  0  0  0  0  0  0  0  0
  -29.1437  -15.5305   16.0669 F   0  0  0  0  0  0  0  0  0  0  0  0
  -21.7813   -4.2664   22.2749 F   0  0  0  0  0  0  0  0  0  0  0  0
  1  2  1  0  0  0  0
  1  5  2  0  0  0  0
  2  6  2  0  0  0  0
  3  9  2  0  0  0  0
  3 18  1  0  0  0  0
  4 10  1  0  0  0  0
  4 18  2  0  0  0  0
  5 20  1  0  0  0  0
  6 22  1  0  0  0  0
  7 11  2  0  0  0  0
  7 21  1  0  0  0  0
  8 13  2  0  0  0  0
  8 24  1  0  0  0  0
  9 26  1  0  0  0  0
 10 26  2  0  0  0  0
 11 27  1  0  0  0  0
 12 14  2  0  0  0  0
 12 28  1  0  0  0  0
 13 30  1  0  0  0  0
 14 29  1  0  0  0  0
 15 23  1  0  0  0  0
 15 27  2  0  0  0  0
 16 24  2  0  0  0  0
 16 25  1  0  0  0  0
 17 29  2  0  0  0  0
 17 31  1  0  0  0  0
 18 32  1  0  0  0  0
 19 32  1  0  0  0  0
 19 33  2  0  0  0  0
 19 34  1  0  0  0  0
 20 22  2  0  0  0  0
 20 40  1  0  0  0  0
 21 23  2  0  0  0  0
 21 41  1  0  0  0  0
 22 49  1  0  0  0  0
 23 42  1  0  0  0  0
 24 69  1  0  0  0  0
 25 30  2  0  0  0  0
 25 70  1  0  0  0  0
 26 80  1  0  0  0  0
 27 81  1  0  0  0  0
 28 31  2  0  0  0  0
 28 80  1  0  0  0  0
 29 82  1  0  0  0  0
 30 83  1  0  0  0  0
 31 84  1  0  0  0  0
 32 63  2  0  0  0  0
 33 64  1  0  0  0  0
 33 67  1  0  0  0  0
 34 68  1  0  0  0  0
 34 74  2  0  0  0  0
 35 50  1  0  0  0  0
 35 71  1  0  0  0  0
 35 75  2  0  0  0  0
 36 60  1  0  0  0  0
 36 65  1  0  0  0  0
 36 76  2  0  0  0  0
 37 57  1  0  0  0  0
 37 69  1  0  0  0  0
 37 77  2  0  0  0  0
 38 61  1  0  0  0  0
 38 72  1  0  0  0  0
 38 78  2  0  0  0  0
 39 66  1  0  0  0  0
 39 70  1  0  0  0  0
 39 79  2  0  0  0  0
 40 43  1  0  0  0  0
 41 50  1  0  0  0  0
 42 65  1  0  0  0  0
 43 45  1  0  0  0  0
 44 46  1  0  0  0  0
 44 47  1  0  0  0  0
 45 49  1  0  0  0  0
 46 51  1  0  0  0  0
 47 66  1  0  0  0  0
 48 51  1  0  0  0  0
 48 66  1  0  0  0  0
 49 71  1  0  0  0  0
 50 65  1  0  0  0  0
 51 64  1  0  0  0  0
 52 61  1  0  0  0  0
 53 62  1  0  0  0  0
 54 62  1  0  0  0  0
 55 62  1  0  0  0  0
 56 73  1  0  0  0  0
 57 58  1  0  0  0  0
 58 59  1  0  0  0  0
 59 81  1  0  0  0  0
 60 62  1  0  0  0  0
 60 72  1  0  0  0  0
 61 73  1  0  0  0  0
 63 64  1  0  0  0  0
M  CHG  1  73   1
M  ISO  4  39 100  59 101  70 100  81 101
M  END
> <Batch ID>
0063

> <Smiles>
CNC(C)C(=O)NC(C(=O)N1Cc2cc([101O:1][101CH2:1]CCC(=O)Nc3ccc(F)c([100NH:0][100C:0](=O)N4CCCC(n5nc(-c6ccc(Oc7ccc(F)cc7F)cc6)c(C(N)=O)c5N)C4)c3)ccc2CC1C(=O)NC1CCCc2ccccc21)C(C)(C)C

> <Shape>
0.263

> <Color>
0.100

> <Negative vol penalty>
0.000

$$$$

  -OEChem-04042323123D

 86 95  0     1  0  0  0  0  0999 V2000
  -17.6643  -24.9162   21.5054 C   0  0  0  0  0  0  0  0  0  0  0  0
  -18.9844  -24.7170   21.1143 C   0  0  0  0  0  0  0  0  0  0  0  0
  -31.9534  -19.1682   19.8848 C   0  0  0  0  0  0  0  0  0  0  0  0
  -22.4630  -12.2462   21.8193 C   0  0  0  0  0  0  0  0  0  0  0  0
  -23.4207  -10.0797   21.3439 C   0  0  0  0  0  0  0  0  0  0  0  0
  -17.3198  -26.0494   22.2410 C   0  0  0  0  0  0  0  0  0  0  0  0
  -19.9607  -25.6515   21.4577 C   0  0  0  0  0  0  0  0  0  0  0  0
  -24.2016  -23.4864   23.1818 C   0  0  0  0  0  0  0  0  0  0  0  0
  -31.1306  -20.1214   19.2849 C   0  0  0  0  0  0  0  0  0  0  0  0
  -31.5547  -17.8323   19.9306 C   0  0  0  0  0  0  0  0  0  0  0  0
  -21.4800  -11.6400   22.6015 C   0  0  0  0  0  0  0  0  0  0  0  0
  -22.4377   -9.4735   22.1261 C   0  0  0  0  0  0  0  0  0  0  0  0
  -25.0676  -22.9401   22.2356 C   0  0  0  0  0  0  0  0  0  0  0  0
  -21.8259   -8.9788   25.4126 C   0  0  0  0  0  0  0  0  0  0  0  0
  -22.2310   -7.9878   26.3067 C   0  0  0  0  0  0  0  0  0  0  0  0
  -26.4548  -24.9085   22.3776 C   0  0  0  0  0  0  0  0  0  0  0  0
  -20.8025   -6.3933   25.1867 C   0  0  0  0  0  0  0  0  0  0  0  0
  -23.4334  -11.4660   21.1905 C   0  0  0  0  0  0  0  0  0  0  0  0
  -24.2536  -12.8823   19.2337 C   0  0  0  0  0  0  0  0  0  0  0  0
  -18.2941  -26.9934   22.6019 C   0  0  0  0  0  0  0  0  0  0  0  0
  -24.4502  -24.7547   23.7258 C   0  0  0  0  0  0  0  0  0  0  0  0
  -19.6287  -26.7991   22.1977 C   0  0  0  0  0  0  0  0  0  0  0  0
  -25.5918  -25.4676   23.3324 C   0  0  0  0  0  0  0  0  0  0  0  0
  -29.5102  -18.4029   18.7767 C   0  0  0  0  0  0  0  0  0  0  0  0
  -29.9090  -19.7388   18.7309 C   0  0  0  0  0  0  0  0  0  0  0  0
  -30.3331  -17.4496   19.3765 C   0  0  0  0  0  0  0  0  0  0  0  0
  -21.4673  -10.2537   22.7549 C   0  0  0  0  0  0  0  0  0  0  0  0
  -26.1929  -23.6523   21.8312 C   0  0  0  0  0  0  0  0  0  0  0  0
  -20.9090   -8.6771   24.4056 C   0  0  0  0  0  0  0  0  0  0  0  0
  -21.7193   -6.6951   26.1938 C   0  0  0  0  0  0  0  0  0  0  0  0
  -20.3973   -7.3844   24.2926 C   0  0  0  0  0  0  0  0  0  0  0  0
  -24.4488  -12.0916   20.3819 C   0  0  0  0  0  0  0  0  0  0  0  0
  -25.5214  -13.2338   18.8392 C   0  0  0  0  0  0  0  0  0  0  0  0
  -27.2797  -22.2965   18.6855 C   0  0  0  0  0  0  0  0  0  0  0  0
  -28.7096  -20.6586   16.7576 C   0  0  0  0  0  0  0  0  0  0  0  0
  -26.5378  -22.8224   19.6718 C   0  0  0  0  0  0  0  0  0  1  0  0
  -23.0352  -13.2650   18.5820 C   0  0  0  0  0  0  0  0  0  0  0  0
  -22.9092  -27.5348   23.7306 C   0  0  0  0  0  0  0  0  0  0  0  0
  -25.2820  -28.4027   25.7650 C   0  0  0  0  0  0  0  0  0  0  0  0
  -28.4635  -27.8944   26.8907 C   0  0  0  0  0  0  0  0  0  0  0  0
  -30.6616  -15.0314   20.0014 C   0  0  0  0  0  0  0  0  0  0  0  0
  -17.8654  -28.2266   23.3570 C   0  0  0  0  0  0  0  0  0  0  0  0
  -23.5207  -25.3186   24.7652 C   0  0  0  0  0  0  0  0  0  0  0  0
  -25.9146  -26.8243   23.9011 C   0  0  0  0  0  0  0  0  0  0  0  0
  -26.6885  -22.0119   17.3338 C   0  0  0  0  0  0  0  0  0  0  0  0
  -28.7355  -21.9555   18.8772 C   0  0  0  0  0  0  0  0  0  0  0  0
  -27.7863  -21.7771   16.3072 C   0  0  0  0  0  0  0  0  0  0  0  0
  -19.0260  -28.9801   24.0018 C   0  0  0  0  0  0  0  0  0  0  0  0
  -30.0375  -11.5467   20.3820 C   0  0  0  0  0  0  0  0  0  0  0  0
  -20.1740  -29.1417   23.0104 C   0  0  0  0  0  0  0  0  0  0  0  0
  -28.5119  -11.4429   20.3215 C   0  0  0  0  0  0  0  0  0  0  0  0
  -30.4915  -12.8124   21.1070 C   0  0  0  0  0  0  0  0  0  0  0  0
  -28.3863  -13.9578   20.5366 C   0  0  0  0  0  0  0  0  0  0  0  0
  -20.7206  -27.7777   22.5722 C   0  0  1  0  0  0  0  0  0  0  0  0
  -23.5952  -26.8386   24.8719 C   0  0  1  0  0  0  0  0  0  0  0  0
  -27.8812  -12.7317   19.7587 C   0  0  2  0  0  0  0  0  0  0  0  0
  -28.1983  -17.9922   18.1826 C   0  0  0  0  0  0  0  0  0  0  0  0
  -30.1372  -28.7851   28.5347 C   0  0  0  0  0  0  0  0  0  0  0  0
  -25.8148  -30.7816   23.9301 C   0  0  0  0  0  0  0  0  0  0  0  0
  -28.0295  -31.0694   25.0617 C   0  0  0  0  0  0  0  0  0  0  0  0
  -25.9208  -31.3044   26.3734 C   0  0  0  0  0  0  0  0  0  0  0  0
  -28.5929  -25.3137   28.3335 C   0  0  0  0  0  0  0  0  0  0  0  0
  -26.6556  -29.0093   25.6089 C   0  0  1  0  0  0  0  0  0  0  0  0
  -29.0278  -27.7729   28.2947 C   0  0  2  0  0  0  0  0  0  0  0  0
  -26.5983  -30.5165   25.2312 C   0  0  0  0  0  0  0  0  0  0  0  0
  -25.7390  -11.9488   20.6964 N   0  0  0  0  0  0  0  0  0  0  0  0
  -26.3660  -12.6544   19.7399 N   0  0  0  0  0  0  0  0  0  0  0  0
  -29.0754  -20.7401   18.1182 N   0  0  0  0  0  0  0  0  0  0  0  0
  -24.9720  -27.3358   24.9098 N   0  0  0  0  0  0  0  0  0  0  0  0
  -29.8571  -13.9932   20.5169 N   0  0  0  0  0  0  0  0  0  0  0  0
  -25.9850  -13.9787   17.8132 N   0  0  0  0  0  0  0  0  0  0  0  0
  -21.8208  -12.8170   19.1194 N   0  0  0  0  0  0  0  0  0  0  0  0
  -29.9476  -16.0874   19.4360 N   0  0  0  0  0  0  0  0  0  0  0  0
  -21.5701  -27.2190   23.6021 N   0  0  0  0  0  0  0  0  0  0  0  0
  -27.3683  -28.7312   26.8511 N   0  0  0  0  0  0  0  0  0  0  0  0
  -29.5823  -26.4071   28.5137 N   0  3  0  0  0  0  0  0  0  0  0  0
  -29.1075  -19.8315   15.9378 O   0  0  0  0  0  0  0  0  0  0  0  0
  -23.0246  -13.9694   17.5441 O   0  0  0  0  0  0  0  0  0  0  0  0
  -23.5472  -28.3029   23.0202 O   0  0  0  0  0  0  0  0  0  0  0  0
  -24.5152  -28.8539   26.6194 O   0  0  0  0  0  0  0  0  0  0  0  0
  -28.9481  -27.3088   25.9250 O   0  0  0  0  0  0  0  0  0  0  0  0
  -31.8935  -14.9743   20.0329 O   0  0  0  0  0  0  0  0  0  0  0  0
  -20.5084   -9.6618   23.5182 O   0  0  0  0  0  0  0  0  0  0  0  0
  -27.0395  -23.1216   20.9074 O   0  0  0  0  0  0  0  0  0  1  0  0
  -22.1096   -5.7432   27.0515 F   0  0  0  0  0  0  0  0  0  0  0  0
  -19.5171   -7.0883   23.3265 F   0  0  0  0  0  0  0  0  0  0  0  0
  1  2  1  0  0  0  0
  1  6  2  0  0  0  0
  2  7  2  0  0  0  0
  3  9  2  0  0  0  0
  3 10  1  0  0  0  0
  4 11  2  0  0  0  0
  4 18  1  0  0  0  0
  5 12  1  0  0  0  0
  5 18  2  0  0  0  0
  6 20  1  0  0  0  0
  7 22  1  0  0  0  0
  8 13  2  0  0  0  0
  8 21  1  0  0  0  0
  9 25  1  0  0  0  0
 10 26  2  0  0  0  0
 11 27  1  0  0  0  0
 12 27  2  0  0  0  0
 13 28  1  0  0  0  0
 14 15  2  0  0  0  0
 14 29  1  0  0  0  0
 15 30  1  0  0  0  0
 16 23  1  0  0  0  0
 16 28  2  0  0  0  0
 17 30  2  0  0  0  0
 17 31  1  0  0  0  0
 18 32  1  0  0  0  0
 19 32  1  0  0  0  0
 19 33  2  0  0  0  0
 19 37  1  0  0  0  0
 20 22  2  0  0  0  0
 20 42  1  0  0  0  0
 21 23  2  0  0  0  0
 21 43  1  0  0  0  0
 22 54  1  0  0  0  0
 23 44  1  0  0  0  0
 24 25  2  0  0  0  0
 24 26  1  0  0  0  0
 24 57  1  0  0  0  0
 25 68  1  0  0  0  0
 26 73  1  0  0  0  0
 27 83  1  0  0  0  0
 28 84  1  0  0  0  0
 29 31  2  0  0  0  0
 29 83  1  0  0  0  0
 30 85  1  0  0  0  0
 31 86  1  0  0  0  0
 32 66  2  0  0  0  0
 33 67  1  0  0  0  0
 33 71  1  0  0  0  0
 34 36  2  0  0  0  0
 34 45  1  0  0  0  0
 34 46  1  0  0  0  0
 35 47  1  0  0  0  0
 35 68  1  0  0  0  0
 35 77  2  0  0  0  0
 36 84  1  0  0  0  0
 37 72  1  0  0  0  0
 37 78  2  0  0  0  0
 38 55  1  0  0  0  0
 38 74  1  0  0  0  0
 38 79  2  0  0  0  0
 39 63  1  0  0  0  0
 39 69  1  0  0  0  0
 39 80  2  0  0  0  0
 40 64  1  0  0  0  0
 40 75  1  0  0  0  0
 40 81  2  0  0  0  0
 41 70  1  0  0  0  0
 41 73  1  0  0  0  0
 41 82  2  0  0  0  0
 42 48  1  0  0  0  0
 43 55  1  0  0  0  0
 44 69  1  0  0  0  0
 45 47  1  0  0  0  0
 46 68  1  0  0  0  0
 48 50  1  0  0  0  0
 49 51  1  0  0  0  0
 49 52  1  0  0  0  0
 50 54  1  0  0  0  0
 51 56  1  0  0  0  0
 52 70  1  0  0  0  0
 53 56  1  0  0  0  0
 53 70  1  0  0  0  0
 54 74  1  0  0  0  0
 55 69  1  0  0  0  0
 56 67  1  0  0  0  0
 58 64  1  0  0  0  0
 59 65  1  0  0  0  0
 60 65  1  0  0  0  0
 61 65  1  0  0  0  0
 62 76  1  0  0  0  0
 63 65  1  0  0  0  0
 63 75  1  0  0  0  0
 64 76  1  0  0  0  0
 66 67  1  0  0  0  0
M  CHG  1  76   1
M  ISO  4  36 101  41 100  73 100  84 101
M  END
> <Batch ID>
0063

> <Smiles>
CNC(C)C(=O)NC(C(=O)N1Cc2cc([101O:1][101CH:1]=C3CCC(=O)N(c4cccc([100NH:0][100C:0](=O)N5CCCC(n6nc(-c7ccc(Oc8ccc(F)cc8F)cc7)c(C(N)=O)c6N)C5)c4C)C3)ccc2CC1C(=O)NC1CCCc2ccccc21)C(C)(C)C

> <Shape>
0.226

> <Color>
0.097

> <Negative vol penalty>
0.000

$$$$

  -OEChem-04042323123D

 87 95  0     1  0  0  0  0  0999 V2000
  -26.9703  -34.1237   25.4857 C   0  0  0  0  0  0  0  0  0  0  0  0
  -27.3511  -32.9302   24.8809 C   0  0  0  0  0  0  0  0  0  0  0  0
  -23.5398  -11.7011   23.4692 C   0  0  0  0  0  0  0  0  0  0  0  0
  -22.8176  -13.9126   22.8175 C   0  0  0  0  0  0  0  0  0  0  0  0
  -30.4025  -20.4233   20.0760 C   0  0  0  0  0  0  0  0  0  0  0  0
  -25.6605  -34.2899   25.9339 C   0  0  0  0  0  0  0  0  0  0  0  0
  -26.4226  -31.9016   24.7251 C   0  0  0  0  0  0  0  0  0  0  0  0
  -26.6007  -29.8053   20.1187 C   0  0  0  0  0  0  0  0  0  0  0  0
  -30.2844  -19.0344   20.0251 C   0  0  0  0  0  0  0  0  0  0  0  0
  -22.7084  -11.7592   24.5876 C   0  0  0  0  0  0  0  0  0  0  0  0
  -21.9862  -13.9707   23.9359 C   0  0  0  0  0  0  0  0  0  0  0  0
  -27.6327  -28.9016   19.8698 C   0  0  0  0  0  0  0  0  0  0  0  0
  -19.4188  -11.3750   25.2687 C   0  0  0  0  0  0  0  0  0  0  0  0
  -18.6411  -10.2537   25.5572 C   0  0  0  0  0  0  0  0  0  0  0  0
  -26.1089  -27.0686   20.2400 C   0  0  0  0  0  0  0  0  0  0  0  0
  -27.9476  -19.2541   19.4522 C   0  0  0  0  0  0  0  0  0  0  0  0
  -19.7239  -10.0561   27.7079 C   0  0  0  0  0  0  0  0  0  0  0  0
  -23.5945  -12.7778   22.5841 C   0  0  0  0  0  0  0  0  0  0  0  0
  -29.2931  -21.2276   19.8150 C   0  0  0  0  0  0  0  0  0  0  0  0
  -24.1246  -12.2342   20.1487 C   0  0  0  0  0  0  0  0  0  0  0  0
  -24.7130  -33.2665   25.7747 C   0  0  0  0  0  0  0  0  0  0  0  0
  -25.3154  -29.3467   20.4413 C   0  0  0  0  0  0  0  0  0  0  0  0
  -25.0993  -32.0537   25.1728 C   0  0  0  0  0  0  0  0  0  0  0  0
  -25.0616  -27.9685   20.4900 C   0  0  0  0  0  0  0  0  0  0  0  0
  -29.0570  -18.4498   19.7132 C   0  0  0  0  0  0  0  0  0  0  0  0
  -21.9316  -12.8939   24.8210 C   0  0  0  0  0  0  0  0  0  0  0  0
  -27.3877  -27.5330   19.9333 C   0  0  0  0  0  0  0  0  0  0  0  0
  -20.3492  -11.8369   26.1998 C   0  0  0  0  0  0  0  0  0  0  0  0
  -18.7936   -9.5942   26.7768 C   0  0  0  0  0  0  0  0  0  0  0  0
  -28.0657  -20.6430   19.5031 C   0  0  0  0  0  0  0  0  0  0  0  0
  -20.5017  -11.1774   27.4194 C   0  0  0  0  0  0  0  0  0  0  0  0
  -24.4536  -12.7187   21.4289 C   0  0  0  0  0  0  0  0  0  0  0  0
  -25.2745  -12.3944   19.4149 C   0  0  0  0  0  0  0  0  0  0  0  0
  -32.8279  -25.5682   19.4647 C   0  0  0  0  0  0  0  0  0  0  0  0
  -31.9434  -24.9899   18.6438 C   0  0  0  0  0  0  0  0  0  0  0  0
  -28.5843  -26.2274   18.4056 C   0  0  0  0  0  0  0  0  0  1  0  0
  -29.4212  -22.6977   19.8702 C   0  0  0  0  0  0  0  0  0  0  0  0
  -22.8898  -11.6882   19.6660 C   0  0  0  0  0  0  0  0  0  0  0  0
  -29.5355  -25.3596   18.0227 C   0  0  0  0  0  0  0  0  0  0  0  0
  -23.4006  -29.6281   22.9628 C   0  0  0  0  0  0  0  0  0  0  0  0
  -21.2782  -28.1171   21.0303 C   0  0  0  0  0  0  0  0  0  0  0  0
  -20.7463  -26.0694   18.3525 C   0  0  0  0  0  0  0  0  0  0  0  0
  -29.9398  -16.0972   19.8937 C   0  0  0  0  0  0  0  0  0  0  0  0
  -23.3214  -33.4746   26.3178 C   0  0  0  0  0  0  0  0  0  0  0  0
  -24.2065  -30.3343   20.6807 C   0  0  0  0  0  0  0  0  0  0  0  0
  -23.6945  -27.4248   20.8122 C   0  0  0  0  0  0  0  0  0  0  0  0
  -22.3009  -32.4765   25.7769 C   0  0  0  0  0  0  0  0  0  0  0  0
  -30.0367  -12.5381   19.9000 C   0  0  0  0  0  0  0  0  0  0  0  0
  -22.8594  -31.0581   25.8341 C   0  0  0  0  0  0  0  0  0  0  0  0
  -28.5849  -12.1364   20.1702 C   0  0  0  0  0  0  0  0  0  0  0  0
  -30.4326  -13.7915   20.6784 C   0  0  0  0  0  0  0  0  0  0  0  0
  -28.0876  -14.5412   20.7673 C   0  0  0  0  0  0  0  0  0  0  0  0
  -24.1145  -30.9239   24.9633 C   0  0  1  0  0  0  0  0  0  0  0  0
  -23.0599  -29.7571   21.5051 C   0  0  1  0  0  0  0  0  0  0  0  0
  -27.6230  -13.3213   19.9552 C   0  0  2  0  0  0  0  0  0  0  0  0
  -29.6517  -24.9706   16.5716 C   0  0  0  0  0  0  0  0  0  0  0  0
  -18.9049  -24.9842   17.0376 C   0  0  0  0  0  0  0  0  0  0  0  0
  -20.8943  -26.0710   23.2610 C   0  0  0  0  0  0  0  0  0  0  0  0
  -19.8257  -24.5482   21.5855 C   0  0  0  0  0  0  0  0  0  0  0  0
  -18.7877  -26.7572   22.1010 C   0  0  0  0  0  0  0  0  0  0  0  0
  -21.5320  -27.4765   15.8702 C   0  0  0  0  0  0  0  0  0  0  0  0
  -30.5069  -24.7400   19.0061 C   0  0  1  0  0  0  0  0  0  0  0  0
  -20.9240  -26.6763   20.7513 C   0  0  1  0  0  0  0  0  0  0  0  0
  -19.8182  -26.1942   17.1577 C   0  0  2  0  0  0  0  0  0  0  0  0
  -20.1343  -26.0231   21.9205 C   0  0  0  0  0  0  0  0  0  0  0  0
  -25.7139  -13.1539   21.5073 N   0  0  0  0  0  0  0  0  0  0  0  0
  -26.1870  -12.9434   20.2671 N   0  0  0  0  0  0  0  0  0  0  0  0
  -22.6447  -28.4305   21.0447 N   0  0  0  0  0  0  0  0  0  0  0  0
  -29.4788  -14.8730   20.4223 N   0  0  0  0  0  0  0  0  0  0  0  0
  -25.5841  -12.1178   18.1304 N   0  0  0  0  0  0  0  0  0  0  0  0
  -28.6632  -23.3619   20.7427 N   0  0  0  0  0  0  0  0  0  0  0  0
  -21.8084  -11.5955   20.5526 N   0  0  0  0  0  0  0  0  0  0  0  0
  -28.9377  -17.0388   19.6615 N   0  0  0  0  0  0  0  0  0  0  0  0
  -23.7516  -30.8207   23.5661 N   0  0  0  0  0  0  0  0  0  0  0  0
  -20.2168  -26.6696   19.4753 N   0  0  0  0  0  0  0  0  0  0  0  0
  -30.2877  -23.2865   19.0422 N   0  3  0  0  0  0  0  0  0  0  0  0
  -20.6074  -26.3141   15.8991 N   0  3  0  0  0  0  0  0  0  0  0  0
  -22.7547  -11.2791   18.4879 O   0  0  0  0  0  0  0  0  0  0  0  0
  -23.3474  -28.5284   23.5007 O   0  0  0  0  0  0  0  0  0  0  0  0
  -20.3754  -28.9357   21.2212 O   0  0  0  0  0  0  0  0  0  0  0  0
  -21.8306  -25.4935   18.2964 O   0  0  0  0  0  0  0  0  0  0  0  0
  -31.1320  -16.2860   19.6384 O   0  0  0  0  0  0  0  0  0  0  0  0
  -21.1200  -12.9508   25.9122 O   0  0  0  0  0  0  0  0  0  0  0  0
  -28.3934  -26.6488   19.6915 O   0  0  0  0  0  0  0  0  0  1  0  0
  -18.0456   -8.5182   27.0544 F   0  0  0  0  0  0  0  0  0  0  0  0
  -26.9935  -21.4075   19.2526 F   0  0  0  0  0  0  0  0  0  0  0  0
  -21.3929  -11.6172   28.3183 F   0  0  0  0  0  0  0  0  0  0  0  0
  1  2  1  0  0  0  0
  1  6  2  0  0  0  0
  2  7  2  0  0  0  0
  3 10  2  0  0  0  0
  3 18  1  0  0  0  0
  4 11  1  0  0  0  0
  4 18  2  0  0  0  0
  5  9  2  0  0  0  0
  5 19  1  0  0  0  0
  6 21  1  0  0  0  0
  7 23  1  0  0  0  0
  8 12  2  0  0  0  0
  8 22  1  0  0  0  0
  9 25  1  0  0  0  0
 10 26  1  0  0  0  0
 11 26  2  0  0  0  0
 12 27  1  0  0  0  0
 13 14  2  0  0  0  0
 13 28  1  0  0  0  0
 14 29  1  0  0  0  0
 15 24  1  0  0  0  0
 15 27  2  0  0  0  0
 16 25  2  0  0  0  0
 16 30  1  0  0  0  0
 17 29  2  0  0  0  0
 17 31  1  0  0  0  0
 18 32  1  0  0  0  0
 19 30  2  0  0  0  0
 19 37  1  0  0  0  0
 20 32  1  0  0  0  0
 20 33  2  0  0  0  0
 20 38  1  0  0  0  0
 21 23  2  0  0  0  0
 21 44  1  0  0  0  0
 22 24  2  0  0  0  0
 22 45  1  0  0  0  0
 23 53  1  0  0  0  0
 24 46  1  0  0  0  0
 25 73  1  0  0  0  0
 26 83  1  0  0  0  0
 27 84  1  0  0  0  0
 28 31  2  0  0  0  0
 28 83  1  0  0  0  0
 29 85  1  0  0  0  0
 30 86  1  0  0  0  0
 31 87  1  0  0  0  0
 32 66  2  0  0  0  0
 33 67  1  0  0  0  0
 33 70  1  0  0  0  0
 34 35  2  0  0  0  0
 35 62  1  0  0  0  0
 36 39  2  0  0  0  0
 36 84  1  0  0  0  0
 37 71  1  0  0  0  0
 37 76  2  0  0  0  0
 38 72  1  0  0  0  0
 38 78  2  0  0  0  0
 39 56  1  0  0  0  0
 39 62  1  0  0  0  0
 40 54  1  0  0  0  0
 40 74  1  0  0  0  0
 40 79  2  0  0  0  0
 41 63  1  0  0  0  0
 41 68  1  0  0  0  0
 41 80  2  0  0  0  0
 42 64  1  0  0  0  0
 42 75  1  0  0  0  0
 42 81  2  0  0  0  0
 43 69  1  0  0  0  0
 43 73  1  0  0  0  0
 43 82  2  0  0  0  0
 44 47  1  0  0  0  0
 45 54  1  0  0  0  0
 46 68  1  0  0  0  0
 47 49  1  0  0  0  0
 48 50  1  0  0  0  0
 48 51  1  0  0  0  0
 49 53  1  0  0  0  0
 50 55  1  0  0  0  0
 51 69  1  0  0  0  0
 52 55  1  0  0  0  0
 52 69  1  0  0  0  0
 53 74  1  0  0  0  0
 54 68  1  0  0  0  0
 55 67  1  0  0  0  0
 57 64  1  0  0  0  0
 58 65  1  0  0  0  0
 59 65  1  0  0  0  0
 60 65  1  0  0  0  0
 61 77  1  0  0  0  0
 62 76  1  0  0  0  0
 63 65  1  0  0  0  0
 63 75  1  0  0  0  0
 64 77  1  0  0  0  0
 66 67  1  0  0  0  0
M  CHG  2  76   1  77   1
M  ISO  4  36 101  43 100  73 100  84 101
M  END
> <Batch ID>
0063

> <Smiles>
C=CC(NC(=N)c1ccc([100NH:0][100C:0](=O)N2CCCC(n3nc(-c4ccc(Oc5ccc(F)cc5F)cc4)c(C(N)=O)c3N)C2)cc1F)C(C)=[101CH:1][101O:1]c1ccc2c(c1)CN(C(=O)C(NC(=O)C(C)NC)C(C)(C)C)C(C(=O)NC1CCCc3ccccc31)C2

> <Shape>
0.308

> <Color>
0.078

> <Negative vol penalty>
0.000

$$$$

  -OEChem-04042323123D

 84 92  0     1  0  0  0  0  0999 V2000
  -27.3958  -32.8485   27.4378 C   0  0  0  0  0  0  0  0  0  0  0  0
  -27.5852  -31.7157   26.6528 C   0  0  0  0  0  0  0  0  0  0  0  0
  -32.2652  -18.8038   21.5276 C   0  0  0  0  0  0  0  0  0  0  0  0
  -23.3503   -9.7127   21.3192 C   0  0  0  0  0  0  0  0  0  0  0  0
  -24.1101  -10.6117   23.4291 C   0  0  0  0  0  0  0  0  0  0  0  0
  -31.3995  -19.8188   21.9346 C   0  0  0  0  0  0  0  0  0  0  0  0
  -26.1247  -33.4091   27.5554 C   0  0  0  0  0  0  0  0  0  0  0  0
  -26.5033  -31.1422   25.9857 C   0  0  0  0  0  0  0  0  0  0  0  0
  -27.6017  -29.9172   21.1963 C   0  0  0  0  0  0  0  0  0  0  0  0
  -31.7512  -17.6089   21.0237 C   0  0  0  0  0  0  0  0  0  0  0  0
  -22.7050   -8.6760   21.9932 C   0  0  0  0  0  0  0  0  0  0  0  0
  -23.4646   -9.5750   24.1032 C   0  0  0  0  0  0  0  0  0  0  0  0
  -28.3377  -28.7512   20.9901 C   0  0  0  0  0  0  0  0  0  0  0  0
  -19.8348   -8.2382   23.7263 C   0  0  0  0  0  0  0  0  0  0  0  0
  -18.5356   -7.9184   23.3320 C   0  0  0  0  0  0  0  0  0  0  0  0
  -29.5055  -18.4443   21.3339 C   0  0  0  0  0  0  0  0  0  0  0  0
  -26.3063  -27.5742   20.4357 C   0  0  0  0  0  0  0  0  0  0  0  0
  -19.2527   -5.6766   22.7870 C   0  0  0  0  0  0  0  0  0  0  0  0
  -24.0530  -10.6805   22.0371 C   0  0  0  0  0  0  0  0  0  0  0  0
  -30.0196  -19.6391   21.8377 C   0  0  0  0  0  0  0  0  0  0  0  0
  -24.1841  -13.0072   20.9994 C   0  0  0  0  0  0  0  0  0  0  0  0
  -25.0284  -32.8478   26.8817 C   0  0  0  0  0  0  0  0  0  0  0  0
  -26.2088  -29.9178   21.0341 C   0  0  0  0  0  0  0  0  0  0  0  0
  -25.2161  -31.6950   26.0955 C   0  0  0  0  0  0  0  0  0  0  0  0
  -25.5553  -28.7422   20.6380 C   0  0  0  0  0  0  0  0  0  0  0  0
  -30.3713  -17.4292   20.9269 C   0  0  0  0  0  0  0  0  0  0  0  0
  -22.7621   -8.6072   23.3852 C   0  0  0  0  0  0  0  0  0  0  0  0
  -27.6897  -27.5787   20.6126 C   0  0  0  0  0  0  0  0  0  0  0  0
  -20.8430   -7.2771   23.6508 C   0  0  0  0  0  0  0  0  0  0  0  0
  -18.2446   -6.6377   22.8624 C   0  0  0  0  0  0  0  0  0  0  0  0
  -20.5520   -5.9964   23.1812 C   0  0  0  0  0  0  0  0  0  0  0  0
  -24.7203  -11.7513   21.3413 C   0  0  0  0  0  0  0  0  0  0  0  0
  -25.2099  -13.6547   20.3552 C   0  0  0  0  0  0  0  0  0  0  0  0
  -28.7561  -24.1874   21.0641 C   0  0  0  0  0  0  0  0  0  0  0  0
  -28.1126  -25.3504   21.1837 C   0  0  0  0  0  0  0  0  0  1  0  0
  -29.1018  -20.7138   22.2680 C   0  0  0  0  0  0  0  0  0  0  0  0
  -22.8758  -13.5410   21.2426 C   0  0  0  0  0  0  0  0  0  0  0  0
  -28.3778  -23.0603   21.9393 C   0  0  0  0  0  0  0  0  0  0  0  0
  -23.7282  -30.4652   22.9448 C   0  0  0  0  0  0  0  0  0  0  0  0
  -22.0407  -30.1826   20.1889 C   0  0  0  0  0  0  0  0  0  0  0  0
  -21.8653  -28.9459   17.0130 C   0  0  0  0  0  0  0  0  0  0  0  0
  -30.5708  -15.1084   19.9675 C   0  0  0  0  0  0  0  0  0  0  0  0
  -23.6646  -33.4614   27.0772 C   0  0  0  0  0  0  0  0  0  0  0  0
  -25.4326  -31.1904   21.2344 C   0  0  0  0  0  0  0  0  0  0  0  0
  -24.0642  -28.6951   20.4308 C   0  0  0  0  0  0  0  0  0  0  0  0
  -22.6404  -33.0130   26.0379 C   0  0  0  0  0  0  0  0  0  0  0  0
  -29.6572  -11.9206   18.6712 C   0  0  0  0  0  0  0  0  0  0  0  0
  -22.6965  -31.5001   25.8511 C   0  0  0  0  0  0  0  0  0  0  0  0
  -28.2473  -11.6957   19.2222 C   0  0  0  0  0  0  0  0  0  0  0  0
  -30.5518  -12.6403   19.6789 C   0  0  0  0  0  0  0  0  0  0  0  0
  -28.5932  -13.6690   20.7628 C   0  0  0  0  0  0  0  0  0  0  0  0
  -24.0719  -31.0585   25.3366 C   0  0  1  0  0  0  0  0  0  0  0  0
  -23.9577  -30.9488   21.5408 C   0  0  1  0  0  0  0  0  0  0  0  0
  -27.6365  -13.0050   19.7590 C   0  0  2  0  0  0  0  0  0  0  0  0
  -20.3456  -28.8477   15.0184 C   0  0  0  0  0  0  0  0  0  0  0  0
  -20.3311  -28.0844   21.5977 C   0  0  0  0  0  0  0  0  0  0  0  0
  -19.4929  -27.3606   19.3523 C   0  0  0  0  0  0  0  0  0  0  0  0
  -19.0501  -29.6792   20.1590 C   0  0  0  0  0  0  0  0  0  0  0  0
  -23.8284  -30.3529   15.3026 C   0  0  0  0  0  0  0  0  0  0  0  0
  -21.3902  -29.0407   19.4460 C   0  0  1  0  0  0  0  0  0  0  0  0
  -21.4803  -29.5987   15.6977 C   0  0  2  0  0  0  0  0  0  0  0  0
  -20.0940  -28.5413   20.1445 C   0  0  0  0  0  0  0  0  0  0  0  0
  -25.9882  -11.6073   20.9467 N   0  0  0  0  0  0  0  0  0  0  0  0
  -26.2573  -12.7811   20.3502 N   0  0  0  0  0  0  0  0  0  0  0  0
  -23.3484  -29.9637   20.6450 N   0  0  0  0  0  0  0  0  0  0  0  0
  -29.9105  -13.8735   20.1401 N   0  0  0  0  0  0  0  0  0  0  0  0
  -25.3091  -14.8803   19.7980 N   0  0  0  0  0  0  0  0  0  0  0  0
  -21.9432  -12.7420   21.9180 N   0  0  0  0  0  0  0  0  0  0  0  0
  -29.8501  -16.2152   20.4149 N   0  0  0  0  0  0  0  0  0  0  0  0
  -29.1873  -21.9025   21.6534 N   0  0  0  0  0  0  0  0  0  0  0  0
  -24.1919  -31.3278   23.9197 N   0  0  0  0  0  0  0  0  0  0  0  0
  -21.1905  -29.5051   18.0775 N   0  0  0  0  0  0  0  0  0  0  0  0
  -28.2408  -20.4388   23.2475 N   0  3  0  0  0  0  0  0  0  0  0  0
  -22.6474  -29.6250   14.7713 N   0  3  0  0  0  0  0  0  0  0  0  0
  -22.5384  -14.6861   20.8574 O   0  0  0  0  0  0  0  0  0  0  0  0
  -27.5094  -23.0697   22.7956 O   0  0  0  0  0  0  0  0  0  0  0  0
  -23.1704  -29.3899   23.1299 O   0  0  0  0  0  0  0  0  0  0  0  0
  -21.4144  -31.2327   20.3522 O   0  0  0  0  0  0  0  0  0  0  0  0
  -22.6801  -28.0289   17.0881 O   0  0  0  0  0  0  0  0  0  0  0  0
  -31.6814  -15.1816   19.4353 O   0  0  0  0  0  0  0  0  0  0  0  0
  -22.1322   -7.5959   24.0433 O   0  0  0  0  0  0  0  0  0  0  0  0
  -28.4056  -26.4391   20.4113 O   0  0  0  0  0  0  0  0  0  1  0  0
  -16.9966   -6.3303   22.4853 F   0  0  0  0  0  0  0  0  0  0  0  0
  -21.5161   -5.0686   23.1076 F   0  0  0  0  0  0  0  0  0  0  0  0
  1  2  1  0  0  0  0
  1  7  2  0  0  0  0
  2  8  2  0  0  0  0
  3  6  2  0  0  0  0
  3 10  1  0  0  0  0
  4 11  2  0  0  0  0
  4 19  1  0  0  0  0
  5 12  1  0  0  0  0
  5 19  2  0  0  0  0
  6 20  1  0  0  0  0
  7 22  1  0  0  0  0
  8 24  1  0  0  0  0
  9 13  2  0  0  0  0
  9 23  1  0  0  0  0
 10 26  2  0  0  0  0
 11 27  1  0  0  0  0
 12 27  2  0  0  0  0
 13 28  1  0  0  0  0
 14 15  2  0  0  0  0
 14 29  1  0  0  0  0
 15 30  1  0  0  0  0
 16 20  2  0  0  0  0
 16 26  1  0  0  0  0
 17 25  1  0  0  0  0
 17 28  2  0  0  0  0
 18 30  2  0  0  0  0
 18 31  1  0  0  0  0
 19 32  1  0  0  0  0
 20 36  1  0  0  0  0
 21 32  1  0  0  0  0
 21 33  2  0  0  0  0
 21 37  1  0  0  0  0
 22 24  2  0  0  0  0
 22 43  1  0  0  0  0
 23 25  2  0  0  0  0
 23 44  1  0  0  0  0
 24 52  1  0  0  0  0
 25 45  1  0  0  0  0
 26 69  1  0  0  0  0
 27 81  1  0  0  0  0
 28 82  1  0  0  0  0
 29 31  2  0  0  0  0
 29 81  1  0  0  0  0
 30 83  1  0  0  0  0
 31 84  1  0  0  0  0
 32 63  2  0  0  0  0
 33 64  1  0  0  0  0
 33 67  1  0  0  0  0
 34 35  2  0  0  0  0
 34 38  1  0  0  0  0
 35 82  1  0  0  0  0
 36 70  1  0  0  0  0
 36 73  2  0  0  0  0
 37 68  1  0  0  0  0
 37 75  2  0  0  0  0
 38 70  1  0  0  0  0
 38 76  2  0  0  0  0
 39 53  1  0  0  0  0
 39 71  1  0  0  0  0
 39 77  2  0  0  0  0
 40 60  1  0  0  0  0
 40 65  1  0  0  0  0
 40 78  2  0  0  0  0
 41 61  1  0  0  0  0
 41 72  1  0  0  0  0
 41 79  2  0  0  0  0
 42 66  1  0  0  0  0
 42 69  1  0  0  0  0
 42 80  2  0  0  0  0
 43 46  1  0  0  0  0
 44 53  1  0  0  0  0
 45 65  1  0  0  0  0
 46 48  1  0  0  0  0
 47 49  1  0  0  0  0
 47 50  1  0  0  0  0
 48 52  1  0  0  0  0
 49 54  1  0  0  0  0
 50 66  1  0  0  0  0
 51 54  1  0  0  0  0
 51 66  1  0  0  0  0
 52 71  1  0  0  0  0
 53 65  1  0  0  0  0
 54 64  1  0  0  0  0
 55 61  1  0  0  0  0
 56 62  1  0  0  0  0
 57 62  1  0  0  0  0
 58 62  1  0  0  0  0
 59 74  1  0  0  0  0
 60 62  1  0  0  0  0
 60 72  1  0  0  0  0
 61 74  1  0  0  0  0
 63 64  1  0  0  0  0
M  CHG  2  73   1  74   1
M  ISO  4  35 101  42 100  69 100  82 101
M  END
> <Batch ID>
0063

> <Smiles>
CNC(C)C(=O)NC(C(=O)N1Cc2cc([101O:1][101CH:1]=CC(=O)NC(=N)c3cccc([100NH:0][100C:0](=O)N4CCCC(n5nc(-c6ccc(Oc7ccc(F)cc7F)cc6)c(C(N)=O)c5N)C4)c3)ccc2CC1C(=O)NC1CCCc2ccccc21)C(C)(C)C

> <Shape>
0.315

> <Color>
0.192

> <Negative vol penalty>
0.000

$$$$

  -OEChem-04042323123D

 87 95  0     1  0  0  0  0  0999 V2000
  -25.3662  -20.8968   18.8425 C   0  0  0  0  0  0  0  0  0  0  0  0
  -26.2176  -20.1760   19.6738 C   0  0  0  0  0  0  0  0  0  0  0  0
  -23.1029   -9.8599   21.4107 C   0  0  0  0  0  0  0  0  0  0  0  0
  -23.8612  -10.7020   23.5445 C   0  0  0  0  0  0  0  0  0  0  0  0
  -25.6074  -22.2490   18.6032 C   0  0  0  0  0  0  0  0  0  0  0  0
  -27.3114  -20.8068   20.2654 C   0  0  0  0  0  0  0  0  0  0  0  0
  -29.6569  -19.6785   25.8090 C   0  0  0  0  0  0  0  0  0  0  0  0
  -29.7565  -18.2132   21.6334 C   0  0  0  0  0  0  0  0  0  0  0  0
  -22.3811   -8.8597   22.0620 C   0  0  0  0  0  0  0  0  0  0  0  0
  -23.1394   -9.7018   24.1958 C   0  0  0  0  0  0  0  0  0  0  0  0
  -30.7454  -18.9154   26.2294 C   0  0  0  0  0  0  0  0  0  0  0  0
  -23.0168   -5.8768   23.5189 C   0  0  0  0  0  0  0  0  0  0  0  0
  -30.3257  -19.3736   22.1579 C   0  0  0  0  0  0  0  0  0  0  0  0
  -23.1040   -4.5806   23.0111 C   0  0  0  0  0  0  0  0  0  0  0  0
  -31.9574  -17.2508   21.3743 C   0  0  0  0  0  0  0  0  0  0  0  0
  -32.1191  -20.8983   26.2519 C   0  0  0  0  0  0  0  0  0  0  0  0
  -20.7169   -4.5661   22.6385 C   0  0  0  0  0  0  0  0  0  0  0  0
  -23.8429  -10.7811   22.1520 C   0  0  0  0  0  0  0  0  0  0  0  0
  -32.5266  -18.4112   21.8988 C   0  0  0  0  0  0  0  0  0  0  0  0
  -24.1363  -13.1013   21.1330 C   0  0  0  0  0  0  0  0  0  0  0  0
  -26.6993  -22.8990   19.1999 C   0  0  0  0  0  0  0  0  0  0  0  0
  -29.7944  -21.0577   25.5960 C   0  0  0  0  0  0  0  0  0  0  0  0
  -27.5683  -22.1686   20.0328 C   0  0  0  0  0  0  0  0  0  0  0  0
  -31.0302  -21.6770   25.8313 C   0  0  0  0  0  0  0  0  0  0  0  0
  -30.5724  -17.1518   21.2416 C   0  0  0  0  0  0  0  0  0  0  0  0
  -22.3993   -8.7806   23.4545 C   0  0  0  0  0  0  0  0  0  0  0  0
  -31.9774  -19.5248   26.4481 C   0  0  0  0  0  0  0  0  0  0  0  0
  -21.7797   -6.5176   23.5866 C   0  0  0  0  0  0  0  0  0  0  0  0
  -21.9540   -3.9253   22.5708 C   0  0  0  0  0  0  0  0  0  0  0  0
  -31.7107  -19.4726   22.2907 C   0  0  0  0  0  0  0  0  0  0  0  0
  -20.6298   -5.8623   23.1463 C   0  0  0  0  0  0  0  0  0  0  0  0
  -24.5892  -11.8143   21.4798 C   0  0  0  0  0  0  0  0  0  0  0  0
  -25.2141  -13.6905   20.5185 C   0  0  0  0  0  0  0  0  0  0  0  0
  -34.8033  -17.6363   23.9611 C   0  0  0  0  0  0  0  0  0  0  0  0
  -34.0044  -18.5139   22.0390 C   0  0  0  0  0  0  0  0  0  0  0  0
  -22.8559  -13.7099   21.3474 C   0  0  0  0  0  0  0  0  0  0  0  0
  -29.4872  -22.9811   23.0841 C   0  0  0  0  0  0  0  0  0  0  0  0
  -29.9452  -25.3059   25.2995 C   0  0  0  0  0  0  0  0  0  0  0  0
  -31.2050  -26.2004   28.3425 C   0  0  0  0  0  0  0  0  0  0  0  0
  -30.6591  -14.8281   20.2723 C   0  0  0  0  0  0  0  0  0  0  0  0
  -26.9466  -24.3506   18.8737 C   0  0  0  0  0  0  0  0  0  0  0  0
  -28.6038  -21.8713   25.1683 C   0  0  0  0  0  0  0  0  0  0  0  0
  -31.2249  -23.1578   25.6367 C   0  0  0  0  0  0  0  0  0  0  0  0
  -27.9126  -25.0353   19.8372 C   0  0  0  0  0  0  0  0  0  0  0  0
  -29.5926  -11.7062   18.9332 C   0  0  0  0  0  0  0  0  0  0  0  0
  -29.1406  -24.1616   20.0728 C   0  0  0  0  0  0  0  0  0  0  0  0
  -28.1586  -11.5619   19.4479 C   0  0  0  0  0  0  0  0  0  0  0  0
  -30.5025  -12.3669   19.9673 C   0  0  0  0  0  0  0  0  0  0  0  0
  -28.5812  -13.5036   21.0093 C   0  0  0  0  0  0  0  0  0  0  0  0
  -28.7511  -22.8236   20.7126 C   0  0  1  0  0  0  0  0  0  0  0  0
  -28.9886  -23.1811   24.4874 C   0  0  1  0  0  0  0  0  0  0  0  0
  -27.6125  -12.9021   19.9780 C   0  0  2  0  0  0  0  0  0  0  0  0
  -31.4601  -28.1793   29.8644 C   0  0  0  0  0  0  0  0  0  0  0  0
  -32.1966  -26.3691   23.5358 C   0  0  0  0  0  0  0  0  0  0  0  0
  -33.0079  -27.7010   25.4944 C   0  0  0  0  0  0  0  0  0  0  0  0
  -30.7413  -28.1339   24.5468 C   0  0  0  0  0  0  0  0  0  0  0  0
  -37.6764  -17.8180   24.3950 C   0  0  0  0  0  0  0  0  0  0  0  0
  -29.6176  -24.9078   30.4798 C   0  0  0  0  0  0  0  0  0  0  0  0
  -34.5283  -16.9380   26.3565 C   0  0  0  0  0  0  0  0  0  0  0  0
  -33.0817  -17.4185   26.4394 C   0  0  0  0  0  0  0  0  0  1  0  0
  -35.3711  -17.7276   25.3522 C   0  0  1  0  0  0  0  0  0  0  0  0
  -31.1485  -26.0178   25.8690 C   0  0  1  0  0  0  0  0  0  0  0  0
  -30.5983  -26.9824   29.4935 C   0  0  2  0  0  0  0  0  0  0  0  0
  -31.7707  -27.0272   24.8634 C   0  0  0  0  0  0  0  0  0  0  0  0
  -25.8559  -11.5978   21.1157 N   0  0  0  0  0  0  0  0  0  0  0  0
  -34.5251  -18.7103   23.2950 N   0  0  0  0  0  0  0  0  0  0  0  0
  -26.2082  -12.7568   20.5336 N   0  0  0  0  0  0  0  0  0  0  0  0
  -30.0323  -23.9093   25.2116 N   0  0  0  0  0  0  0  0  0  0  0  0
  -29.9233  -13.6334   20.4206 N   0  0  0  0  0  0  0  0  0  0  0  0
  -25.3990  -14.9109   19.9719 N   0  0  0  0  0  0  0  0  0  0  0  0
  -21.8615  -12.9637   21.9944 N   0  0  0  0  0  0  0  0  0  0  0  0
  -29.9937  -15.9731   20.7090 N   0  0  0  0  0  0  0  0  0  0  0  0
  -28.4916  -22.9957   22.1259 N   0  0  0  0  0  0  0  0  0  0  0  0
  -30.7111  -26.6181   27.1247 N   0  0  0  0  0  0  0  0  0  0  0  0
  -34.7987  -18.4651   21.0286 N   0  3  0  0  0  0  0  0  0  0  0  0
  -36.7443  -17.1472   25.3371 N   0  3  0  0  0  0  0  0  0  0  0  0
  -30.4604  -26.1120   30.6953 N   0  3  0  0  0  0  0  0  0  0  0  0
  -22.5961  -14.8748   20.9615 O   0  0  0  0  0  0  0  0  0  0  0  0
  -30.6864  -22.8266   22.8853 O   0  0  0  0  0  0  0  0  0  0  0  0
  -28.9614  -25.9640   24.9523 O   0  0  0  0  0  0  0  0  0  0  0  0
  -32.0369  -25.3107   28.5069 O   0  0  0  0  0  0  0  0  0  0  0  0
  -31.7851  -14.8385   19.7681 O   0  0  0  0  0  0  0  0  0  0  0  0
  -21.6950   -7.8048   24.0903 O   0  0  0  0  0  0  0  0  0  0  0  0
  -33.0417  -18.7822   26.8578 O   0  0  0  0  0  0  0  0  0  1  0  0
  -22.0381   -2.6811   22.0818 F   0  0  0  0  0  0  0  0  0  0  0  0
  -32.2470  -20.5922   22.7960 F   0  0  0  0  0  0  0  0  0  0  0  0
  -19.4387   -6.4733   23.2077 F   0  0  0  0  0  0  0  0  0  0  0  0
  1  2  1  0  0  0  0
  1  5  2  0  0  0  0
  2  6  2  0  0  0  0
  3  9  2  0  0  0  0
  3 18  1  0  0  0  0
  4 10  1  0  0  0  0
  4 18  2  0  0  0  0
  5 21  1  0  0  0  0
  6 23  1  0  0  0  0
  7 11  2  0  0  0  0
  7 22  1  0  0  0  0
  8 13  2  0  0  0  0
  8 25  1  0  0  0  0
  9 26  1  0  0  0  0
 10 26  2  0  0  0  0
 11 27  1  0  0  0  0
 12 14  2  0  0  0  0
 12 28  1  0  0  0  0
 13 30  1  0  0  0  0
 14 29  1  0  0  0  0
 15 19  1  0  0  0  0
 15 25  2  0  0  0  0
 16 24  1  0  0  0  0
 16 27  2  0  0  0  0
 17 29  2  0  0  0  0
 17 31  1  0  0  0  0
 18 32  1  0  0  0  0
 19 30  2  0  0  0  0
 19 35  1  0  0  0  0
 20 32  1  0  0  0  0
 20 33  2  0  0  0  0
 20 36  1  0  0  0  0
 21 23  2  0  0  0  0
 21 41  1  0  0  0  0
 22 24  2  0  0  0  0
 22 42  1  0  0  0  0
 23 50  1  0  0  0  0
 24 43  1  0  0  0  0
 25 72  1  0  0  0  0
 26 83  1  0  0  0  0
 27 84  1  0  0  0  0
 28 31  2  0  0  0  0
 28 83  1  0  0  0  0
 29 85  1  0  0  0  0
 30 86  1  0  0  0  0
 31 87  1  0  0  0  0
 32 65  2  0  0  0  0
 33 67  1  0  0  0  0
 33 70  1  0  0  0  0
 34 61  1  0  0  0  0
 34 66  2  0  0  0  0
 35 66  1  0  0  0  0
 35 75  2  0  0  0  0
 36 71  1  0  0  0  0
 36 78  2  0  0  0  0
 37 51  1  0  0  0  0
 37 73  1  0  0  0  0
 37 79  2  0  0  0  0
 38 62  1  0  0  0  0
 38 68  1  0  0  0  0
 38 80  2  0  0  0  0
 39 63  1  0  0  0  0
 39 74  1  0  0  0  0
 39 81  2  0  0  0  0
 40 69  1  0  0  0  0
 40 72  1  0  0  0  0
 40 82  2  0  0  0  0
 41 44  1  0  0  0  0
 42 51  1  0  0  0  0
 43 68  1  0  0  0  0
 44 46  1  0  0  0  0
 45 47  1  0  0  0  0
 45 48  1  0  0  0  0
 46 50  1  0  0  0  0
 47 52  1  0  0  0  0
 48 69  1  0  0  0  0
 49 52  1  0  0  0  0
 49 69  1  0  0  0  0
 50 73  1  0  0  0  0
 51 68  1  0  0  0  0
 52 67  1  0  0  0  0
 53 63  1  0  0  0  0
 54 64  1  0  0  0  0
 55 64  1  0  0  0  0
 56 64  1  0  0  0  0
 57 76  1  0  0  0  0
 58 77  1  0  0  0  0
 59 60  1  0  0  0  0
 59 61  1  0  0  0  0
 60 84  1  0  0  0  0
 61 76  1  0  0  0  0
 62 64  1  0  0  0  0
 62 74  1  0  0  0  0
 63 77  1  0  0  0  0
 65 67  1  0  0  0  0
M  CHG  3  75   1  76   1  77   1
M  ISO  4  40 100  60 101  72 100  84 101
M  END
> <Batch ID>
0063

> <Smiles>
CN=C(CNC(=N)c1cc([100NH:0][100C:0](=O)N2CCCC(n3nc(-c4ccc(Oc5ccc(F)cc5F)cc4)c(C(N)=O)c3N)C2)ccc1F)C[101CH2:1][101O:1]c1ccc2c(c1)CN(C(=O)C(NC(=O)C(C)NC)C(C)(C)C)C(C(=O)NC1CCCc3ccccc31)C2

> <Shape>
0.183

> <Color>
0.144

> <Negative vol penalty>
0.000

$$$$

  -OEChem-04042323123D

 84 92  0     1  0  0  0  0  0999 V2000
  -20.5597  -25.2978   25.5474 C   0  0  0  0  0  0  0  0  0  0  0  0
  -21.6122  -25.1269   24.6537 C   0  0  0  0  0  0  0  0  0  0  0  0
  -23.3654  -10.4271   22.3071 C   0  0  0  0  0  0  0  0  0  0  0  0
  -23.5238  -10.0909   19.9198 C   0  0  0  0  0  0  0  0  0  0  0  0
  -19.4852  -26.1190   25.2083 C   0  0  0  0  0  0  0  0  0  0  0  0
  -21.5901  -25.7763   23.4199 C   0  0  0  0  0  0  0  0  0  0  0  0
  -26.0400  -27.8981   22.2615 C   0  0  0  0  0  0  0  0  0  0  0  0
  -22.5836   -9.2772   22.4171 C   0  0  0  0  0  0  0  0  0  0  0  0
  -22.7420   -8.9410   20.0299 C   0  0  0  0  0  0  0  0  0  0  0  0
  -27.0447  -27.0537   21.7911 C   0  0  0  0  0  0  0  0  0  0  0  0
  -23.0677   -5.9312   22.4670 C   0  0  0  0  0  0  0  0  0  0  0  0
  -23.3694   -5.0381   23.4951 C   0  0  0  0  0  0  0  0  0  0  0  0
  -26.5505  -27.7352   19.5304 C   0  0  0  0  0  0  0  0  0  0  0  0
  -30.3476  -18.4018   17.1891 C   0  0  0  0  0  0  0  0  0  0  0  0
  -28.0728  -19.7424   18.0894 C   0  0  0  0  0  0  0  0  0  0  0  0
  -21.1505   -5.3347   24.4038 C   0  0  0  0  0  0  0  0  0  0  0  0
  -23.8355  -10.8340   21.0584 C   0  0  0  0  0  0  0  0  0  0  0  0
  -26.0455  -12.1077   21.0248 C   0  0  0  0  0  0  0  0  0  0  0  0
  -19.4546  -26.7864   23.9737 C   0  0  0  0  0  0  0  0  0  0  0  0
  -25.2744  -28.6604   21.3676 C   0  0  0  0  0  0  0  0  0  0  0  0
  -20.5135  -26.6061   23.0635 C   0  0  0  0  0  0  0  0  0  0  0  0
  -25.5384  -28.5904   19.9923 C   0  0  0  0  0  0  0  0  0  0  0  0
  -30.4327  -19.7405   17.5716 C   0  0  0  0  0  0  0  0  0  0  0  0
  -29.1252  -17.7334   17.2567 C   0  0  0  0  0  0  0  0  0  0  0  0
  -29.2953  -20.4108   18.0217 C   0  0  0  0  0  0  0  0  0  0  0  0
  -27.9878  -18.4037   17.7069 C   0  0  0  0  0  0  0  0  0  0  0  0
  -22.2719   -8.5342   21.2785 C   0  0  0  0  0  0  0  0  0  0  0  0
  -27.2982  -26.9700   20.4251 C   0  0  0  0  0  0  0  0  0  0  0  0
  -21.8074   -6.5261   22.4074 C   0  0  0  0  0  0  0  0  0  0  0  0
  -22.4108   -4.7398   24.4635 C   0  0  0  0  0  0  0  0  0  0  0  0
  -20.8489   -6.2278   23.3757 C   0  0  0  0  0  0  0  0  0  0  0  0
  -24.6427  -12.0220   20.9440 C   0  0  0  0  0  0  0  0  0  0  0  0
  -26.3184  -13.4429   20.8541 C   0  0  0  0  0  0  0  0  0  0  0  0
  -28.7993  -23.9431   19.1890 C   0  0  0  0  0  0  0  0  0  0  0  0
  -27.9419  -24.8587   19.6515 C   0  0  0  0  0  0  0  0  0  1  0  0
  -27.0153  -11.0728   21.2354 C   0  0  0  0  0  0  0  0  0  0  0  0
  -28.3216  -22.5636   18.8805 C   0  0  0  0  0  0  0  0  0  0  0  0
  -22.1909  -28.7994   20.6081 C   0  0  0  0  0  0  0  0  0  0  0  0
  -23.1447  -31.3355   18.8247 C   0  0  0  0  0  0  0  0  0  0  0  0
  -25.6699  -32.9301   17.1731 C   0  0  0  0  0  0  0  0  0  0  0  0
  -25.5225  -18.2778   18.2096 C   0  0  0  0  0  0  0  0  0  0  0  0
  -18.2493  -27.6263   23.6322 C   0  0  0  0  0  0  0  0  0  0  0  0
  -24.2121  -29.5865   21.8931 C   0  0  0  0  0  0  0  0  0  0  0  0
  -24.7584  -29.4034   18.9927 C   0  0  0  0  0  0  0  0  0  0  0  0
  -18.4807  -28.5751   22.4589 C   0  0  0  0  0  0  0  0  0  0  0  0
  -23.2338  -17.4560   20.8103 C   0  0  0  0  0  0  0  0  0  0  0  0
  -19.1611  -27.8430   21.3066 C   0  0  0  0  0  0  0  0  0  0  0  0
  -23.5117  -15.9761   21.0836 C   0  0  0  0  0  0  0  0  0  0  0  0
  -23.3558  -17.7911   19.3249 C   0  0  0  0  0  0  0  0  0  0  0  0
  -24.8970  -15.9020   18.9711 C   0  0  0  0  0  0  0  0  0  0  0  0
  -20.5378  -27.3132   21.7257 C   0  0  1  0  0  0  0  0  0  0  0  0
  -23.1504  -29.9296   20.8527 C   0  0  1  0  0  0  0  0  0  0  0  0
  -24.8497  -15.5298   20.4621 C   0  0  2  0  0  0  0  0  0  0  0  0
  -31.7550  -20.4315   17.4887 C   0  0  0  0  0  0  0  0  0  0  0  0
  -29.0633  -16.2995   16.8407 C   0  0  0  0  0  0  0  0  0  0  0  0
  -26.1359  -34.9636   15.7784 C   0  0  0  0  0  0  0  0  0  0  0  0
  -21.7978  -30.0015   16.4339 C   0  0  0  0  0  0  0  0  0  0  0  0
  -23.0814  -31.5452   14.9380 C   0  0  0  0  0  0  0  0  0  0  0  0
  -21.4506  -32.4738   16.5814 C   0  0  0  0  0  0  0  0  0  0  0  0
  -27.6223  -33.9727   19.1377 C   0  0  0  0  0  0  0  0  0  0  0  0
  -23.6411  -31.5224   17.4113 C   0  0  1  0  0  0  0  0  0  0  0  0
  -26.1223  -34.3791   17.1823 C   0  0  2  0  0  0  0  0  0  0  0  0
  -22.5063  -31.3688   16.3596 C   0  0  0  0  0  0  0  0  0  0  0  0
  -24.0647  -13.2084   20.7381 N   0  0  0  0  0  0  0  0  0  0  0  0
  -25.1095  -14.0522   20.6881 N   0  0  0  0  0  0  0  0  0  0  0  0
  -23.7259  -30.2894   19.5552 N   0  0  0  0  0  0  0  0  0  0  0  0
  -24.6499  -17.3430   18.8059 N   0  0  0  0  0  0  0  0  0  0  0  0
  -27.4721  -14.1435   20.8313 N   0  0  0  0  0  0  0  0  0  0  0  0
  -26.5633   -9.7554   21.3916 N   0  0  0  0  0  0  0  0  0  0  0  0
  -29.3615  -21.7702   18.4146 N   0  0  0  0  0  0  0  0  0  0  0  0
  -26.7371  -17.7420   17.7828 N   0  0  0  0  0  0  0  0  0  0  0  0
  -21.5099  -28.3852   21.7369 N   0  0  0  0  0  0  0  0  0  0  0  0
  -24.3116  -32.8177   17.3820 N   0  0  0  0  0  0  0  0  0  0  0  0
  -27.4955  -34.4894   17.7506 N   0  3  0  0  0  0  0  0  0  0  0  0
  -28.2450  -11.3116   21.2999 O   0  0  0  0  0  0  0  0  0  0  0  0
  -27.1491  -22.2464   19.0429 O   0  0  0  0  0  0  0  0  0  0  0  0
  -22.0759  -28.3383   19.4786 O   0  0  0  0  0  0  0  0  0  0  0  0
  -22.2786  -32.0944   19.2668 O   0  0  0  0  0  0  0  0  0  0  0  0
  -26.4434  -31.9919   16.9943 O   0  0  0  0  0  0  0  0  0  0  0  0
  -25.2260  -19.4713   18.1112 O   0  0  0  0  0  0  0  0  0  0  0  0
  -21.5092   -7.4119   21.3856 O   0  0  0  0  0  0  0  0  0  0  0  0
  -28.2779  -26.1462   19.9632 O   0  0  0  0  0  0  0  0  0  1  0  0
  -22.7002   -3.8810   25.4498 F   0  0  0  0  0  0  0  0  0  0  0  0
  -19.6360   -6.7953   23.3230 F   0  0  0  0  0  0  0  0  0  0  0  0
  1  2  1  0  0  0  0
  1  5  2  0  0  0  0
  2  6  2  0  0  0  0
  3  8  2  0  0  0  0
  3 17  1  0  0  0  0
  4  9  1  0  0  0  0
  4 17  2  0  0  0  0
  5 19  1  0  0  0  0
  6 21  1  0  0  0  0
  7 10  2  0  0  0  0
  7 20  1  0  0  0  0
  8 27  1  0  0  0  0
  9 27  2  0  0  0  0
 10 28  1  0  0  0  0
 11 12  2  0  0  0  0
 11 29  1  0  0  0  0
 12 30  1  0  0  0  0
 13 22  1  0  0  0  0
 13 28  2  0  0  0  0
 14 23  1  0  0  0  0
 14 24  2  0  0  0  0
 15 25  1  0  0  0  0
 15 26  2  0  0  0  0
 16 30  2  0  0  0  0
 16 31  1  0  0  0  0
 17 32  1  0  0  0  0
 18 32  1  0  0  0  0
 18 33  2  0  0  0  0
 18 36  1  0  0  0  0
 19 21  2  0  0  0  0
 19 42  1  0  0  0  0
 20 22  2  0  0  0  0
 20 43  1  0  0  0  0
 21 51  1  0  0  0  0
 22 44  1  0  0  0  0
 23 25  2  0  0  0  0
 23 54  1  0  0  0  0
 24 26  1  0  0  0  0
 24 55  1  0  0  0  0
 25 70  1  0  0  0  0
 26 71  1  0  0  0  0
 27 81  1  0  0  0  0
 28 82  1  0  0  0  0
 29 31  2  0  0  0  0
 29 81  1  0  0  0  0
 30 83  1  0  0  0  0
 31 84  1  0  0  0  0
 32 64  2  0  0  0  0
 33 65  1  0  0  0  0
 33 68  1  0  0  0  0
 34 35  2  0  0  0  0
 34 37  1  0  0  0  0
 35 82  1  0  0  0  0
 36 69  1  0  0  0  0
 36 75  2  0  0  0  0
 37 70  1  0  0  0  0
 37 76  2  0  0  0  0
 38 52  1  0  0  0  0
 38 72  1  0  0  0  0
 38 77  2  0  0  0  0
 39 61  1  0  0  0  0
 39 66  1  0  0  0  0
 39 78  2  0  0  0  0
 40 62  1  0  0  0  0
 40 73  1  0  0  0  0
 40 79  2  0  0  0  0
 41 67  1  0  0  0  0
 41 71  1  0  0  0  0
 41 80  2  0  0  0  0
 42 45  1  0  0  0  0
 43 52  1  0  0  0  0
 44 66  1  0  0  0  0
 45 47  1  0  0  0  0
 46 48  1  0  0  0  0
 46 49  1  0  0  0  0
 47 51  1  0  0  0  0
 48 53  1  0  0  0  0
 49 67  1  0  0  0  0
 50 53  1  0  0  0  0
 50 67  1  0  0  0  0
 51 72  1  0  0  0  0
 52 66  1  0  0  0  0
 53 65  1  0  0  0  0
 56 62  1  0  0  0  0
 57 63  1  0  0  0  0
 58 63  1  0  0  0  0
 59 63  1  0  0  0  0
 60 74  1  0  0  0  0
 61 63  1  0  0  0  0
 61 73  1  0  0  0  0
 62 74  1  0  0  0  0
 64 65  1  0  0  0  0
M  CHG  1  74   1
M  ISO  4  35 101  41 100  71 100  82 101
M  END
> <Batch ID>
0063

> <Smiles>
CNC(C)C(=O)NC(C(=O)N1Cc2cc([101O:1][101CH:1]=CC(=O)Nc3cc([100NH:0][100C:0](=O)N4CCCC(n5nc(-c6ccc(Oc7ccc(F)cc7F)cc6)c(C(N)=O)c5N)C4)c(C)cc3C)ccc2CC1C(=O)NC1CCCc2ccccc21)C(C)(C)C

> <Shape>
0.239

> <Color>
0.117

> <Negative vol penalty>
0.000

$$$$

  -OEChem-04042323123D

 86 95  0     1  0  0  0  0  0999 V2000
  -23.5635   -8.3832   21.8455 C   0  0  0  0  0  0  0  0  0  0  0  0
  -24.7108   -9.1624   21.7362 C   0  0  0  0  0  0  0  0  0  0  0  0
  -19.6185  -29.0376   21.9774 C   0  0  0  0  0  0  0  0  0  0  0  0
  -20.4708  -27.7931   23.8647 C   0  0  0  0  0  0  0  0  0  0  0  0
  -22.3869   -8.7846   21.2144 C   0  0  0  0  0  0  0  0  0  0  0  0
  -24.6824  -10.3430   20.9947 C   0  0  0  0  0  0  0  0  0  0  0  0
  -27.7533  -15.5079   22.1773 C   0  0  0  0  0  0  0  0  0  0  0  0
  -18.3460  -28.5148   22.2072 C   0  0  0  0  0  0  0  0  0  0  0  0
  -19.1982  -27.2703   24.0946 C   0  0  0  0  0  0  0  0  0  0  0  0
  -28.9426  -16.0292   21.6697 C   0  0  0  0  0  0  0  0  0  0  0  0
  -16.2512  -25.3274   24.9606 C   0  0  0  0  0  0  0  0  0  0  0  0
  -16.1495  -23.9618   25.2257 C   0  0  0  0  0  0  0  0  0  0  0  0
  -27.6832  -17.3533   20.0950 C   0  0  0  0  0  0  0  0  0  0  0  0
  -29.1568  -22.4167   23.5289 C   0  0  0  0  0  0  0  0  0  0  0  0
  -27.8897  -24.4591   23.7737 C   0  0  0  0  0  0  0  0  0  0  0  0
  -28.7868  -23.8454   21.6161 C   0  0  0  0  0  0  0  0  0  0  0  0
  -17.1320  -23.4709   23.0737 C   0  0  0  0  0  0  0  0  0  0  0  0
  -20.6810  -28.6768   22.8061 C   0  0  0  0  0  0  0  0  0  0  0  0
  -22.5387  -30.3995   23.1043 C   0  0  0  0  0  0  0  0  0  0  0  0
  -22.3414   -9.9756   20.4728 C   0  0  0  0  0  0  0  0  0  0  0  0
  -26.5185  -15.8979   21.6393 C   0  0  0  0  0  0  0  0  0  0  0  0
  -23.5044  -10.7600   20.3519 C   0  0  0  0  0  0  0  0  0  0  0  0
  -26.4796  -16.8375   20.5992 C   0  0  0  0  0  0  0  0  0  0  0  0
  -28.4354  -23.3021   24.3298 C   0  0  0  0  0  0  0  0  0  0  0  0
  -29.3326  -22.6884   22.1721 C   0  0  0  0  0  0  0  0  0  0  0  0
  -28.0654  -24.7308   22.4169 C   0  0  0  0  0  0  0  0  0  0  0  0
  -18.1358  -27.6311   23.2659 C   0  0  0  0  0  0  0  0  0  0  0  0
  -28.9079  -16.9498   20.6265 C   0  0  0  0  0  0  0  0  0  0  0  0
  -16.7932  -25.7648   23.7520 C   0  0  0  0  0  0  0  0  0  0  0  0
  -16.5899  -23.0335   24.2823 C   0  0  0  0  0  0  0  0  0  0  0  0
  -17.2336  -24.8365   22.8086 C   0  0  0  0  0  0  0  0  0  0  0  0
  -21.9959  -29.2161   22.5688 C   0  0  0  0  0  0  0  0  0  0  0  0
  -23.8052  -30.4656   22.5771 C   0  0  0  0  0  0  0  0  0  0  0  0
  -31.0820  -20.8286   19.5483 C   0  0  0  0  0  0  0  0  0  0  0  0
  -31.2840  -20.0428   20.6083 C   0  0  0  0  0  0  0  0  0  0  0  0
  -30.2854  -21.9846   20.0056 C   0  0  0  0  0  0  0  0  0  0  0  0
  -21.9506  -31.3536   23.9985 C   0  0  0  0  0  0  0  0  0  0  0  0
  -24.1420  -14.3943   20.1575 C   0  0  0  0  0  0  0  0  0  0  0  0
  -22.6866  -17.2838   20.3927 C   0  0  0  0  0  0  0  0  0  0  0  0
  -22.9980  -20.6666   20.7193 C   0  0  0  0  0  0  0  0  0  0  0  0
  -27.5938  -26.3256   20.5247 C   0  0  0  0  0  0  0  0  0  0  0  0
  -21.0593  -10.3442   19.7691 C   0  0  0  0  0  0  0  0  0  0  0  0
  -25.2433  -15.3465   22.2158 C   0  0  0  0  0  0  0  0  0  0  0  0
  -25.1788  -17.3041   20.0003 C   0  0  0  0  0  0  0  0  0  0  0  0
  -30.6585  -20.5798   21.8493 C   0  0  0  0  0  0  0  0  0  0  0  0
  -21.0118  -11.8001   19.3128 C   0  0  0  0  0  0  0  0  0  0  0  0
  -26.3364  -29.1354   18.7355 C   0  0  0  0  0  0  0  0  0  0  0  0
  -22.3150  -12.1852   18.6199 C   0  0  0  0  0  0  0  0  0  0  0  0
  -25.1336  -29.5864   19.5675 C   0  0  0  0  0  0  0  0  0  0  0  0
  -26.4756  -27.6142   18.7180 C   0  0  0  0  0  0  0  0  0  0  0  0
  -25.2965  -27.4286   20.8731 C   0  0  0  0  0  0  0  0  0  0  0  0
  -23.5066  -12.0598   19.5770 C   0  0  1  0  0  0  0  0  0  0  0  0
  -24.0667  -15.4255   21.2479 C   0  0  1  0  0  0  0  0  0  0  0  0
  -25.1531  -28.9560   20.9738 C   0  0  2  0  0  0  0  0  0  0  0  0
  -28.2489  -23.0118   25.7810 C   0  0  0  0  0  0  0  0  0  0  0  0
  -21.6316  -22.7677   20.8430 C   0  0  0  0  0  0  0  0  0  0  0  0
  -22.2145  -17.1511   17.3811 C   0  0  0  0  0  0  0  0  0  0  0  0
  -21.7339  -19.6079   17.4186 C   0  0  0  0  0  0  0  0  0  0  0  0
  -20.2836  -18.0355   18.7018 C   0  0  0  0  0  0  0  0  0  0  0  0
  -24.0075  -21.3017   23.4279 C   0  0  0  0  0  0  0  0  0  0  0  0
  -32.0401  -18.7553   20.6267 C   0  0  0  0  0  0  0  0  0  0  0  0
  -31.1661  -17.5760   21.0318 C   0  0  0  0  0  0  0  0  0  1  0  0
  -22.6221  -18.5216   19.5309 C   0  0  1  0  0  0  0  0  0  0  0  0
  -22.3044  -21.6581   21.6360 C   0  0  2  0  0  0  0  0  0  0  0  0
  -21.7383  -18.3190   18.2679 C   0  0  0  0  0  0  0  0  0  0  0  0
  -22.8478  -28.5766   21.7631 N   0  0  0  0  0  0  0  0  0  0  0  0
  -23.9387  -29.3610   21.7883 N   0  0  0  0  0  0  0  0  0  0  0  0
  -30.0514  -21.8062   21.3748 N   0  0  0  0  0  0  0  0  0  0  0  0
  -23.9594  -16.7313   20.5940 N   0  0  0  0  0  0  0  0  0  0  0  0
  -26.4911  -27.0881   20.0847 N   0  0  0  0  0  0  0  0  0  0  0  0
  -24.8065  -31.3603   22.7158 N   0  0  0  0  0  0  0  0  0  0  0  0
  -20.6401  -31.1328   24.4436 N   0  0  0  0  0  0  0  0  0  0  0  0
  -27.5121  -25.9067   21.8523 N   0  0  0  0  0  0  0  0  0  0  0  0
  -23.5494  -13.1888   20.4814 N   0  0  0  0  0  0  0  0  0  0  0  0
  -22.1785  -19.6036   20.4033 N   0  0  0  0  0  0  0  0  0  0  0  0
  -23.2882  -22.2771   22.5687 N   0  3  0  0  0  0  0  0  0  0  0  0
  -29.9278  -22.8954   19.2764 O   0  0  0  0  0  0  0  0  0  0  0  0
  -22.5631  -32.3804   24.3780 O   0  0  0  0  0  0  0  0  0  0  0  0
  -24.6953  -14.6725   19.1001 O   0  0  0  0  0  0  0  0  0  0  0  0
  -21.6469  -16.8282   20.8755 O   0  0  0  0  0  0  0  0  0  0  0  0
  -24.1501  -20.8215   20.3204 O   0  0  0  0  0  0  0  0  0  0  0  0
  -28.5534  -26.0867   19.7870 O   0  0  0  0  0  0  0  0  0  0  0  0
  -16.8941  -27.1209   23.4906 O   0  0  0  0  0  0  0  0  0  0  0  0
  -30.0673  -17.4597   20.1288 O   0  0  0  0  0  0  0  0  0  1  0  0
  -16.4936  -21.7221   24.5376 F   0  0  0  0  0  0  0  0  0  0  0  0
  -17.7563  -25.2507   21.6462 F   0  0  0  0  0  0  0  0  0  0  0  0
  1  2  1  0  0  0  0
  1  5  2  0  0  0  0
  2  6  2  0  0  0  0
  3  8  2  0  0  0  0
  3 18  1  0  0  0  0
  4  9  1  0  0  0  0
  4 18  2  0  0  0  0
  5 20  1  0  0  0  0
  6 22  1  0  0  0  0
  7 10  2  0  0  0  0
  7 21  1  0  0  0  0
  8 27  1  0  0  0  0
  9 27  2  0  0  0  0
 10 28  1  0  0  0  0
 11 12  2  0  0  0  0
 11 29  1  0  0  0  0
 12 30  1  0  0  0  0
 13 23  1  0  0  0  0
 13 28  2  0  0  0  0
 14 24  2  0  0  0  0
 14 25  1  0  0  0  0
 15 24  1  0  0  0  0
 15 26  2  0  0  0  0
 16 25  2  0  0  0  0
 16 26  1  0  0  0  0
 17 30  2  0  0  0  0
 17 31  1  0  0  0  0
 18 32  1  0  0  0  0
 19 32  1  0  0  0  0
 19 33  2  0  0  0  0
 19 37  1  0  0  0  0
 20 22  2  0  0  0  0
 20 42  1  0  0  0  0
 21 23  2  0  0  0  0
 21 43  1  0  0  0  0
 22 52  1  0  0  0  0
 23 44  1  0  0  0  0
 24 55  1  0  0  0  0
 25 68  1  0  0  0  0
 26 73  1  0  0  0  0
 27 83  1  0  0  0  0
 28 84  1  0  0  0  0
 29 31  2  0  0  0  0
 29 83  1  0  0  0  0
 30 85  1  0  0  0  0
 31 86  1  0  0  0  0
 32 66  2  0  0  0  0
 33 67  1  0  0  0  0
 33 71  1  0  0  0  0
 34 35  2  0  0  0  0
 34 36  1  0  0  0  0
 35 45  1  0  0  0  0
 35 61  1  0  0  0  0
 36 68  1  0  0  0  0
 36 77  2  0  0  0  0
 37 72  1  0  0  0  0
 37 78  2  0  0  0  0
 38 53  1  0  0  0  0
 38 74  1  0  0  0  0
 38 79  2  0  0  0  0
 39 63  1  0  0  0  0
 39 69  1  0  0  0  0
 39 80  2  0  0  0  0
 40 64  1  0  0  0  0
 40 75  1  0  0  0  0
 40 81  2  0  0  0  0
 41 70  1  0  0  0  0
 41 73  1  0  0  0  0
 41 82  2  0  0  0  0
 42 46  1  0  0  0  0
 43 53  1  0  0  0  0
 44 69  1  0  0  0  0
 45 68  1  0  0  0  0
 46 48  1  0  0  0  0
 47 49  1  0  0  0  0
 47 50  1  0  0  0  0
 48 52  1  0  0  0  0
 49 54  1  0  0  0  0
 50 70  1  0  0  0  0
 51 54  1  0  0  0  0
 51 70  1  0  0  0  0
 52 74  1  0  0  0  0
 53 69  1  0  0  0  0
 54 67  1  0  0  0  0
 56 64  1  0  0  0  0
 57 65  1  0  0  0  0
 58 65  1  0  0  0  0
 59 65  1  0  0  0  0
 60 76  1  0  0  0  0
 61 62  1  0  0  0  0
 62 84  1  0  0  0  0
 63 65  1  0  0  0  0
 63 75  1  0  0  0  0
 64 76  1  0  0  0  0
 66 67  1  0  0  0  0
M  CHG  1  76   1
M  ISO  4  41 100  62 101  73 100  84 101
M  END
> <Batch ID>
0063

> <Smiles>
CNC(C)C(=O)NC(C(=O)N1Cc2cc([101O:1][101CH2:1]C=C3CC(=O)N(c4cc(C)cc([100NH:0][100C:0](=O)N5CCCC(n6nc(-c7ccc(Oc8ccc(F)cc8F)cc7)c(C(N)=O)c6N)C5)c4)C3)ccc2CC1C(=O)NC1CCCc2ccccc21)C(C)(C)C

> <Shape>
0.217

> <Color>
0.088

> <Negative vol penalty>
0.000

$$$$

  -OEChem-04042323123D

 82 90  0     1  0  0  0  0  0999 V2000
  -17.1062  -30.2538   22.5694 C   0  0  0  0  0  0  0  0  0  0  0  0
  -18.3735  -29.7273   22.3407 C   0  0  0  0  0  0  0  0  0  0  0  0
  -32.6474  -18.2978   21.8081 C   0  0  0  0  0  0  0  0  0  0  0  0
  -23.0696   -9.9124   21.4599 C   0  0  0  0  0  0  0  0  0  0  0  0
  -23.8459  -10.7726   23.5800 C   0  0  0  0  0  0  0  0  0  0  0  0
  -16.4125  -29.9181   23.7312 C   0  0  0  0  0  0  0  0  0  0  0  0
  -18.9482  -28.8658   23.2744 C   0  0  0  0  0  0  0  0  0  0  0  0
  -22.6124  -24.0971   22.1167 C   0  0  0  0  0  0  0  0  0  0  0  0
  -31.8524  -19.3801   22.1850 C   0  0  0  0  0  0  0  0  0  0  0  0
  -32.0556  -17.1404   21.3021 C   0  0  0  0  0  0  0  0  0  0  0  0
  -22.3309   -8.9352   22.1269 C   0  0  0  0  0  0  0  0  0  0  0  0
  -23.1072   -9.7953   24.2470 C   0  0  0  0  0  0  0  0  0  0  0  0
  -23.9982  -23.9486   22.1527 C   0  0  0  0  0  0  0  0  0  0  0  0
  -22.9150   -5.9635   23.6276 C   0  0  0  0  0  0  0  0  0  0  0  0
  -22.9781   -4.6585   23.1392 C   0  0  0  0  0  0  0  0  0  0  0  0
  -23.8380  -23.0508   24.3859 C   0  0  0  0  0  0  0  0  0  0  0  0
  -29.8737  -18.1477   21.5500 C   0  0  0  0  0  0  0  0  0  0  0  0
  -20.5906   -4.6814   22.7695 C   0  0  0  0  0  0  0  0  0  0  0  0
  -23.8272  -10.8311   22.1865 C   0  0  0  0  0  0  0  0  0  0  0  0
  -24.1608  -13.1302   21.1325 C   0  0  0  0  0  0  0  0  0  0  0  0
  -16.9750  -29.0444   24.6750 C   0  0  0  0  0  0  0  0  0  0  0  0
  -21.8287  -23.7331   23.2211 C   0  0  0  0  0  0  0  0  0  0  0  0
  -18.2619  -28.5192   24.4506 C   0  0  0  0  0  0  0  0  0  0  0  0
  -22.4422  -23.1933   24.3605 C   0  0  0  0  0  0  0  0  0  0  0  0
  -30.4655  -19.3051   22.0560 C   0  0  0  0  0  0  0  0  0  0  0  0
  -30.6687  -17.0654   21.1731 C   0  0  0  0  0  0  0  0  0  0  0  0
  -22.3497   -8.8766   23.5204 C   0  0  0  0  0  0  0  0  0  0  0  0
  -24.6115  -23.4281   23.2885 C   0  0  0  0  0  0  0  0  0  0  0  0
  -21.6897   -6.6274   23.6871 C   0  0  0  0  0  0  0  0  0  0  0  0
  -21.8160   -4.0174   22.7101 C   0  0  0  0  0  0  0  0  0  0  0  0
  -20.5275   -5.9864   23.2580 C   0  0  0  0  0  0  0  0  0  0  0  0
  -24.5909  -11.8405   21.4981 C   0  0  0  0  0  0  0  0  0  0  0  0
  -25.2481  -13.6906   20.5080 C   0  0  0  0  0  0  0  0  0  0  0  0
  -27.8037  -21.8214   22.8732 C   0  0  0  0  0  0  0  0  0  0  0  0
  -26.4965  -22.1013   22.8922 C   0  0  0  0  0  0  0  0  0  1  0  0
  -22.8919  -13.7648   21.3392 C   0  0  0  0  0  0  0  0  0  0  0  0
  -28.2746  -20.4957   22.3764 C   0  0  0  0  0  0  0  0  0  0  0  0
  -19.8811  -25.2831   25.1981 C   0  0  0  0  0  0  0  0  0  0  0  0
  -19.2839  -22.3002   26.3242 C   0  0  0  0  0  0  0  0  0  0  0  0
  -20.3490  -19.0804   26.7059 C   0  0  0  0  0  0  0  0  0  0  0  0
  -30.7124  -14.7263   20.2387 C   0  0  0  0  0  0  0  0  0  0  0  0
  -16.2065  -28.7481   25.9385 C   0  0  0  0  0  0  0  0  0  0  0  0
  -20.3326  -23.8747   23.1564 C   0  0  0  0  0  0  0  0  0  0  0  0
  -21.6440  -22.7683   25.5650 C   0  0  0  0  0  0  0  0  0  0  0  0
  -16.7305  -27.5329   26.6993 C   0  0  0  0  0  0  0  0  0  0  0  0
  -29.5881  -11.6044   18.9477 C   0  0  0  0  0  0  0  0  0  0  0  0
  -18.2506  -27.5888   26.8128 C   0  0  0  0  0  0  0  0  0  0  0  0
  -28.1524  -11.4936   19.4661 C   0  0  0  0  0  0  0  0  0  0  0  0
  -30.5111  -12.2640   19.9708 C   0  0  0  0  0  0  0  0  0  0  0  0
  -28.6120  -13.4505   20.9978 C   0  0  0  0  0  0  0  0  0  0  0  0
  -18.9086  -27.5617   25.4280 C   0  0  1  0  0  0  0  0  0  0  0  0
  -19.6795  -23.9509   24.5330 C   0  0  1  0  0  0  0  0  0  0  0  0
  -27.6313  -12.8513   19.9767 C   0  0  2  0  0  0  0  0  0  0  0  0
  -19.6599  -16.8826   27.7020 C   0  0  0  0  0  0  0  0  0  0  0  0
  -19.9720  -23.3481   29.1060 C   0  0  0  0  0  0  0  0  0  0  0  0
  -20.1957  -20.9740   29.8688 C   0  0  0  0  0  0  0  0  0  0  0  0
  -18.0011  -21.8106   29.0284 C   0  0  0  0  0  0  0  0  0  0  0  0
  -20.3871  -17.7405   24.0673 C   0  0  0  0  0  0  0  0  0  0  0  0
  -19.8877  -21.4196   27.3914 C   0  0  1  0  0  0  0  0  0  0  0  0
  -19.6552  -17.7536   26.4554 C   0  0  2  0  0  0  0  0  0  0  0  0
  -19.5296  -21.8978   28.8269 C   0  0  0  0  0  0  0  0  0  0  0  0
  -25.8530  -11.5959   21.1357 N   0  0  0  0  0  0  0  0  0  0  0  0
  -26.2253  -12.7395   20.5360 N   0  0  0  0  0  0  0  0  0  0  0  0
  -20.1850  -22.9323   25.4556 N   0  0  0  0  0  0  0  0  0  0  0  0
  -29.9554  -13.5474   20.4057 N   0  0  0  0  0  0  0  0  0  0  0  0
  -25.4542  -14.8992   19.9430 N   0  0  0  0  0  0  0  0  0  0  0  0
  -21.8850  -13.0465   21.9984 N   0  0  0  0  0  0  0  0  0  0  0  0
  -29.6588  -20.4049   22.4385 N   0  0  0  0  0  0  0  0  0  0  0  0
  -30.0682  -15.8895   20.6590 N   0  0  0  0  0  0  0  0  0  0  0  0
  -18.9084  -26.2164   24.8945 N   0  0  0  0  0  0  0  0  0  0  0  0
  -19.4565  -20.0588   27.0900 N   0  0  0  0  0  0  0  0  0  0  0  0
  -20.3395  -17.0100   25.3600 N   0  3  0  0  0  0  0  0  0  0  0  0
  -22.6524  -14.9283   20.9362 O   0  0  0  0  0  0  0  0  0  0  0  0
  -27.4831  -19.6478   21.9811 O   0  0  0  0  0  0  0  0  0  0  0  0
  -20.8468  -25.4513   25.9335 O   0  0  0  0  0  0  0  0  0  0  0  0
  -18.0577  -22.4171   26.2590 O   0  0  0  0  0  0  0  0  0  0  0  0
  -21.5618  -19.2327   26.5775 O   0  0  0  0  0  0  0  0  0  0  0  0
  -31.8376  -14.7089   19.7332 O   0  0  0  0  0  0  0  0  0  0  0  0
  -21.6288   -7.9233   24.1716 O   0  0  0  0  0  0  0  0  0  0  0  0
  -25.9640  -23.2826   23.3264 O   0  0  0  0  0  0  0  0  0  1  0  0
  -21.8769   -2.7648   22.2396 F   0  0  0  0  0  0  0  0  0  0  0  0
  -19.3477   -6.6195   23.3116 F   0  0  0  0  0  0  0  0  0  0  0  0
  1  2  1  0  0  0  0
  1  6  2  0  0  0  0
  2  7  2  0  0  0  0
  3  9  2  0  0  0  0
  3 10  1  0  0  0  0
  4 11  2  0  0  0  0
  4 19  1  0  0  0  0
  5 12  1  0  0  0  0
  5 19  2  0  0  0  0
  6 21  1  0  0  0  0
  7 23  1  0  0  0  0
  8 13  2  0  0  0  0
  8 22  1  0  0  0  0
  9 25  1  0  0  0  0
 10 26  2  0  0  0  0
 11 27  1  0  0  0  0
 12 27  2  0  0  0  0
 13 28  1  0  0  0  0
 14 15  2  0  0  0  0
 14 29  1  0  0  0  0
 15 30  1  0  0  0  0
 16 24  1  0  0  0  0
 16 28  2  0  0  0  0
 17 25  2  0  0  0  0
 17 26  1  0  0  0  0
 18 30  2  0  0  0  0
 18 31  1  0  0  0  0
 19 32  1  0  0  0  0
 20 32  1  0  0  0  0
 20 33  2  0  0  0  0
 20 36  1  0  0  0  0
 21 23  2  0  0  0  0
 21 42  1  0  0  0  0
 22 24  2  0  0  0  0
 22 43  1  0  0  0  0
 23 51  1  0  0  0  0
 24 44  1  0  0  0  0
 25 68  1  0  0  0  0
 26 69  1  0  0  0  0
 27 79  1  0  0  0  0
 28 80  1  0  0  0  0
 29 31  2  0  0  0  0
 29 79  1  0  0  0  0
 30 81  1  0  0  0  0
 31 82  1  0  0  0  0
 32 62  2  0  0  0  0
 33 63  1  0  0  0  0
 33 66  1  0  0  0  0
 34 35  2  0  0  0  0
 34 37  1  0  0  0  0
 35 80  1  0  0  0  0
 36 67  1  0  0  0  0
 36 73  2  0  0  0  0
 37 68  1  0  0  0  0
 37 74  2  0  0  0  0
 38 52  1  0  0  0  0
 38 70  1  0  0  0  0
 38 75  2  0  0  0  0
 39 59  1  0  0  0  0
 39 64  1  0  0  0  0
 39 76  2  0  0  0  0
 40 60  1  0  0  0  0
 40 71  1  0  0  0  0
 40 77  2  0  0  0  0
 41 65  1  0  0  0  0
 41 69  1  0  0  0  0
 41 78  2  0  0  0  0
 42 45  1  0  0  0  0
 43 52  1  0  0  0  0
 44 64  1  0  0  0  0
 45 47  1  0  0  0  0
 46 48  1  0  0  0  0
 46 49  1  0  0  0  0
 47 51  1  0  0  0  0
 48 53  1  0  0  0  0
 49 65  1  0  0  0  0
 50 53  1  0  0  0  0
 50 65  1  0  0  0  0
 51 70  1  0  0  0  0
 52 64  1  0  0  0  0
 53 63  1  0  0  0  0
 54 60  1  0  0  0  0
 55 61  1  0  0  0  0
 56 61  1  0  0  0  0
 57 61  1  0  0  0  0
 58 72  1  0  0  0  0
 59 61  1  0  0  0  0
 59 71  1  0  0  0  0
 60 72  1  0  0  0  0
 62 63  1  0  0  0  0
M  CHG  1  72   1
M  ISO  4  35 101  41 100  69 100  80 101
M  END
> <Batch ID>
0063

> <Smiles>
CNC(C)C(=O)NC(C(=O)N1Cc2cc([101O:1][101CH:1]=CC(=O)Nc3cccc([100NH:0][100C:0](=O)N4CCCC(n5nc(-c6ccc(Oc7ccc(F)cc7F)cc6)c(C(N)=O)c5N)C4)c3)ccc2CC1C(=O)NC1CCCc2ccccc21)C(C)(C)C

> <Shape>
0.193

> <Color>
0.175

> <Negative vol penalty>
0.000

$$$$

  -OEChem-04042323123D

 85 93  0     1  0  0  0  0  0999 V2000
  -22.5442   -8.8478   26.5871 C   0  0  0  0  0  0  0  0  0  0  0  0
  -23.4863   -9.8645   26.4674 C   0  0  0  0  0  0  0  0  0  0  0  0
  -23.2529  -10.1348   22.1650 C   0  0  0  0  0  0  0  0  0  0  0  0
  -23.5066   -9.5586   19.8325 C   0  0  0  0  0  0  0  0  0  0  0  0
  -21.1919   -9.1633   26.7121 C   0  0  0  0  0  0  0  0  0  0  0  0
  -23.0764  -11.1973   26.4715 C   0  0  0  0  0  0  0  0  0  0  0  0
  -26.0992  -15.9713   28.8333 C   0  0  0  0  0  0  0  0  0  0  0  0
  -22.4918   -8.9834   22.3666 C   0  0  0  0  0  0  0  0  0  0  0  0
  -22.7456   -8.4072   20.0341 C   0  0  0  0  0  0  0  0  0  0  0  0
  -26.9157  -16.9429   28.2564 C   0  0  0  0  0  0  0  0  0  0  0  0
  -23.0438   -5.6733   22.7804 C   0  0  0  0  0  0  0  0  0  0  0  0
  -23.3259   -4.8986   23.9054 C   0  0  0  0  0  0  0  0  0  0  0  0
  -25.0282  -18.4387   28.1185 C   0  0  0  0  0  0  0  0  0  0  0  0
  -29.5907  -17.6910   22.5946 C   0  0  0  0  0  0  0  0  0  0  0  0
  -31.1981  -17.5632   20.7956 C   0  0  0  0  0  0  0  0  0  0  0  0
  -21.0691   -5.2323   24.7010 C   0  0  0  0  0  0  0  0  0  0  0  0
  -23.7603  -10.4224   20.8979 C   0  0  0  0  0  0  0  0  0  0  0  0
  -24.1427  -12.9446   20.8962 C   0  0  0  0  0  0  0  0  0  0  0  0
  -20.7662  -10.5009   26.7275 C   0  0  0  0  0  0  0  0  0  0  0  0
  -24.7363  -16.2225   29.0476 C   0  0  0  0  0  0  0  0  0  0  0  0
  -21.7170  -11.5309   26.5955 C   0  0  0  0  0  0  0  0  0  0  0  0
  -24.1970  -17.4695   28.7007 C   0  0  0  0  0  0  0  0  0  0  0  0
  -30.6807  -19.6969   21.8039 C   0  0  0  0  0  0  0  0  0  0  0  0
  -30.2989  -16.9372   21.6588 C   0  0  0  0  0  0  0  0  0  0  0  0
  -29.7815  -19.0709   22.6671 C   0  0  0  0  0  0  0  0  0  0  0  0
  -22.2381   -8.1196   21.3012 C   0  0  0  0  0  0  0  0  0  0  0  0
  -26.3797  -18.1758   27.8962 C   0  0  0  0  0  0  0  0  0  0  0  0
  -21.7744   -6.2276   22.6156 C   0  0  0  0  0  0  0  0  0  0  0  0
  -22.3385   -4.6780   24.8657 C   0  0  0  0  0  0  0  0  0  0  0  0
  -31.3890  -18.9430   20.8681 C   0  0  0  0  0  0  0  0  0  0  0  0
  -20.7871   -6.0071   23.5759 C   0  0  0  0  0  0  0  0  0  0  0  0
  -24.5461  -11.6119   20.6888 C   0  0  0  0  0  0  0  0  0  0  0  0
  -25.2429  -13.6932   20.5565 C   0  0  0  0  0  0  0  0  0  0  0  0
  -22.8858  -13.4597   21.3551 C   0  0  0  0  0  0  0  0  0  0  0  0
  -22.0261  -14.9354   27.9979 C   0  0  0  0  0  0  0  0  0  0  0  0
  -20.6853  -16.9760   30.1335 C   0  0  0  0  0  0  0  0  0  0  0  0
  -28.1271  -19.3423   24.5467 C   0  0  0  0  0  0  0  0  0  0  0  0
  -20.9442  -19.8580   31.9429 C   0  0  0  0  0  0  0  0  0  0  0  0
  -30.7274  -14.6411   20.7150 C   0  0  0  0  0  0  0  0  0  0  0  0
  -19.2890  -10.7915   26.8172 C   0  0  0  0  0  0  0  0  0  0  0  0
  -23.8747  -15.1735   29.6955 C   0  0  0  0  0  0  0  0  0  0  0  0
  -22.7445  -17.7963   28.9284 C   0  0  0  0  0  0  0  0  0  0  0  0
  -18.9744  -12.2382   27.1895 C   0  0  0  0  0  0  0  0  0  0  0  0
  -29.5461  -12.3636   18.2463 C   0  0  0  0  0  0  0  0  0  0  0  0
  -19.8178  -13.1990   26.3576 C   0  0  0  0  0  0  0  0  0  0  0  0
  -28.1068  -12.0747   18.6787 C   0  0  0  0  0  0  0  0  0  0  0  0
  -30.4785  -12.5190   19.4463 C   0  0  0  0  0  0  0  0  0  0  0  0
  -28.5997  -13.2059   20.8842 C   0  0  0  0  0  0  0  0  0  0  0  0
  -21.3139  -12.9894   26.6208 C   0  0  1  0  0  0  0  0  0  0  0  0
  -22.3896  -15.3512   29.3953 C   0  0  1  0  0  0  0  0  0  0  0  0
  -27.6108  -13.1058   19.7113 C   0  0  2  0  0  0  0  0  0  0  0  0
  -19.6722  -21.2833   33.5702 C   0  0  0  0  0  0  0  0  0  0  0  0
  -18.9401  -18.0145   27.8562 C   0  0  0  0  0  0  0  0  0  0  0  0
  -18.4067  -20.0116   29.2687 C   0  0  0  0  0  0  0  0  0  0  0  0
  -17.7495  -17.7312   30.0372 C   0  0  0  0  0  0  0  0  0  0  0  0
  -23.0129  -19.5219   34.0325 C   0  0  0  0  0  0  0  0  0  0  0  0
  -30.9039  -21.1734   21.8628 C   0  0  0  0  0  0  0  0  0  0  0  0
  -27.5762  -20.4874   25.3888 C   0  0  0  0  0  0  0  0  0  0  0  0
  -26.5554  -20.0329   26.4210 C   0  0  0  0  0  0  0  0  0  1  0  0
  -20.1872  -18.4003   30.0838 C   0  0  1  0  0  0  0  0  0  0  0  0
  -20.6789  -20.1550   33.4078 C   0  0  2  0  0  0  0  0  0  0  0  0
  -18.8479  -18.5328   29.3053 C   0  0  0  0  0  0  0  0  0  0  0  0
  -25.8043  -11.5162   20.2510 N   0  0  0  0  0  0  0  0  0  0  0  0
  -26.2010  -12.7983   20.1805 N   0  0  0  0  0  0  0  0  0  0  0  0
  -21.9415  -16.7357   29.5590 N   0  0  0  0  0  0  0  0  0  0  0  0
  -29.9468  -13.5147   20.3794 N   0  0  0  0  0  0  0  0  0  0  0  0
  -25.4746  -15.0231   20.5455 N   0  0  0  0  0  0  0  0  0  0  0  0
  -21.8998  -13.7598   20.4053 N   0  0  0  0  0  0  0  0  0  0  0  0
  -29.0535  -19.8186   23.6230 N   0  0  0  0  0  0  0  0  0  0  0  0
  -30.1049  -15.5355   21.5851 N   0  0  0  0  0  0  0  0  0  0  0  0
  -21.6965  -13.5990   27.8763 N   0  0  0  0  0  0  0  0  0  0  0  0
  -20.1220  -18.8584   31.4673 N   0  0  0  0  0  0  0  0  0  0  0  0
  -21.9419  -20.5496   34.0933 N   0  3  0  0  0  0  0  0  0  0  0  0
  -22.6501  -13.6639   22.5702 O   0  0  0  0  0  0  0  0  0  0  0  0
  -22.0419  -15.7660   27.0970 O   0  0  0  0  0  0  0  0  0  0  0  0
  -19.9887  -16.1101   30.6688 O   0  0  0  0  0  0  0  0  0  0  0  0
  -27.7651  -18.1814   24.7069 O   0  0  0  0  0  0  0  0  0  0  0  0
  -21.7931  -20.4558   31.2852 O   0  0  0  0  0  0  0  0  0  0  0  0
  -31.8538  -14.8142   20.2424 O   0  0  0  0  0  0  0  0  0  0  0  0
  -21.4957   -6.9959   21.4977 O   0  0  0  0  0  0  0  0  0  0  0  0
  -27.1743  -19.1258   27.3323 O   0  0  0  0  0  0  0  0  0  1  0  0
  -22.6091   -3.9327   25.9453 F   0  0  0  0  0  0  0  0  0  0  0  0
  -32.2567  -19.5346   20.0350 F   0  0  0  0  0  0  0  0  0  0  0  0
  -19.5654   -6.5360   23.4225 F   0  0  0  0  0  0  0  0  0  0  0  0
  -29.7414  -21.8388   21.6167 F   0  0  0  0  0  0  0  0  0  0  0  0
  1  2  1  0  0  0  0
  1  5  2  0  0  0  0
  2  6  2  0  0  0  0
  3  8  2  0  0  0  0
  3 17  1  0  0  0  0
  4  9  1  0  0  0  0
  4 17  2  0  0  0  0
  5 19  1  0  0  0  0
  6 21  1  0  0  0  0
  7 10  2  0  0  0  0
  7 20  1  0  0  0  0
  8 26  1  0  0  0  0
  9 26  2  0  0  0  0
 10 27  1  0  0  0  0
 11 12  2  0  0  0  0
 11 28  1  0  0  0  0
 12 29  1  0  0  0  0
 13 22  1  0  0  0  0
 13 27  2  0  0  0  0
 14 24  2  0  0  0  0
 14 25  1  0  0  0  0
 15 24  1  0  0  0  0
 15 30  2  0  0  0  0
 16 29  2  0  0  0  0
 16 31  1  0  0  0  0
 17 32  1  0  0  0  0
 18 32  1  0  0  0  0
 18 33  2  0  0  0  0
 18 34  1  0  0  0  0
 19 21  2  0  0  0  0
 19 40  1  0  0  0  0
 20 22  2  0  0  0  0
 20 41  1  0  0  0  0
 21 49  1  0  0  0  0
 22 42  1  0  0  0  0
 23 25  2  0  0  0  0
 23 30  1  0  0  0  0
 23 57  1  0  0  0  0
 24 70  1  0  0  0  0
 25 69  1  0  0  0  0
 26 80  1  0  0  0  0
 27 81  1  0  0  0  0
 28 31  2  0  0  0  0
 28 80  1  0  0  0  0
 29 82  1  0  0  0  0
 30 83  1  0  0  0  0
 31 84  1  0  0  0  0
 32 63  2  0  0  0  0
 33 64  1  0  0  0  0
 33 67  1  0  0  0  0
 34 68  1  0  0  0  0
 34 74  2  0  0  0  0
 35 50  1  0  0  0  0
 35 71  1  0  0  0  0
 35 75  2  0  0  0  0
 36 60  1  0  0  0  0
 36 65  1  0  0  0  0
 36 76  2  0  0  0  0
 37 58  1  0  0  0  0
 37 69  1  0  0  0  0
 37 77  2  0  0  0  0
 38 61  1  0  0  0  0
 38 72  1  0  0  0  0
 38 78  2  0  0  0  0
 39 66  1  0  0  0  0
 39 70  1  0  0  0  0
 39 79  2  0  0  0  0
 40 43  1  0  0  0  0
 41 50  1  0  0  0  0
 42 65  1  0  0  0  0
 43 45  1  0  0  0  0
 44 46  1  0  0  0  0
 44 47  1  0  0  0  0
 45 49  1  0  0  0  0
 46 51  1  0  0  0  0
 47 66  1  0  0  0  0
 48 51  1  0  0  0  0
 48 66  1  0  0  0  0
 49 71  1  0  0  0  0
 50 65  1  0  0  0  0
 51 64  1  0  0  0  0
 52 61  1  0  0  0  0
 53 62  1  0  0  0  0
 54 62  1  0  0  0  0
 55 62  1  0  0  0  0
 56 73  1  0  0  0  0
 57 85  1  0  0  0  0
 58 59  1  0  0  0  0
 59 81  1  0  0  0  0
 60 62  1  0  0  0  0
 60 72  1  0  0  0  0
 61 73  1  0  0  0  0
 63 64  1  0  0  0  0
M  CHG  1  73   1
M  ISO  4  39 100  59 101  70 100  81 101
M  END
> <Batch ID>
0063

> <Smiles>
CNC(C)C(=O)NC(C(=O)N1Cc2cc([101O:1][101CH2:1]CC(=O)Nc3cc([100NH:0][100C:0](=O)N4CCCC(n5nc(-c6ccc(Oc7ccc(F)cc7F)cc6)c(C(N)=O)c5N)C4)cc(F)c3CF)ccc2CC1C(=O)NC1CCCc2ccccc21)C(C)(C)C

> <Shape>
0.180

> <Color>
0.176

> <Negative vol penalty>
0.000

$$$$

  -OEChem-04042323123D

 91 99  0     1  0  0  0  0  0999 V2000
  -27.3989  -36.6249   16.6229 C   0  0  0  0  0  0  0  0  0  0  0  0
  -27.5199  -35.2393   16.5915 C   0  0  0  0  0  0  0  0  0  0  0  0
  -23.7753   -8.4147   20.1531 C   0  0  0  0  0  0  0  0  0  0  0  0
  -23.2019  -10.4130   21.3840 C   0  0  0  0  0  0  0  0  0  0  0  0
  -27.3290  -37.2898   17.8464 C   0  0  0  0  0  0  0  0  0  0  0  0
  -27.5721  -34.5179   17.7837 C   0  0  0  0  0  0  0  0  0  0  0  0
  -25.2660  -28.9390   18.8149 C   0  0  0  0  0  0  0  0  0  0  0  0
  -31.3472  -18.6307   19.5635 C   0  0  0  0  0  0  0  0  0  0  0  0
  -31.1448  -17.2533   19.6494 C   0  0  0  0  0  0  0  0  0  0  0  0
  -22.8084   -7.7011   20.8612 C   0  0  0  0  0  0  0  0  0  0  0  0
  -22.2349   -9.6994   22.0921 C   0  0  0  0  0  0  0  0  0  0  0  0
  -25.8464  -27.6715   18.8260 C   0  0  0  0  0  0  0  0  0  0  0  0
  -20.7371   -5.2688   22.5982 C   0  0  0  0  0  0  0  0  0  0  0  0
  -21.0871   -4.0110   23.0890 C   0  0  0  0  0  0  0  0  0  0  0  0
  -26.0947  -27.8128   21.2213 C   0  0  0  0  0  0  0  0  0  0  0  0
  -29.3935  -18.8299   18.1562 C   0  0  0  0  0  0  0  0  0  0  0  0
  -22.8502   -5.0137   24.4017 C   0  0  0  0  0  0  0  0  0  0  0  0
  -23.9721   -9.7707   20.4146 C   0  0  0  0  0  0  0  0  0  0  0  0
  -24.7973  -11.2047   18.4728 C   0  0  0  0  0  0  0  0  0  0  0  0
  -27.3706  -36.5754   19.0541 C   0  0  0  0  0  0  0  0  0  0  0  0
  -25.1052  -29.6587   20.0076 C   0  0  0  0  0  0  0  0  0  0  0  0
  -27.5040  -35.1740   19.0245 C   0  0  0  0  0  0  0  0  0  0  0  0
  -25.5095  -29.0882   21.2230 C   0  0  0  0  0  0  0  0  0  0  0  0
  -30.4715  -19.4190   18.8169 C   0  0  0  0  0  0  0  0  0  0  0  0
  -30.0669  -16.6642   18.9887 C   0  0  0  0  0  0  0  0  0  0  0  0
  -22.0382   -8.3434   21.8307 C   0  0  0  0  0  0  0  0  0  0  0  0
  -26.2635  -27.1093   20.0290 C   0  0  0  0  0  0  0  0  0  0  0  0
  -21.4436   -6.3992   23.0091 C   0  0  0  0  0  0  0  0  0  0  0  0
  -22.1436   -3.8834   23.9907 C   0  0  0  0  0  0  0  0  0  0  0  0
  -22.5001   -6.2716   23.9109 C   0  0  0  0  0  0  0  0  0  0  0  0
  -29.1912  -17.4525   18.2420 C   0  0  0  0  0  0  0  0  0  0  0  0
  -24.9711  -10.5083   19.6839 C   0  0  0  0  0  0  0  0  0  0  0  0
  -26.0361  -11.7304   18.1981 C   0  0  0  0  0  0  0  0  0  0  0  0
  -32.6821  -23.7941   17.2269 C   0  0  0  0  0  0  0  0  0  0  0  0
  -31.4054  -23.4300   17.0591 C   0  0  0  0  0  0  0  0  0  0  0  0
  -23.6211  -11.3623   17.6681 C   0  0  0  0  0  0  0  0  0  0  0  0
  -26.2022  -32.4256   21.1232 C   0  0  0  0  0  0  0  0  0  0  0  0
  -24.1788  -31.7920   23.5781 C   0  0  0  0  0  0  0  0  0  0  0  0
  -28.6571  -24.5016   19.2426 C   0  0  0  0  0  0  0  0  0  0  0  0
  -29.9085  -21.7459   18.0346 C   0  0  0  0  0  0  0  0  0  0  0  0
  -22.4553  -29.4661   25.3855 C   0  0  0  0  0  0  0  0  0  0  0  0
  -30.6764  -14.3583   19.7996 C   0  0  0  0  0  0  0  0  0  0  0  0
  -27.3393  -37.3420   20.3525 C   0  0  0  0  0  0  0  0  0  0  0  0
  -24.4528  -31.0138   19.9819 C   0  0  0  0  0  0  0  0  0  0  0  0
  -25.3407  -29.8112   22.5334 C   0  0  0  0  0  0  0  0  0  0  0  0
  -27.0242  -36.4716   21.5664 C   0  0  0  0  0  0  0  0  0  0  0  0
  -30.5389  -10.8405   20.3322 C   0  0  0  0  0  0  0  0  0  0  0  0
  -27.8582  -35.1946   21.5385 C   0  0  0  0  0  0  0  0  0  0  0  0
  -29.0638  -10.4978   20.1114 C   0  0  0  0  0  0  0  0  0  0  0  0
  -30.7099  -12.1939   21.0199 C   0  0  0  0  0  0  0  0  0  0  0  0
  -28.5398  -12.9698   20.1496 C   0  0  0  0  0  0  0  0  0  0  0  0
  -27.5390  -34.3543   20.2961 C   0  0  1  0  0  0  0  0  0  0  0  0
  -24.8076  -31.8708   21.1932 C   0  0  1  0  0  0  0  0  0  0  0  0
  -28.3189  -11.6451   19.4013 C   0  0  2  0  0  0  0  0  0  0  0  0
  -20.9175  -29.2468   27.3564 C   0  0  0  0  0  0  0  0  0  0  0  0
  -26.5448  -32.1837   25.4646 C   0  0  0  0  0  0  0  0  0  0  0  0
  -25.2156  -31.0463   27.2556 C   0  0  0  0  0  0  0  0  0  0  0  0
  -24.3965  -33.1838   26.2640 C   0  0  0  0  0  0  0  0  0  0  0  0
  -20.2886  -28.3354   23.7164 C   0  0  0  0  0  0  0  0  0  0  0  0
  -27.5599  -25.4796   18.8804 C   0  0  0  0  0  0  0  0  0  1  0  0
  -30.4671  -23.1573   18.1926 C   0  0  2  0  0  0  0  0  0  0  0  0
  -24.2907  -31.0613   24.8944 C   0  0  1  0  0  0  0  0  0  0  0  0
  -21.0103  -29.4185   25.8482 C   0  0  2  0  0  0  0  0  0  0  0  0
  -25.1170  -31.8557   25.9449 C   0  0  0  0  0  0  0  0  0  0  0  0
  -26.2219  -10.5828   20.1466 N   0  0  0  0  0  0  0  0  0  0  0  0
  -26.8452  -11.3322   19.2213 N   0  0  0  0  0  0  0  0  0  0  0  0
  -24.7033  -31.1360   22.4555 N   0  0  0  0  0  0  0  0  0  0  0  0
  -29.9807  -13.2327   20.2893 N   0  0  0  0  0  0  0  0  0  0  0  0
  -26.5013  -12.4897   17.1836 N   0  0  0  0  0  0  0  0  0  0  0  0
  -22.4322  -10.7563   18.0967 N   0  0  0  0  0  0  0  0  0  0  0  0
  -30.6777  -20.8167   18.7297 N   0  0  0  0  0  0  0  0  0  0  0  0
  -29.8847  -15.2628   19.0928 N   0  0  0  0  0  0  0  0  0  0  0  0
  -26.2916  -33.6424   20.4743 N   0  0  0  0  0  0  0  0  0  0  0  0
  -29.3670  -24.0912   18.1251 N   0  0  0  0  0  0  0  0  0  0  0  0
  -22.9255  -30.7602   25.3114 N   0  0  0  0  0  0  0  0  0  0  0  0
  -20.2963  -28.2818   25.2010 N   0  3  0  0  0  0  0  0  0  0  0  0
  -23.6283  -12.0073   16.5923 O   0  0  0  0  0  0  0  0  0  0  0  0
  -27.1283  -31.7972   21.6223 O   0  0  0  0  0  0  0  0  0  0  0  0
  -23.6393  -32.9009   23.5460 O   0  0  0  0  0  0  0  0  0  0  0  0
  -28.8663  -24.1350   20.3957 O   0  0  0  0  0  0  0  0  0  0  0  0
  -28.9255  -21.5184   17.3338 O   0  0  0  0  0  0  0  0  0  0  0  0
  -23.1033  -28.4561   25.1200 O   0  0  0  0  0  0  0  0  0  0  0  0
  -31.8906  -14.4952   19.9697 O   0  0  0  0  0  0  0  0  0  0  0  0
  -27.1691  -17.8154   16.6672 O   0  0  0  0  0  0  0  0  0  0  0  0
  -28.2854  -15.5333   16.7597 O   0  0  0  0  0  0  0  0  0  0  0  0
  -21.0944   -7.6474   22.5216 O   0  0  0  0  0  0  0  0  0  0  0  0
  -26.8310  -25.8726   20.0426 O   0  0  0  0  0  0  0  0  0  1  0  0
  -22.4786   -2.6756   24.4631 F   0  0  0  0  0  0  0  0  0  0  0  0
  -23.1819   -7.3540   24.3102 F   0  0  0  0  0  0  0  0  0  0  0  0
  -26.7815  -16.2839   18.4945 F   0  0  0  0  0  0  0  0  0  0  0  0
  -27.8275  -16.7510   17.3963 S   0  0  0  0  0  0  0  0  0  0  0  0
  1  2  1  0  0  0  0
  1  5  2  0  0  0  0
  2  6  2  0  0  0  0
  3 10  2  0  0  0  0
  3 18  1  0  0  0  0
  4 11  1  0  0  0  0
  4 18  2  0  0  0  0
  5 20  1  0  0  0  0
  6 22  1  0  0  0  0
  7 12  2  0  0  0  0
  7 21  1  0  0  0  0
  8  9  2  0  0  0  0
  8 24  1  0  0  0  0
  9 25  1  0  0  0  0
 10 26  1  0  0  0  0
 11 26  2  0  0  0  0
 12 27  1  0  0  0  0
 13 14  2  0  0  0  0
 13 28  1  0  0  0  0
 14 29  1  0  0  0  0
 15 23  1  0  0  0  0
 15 27  2  0  0  0  0
 16 24  2  0  0  0  0
 16 31  1  0  0  0  0
 17 29  2  0  0  0  0
 17 30  1  0  0  0  0
 18 32  1  0  0  0  0
 19 32  1  0  0  0  0
 19 33  2  0  0  0  0
 19 36  1  0  0  0  0
 20 22  2  0  0  0  0
 20 43  1  0  0  0  0
 21 23  2  0  0  0  0
 21 44  1  0  0  0  0
 22 52  1  0  0  0  0
 23 45  1  0  0  0  0
 24 71  1  0  0  0  0
 25 31  2  0  0  0  0
 25 72  1  0  0  0  0
 26 86  1  0  0  0  0
 27 87  1  0  0  0  0
 28 30  2  0  0  0  0
 28 86  1  0  0  0  0
 29 88  1  0  0  0  0
 30 89  1  0  0  0  0
 31 91  1  0  0  0  0
 32 65  2  0  0  0  0
 33 66  1  0  0  0  0
 33 69  1  0  0  0  0
 34 35  2  0  0  0  0
 35 61  1  0  0  0  0
 36 70  1  0  0  0  0
 36 77  2  0  0  0  0
 37 53  1  0  0  0  0
 37 73  1  0  0  0  0
 37 78  2  0  0  0  0
 38 62  1  0  0  0  0
 38 67  1  0  0  0  0
 38 79  2  0  0  0  0
 39 60  1  0  0  0  0
 39 74  1  0  0  0  0
 39 80  2  0  0  0  0
 40 61  1  0  0  0  0
 40 71  1  0  0  0  0
 40 81  2  0  0  0  0
 41 63  1  0  0  0  0
 41 75  1  0  0  0  0
 41 82  2  0  0  0  0
 42 68  1  0  0  0  0
 42 72  1  0  0  0  0
 42 83  2  0  0  0  0
 43 46  1  0  0  0  0
 44 53  1  0  0  0  0
 45 67  1  0  0  0  0
 46 48  1  0  0  0  0
 47 49  1  0  0  0  0
 47 50  1  0  0  0  0
 48 52  1  0  0  0  0
 49 54  1  0  0  0  0
 50 68  1  0  0  0  0
 51 54  1  0  0  0  0
 51 68  1  0  0  0  0
 52 73  1  0  0  0  0
 53 67  1  0  0  0  0
 54 66  1  0  0  0  0
 55 63  1  0  0  0  0
 56 64  1  0  0  0  0
 57 64  1  0  0  0  0
 58 64  1  0  0  0  0
 59 76  1  0  0  0  0
 60 87  1  0  0  0  0
 61 74  1  0  0  0  0
 62 64  1  0  0  0  0
 62 75  1  0  0  0  0
 63 76  1  0  0  0  0
 65 66  1  0  0  0  0
 84 91  2  0  0  0  0
 85 91  2  0  0  0  0
 90 91  1  0  0  0  0
M  CHG  1  76   1
M  ISO  4  42 100  60 101  72 100  87 101
M  END
> <Batch ID>
0063

> <Smiles>
C=CC(NC(=O)[101CH2:1][101O:1]c1ccc2c(c1)CN(C(=O)C(NC(=O)C(C)NC)C(C)(C)C)C(C(=O)NC1CCCc3ccccc31)C2)C(=O)Nc1ccc([100NH:0][100C:0](=O)N2CCCC(n3nc(-c4ccc(Oc5ccc(F)cc5F)cc4)c(C(N)=O)c3N)C2)c(S(=O)(=O)F)c1

> <Shape>
0.273

> <Color>
0.109

> <Negative vol penalty>
0.000

$$$$

  -OEChem-04042323123D

 84 92  0     1  0  0  0  0  0999 V2000
  -26.2543  -35.1312   23.1531 C   0  0  0  0  0  0  0  0  0  0  0  0
  -26.8105  -34.1697   22.3154 C   0  0  0  0  0  0  0  0  0  0  0  0
  -23.1421   -9.9668   21.3954 C   0  0  0  0  0  0  0  0  0  0  0  0
  -23.9131  -10.8821   23.4942 C   0  0  0  0  0  0  0  0  0  0  0  0
  -26.2702  -34.9437   24.5346 C   0  0  0  0  0  0  0  0  0  0  0  0
  -27.3840  -33.0207   22.8588 C   0  0  0  0  0  0  0  0  0  0  0  0
  -27.3541  -27.3943   20.4405 C   0  0  0  0  0  0  0  0  0  0  0  0
  -29.5027  -18.3508   20.4167 C   0  0  0  0  0  0  0  0  0  0  0  0
  -29.6545  -19.6286   19.8785 C   0  0  0  0  0  0  0  0  0  0  0  0
  -22.4131   -8.9984   22.0854 C   0  0  0  0  0  0  0  0  0  0  0  0
  -23.1840   -9.9137   24.1843 C   0  0  0  0  0  0  0  0  0  0  0  0
  -28.3016  -26.6850   19.7038 C   0  0  0  0  0  0  0  0  0  0  0  0
  -19.9684   -9.3885   25.0814 C   0  0  0  0  0  0  0  0  0  0  0  0
  -19.2177   -9.8057   26.1805 C   0  0  0  0  0  0  0  0  0  0  0  0
  -31.1279  -17.4962   18.8466 C   0  0  0  0  0  0  0  0  0  0  0  0
  -29.0641  -25.6143   21.7265 C   0  0  0  0  0  0  0  0  0  0  0  0
  -20.4854   -8.3252   27.6082 C   0  0  0  0  0  0  0  0  0  0  0  0
  -23.8922  -10.9086   22.0997 C   0  0  0  0  0  0  0  0  0  0  0  0
  -31.2797  -18.7741   18.3083 C   0  0  0  0  0  0  0  0  0  0  0  0
  -24.2037  -13.1859   20.9931 C   0  0  0  0  0  0  0  0  0  0  0  0
  -26.8355  -33.7873   25.0947 C   0  0  0  0  0  0  0  0  0  0  0  0
  -27.2616  -27.2268   21.8297 C   0  0  0  0  0  0  0  0  0  0  0  0
  -27.4086  -32.8182   24.2492 C   0  0  0  0  0  0  0  0  0  0  0  0
  -28.1128  -26.3208   22.4783 C   0  0  0  0  0  0  0  0  0  0  0  0
  -30.2394  -17.2846   19.9008 C   0  0  0  0  0  0  0  0  0  0  0  0
  -30.5430  -19.8403   18.8242 C   0  0  0  0  0  0  0  0  0  0  0  0
  -22.4340   -8.9718   23.4799 C   0  0  0  0  0  0  0  0  0  0  0  0
  -29.1587  -25.7970   20.3471 C   0  0  0  0  0  0  0  0  0  0  0  0
  -20.9776   -8.4397   25.2456 C   0  0  0  0  0  0  0  0  0  0  0  0
  -19.4762   -9.2741   27.4439 C   0  0  0  0  0  0  0  0  0  0  0  0
  -21.2360   -7.9080   26.5091 C   0  0  0  0  0  0  0  0  0  0  0  0
  -24.6460  -11.9089   21.3874 C   0  0  0  0  0  0  0  0  0  0  0  0
  -25.2852  -13.7418   20.3545 C   0  0  0  0  0  0  0  0  0  0  0  0
  -32.0970  -18.3561   16.0340 C   0  0  0  0  0  0  0  0  0  0  0  0
  -32.2185  -18.9568   17.2074 C   0  0  0  0  0  0  0  0  0  0  0  0
  -22.9293  -13.8137   21.1870 C   0  0  0  0  0  0  0  0  0  0  0  0
  -27.6290  -29.1311   24.3481 C   0  0  0  0  0  0  0  0  0  0  0  0
  -26.5852  -26.5284   25.9785 C   0  0  0  0  0  0  0  0  0  0  0  0
  -30.0107  -22.2995   18.7116 C   0  0  0  0  0  0  0  0  0  0  0  0
  -26.2115  -23.1380   26.0911 C   0  0  0  0  0  0  0  0  0  0  0  0
  -30.7395  -14.8203   20.0541 C   0  0  0  0  0  0  0  0  0  0  0  0
  -26.8715  -33.6510   26.5963 C   0  0  0  0  0  0  0  0  0  0  0  0
  -26.2162  -27.9795   22.6063 C   0  0  0  0  0  0  0  0  0  0  0  0
  -28.0406  -26.0897   23.9648 C   0  0  0  0  0  0  0  0  0  0  0  0
  -27.1636  -32.2302   27.0722 C   0  0  0  0  0  0  0  0  0  0  0  0
  -29.6420  -11.6597   18.8362 C   0  0  0  0  0  0  0  0  0  0  0  0
  -28.3361  -31.6380   26.2968 C   0  0  0  0  0  0  0  0  0  0  0  0
  -28.2080  -11.5478   19.3589 C   0  0  0  0  0  0  0  0  0  0  0  0
  -30.5602  -12.3509   19.8427 C   0  0  0  0  0  0  0  0  0  0  0  0
  -28.6517  -13.5433   20.8450 C   0  0  0  0  0  0  0  0  0  0  0  0
  -28.0177  -31.5469   24.7995 C   0  0  1  0  0  0  0  0  0  0  0  0
  -26.5541  -28.1140   24.0879 C   0  0  1  0  0  0  0  0  0  0  0  0
  -27.6752  -12.9121   19.8392 C   0  0  2  0  0  0  0  0  0  0  0  0
  -25.3580  -21.2983   27.5691 C   0  0  0  0  0  0  0  0  0  0  0  0
  -29.0760  -26.7777   27.7232 C   0  0  0  0  0  0  0  0  0  0  0  0
  -28.6696  -24.4381   28.5163 C   0  0  0  0  0  0  0  0  0  0  0  0
  -26.9813  -26.2177   28.9693 C   0  0  0  0  0  0  0  0  0  0  0  0
  -24.1974  -22.3061   24.0887 C   0  0  0  0  0  0  0  0  0  0  0  0
  -30.4496  -23.4968   17.8762 C   0  0  0  0  0  0  0  0  0  0  0  0
  -29.7579  -24.7910   18.2771 C   0  0  0  0  0  0  0  0  0  1  0  0
  -27.2463  -25.3306   26.6167 C   0  0  1  0  0  0  0  0  0  0  0  0
  -25.0200  -22.2672   26.4467 C   0  0  2  0  0  0  0  0  0  0  0  0
  -27.9962  -25.6966   27.9286 C   0  0  0  0  0  0  0  0  0  0  0  0
  -25.9098  -11.6675   21.0290 N   0  0  0  0  0  0  0  0  0  0  0  0
  -26.2710  -12.8004   20.4028 N   0  0  0  0  0  0  0  0  0  0  0  0
  -27.0060  -26.8539   24.6813 N   0  0  0  0  0  0  0  0  0  0  0  0
  -29.9935  -13.6387   20.2490 N   0  0  0  0  0  0  0  0  0  0  0  0
  -25.4796  -14.9390   19.7618 N   0  0  0  0  0  0  0  0  0  0  0  0
  -21.9298  -13.1015   21.8638 N   0  0  0  0  0  0  0  0  0  0  0  0
  -30.6758  -21.1478   18.2995 N   0  0  0  0  0  0  0  0  0  0  0  0
  -30.0853  -15.9869   20.4486 N   0  0  0  0  0  0  0  0  0  0  0  0
  -27.1550  -30.4157   24.5342 N   0  0  0  0  0  0  0  0  0  0  0  0
  -26.1995  -24.3287   26.7864 N   0  0  0  0  0  0  0  0  0  0  0  0
  -24.5827  -21.4782   25.2605 N   0  3  0  0  0  0  0  0  0  0  0  0
  -22.6789  -14.9655   20.7579 O   0  0  0  0  0  0  0  0  0  0  0  0
  -28.8016  -28.7765   24.3791 O   0  0  0  0  0  0  0  0  0  0  0  0
  -25.7219  -27.1479   26.6051 O   0  0  0  0  0  0  0  0  0  0  0  0
  -29.1811  -22.3989   19.6095 O   0  0  0  0  0  0  0  0  0  0  0  0
  -27.0693  -22.7946   25.2807 O   0  0  0  0  0  0  0  0  0  0  0  0
  -31.8643  -14.8015   19.5475 O   0  0  0  0  0  0  0  0  0  0  0  0
  -21.7225   -8.0271   24.1536 O   0  0  0  0  0  0  0  0  0  0  0  0
  -30.0849  -25.1038   19.6305 O   0  0  0  0  0  0  0  0  0  1  0  0
  -18.7562   -9.6759   28.4995 F   0  0  0  0  0  0  0  0  0  0  0  0
  -22.2050   -6.9971   26.6733 F   0  0  0  0  0  0  0  0  0  0  0  0
  1  2  1  0  0  0  0
  1  5  2  0  0  0  0
  2  6  2  0  0  0  0
  3 10  2  0  0  0  0
  3 18  1  0  0  0  0
  4 11  1  0  0  0  0
  4 18  2  0  0  0  0
  5 21  1  0  0  0  0
  6 23  1  0  0  0  0
  7 12  2  0  0  0  0
  7 22  1  0  0  0  0
  8  9  2  0  0  0  0
  8 25  1  0  0  0  0
  9 26  1  0  0  0  0
 10 27  1  0  0  0  0
 11 27  2  0  0  0  0
 12 28  1  0  0  0  0
 13 14  2  0  0  0  0
 13 29  1  0  0  0  0
 14 30  1  0  0  0  0
 15 19  1  0  0  0  0
 15 25  2  0  0  0  0
 16 24  1  0  0  0  0
 16 28  2  0  0  0  0
 17 30  2  0  0  0  0
 17 31  1  0  0  0  0
 18 32  1  0  0  0  0
 19 26  2  0  0  0  0
 19 35  1  0  0  0  0
 20 32  1  0  0  0  0
 20 33  2  0  0  0  0
 20 36  1  0  0  0  0
 21 23  2  0  0  0  0
 21 42  1  0  0  0  0
 22 24  2  0  0  0  0
 22 43  1  0  0  0  0
 23 51  1  0  0  0  0
 24 44  1  0  0  0  0
 25 71  1  0  0  0  0
 26 70  1  0  0  0  0
 27 81  1  0  0  0  0
 28 82  1  0  0  0  0
 29 31  2  0  0  0  0
 29 81  1  0  0  0  0
 30 83  1  0  0  0  0
 31 84  1  0  0  0  0
 32 64  2  0  0  0  0
 33 65  1  0  0  0  0
 33 68  1  0  0  0  0
 34 35  2  0  0  0  0
 36 69  1  0  0  0  0
 36 75  2  0  0  0  0
 37 52  1  0  0  0  0
 37 72  1  0  0  0  0
 37 76  2  0  0  0  0
 38 61  1  0  0  0  0
 38 66  1  0  0  0  0
 38 77  2  0  0  0  0
 39 59  1  0  0  0  0
 39 70  1  0  0  0  0
 39 78  2  0  0  0  0
 40 62  1  0  0  0  0
 40 73  1  0  0  0  0
 40 79  2  0  0  0  0
 41 67  1  0  0  0  0
 41 71  1  0  0  0  0
 41 80  2  0  0  0  0
 42 45  1  0  0  0  0
 43 52  1  0  0  0  0
 44 66  1  0  0  0  0
 45 47  1  0  0  0  0
 46 48  1  0  0  0  0
 46 49  1  0  0  0  0
 47 51  1  0  0  0  0
 48 53  1  0  0  0  0
 49 67  1  0  0  0  0
 50 53  1  0  0  0  0
 50 67  1  0  0  0  0
 51 72  1  0  0  0  0
 52 66  1  0  0  0  0
 53 65  1  0  0  0  0
 54 62  1  0  0  0  0
 55 63  1  0  0  0  0
 56 63  1  0  0  0  0
 57 63  1  0  0  0  0
 58 74  1  0  0  0  0
 59 60  1  0  0  0  0
 60 82  1  0  0  0  0
 61 63  1  0  0  0  0
 61 73  1  0  0  0  0
 62 74  1  0  0  0  0
 64 65  1  0  0  0  0
M  CHG  1  74   1
M  ISO  4  41 100  60 101  71 100  82 101
M  END
> <Batch ID>
0063

> <Smiles>
C=Cc1cc([100NH:0][100C:0](=O)N2CCCC(n3nc(-c4ccc(Oc5ccc(F)cc5F)cc4)c(C(N)=O)c3N)C2)ccc1NC(=O)C[101CH2:1][101O:1]c1ccc2c(c1)CN(C(=O)C(NC(=O)C(C)NC)C(C)(C)C)C(C(=O)NC1CCCc3ccccc31)C2

> <Shape>
0.258

> <Color>
0.149

> <Negative vol penalty>
0.000

$$$$

  -OEChem-04042323123D

 83 91  0     1  0  0  0  0  0999 V2000
  -19.4159  -30.1893   20.6421 C   0  0  0  0  0  0  0  0  0  0  0  0
  -20.4990  -29.4337   21.0796 C   0  0  0  0  0  0  0  0  0  0  0  0
  -23.0580   -9.9437   21.5063 C   0  0  0  0  0  0  0  0  0  0  0  0
  -23.7736  -10.8940   23.6091 C   0  0  0  0  0  0  0  0  0  0  0  0
  -18.2084  -30.1424   21.3375 C   0  0  0  0  0  0  0  0  0  0  0  0
  -20.3754  -28.6314   22.2134 C   0  0  0  0  0  0  0  0  0  0  0  0
  -22.3691  -24.0225   21.5587 C   0  0  0  0  0  0  0  0  0  0  0  0
  -32.5349  -18.4462   21.7558 C   0  0  0  0  0  0  0  0  0  0  0  0
  -31.9679  -17.2635   21.2811 C   0  0  0  0  0  0  0  0  0  0  0  0
  -22.3138   -8.9845   22.1930 C   0  0  0  0  0  0  0  0  0  0  0  0
  -23.0293   -9.9348   24.2958 C   0  0  0  0  0  0  0  0  0  0  0  0
  -23.7565  -23.9115   21.6402 C   0  0  0  0  0  0  0  0  0  0  0  0
  -22.8928   -6.0799   23.8216 C   0  0  0  0  0  0  0  0  0  0  0  0
  -22.9816   -4.7578   23.3859 C   0  0  0  0  0  0  0  0  0  0  0  0
  -23.5524  -23.0972   23.9017 C   0  0  0  0  0  0  0  0  0  0  0  0
  -29.7699  -18.2542   21.4380 C   0  0  0  0  0  0  0  0  0  0  0  0
  -20.6036   -4.7389   22.9590 C   0  0  0  0  0  0  0  0  0  0  0  0
  -23.7879  -10.8985   22.2143 C   0  0  0  0  0  0  0  0  0  0  0  0
  -24.1225  -13.1588   21.0800 C   0  0  0  0  0  0  0  0  0  0  0  0
  -18.0670  -29.3317   22.4748 C   0  0  0  0  0  0  0  0  0  0  0  0
  -21.5622  -23.6815   22.6537 C   0  0  0  0  0  0  0  0  0  0  0  0
  -19.1652  -28.5746   22.9254 C   0  0  0  0  0  0  0  0  0  0  0  0
  -22.1549  -23.2023   23.8307 C   0  0  0  0  0  0  0  0  0  0  0  0
  -31.7193  -19.5329   22.0716 C   0  0  0  0  0  0  0  0  0  0  0  0
  -30.5855  -17.1675   21.1222 C   0  0  0  0  0  0  0  0  0  0  0  0
  -30.3369  -19.4369   21.9127 C   0  0  0  0  0  0  0  0  0  0  0  0
  -22.2994   -8.9800   23.5877 C   0  0  0  0  0  0  0  0  0  0  0  0
  -24.3485  -23.4515   22.8128 C   0  0  0  0  0  0  0  0  0  0  0  0
  -21.6595   -6.7314   23.8261 C   0  0  0  0  0  0  0  0  0  0  0  0
  -21.8370   -4.0873   22.9546 C   0  0  0  0  0  0  0  0  0  0  0  0
  -20.5149   -6.0609   23.3947 C   0  0  0  0  0  0  0  0  0  0  0  0
  -24.5573  -11.8893   21.5055 C   0  0  0  0  0  0  0  0  0  0  0  0
  -25.2186  -13.7072   20.4602 C   0  0  0  0  0  0  0  0  0  0  0  0
  -27.5904  -21.9133   22.5530 C   0  0  0  0  0  0  0  0  0  0  0  0
  -26.2768  -22.1597   22.5235 C   0  0  0  0  0  0  0  0  0  1  0  0
  -22.8423  -13.7862   21.2316 C   0  0  0  0  0  0  0  0  0  0  0  0
  -28.1086  -20.5819   22.1228 C   0  0  0  0  0  0  0  0  0  0  0  0
  -19.5191  -25.2560   24.5112 C   0  0  0  0  0  0  0  0  0  0  0  0
  -18.9629  -22.3046   25.7368 C   0  0  0  0  0  0  0  0  0  0  0  0
  -20.0956  -19.1308   26.2759 C   0  0  0  0  0  0  0  0  0  0  0  0
  -30.6765  -14.7947   20.2807 C   0  0  0  0  0  0  0  0  0  0  0  0
  -16.7564  -29.3500   23.2210 C   0  0  0  0  0  0  0  0  0  0  0  0
  -20.0657  -23.7816   22.5406 C   0  0  0  0  0  0  0  0  0  0  0  0
  -21.3321  -22.8039   25.0276 C   0  0  0  0  0  0  0  0  0  0  0  0
  -16.5941  -28.1862   24.1954 C   0  0  0  0  0  0  0  0  0  0  0  0
  -29.6169  -11.6125   19.0858 C   0  0  0  0  0  0  0  0  0  0  0  0
  -17.8598  -28.0060   25.0274 C   0  0  0  0  0  0  0  0  0  0  0  0
  -28.1704  -11.5052   19.5738 C   0  0  0  0  0  0  0  0  0  0  0  0
  -30.5079  -12.3218   20.1040 C   0  0  0  0  0  0  0  0  0  0  0  0
  -28.5720  -13.5250   21.0387 C   0  0  0  0  0  0  0  0  0  0  0  0
  -19.0628  -27.6731   24.1366 C   0  0  1  0  0  0  0  0  0  0  0  0
  -19.3704  -23.8942   23.8939 C   0  0  1  0  0  0  0  0  0  0  0  0
  -27.6227  -12.8755   20.0187 C   0  0  2  0  0  0  0  0  0  0  0  0
  -32.3541  -20.7873   22.5780 C   0  0  0  0  0  0  0  0  0  0  0  0
  -19.4320  -16.9562   27.3381 C   0  0  0  0  0  0  0  0  0  0  0  0
  -19.5420  -23.4772   28.4935 C   0  0  0  0  0  0  0  0  0  0  0  0
  -19.8018  -21.1411   29.3558 C   0  0  0  0  0  0  0  0  0  0  0  0
  -17.6129  -21.8873   28.4204 C   0  0  0  0  0  0  0  0  0  0  0  0
  -20.2451  -17.6909   23.6946 C   0  0  0  0  0  0  0  0  0  0  0  0
  -19.5564  -21.4820   26.8549 C   0  0  1  0  0  0  0  0  0  0  0  0
  -19.4427  -17.7777   26.0584 C   0  0  2  0  0  0  0  0  0  0  0  0
  -19.1442  -22.0062   28.2595 C   0  0  0  0  0  0  0  0  0  0  0  0
  -25.8304  -11.6454   21.1831 N   0  0  0  0  0  0  0  0  0  0  0  0
  -26.2049  -12.7692   20.5483 N   0  0  0  0  0  0  0  0  0  0  0  0
  -19.8734  -22.9256   24.8701 N   0  0  0  0  0  0  0  0  0  0  0  0
  -29.9283  -13.6144   20.4754 N   0  0  0  0  0  0  0  0  0  0  0  0
  -25.4254  -14.8954   19.8537 N   0  0  0  0  0  0  0  0  0  0  0  0
  -21.8275  -13.0823   21.8942 N   0  0  0  0  0  0  0  0  0  0  0  0
  -29.4922  -20.5294   22.2281 N   0  0  0  0  0  0  0  0  0  0  0  0
  -30.0100  -15.9657   20.6400 N   0  0  0  0  0  0  0  0  0  0  0  0
  -19.0232  -26.2840   23.7323 N   0  0  0  0  0  0  0  0  0  0  0  0
  -19.1682  -20.0999   26.5953 N   0  0  0  0  0  0  0  0  0  0  0  0
  -20.1773  -17.0101   25.0133 N   0  3  0  0  0  0  0  0  0  0  0  0
  -22.6004  -14.9305   20.7781 O   0  0  0  0  0  0  0  0  0  0  0  0
  -27.3504  -19.6991   21.7388 O   0  0  0  0  0  0  0  0  0  0  0  0
  -20.0435  -25.3658   25.6133 O   0  0  0  0  0  0  0  0  0  0  0  0
  -17.7366  -22.3870   25.6319 O   0  0  0  0  0  0  0  0  0  0  0  0
  -21.3075  -19.3093   26.1765 O   0  0  0  0  0  0  0  0  0  0  0  0
  -31.8137  -14.7708   19.8031 O   0  0  0  0  0  0  0  0  0  0  0  0
  -21.5731   -8.0443   24.2582 O   0  0  0  0  0  0  0  0  0  0  0  0
  -25.7025  -23.3428   22.8952 O   0  0  0  0  0  0  0  0  0  1  0  0
  -21.9227   -2.8182   22.5348 F   0  0  0  0  0  0  0  0  0  0  0  0
  -19.3274   -6.6821   23.3956 F   0  0  0  0  0  0  0  0  0  0  0  0
  1  2  1  0  0  0  0
  1  5  2  0  0  0  0
  2  6  2  0  0  0  0
  3 10  2  0  0  0  0
  3 18  1  0  0  0  0
  4 11  1  0  0  0  0
  4 18  2  0  0  0  0
  5 20  1  0  0  0  0
  6 22  1  0  0  0  0
  7 12  2  0  0  0  0
  7 21  1  0  0  0  0
  8  9  2  0  0  0  0
  8 24  1  0  0  0  0
  9 25  1  0  0  0  0
 10 27  1  0  0  0  0
 11 27  2  0  0  0  0
 12 28  1  0  0  0  0
 13 14  2  0  0  0  0
 13 29  1  0  0  0  0
 14 30  1  0  0  0  0
 15 23  1  0  0  0  0
 15 28  2  0  0  0  0
 16 25  2  0  0  0  0
 16 26  1  0  0  0  0
 17 30  2  0  0  0  0
 17 31  1  0  0  0  0
 18 32  1  0  0  0  0
 19 32  1  0  0  0  0
 19 33  2  0  0  0  0
 19 36  1  0  0  0  0
 20 22  2  0  0  0  0
 20 42  1  0  0  0  0
 21 23  2  0  0  0  0
 21 43  1  0  0  0  0
 22 51  1  0  0  0  0
 23 44  1  0  0  0  0
 24 26  2  0  0  0  0
 24 54  1  0  0  0  0
 25 70  1  0  0  0  0
 26 69  1  0  0  0  0
 27 80  1  0  0  0  0
 28 81  1  0  0  0  0
 29 31  2  0  0  0  0
 29 80  1  0  0  0  0
 30 82  1  0  0  0  0
 31 83  1  0  0  0  0
 32 63  2  0  0  0  0
 33 64  1  0  0  0  0
 33 67  1  0  0  0  0
 34 35  2  0  0  0  0
 34 37  1  0  0  0  0
 35 81  1  0  0  0  0
 36 68  1  0  0  0  0
 36 74  2  0  0  0  0
 37 69  1  0  0  0  0
 37 75  2  0  0  0  0
 38 52  1  0  0  0  0
 38 71  1  0  0  0  0
 38 76  2  0  0  0  0
 39 60  1  0  0  0  0
 39 65  1  0  0  0  0
 39 77  2  0  0  0  0
 40 61  1  0  0  0  0
 40 72  1  0  0  0  0
 40 78  2  0  0  0  0
 41 66  1  0  0  0  0
 41 70  1  0  0  0  0
 41 79  2  0  0  0  0
 42 45  1  0  0  0  0
 43 52  1  0  0  0  0
 44 65  1  0  0  0  0
 45 47  1  0  0  0  0
 46 48  1  0  0  0  0
 46 49  1  0  0  0  0
 47 51  1  0  0  0  0
 48 53  1  0  0  0  0
 49 66  1  0  0  0  0
 50 53  1  0  0  0  0
 50 66  1  0  0  0  0
 51 71  1  0  0  0  0
 52 65  1  0  0  0  0
 53 64  1  0  0  0  0
 55 61  1  0  0  0  0
 56 62  1  0  0  0  0
 57 62  1  0  0  0  0
 58 62  1  0  0  0  0
 59 73  1  0  0  0  0
 60 62  1  0  0  0  0
 60 72  1  0  0  0  0
 61 73  1  0  0  0  0
 63 64  1  0  0  0  0
M  CHG  1  73   1
M  ISO  4  35 101  41 100  70 100  81 101
M  END
> <Batch ID>
0063

> <Smiles>
CNC(C)C(=O)NC(C(=O)N1Cc2cc([101O:1][101CH:1]=CC(=O)Nc3cc([100NH:0][100C:0](=O)N4CCCC(n5nc(-c6ccc(Oc7ccc(F)cc7F)cc6)c(C(N)=O)c5N)C4)ccc3C)ccc2CC1C(=O)NC1CCCc2ccccc21)C(C)(C)C

> <Shape>
0.207

> <Color>
0.161

> <Negative vol penalty>
0.000

$$$$

  -OEChem-04042323123D

 87 96  0     1  0  0  0  0  0999 V2000
  -30.2313  -36.1807   23.3539 C   0  0  0  0  0  0  0  0  0  0  0  0
  -30.2380  -35.2590   22.3119 C   0  0  0  0  0  0  0  0  0  0  0  0
  -23.2771  -14.6453   22.7696 C   0  0  0  0  0  0  0  0  0  0  0  0
  -23.4585  -15.8236   20.6682 C   0  0  0  0  0  0  0  0  0  0  0  0
  -29.6458  -35.8471   24.5744 C   0  0  0  0  0  0  0  0  0  0  0  0
  -29.6600  -34.0026   22.4902 C   0  0  0  0  0  0  0  0  0  0  0  0
  -26.1244  -28.9212   18.8853 C   0  0  0  0  0  0  0  0  0  0  0  0
  -22.4516  -15.6549   23.2645 C   0  0  0  0  0  0  0  0  0  0  0  0
  -22.6329  -16.8331   21.1630 C   0  0  0  0  0  0  0  0  0  0  0  0
  -26.1749  -27.5525   18.6248 C   0  0  0  0  0  0  0  0  0  0  0  0
  -22.9238  -19.5124   23.2045 C   0  0  0  0  0  0  0  0  0  0  0  0
  -23.3076  -20.8338   22.9758 C   0  0  0  0  0  0  0  0  0  0  0  0
  -25.1223  -27.1152   20.7509 C   0  0  0  0  0  0  0  0  0  0  0  0
  -28.8306  -21.3311   20.8689 C   0  0  0  0  0  0  0  0  0  0  0  0
  -29.9926  -19.2768   21.3851 C   0  0  0  0  0  0  0  0  0  0  0  0
  -28.0880  -19.2466   19.8989 C   0  0  0  0  0  0  0  0  0  0  0  0
  -21.2513  -21.2221   21.7683 C   0  0  0  0  0  0  0  0  0  0  0  0
  -23.7806  -14.7297   21.4715 C   0  0  0  0  0  0  0  0  0  0  0  0
  -24.3158  -12.3240   20.8128 C   0  0  0  0  0  0  0  0  0  0  0  0
  -29.0518  -34.5894   24.7647 C   0  0  0  0  0  0  0  0  0  0  0  0
  -25.5815  -29.3974   20.0873 C   0  0  0  0  0  0  0  0  0  0  0  0
  -29.0672  -33.6513   23.7149 C   0  0  0  0  0  0  0  0  0  0  0  0
  -25.0638  -28.4905   21.0231 C   0  0  0  0  0  0  0  0  0  0  0  0
  -29.8528  -20.6564   21.5363 C   0  0  0  0  0  0  0  0  0  0  0  0
  -27.9482  -20.6262   20.0502 C   0  0  0  0  0  0  0  0  0  0  0  0
  -29.1102  -18.5719   20.5664 C   0  0  0  0  0  0  0  0  0  0  0  0
  -22.1295  -16.7488   22.4612 C   0  0  0  0  0  0  0  0  0  0  0  0
  -25.6764  -26.6491   19.5589 C   0  0  0  0  0  0  0  0  0  0  0  0
  -21.7037  -19.0458   22.7151 C   0  0  0  0  0  0  0  0  0  0  0  0
  -22.4713  -21.6886   22.2577 C   0  0  0  0  0  0  0  0  0  0  0  0
  -20.8675  -19.9007   21.9970 C   0  0  0  0  0  0  0  0  0  0  0  0
  -24.6339  -13.6874   20.9599 C   0  0  0  0  0  0  0  0  0  0  0  0
  -25.4538  -11.7604   20.2897 C   0  0  0  0  0  0  0  0  0  0  0  0
  -25.6758  -20.6791   19.0686 C   0  0  0  0  0  0  0  0  0  0  0  0
  -23.1002  -11.6291   21.1213 C   0  0  0  0  0  0  0  0  0  0  0  0
  -26.7055  -31.0576   22.5540 C   0  0  0  0  0  0  0  0  0  0  0  0
  -23.6018  -31.0152   23.4963 C   0  0  0  0  0  0  0  0  0  0  0  0
  -20.5511  -29.4923   23.3532 C   0  0  0  0  0  0  0  0  0  0  0  0
  -28.4660  -16.3094   19.6414 C   0  0  0  0  0  0  0  0  0  0  0  0
  -28.4730  -34.2571   26.1172 C   0  0  0  0  0  0  0  0  0  0  0  0
  -25.5102  -30.8782   20.3415 C   0  0  0  0  0  0  0  0  0  0  0  0
  -24.4523  -28.9517   22.3199 C   0  0  0  0  0  0  0  0  0  0  0  0
  -24.7464  -21.3715   18.0886 C   0  0  0  0  0  0  0  0  0  0  0  0
  -27.5505  -33.0410   26.1028 C   0  0  0  0  0  0  0  0  0  0  0  0
  -24.8270  -22.8838   18.0783 C   0  0  0  0  0  0  0  0  0  0  0  0
  -30.1312  -12.9426   20.5118 C   0  0  0  0  0  0  0  0  0  0  0  0
  -28.1897  -31.8951   25.3248 C   0  0  0  0  0  0  0  0  0  0  0  0
  -28.7677  -12.3005   20.7344 C   0  0  0  0  0  0  0  0  0  0  0  0
  -30.0040  -14.4634   20.4982 C   0  0  0  0  0  0  0  0  0  0  0  0
  -28.1885  -13.9652   18.8587 C   0  0  0  0  0  0  0  0  0  0  0  0
  -27.0420  -22.7815   19.1776 C   0  0  0  0  0  0  0  0  0  0  0  0
  -28.4284  -32.2873   23.8617 C   0  0  1  0  0  0  0  0  0  0  0  0
  -25.4034  -31.2257   21.8232 C   0  0  1  0  0  0  0  0  0  0  0  0
  -27.7698  -12.6950   19.6273 C   0  0  2  0  0  0  0  0  0  0  0  0
  -26.2751  -23.3688   17.9823 C   0  0  1  0  0  0  0  0  0  0  0  0
  -30.7953  -21.4103   22.4128 C   0  0  0  0  0  0  0  0  0  0  0  0
  -26.9346  -22.9478   16.6559 C   0  0  0  0  0  0  0  0  0  0  0  0
  -18.2179  -29.6666   24.2604 C   0  0  0  0  0  0  0  0  0  0  0  0
  -24.5578  -29.8866   26.1651 C   0  0  0  0  0  0  0  0  0  0  0  0
  -22.1967  -29.2045   26.6430 C   0  0  0  0  0  0  0  0  0  0  0  0
  -22.7608  -31.6164   26.3476 C   0  0  0  0  0  0  0  0  0  0  0  0
  -19.4021  -29.8498   20.6493 C   0  0  0  0  0  0  0  0  0  0  0  0
  -26.3002  -24.9056   18.0665 C   0  0  0  0  0  0  0  0  0  1  0  0
  -22.7508  -30.0899   24.3321 C   0  0  1  0  0  0  0  0  0  0  0  0
  -19.1570  -30.0489   23.1270 C   0  0  2  0  0  0  0  0  0  0  0  0
  -23.0798  -30.1902   25.8484 C   0  0  0  0  0  0  0  0  0  0  0  0
  -25.8768  -13.9727   20.5626 N   0  0  0  0  0  0  0  0  0  0  0  0
  -26.3497  -12.7806   20.1607 N   0  0  0  0  0  0  0  0  0  0  0  0
  -26.8882  -21.3264   19.3584 N   0  0  0  0  0  0  0  0  0  0  0  0
  -24.4112  -30.4090   22.5251 N   0  0  0  0  0  0  0  0  0  0  0  0
  -28.8693  -14.9519   19.7010 N   0  0  0  0  0  0  0  0  0  0  0  0
  -25.7657  -10.4965   19.9322 N   0  0  0  0  0  0  0  0  0  0  0  0
  -22.1190  -11.5250   20.1258 N   0  0  0  0  0  0  0  0  0  0  0  0
  -29.2515  -17.1695   20.4137 N   0  0  0  0  0  0  0  0  0  0  0  0
  -27.1914  -32.2240   23.1132 N   0  0  0  0  0  0  0  0  0  0  0  0
  -21.3643  -30.3989   23.9998 N   0  0  0  0  0  0  0  0  0  0  0  0
  -18.5912  -29.5261   21.8513 N   0  3  0  0  0  0  0  0  0  0  0  0
  -25.3372  -19.5734   19.5010 O   0  0  0  0  0  0  0  0  0  0  0  0
  -22.8834  -11.1299   22.2515 O   0  0  0  0  0  0  0  0  0  0  0  0
  -27.2296  -29.9512   22.6079 O   0  0  0  0  0  0  0  0  0  0  0  0
  -23.5450  -32.2317   23.6929 O   0  0  0  0  0  0  0  0  0  0  0  0
  -20.8841  -28.3646   22.9957 O   0  0  0  0  0  0  0  0  0  0  0  0
  -27.5062  -16.6706   18.9573 O   0  0  0  0  0  0  0  0  0  0  0  0
  -21.3238  -17.7340   22.9436 O   0  0  0  0  0  0  0  0  0  0  0  0
  -25.7250  -25.3126   19.3075 O   0  0  0  0  0  0  0  0  0  1  0  0
  -22.8394  -22.9579   22.0395 F   0  0  0  0  0  0  0  0  0  0  0  0
  -19.6937  -19.4585   21.5253 F   0  0  0  0  0  0  0  0  0  0  0  0
  1  2  1  0  0  0  0
  1  5  2  0  0  0  0
  2  6  2  0  0  0  0
  3  8  2  0  0  0  0
  3 18  1  0  0  0  0
  4  9  1  0  0  0  0
  4 18  2  0  0  0  0
  5 20  1  0  0  0  0
  6 22  1  0  0  0  0
  7 10  2  0  0  0  0
  7 21  1  0  0  0  0
  8 27  1  0  0  0  0
  9 27  2  0  0  0  0
 10 28  1  0  0  0  0
 11 12  2  0  0  0  0
 11 29  1  0  0  0  0
 12 30  1  0  0  0  0
 13 23  1  0  0  0  0
 13 28  2  0  0  0  0
 14 24  2  0  0  0  0
 14 25  1  0  0  0  0
 15 24  1  0  0  0  0
 15 26  2  0  0  0  0
 16 25  2  0  0  0  0
 16 26  1  0  0  0  0
 17 30  2  0  0  0  0
 17 31  1  0  0  0  0
 18 32  1  0  0  0  0
 19 32  1  0  0  0  0
 19 33  2  0  0  0  0
 19 35  1  0  0  0  0
 20 22  2  0  0  0  0
 20 40  1  0  0  0  0
 21 23  2  0  0  0  0
 21 41  1  0  0  0  0
 22 52  1  0  0  0  0
 23 42  1  0  0  0  0
 24 56  1  0  0  0  0
 25 69  1  0  0  0  0
 26 74  1  0  0  0  0
 27 84  1  0  0  0  0
 28 85  1  0  0  0  0
 29 31  2  0  0  0  0
 29 84  1  0  0  0  0
 30 86  1  0  0  0  0
 31 87  1  0  0  0  0
 32 67  2  0  0  0  0
 33 68  1  0  0  0  0
 33 72  1  0  0  0  0
 34 43  1  0  0  0  0
 34 69  1  0  0  0  0
 34 78  2  0  0  0  0
 35 73  1  0  0  0  0
 35 79  2  0  0  0  0
 36 53  1  0  0  0  0
 36 75  1  0  0  0  0
 36 80  2  0  0  0  0
 37 64  1  0  0  0  0
 37 70  1  0  0  0  0
 37 81  2  0  0  0  0
 38 65  1  0  0  0  0
 38 76  1  0  0  0  0
 38 82  2  0  0  0  0
 39 71  1  0  0  0  0
 39 74  1  0  0  0  0
 39 83  2  0  0  0  0
 40 44  1  0  0  0  0
 41 53  1  0  0  0  0
 42 70  1  0  0  0  0
 43 45  1  0  0  0  0
 44 47  1  0  0  0  0
 45 55  1  0  0  0  0
 46 48  1  0  0  0  0
 46 49  1  0  0  0  0
 47 52  1  0  0  0  0
 48 54  1  0  0  0  0
 49 71  1  0  0  0  0
 50 54  1  0  0  0  0
 50 71  1  0  0  0  0
 51 55  1  0  0  0  0
 51 69  1  0  0  0  0
 52 75  1  0  0  0  0
 53 70  1  0  0  0  0
 54 68  1  0  0  0  0
 55 57  1  0  0  0  0
 55 63  1  0  0  0  0
 58 65  1  0  0  0  0
 59 66  1  0  0  0  0
 60 66  1  0  0  0  0
 61 66  1  0  0  0  0
 62 77  1  0  0  0  0
 63 85  1  0  0  0  0
 64 66  1  0  0  0  0
 64 76  1  0  0  0  0
 65 77  1  0  0  0  0
 67 68  1  0  0  0  0
M  CHG  1  77   1
M  ISO  4  39 100  63 101  74 100  85 101
M  END
> <Batch ID>
0063

> <Smiles>
CNC(C)C(=O)NC(C(=O)N1Cc2cc([101O:1][101CH2:1]C3(C)CCC(=O)N(c4cc(C)cc([100NH:0][100C:0](=O)N5CCCC(n6nc(-c7ccc(Oc8ccc(F)cc8F)cc7)c(C(N)=O)c6N)C5)c4)C3)ccc2CC1C(=O)NC1CCCc2ccccc21)C(C)(C)C

> <Shape>
0.259

> <Color>
0.081

> <Negative vol penalty>
0.000

$$$$

  -OEChem-04042323123D

 86 94  0     1  0  0  0  0  0999 V2000
  -25.7420  -22.1818   16.0936 C   0  0  0  0  0  0  0  0  0  0  0  0
  -26.1508  -21.8530   17.3821 C   0  0  0  0  0  0  0  0  0  0  0  0
  -23.0777   -9.8653   19.9359 C   0  0  0  0  0  0  0  0  0  0  0  0
  -23.8378   -9.8682   22.2293 C   0  0  0  0  0  0  0  0  0  0  0  0
  -26.6915  -22.4771   15.1163 C   0  0  0  0  0  0  0  0  0  0  0  0
  -27.5096  -21.8183   17.6937 C   0  0  0  0  0  0  0  0  0  0  0  0
  -28.5511  -24.0884   22.0990 C   0  0  0  0  0  0  0  0  0  0  0  0
  -32.6484  -17.4885   23.4618 C   0  0  0  0  0  0  0  0  0  0  0  0
  -32.0584  -16.6078   22.5553 C   0  0  0  0  0  0  0  0  0  0  0  0
  -22.3351   -8.7108   20.1835 C   0  0  0  0  0  0  0  0  0  0  0  0
  -23.0951   -8.7138   22.4769 C   0  0  0  0  0  0  0  0  0  0  0  0
  -28.2730  -23.3752   23.2642 C   0  0  0  0  0  0  0  0  0  0  0  0
  -19.8678   -7.9114   23.0780 C   0  0  0  0  0  0  0  0  0  0  0  0
  -19.1110   -7.8682   24.2489 C   0  0  0  0  0  0  0  0  0  0  0  0
  -30.6026  -22.7756   23.4459 C   0  0  0  0  0  0  0  0  0  0  0  0
  -20.3545   -5.9305   24.9811 C   0  0  0  0  0  0  0  0  0  0  0  0
  -23.8291  -10.4440   20.9588 C   0  0  0  0  0  0  0  0  0  0  0  0
  -24.1683  -12.9697   20.8440 C   0  0  0  0  0  0  0  0  0  0  0  0
  -28.0622  -22.4554   15.4185 C   0  0  0  0  0  0  0  0  0  0  0  0
  -29.8573  -24.1417   21.5916 C   0  0  0  0  0  0  0  0  0  0  0  0
  -28.4783  -22.1123   16.7191 C   0  0  0  0  0  0  0  0  0  0  0  0
  -30.8950  -23.4923   22.2755 C   0  0  0  0  0  0  0  0  0  0  0  0
  -31.8524  -18.3530   24.2132 C   0  0  0  0  0  0  0  0  0  0  0  0
  -30.6723  -16.5916   22.4001 C   0  0  0  0  0  0  0  0  0  0  0  0
  -30.4663  -18.3368   24.0580 C   0  0  0  0  0  0  0  0  0  0  0  0
  -22.3437   -8.1351   21.4540 C   0  0  0  0  0  0  0  0  0  0  0  0
  -29.2983  -22.7163   23.9363 C   0  0  0  0  0  0  0  0  0  0  0  0
  -20.8679   -6.9641   22.8586 C   0  0  0  0  0  0  0  0  0  0  0  0
  -19.3543   -6.8778   25.2005 C   0  0  0  0  0  0  0  0  0  0  0  0
  -21.1113   -5.9737   23.8102 C   0  0  0  0  0  0  0  0  0  0  0  0
  -29.8762  -17.4561   23.1515 C   0  0  0  0  0  0  0  0  0  0  0  0
  -24.5969  -11.6362   20.7035 C   0  0  0  0  0  0  0  0  0  0  0  0
  -25.2597  -13.7211   20.4822 C   0  0  0  0  0  0  0  0  0  0  0  0
  -22.8973  -13.4833   21.2641 C   0  0  0  0  0  0  0  0  0  0  0  0
  -31.2573  -23.2012   18.8973 C   0  0  0  0  0  0  0  0  0  0  0  0
  -33.8244  -24.7354   20.1537 C   0  0  0  0  0  0  0  0  0  0  0  0
  -35.4376  -25.8865   22.9321 C   0  0  0  0  0  0  0  0  0  0  0  0
  -28.3403  -18.9829   25.2413 C   0  0  0  0  0  0  0  0  0  0  0  0
  -30.7248  -14.7720   20.6587 C   0  0  0  0  0  0  0  0  0  0  0  0
  -29.0531  -22.7357   14.3166 C   0  0  0  0  0  0  0  0  0  0  0  0
  -30.1454  -24.9375   20.3482 C   0  0  0  0  0  0  0  0  0  0  0  0
  -32.3179  -23.5355   21.7834 C   0  0  0  0  0  0  0  0  0  0  0  0
  -30.4593  -23.0422   14.8255 C   0  0  0  0  0  0  0  0  0  0  0  0
  -29.6127  -12.3620   18.2855 C   0  0  0  0  0  0  0  0  0  0  0  0
  -30.8755  -22.0289   15.8870 C   0  0  0  0  0  0  0  0  0  0  0  0
  -28.1734  -12.0680   18.7145 C   0  0  0  0  0  0  0  0  0  0  0  0
  -30.5277  -12.5892   19.4875 C   0  0  0  0  0  0  0  0  0  0  0  0
  -28.6201  -13.3088   20.8704 C   0  0  0  0  0  0  0  0  0  0  0  0
  -29.9421  -22.0881   17.1022 C   0  0  1  0  0  0  0  0  0  0  0  0
  -31.4226  -24.4972   19.6395 C   0  0  1  0  0  0  0  0  0  0  0  0
  -27.6473  -13.1370   19.6923 C   0  0  2  0  0  0  0  0  0  0  0  0
  -32.5121  -19.2854   25.1769 C   0  0  0  0  0  0  0  0  0  0  0  0
  -37.5348  -27.0655   23.6456 C   0  0  0  0  0  0  0  0  0  0  0  0
  -35.4113  -22.1642   19.7290 C   0  0  0  0  0  0  0  0  0  0  0  0
  -37.1523  -23.0637   21.2873 C   0  0  0  0  0  0  0  0  0  0  0  0
  -36.6493  -24.2606   19.1573 C   0  0  0  0  0  0  0  0  0  0  0  0
  -33.9133  -28.1458   24.0859 C   0  0  0  0  0  0  0  0  0  0  0  0
  -26.5418  -19.0624   27.6793 C   0  0  0  0  0  0  0  0  0  0  0  0
  -27.7304  -21.4398   25.1885 C   0  0  0  0  0  0  0  0  0  1  0  0
  -34.9737  -24.3396   21.0489 C   0  0  1  0  0  0  0  0  0  0  0  0
  -36.0775  -27.2277   23.2421 C   0  0  2  0  0  0  0  0  0  0  0  0
  -27.7999  -20.1725   26.0337 C   0  0  1  0  0  0  0  0  0  0  0  0
  -36.0196  -23.4544   20.3141 C   0  0  0  0  0  0  0  0  0  0  0  0
  -25.8619  -11.5425   20.2849 N   0  0  0  0  0  0  0  0  0  0  0  0
  -26.2374  -12.8267   20.1592 N   0  0  0  0  0  0  0  0  0  0  0  0
  -32.5479  -24.3215   20.5599 N   0  0  0  0  0  0  0  0  0  0  0  0
  -29.9677  -13.6176   20.3671 N   0  0  0  0  0  0  0  0  0  0  0  0
  -25.4687  -15.0529   20.4120 N   0  0  0  0  0  0  0  0  0  0  0  0
  -21.8864  -12.5724   21.5996 N   0  0  0  0  0  0  0  0  0  0  0  0
  -29.6443  -19.2070   24.8130 N   0  0  0  0  0  0  0  0  0  0  0  0
  -30.0765  -15.6946   21.4791 N   0  0  0  0  0  0  0  0  0  0  0  0
  -30.2669  -23.2271   17.9339 N   0  0  0  0  0  0  0  0  0  0  0  0
  -35.5162  -25.5812   21.5897 N   0  0  0  0  0  0  0  0  0  0  0  0
  -35.3535  -27.9018   24.3567 N   0  3  0  0  0  0  0  0  0  0  0  0
  -22.6598  -14.7136   21.3241 O   0  0  0  0  0  0  0  0  0  0  0  0
  -31.9760  -22.2489   19.1768 O   0  0  0  0  0  0  0  0  0  0  0  0
  -34.0501  -25.3940   19.1353 O   0  0  0  0  0  0  0  0  0  0  0  0
  -34.9229  -25.1787   23.7950 O   0  0  0  0  0  0  0  0  0  0  0  0
  -27.6592  -17.9779   25.0590 O   0  0  0  0  0  0  0  0  0  0  0  0
  -31.8537  -14.9428   20.1914 O   0  0  0  0  0  0  0  0  0  0  0  0
  -21.6189   -7.0087   21.6960 O   0  0  0  0  0  0  0  0  0  0  0  0
  -29.0295  -22.0188   25.0735 O   0  0  0  0  0  0  0  0  0  1  0  0
  -26.4981  -19.8729   26.5115 O   0  0  0  0  0  0  0  0  0  0  0  0
  -18.6285   -6.8374   26.3255 F   0  0  0  0  0  0  0  0  0  0  0  0
  -22.0715   -5.0616   23.6056 F   0  0  0  0  0  0  0  0  0  0  0  0
  -28.5427  -17.4388   23.0018 F   0  0  0  0  0  0  0  0  0  0  0  0
  1  2  1  0  0  0  0
  1  5  2  0  0  0  0
  2  6  2  0  0  0  0
  3 10  2  0  0  0  0
  3 17  1  0  0  0  0
  4 11  1  0  0  0  0
  4 17  2  0  0  0  0
  5 19  1  0  0  0  0
  6 21  1  0  0  0  0
  7 12  2  0  0  0  0
  7 20  1  0  0  0  0
  8  9  1  0  0  0  0
  8 23  2  0  0  0  0
  9 24  2  0  0  0  0
 10 26  1  0  0  0  0
 11 26  2  0  0  0  0
 12 27  1  0  0  0  0
 13 14  2  0  0  0  0
 13 28  1  0  0  0  0
 14 29  1  0  0  0  0
 15 22  1  0  0  0  0
 15 27  2  0  0  0  0
 16 29  2  0  0  0  0
 16 30  1  0  0  0  0
 17 32  1  0  0  0  0
 18 32  1  0  0  0  0
 18 33  2  0  0  0  0
 18 34  1  0  0  0  0
 19 21  2  0  0  0  0
 19 40  1  0  0  0  0
 20 22  2  0  0  0  0
 20 41  1  0  0  0  0
 21 49  1  0  0  0  0
 22 42  1  0  0  0  0
 23 25  1  0  0  0  0
 23 52  1  0  0  0  0
 24 31  1  0  0  0  0
 24 71  1  0  0  0  0
 25 31  2  0  0  0  0
 25 70  1  0  0  0  0
 26 81  1  0  0  0  0
 27 82  1  0  0  0  0
 28 30  2  0  0  0  0
 28 81  1  0  0  0  0
 29 84  1  0  0  0  0
 30 85  1  0  0  0  0
 31 86  1  0  0  0  0
 32 64  2  0  0  0  0
 33 65  1  0  0  0  0
 33 68  1  0  0  0  0
 34 69  1  0  0  0  0
 34 75  2  0  0  0  0
 35 50  1  0  0  0  0
 35 72  1  0  0  0  0
 35 76  2  0  0  0  0
 36 60  1  0  0  0  0
 36 66  1  0  0  0  0
 36 77  2  0  0  0  0
 37 61  1  0  0  0  0
 37 73  1  0  0  0  0
 37 78  2  0  0  0  0
 38 62  1  0  0  0  0
 38 70  1  0  0  0  0
 38 79  2  0  0  0  0
 39 67  1  0  0  0  0
 39 71  1  0  0  0  0
 39 80  2  0  0  0  0
 40 43  1  0  0  0  0
 41 50  1  0  0  0  0
 42 66  1  0  0  0  0
 43 45  1  0  0  0  0
 44 46  1  0  0  0  0
 44 47  1  0  0  0  0
 45 49  1  0  0  0  0
 46 51  1  0  0  0  0
 47 67  1  0  0  0  0
 48 51  1  0  0  0  0
 48 67  1  0  0  0  0
 49 72  1  0  0  0  0
 50 66  1  0  0  0  0
 51 65  1  0  0  0  0
 53 61  1  0  0  0  0
 54 63  1  0  0  0  0
 55 63  1  0  0  0  0
 56 63  1  0  0  0  0
 57 74  1  0  0  0  0
 58 83  1  0  0  0  0
 59 62  1  0  0  0  0
 59 82  1  0  0  0  0
 60 63  1  0  0  0  0
 60 73  1  0  0  0  0
 61 74  1  0  0  0  0
 62 83  1  0  0  0  0
 64 65  1  0  0  0  0
M  CHG  1  74   1
M  ISO  4  39 100  59 101  71 100  82 101
M  END
> <Batch ID>
0063

> <Smiles>
CNC(C)C(=O)NC(C(=O)N1Cc2cc([101O:1][101CH2:1]C(OC)C(=O)Nc3c(C)ccc([100NH:0][100C:0](=O)N4CCCC(n5nc(-c6ccc(Oc7ccc(F)cc7F)cc6)c(C(N)=O)c5N)C4)c3F)ccc2CC1C(=O)NC1CCCc2ccccc21)C(C)(C)C

> <Shape>
0.200

> <Color>
0.187

> <Negative vol penalty>
0.000

$$$$

  -OEChem-04042323123D

 88 97  0     1  0  0  0  0  0999 V2000
  -18.8828  -24.8014   20.1674 C   0  0  0  0  0  0  0  0  0  0  0  0
  -19.6656  -24.0766   21.0604 C   0  0  0  0  0  0  0  0  0  0  0  0
  -22.9418  -10.0930   19.9896 C   0  0  0  0  0  0  0  0  0  0  0  0
  -23.8194   -9.9367   22.2352 C   0  0  0  0  0  0  0  0  0  0  0  0
  -19.2599  -26.0926   19.8006 C   0  0  0  0  0  0  0  0  0  0  0  0
  -20.8265  -24.6423   21.5863 C   0  0  0  0  0  0  0  0  0  0  0  0
  -23.1142  -23.7991   27.2043 C   0  0  0  0  0  0  0  0  0  0  0  0
  -22.1462   -8.9713   20.2225 C   0  0  0  0  0  0  0  0  0  0  0  0
  -23.0238   -8.8149   22.4680 C   0  0  0  0  0  0  0  0  0  0  0  0
  -24.1230  -22.9692   27.6914 C   0  0  0  0  0  0  0  0  0  0  0  0
  -19.2364   -8.2636   21.7925 C   0  0  0  0  0  0  0  0  0  0  0  0
  -17.9055   -8.3156   21.3783 C   0  0  0  0  0  0  0  0  0  0  0  0
  -25.6952  -24.7910   27.5221 C   0  0  0  0  0  0  0  0  0  0  0  0
  -32.4068  -17.8471   24.1796 C   0  0  0  0  0  0  0  0  0  0  0  0
  -32.4296  -16.1793   22.4319 C   0  0  0  0  0  0  0  0  0  0  0  0
  -30.3319  -17.1138   23.1824 C   0  0  0  0  0  0  0  0  0  0  0  0
  -18.2815   -6.4171   19.9321 C   0  0  0  0  0  0  0  0  0  0  0  0
  -23.7785  -10.5757   20.9960 C   0  0  0  0  0  0  0  0  0  0  0  0
  -24.2599  -13.0809   20.9832 C   0  0  0  0  0  0  0  0  0  0  0  0
  -20.4209  -26.6780   20.3298 C   0  0  0  0  0  0  0  0  0  0  0  0
  -23.3912  -25.1304   26.8615 C   0  0  0  0  0  0  0  0  0  0  0  0
  -21.2202  -25.9420   21.2252 C   0  0  0  0  0  0  0  0  0  0  0  0
  -24.6876  -25.6365   27.0332 C   0  0  0  0  0  0  0  0  0  0  0  0
  -33.1136  -16.9796   23.3469 C   0  0  0  0  0  0  0  0  0  0  0  0
  -31.0159  -17.9142   24.0974 C   0  0  0  0  0  0  0  0  0  0  0  0
  -31.0388  -16.2463   22.3496 C   0  0  0  0  0  0  0  0  0  0  0  0
  -22.1872   -8.3322   21.4616 C   0  0  0  0  0  0  0  0  0  0  0  0
  -25.4144  -23.4643   27.8477 C   0  0  0  0  0  0  0  0  0  0  0  0
  -20.0899   -7.2885   21.2764 C   0  0  0  0  0  0  0  0  0  0  0  0
  -17.4280   -7.3923   20.4481 C   0  0  0  0  0  0  0  0  0  0  0  0
  -19.6124   -6.3652   20.3463 C   0  0  0  0  0  0  0  0  0  0  0  0
  -24.6010  -11.7341   20.7559 C   0  0  0  0  0  0  0  0  0  0  0  0
  -25.3733  -13.7869   20.5981 C   0  0  0  0  0  0  0  0  0  0  0  0
  -30.0372  -20.8115   26.3693 C   0  0  0  0  0  0  0  0  0  0  0  0
  -28.9323  -20.3241   26.9471 C   0  0  0  0  0  0  0  0  0  0  0  0
  -30.8521  -20.0129   25.4113 C   0  0  0  0  0  0  0  0  0  0  0  0
  -23.0451  -13.6434   21.4966 C   0  0  0  0  0  0  0  0  0  0  0  0
  -23.2526  -26.8317   24.1801 C   0  0  0  0  0  0  0  0  0  0  0  0
  -23.9781  -29.2930   26.1644 C   0  0  0  0  0  0  0  0  0  0  0  0
  -25.3633  -30.3320   29.1053 C   0  0  0  0  0  0  0  0  0  0  0  0
  -27.1050  -21.9521   27.3249 C   0  0  0  0  0  0  0  0  0  1  0  0
  -30.8927  -14.5174   20.5233 C   0  0  0  0  0  0  0  0  0  0  0  0
  -20.8133  -28.0588   19.8671 C   0  0  0  0  0  0  0  0  0  0  0  0
  -22.2860  -26.0203   26.3626 C   0  0  0  0  0  0  0  0  0  0  0  0
  -25.0323  -27.0641   26.6990 C   0  0  0  0  0  0  0  0  0  0  0  0
  -28.4096  -18.9676   26.5970 C   0  0  0  0  0  0  0  0  0  0  0  0
  -21.8575  -28.7261   20.7585 C   0  0  0  0  0  0  0  0  0  0  0  0
  -29.5178  -12.2975   18.1027 C   0  0  0  0  0  0  0  0  0  0  0  0
  -22.9912  -27.7547   21.0717 C   0  0  0  0  0  0  0  0  0  0  0  0
  -28.0880  -12.0638   18.5959 C   0  0  0  0  0  0  0  0  0  0  0  0
  -28.8655  -18.5334   25.2096 C   0  0  0  0  0  0  0  0  0  0  0  0
  -30.5061  -12.4114   19.2620 C   0  0  0  0  0  0  0  0  0  0  0  0
  -28.7192  -13.1664   20.7806 C   0  0  0  0  0  0  0  0  0  0  0  0
  -22.4734  -26.5305   21.8364 C   0  0  1  0  0  0  0  0  0  0  0  0
  -22.7957  -27.2132   25.5597 C   0  0  1  0  0  0  0  0  0  0  0  0
  -27.6778  -13.1098   19.6510 C   0  0  2  0  0  0  0  0  0  0  0  0
  -34.6008  -16.9073   23.4360 C   0  0  0  0  0  0  0  0  0  0  0  0
  -25.8420  -32.4072   30.4326 C   0  0  0  0  0  0  0  0  0  0  0  0
  -26.3045  -29.9453   24.3010 C   0  0  0  0  0  0  0  0  0  0  0  0
  -27.2749  -31.3627   26.1225 C   0  0  0  0  0  0  0  0  0  0  0  0
  -25.0534  -31.9394   25.1453 C   0  0  0  0  0  0  0  0  0  0  0  0
  -23.6783  -29.4182   31.3602 C   0  0  0  0  0  0  0  0  0  0  0  0
  -28.1671  -21.0960   27.9796 C   0  0  0  0  0  0  0  0  0  0  0  0
  -25.2560  -29.9255   26.6603 C   0  0  1  0  0  0  0  0  0  0  0  0
  -24.8560  -31.2775   30.1791 C   0  0  2  0  0  0  0  0  0  0  0  0
  -25.9664  -30.7657   25.5619 C   0  0  0  0  0  0  0  0  0  0  0  0
  -25.8346  -11.5906   20.2643 N   0  0  0  0  0  0  0  0  0  0  0  0
  -26.2783  -12.8563   20.1795 N   0  0  0  0  0  0  0  0  0  0  0  0
  -30.2852  -18.8116   24.9593 N   0  0  0  0  0  0  0  0  0  0  0  0
  -23.9187  -27.8929   26.2086 N   0  0  0  0  0  0  0  0  0  0  0  0
  -30.0546  -13.4238   20.2191 N   0  0  0  0  0  0  0  0  0  0  0  0
  -25.6567  -15.1066   20.5800 N   0  0  0  0  0  0  0  0  0  0  0  0
  -22.0010  -12.7752   21.8434 N   0  0  0  0  0  0  0  0  0  0  0  0
  -30.3438  -15.4323   21.4211 N   0  0  0  0  0  0  0  0  0  0  0  0
  -22.2515  -26.8604   23.2279 N   0  0  0  0  0  0  0  0  0  0  0  0
  -24.8996  -30.6831   27.8551 N   0  0  0  0  0  0  0  0  0  0  0  0
  -24.6442  -30.5427   31.4582 N   0  3  0  0  0  0  0  0  0  0  0  0
  -31.9391  -20.4829   25.0751 O   0  0  0  0  0  0  0  0  0  0  0  0
  -22.8841  -14.8805   21.6281 O   0  0  0  0  0  0  0  0  0  0  0  0
  -24.4267  -26.5347   23.9930 O   0  0  0  0  0  0  0  0  0  0  0  0
  -23.0634  -30.0150   25.7597 O   0  0  0  0  0  0  0  0  0  0  0  0
  -26.1005  -29.3796   29.3504 O   0  0  0  0  0  0  0  0  0  0  0  0
  -26.8848  -22.0277   26.1236 O   0  0  0  0  0  0  0  0  0  0  0  0
  -32.0038  -14.6477   20.0031 O   0  0  0  0  0  0  0  0  0  0  0  0
  -21.4107   -7.2377   21.6893 O   0  0  0  0  0  0  0  0  0  0  0  0
  -26.4011  -22.6562   28.3224 O   0  0  0  0  0  0  0  0  0  1  0  0
  -16.1495   -7.4413   20.0516 F   0  0  0  0  0  0  0  0  0  0  0  0
  -20.4273   -5.4253   19.8479 F   0  0  0  0  0  0  0  0  0  0  0  0
  1  2  1  0  0  0  0
  1  5  2  0  0  0  0
  2  6  2  0  0  0  0
  3  8  2  0  0  0  0
  3 18  1  0  0  0  0
  4  9  1  0  0  0  0
  4 18  2  0  0  0  0
  5 20  1  0  0  0  0
  6 22  1  0  0  0  0
  7 10  2  0  0  0  0
  7 21  1  0  0  0  0
  8 27  1  0  0  0  0
  9 27  2  0  0  0  0
 10 28  1  0  0  0  0
 11 12  2  0  0  0  0
 11 29  1  0  0  0  0
 12 30  1  0  0  0  0
 13 23  1  0  0  0  0
 13 28  2  0  0  0  0
 14 24  2  0  0  0  0
 14 25  1  0  0  0  0
 15 24  1  0  0  0  0
 15 26  2  0  0  0  0
 16 25  2  0  0  0  0
 16 26  1  0  0  0  0
 17 30  2  0  0  0  0
 17 31  1  0  0  0  0
 18 32  1  0  0  0  0
 19 32  1  0  0  0  0
 19 33  2  0  0  0  0
 19 37  1  0  0  0  0
 20 22  2  0  0  0  0
 20 43  1  0  0  0  0
 21 23  2  0  0  0  0
 21 44  1  0  0  0  0
 22 54  1  0  0  0  0
 23 45  1  0  0  0  0
 24 57  1  0  0  0  0
 25 69  1  0  0  0  0
 26 74  1  0  0  0  0
 27 85  1  0  0  0  0
 28 86  1  0  0  0  0
 29 31  2  0  0  0  0
 29 85  1  0  0  0  0
 30 87  1  0  0  0  0
 31 88  1  0  0  0  0
 32 67  2  0  0  0  0
 33 68  1  0  0  0  0
 33 72  1  0  0  0  0
 34 35  2  0  0  0  0
 34 36  1  0  0  0  0
 35 46  1  0  0  0  0
 35 63  1  0  0  0  0
 36 69  1  0  0  0  0
 36 78  2  0  0  0  0
 37 73  1  0  0  0  0
 37 79  2  0  0  0  0
 38 55  1  0  0  0  0
 38 75  1  0  0  0  0
 38 80  2  0  0  0  0
 39 64  1  0  0  0  0
 39 70  1  0  0  0  0
 39 81  2  0  0  0  0
 40 65  1  0  0  0  0
 40 76  1  0  0  0  0
 40 82  2  0  0  0  0
 41 63  1  0  0  0  0
 41 83  2  0  0  0  0
 41 86  1  0  0  0  0
 42 71  1  0  0  0  0
 42 74  1  0  0  0  0
 42 84  2  0  0  0  0
 43 47  1  0  0  0  0
 44 55  1  0  0  0  0
 45 70  1  0  0  0  0
 46 51  1  0  0  0  0
 47 49  1  0  0  0  0
 48 50  1  0  0  0  0
 48 52  1  0  0  0  0
 49 54  1  0  0  0  0
 50 56  1  0  0  0  0
 51 69  1  0  0  0  0
 52 71  1  0  0  0  0
 53 56  1  0  0  0  0
 53 71  1  0  0  0  0
 54 75  1  0  0  0  0
 55 70  1  0  0  0  0
 56 68  1  0  0  0  0
 58 65  1  0  0  0  0
 59 66  1  0  0  0  0
 60 66  1  0  0  0  0
 61 66  1  0  0  0  0
 62 77  1  0  0  0  0
 64 66  1  0  0  0  0
 64 76  1  0  0  0  0
 65 77  1  0  0  0  0
 67 68  1  0  0  0  0
M  CHG  1  77   1
M  ISO  4  41 101  42 100  74 100  86 101
M  END
> <Batch ID>
0063

> <Smiles>
CNC(C)C(=O)NC(C(=O)N1Cc2cc([101O:1][101C:1](=O)C=C3CCN(c4cc(C)cc([100NH:0][100C:0](=O)N5CCCC(n6nc(-c7ccc(Oc8ccc(F)cc8F)cc7)c(C(N)=O)c6N)C5)c4)C(=O)C3)ccc2CC1C(=O)NC1CCCc2ccccc21)C(C)(C)C

> <Shape>
0.207

> <Color>
0.197

> <Negative vol penalty>
0.000

$$$$

  -OEChem-04042323123D

 83 91  0     1  0  0  0  0  0999 V2000
  -24.2775  -32.8869   32.3065 C   0  0  0  0  0  0  0  0  0  0  0  0
  -24.7139  -31.6252   31.9153 C   0  0  0  0  0  0  0  0  0  0  0  0
  -30.9162  -19.4288   20.7499 C   0  0  0  0  0  0  0  0  0  0  0  0
  -23.2096   -9.7813   19.8894 C   0  0  0  0  0  0  0  0  0  0  0  0
  -23.8954   -9.8366   22.2053 C   0  0  0  0  0  0  0  0  0  0  0  0
  -23.3254  -33.5615   31.5433 C   0  0  0  0  0  0  0  0  0  0  0  0
  -24.1977  -31.0369   30.7613 C   0  0  0  0  0  0  0  0  0  0  0  0
  -27.1773  -27.4063   26.8310 C   0  0  0  0  0  0  0  0  0  0  0  0
  -30.1245  -20.1941   21.6061 C   0  0  0  0  0  0  0  0  0  0  0  0
  -30.8097  -18.0380   20.7583 C   0  0  0  0  0  0  0  0  0  0  0  0
  -22.5248   -8.5884   20.1206 C   0  0  0  0  0  0  0  0  0  0  0  0
  -23.2106   -8.6436   22.4366 C   0  0  0  0  0  0  0  0  0  0  0  0
  -27.2253  -26.0206   26.6859 C   0  0  0  0  0  0  0  0  0  0  0  0
  -20.0155   -7.6651   22.9411 C   0  0  0  0  0  0  0  0  0  0  0  0
  -19.2256   -7.5849   24.0879 C   0  0  0  0  0  0  0  0  0  0  0  0
  -25.5133  -26.1448   24.9910 C   0  0  0  0  0  0  0  0  0  0  0  0
  -20.5511   -5.7227   24.8706 C   0  0  0  0  0  0  0  0  0  0  0  0
  -23.8950  -10.4054   20.9317 C   0  0  0  0  0  0  0  0  0  0  0  0
  -24.0967  -12.9456   20.8123 C   0  0  0  0  0  0  0  0  0  0  0  0
  -22.8044  -32.9853   30.3741 C   0  0  0  0  0  0  0  0  0  0  0  0
  -26.2877  -28.1720   26.0636 C   0  0  0  0  0  0  0  0  0  0  0  0
  -23.2368  -31.7038   29.9825 C   0  0  0  0  0  0  0  0  0  0  0  0
  -25.4578  -27.5404   25.1264 C   0  0  0  0  0  0  0  0  0  0  0  0
  -29.1197  -18.1779   22.4791 C   0  0  0  0  0  0  0  0  0  0  0  0
  -29.2262  -19.5687   22.4707 C   0  0  0  0  0  0  0  0  0  0  0  0
  -29.9114  -17.4126   21.6229 C   0  0  0  0  0  0  0  0  0  0  0  0
  -22.5253   -8.0195   21.3942 C   0  0  0  0  0  0  0  0  0  0  0  0
  -26.3912  -25.3893   25.7679 C   0  0  0  0  0  0  0  0  0  0  0  0
  -21.0732   -6.7741   22.7589 C   0  0  0  0  0  0  0  0  0  0  0  0
  -19.4935   -6.6137   25.0527 C   0  0  0  0  0  0  0  0  0  0  0  0
  -21.3410   -5.8029   23.7237 C   0  0  0  0  0  0  0  0  0  0  0  0
  -24.6030  -11.6375   20.6934 C   0  0  0  0  0  0  0  0  0  0  0  0
  -25.1555  -13.7551   20.4804 C   0  0  0  0  0  0  0  0  0  0  0  0
  -27.4515  -22.2091   24.4616 C   0  0  0  0  0  0  0  0  0  0  0  0
  -27.3032  -23.5150   24.7067 C   0  0  0  0  0  0  0  0  0  1  0  0
  -22.7865  -13.3894   21.1893 C   0  0  0  0  0  0  0  0  0  0  0  0
  -28.4318  -21.7504   23.4345 C   0  0  0  0  0  0  0  0  0  0  0  0
  -23.8315  -30.0809   26.7167 C   0  0  0  0  0  0  0  0  0  0  0  0
  -23.9416  -30.6669   23.5281 C   0  0  0  0  0  0  0  0  0  0  0  0
  -24.8576  -29.6043   20.4171 C   0  0  0  0  0  0  0  0  0  0  0  0
  -30.5454  -15.1099   20.8216 C   0  0  0  0  0  0  0  0  0  0  0  0
  -21.7422  -33.7327   29.6075 C   0  0  0  0  0  0  0  0  0  0  0  0
  -26.2671  -29.6685   26.2130 C   0  0  0  0  0  0  0  0  0  0  0  0
  -24.4994  -28.3190   24.2640 C   0  0  0  0  0  0  0  0  0  0  0  0
  -21.5217  -33.1991   28.1944 C   0  0  0  0  0  0  0  0  0  0  0  0
  -29.6446  -12.6314   18.4294 C   0  0  0  0  0  0  0  0  0  0  0  0
  -21.4211  -31.6771   28.2082 C   0  0  0  0  0  0  0  0  0  0  0  0
  -28.2110  -12.2595   18.8149 C   0  0  0  0  0  0  0  0  0  0  0  0
  -30.5070  -12.9145   19.6581 C   0  0  0  0  0  0  0  0  0  0  0  0
  -28.5196  -13.5325   20.9762 C   0  0  0  0  0  0  0  0  0  0  0  0
  -22.7188  -31.0431   28.7234 C   0  0  1  0  0  0  0  0  0  0  0  0
  -24.9580  -30.2976   25.7463 C   0  0  1  0  0  0  0  0  0  0  0  0
  -27.5957  -13.3017   19.7692 C   0  0  2  0  0  0  0  0  0  0  0  0
  -28.1559  -17.5063   23.4081 C   0  0  0  0  0  0  0  0  0  0  0  0
  -24.7811  -30.2822   18.0021 C   0  0  0  0  0  0  0  0  0  0  0  0
  -20.9832  -29.9282   23.4171 C   0  0  0  0  0  0  0  0  0  0  0  0
  -21.2055  -29.6979   20.9340 C   0  0  0  0  0  0  0  0  0  0  0  0
  -21.6181  -31.9044   22.0221 C   0  0  0  0  0  0  0  0  0  0  0  0
  -27.8097  -29.6153   20.2065 C   0  0  0  0  0  0  0  0  0  0  0  0
  -23.3102  -30.0473   22.3049 C   0  0  1  0  0  0  0  0  0  0  0  0
  -25.5917  -30.3059   19.2886 C   0  0  2  0  0  0  0  0  0  0  0  0
  -21.7958  -30.3793   22.1870 C   0  0  0  0  0  0  0  0  0  0  0  0
  -25.8838  -11.6127   20.3152 N   0  0  0  0  0  0  0  0  0  0  0  0
  -26.1912  -12.9153   20.1936 N   0  0  0  0  0  0  0  0  0  0  0  0
  -24.5118  -29.7792   24.4515 N   0  0  0  0  0  0  0  0  0  0  0  0
  -29.8632  -13.9139   20.5134 N   0  0  0  0  0  0  0  0  0  0  0  0
  -25.2922  -15.0962   20.4086 N   0  0  0  0  0  0  0  0  0  0  0  0
  -21.8176  -12.4250   21.4984 N   0  0  0  0  0  0  0  0  0  0  0  0
  -28.4332  -20.3657   23.3324 N   0  0  0  0  0  0  0  0  0  0  0  0
  -29.8212  -15.9985   21.6157 N   0  0  0  0  0  0  0  0  0  0  0  0
  -23.7325  -31.0562   27.6906 N   0  0  0  0  0  0  0  0  0  0  0  0
  -24.1088  -30.4873   21.1660 N   0  0  0  0  0  0  0  0  0  0  0  0
  -26.9012  -29.6427   19.0313 N   0  3  0  0  0  0  0  0  0  0  0  0
  -22.4791  -14.6047   21.2343 O   0  0  0  0  0  0  0  0  0  0  0  0
  -29.1117  -22.5510   22.8033 O   0  0  0  0  0  0  0  0  0  0  0  0
  -23.1049  -29.1023   26.5903 O   0  0  0  0  0  0  0  0  0  0  0  0
  -23.9356  -31.8938   23.6561 O   0  0  0  0  0  0  0  0  0  0  0  0
  -24.9373  -28.3935   20.6122 O   0  0  0  0  0  0  0  0  0  0  0  0
  -31.6772  -15.3414   20.3888 O   0  0  0  0  0  0  0  0  0  0  0  0
  -21.8570   -6.8555   21.6202 O   0  0  0  0  0  0  0  0  0  0  0  0
  -26.4356  -24.0367   25.6247 O   0  0  0  0  0  0  0  0  0  1  0  0
  -18.7358   -6.5377   26.1547 F   0  0  0  0  0  0  0  0  0  0  0  0
  -22.3565   -4.9449   23.5548 F   0  0  0  0  0  0  0  0  0  0  0  0
  1  2  1  0  0  0  0
  1  6  2  0  0  0  0
  2  7  2  0  0  0  0
  3  9  2  0  0  0  0
  3 10  1  0  0  0  0
  4 11  2  0  0  0  0
  4 18  1  0  0  0  0
  5 12  1  0  0  0  0
  5 18  2  0  0  0  0
  6 20  1  0  0  0  0
  7 22  1  0  0  0  0
  8 13  2  0  0  0  0
  8 21  1  0  0  0  0
  9 25  1  0  0  0  0
 10 26  2  0  0  0  0
 11 27  1  0  0  0  0
 12 27  2  0  0  0  0
 13 28  1  0  0  0  0
 14 15  2  0  0  0  0
 14 29  1  0  0  0  0
 15 30  1  0  0  0  0
 16 23  1  0  0  0  0
 16 28  2  0  0  0  0
 17 30  2  0  0  0  0
 17 31  1  0  0  0  0
 18 32  1  0  0  0  0
 19 32  1  0  0  0  0
 19 33  2  0  0  0  0
 19 36  1  0  0  0  0
 20 22  2  0  0  0  0
 20 42  1  0  0  0  0
 21 23  2  0  0  0  0
 21 43  1  0  0  0  0
 22 51  1  0  0  0  0
 23 44  1  0  0  0  0
 24 25  2  0  0  0  0
 24 26  1  0  0  0  0
 24 54  1  0  0  0  0
 25 69  1  0  0  0  0
 26 70  1  0  0  0  0
 27 80  1  0  0  0  0
 28 81  1  0  0  0  0
 29 31  2  0  0  0  0
 29 80  1  0  0  0  0
 30 82  1  0  0  0  0
 31 83  1  0  0  0  0
 32 63  2  0  0  0  0
 33 64  1  0  0  0  0
 33 67  1  0  0  0  0
 34 35  2  0  0  0  0
 34 37  1  0  0  0  0
 35 81  1  0  0  0  0
 36 68  1  0  0  0  0
 36 74  2  0  0  0  0
 37 69  1  0  0  0  0
 37 75  2  0  0  0  0
 38 52  1  0  0  0  0
 38 71  1  0  0  0  0
 38 76  2  0  0  0  0
 39 60  1  0  0  0  0
 39 65  1  0  0  0  0
 39 77  2  0  0  0  0
 40 61  1  0  0  0  0
 40 72  1  0  0  0  0
 40 78  2  0  0  0  0
 41 66  1  0  0  0  0
 41 70  1  0  0  0  0
 41 79  2  0  0  0  0
 42 45  1  0  0  0  0
 43 52  1  0  0  0  0
 44 65  1  0  0  0  0
 45 47  1  0  0  0  0
 46 48  1  0  0  0  0
 46 49  1  0  0  0  0
 47 51  1  0  0  0  0
 48 53  1  0  0  0  0
 49 66  1  0  0  0  0
 50 53  1  0  0  0  0
 50 66  1  0  0  0  0
 51 71  1  0  0  0  0
 52 65  1  0  0  0  0
 53 64  1  0  0  0  0
 55 61  1  0  0  0  0
 56 62  1  0  0  0  0
 57 62  1  0  0  0  0
 58 62  1  0  0  0  0
 59 73  1  0  0  0  0
 60 62  1  0  0  0  0
 60 72  1  0  0  0  0
 61 73  1  0  0  0  0
 63 64  1  0  0  0  0
M  CHG  1  73   1
M  ISO  4  35 101  41 100  70 100  81 101
M  END
> <Batch ID>
0063

> <Smiles>
CNC(C)C(=O)NC(C(=O)N1Cc2cc([101O:1][101CH:1]=CC(=O)Nc3cccc([100NH:0][100C:0](=O)N4CCCC(n5nc(-c6ccc(Oc7ccc(F)cc7F)cc6)c(C(N)=O)c5N)C4)c3C)ccc2CC1C(=O)NC1CCCc2ccccc21)C(C)(C)C

> <Shape>
0.268

> <Color>
0.201

> <Negative vol penalty>
0.000

$$$$

  -OEChem-04042323123D

 87 96  0     1  0  0  0  0  0999 V2000
  -29.2590  -37.2937   21.9136 C   0  0  0  0  0  0  0  0  0  0  0  0
  -29.2025  -36.3250   20.9167 C   0  0  0  0  0  0  0  0  0  0  0  0
  -22.8151  -16.1931   19.5110 C   0  0  0  0  0  0  0  0  0  0  0  0
  -23.6995  -16.9054   21.6436 C   0  0  0  0  0  0  0  0  0  0  0  0
  -29.0139  -36.9421   23.2404 C   0  0  0  0  0  0  0  0  0  0  0  0
  -28.9019  -35.0038   21.2462 C   0  0  0  0  0  0  0  0  0  0  0  0
  -25.6116  -29.2061   18.6238 C   0  0  0  0  0  0  0  0  0  0  0  0
  -21.9836  -17.3126   19.4819 C   0  0  0  0  0  0  0  0  0  0  0  0
  -22.8679  -18.0249   21.6145 C   0  0  0  0  0  0  0  0  0  0  0  0
  -25.8412  -27.8510   18.3894 C   0  0  0  0  0  0  0  0  0  0  0  0
  -22.8227  -21.0539   20.1166 C   0  0  0  0  0  0  0  0  0  0  0  0
  -23.3819  -22.2838   20.4633 C   0  0  0  0  0  0  0  0  0  0  0  0
  -25.3580  -27.3750   20.7044 C   0  0  0  0  0  0  0  0  0  0  0  0
  -29.3002  -22.1309   20.8008 C   0  0  0  0  0  0  0  0  0  0  0  0
  -28.7311  -19.9243   19.9983 C   0  0  0  0  0  0  0  0  0  0  0  0
  -21.8003  -22.4913   22.2779 C   0  0  0  0  0  0  0  0  0  0  0  0
  -23.6731  -15.9895   20.5919 C   0  0  0  0  0  0  0  0  0  0  0  0
  -24.1388  -13.4814   20.6022 C   0  0  0  0  0  0  0  0  0  0  0  0
  -28.7007  -35.6178   23.5850 C   0  0  0  0  0  0  0  0  0  0  0  0
  -25.2636  -29.6579   19.9049 C   0  0  0  0  0  0  0  0  0  0  0  0
  -28.6538  -34.6339   22.5790 C   0  0  0  0  0  0  0  0  0  0  0  0
  -25.1221  -28.7359   20.9519 C   0  0  0  0  0  0  0  0  0  0  0  0
  -29.9318  -21.5653   21.9084 C   0  0  0  0  0  0  0  0  0  0  0  0
  -28.6998  -21.3105   19.8458 C   0  0  0  0  0  0  0  0  0  0  0  0
  -29.3626  -19.3586   21.1059 C   0  0  0  0  0  0  0  0  0  0  0  0
  -22.0099  -18.2285   20.5336 C   0  0  0  0  0  0  0  0  0  0  0  0
  -25.7172  -26.9356   19.4305 C   0  0  0  0  0  0  0  0  0  0  0  0
  -21.7523  -20.5427   20.8505 C   0  0  0  0  0  0  0  0  0  0  0  0
  -22.8707  -23.0025   21.5439 C   0  0  0  0  0  0  0  0  0  0  0  0
  -21.2411  -21.2614   21.9311 C   0  0  0  0  0  0  0  0  0  0  0  0
  -29.9630  -20.1791   22.0609 C   0  0  0  0  0  0  0  0  0  0  0  0
  -24.5319  -14.8330   20.6228 C   0  0  0  0  0  0  0  0  0  0  0  0
  -25.3188  -12.7799   20.6475 C   0  0  0  0  0  0  0  0  0  0  0  0
  -27.9924  -21.2112   17.4709 C   0  0  0  0  0  0  0  0  0  0  0  0
  -22.8245  -12.9110   20.5470 C   0  0  0  0  0  0  0  0  0  0  0  0
  -26.5835  -31.6238   22.0254 C   0  0  0  0  0  0  0  0  0  0  0  0
  -23.8073  -31.1301   23.6291 C   0  0  0  0  0  0  0  0  0  0  0  0
  -21.1064  -29.1224   24.1958 C   0  0  0  0  0  0  0  0  0  0  0  0
  -28.8474  -16.9845   20.4077 C   0  0  0  0  0  0  0  0  0  0  0  0
  -28.4900  -35.2765   25.0389 C   0  0  0  0  0  0  0  0  0  0  0  0
  -24.9933  -31.1195   20.1353 C   0  0  0  0  0  0  0  0  0  0  0  0
  -24.7309  -29.1672   22.3409 C   0  0  0  0  0  0  0  0  0  0  0  0
  -27.0294  -21.7563   16.4332 C   0  0  0  0  0  0  0  0  0  0  0  0
  -27.8100  -33.9270   25.2554 C   0  0  0  0  0  0  0  0  0  0  0  0
  -26.8966  -23.2634   16.4353 C   0  0  0  0  0  0  0  0  0  0  0  0
  -29.7036  -13.7956   22.3987 C   0  0  0  0  0  0  0  0  0  0  0  0
  -28.4568  -32.8570   24.3817 C   0  0  0  0  0  0  0  0  0  0  0  0
  -28.2890  -13.2656   22.2009 C   0  0  0  0  0  0  0  0  0  0  0  0
  -29.7594  -15.2870   22.0792 C   0  0  0  0  0  0  0  0  0  0  0  0
  -27.6303  -23.3085   18.8023 C   0  0  0  0  0  0  0  0  0  0  0  0
  -28.6116  -14.5441   19.9904 C   0  0  0  0  0  0  0  0  0  0  0  0
  -28.3066  -33.1949   22.8935 C   0  0  1  0  0  0  0  0  0  0  0  0
  -25.1465  -31.5325   21.5958 C   0  0  1  0  0  0  0  0  0  0  0  0
  -26.5218  -23.7214   17.8351 C   0  0  1  0  0  0  0  0  0  0  0  0
  -27.8064  -13.4706   20.7510 C   0  0  2  0  0  0  0  0  0  0  0  0
  -30.5735  -22.4459   22.9271 C   0  0  0  0  0  0  0  0  0  0  0  0
  -19.0262  -28.9661   25.5906 C   0  0  0  0  0  0  0  0  0  0  0  0
  -25.4907  -30.3346   26.0463 C   0  0  0  0  0  0  0  0  0  0  0  0
  -23.4402  -29.3048   27.0478 C   0  0  0  0  0  0  0  0  0  0  0  0
  -23.5027  -31.7545   26.5813 C   0  0  0  0  0  0  0  0  0  0  0  0
  -19.3632  -29.1249   21.8041 C   0  0  0  0  0  0  0  0  0  0  0  0
  -26.3000  -25.2319   17.8769 C   0  0  0  0  0  0  0  0  0  1  0  0
  -23.3272  -30.1295   24.6524 C   0  0  1  0  0  0  0  0  0  0  0  0
  -19.6215  -29.4287   24.2698 C   0  0  2  0  0  0  0  0  0  0  0  0
  -23.9495  -30.3727   26.0563 C   0  0  0  0  0  0  0  0  0  0  0  0
  -25.8580  -14.9835   20.6771 N   0  0  0  0  0  0  0  0  0  0  0  0
  -26.3084  -13.7174   20.6911 N   0  0  0  0  0  0  0  0  0  0  0  0
  -28.0448  -21.8976   18.6964 N   0  0  0  0  0  0  0  0  0  0  0  0
  -24.4833  -30.6078   22.5173 N   0  0  0  0  0  0  0  0  0  0  0  0
  -29.0489  -15.6513   20.8445 N   0  0  0  0  0  0  0  0  0  0  0  0
  -25.5960  -11.4587   20.6540 N   0  0  0  0  0  0  0  0  0  0  0  0
  -22.1622  -12.6410   21.7523 N   0  0  0  0  0  0  0  0  0  0  0  0
  -29.3928  -17.9495   21.2588 N   0  0  0  0  0  0  0  0  0  0  0  0
  -26.9684  -32.8854   22.4375 N   0  0  0  0  0  0  0  0  0  0  0  0
  -21.8696  -30.1869   24.6268 N   0  0  0  0  0  0  0  0  0  0  0  0
  -18.8957  -28.7452   23.1621 N   0  3  0  0  0  0  0  0  0  0  0  0
  -28.6150  -20.1809   17.1994 O   0  0  0  0  0  0  0  0  0  0  0  0
  -22.2610  -12.6333   19.4613 O   0  0  0  0  0  0  0  0  0  0  0  0
  -27.2902  -30.6234   21.9874 O   0  0  0  0  0  0  0  0  0  0  0  0
  -23.5843  -32.3304   23.8059 O   0  0  0  0  0  0  0  0  0  0  0  0
  -21.5454  -28.0452   23.7991 O   0  0  0  0  0  0  0  0  0  0  0  0
  -28.2443  -17.2397   19.3633 O   0  0  0  0  0  0  0  0  0  0  0  0
  -21.1988  -19.3211   20.5055 O   0  0  0  0  0  0  0  0  0  0  0  0
  -25.9413  -25.6125   19.2046 O   0  0  0  0  0  0  0  0  0  1  0  0
  -23.4087  -24.1829   21.8777 F   0  0  0  0  0  0  0  0  0  0  0  0
  -20.2136  -20.7748   22.6406 F   0  0  0  0  0  0  0  0  0  0  0  0
  -30.5706  -19.6374   23.1273 F   0  0  0  0  0  0  0  0  0  0  0  0
  1  2  1  0  0  0  0
  1  5  2  0  0  0  0
  2  6  2  0  0  0  0
  3  8  2  0  0  0  0
  3 17  1  0  0  0  0
  4  9  1  0  0  0  0
  4 17  2  0  0  0  0
  5 19  1  0  0  0  0
  6 21  1  0  0  0  0
  7 10  2  0  0  0  0
  7 20  1  0  0  0  0
  8 26  1  0  0  0  0
  9 26  2  0  0  0  0
 10 27  1  0  0  0  0
 11 12  2  0  0  0  0
 11 28  1  0  0  0  0
 12 29  1  0  0  0  0
 13 22  1  0  0  0  0
 13 27  2  0  0  0  0
 14 23  2  0  0  0  0
 14 24  1  0  0  0  0
 15 24  2  0  0  0  0
 15 25  1  0  0  0  0
 16 29  2  0  0  0  0
 16 30  1  0  0  0  0
 17 32  1  0  0  0  0
 18 32  1  0  0  0  0
 18 33  2  0  0  0  0
 18 35  1  0  0  0  0
 19 21  2  0  0  0  0
 19 40  1  0  0  0  0
 20 22  2  0  0  0  0
 20 41  1  0  0  0  0
 21 52  1  0  0  0  0
 22 42  1  0  0  0  0
 23 31  1  0  0  0  0
 23 56  1  0  0  0  0
 24 68  1  0  0  0  0
 25 31  2  0  0  0  0
 25 73  1  0  0  0  0
 26 83  1  0  0  0  0
 27 84  1  0  0  0  0
 28 30  2  0  0  0  0
 28 83  1  0  0  0  0
 29 85  1  0  0  0  0
 30 86  1  0  0  0  0
 31 87  1  0  0  0  0
 32 66  2  0  0  0  0
 33 67  1  0  0  0  0
 33 71  1  0  0  0  0
 34 43  1  0  0  0  0
 34 68  1  0  0  0  0
 34 77  2  0  0  0  0
 35 72  1  0  0  0  0
 35 78  2  0  0  0  0
 36 53  1  0  0  0  0
 36 74  1  0  0  0  0
 36 79  2  0  0  0  0
 37 63  1  0  0  0  0
 37 69  1  0  0  0  0
 37 80  2  0  0  0  0
 38 64  1  0  0  0  0
 38 75  1  0  0  0  0
 38 81  2  0  0  0  0
 39 70  1  0  0  0  0
 39 73  1  0  0  0  0
 39 82  2  0  0  0  0
 40 44  1  0  0  0  0
 41 53  1  0  0  0  0
 42 69  1  0  0  0  0
 43 45  1  0  0  0  0
 44 47  1  0  0  0  0
 45 54  1  0  0  0  0
 46 48  1  0  0  0  0
 46 49  1  0  0  0  0
 47 52  1  0  0  0  0
 48 55  1  0  0  0  0
 49 70  1  0  0  0  0
 50 54  1  0  0  0  0
 50 68  1  0  0  0  0
 51 55  1  0  0  0  0
 51 70  1  0  0  0  0
 52 74  1  0  0  0  0
 53 69  1  0  0  0  0
 54 62  1  0  0  0  0
 55 67  1  0  0  0  0
 57 64  1  0  0  0  0
 58 65  1  0  0  0  0
 59 65  1  0  0  0  0
 60 65  1  0  0  0  0
 61 76  1  0  0  0  0
 62 84  1  0  0  0  0
 63 65  1  0  0  0  0
 63 75  1  0  0  0  0
 64 76  1  0  0  0  0
 66 67  1  0  0  0  0
M  CHG  1  76   1
M  ISO  4  39 100  62 101  73 100  84 101
M  END
> <Batch ID>
0063

> <Smiles>
CNC(C)C(=O)NC(C(=O)N1Cc2cc([101O:1][101CH2:1]C3CCC(=O)N(c4cc(C)c(F)c([100NH:0][100C:0](=O)N5CCCC(n6nc(-c7ccc(Oc8ccc(F)cc8F)cc7)c(C(N)=O)c6N)C5)c4)C3)ccc2CC1C(=O)NC1CCCc2ccccc21)C(C)(C)C

> <Shape>
0.249

> <Color>
0.101

> <Negative vol penalty>
0.000

$$$$

  -OEChem-04042323123D

 84 92  0     1  0  0  0  0  0999 V2000
  -32.8987  -34.0969   20.5097 C   0  0  0  0  0  0  0  0  0  0  0  0
  -32.3722  -32.8156   20.3814 C   0  0  0  0  0  0  0  0  0  0  0  0
  -24.0825   -9.4797   21.4662 C   0  0  0  0  0  0  0  0  0  0  0  0
  -24.6656  -10.6008   23.5254 C   0  0  0  0  0  0  0  0  0  0  0  0
  -32.2873  -35.0188   21.3584 C   0  0  0  0  0  0  0  0  0  0  0  0
  -31.2345  -32.4550   21.1026 C   0  0  0  0  0  0  0  0  0  0  0  0
  -26.7647  -28.6840   19.2844 C   0  0  0  0  0  0  0  0  0  0  0  0
  -31.0279  -20.1491   21.1626 C   0  0  0  0  0  0  0  0  0  0  0  0
  -30.7565  -18.8559   20.7161 C   0  0  0  0  0  0  0  0  0  0  0  0
  -23.6596   -8.3663   22.1921 C   0  0  0  0  0  0  0  0  0  0  0  0
  -24.2426   -9.4874   24.2513 C   0  0  0  0  0  0  0  0  0  0  0  0
  -26.5118  -27.3370   19.5404 C   0  0  0  0  0  0  0  0  0  0  0  0
  -20.9454   -7.4469   23.9868 C   0  0  0  0  0  0  0  0  0  0  0  0
  -19.7320   -6.8609   23.6266 C   0  0  0  0  0  0  0  0  0  0  0  0
  -28.3924  -19.2446   21.0273 C   0  0  0  0  0  0  0  0  0  0  0  0
  -25.0105  -27.9637   21.3215 C   0  0  0  0  0  0  0  0  0  0  0  0
  -20.8735   -4.7828   23.1621 C   0  0  0  0  0  0  0  0  0  0  0  0
  -24.5856  -10.5970   22.1328 C   0  0  0  0  0  0  0  0  0  0  0  0
  -28.6638  -20.5379   21.4739 C   0  0  0  0  0  0  0  0  0  0  0  0
  -24.2470  -12.8571   20.9993 C   0  0  0  0  0  0  0  0  0  0  0  0
  -31.1359  -34.6724   22.0830 C   0  0  0  0  0  0  0  0  0  0  0  0
  -26.1497  -29.6824   20.0535 C   0  0  0  0  0  0  0  0  0  0  0  0
  -30.6079  -33.3727   21.9628 C   0  0  0  0  0  0  0  0  0  0  0  0
  -25.2552  -29.3226   21.0716 C   0  0  0  0  0  0  0  0  0  0  0  0
  -29.9816  -20.9901   21.5416 C   0  0  0  0  0  0  0  0  0  0  0  0
  -29.4388  -18.4036   20.6484 C   0  0  0  0  0  0  0  0  0  0  0  0
  -23.7396   -8.3701   23.5847 C   0  0  0  0  0  0  0  0  0  0  0  0
  -25.6368  -26.9766   20.5609 C   0  0  0  0  0  0  0  0  0  0  0  0
  -22.1229   -6.7009   23.9346 C   0  0  0  0  0  0  0  0  0  0  0  0
  -19.6960   -5.5289   23.2142 C   0  0  0  0  0  0  0  0  0  0  0  0
  -22.0870   -5.3689   23.5223 C   0  0  0  0  0  0  0  0  0  0  0  0
  -25.0232  -11.7473   21.3835 C   0  0  0  0  0  0  0  0  0  0  0  0
  -25.1199  -13.6655   20.3130 C   0  0  0  0  0  0  0  0  0  0  0  0
  -27.5415  -21.4130   21.8704 C   0  0  0  0  0  0  0  0  0  0  0  0
  -22.8609  -13.1327   21.2412 C   0  0  0  0  0  0  0  0  0  0  0  0
  -27.1864  -31.9780   21.9923 C   0  0  0  0  0  0  0  0  0  0  0  0
  -24.0559  -32.8273   22.0240 C   0  0  0  0  0  0  0  0  0  0  0  0
  -26.3494  -23.5522   21.4545 C   0  0  0  0  0  0  0  0  0  0  0  0
  -20.7979  -31.8994   21.6101 C   0  0  0  0  0  0  0  0  0  0  0  0
  -30.0853  -16.1284   19.7814 C   0  0  0  0  0  0  0  0  0  0  0  0
  -30.5376  -35.6878   23.0240 C   0  0  0  0  0  0  0  0  0  0  0  0
  -26.4125  -31.1314   19.7472 C   0  0  0  0  0  0  0  0  0  0  0  0
  -24.5538  -30.3564   21.9128 C   0  0  0  0  0  0  0  0  0  0  0  0
  -29.1175  -35.3453   23.4669 C   0  0  0  0  0  0  0  0  0  0  0  0
  -29.8093  -12.7702   18.6308 C   0  0  0  0  0  0  0  0  0  0  0  0
  -29.0268  -33.8806   23.8831 C   0  0  0  0  0  0  0  0  0  0  0  0
  -28.4757  -12.2960   19.2127 C   0  0  0  0  0  0  0  0  0  0  0  0
  -30.5517  -13.6948   19.5940 C   0  0  0  0  0  0  0  0  0  0  0  0
  -28.4368  -14.3633   20.6660 C   0  0  0  0  0  0  0  0  0  0  0  0
  -29.3608  -32.9518   22.7095 C   0  0  1  0  0  0  0  0  0  0  0  0
  -26.1274  -32.0531   20.9290 C   0  0  1  0  0  0  0  0  0  0  0  0
  -27.6225  -13.4813   19.7054 C   0  0  2  0  0  0  0  0  0  0  0  0
  -30.2977  -22.3709   22.0154 C   0  0  0  0  0  0  0  0  0  0  0  0
  -18.4604  -32.8031   21.7408 C   0  0  0  0  0  0  0  0  0  0  0  0
  -24.1855  -32.7154   25.0704 C   0  0  0  0  0  0  0  0  0  0  0  0
  -21.6824  -32.6798   25.1061 C   0  0  0  0  0  0  0  0  0  0  0  0
  -22.8866  -34.6449   24.1517 C   0  0  0  0  0  0  0  0  0  0  0  0
  -20.2950  -31.3335   18.7490 C   0  0  0  0  0  0  0  0  0  0  0  0
  -26.4378  -24.7376   20.5306 C   0  0  0  0  0  0  0  0  0  1  0  0
  -22.8586  -32.4660   22.8696 C   0  0  1  0  0  0  0  0  0  0  0  0
  -19.6577  -32.5413   20.8403 C   0  0  2  0  0  0  0  0  0  0  0  0
  -22.9178  -33.1068   24.2851 C   0  0  0  0  0  0  0  0  0  0  0  0
  -26.2916  -11.8388   20.9751 N   0  0  0  0  0  0  0  0  0  0  0  0
  -26.3191  -13.0159   20.3270 N   0  0  0  0  0  0  0  0  0  0  0  0
  -24.8483  -31.7597   21.5788 N   0  0  0  0  0  0  0  0  0  0  0  0
  -29.6830  -14.7962   20.0147 N   0  0  0  0  0  0  0  0  0  0  0  0
  -24.9710  -14.8615   19.7049 N   0  0  0  0  0  0  0  0  0  0  0  0
  -22.1095  -12.1956   21.9633 N   0  0  0  0  0  0  0  0  0  0  0  0
  -29.1636  -17.0897   20.1947 N   0  0  0  0  0  0  0  0  0  0  0  0
  -27.3743  -22.5656   21.2075 N   0  0  0  0  0  0  0  0  0  0  0  0
  -28.2359  -32.8570   21.8040 N   0  0  0  0  0  0  0  0  0  0  0  0
  -21.6821  -32.8409   22.0928 N   0  0  0  0  0  0  0  0  0  0  0  0
  -26.7567  -21.0022   22.8661 N   0  3  0  0  0  0  0  0  0  0  0  0
  -19.2218  -31.6544   19.7248 N   0  3  0  0  0  0  0  0  0  0  0  0
  -22.3012  -14.1713   20.8151 O   0  0  0  0  0  0  0  0  0  0  0  0
  -27.0599  -31.1827   22.9159 O   0  0  0  0  0  0  0  0  0  0  0  0
  -24.2756  -34.0125   21.7619 O   0  0  0  0  0  0  0  0  0  0  0  0
  -25.5114  -23.4056   22.3326 O   0  0  0  0  0  0  0  0  0  0  0  0
  -20.8925  -30.6845   21.7705 O   0  0  0  0  0  0  0  0  0  0  0  0
  -31.1556  -16.3958   19.2292 O   0  0  0  0  0  0  0  0  0  0  0  0
  -23.3267   -7.2839   24.2934 O   0  0  0  0  0  0  0  0  0  0  0  0
  -25.3887  -25.6626   20.8133 O   0  0  0  0  0  0  0  0  0  1  0  0
  -18.5305   -4.9658   22.8698 F   0  0  0  0  0  0  0  0  0  0  0  0
  -23.2147   -4.6468   23.4712 F   0  0  0  0  0  0  0  0  0  0  0  0
  1  2  1  0  0  0  0
  1  5  2  0  0  0  0
  2  6  2  0  0  0  0
  3 10  2  0  0  0  0
  3 18  1  0  0  0  0
  4 11  1  0  0  0  0
  4 18  2  0  0  0  0
  5 21  1  0  0  0  0
  6 23  1  0  0  0  0
  7 12  2  0  0  0  0
  7 22  1  0  0  0  0
  8  9  2  0  0  0  0
  8 25  1  0  0  0  0
  9 26  1  0  0  0  0
 10 27  1  0  0  0  0
 11 27  2  0  0  0  0
 12 28  1  0  0  0  0
 13 14  2  0  0  0  0
 13 29  1  0  0  0  0
 14 30  1  0  0  0  0
 15 19  1  0  0  0  0
 15 26  2  0  0  0  0
 16 24  1  0  0  0  0
 16 28  2  0  0  0  0
 17 30  2  0  0  0  0
 17 31  1  0  0  0  0
 18 32  1  0  0  0  0
 19 25  2  0  0  0  0
 19 34  1  0  0  0  0
 20 32  1  0  0  0  0
 20 33  2  0  0  0  0
 20 35  1  0  0  0  0
 21 23  2  0  0  0  0
 21 41  1  0  0  0  0
 22 24  2  0  0  0  0
 22 42  1  0  0  0  0
 23 50  1  0  0  0  0
 24 43  1  0  0  0  0
 25 53  1  0  0  0  0
 26 69  1  0  0  0  0
 27 81  1  0  0  0  0
 28 82  1  0  0  0  0
 29 31  2  0  0  0  0
 29 81  1  0  0  0  0
 30 83  1  0  0  0  0
 31 84  1  0  0  0  0
 32 63  2  0  0  0  0
 33 64  1  0  0  0  0
 33 67  1  0  0  0  0
 34 70  1  0  0  0  0
 34 73  2  0  0  0  0
 35 68  1  0  0  0  0
 35 75  2  0  0  0  0
 36 51  1  0  0  0  0
 36 71  1  0  0  0  0
 36 76  2  0  0  0  0
 37 60  1  0  0  0  0
 37 65  1  0  0  0  0
 37 77  2  0  0  0  0
 38 59  1  0  0  0  0
 38 70  1  0  0  0  0
 38 78  2  0  0  0  0
 39 61  1  0  0  0  0
 39 72  1  0  0  0  0
 39 79  2  0  0  0  0
 40 66  1  0  0  0  0
 40 69  1  0  0  0  0
 40 80  2  0  0  0  0
 41 44  1  0  0  0  0
 42 51  1  0  0  0  0
 43 65  1  0  0  0  0
 44 46  1  0  0  0  0
 45 47  1  0  0  0  0
 45 48  1  0  0  0  0
 46 50  1  0  0  0  0
 47 52  1  0  0  0  0
 48 66  1  0  0  0  0
 49 52  1  0  0  0  0
 49 66  1  0  0  0  0
 50 71  1  0  0  0  0
 51 65  1  0  0  0  0
 52 64  1  0  0  0  0
 54 61  1  0  0  0  0
 55 62  1  0  0  0  0
 56 62  1  0  0  0  0
 57 62  1  0  0  0  0
 58 74  1  0  0  0  0
 59 82  1  0  0  0  0
 60 62  1  0  0  0  0
 60 72  1  0  0  0  0
 61 74  1  0  0  0  0
 63 64  1  0  0  0  0
M  CHG  2  73   1  74   1
M  ISO  4  40 100  59 101  69 100  82 101
M  END
> <Batch ID>
0063

> <Smiles>
CNC(C)C(=O)NC(C(=O)N1Cc2cc([101O:1][101CH2:1]C(=O)NC(=N)c3cc([100NH:0][100C:0](=O)N4CCCC(n5nc(-c6ccc(Oc7ccc(F)cc7F)cc6)c(C(N)=O)c5N)C4)ccc3C)ccc2CC1C(=O)NC1CCCc2ccccc21)C(C)(C)C

> <Shape>
0.250

> <Color>
0.124

> <Negative vol penalty>
0.000

$$$$

  -OEChem-04042323123D

 88 97  0     1  0  0  0  0  0999 V2000
  -23.3673  -22.4120   28.4123 C   0  0  0  0  0  0  0  0  0  0  0  0
  -23.8680  -21.1848   27.9897 C   0  0  0  0  0  0  0  0  0  0  0  0
  -32.9452  -13.4421   26.2307 C   0  0  0  0  0  0  0  0  0  0  0  0
  -33.5189  -13.5520   24.9641 C   0  0  0  0  0  0  0  0  0  0  0  0
  -23.1417  -10.1870   22.1026 C   0  0  0  0  0  0  0  0  0  0  0  0
  -23.7826   -9.4716   19.8857 C   0  0  0  0  0  0  0  0  0  0  0  0
  -23.5575  -22.8246   29.7305 C   0  0  0  0  0  0  0  0  0  0  0  0
  -24.5603  -20.3699   28.8848 C   0  0  0  0  0  0  0  0  0  0  0  0
  -23.1306  -15.5201   28.6017 C   0  0  0  0  0  0  0  0  0  0  0  0
  -31.5978  -13.1047   26.3591 C   0  0  0  0  0  0  0  0  0  0  0  0
  -32.7453  -13.3246   23.8259 C   0  0  0  0  0  0  0  0  0  0  0  0
  -22.4019   -9.0159   22.2666 C   0  0  0  0  0  0  0  0  0  0  0  0
  -23.0429   -8.3005   20.0498 C   0  0  0  0  0  0  0  0  0  0  0  0
  -23.6334  -14.7690   27.5402 C   0  0  0  0  0  0  0  0  0  0  0  0
  -23.0051   -5.7707   22.9999 C   0  0  0  0  0  0  0  0  0  0  0  0
  -23.1345   -5.0862   24.2083 C   0  0  0  0  0  0  0  0  0  0  0  0
  -25.2885  -13.8105   29.0103 C   0  0  0  0  0  0  0  0  0  0  0  0
  -20.7694   -5.3619   24.6177 C   0  0  0  0  0  0  0  0  0  0  0  0
  -23.8320  -10.4149   20.9121 C   0  0  0  0  0  0  0  0  0  0  0  0
  -24.1151  -12.9470   20.7869 C   0  0  0  0  0  0  0  0  0  0  0  0
  -24.2440  -22.0101   30.6447 C   0  0  0  0  0  0  0  0  0  0  0  0
  -23.7108  -15.4301   29.8751 C   0  0  0  0  0  0  0  0  0  0  0  0
  -24.7610  -20.7726   30.2161 C   0  0  0  0  0  0  0  0  0  0  0  0
  -24.7895  -14.5596   30.0869 C   0  0  0  0  0  0  0  0  0  0  0  0
  -30.8242  -12.8773   25.2210 C   0  0  0  0  0  0  0  0  0  0  0  0
  -31.3979  -12.9873   23.9543 C   0  0  0  0  0  0  0  0  0  0  0  0
  -22.3525   -8.0727   21.2402 C   0  0  0  0  0  0  0  0  0  0  0  0
  -24.7144  -13.9162   27.7437 C   0  0  0  0  0  0  0  0  0  0  0  0
  -21.7579   -6.2510   22.6004 C   0  0  0  0  0  0  0  0  0  0  0  0
  -22.0167   -4.8818   25.0172 C   0  0  0  0  0  0  0  0  0  0  0  0
  -20.6401   -6.0465   23.4093 C   0  0  0  0  0  0  0  0  0  0  0  0
  -24.5959  -11.6247   20.7418 C   0  0  0  0  0  0  0  0  0  0  0  0
  -25.2265  -13.7240   20.5686 C   0  0  0  0  0  0  0  0  0  0  0  0
  -28.3998  -13.3030   24.8494 C   0  0  0  0  0  0  0  0  0  0  0  0
  -29.6534  -16.7407   24.5341 C   0  0  0  0  0  0  0  0  0  0  0  0
  -28.4404  -14.6240   24.5870 C   0  0  0  0  0  0  0  0  0  0  0  0
  -29.6137  -15.4292   24.7948 C   0  0  0  0  0  0  0  0  0  0  0  0
  -22.7831  -13.4299   21.0066 C   0  0  0  0  0  0  0  0  0  0  0  0
  -25.1801  -17.4703   31.8199 C   0  0  0  0  0  0  0  0  0  0  0  0
  -25.0963  -14.9642   33.8778 C   0  0  0  0  0  0  0  0  0  0  0  0
  -25.6221  -11.3988   33.7080 C   0  0  0  0  0  0  0  0  0  0  0  0
  -31.0677  -12.8362   21.4614 C   0  0  0  0  0  0  0  0  0  0  0  0
  -24.4659  -22.5197   32.0468 C   0  0  0  0  0  0  0  0  0  0  0  0
  -23.1397  -16.2269   31.0158 C   0  0  0  0  0  0  0  0  0  0  0  0
  -25.4352  -14.4115   31.4395 C   0  0  0  0  0  0  0  0  0  0  0  0
  -27.0972  -12.5700   24.5852 C   0  0  0  0  0  0  0  0  0  0  0  0
  -24.8850  -21.4310   33.0314 C   0  0  0  0  0  0  0  0  0  0  0  0
  -29.4831  -13.6393   18.3758 C   0  0  0  0  0  0  0  0  0  0  0  0
  -25.9854  -20.5624   32.4302 C   0  0  0  0  0  0  0  0  0  0  0  0
  -28.0054  -13.3399   18.6384 C   0  0  0  0  0  0  0  0  0  0  0  0
  -27.9107  -10.6476   25.9428 C   0  0  0  0  0  0  0  0  0  0  0  0
  -30.3981  -12.6367   19.0767 C   0  0  0  0  0  0  0  0  0  0  0  0
  -29.1978  -11.3983   26.2832 C   0  0  0  0  0  0  0  0  0  0  0  0
  -28.6775  -12.1758   20.7785 C   0  0  0  0  0  0  0  0  0  0  0  0
  -25.4957  -19.8496   31.1639 C   0  0  1  0  0  0  0  0  0  0  0  0
  -24.1352  -16.4426   32.1515 C   0  0  1  0  0  0  0  0  0  0  0  0
  -27.7185  -13.1976   20.1460 C   0  0  2  0  0  0  0  0  0  0  0  0
  -26.7107  -11.5805   25.7016 C   0  0  2  0  0  0  0  0  0  0  0  0
  -25.5034  -10.7429   25.2430 C   0  0  0  0  0  0  0  0  0  0  0  0
  -24.6982   -9.5441   35.1236 C   0  0  0  0  0  0  0  0  0  0  0  0
  -27.6720  -15.2944   35.4798 C   0  0  0  0  0  0  0  0  0  0  0  0
  -27.7458  -12.8056   35.7420 C   0  0  0  0  0  0  0  0  0  0  0  0
  -25.8367  -14.1018   36.6896 C   0  0  0  0  0  0  0  0  0  0  0  0
  -24.5434   -9.9775   31.3468 C   0  0  0  0  0  0  0  0  0  0  0  0
  -26.3166  -12.3291   26.9889 C   0  0  0  0  0  0  0  0  0  1  0  0
  -26.0097  -13.8022   34.1851 C   0  0  1  0  0  0  0  0  0  0  0  0
  -24.5626  -10.3175   33.8212 C   0  0  2  0  0  0  0  0  0  0  0  0
  -26.8152  -14.0128   35.4982 C   0  0  0  0  0  0  0  0  0  0  0  0
  -25.9102  -11.5614   20.5126 N   0  0  0  0  0  0  0  0  0  0  0  0
  -26.2648  -12.8537   20.4117 N   0  0  0  0  0  0  0  0  0  0  0  0
  -29.4500  -12.5338   25.3763 N   0  0  0  0  0  0  0  0  0  0  0  0
  -24.8448  -15.2164   32.5217 N   0  0  0  0  0  0  0  0  0  0  0  0
  -30.0711  -12.5581   20.5021 N   0  0  0  0  0  0  0  0  0  0  0  0
  -25.4070  -15.0600   20.4973 N   0  0  0  0  0  0  0  0  0  0  0  0
  -21.7595  -12.4953   21.2143 N   0  0  0  0  0  0  0  0  0  0  0  0
  -30.6317  -12.7618   22.7839 N   0  0  0  0  0  0  0  0  0  0  0  0
  -24.6665  -18.7154   31.5110 N   0  0  0  0  0  0  0  0  0  0  0  0
  -25.1684  -12.6104   34.1848 N   0  0  0  0  0  0  0  0  0  0  0  0
  -24.6810   -9.3557   32.6890 N   0  3  0  0  0  0  0  0  0  0  0  0
  -22.5059  -14.6532   21.0021 O   0  0  0  0  0  0  0  0  0  0  0  0
  -26.3646  -17.1572   31.8441 O   0  0  0  0  0  0  0  0  0  0  0  0
  -24.6176  -15.6193   34.8069 O   0  0  0  0  0  0  0  0  0  0  0  0
  -26.7416  -11.1887   33.2464 O   0  0  0  0  0  0  0  0  0  0  0  0
  -32.2158  -13.1461   21.1333 O   0  0  0  0  0  0  0  0  0  0  0  0
  -21.6310   -6.9297   21.4001 O   0  0  0  0  0  0  0  0  0  0  0  0
  -25.2076  -13.1824   26.7092 O   0  0  0  0  0  0  0  0  0  1  0  0
  -22.1408   -4.2230   26.1769 F   0  0  0  0  0  0  0  0  0  0  0  0
  -19.4391   -6.5045   23.0303 F   0  0  0  0  0  0  0  0  0  0  0  0
  1  2  1  0  0  0  0
  1  7  2  0  0  0  0
  2  8  2  0  0  0  0
  3  4  1  0  0  0  0
  3 10  2  0  0  0  0
  4 11  2  0  0  0  0
  5 12  2  0  0  0  0
  5 19  1  0  0  0  0
  6 13  1  0  0  0  0
  6 19  2  0  0  0  0
  7 21  1  0  0  0  0
  8 23  1  0  0  0  0
  9 14  2  0  0  0  0
  9 22  1  0  0  0  0
 10 25  1  0  0  0  0
 11 26  1  0  0  0  0
 12 27  1  0  0  0  0
 13 27  2  0  0  0  0
 14 28  1  0  0  0  0
 15 16  2  0  0  0  0
 15 29  1  0  0  0  0
 16 30  1  0  0  0  0
 17 24  1  0  0  0  0
 17 28  2  0  0  0  0
 18 30  2  0  0  0  0
 18 31  1  0  0  0  0
 19 32  1  0  0  0  0
 20 32  1  0  0  0  0
 20 33  2  0  0  0  0
 20 38  1  0  0  0  0
 21 23  2  0  0  0  0
 21 43  1  0  0  0  0
 22 24  2  0  0  0  0
 22 44  1  0  0  0  0
 23 55  1  0  0  0  0
 24 45  1  0  0  0  0
 25 26  2  0  0  0  0
 25 71  1  0  0  0  0
 26 76  1  0  0  0  0
 27 85  1  0  0  0  0
 28 86  1  0  0  0  0
 29 31  2  0  0  0  0
 29 85  1  0  0  0  0
 30 87  1  0  0  0  0
 31 88  1  0  0  0  0
 32 69  2  0  0  0  0
 33 70  1  0  0  0  0
 33 74  1  0  0  0  0
 34 36  2  0  0  0  0
 34 46  1  0  0  0  0
 34 71  1  0  0  0  0
 35 37  2  0  0  0  0
 36 37  1  0  0  0  0
 38 75  1  0  0  0  0
 38 80  2  0  0  0  0
 39 56  1  0  0  0  0
 39 77  1  0  0  0  0
 39 81  2  0  0  0  0
 40 66  1  0  0  0  0
 40 72  1  0  0  0  0
 40 82  2  0  0  0  0
 41 67  1  0  0  0  0
 41 78  1  0  0  0  0
 41 83  2  0  0  0  0
 42 73  1  0  0  0  0
 42 76  1  0  0  0  0
 42 84  2  0  0  0  0
 43 47  1  0  0  0  0
 44 56  1  0  0  0  0
 45 72  1  0  0  0  0
 46 58  1  0  0  0  0
 47 49  1  0  0  0  0
 48 50  1  0  0  0  0
 48 52  1  0  0  0  0
 49 55  1  0  0  0  0
 50 57  1  0  0  0  0
 51 53  1  0  0  0  0
 51 58  1  0  0  0  0
 52 73  1  0  0  0  0
 53 71  1  0  0  0  0
 54 57  1  0  0  0  0
 54 73  1  0  0  0  0
 55 77  1  0  0  0  0
 56 72  1  0  0  0  0
 57 70  1  0  0  0  0
 58 59  1  0  0  0  0
 58 65  1  0  0  0  0
 60 67  1  0  0  0  0
 61 68  1  0  0  0  0
 62 68  1  0  0  0  0
 63 68  1  0  0  0  0
 64 79  1  0  0  0  0
 65 86  1  0  0  0  0
 66 68  1  0  0  0  0
 66 78  1  0  0  0  0
 67 79  1  0  0  0  0
 69 70  1  0  0  0  0
M  CHG  1  79   1
M  ISO  4  42 100  65 101  76 100  86 101
M  END
> <Batch ID>
0063

> <Smiles>
C=CC=C1CC(C)([101CH2:1][101O:1]c2ccc3c(c2)CN(C(=O)C(NC(=O)C(C)NC)C(C)(C)C)C(C(=O)NC2CCCc4ccccc42)C3)CCN1c1ccccc1[100NH:0][100C:0](=O)N1CCCC(n2nc(-c3ccc(Oc4ccc(F)cc4F)cc3)c(C(N)=O)c2N)C1

> <Shape>
0.136

> <Color>
0.192

> <Negative vol penalty>
0.000

$$$$

  -OEChem-04042323123D

 85 93  0     1  0  0  0  0  0999 V2000
  -17.1348  -30.9214   23.4145 C   0  0  0  0  0  0  0  0  0  0  0  0
  -18.4420  -30.8231   23.8801 C   0  0  0  0  0  0  0  0  0  0  0  0
  -25.9956  -13.7403   21.2470 C   0  0  0  0  0  0  0  0  0  0  0  0
  -25.6417  -14.2473   18.9114 C   0  0  0  0  0  0  0  0  0  0  0  0
  -16.4465  -29.7731   23.0249 C   0  0  0  0  0  0  0  0  0  0  0  0
  -19.0615  -29.5762   23.9574 C   0  0  0  0  0  0  0  0  0  0  0  0
  -25.1699  -28.2420   20.3797 C   0  0  0  0  0  0  0  0  0  0  0  0
  -24.8987  -12.8790   21.2262 C   0  0  0  0  0  0  0  0  0  0  0  0
  -24.5448  -13.3859   18.8906 C   0  0  0  0  0  0  0  0  0  0  0  0
  -26.4503  -27.9756   19.8944 C   0  0  0  0  0  0  0  0  0  0  0  0
  -24.2197   -9.7351   20.1833 C   0  0  0  0  0  0  0  0  0  0  0  0
  -24.3626   -8.4887   20.7929 C   0  0  0  0  0  0  0  0  0  0  0  0
  -26.3054  -25.7092   20.7254 C   0  0  0  0  0  0  0  0  0  0  0  0
  -28.9605  -23.3823   16.5444 C   0  0  0  0  0  0  0  0  0  0  0  0
  -29.7336  -21.3773   15.4403 C   0  0  0  0  0  0  0  0  0  0  0  0
  -22.5544   -9.0207   22.3044 C   0  0  0  0  0  0  0  0  0  0  0  0
  -26.3671  -14.4245   20.0896 C   0  0  0  0  0  0  0  0  0  0  0  0
  -28.8418  -14.9898   19.8365 C   0  0  0  0  0  0  0  0  0  0  0  0
  -17.0612  -28.5126   23.0883 C   0  0  0  0  0  0  0  0  0  0  0  0
  -24.4453  -27.2373   21.0270 C   0  0  0  0  0  0  0  0  0  0  0  0
  -18.3804  -28.4098   23.5695 C   0  0  0  0  0  0  0  0  0  0  0  0
  -25.0174  -25.9666   21.2027 C   0  0  0  0  0  0  0  0  0  0  0  0
  -29.4178  -23.4093   14.1722 C   0  0  0  0  0  0  0  0  0  0  0  0
  -29.3234  -22.0366   16.5991 C   0  0  0  0  0  0  0  0  0  0  0  0
  -29.0076  -24.0687   15.3310 C   0  0  0  0  0  0  0  0  0  0  0  0
  -24.1733  -12.7017   20.0481 C   0  0  0  0  0  0  0  0  0  0  0  0
  -27.0167  -26.7124   20.0670 C   0  0  0  0  0  0  0  0  0  0  0  0
  -23.2442  -10.6243   20.6342 C   0  0  0  0  0  0  0  0  0  0  0  0
  -23.5300   -8.1315   21.8535 C   0  0  0  0  0  0  0  0  0  0  0  0
  -29.7808  -22.0636   14.2269 C   0  0  0  0  0  0  0  0  0  0  0  0
  -22.4116  -10.2671   21.6948 C   0  0  0  0  0  0  0  0  0  0  0  0
  -27.4998  -15.3149   20.1105 C   0  0  0  0  0  0  0  0  0  0  0  0
  -29.5202  -16.1742   19.9899 C   0  0  0  0  0  0  0  0  0  0  0  0
  -28.4773  -26.5934   18.2434 C   0  0  0  0  0  0  0  0  0  1  0  0
  -29.6611  -26.3681   17.6741 C   0  0  0  0  0  0  0  0  0  0  0  0
  -29.4232  -13.7300   19.4754 C   0  0  0  0  0  0  0  0  0  0  0  0
  -21.2564  -26.2448   22.7363 C   0  0  0  0  0  0  0  0  0  0  0  0
  -22.1056  -23.8721   20.9872 C   0  0  0  0  0  0  0  0  0  0  0  0
  -23.1600  -21.6560   18.6177 C   0  0  0  0  0  0  0  0  0  0  0  0
  -28.8929  -21.8423   19.0736 C   0  0  0  0  0  0  0  0  0  0  0  0
  -16.2609  -27.2944   22.7008 C   0  0  0  0  0  0  0  0  0  0  0  0
  -23.0873  -27.4974   21.6202 C   0  0  0  0  0  0  0  0  0  0  0  0
  -24.2148  -24.9267   21.9357 C   0  0  0  0  0  0  0  0  0  0  0  0
  -17.1177  -26.0542   22.4599 C   0  0  0  0  0  0  0  0  0  0  0  0
  -28.6058  -20.4359   22.3319 C   0  0  0  0  0  0  0  0  0  0  0  0
  -18.1363  -25.8828   23.5824 C   0  0  0  0  0  0  0  0  0  0  0  0
  -28.4225  -18.9400   22.0662 C   0  0  0  0  0  0  0  0  0  0  0  0
  -27.8967  -21.2895   21.2820 C   0  0  0  0  0  0  0  0  0  0  0  0
  -28.0533  -19.4742   19.6238 C   0  0  0  0  0  0  0  0  0  0  0  0
  -19.0950  -27.0780   23.6446 C   0  0  1  0  0  0  0  0  0  0  0  0
  -22.1461  -26.2829   21.5287 C   0  0  1  0  0  0  0  0  0  0  0  0
  -28.8041  -18.5738   20.6185 C   0  0  2  0  0  0  0  0  0  0  0  0
  -29.4757  -24.1242   12.8615 C   0  0  0  0  0  0  0  0  0  0  0  0
  -22.5928  -19.4270   17.6141 C   0  0  0  0  0  0  0  0  0  0  0  0
  -23.2254  -22.4786   23.4586 C   0  0  0  0  0  0  0  0  0  0  0  0
  -23.5218  -20.4144   22.0733 C   0  0  0  0  0  0  0  0  0  0  0  0
  -21.2396  -21.3537   22.4362 C   0  0  0  0  0  0  0  0  0  0  0  0
  -22.7736  -22.8341   15.9303 C   0  0  0  0  0  0  0  0  0  0  0  0
  -22.8485  -22.5626   20.9058 C   0  0  1  0  0  0  0  0  0  0  0  0
  -22.4136  -20.9336   17.5107 C   0  0  2  0  0  0  0  0  0  0  0  0
  -22.7210  -21.7268   22.2107 C   0  0  0  0  0  0  0  0  0  0  0  0
  -27.3335  -16.6047   20.4151 N   0  0  0  0  0  0  0  0  0  0  0  0
  -28.5799  -17.1005   20.3335 N   0  0  0  0  0  0  0  0  0  0  0  0
  -22.8125  -24.9700   21.4926 N   0  0  0  0  0  0  0  0  0  0  0  0
  -28.3104  -20.8890   19.9354 N   0  0  0  0  0  0  0  0  0  0  0  0
  -30.8233  -16.5032   19.8631 N   0  0  0  0  0  0  0  0  0  0  0  0
  -28.5825  -12.6143   19.3614 N   0  0  0  0  0  0  0  0  0  0  0  0
  -29.2760  -21.3383   17.8311 N   0  0  0  0  0  0  0  0  0  0  0  0
  -28.6301  -25.4592   15.2957 N   0  0  0  0  0  0  0  0  0  0  0  0
  -20.0938  -26.9795   22.6019 N   0  0  0  0  0  0  0  0  0  0  0  0
  -22.3533  -21.8858   19.7120 N   0  0  0  0  0  0  0  0  0  0  0  0
  -22.9106  -21.3755   16.1770 N   0  3  0  0  0  0  0  0  0  0  0  0
  -30.6542  -13.5940   19.2763 O   0  0  0  0  0  0  0  0  0  0  0  0
  -21.5977  -25.5957   23.7180 O   0  0  0  0  0  0  0  0  0  0  0  0
  -20.9287  -23.9218   20.6187 O   0  0  0  0  0  0  0  0  0  0  0  0
  -24.3416  -21.9805   18.5227 O   0  0  0  0  0  0  0  0  0  0  0  0
  -29.0657  -23.0129   19.4228 O   0  0  0  0  0  0  0  0  0  0  0  0
  -29.3496  -27.9362   15.6399 O   0  0  0  0  0  0  0  0  0  0  0  0
  -31.0911  -26.1357   15.5448 O   0  0  0  0  0  0  0  0  0  0  0  0
  -23.1031  -11.8611   20.0274 O   0  0  0  0  0  0  0  0  0  0  0  0
  -28.2654  -26.4578   19.5867 O   0  0  0  0  0  0  0  0  0  1  0  0
  -23.6663   -6.9340   22.4378 F   0  0  0  0  0  0  0  0  0  0  0  0
  -30.1758  -21.4206   13.1190 F   0  0  0  0  0  0  0  0  0  0  0  0
  -21.4718  -11.1168   22.1316 F   0  0  0  0  0  0  0  0  0  0  0  0
  -29.7704  -26.5811   15.9727 S   0  0  0  0  0  0  0  0  0  0  0  0
  1  2  1  0  0  0  0
  1  5  2  0  0  0  0
  2  6  2  0  0  0  0
  3  8  2  0  0  0  0
  3 17  1  0  0  0  0
  4  9  1  0  0  0  0
  4 17  2  0  0  0  0
  5 19  1  0  0  0  0
  6 21  1  0  0  0  0
  7 10  2  0  0  0  0
  7 20  1  0  0  0  0
  8 26  1  0  0  0  0
  9 26  2  0  0  0  0
 10 27  1  0  0  0  0
 11 12  2  0  0  0  0
 11 28  1  0  0  0  0
 12 29  1  0  0  0  0
 13 22  1  0  0  0  0
 13 27  2  0  0  0  0
 14 24  2  0  0  0  0
 14 25  1  0  0  0  0
 15 24  1  0  0  0  0
 15 30  2  0  0  0  0
 16 29  2  0  0  0  0
 16 31  1  0  0  0  0
 17 32  1  0  0  0  0
 18 32  1  0  0  0  0
 18 33  2  0  0  0  0
 18 36  1  0  0  0  0
 19 21  2  0  0  0  0
 19 41  1  0  0  0  0
 20 22  2  0  0  0  0
 20 42  1  0  0  0  0
 21 50  1  0  0  0  0
 22 43  1  0  0  0  0
 23 25  2  0  0  0  0
 23 30  1  0  0  0  0
 23 53  1  0  0  0  0
 24 68  1  0  0  0  0
 25 69  1  0  0  0  0
 26 80  1  0  0  0  0
 27 81  1  0  0  0  0
 28 31  2  0  0  0  0
 28 80  1  0  0  0  0
 29 82  1  0  0  0  0
 30 83  1  0  0  0  0
 31 84  1  0  0  0  0
 32 62  2  0  0  0  0
 33 63  1  0  0  0  0
 33 66  1  0  0  0  0
 34 35  2  0  0  0  0
 34 81  1  0  0  0  0
 35 85  1  0  0  0  0
 36 67  1  0  0  0  0
 36 73  2  0  0  0  0
 37 51  1  0  0  0  0
 37 70  1  0  0  0  0
 37 74  2  0  0  0  0
 38 59  1  0  0  0  0
 38 64  1  0  0  0  0
 38 75  2  0  0  0  0
 39 60  1  0  0  0  0
 39 71  1  0  0  0  0
 39 76  2  0  0  0  0
 40 65  1  0  0  0  0
 40 68  1  0  0  0  0
 40 77  2  0  0  0  0
 41 44  1  0  0  0  0
 42 51  1  0  0  0  0
 43 64  1  0  0  0  0
 44 46  1  0  0  0  0
 45 47  1  0  0  0  0
 45 48  1  0  0  0  0
 46 50  1  0  0  0  0
 47 52  1  0  0  0  0
 48 65  1  0  0  0  0
 49 52  1  0  0  0  0
 49 65  1  0  0  0  0
 50 70  1  0  0  0  0
 51 64  1  0  0  0  0
 52 63  1  0  0  0  0
 54 60  1  0  0  0  0
 55 61  1  0  0  0  0
 56 61  1  0  0  0  0
 57 61  1  0  0  0  0
 58 72  1  0  0  0  0
 59 61  1  0  0  0  0
 59 71  1  0  0  0  0
 60 72  1  0  0  0  0
 62 63  1  0  0  0  0
 69 85  1  0  0  0  0
 78 85  2  0  0  0  0
 79 85  2  0  0  0  0
M  CHG  1  72   1
M  ISO  4  34 101  40 100  68 100  81 101
M  END
> <Batch ID>
0063

> <Smiles>
CNC(C)C(=O)NC(C(=O)N1Cc2cc([101O:1][101CH:1]=CS(=O)(=O)Nc3cc([100NH:0][100C:0](=O)N4CCCC(n5nc(-c6ccc(Oc7ccc(F)cc7F)cc6)c(C(N)=O)c5N)C4)cc(F)c3C)ccc2CC1C(=O)NC1CCCc2ccccc21)C(C)(C)C

> <Shape>
0.242

> <Color>
0.077

> <Negative vol penalty>
0.000

$$$$

  -OEChem-04042323123D

 86 95  0     1  0  0  0  0  0999 V2000
  -24.8391  -38.4639   22.6921 C   0  0  0  0  0  0  0  0  0  0  0  0
  -24.9154  -37.3937   21.8065 C   0  0  0  0  0  0  0  0  0  0  0  0
  -26.1647  -13.6819   19.5677 C   0  0  0  0  0  0  0  0  0  0  0  0
  -26.3245  -13.6525   21.9782 C   0  0  0  0  0  0  0  0  0  0  0  0
  -25.3210  -38.3261   23.9932 C   0  0  0  0  0  0  0  0  0  0  0  0
  -25.4746  -36.1855   22.2211 C   0  0  0  0  0  0  0  0  0  0  0  0
  -23.7775  -30.5595   20.4966 C   0  0  0  0  0  0  0  0  0  0  0  0
  -31.8761  -25.2431   21.4170 C   0  0  0  0  0  0  0  0  0  0  0  0
  -31.8704  -23.9192   21.8563 C   0  0  0  0  0  0  0  0  0  0  0  0
  -24.8573  -13.2025   19.6485 C   0  0  0  0  0  0  0  0  0  0  0  0
  -25.0171  -13.1732   22.0590 C   0  0  0  0  0  0  0  0  0  0  0  0
  -24.2870  -29.6762   19.5458 C   0  0  0  0  0  0  0  0  0  0  0  0
  -23.3196  -10.2367   20.1619 C   0  0  0  0  0  0  0  0  0  0  0  0
  -22.9543   -9.2038   19.2986 C   0  0  0  0  0  0  0  0  0  0  0  0
  -25.5609  -28.5669   21.2680 C   0  0  0  0  0  0  0  0  0  0  0  0
  -30.2019  -23.3755   20.1957 C   0  0  0  0  0  0  0  0  0  0  0  0
  -21.2367  -10.6092   18.3438 C   0  0  0  0  0  0  0  0  0  0  0  0
  -26.8983  -13.9069   20.7325 C   0  0  0  0  0  0  0  0  0  0  0  0
  -29.3414  -13.7875   20.0080 C   0  0  0  0  0  0  0  0  0  0  0  0
  -25.8776  -37.1126   24.4269 C   0  0  0  0  0  0  0  0  0  0  0  0
  -24.1650  -30.4598   21.8406 C   0  0  0  0  0  0  0  0  0  0  0  0
  -25.9655  -36.0318   23.5288 C   0  0  0  0  0  0  0  0  0  0  0  0
  -25.0529  -29.4485   22.2342 C   0  0  0  0  0  0  0  0  0  0  0  0
  -31.0447  -25.6332   20.3671 C   0  0  0  0  0  0  0  0  0  0  0  0
  -30.2076  -24.6994   19.7564 C   0  0  0  0  0  0  0  0  0  0  0  0
  -31.0333  -22.9854   21.2456 C   0  0  0  0  0  0  0  0  0  0  0  0
  -24.2835  -12.9482   20.8941 C   0  0  0  0  0  0  0  0  0  0  0  0
  -25.1811  -28.6815   19.9309 C   0  0  0  0  0  0  0  0  0  0  0  0
  -22.6433  -11.4559   20.1162 C   0  0  0  0  0  0  0  0  0  0  0  0
  -21.9129   -9.3901   18.3895 C   0  0  0  0  0  0  0  0  0  0  0  0
  -21.6019  -11.6421   19.2071 C   0  0  0  0  0  0  0  0  0  0  0  0
  -28.2491  -14.4015   20.6497 C   0  0  0  0  0  0  0  0  0  0  0  0
  -30.3901  -14.6500   20.2147 C   0  0  0  0  0  0  0  0  0  0  0  0
  -29.8539  -25.6128   17.4709 C   0  0  0  0  0  0  0  0  0  0  0  0
  -29.4025  -12.5483   19.2894 C   0  0  0  0  0  0  0  0  0  0  0  0
  -25.6770  -32.3655   23.8864 C   0  0  0  0  0  0  0  0  0  0  0  0
  -24.9245  -30.0334   26.0118 C   0  0  0  0  0  0  0  0  0  0  0  0
  -24.1351  -26.7589   26.5611 C   0  0  0  0  0  0  0  0  0  0  0  0
  -30.2610  -20.5800   21.2021 C   0  0  0  0  0  0  0  0  0  0  0  0
  -26.4283  -37.0262   25.8283 C   0  0  0  0  0  0  0  0  0  0  0  0
  -23.5856  -31.4035   22.8585 C   0  0  0  0  0  0  0  0  0  0  0  0
  -25.4848  -29.2863   23.6680 C   0  0  0  0  0  0  0  0  0  0  0  0
  -28.7783  -26.0274   16.4849 C   0  0  0  0  0  0  0  0  0  0  0  0
  -26.6648  -35.5947   26.3027 C   0  0  0  0  0  0  0  0  0  0  0  0
  -27.6988  -26.8090   17.2117 C   0  0  0  0  0  0  0  0  0  0  0  0
  -31.2454  -17.8649   23.7286 C   0  0  0  0  0  0  0  0  0  0  0  0
  -27.3850  -34.7879   25.2269 C   0  0  0  0  0  0  0  0  0  0  0  0
  -31.3080  -16.6593   22.7937 C   0  0  0  0  0  0  0  0  0  0  0  0
  -31.4295  -19.1821   22.9856 C   0  0  0  0  0  0  0  0  0  0  0  0
  -27.9081  -24.7785   18.7471 C   0  0  0  0  0  0  0  0  0  0  0  0
  -29.7325  -18.1629   21.4568 C   0  0  0  0  0  0  0  0  0  0  0  0
  -26.5427  -34.6974   23.9487 C   0  0  1  0  0  0  0  0  0  0  0  0
  -24.4465  -31.5331   24.1113 C   0  0  1  0  0  0  0  0  0  0  0  0
  -27.0220  -25.9516   18.2880 C   0  0  1  0  0  0  0  0  0  0  0  0
  -30.6274  -16.9139   21.4342 C   0  0  2  0  0  0  0  0  0  0  0  0
  -31.0718  -27.0579   19.9174 C   0  0  0  0  0  0  0  0  0  0  0  0
  -23.6128  -25.1415   28.4073 C   0  0  0  0  0  0  0  0  0  0  0  0
  -27.8827  -29.9267   26.7519 C   0  0  0  0  0  0  0  0  0  0  0  0
  -27.4566  -27.7175   27.8502 C   0  0  0  0  0  0  0  0  0  0  0  0
  -26.3151  -29.7687   28.6941 C   0  0  0  0  0  0  0  0  0  0  0  0
  -21.4412  -26.2028   25.4689 C   0  0  0  0  0  0  0  0  0  0  0  0
  -26.5920  -26.8235   19.4691 C   0  0  0  0  0  0  0  0  0  1  0  0
  -25.5915  -28.7659   26.4889 C   0  0  1  0  0  0  0  0  0  0  0  0
  -23.0381  -26.1122   27.3874 C   0  0  2  0  0  0  0  0  0  0  0  0
  -26.8050  -29.0487   27.4188 C   0  0  0  0  0  0  0  0  0  0  0  0
  -28.5739  -15.5641   21.2213 N   0  0  0  0  0  0  0  0  0  0  0  0
  -29.8821  -15.6876   20.9396 N   0  0  0  0  0  0  0  0  0  0  0  0
  -29.3430  -25.0820   18.6725 N   0  0  0  0  0  0  0  0  0  0  0  0
  -24.8955  -30.2374   24.6249 N   0  0  0  0  0  0  0  0  0  0  0  0
  -30.4894  -19.3509   21.8681 N   0  0  0  0  0  0  0  0  0  0  0  0
  -31.6881  -14.6144   19.8453 N   0  0  0  0  0  0  0  0  0  0  0  0
  -29.7117  -11.3794   19.9982 N   0  0  0  0  0  0  0  0  0  0  0  0
  -31.0278  -21.6403   21.6924 N   0  0  0  0  0  0  0  0  0  0  0  0
  -25.4898  -33.7170   24.1056 N   0  0  0  0  0  0  0  0  0  0  0  0
  -24.5428  -27.9592   27.1036 N   0  0  0  0  0  0  0  0  0  0  0  0
  -22.0974  -25.3650   26.5055 N   0  3  0  0  0  0  0  0  0  0  0  0
  -31.0394  -25.7074   17.1548 O   0  0  0  0  0  0  0  0  0  0  0  0
  -29.2055  -12.4822   18.0523 O   0  0  0  0  0  0  0  0  0  0  0  0
  -26.7195  -31.8218   23.5412 O   0  0  0  0  0  0  0  0  0  0  0  0
  -24.4405  -30.8102   26.8388 O   0  0  0  0  0  0  0  0  0  0  0  0
  -24.5877  -26.2485   25.5388 O   0  0  0  0  0  0  0  0  0  0  0  0
  -29.4612  -20.6720   20.2685 O   0  0  0  0  0  0  0  0  0  0  0  0
  -23.0077  -12.4806   20.9734 O   0  0  0  0  0  0  0  0  0  0  0  0
  -25.6804  -27.8184   19.0048 O   0  0  0  0  0  0  0  0  0  1  0  0
  -21.5632   -8.3986   17.5595 F   0  0  0  0  0  0  0  0  0  0  0  0
  -20.9494  -12.8116   19.1577 F   0  0  0  0  0  0  0  0  0  0  0  0
  1  2  1  0  0  0  0
  1  5  2  0  0  0  0
  2  6  2  0  0  0  0
  3 10  2  0  0  0  0
  3 18  1  0  0  0  0
  4 11  1  0  0  0  0
  4 18  2  0  0  0  0
  5 20  1  0  0  0  0
  6 22  1  0  0  0  0
  7 12  2  0  0  0  0
  7 21  1  0  0  0  0
  8  9  2  0  0  0  0
  8 24  1  0  0  0  0
  9 26  1  0  0  0  0
 10 27  1  0  0  0  0
 11 27  2  0  0  0  0
 12 28  1  0  0  0  0
 13 14  2  0  0  0  0
 13 29  1  0  0  0  0
 14 30  1  0  0  0  0
 15 23  1  0  0  0  0
 15 28  2  0  0  0  0
 16 25  1  0  0  0  0
 16 26  2  0  0  0  0
 17 30  2  0  0  0  0
 17 31  1  0  0  0  0
 18 32  1  0  0  0  0
 19 32  1  0  0  0  0
 19 33  2  0  0  0  0
 19 35  1  0  0  0  0
 20 22  2  0  0  0  0
 20 40  1  0  0  0  0
 21 23  2  0  0  0  0
 21 41  1  0  0  0  0
 22 52  1  0  0  0  0
 23 42  1  0  0  0  0
 24 25  2  0  0  0  0
 24 56  1  0  0  0  0
 25 68  1  0  0  0  0
 26 73  1  0  0  0  0
 27 83  1  0  0  0  0
 28 84  1  0  0  0  0
 29 31  2  0  0  0  0
 29 83  1  0  0  0  0
 30 85  1  0  0  0  0
 31 86  1  0  0  0  0
 32 66  2  0  0  0  0
 33 67  1  0  0  0  0
 33 71  1  0  0  0  0
 34 43  1  0  0  0  0
 34 68  1  0  0  0  0
 34 77  2  0  0  0  0
 35 72  1  0  0  0  0
 35 78  2  0  0  0  0
 36 53  1  0  0  0  0
 36 74  1  0  0  0  0
 36 79  2  0  0  0  0
 37 63  1  0  0  0  0
 37 69  1  0  0  0  0
 37 80  2  0  0  0  0
 38 64  1  0  0  0  0
 38 75  1  0  0  0  0
 38 81  2  0  0  0  0
 39 70  1  0  0  0  0
 39 73  1  0  0  0  0
 39 82  2  0  0  0  0
 40 44  1  0  0  0  0
 41 53  1  0  0  0  0
 42 69  1  0  0  0  0
 43 45  1  0  0  0  0
 44 47  1  0  0  0  0
 45 54  1  0  0  0  0
 46 48  1  0  0  0  0
 46 49  1  0  0  0  0
 47 52  1  0  0  0  0
 48 55  1  0  0  0  0
 49 70  1  0  0  0  0
 50 54  1  0  0  0  0
 50 68  1  0  0  0  0
 51 55  1  0  0  0  0
 51 70  1  0  0  0  0
 52 74  1  0  0  0  0
 53 69  1  0  0  0  0
 54 62  1  0  0  0  0
 55 67  1  0  0  0  0
 57 64  1  0  0  0  0
 58 65  1  0  0  0  0
 59 65  1  0  0  0  0
 60 65  1  0  0  0  0
 61 76  1  0  0  0  0
 62 84  1  0  0  0  0
 63 65  1  0  0  0  0
 63 75  1  0  0  0  0
 64 76  1  0  0  0  0
 66 67  1  0  0  0  0
M  CHG  1  76   1
M  ISO  4  39 100  62 101  73 100  84 101
M  END
> <Batch ID>
0063

> <Smiles>
CNC(C)C(=O)NC(C(=O)N1Cc2cc([101O:1][101CH2:1]C3CCC(=O)N(c4cc([100NH:0][100C:0](=O)N5CCCC(n6nc(-c7ccc(Oc8ccc(F)cc8F)cc7)c(C(N)=O)c6N)C5)ccc4C)C3)ccc2CC1C(=O)NC1CCCc2ccccc21)C(C)(C)C

> <Shape>
0.317

> <Color>
0.076

> <Negative vol penalty>
0.000

$$$$

  -OEChem-04042323123D

 88 97  0     1  0  0  0  0  0999 V2000
  -26.9362  -38.2348   22.9400 C   0  0  0  0  0  0  0  0  0  0  0  0
  -27.5228  -37.3195   22.0720 C   0  0  0  0  0  0  0  0  0  0  0  0
  -22.8905  -11.7806   22.5460 C   0  0  0  0  0  0  0  0  0  0  0  0
  -22.1769  -13.1212   20.6670 C   0  0  0  0  0  0  0  0  0  0  0  0
  -26.2589  -37.7845   24.0725 C   0  0  0  0  0  0  0  0  0  0  0  0
  -27.4333  -35.9533   22.3365 C   0  0  0  0  0  0  0  0  0  0  0  0
  -26.9712  -29.6371   18.9885 C   0  0  0  0  0  0  0  0  0  0  0  0
  -21.5978  -11.8244   23.0682 C   0  0  0  0  0  0  0  0  0  0  0  0
  -20.8842  -13.1650   21.1892 C   0  0  0  0  0  0  0  0  0  0  0  0
  -27.5880  -28.3872   18.9568 C   0  0  0  0  0  0  0  0  0  0  0  0
  -18.6364  -10.2873   22.5201 C   0  0  0  0  0  0  0  0  0  0  0  0
  -18.0901   -9.0967   22.9990 C   0  0  0  0  0  0  0  0  0  0  0  0
  -26.3250  -27.7214   20.9012 C   0  0  0  0  0  0  0  0  0  0  0  0
  -27.4894  -21.1423   17.2125 C   0  0  0  0  0  0  0  0  0  0  0  0
  -28.6545  -19.7908   18.8413 C   0  0  0  0  0  0  0  0  0  0  0  0
  -17.8532  -10.0868   25.1901 C   0  0  0  0  0  0  0  0  0  0  0  0
  -23.1801  -12.4290   21.3454 C   0  0  0  0  0  0  0  0  0  0  0  0
  -25.0431  -11.4254   19.9208 C   0  0  0  0  0  0  0  0  0  0  0  0
  -26.1528  -36.4117   24.3458 C   0  0  0  0  0  0  0  0  0  0  0  0
  -26.0331  -29.9429   19.9849 C   0  0  0  0  0  0  0  0  0  0  0  0
  -26.7551  -35.4843   23.4743 C   0  0  0  0  0  0  0  0  0  0  0  0
  -25.6958  -28.9751   20.9418 C   0  0  0  0  0  0  0  0  0  0  0  0
  -26.7844  -20.0178   16.7837 C   0  0  0  0  0  0  0  0  0  0  0  0
  -28.4246  -21.0288   18.2413 C   0  0  0  0  0  0  0  0  0  0  0  0
  -27.9494  -18.6662   18.4125 C   0  0  0  0  0  0  0  0  0  0  0  0
  -20.5947  -12.5166   22.3898 C   0  0  0  0  0  0  0  0  0  0  0  0
  -27.2671  -27.4301   19.9150 C   0  0  0  0  0  0  0  0  0  0  0  0
  -18.7913  -11.3777   23.3761 C   0  0  0  0  0  0  0  0  0  0  0  0
  -17.6984   -8.9964   24.3340 C   0  0  0  0  0  0  0  0  0  0  0  0
  -18.3996  -11.2774   24.7111 C   0  0  0  0  0  0  0  0  0  0  0  0
  -27.0143  -18.7798   17.3837 C   0  0  0  0  0  0  0  0  0  0  0  0
  -24.5153  -12.3846   20.8058 C   0  0  0  0  0  0  0  0  0  0  0  0
  -26.3402  -11.8265   19.7133 C   0  0  0  0  0  0  0  0  0  0  0  0
  -30.6364  -24.4016   19.4648 C   0  0  0  0  0  0  0  0  0  0  0  0
  -30.4231  -22.0237   19.1872 C   0  0  0  0  0  0  0  0  0  0  0  0
  -29.4024  -24.6192   18.9905 C   0  0  0  0  0  0  0  0  0  0  0  0
  -31.1576  -23.0697   19.5765 C   0  0  0  0  0  0  0  0  0  0  0  0
  -28.5407  -23.4479   18.5872 C   0  0  0  0  0  0  0  0  0  0  0  0
  -24.4167  -10.2747   19.3382 C   0  0  0  0  0  0  0  0  0  0  0  0
  -25.8649  -32.0872   22.3252 C   0  0  0  0  0  0  0  0  0  0  0  0
  -22.8768  -30.8787   22.6904 C   0  0  0  0  0  0  0  0  0  0  0  0
  -20.7360  -28.2593   22.2403 C   0  0  0  0  0  0  0  0  0  0  0  0
  -29.0784  -17.1265   20.0559 C   0  0  0  0  0  0  0  0  0  0  0  0
  -25.4512  -35.9749   25.6075 C   0  0  0  0  0  0  0  0  0  0  0  0
  -25.3569  -31.2865   19.9893 C   0  0  0  0  0  0  0  0  0  0  0  0
  -24.6802  -29.2465   22.0203 C   0  0  0  0  0  0  0  0  0  0  0  0
  -25.0803  -34.4941   25.6166 C   0  0  0  0  0  0  0  0  0  0  0  0
  -29.9225  -14.1732   21.8567 C   0  0  0  0  0  0  0  0  0  0  0  0
  -26.2600  -33.6454   25.1534 C   0  0  0  0  0  0  0  0  0  0  0  0
  -28.6821  -13.2896   21.7059 C   0  0  0  0  0  0  0  0  0  0  0  0
  -29.5539  -15.6491   21.9966 C   0  0  0  0  0  0  0  0  0  0  0  0
  -27.4358  -15.2889   20.7912 C   0  0  0  0  0  0  0  0  0  0  0  0
  -26.6584  -33.9932   23.7140 C   0  0  1  0  0  0  0  0  0  0  0  0
  -24.7961  -31.6687   21.3556 C   0  0  1  0  0  0  0  0  0  0  0  0
  -27.7595  -13.8006   20.5820 C   0  0  2  0  0  0  0  0  0  0  0  0
  -25.7845  -20.1434   15.6839 C   0  0  0  0  0  0  0  0  0  0  0  0
  -18.3675  -27.5537   22.6760 C   0  0  0  0  0  0  0  0  0  0  0  0
  -23.5563  -30.4214   25.6296 C   0  0  0  0  0  0  0  0  0  0  0  0
  -21.5806  -28.8906   25.7761 C   0  0  0  0  0  0  0  0  0  0  0  0
  -21.2513  -31.2990   25.2161 C   0  0  0  0  0  0  0  0  0  0  0  0
  -20.1797  -27.9323   19.3520 C   0  0  0  0  0  0  0  0  0  0  0  0
  -28.8181  -25.9772   18.8476 C   0  0  0  0  0  0  0  0  0  1  0  0
  -22.2692  -29.7539   23.4933 C   0  0  1  0  0  0  0  0  0  0  0  0
  -19.3250  -28.1958   21.6841 C   0  0  2  0  0  0  0  0  0  0  0  0
  -22.1849  -30.0865   25.0097 C   0  0  0  0  0  0  0  0  0  0  0  0
  -25.4046  -13.3242   21.1378 N   0  0  0  0  0  0  0  0  0  0  0  0
  -26.5043  -12.9573   20.4579 N   0  0  0  0  0  0  0  0  0  0  0  0
  -29.1342  -22.1611   18.6732 N   0  0  0  0  0  0  0  0  0  0  0  0
  -24.0511  -30.5771   21.9862 N   0  0  0  0  0  0  0  0  0  0  0  0
  -28.6824  -16.0635   20.8950 N   0  0  0  0  0  0  0  0  0  0  0  0
  -27.3450  -11.3187   18.9685 N   0  0  0  0  0  0  0  0  0  0  0  0
  -23.0783  -10.0089   19.6578 N   0  0  0  0  0  0  0  0  0  0  0  0
  -28.1850  -17.4096   19.0234 N   0  0  0  0  0  0  0  0  0  0  0  0
  -25.7387  -33.3878   22.7747 N   0  0  0  0  0  0  0  0  0  0  0  0
  -20.9817  -29.4592   22.8737 N   0  0  0  0  0  0  0  0  0  0  0  0
  -19.3001  -27.3999   20.4243 N   0  3  0  0  0  0  0  0  0  0  0  0
  -27.3913  -23.6478   18.1901 O   0  0  0  0  0  0  0  0  0  0  0  0
  -25.0309   -9.4958   18.5703 O   0  0  0  0  0  0  0  0  0  0  0  0
  -26.7384  -31.2888   22.6433 O   0  0  0  0  0  0  0  0  0  0  0  0
  -22.3257  -31.9823   22.6824 O   0  0  0  0  0  0  0  0  0  0  0  0
  -21.5386  -27.3354   22.1277 O   0  0  0  0  0  0  0  0  0  0  0  0
  -30.1455  -17.7226   20.2235 O   0  0  0  0  0  0  0  0  0  0  0  0
  -32.4292  -22.9696   20.0861 O   0  0  0  0  0  0  0  0  0  0  0  0
  -19.3332  -12.5594   22.8989 O   0  0  0  0  0  0  0  0  0  0  0  0
  -27.8681  -26.2096   19.8868 O   0  0  0  0  0  0  0  0  0  1  0  0
  -17.1723   -7.8534   24.7934 F   0  0  0  0  0  0  0  0  0  0  0  0
  -18.5448  -12.3219   25.5380 F   0  0  0  0  0  0  0  0  0  0  0  0
  -26.3353  -17.6995   16.9692 F   0  0  0  0  0  0  0  0  0  0  0  0
  1  2  1  0  0  0  0
  1  5  2  0  0  0  0
  2  6  2  0  0  0  0
  3  8  2  0  0  0  0
  3 17  1  0  0  0  0
  4  9  1  0  0  0  0
  4 17  2  0  0  0  0
  5 19  1  0  0  0  0
  6 21  1  0  0  0  0
  7 10  2  0  0  0  0
  7 20  1  0  0  0  0
  8 26  1  0  0  0  0
  9 26  2  0  0  0  0
 10 27  1  0  0  0  0
 11 12  2  0  0  0  0
 11 28  1  0  0  0  0
 12 29  1  0  0  0  0
 13 22  1  0  0  0  0
 13 27  2  0  0  0  0
 14 23  2  0  0  0  0
 14 24  1  0  0  0  0
 15 24  2  0  0  0  0
 15 25  1  0  0  0  0
 16 29  2  0  0  0  0
 16 30  1  0  0  0  0
 17 32  1  0  0  0  0
 18 32  1  0  0  0  0
 18 33  2  0  0  0  0
 18 39  1  0  0  0  0
 19 21  2  0  0  0  0
 19 44  1  0  0  0  0
 20 22  2  0  0  0  0
 20 45  1  0  0  0  0
 21 53  1  0  0  0  0
 22 46  1  0  0  0  0
 23 31  1  0  0  0  0
 23 56  1  0  0  0  0
 24 68  1  0  0  0  0
 25 31  2  0  0  0  0
 25 73  1  0  0  0  0
 26 84  1  0  0  0  0
 27 85  1  0  0  0  0
 28 30  2  0  0  0  0
 28 84  1  0  0  0  0
 29 86  1  0  0  0  0
 30 87  1  0  0  0  0
 31 88  1  0  0  0  0
 32 66  2  0  0  0  0
 33 67  1  0  0  0  0
 33 71  1  0  0  0  0
 34 36  2  0  0  0  0
 34 37  1  0  0  0  0
 35 37  2  0  0  0  0
 35 68  1  0  0  0  0
 36 38  1  0  0  0  0
 36 62  1  0  0  0  0
 37 83  1  0  0  0  0
 38 68  1  0  0  0  0
 38 77  2  0  0  0  0
 39 72  1  0  0  0  0
 39 78  2  0  0  0  0
 40 54  1  0  0  0  0
 40 74  1  0  0  0  0
 40 79  2  0  0  0  0
 41 63  1  0  0  0  0
 41 69  1  0  0  0  0
 41 80  2  0  0  0  0
 42 64  1  0  0  0  0
 42 75  1  0  0  0  0
 42 81  2  0  0  0  0
 43 70  1  0  0  0  0
 43 73  1  0  0  0  0
 43 82  2  0  0  0  0
 44 47  1  0  0  0  0
 45 54  1  0  0  0  0
 46 69  1  0  0  0  0
 47 49  1  0  0  0  0
 48 50  1  0  0  0  0
 48 51  1  0  0  0  0
 49 53  1  0  0  0  0
 50 55  1  0  0  0  0
 51 70  1  0  0  0  0
 52 55  1  0  0  0  0
 52 70  1  0  0  0  0
 53 74  1  0  0  0  0
 54 69  1  0  0  0  0
 55 67  1  0  0  0  0
 57 64  1  0  0  0  0
 58 65  1  0  0  0  0
 59 65  1  0  0  0  0
 60 65  1  0  0  0  0
 61 76  1  0  0  0  0
 62 85  1  0  0  0  0
 63 65  1  0  0  0  0
 63 75  1  0  0  0  0
 64 76  1  0  0  0  0
 66 67  1  0  0  0  0
M  CHG  1  76   1
M  ISO  4  43 100  62 101  73 100  85 101
M  END
> <Batch ID>
0063

> <Smiles>
CNC(C)C(=O)NC(C(=O)N1Cc2cc([101O:1][101CH2:1]C3=CC(=O)CN(c4cc(C)c(F)c([100NH:0][100C:0](=O)N5CCCC(n6nc(-c7ccc(Oc8ccc(F)cc8F)cc7)c(C(N)=O)c6N)C5)c4)C3=O)ccc2CC1C(=O)NC1CCCc2ccccc21)C(C)(C)C

> <Shape>
0.316

> <Color>
0.085

> <Negative vol penalty>
0.000

$$$$

  -OEChem-04042323123D

 92101  0     1  0  0  0  0  0999 V2000
  -22.8441  -19.2888   20.5051 C   0  0  0  0  0  0  0  0  0  0  0  0
  -23.8551  -19.7762   21.3271 C   0  0  0  0  0  0  0  0  0  0  0  0
  -23.0564   -9.9175   19.8799 C   0  0  0  0  0  0  0  0  0  0  0  0
  -23.8492   -9.7861   22.1584 C   0  0  0  0  0  0  0  0  0  0  0  0
  -23.1553  -18.7869   19.2421 C   0  0  0  0  0  0  0  0  0  0  0  0
  -25.1782  -19.7610   20.8870 C   0  0  0  0  0  0  0  0  0  0  0  0
  -27.5968  -24.1042   21.8522 C   0  0  0  0  0  0  0  0  0  0  0  0
  -22.3184   -8.7492   20.0693 C   0  0  0  0  0  0  0  0  0  0  0  0
  -23.1112   -8.6178   22.3478 C   0  0  0  0  0  0  0  0  0  0  0  0
  -28.0410  -24.3091   23.1577 C   0  0  0  0  0  0  0  0  0  0  0  0
  -19.3929   -7.8570   21.5110 C   0  0  0  0  0  0  0  0  0  0  0  0
  -18.0792   -7.8369   21.0425 C   0  0  0  0  0  0  0  0  0  0  0  0
  -31.8770  -18.1585   24.5258 C   0  0  0  0  0  0  0  0  0  0  0  0
  -29.8903  -17.3162   23.4394 C   0  0  0  0  0  0  0  0  0  0  0  0
  -30.2650  -23.6468   22.4985 C   0  0  0  0  0  0  0  0  0  0  0  0
  -32.0674  -16.5124   22.7677 C   0  0  0  0  0  0  0  0  0  0  0  0
  -18.6235   -5.9801   19.5958 C   0  0  0  0  0  0  0  0  0  0  0  0
  -23.8219  -10.4360   20.9244 C   0  0  0  0  0  0  0  0  0  0  0  0
  -30.4891  -18.1457   24.3875 C   0  0  0  0  0  0  0  0  0  0  0  0
  -24.1571  -12.9647   20.9545 C   0  0  0  0  0  0  0  0  0  0  0  0
  -24.4817  -18.7744   18.7824 C   0  0  0  0  0  0  0  0  0  0  0  0
  -28.4824  -23.6579   20.8608 C   0  0  0  0  0  0  0  0  0  0  0  0
  -25.5076  -19.2572   19.6172 C   0  0  0  0  0  0  0  0  0  0  0  0
  -29.8300  -23.4394   21.1805 C   0  0  0  0  0  0  0  0  0  0  0  0
  -32.6662  -17.3419   23.7159 C   0  0  0  0  0  0  0  0  0  0  0  0
  -30.6794  -16.4995   22.6294 C   0  0  0  0  0  0  0  0  0  0  0  0
  -22.3457   -8.0993   21.3033 C   0  0  0  0  0  0  0  0  0  0  0  0
  -29.3746  -24.0776   23.4817 C   0  0  0  0  0  0  0  0  0  0  0  0
  -20.3219   -6.9386   21.0218 C   0  0  0  0  0  0  0  0  0  0  0  0
  -17.6945   -6.8985   20.0849 C   0  0  0  0  0  0  0  0  0  0  0  0
  -19.9372   -6.0002   20.0643 C   0  0  0  0  0  0  0  0  0  0  0  0
  -24.5849  -11.6426   20.7292 C   0  0  0  0  0  0  0  0  0  0  0  0
  -25.2425  -13.7380   20.6223 C   0  0  0  0  0  0  0  0  0  0  0  0
  -34.7523  -17.6195   25.0513 C   0  0  0  0  0  0  0  0  0  0  0  0
  -34.9797  -17.1043   22.8195 C   0  0  0  0  0  0  0  0  0  0  0  0
  -29.6531  -19.0104   25.2455 C   0  0  0  0  0  0  0  0  0  0  0  0
  -22.8918  -13.4504   21.4224 C   0  0  0  0  0  0  0  0  0  0  0  0
  -28.6662  -21.0773   19.0140 C   0  0  0  0  0  0  0  0  0  0  0  0
  -31.1259  -22.7005   17.6587 C   0  0  0  0  0  0  0  0  0  0  0  0
  -29.5164  -21.1437   26.5129 C   0  0  0  0  0  0  0  0  0  0  0  0
  -33.5377  -25.0950   17.9696 C   0  0  0  0  0  0  0  0  0  0  0  0
  -30.7086  -14.7862   20.7828 C   0  0  0  0  0  0  0  0  0  0  0  0
  -24.7751  -18.1784   17.4284 C   0  0  0  0  0  0  0  0  0  0  0  0
  -27.9934  -23.4673   19.4511 C   0  0  0  0  0  0  0  0  0  0  0  0
  -30.8255  -22.9792   20.1482 C   0  0  0  0  0  0  0  0  0  0  0  0
  -36.2219  -17.6983   24.7566 C   0  0  0  0  0  0  0  0  0  0  0  0
  -36.3633  -17.0513   23.3989 C   0  0  0  0  0  0  0  0  0  0  0  0
  -26.1557  -18.5431   16.8887 C   0  0  0  0  0  0  0  0  0  0  0  0
  -29.5648  -12.5189   18.2872 C   0  0  0  0  0  0  0  0  0  0  0  0
  -27.2169  -18.3589   17.9688 C   0  0  0  0  0  0  0  0  0  0  0  0
  -28.1321  -12.1975   18.7186 C   0  0  0  0  0  0  0  0  0  0  0  0
  -30.4967  -12.6762   19.4874 C   0  0  0  0  0  0  0  0  0  0  0  0
  -28.6085  -13.3094   20.9376 C   0  0  0  0  0  0  0  0  0  0  0  0
  -26.9517  -19.2804   19.1655 C   0  0  1  0  0  0  0  0  0  0  0  0
  -28.8684  -22.5180   18.6384 C   0  0  1  0  0  0  0  0  0  0  0  0
  -27.6191  -13.2059   19.7653 C   0  0  2  0  0  0  0  0  0  0  0  0
  -35.4207  -26.1700   16.7063 C   0  0  0  0  0  0  0  0  0  0  0  0
  -32.8564  -20.2349   18.1445 C   0  0  0  0  0  0  0  0  0  0  0  0
  -34.8767  -21.6632   17.7615 C   0  0  0  0  0  0  0  0  0  0  0  0
  -33.2141  -21.3405   15.9300 C   0  0  0  0  0  0  0  0  0  0  0  0
  -32.2609  -27.7615   18.1059 C   0  0  0  0  0  0  0  0  0  0  0  0
  -30.3950  -22.3291   26.8382 C   0  0  0  0  0  0  0  0  0  0  0  0
  -29.6111  -23.6191   27.0547 C   0  0  0  0  0  0  0  0  0  0  0  0
  -28.8656  -24.0718   25.8048 C   0  0  0  0  0  0  0  0  0  1  0  0
  -32.6118  -22.7943   17.9089 C   0  0  1  0  0  0  0  0  0  0  0  0
  -33.9432  -26.2404   17.0596 C   0  0  2  0  0  0  0  0  0  0  0  0
  -33.3708  -21.5150   17.4564 C   0  0  0  0  0  0  0  0  0  0  0  0
  -25.8438  -11.5760   20.2879 N   0  0  0  0  0  0  0  0  0  0  0  0
  -26.2163  -12.8661   20.2331 N   0  0  0  0  0  0  0  0  0  0  0  0
  -34.0917  -17.3547   23.8581 N   0  0  0  0  0  0  0  0  0  0  0  0
  -30.2976  -22.8010   18.7855 N   0  0  0  0  0  0  0  0  0  0  0  0
  -29.9485  -13.6498   20.4342 N   0  0  0  0  0  0  0  0  0  0  0  0
  -25.4493  -15.0721   20.6281 N   0  0  0  0  0  0  0  0  0  0  0  0
  -21.8866  -12.5194   21.7177 N   0  0  0  0  0  0  0  0  0  0  0  0
  -30.0714  -15.6576   21.6655 N   0  0  0  0  0  0  0  0  0  0  0  0
  -30.1734  -20.1696   25.6719 N   0  0  0  0  0  0  0  0  0  0  0  0
  -27.3662  -20.6336   18.8630 N   0  0  0  0  0  0  0  0  0  0  0  0
  -33.0596  -24.0182   17.2533 N   0  0  0  0  0  0  0  0  0  0  0  0
  -28.4270  -18.5847   25.5479 N   0  3  0  0  0  0  0  0  0  0  0  0
  -33.6807  -27.5481   17.7244 N   0  3  0  0  0  0  0  0  0  0  0  0
  -34.3052  -17.7711   26.1802 O   0  0  0  0  0  0  0  0  0  0  0  0
  -34.7673  -16.9472   21.6247 O   0  0  0  0  0  0  0  0  0  0  0  0
  -22.6541  -14.6745   21.5584 O   0  0  0  0  0  0  0  0  0  0  0  0
  -29.6193  -20.4166   19.4101 O   0  0  0  0  0  0  0  0  0  0  0  0
  -30.7151  -22.5510   16.5053 O   0  0  0  0  0  0  0  0  0  0  0  0
  -28.3763  -20.9728   26.9192 O   0  0  0  0  0  0  0  0  0  0  0  0
  -33.6387  -25.1487   19.1933 O   0  0  0  0  0  0  0  0  0  0  0  0
  -31.8306  -14.9864   20.3104 O   0  0  0  0  0  0  0  0  0  0  0  0
  -21.6255   -6.9593   21.4885 O   0  0  0  0  0  0  0  0  0  0  0  0
  -29.8107  -24.2762   24.7554 O   0  0  0  0  0  0  0  0  0  1  0  0
  -16.4326   -6.8783   19.6363 F   0  0  0  0  0  0  0  0  0  0  0  0
  -20.8249   -5.1146   19.5915 F   0  0  0  0  0  0  0  0  0  0  0  0
  1  2  1  0  0  0  0
  1  5  2  0  0  0  0
  2  6  2  0  0  0  0
  3  8  2  0  0  0  0
  3 18  1  0  0  0  0
  4  9  1  0  0  0  0
  4 18  2  0  0  0  0
  5 21  1  0  0  0  0
  6 23  1  0  0  0  0
  7 10  2  0  0  0  0
  7 22  1  0  0  0  0
  8 27  1  0  0  0  0
  9 27  2  0  0  0  0
 10 28  1  0  0  0  0
 11 12  2  0  0  0  0
 11 29  1  0  0  0  0
 12 30  1  0  0  0  0
 13 19  2  0  0  0  0
 13 25  1  0  0  0  0
 14 19  1  0  0  0  0
 14 26  2  0  0  0  0
 15 24  1  0  0  0  0
 15 28  2  0  0  0  0
 16 25  2  0  0  0  0
 16 26  1  0  0  0  0
 17 30  2  0  0  0  0
 17 31  1  0  0  0  0
 18 32  1  0  0  0  0
 19 36  1  0  0  0  0
 20 32  1  0  0  0  0
 20 33  2  0  0  0  0
 20 37  1  0  0  0  0
 21 23  2  0  0  0  0
 21 43  1  0  0  0  0
 22 24  2  0  0  0  0
 22 44  1  0  0  0  0
 23 54  1  0  0  0  0
 24 45  1  0  0  0  0
 25 70  1  0  0  0  0
 26 75  1  0  0  0  0
 27 89  1  0  0  0  0
 28 90  1  0  0  0  0
 29 31  2  0  0  0  0
 29 89  1  0  0  0  0
 30 91  1  0  0  0  0
 31 92  1  0  0  0  0
 32 68  2  0  0  0  0
 33 69  1  0  0  0  0
 33 73  1  0  0  0  0
 34 46  1  0  0  0  0
 34 70  1  0  0  0  0
 34 81  2  0  0  0  0
 35 47  1  0  0  0  0
 35 70  1  0  0  0  0
 35 82  2  0  0  0  0
 36 76  1  0  0  0  0
 36 79  2  0  0  0  0
 37 74  1  0  0  0  0
 37 83  2  0  0  0  0
 38 55  1  0  0  0  0
 38 77  1  0  0  0  0
 38 84  2  0  0  0  0
 39 65  1  0  0  0  0
 39 71  1  0  0  0  0
 39 85  2  0  0  0  0
 40 62  1  0  0  0  0
 40 76  1  0  0  0  0
 40 86  2  0  0  0  0
 41 66  1  0  0  0  0
 41 78  1  0  0  0  0
 41 87  2  0  0  0  0
 42 72  1  0  0  0  0
 42 75  1  0  0  0  0
 42 88  2  0  0  0  0
 43 48  1  0  0  0  0
 44 55  1  0  0  0  0
 45 71  1  0  0  0  0
 46 47  1  0  0  0  0
 48 50  1  0  0  0  0
 49 51  1  0  0  0  0
 49 52  1  0  0  0  0
 50 54  1  0  0  0  0
 51 56  1  0  0  0  0
 52 72  1  0  0  0  0
 53 56  1  0  0  0  0
 53 72  1  0  0  0  0
 54 77  1  0  0  0  0
 55 71  1  0  0  0  0
 56 69  1  0  0  0  0
 57 66  1  0  0  0  0
 58 67  1  0  0  0  0
 59 67  1  0  0  0  0
 60 67  1  0  0  0  0
 61 80  1  0  0  0  0
 62 63  1  0  0  0  0
 63 64  1  0  0  0  0
 64 90  1  0  0  0  0
 65 67  1  0  0  0  0
 65 78  1  0  0  0  0
 66 80  1  0  0  0  0
 68 69  1  0  0  0  0
M  CHG  2  79   1  80   1
M  ISO  4  42 100  64 101  75 100  90 101
M  END
> <Batch ID>
0063

> <Smiles>
CNC(C)C(=O)NC(C(=O)N1Cc2cc([101O:1][101CH2:1]CCC(=O)NC(=N)c3cc([100NH:0][100C:0](=O)N4CCCC(n5nc(-c6ccc(Oc7ccc(F)cc7F)cc6)c(C(N)=O)c5N)C4)cc(N4C(=O)CCC4=O)c3)ccc2CC1C(=O)NC1CCCc2ccccc21)C(C)(C)C

> <Shape>
0.196

> <Color>
0.188

> <Negative vol penalty>
0.000

$$$$

  -OEChem-04042323123D

 89 97  0     1  0  0  0  0  0999 V2000
  -31.3716  -34.5539   19.8965 C   0  0  0  0  0  0  0  0  0  0  0  0
  -30.9636  -33.2867   19.4925 C   0  0  0  0  0  0  0  0  0  0  0  0
  -23.3195   -9.3866   20.5683 C   0  0  0  0  0  0  0  0  0  0  0  0
  -23.1987  -10.9428   22.4123 C   0  0  0  0  0  0  0  0  0  0  0  0
  -31.0167  -35.0300   21.1580 C   0  0  0  0  0  0  0  0  0  0  0  0
  -30.2014  -32.4944   20.3503 C   0  0  0  0  0  0  0  0  0  0  0  0
  -25.7737  -28.5680   18.7741 C   0  0  0  0  0  0  0  0  0  0  0  0
  -22.5211   -8.4872   21.2749 C   0  0  0  0  0  0  0  0  0  0  0  0
  -22.4003  -10.0435   23.1190 C   0  0  0  0  0  0  0  0  0  0  0  0
  -25.7639  -27.1843   18.6040 C   0  0  0  0  0  0  0  0  0  0  0  0
  -22.9077   -6.2468   23.7760 C   0  0  0  0  0  0  0  0  0  0  0  0
  -23.2964   -4.9073   23.7882 C   0  0  0  0  0  0  0  0  0  0  0  0
  -30.0714  -20.4193   20.6480 C   0  0  0  0  0  0  0  0  0  0  0  0
  -30.8401  -18.1290   20.6543 C   0  0  0  0  0  0  0  0  0  0  0  0
  -24.9461  -26.9192   20.8579 C   0  0  0  0  0  0  0  0  0  0  0  0
  -21.2027   -4.2902   22.7525 C   0  0  0  0  0  0  0  0  0  0  0  0
  -23.6584  -10.6144   21.1370 C   0  0  0  0  0  0  0  0  0  0  0  0
  -31.0736  -19.4822   20.8989 C   0  0  0  0  0  0  0  0  0  0  0  0
  -24.0522  -12.5538   19.5273 C   0  0  0  0  0  0  0  0  0  0  0  0
  -30.2416  -34.2470   22.0279 C   0  0  0  0  0  0  0  0  0  0  0  0
  -25.3794  -29.1382   19.9930 C   0  0  0  0  0  0  0  0  0  0  0  0
  -29.8370  -32.9600   21.6251 C   0  0  0  0  0  0  0  0  0  0  0  0
  -24.9493  -28.3106   21.0400 C   0  0  0  0  0  0  0  0  0  0  0  0
  -28.8356  -20.0032   20.1526 C   0  0  0  0  0  0  0  0  0  0  0  0
  -29.6044  -17.7128   20.1589 C   0  0  0  0  0  0  0  0  0  0  0  0
  -22.0615   -8.8157   22.5503 C   0  0  0  0  0  0  0  0  0  0  0  0
  -25.3528  -26.3595   19.6470 C   0  0  0  0  0  0  0  0  0  0  0  0
  -21.6664   -6.6081   23.2521 C   0  0  0  0  0  0  0  0  0  0  0  0
  -22.4440   -3.9290   23.2764 C   0  0  0  0  0  0  0  0  0  0  0  0
  -20.8139   -5.6298   22.7403 C   0  0  0  0  0  0  0  0  0  0  0  0
  -28.6021  -18.6499   19.9080 C   0  0  0  0  0  0  0  0  0  0  0  0
  -24.4835  -11.5436   20.4078 C   0  0  0  0  0  0  0  0  0  0  0  0
  -25.2112  -13.1532   19.0984 C   0  0  0  0  0  0  0  0  0  0  0  0
  -32.3624  -19.9156   21.4157 C   0  0  0  0  0  0  0  0  0  0  0  0
  -26.6045  -22.9869   19.7000 C   0  0  0  0  0  0  0  0  0  0  0  0
  -26.4734  -24.3129   19.8093 C   0  0  0  0  0  0  0  0  0  1  0  0
  -32.5641  -20.9788   22.2219 C   0  0  0  0  0  0  0  0  0  0  0  0
  -22.7228  -12.9178   19.1324 C   0  0  0  0  0  0  0  0  0  0  0  0
  -27.8878  -22.3307   20.0855 C   0  0  0  0  0  0  0  0  0  0  0  0
  -26.8091  -30.9222   22.2015 C   0  0  0  0  0  0  0  0  0  0  0  0
  -23.8301  -31.0348   23.4802 C   0  0  0  0  0  0  0  0  0  0  0  0
  -20.7490  -29.5978   23.7783 C   0  0  0  0  0  0  0  0  0  0  0  0
  -30.2570  -15.2801   20.1076 C   0  0  0  0  0  0  0  0  0  0  0  0
  -29.9227  -34.7857   23.4001 C   0  0  0  0  0  0  0  0  0  0  0  0
  -25.3702  -30.6339   20.1514 C   0  0  0  0  0  0  0  0  0  0  0  0
  -24.4971  -28.8739   22.3616 C   0  0  0  0  0  0  0  0  0  0  0  0
  -28.7969  -34.0322   24.1037 C   0  0  0  0  0  0  0  0  0  0  0  0
  -30.0441  -11.7550   19.6549 C   0  0  0  0  0  0  0  0  0  0  0  0
  -29.0067  -32.5260   23.9848 C   0  0  0  0  0  0  0  0  0  0  0  0
  -28.5430  -11.4688   19.7380 C   0  0  0  0  0  0  0  0  0  0  0  0
  -30.4656  -12.8583   20.6237 C   0  0  0  0  0  0  0  0  0  0  0  0
  -28.1975  -13.8198   20.5986 C   0  0  0  0  0  0  0  0  0  0  0  0
  -28.9884  -32.0805   22.5176 C   0  0  1  0  0  0  0  0  0  0  0  0
  -25.4376  -31.0809   21.6085 C   0  0  1  0  0  0  0  0  0  0  0  0
  -27.7143  -12.7604   19.5946 C   0  0  2  0  0  0  0  0  0  0  0  0
  -18.5364  -29.9011   24.9226 C   0  0  0  0  0  0  0  0  0  0  0  0
  -25.0528  -30.0556   26.0986 C   0  0  0  0  0  0  0  0  0  0  0  0
  -22.7452  -29.4773   26.8790 C   0  0  0  0  0  0  0  0  0  0  0  0
  -23.3268  -31.8466   26.3587 C   0  0  0  0  0  0  0  0  0  0  0  0
  -19.3133  -29.8114   21.1992 C   0  0  0  0  0  0  0  0  0  0  0  0
  -33.9116  -22.7568   23.7366 C   0  0  0  0  0  0  0  0  0  0  0  0
  -23.0573  -30.1922   24.4660 C   0  0  1  0  0  0  0  0  0  0  0  0
  -19.3513  -30.1799   23.6693 C   0  0  2  0  0  0  0  0  0  0  0  0
  -23.5558  -30.3819   25.9265 C   0  0  0  0  0  0  0  0  0  0  0  0
  -25.8127  -11.5006   20.5318 N   0  0  0  0  0  0  0  0  0  0  0  0
  -34.7679  -20.2544   23.7106 N   0  0  0  0  0  0  0  0  0  0  0  0
  -26.2267  -12.4912   19.7234 N   0  0  0  0  0  0  0  0  0  0  0  0
  -24.5120  -30.3421   22.4697 N   0  0  0  0  0  0  0  0  0  0  0  0
  -29.6402  -14.0520   20.4270 N   0  0  0  0  0  0  0  0  0  0  0  0
  -25.4505  -14.1767   18.2513 N   0  0  0  0  0  0  0  0  0  0  0  0
  -21.6461  -12.1982   19.6682 N   0  0  0  0  0  0  0  0  0  0  0  0
  -27.8192  -20.9566   19.8985 N   0  0  0  0  0  0  0  0  0  0  0  0
  -29.3693  -16.3375   19.9117 N   0  0  0  0  0  0  0  0  0  0  0  0
  -27.6290  -32.0203   22.0246 N   0  0  0  0  0  0  0  0  0  0  0  0
  -21.6496  -30.5201   24.2678 N   0  0  0  0  0  0  0  0  0  0  0  0
  -18.6348  -29.5918   22.5024 N   0  3  0  0  0  0  0  0  0  0  0  0
  -22.4973  -13.8428   18.3157 O   0  0  0  0  0  0  0  0  0  0  0  0
  -28.8351  -22.9855   20.5045 O   0  0  0  0  0  0  0  0  0  0  0  0
  -27.1013  -29.8811   22.7780 O   0  0  0  0  0  0  0  0  0  0  0  0
  -23.8230  -32.2627   23.5980 O   0  0  0  0  0  0  0  0  0  0  0  0
  -21.0146  -28.4396   23.4644 O   0  0  0  0  0  0  0  0  0  0  0  0
  -31.4809  -15.3799   19.9879 O   0  0  0  0  0  0  0  0  0  0  0  0
  -34.9143  -21.7928   21.5634 O   0  0  0  0  0  0  0  0  0  0  0  0
  -21.2822   -7.9384   23.2400 O   0  0  0  0  0  0  0  0  0  0  0  0
  -25.3429  -25.0085   19.4840 O   0  0  0  0  0  0  0  0  0  1  0  0
  -22.8181   -2.6429   23.2868 F   0  0  0  0  0  0  0  0  0  0  0  0
  -19.6207   -5.9709   22.2346 F   0  0  0  0  0  0  0  0  0  0  0  0
  -27.4133  -18.2497   19.4316 F   0  0  0  0  0  0  0  0  0  0  0  0
  -34.1767  -21.3078   22.7269 S   0  0  1  0  0  0  0  0  0  0  0  0
  1  2  1  0  0  0  0
  1  5  2  0  0  0  0
  2  6  2  0  0  0  0
  3  8  2  0  0  0  0
  3 17  1  0  0  0  0
  4  9  1  0  0  0  0
  4 17  2  0  0  0  0
  5 20  1  0  0  0  0
  6 22  1  0  0  0  0
  7 10  2  0  0  0  0
  7 21  1  0  0  0  0
  8 26  1  0  0  0  0
  9 26  2  0  0  0  0
 10 27  1  0  0  0  0
 11 12  2  0  0  0  0
 11 28  1  0  0  0  0
 12 29  1  0  0  0  0
 13 18  2  0  0  0  0
 13 24  1  0  0  0  0
 14 18  1  0  0  0  0
 14 25  2  0  0  0  0
 15 23  1  0  0  0  0
 15 27  2  0  0  0  0
 16 29  2  0  0  0  0
 16 30  1  0  0  0  0
 17 32  1  0  0  0  0
 18 34  1  0  0  0  0
 19 32  1  0  0  0  0
 19 33  2  0  0  0  0
 19 38  1  0  0  0  0
 20 22  2  0  0  0  0
 20 44  1  0  0  0  0
 21 23  2  0  0  0  0
 21 45  1  0  0  0  0
 22 53  1  0  0  0  0
 23 46  1  0  0  0  0
 24 31  2  0  0  0  0
 24 72  1  0  0  0  0
 25 31  1  0  0  0  0
 25 73  1  0  0  0  0
 26 84  1  0  0  0  0
 27 85  1  0  0  0  0
 28 30  2  0  0  0  0
 28 84  1  0  0  0  0
 29 86  1  0  0  0  0
 30 87  1  0  0  0  0
 31 88  1  0  0  0  0
 32 65  2  0  0  0  0
 33 67  1  0  0  0  0
 33 70  1  0  0  0  0
 34 37  2  0  0  0  0
 35 36  2  0  0  0  0
 35 39  1  0  0  0  0
 36 85  1  0  0  0  0
 37 89  1  0  0  0  0
 38 71  1  0  0  0  0
 38 77  2  0  0  0  0
 39 72  1  0  0  0  0
 39 78  2  0  0  0  0
 40 54  1  0  0  0  0
 40 74  1  0  0  0  0
 40 79  2  0  0  0  0
 41 62  1  0  0  0  0
 41 68  1  0  0  0  0
 41 80  2  0  0  0  0
 42 63  1  0  0  0  0
 42 75  1  0  0  0  0
 42 81  2  0  0  0  0
 43 69  1  0  0  0  0
 43 73  1  0  0  0  0
 43 82  2  0  0  0  0
 44 47  1  0  0  0  0
 45 54  1  0  0  0  0
 46 68  1  0  0  0  0
 47 49  1  0  0  0  0
 48 50  1  0  0  0  0
 48 51  1  0  0  0  0
 49 53  1  0  0  0  0
 50 55  1  0  0  0  0
 51 69  1  0  0  0  0
 52 55  1  0  0  0  0
 52 69  1  0  0  0  0
 53 74  1  0  0  0  0
 54 68  1  0  0  0  0
 55 67  1  0  0  0  0
 56 63  1  0  0  0  0
 57 64  1  0  0  0  0
 58 64  1  0  0  0  0
 59 64  1  0  0  0  0
 60 76  1  0  0  0  0
 61 89  1  0  0  0  0
 62 64  1  0  0  0  0
 62 75  1  0  0  0  0
 63 76  1  0  0  0  0
 65 67  1  0  0  0  0
 66 89  2  0  0  0  0
 83 89  2  0  0  0  0
M  CHG  1  76   1
M  ISO  4  36 101  43 100  73 100  85 101
M  END
> <Batch ID>
0063

> <Smiles>
CNC(C)C(=O)NC(C(=O)N1Cc2cc([101O:1][101CH:1]=CC(=O)Nc3cc(C=CS(C)(=N)=O)cc([100NH:0][100C:0](=O)N4CCCC(n5nc(-c6ccc(Oc7ccc(F)cc7F)cc6)c(C(N)=O)c5N)C4)c3F)ccc2CC1C(=O)NC1CCCc2ccccc21)C(C)(C)C

> <Shape>
0.296

> <Color>
0.119

> <Negative vol penalty>
0.000

$$$$

  -OEChem-04042323123D

 88 97  0     1  0  0  0  0  0999 V2000
  -38.0019  -33.6689   19.1543 C   0  0  0  0  0  0  0  0  0  0  0  0
  -38.6809  -32.4547   19.1609 C   0  0  0  0  0  0  0  0  0  0  0  0
  -23.0779   -9.8642   19.9437 C   0  0  0  0  0  0  0  0  0  0  0  0
  -23.8350   -9.8782   22.2380 C   0  0  0  0  0  0  0  0  0  0  0  0
  -36.8869  -33.8472   19.9722 C   0  0  0  0  0  0  0  0  0  0  0  0
  -38.2459  -31.4183   19.9862 C   0  0  0  0  0  0  0  0  0  0  0  0
  -37.8555  -24.2698   20.2365 C   0  0  0  0  0  0  0  0  0  0  0  0
  -22.3347   -8.7112   20.1960 C   0  0  0  0  0  0  0  0  0  0  0  0
  -23.0917   -8.7251   22.4903 C   0  0  0  0  0  0  0  0  0  0  0  0
  -38.1944  -23.2010   21.0651 C   0  0  0  0  0  0  0  0  0  0  0  0
  -19.8635   -7.9264   23.0911 C   0  0  0  0  0  0  0  0  0  0  0  0
  -19.1052   -7.8891   24.2612 C   0  0  0  0  0  0  0  0  0  0  0  0
  -36.2088  -23.5961   22.3768 C   0  0  0  0  0  0  0  0  0  0  0  0
  -29.7042  -18.0016   22.1693 C   0  0  0  0  0  0  0  0  0  0  0  0
  -31.9494  -17.1105   22.1225 C   0  0  0  0  0  0  0  0  0  0  0  0
  -20.3472   -5.9547   25.0045 C   0  0  0  0  0  0  0  0  0  0  0  0
  -23.8282  -10.4477   20.9647 C   0  0  0  0  0  0  0  0  0  0  0  0
  -24.1681  -12.9728   20.8381 C   0  0  0  0  0  0  0  0  0  0  0  0
  -36.4322  -32.8092   20.8008 C   0  0  0  0  0  0  0  0  0  0  0  0
  -36.6944  -25.0179   20.4788 C   0  0  0  0  0  0  0  0  0  0  0  0
  -37.1245  -31.5833   20.8169 C   0  0  0  0  0  0  0  0  0  0  0  0
  -35.8561  -24.6723   21.5483 C   0  0  0  0  0  0  0  0  0  0  0  0
  -30.1995  -19.2261   22.6174 C   0  0  0  0  0  0  0  0  0  0  0  0
  -31.5697  -19.3929   22.8181 C   0  0  0  0  0  0  0  0  0  0  0  0
  -32.4447  -18.3350   22.5707 C   0  0  0  0  0  0  0  0  0  0  0  0
  -30.5791  -16.9438   21.9219 C   0  0  0  0  0  0  0  0  0  0  0  0
  -22.3416   -8.1416   21.4693 C   0  0  0  0  0  0  0  0  0  0  0  0
  -37.3725  -22.8658   22.1371 C   0  0  0  0  0  0  0  0  0  0  0  0
  -20.8637   -6.9778   22.8777 C   0  0  0  0  0  0  0  0  0  0  0  0
  -19.3470   -6.9033   25.2179 C   0  0  0  0  0  0  0  0  0  0  0  0
  -21.1056   -5.9920   23.8344 C   0  0  0  0  0  0  0  0  0  0  0  0
  -24.5966  -11.6385   20.7046 C   0  0  0  0  0  0  0  0  0  0  0  0
  -25.2601  -13.7221   20.4741 C   0  0  0  0  0  0  0  0  0  0  0  0
  -35.8658  -19.0299   24.0961 C   0  0  0  0  0  0  0  0  0  0  0  0
  -36.6221  -19.1336   22.9963 C   0  0  0  0  0  0  0  0  0  0  0  0
  -34.3935  -18.8116   24.0311 C   0  0  0  0  0  0  0  0  0  0  0  0
  -22.8967  -13.4887   21.2541 C   0  0  0  0  0  0  0  0  0  0  0  0
  -36.0919  -28.0557   21.1945 C   0  0  0  0  0  0  0  0  0  0  0  0
  -33.0061  -27.1218   20.8368 C   0  0  0  0  0  0  0  0  0  0  0  0
  -30.7246  -24.5840   20.8713 C   0  0  0  0  0  0  0  0  0  0  0  0
  -30.7252  -14.7727   20.6525 C   0  0  0  0  0  0  0  0  0  0  0  0
  -35.2506  -33.0649   21.7025 C   0  0  0  0  0  0  0  0  0  0  0  0
  -36.3289  -26.1511   19.5598 C   0  0  0  0  0  0  0  0  0  0  0  0
  -34.5879  -25.4310   21.8391 C   0  0  0  0  0  0  0  0  0  0  0  0
  -36.0346  -18.9549   21.6330 C   0  0  0  0  0  0  0  0  0  0  0  0
  -34.6303  -31.7906   22.2697 C   0  0  0  0  0  0  0  0  0  0  0  0
  -29.6156  -12.3514   18.2896 C   0  0  0  0  0  0  0  0  0  0  0  0
  -35.7154  -30.8593   22.8008 C   0  0  0  0  0  0  0  0  0  0  0  0
  -28.1757  -12.0598   18.7182 C   0  0  0  0  0  0  0  0  0  0  0  0
  -34.7673  -18.1102   21.6764 C   0  0  0  0  0  0  0  0  0  0  0  0
  -30.5291  -12.5843   19.4917 C   0  0  0  0  0  0  0  0  0  0  0  0
  -28.6199  -13.3110   20.8686 C   0  0  0  0  0  0  0  0  0  0  0  0
  -36.6685  -30.4269   21.6800 C   0  0  1  0  0  0  0  0  0  0  0  0
  -35.3916  -27.1663   20.2065 C   0  0  1  0  0  0  0  0  0  0  0  0
  -27.6486  -13.1337   19.6901 C   0  0  2  0  0  0  0  0  0  0  0  0
  -29.2410  -20.3430   22.8743 C   0  0  0  0  0  0  0  0  0  0  0  0
  -32.0959  -20.7091   23.2989 C   0  0  0  0  0  0  0  0  0  0  0  0
  -28.2729  -24.1351   20.5799 C   0  0  0  0  0  0  0  0  0  0  0  0
  -32.4692  -28.2648   23.6144 C   0  0  0  0  0  0  0  0  0  0  0  0
  -30.3258  -26.9716   23.6559 C   0  0  0  0  0  0  0  0  0  0  0  0
  -30.6826  -28.7361   21.9291 C   0  0  0  0  0  0  0  0  0  0  0  0
  -31.2078  -22.7990   18.5606 C   0  0  0  0  0  0  0  0  0  0  0  0
  -38.0870  -19.4451   23.0640 C   0  0  0  0  0  0  0  0  0  0  0  0
  -38.4350  -20.7497   22.3600 C   0  0  0  0  0  0  0  0  0  1  0  0
  -31.9479  -26.5545   21.7518 C   0  0  1  0  0  0  0  0  0  0  0  0
  -29.6283  -24.2018   19.8934 C   0  0  2  0  0  0  0  0  0  0  0  0
  -31.3812  -27.6185   22.7337 C   0  0  0  0  0  0  0  0  0  0  0  0
  -25.8620  -11.5425   20.2881 N   0  0  0  0  0  0  0  0  0  0  0  0
  -26.2381  -12.8260   20.1567 N   0  0  0  0  0  0  0  0  0  0  0  0
  -33.8655  -18.4851   22.7727 N   0  0  0  0  0  0  0  0  0  0  0  0
  -34.2770  -26.5348   20.9158 N   0  0  0  0  0  0  0  0  0  0  0  0
  -29.9682  -13.6171   20.3656 N   0  0  0  0  0  0  0  0  0  0  0  0
  -25.4695  -15.0536   20.3976 N   0  0  0  0  0  0  0  0  0  0  0  0
  -21.8851  -12.5797   21.5926 N   0  0  0  0  0  0  0  0  0  0  0  0
  -30.0761  -15.6994   21.4676 N   0  0  0  0  0  0  0  0  0  0  0  0
  -36.0578  -29.3976   20.8664 N   0  0  0  0  0  0  0  0  0  0  0  0
  -30.9438  -25.9453   20.8863 N   0  0  0  0  0  0  0  0  0  0  0  0
  -29.9147  -22.8702   19.2887 N   0  3  0  0  0  0  0  0  0  0  0  0
  -33.7671  -18.9082   25.0865 O   0  0  0  0  0  0  0  0  0  0  0  0
  -22.6594  -14.7193   21.3077 O   0  0  0  0  0  0  0  0  0  0  0  0
  -36.6226  -27.5613   22.1823 O   0  0  0  0  0  0  0  0  0  0  0  0
  -32.7140  -28.0468   20.0747 O   0  0  0  0  0  0  0  0  0  0  0  0
  -31.3239  -23.7581   21.5564 O   0  0  0  0  0  0  0  0  0  0  0  0
  -31.8547  -14.9410   20.1858 O   0  0  0  0  0  0  0  0  0  0  0  0
  -21.6162   -7.0166   21.7158 O   0  0  0  0  0  0  0  0  0  0  0  0
  -37.7014  -21.8234   22.9478 O   0  0  0  0  0  0  0  0  0  1  0  0
  -18.6198   -6.8685   26.3422 F   0  0  0  0  0  0  0  0  0  0  0  0
  -22.0659   -5.0787   23.6355 F   0  0  0  0  0  0  0  0  0  0  0  0
  1  2  1  0  0  0  0
  1  5  2  0  0  0  0
  2  6  2  0  0  0  0
  3  8  2  0  0  0  0
  3 17  1  0  0  0  0
  4  9  1  0  0  0  0
  4 17  2  0  0  0  0
  5 19  1  0  0  0  0
  6 21  1  0  0  0  0
  7 10  2  0  0  0  0
  7 20  1  0  0  0  0
  8 27  1  0  0  0  0
  9 27  2  0  0  0  0
 10 28  1  0  0  0  0
 11 12  2  0  0  0  0
 11 29  1  0  0  0  0
 12 30  1  0  0  0  0
 13 22  1  0  0  0  0
 13 28  2  0  0  0  0
 14 23  2  0  0  0  0
 14 26  1  0  0  0  0
 15 25  1  0  0  0  0
 15 26  2  0  0  0  0
 16 30  2  0  0  0  0
 16 31  1  0  0  0  0
 17 32  1  0  0  0  0
 18 32  1  0  0  0  0
 18 33  2  0  0  0  0
 18 37  1  0  0  0  0
 19 21  2  0  0  0  0
 19 42  1  0  0  0  0
 20 22  2  0  0  0  0
 20 43  1  0  0  0  0
 21 53  1  0  0  0  0
 22 44  1  0  0  0  0
 23 24  1  0  0  0  0
 23 56  1  0  0  0  0
 24 25  2  0  0  0  0
 24 57  1  0  0  0  0
 25 70  1  0  0  0  0
 26 75  1  0  0  0  0
 27 85  1  0  0  0  0
 28 86  1  0  0  0  0
 29 31  2  0  0  0  0
 29 85  1  0  0  0  0
 30 87  1  0  0  0  0
 31 88  1  0  0  0  0
 32 68  2  0  0  0  0
 33 69  1  0  0  0  0
 33 73  1  0  0  0  0
 34 35  2  0  0  0  0
 34 36  1  0  0  0  0
 35 45  1  0  0  0  0
 35 63  1  0  0  0  0
 36 70  1  0  0  0  0
 36 79  2  0  0  0  0
 37 74  1  0  0  0  0
 37 80  2  0  0  0  0
 38 54  1  0  0  0  0
 38 76  1  0  0  0  0
 38 81  2  0  0  0  0
 39 65  1  0  0  0  0
 39 71  1  0  0  0  0
 39 82  2  0  0  0  0
 40 66  1  0  0  0  0
 40 77  1  0  0  0  0
 40 83  2  0  0  0  0
 41 72  1  0  0  0  0
 41 75  1  0  0  0  0
 41 84  2  0  0  0  0
 42 46  1  0  0  0  0
 43 54  1  0  0  0  0
 44 71  1  0  0  0  0
 45 50  1  0  0  0  0
 46 48  1  0  0  0  0
 47 49  1  0  0  0  0
 47 51  1  0  0  0  0
 48 53  1  0  0  0  0
 49 55  1  0  0  0  0
 50 70  1  0  0  0  0
 51 72  1  0  0  0  0
 52 55  1  0  0  0  0
 52 72  1  0  0  0  0
 53 76  1  0  0  0  0
 54 71  1  0  0  0  0
 55 69  1  0  0  0  0
 58 66  1  0  0  0  0
 59 67  1  0  0  0  0
 60 67  1  0  0  0  0
 61 67  1  0  0  0  0
 62 78  1  0  0  0  0
 63 64  1  0  0  0  0
 64 86  1  0  0  0  0
 65 67  1  0  0  0  0
 65 77  1  0  0  0  0
 66 78  1  0  0  0  0
 68 69  1  0  0  0  0
M  CHG  1  78   1
M  ISO  4  41 100  64 101  75 100  86 101
M  END
> <Batch ID>
0063

> <Smiles>
CNC(C)C(=O)NC(C(=O)N1Cc2cc([101O:1][101CH2:1]C=C3CCN(c4cc([100NH:0][100C:0](=O)N5CCCC(n6nc(-c7ccc(Oc8ccc(F)cc8F)cc7)c(C(N)=O)c6N)C5)cc(C)c4C)C(=O)C3)ccc2CC1C(=O)NC1CCCc2ccccc21)C(C)(C)C

> <Shape>
0.204

> <Color>
0.192

> <Negative vol penalty>
0.000

$$$$

  -OEChem-04042323122D

  0  0  0     0  0  0  0  0  0999 V2000
M  END
$$$$

  -OEChem-04042323123D

 84 92  0     1  0  0  0  0  0999 V2000
  -29.7139  -21.6754   22.2975 C   0  0  0  0  0  0  0  0  0  0  0  0
  -28.3364  -21.7404   22.1142 C   0  0  0  0  0  0  0  0  0  0  0  0
  -18.0809  -28.8600   23.0911 C   0  0  0  0  0  0  0  0  0  0  0  0
  -30.0838  -27.3418   18.6339 C   0  0  0  0  0  0  0  0  0  0  0  0
  -29.7288  -26.1930   20.7295 C   0  0  0  0  0  0  0  0  0  0  0  0
  -17.7191  -27.5247   22.9140 C   0  0  0  0  0  0  0  0  0  0  0  0
  -30.4155  -20.5368   21.9034 C   0  0  0  0  0  0  0  0  0  0  0  0
  -27.6597  -20.6671   21.5357 C   0  0  0  0  0  0  0  0  0  0  0  0
  -23.3896  -19.5076   23.9988 C   0  0  0  0  0  0  0  0  0  0  0  0
  -19.3960  -29.2630   22.8589 C   0  0  0  0  0  0  0  0  0  0  0  0
  -31.4503  -27.0757   18.7195 C   0  0  0  0  0  0  0  0  0  0  0  0
  -31.0954  -25.9268   20.8150 C   0  0  0  0  0  0  0  0  0  0  0  0
  -22.2810  -20.3211   23.7688 C   0  0  0  0  0  0  0  0  0  0  0  0
  -34.4408  -24.6316   21.4057 C   0  0  0  0  0  0  0  0  0  0  0  0
  -34.8296  -23.3433   21.7726 C   0  0  0  0  0  0  0  0  0  0  0  0
  -21.4035  -18.6809   22.2330 C   0  0  0  0  0  0  0  0  0  0  0  0
  -33.6850  -22.4481   19.8424 C   0  0  0  0  0  0  0  0  0  0  0  0
  -29.2230  -26.9005   19.6390 C   0  0  0  0  0  0  0  0  0  0  0  0
  -18.6723  -26.5921   22.5049 C   0  0  0  0  0  0  0  0  0  0  0  0
  -26.8251  -26.3746   18.9454 C   0  0  0  0  0  0  0  0  0  0  0  0
  -29.7458  -19.4451   21.3287 C   0  0  0  0  0  0  0  0  0  0  0  0
  -23.5191  -18.2775   23.3381 C   0  0  0  0  0  0  0  0  0  0  0  0
  -28.3532  -19.5133   21.1324 C   0  0  0  0  0  0  0  0  0  0  0  0
  -22.5135  -17.8525   22.4582 C   0  0  0  0  0  0  0  0  0  0  0  0
  -20.3492  -28.3305   22.4498 C   0  0  0  0  0  0  0  0  0  0  0  0
  -31.9561  -26.3681   19.8100 C   0  0  0  0  0  0  0  0  0  0  0  0
  -21.2891  -19.9091   22.8836 C   0  0  0  0  0  0  0  0  0  0  0  0
  -33.6740  -24.8282   20.2571 C   0  0  0  0  0  0  0  0  0  0  0  0
  -34.4517  -22.2516   20.9910 C   0  0  0  0  0  0  0  0  0  0  0  0
  -33.2962  -23.7365   19.4755 C   0  0  0  0  0  0  0  0  0  0  0  0
  -19.9874  -26.9951   22.2728 C   0  0  0  0  0  0  0  0  0  0  0  0
  -27.8114  -27.1757   19.5514 C   0  0  0  0  0  0  0  0  0  0  0  0
  -25.6558  -27.0711   19.1301 C   0  0  0  0  0  0  0  0  0  0  0  0
  -18.2819  -25.1715   22.3175 C   0  0  0  0  0  0  0  0  0  0  0  0
  -26.9544  -25.1136   18.2754 C   0  0  0  0  0  0  0  0  0  0  0  0
  -25.6131  -17.0396   21.2921 C   0  0  0  0  0  0  0  0  0  0  0  0
  -23.8574  -14.3470   21.7273 C   0  0  0  0  0  0  0  0  0  0  0  0
  -19.1136  -22.8514   22.4613 C   0  0  0  0  0  0  0  0  0  0  0  0
  -20.8719  -12.9452   22.6039 C   0  0  0  0  0  0  0  0  0  0  0  0
  -22.2051  -30.0308   22.3450 C   0  0  0  0  0  0  0  0  0  0  0  0
  -30.5535  -18.2549   20.8752 C   0  0  0  0  0  0  0  0  0  0  0  0
  -24.7080  -17.3994   23.6174 C   0  0  0  0  0  0  0  0  0  0  0  0
  -22.5951  -16.5315   21.7393 C   0  0  0  0  0  0  0  0  0  0  0  0
  -29.7095  -17.0102   20.6132 C   0  0  0  0  0  0  0  0  0  0  0  0
  -24.8588  -31.7969   20.7588 C   0  0  0  0  0  0  0  0  0  0  0  0
  -28.4780  -17.3647   19.7858 C   0  0  0  0  0  0  0  0  0  0  0  0
  -25.7824  -30.6862   20.2534 C   0  0  0  0  0  0  0  0  0  0  0  0
  -24.2344  -31.4453   22.1080 C   0  0  0  0  0  0  0  0  0  0  0  0
  -24.4732  -29.0364   21.6503 C   0  0  0  0  0  0  0  0  0  0  0  0
  -27.5802  -18.3596   20.5312 C   0  0  1  0  0  0  0  0  0  0  0  0
  -24.9883  -16.3999   22.4995 C   0  0  1  0  0  0  0  0  0  0  0  0
  -25.0750  -29.3169   20.2636 C   0  0  2  0  0  0  0  0  0  0  0  0
  -19.7291  -10.7220   22.8258 C   0  0  0  0  0  0  0  0  0  0  0  0
  -23.5663  -14.1966   18.6937 C   0  0  0  0  0  0  0  0  0  0  0  0
  -21.6865  -12.5764   19.0242 C   0  0  0  0  0  0  0  0  0  0  0  0
  -23.9817  -11.9986   19.8122 C   0  0  0  0  0  0  0  0  0  0  0  0
  -20.4172  -13.3376   25.5019 C   0  0  0  0  0  0  0  0  0  0  0  0
  -20.3970  -22.1109   22.7736 C   0  0  0  0  0  0  0  0  0  1  0  0
  -22.6444  -13.7425   21.0623 C   0  0  1  0  0  0  0  0  0  0  0  0
  -20.5336  -11.7978   23.5386 C   0  0  2  0  0  0  0  0  0  0  0  0
  -22.9688  -13.1543   19.6600 C   0  0  0  0  0  0  0  0  0  0  0  0
  -27.3122  -28.2955   20.0814 N   0  0  0  0  0  0  0  0  0  0  0  0
  -25.9994  -28.2031   19.8088 N   0  0  0  0  0  0  0  0  0  0  0  0
  -23.7800  -15.7114   22.0408 N   0  0  0  0  0  0  0  0  0  0  0  0
  -23.5788  -30.1375   22.0408 N   0  0  0  0  0  0  0  0  0  0  0  0
  -24.3775  -26.8195   18.7764 N   0  0  0  0  0  0  0  0  0  0  0  0
  -28.2283  -24.5379   18.1748 N   0  0  0  0  0  0  0  0  0  0  0  0
  -21.6841  -28.7439   22.2152 N   0  0  0  0  0  0  0  0  0  0  0  0
  -19.2857  -24.2335   22.5526 N   0  0  0  0  0  0  0  0  0  0  0  0
  -26.8101  -17.6799   21.5506 N   0  0  0  0  0  0  0  0  0  0  0  0
  -22.1025  -12.7715   22.0067 N   0  0  0  0  0  0  0  0  0  0  0  0
  -19.7360  -12.2912   24.6968 N   0  3  0  0  0  0  0  0  0  0  0  0
  -17.1252  -24.9060   22.0021 O   0  0  0  0  0  0  0  0  0  0  0  0
  -25.9719  -24.5229   17.7663 O   0  0  0  0  0  0  0  0  0  0  0  0
  -25.0516  -16.9571   20.2060 O   0  0  0  0  0  0  0  0  0  0  0  0
  -24.8346  -13.6333   21.9665 O   0  0  0  0  0  0  0  0  0  0  0  0
  -18.0698  -22.2764   22.1656 O   0  0  0  0  0  0  0  0  0  0  0  0
  -20.1181  -13.8981   22.4190 O   0  0  0  0  0  0  0  0  0  0  0  0
  -21.5339  -31.0140   22.6685 O   0  0  0  0  0  0  0  0  0  0  0  0
  -33.2895  -26.1080   19.8937 O   0  0  0  0  0  0  0  0  0  0  0  0
  -20.2063  -20.7016   22.6569 O   0  0  0  0  0  0  0  0  0  1  0  0
  -34.8264  -21.0146   21.3427 F   0  0  0  0  0  0  0  0  0  0  0  0
  -32.5606  -23.9192   18.3703 F   0  0  0  0  0  0  0  0  0  0  0  0
  -20.9048  -26.0978   21.8806 F   0  0  0  0  0  0  0  0  0  0  0  0
  1  2  1  0  0  0  0
  1  7  2  0  0  0  0
  2  8  2  0  0  0  0
  3  6  2  0  0  0  0
  3 10  1  0  0  0  0
  4 11  2  0  0  0  0
  4 18  1  0  0  0  0
  5 12  1  0  0  0  0
  5 18  2  0  0  0  0
  6 19  1  0  0  0  0
  7 21  1  0  0  0  0
  8 23  1  0  0  0  0
  9 13  2  0  0  0  0
  9 22  1  0  0  0  0
 10 25  2  0  0  0  0
 11 26  1  0  0  0  0
 12 26  2  0  0  0  0
 13 27  1  0  0  0  0
 14 15  2  0  0  0  0
 14 28  1  0  0  0  0
 15 29  1  0  0  0  0
 16 24  1  0  0  0  0
 16 27  2  0  0  0  0
 17 29  2  0  0  0  0
 17 30  1  0  0  0  0
 18 32  1  0  0  0  0
 19 31  2  0  0  0  0
 19 34  1  0  0  0  0
 20 32  1  0  0  0  0
 20 33  2  0  0  0  0
 20 35  1  0  0  0  0
 21 23  2  0  0  0  0
 21 41  1  0  0  0  0
 22 24  2  0  0  0  0
 22 42  1  0  0  0  0
 23 50  1  0  0  0  0
 24 43  1  0  0  0  0
 25 31  1  0  0  0  0
 25 68  1  0  0  0  0
 26 80  1  0  0  0  0
 27 81  1  0  0  0  0
 28 30  2  0  0  0  0
 28 80  1  0  0  0  0
 29 82  1  0  0  0  0
 30 83  1  0  0  0  0
 31 84  1  0  0  0  0
 32 62  2  0  0  0  0
 33 63  1  0  0  0  0
 33 66  1  0  0  0  0
 34 69  1  0  0  0  0
 34 73  2  0  0  0  0
 35 67  1  0  0  0  0
 35 74  2  0  0  0  0
 36 51  1  0  0  0  0
 36 70  1  0  0  0  0
 36 75  2  0  0  0  0
 37 59  1  0  0  0  0
 37 64  1  0  0  0  0
 37 76  2  0  0  0  0
 38 58  1  0  0  0  0
 38 69  1  0  0  0  0
 38 77  2  0  0  0  0
 39 60  1  0  0  0  0
 39 71  1  0  0  0  0
 39 78  2  0  0  0  0
 40 65  1  0  0  0  0
 40 68  1  0  0  0  0
 40 79  2  0  0  0  0
 41 44  1  0  0  0  0
 42 51  1  0  0  0  0
 43 64  1  0  0  0  0
 44 46  1  0  0  0  0
 45 47  1  0  0  0  0
 45 48  1  0  0  0  0
 46 50  1  0  0  0  0
 47 52  1  0  0  0  0
 48 65  1  0  0  0  0
 49 52  1  0  0  0  0
 49 65  1  0  0  0  0
 50 70  1  0  0  0  0
 51 64  1  0  0  0  0
 52 63  1  0  0  0  0
 53 60  1  0  0  0  0
 54 61  1  0  0  0  0
 55 61  1  0  0  0  0
 56 61  1  0  0  0  0
 57 72  1  0  0  0  0
 58 81  1  0  0  0  0
 59 61  1  0  0  0  0
 59 71  1  0  0  0  0
 60 72  1  0  0  0  0
 62 63  1  0  0  0  0
M  CHG  1  72   1
M  ISO  4  40 100  58 101  68 100  81 101
M  END
> <Batch ID>
0063

> <Smiles>
CNC(C)C(=O)NC(C(=O)N1Cc2cc([101O:1][101CH2:1]C(=O)NC(=O)c3cccc([100NH:0][100C:0](=O)N4CCCC(n5nc(-c6ccc(Oc7ccc(F)cc7F)cc6)c(C(N)=O)c5N)C4)c3F)ccc2CC1C(=O)NC1CCCc2ccccc21)C(C)(C)C

> <Shape>
0.234

> <Color>
0.068

> <Negative vol penalty>
0.000

$$$$

  -OEChem-04042323123D

 85 93  0     1  0  0  0  0  0999 V2000
  -28.3899  -32.3506   27.1472 C   0  0  0  0  0  0  0  0  0  0  0  0
  -28.4721  -31.3305   26.2048 C   0  0  0  0  0  0  0  0  0  0  0  0
  -23.2769   -8.7653   23.5141 C   0  0  0  0  0  0  0  0  0  0  0  0
  -24.0097   -9.0535   21.2300 C   0  0  0  0  0  0  0  0  0  0  0  0
  -27.1431  -32.7872   27.5932 C   0  0  0  0  0  0  0  0  0  0  0  0
  -27.3075  -30.7456   25.7087 C   0  0  0  0  0  0  0  0  0  0  0  0
  -27.4224  -30.1491   20.6812 C   0  0  0  0  0  0  0  0  0  0  0  0
  -31.6533  -16.8078   20.6142 C   0  0  0  0  0  0  0  0  0  0  0  0
  -30.5841  -16.2366   21.3043 C   0  0  0  0  0  0  0  0  0  0  0  0
  -22.3939   -7.7662   23.1048 C   0  0  0  0  0  0  0  0  0  0  0  0
  -23.1267   -8.0543   20.8207 C   0  0  0  0  0  0  0  0  0  0  0  0
  -28.1636  -29.0781   20.1839 C   0  0  0  0  0  0  0  0  0  0  0  0
  -20.2065   -4.8892   22.7130 C   0  0  0  0  0  0  0  0  0  0  0  0
  -20.1519   -3.7208   23.4729 C   0  0  0  0  0  0  0  0  0  0  0  0
  -29.3141  -18.2724   21.0216 C   0  0  0  0  0  0  0  0  0  0  0  0
  -26.1325  -27.8042   19.9174 C   0  0  0  0  0  0  0  0  0  0  0  0
  -22.4937   -3.3237   23.0306 C   0  0  0  0  0  0  0  0  0  0  0  0
  -24.0848   -9.4090   22.5767 C   0  0  0  0  0  0  0  0  0  0  0  0
  -30.3833  -18.8436   20.3315 C   0  0  0  0  0  0  0  0  0  0  0  0
  -26.3342  -10.2797   23.4073 C   0  0  0  0  0  0  0  0  0  0  0  0
  -25.9624  -32.2140   27.0952 C   0  0  0  0  0  0  0  0  0  0  0  0
  -26.0296  -30.0516   20.8108 C   0  0  0  0  0  0  0  0  0  0  0  0
  -26.0438  -31.1740   26.1495 C   0  0  0  0  0  0  0  0  0  0  0  0
  -25.3757  -28.8763   20.4143 C   0  0  0  0  0  0  0  0  0  0  0  0
  -31.5529  -18.1113   20.1278 C   0  0  0  0  0  0  0  0  0  0  0  0
  -29.4145  -16.9689   21.5080 C   0  0  0  0  0  0  0  0  0  0  0  0
  -22.3188   -7.4106   21.7581 C   0  0  0  0  0  0  0  0  0  0  0  0
  -27.5190  -27.9043   19.8046 C   0  0  0  0  0  0  0  0  0  0  0  0
  -21.4047   -5.2749   22.1118 C   0  0  0  0  0  0  0  0  0  0  0  0
  -21.2955   -2.9381   23.6318 C   0  0  0  0  0  0  0  0  0  0  0  0
  -22.5482   -4.4921   22.2707 C   0  0  0  0  0  0  0  0  0  0  0  0
  -24.9967  -10.4416   22.9988 C   0  0  0  0  0  0  0  0  0  0  0  0
  -26.7592  -11.5518   23.7032 C   0  0  0  0  0  0  0  0  0  0  0  0
  -30.2504  -20.2219   19.8278 C   0  0  0  0  0  0  0  0  0  0  0  0
  -28.8533  -24.5844   19.5992 C   0  0  0  0  0  0  0  0  0  0  0  0
  -28.1834  -25.6697   19.9936 C   0  0  0  0  0  0  0  0  0  1  0  0
  -27.1219   -9.0861   23.5099 C   0  0  0  0  0  0  0  0  0  0  0  0
  -28.7474  -23.3235   20.3795 C   0  0  0  0  0  0  0  0  0  0  0  0
  -23.9889  -30.1778   23.2447 C   0  0  0  0  0  0  0  0  0  0  0  0
  -21.7690  -30.0598   20.8825 C   0  0  0  0  0  0  0  0  0  0  0  0
  -20.9887  -29.1688   17.6819 C   0  0  0  0  0  0  0  0  0  0  0  0
  -27.0987  -16.9776   22.4994 C   0  0  0  0  0  0  0  0  0  0  0  0
  -24.6389  -32.6867   27.6425 C   0  0  0  0  0  0  0  0  0  0  0  0
  -25.2416  -31.2256   21.3240 C   0  0  0  0  0  0  0  0  0  0  0  0
  -23.8802  -28.7284   20.5146 C   0  0  0  0  0  0  0  0  0  0  0  0
  -23.4435  -32.2714   26.7889 C   0  0  0  0  0  0  0  0  0  0  0  0
  -24.1576  -15.8685   24.1720 C   0  0  0  0  0  0  0  0  0  0  0  0
  -23.5462  -30.7981   26.4072 C   0  0  0  0  0  0  0  0  0  0  0  0
  -24.2238  -14.3444   24.0495 C   0  0  0  0  0  0  0  0  0  0  0  0
  -24.6846  -16.5618   22.9168 C   0  0  0  0  0  0  0  0  0  0  0  0
  -26.0907  -14.6149   22.3677 C   0  0  0  0  0  0  0  0  0  0  0  0
  -24.8025  -30.5316   25.5693 C   0  0  1  0  0  0  0  0  0  0  0  0
  -23.8834  -30.8299   21.8951 C   0  0  1  0  0  0  0  0  0  0  0  0
  -25.6310  -13.8731   23.6334 C   0  0  2  0  0  0  0  0  0  0  0  0
  -32.7129  -18.6988   19.3921 C   0  0  0  0  0  0  0  0  0  0  0  0
  -19.0849  -29.1639   16.0469 C   0  0  0  0  0  0  0  0  0  0  0  0
  -20.5263  -27.6847   22.3401 C   0  0  0  0  0  0  0  0  0  0  0  0
  -19.2696  -27.1445   20.2432 C   0  0  0  0  0  0  0  0  0  0  0  0
  -18.8760  -29.3156   21.4069 C   0  0  0  0  0  0  0  0  0  0  0  0
  -22.4541  -30.9134   15.7930 C   0  0  0  0  0  0  0  0  0  0  0  0
  -21.0417  -28.9562   20.1530 C   0  0  1  0  0  0  0  0  0  0  0  0
  -20.2932  -29.9276   16.5661 C   0  0  2  0  0  0  0  0  0  0  0  0
  -19.9568  -28.2770   21.0356 C   0  0  0  0  0  0  0  0  0  0  0  0
  -24.5984  -11.7161   23.0313 N   0  0  0  0  0  0  0  0  0  0  0  0
  -29.5113  -21.1002   20.4239 N   0  0  0  0  0  0  0  0  0  0  0  0
  -25.6920  -12.3666   23.4637 N   0  0  0  0  0  0  0  0  0  0  0  0
  -23.1545  -29.9018   21.0283 N   0  0  0  0  0  0  0  0  0  0  0  0
  -26.0232  -16.0684   22.5859 N   0  0  0  0  0  0  0  0  0  0  0  0
  -27.9380  -12.0417   24.1424 N   0  0  0  0  0  0  0  0  0  0  0  0
  -26.5297   -7.8632   23.1664 N   0  0  0  0  0  0  0  0  0  0  0  0
  -28.3295  -16.3890   22.2109 N   0  0  0  0  0  0  0  0  0  0  0  0
  -29.5062  -22.3131   19.8231 N   0  0  0  0  0  0  0  0  0  0  0  0
  -24.5999  -30.9638   24.2031 N   0  0  0  0  0  0  0  0  0  0  0  0
  -20.5266  -29.5498   18.9239 N   0  0  0  0  0  0  0  0  0  0  0  0
  -21.2309  -30.1525   15.4298 N   0  3  0  0  0  0  0  0  0  0  0  0
  -28.3105   -9.1016   23.9104 O   0  0  0  0  0  0  0  0  0  0  0  0
  -28.0598  -23.2271   21.3911 O   0  0  0  0  0  0  0  0  0  0  0  0
  -23.5473  -29.0461   23.4051 O   0  0  0  0  0  0  0  0  0  0  0  0
  -21.1323  -31.0299   21.3011 O   0  0  0  0  0  0  0  0  0  0  0  0
  -21.8526  -28.3200   17.4724 O   0  0  0  0  0  0  0  0  0  0  0  0
  -26.9445  -18.1857   22.6958 O   0  0  0  0  0  0  0  0  0  0  0  0
  -21.4574   -6.4355   21.3583 O   0  0  0  0  0  0  0  0  0  0  0  0
  -28.2400  -26.8572   19.3195 O   0  0  0  0  0  0  0  0  0  1  0  0
  -21.2433   -1.8169   24.3628 F   0  0  0  0  0  0  0  0  0  0  0  0
  -23.7024   -4.8581   21.6965 F   0  0  0  0  0  0  0  0  0  0  0  0
  1  2  1  0  0  0  0
  1  5  2  0  0  0  0
  2  6  2  0  0  0  0
  3 10  2  0  0  0  0
  3 18  1  0  0  0  0
  4 11  1  0  0  0  0
  4 18  2  0  0  0  0
  5 21  1  0  0  0  0
  6 23  1  0  0  0  0
  7 12  2  0  0  0  0
  7 22  1  0  0  0  0
  8  9  2  0  0  0  0
  8 25  1  0  0  0  0
  9 26  1  0  0  0  0
 10 27  1  0  0  0  0
 11 27  2  0  0  0  0
 12 28  1  0  0  0  0
 13 14  2  0  0  0  0
 13 29  1  0  0  0  0
 14 30  1  0  0  0  0
 15 19  1  0  0  0  0
 15 26  2  0  0  0  0
 16 24  1  0  0  0  0
 16 28  2  0  0  0  0
 17 30  2  0  0  0  0
 17 31  1  0  0  0  0
 18 32  1  0  0  0  0
 19 25  2  0  0  0  0
 19 34  1  0  0  0  0
 20 32  1  0  0  0  0
 20 33  2  0  0  0  0
 20 37  1  0  0  0  0
 21 23  2  0  0  0  0
 21 43  1  0  0  0  0
 22 24  2  0  0  0  0
 22 44  1  0  0  0  0
 23 52  1  0  0  0  0
 24 45  1  0  0  0  0
 25 55  1  0  0  0  0
 26 71  1  0  0  0  0
 27 82  1  0  0  0  0
 28 83  1  0  0  0  0
 29 31  2  0  0  0  0
 29 82  1  0  0  0  0
 30 84  1  0  0  0  0
 31 85  1  0  0  0  0
 32 64  2  0  0  0  0
 33 66  1  0  0  0  0
 33 69  1  0  0  0  0
 34 65  2  0  0  0  0
 35 36  2  0  0  0  0
 35 38  1  0  0  0  0
 36 83  1  0  0  0  0
 37 70  1  0  0  0  0
 37 76  2  0  0  0  0
 38 72  1  0  0  0  0
 38 77  2  0  0  0  0
 39 53  1  0  0  0  0
 39 73  1  0  0  0  0
 39 78  2  0  0  0  0
 40 61  1  0  0  0  0
 40 67  1  0  0  0  0
 40 79  2  0  0  0  0
 41 62  1  0  0  0  0
 41 74  1  0  0  0  0
 41 80  2  0  0  0  0
 42 68  1  0  0  0  0
 42 71  1  0  0  0  0
 42 81  2  0  0  0  0
 43 46  1  0  0  0  0
 44 53  1  0  0  0  0
 45 67  1  0  0  0  0
 46 48  1  0  0  0  0
 47 49  1  0  0  0  0
 47 50  1  0  0  0  0
 48 52  1  0  0  0  0
 49 54  1  0  0  0  0
 50 68  1  0  0  0  0
 51 54  1  0  0  0  0
 51 68  1  0  0  0  0
 52 73  1  0  0  0  0
 53 67  1  0  0  0  0
 54 66  1  0  0  0  0
 56 62  1  0  0  0  0
 57 63  1  0  0  0  0
 58 63  1  0  0  0  0
 59 63  1  0  0  0  0
 60 75  1  0  0  0  0
 61 63  1  0  0  0  0
 61 74  1  0  0  0  0
 62 75  1  0  0  0  0
 64 66  1  0  0  0  0
 65 72  1  0  0  0  0
M  CHG  1  75   1
M  ISO  4  36 101  42 100  71 100  83 101
M  END
> <Batch ID>
0063

> <Smiles>
CNC(C)C(=O)NC(C(=O)N1Cc2cc([101O:1][101CH:1]=CC(=O)NN=Cc3cc([100NH:0][100C:0](=O)N4CCCC(n5nc(-c6ccc(Oc7ccc(F)cc7F)cc6)c(C(N)=O)c5N)C4)ccc3C)ccc2CC1C(=O)NC1CCCc2ccccc21)C(C)(C)C

> <Shape>
0.267

> <Color>
0.084

> <Negative vol penalty>
0.000

$$$$

  -OEChem-04042323123D

 85 94  0     1  0  0  0  0  0999 V2000
  -16.6575  -29.5413   24.1127 C   0  0  0  0  0  0  0  0  0  0  0  0
  -16.8535  -28.6043   23.1045 C   0  0  0  0  0  0  0  0  0  0  0  0
  -24.2931  -14.4721   20.4132 C   0  0  0  0  0  0  0  0  0  0  0  0
  -26.1950  -14.5548   21.9008 C   0  0  0  0  0  0  0  0  0  0  0  0
  -17.7012  -30.3846   24.4879 C   0  0  0  0  0  0  0  0  0  0  0  0
  -18.0968  -28.5020   22.4795 C   0  0  0  0  0  0  0  0  0  0  0  0
  -25.0669  -26.0517   18.6304 C   0  0  0  0  0  0  0  0  0  0  0  0
  -24.4653  -13.0954   20.2696 C   0  0  0  0  0  0  0  0  0  0  0  0
  -26.3671  -13.1780   21.7573 C   0  0  0  0  0  0  0  0  0  0  0  0
  -26.4154  -26.3899   18.7344 C   0  0  0  0  0  0  0  0  0  0  0  0
  -23.7706  -10.3001   22.0406 C   0  0  0  0  0  0  0  0  0  0  0  0
  -22.6357   -9.4931   22.1204 C   0  0  0  0  0  0  0  0  0  0  0  0
  -26.1987  -26.4907   21.1348 C   0  0  0  0  0  0  0  0  0  0  0  0
  -31.7047  -23.4807   23.1910 C   0  0  0  0  0  0  0  0  0  0  0  0
  -30.8592  -21.3519   22.4228 C   0  0  0  0  0  0  0  0  0  0  0  0
  -30.2852  -23.3780   21.2386 C   0  0  0  0  0  0  0  0  0  0  0  0
  -23.0467   -8.6933   19.8780 C   0  0  0  0  0  0  0  0  0  0  0  0
  -25.1580  -15.2018   21.2288 C   0  0  0  0  0  0  0  0  0  0  0  0
  -24.1984  -17.2874   22.3410 C   0  0  0  0  0  0  0  0  0  0  0  0
  -18.9539  -30.3004   23.8580 C   0  0  0  0  0  0  0  0  0  0  0  0
  -24.2702  -25.9409   19.7790 C   0  0  0  0  0  0  0  0  0  0  0  0
  -19.1698  -29.3279   22.8605 C   0  0  0  0  0  0  0  0  0  0  0  0
  -24.8409  -26.1484   21.0428 C   0  0  0  0  0  0  0  0  0  0  0  0
  -31.6142  -22.0957   23.3297 C   0  0  0  0  0  0  0  0  0  0  0  0
  -31.0402  -24.1219   22.1455 C   0  0  0  0  0  0  0  0  0  0  0  0
  -30.1947  -21.9930   21.3773 C   0  0  0  0  0  0  0  0  0  0  0  0
  -25.5022  -12.4483   20.9416 C   0  0  0  0  0  0  0  0  0  0  0  0
  -26.9808  -26.6123   19.9866 C   0  0  0  0  0  0  0  0  0  0  0  0
  -24.5435  -10.3038   20.8794 C   0  0  0  0  0  0  0  0  0  0  0  0
  -22.2738   -8.6897   21.0391 C   0  0  0  0  0  0  0  0  0  0  0  0
  -24.1816   -9.5004   19.7981 C   0  0  0  0  0  0  0  0  0  0  0  0
  -24.9811  -16.6241   21.3770 C   0  0  0  0  0  0  0  0  0  0  0  0
  -24.3629  -18.6213   22.0580 C   0  0  0  0  0  0  0  0  0  0  0  0
  -31.8566  -26.4193   22.8414 C   0  0  0  0  0  0  0  0  0  0  0  0
  -23.3947  -16.7462   23.3978 C   0  0  0  0  0  0  0  0  0  0  0  0
  -21.6901  -27.4413   20.8726 C   0  0  0  0  0  0  0  0  0  0  0  0
  -21.8265  -25.1690   23.1835 C   0  0  0  0  0  0  0  0  0  0  0  0
  -24.3884  -23.5776   25.1638 C   0  0  0  0  0  0  0  0  0  0  0  0
  -28.7057  -21.7177   19.3640 C   0  0  0  0  0  0  0  0  0  0  0  0
  -20.0509  -31.2323   24.3087 C   0  0  0  0  0  0  0  0  0  0  0  0
  -22.8236  -25.5491   19.6515 C   0  0  0  0  0  0  0  0  0  0  0  0
  -24.0336  -26.0221   22.3080 C   0  0  0  0  0  0  0  0  0  0  0  0
  -31.6825  -27.8177   22.2977 C   0  0  0  0  0  0  0  0  0  0  0  0
  -21.1837  -31.3516   23.2945 C   0  0  0  0  0  0  0  0  0  0  0  0
  -31.2283  -27.5871   20.8689 C   0  0  0  0  0  0  0  0  0  0  0  0
  -25.2765  -21.5915   18.4142 C   0  0  0  0  0  0  0  0  0  0  0  0
  -21.6385  -29.9670   22.8579 C   0  0  0  0  0  0  0  0  0  0  0  0
  -24.7389  -20.3672   19.1587 C   0  0  0  0  0  0  0  0  0  0  0  0
  -26.7080  -21.3752   17.9264 C   0  0  0  0  0  0  0  0  0  0  0  0
  -27.1204  -19.7212   19.7049 C   0  0  0  0  0  0  0  0  0  0  0  0
  -20.5044  -29.2192   22.1454 C   0  0  1  0  0  0  0  0  0  0  0  0
  -21.9830  -25.9676   20.8539 C   0  0  1  0  0  0  0  0  0  0  0  0
  -25.7046  -19.9157   20.2719 C   0  0  2  0  0  0  0  0  0  0  0  0
  -30.4490  -26.2788   20.9435 C   0  0  2  0  0  0  0  0  0  0  0  0
  -32.3238  -21.4107   24.4486 C   0  0  0  0  0  0  0  0  0  0  0  0
  -24.4489  -21.3091   26.2351 C   0  0  0  0  0  0  0  0  0  0  0  0
  -20.7858  -26.6269   25.6535 C   0  0  0  0  0  0  0  0  0  0  0  0
  -22.2534  -25.1586   27.0529 C   0  0  0  0  0  0  0  0  0  0  0  0
  -20.4325  -24.1512   25.6773 C   0  0  0  0  0  0  0  0  0  0  0  0
  -26.9184  -22.8729   23.7995 C   0  0  0  0  0  0  0  0  0  0  0  0
  -28.9773  -26.5339   21.2765 C   0  0  0  0  0  0  0  0  0  1  0  0
  -22.4974  -25.0534   24.5309 C   0  0  1  0  0  0  0  0  0  0  0  0
  -24.8754  -22.1453   25.0385 C   0  0  2  0  0  0  0  0  0  0  0  0
  -21.5034  -25.2635   25.7078 C   0  0  0  0  0  0  0  0  0  0  0  0
  -25.5968  -17.4671   20.5438 N   0  0  0  0  0  0  0  0  0  0  0  0
  -25.2011  -18.6738   20.9834 N   0  0  0  0  0  0  0  0  0  0  0  0
  -31.1334  -25.5438   22.0037 N   0  0  0  0  0  0  0  0  0  0  0  0
  -22.6220  -25.6431   22.1308 N   0  0  0  0  0  0  0  0  0  0  0  0
  -27.5662  -20.9532   19.0355 N   0  0  0  0  0  0  0  0  0  0  0  0
  -23.8707  -19.7428   22.6260 N   0  0  0  0  0  0  0  0  0  0  0  0
  -23.3372  -15.3539   23.5475 N   0  0  0  0  0  0  0  0  0  0  0  0
  -29.4266  -21.2376   20.4569 N   0  0  0  0  0  0  0  0  0  0  0  0
  -20.9042  -27.8452   21.9349 N   0  0  0  0  0  0  0  0  0  0  0  0
  -23.1714  -23.7596   24.5417 N   0  0  0  0  0  0  0  0  0  0  0  0
  -26.3624  -22.1099   24.9465 N   0  3  0  0  0  0  0  0  0  0  0  0
  -32.5038  -26.1906   23.8531 O   0  0  0  0  0  0  0  0  0  0  0  0
  -22.7337  -17.4751   24.1758 O   0  0  0  0  0  0  0  0  0  0  0  0
  -22.1447  -28.1589   19.9894 O   0  0  0  0  0  0  0  0  0  0  0  0
  -20.6423  -24.8436   23.0677 O   0  0  0  0  0  0  0  0  0  0  0  0
  -25.0223  -24.4472   25.7576 O   0  0  0  0  0  0  0  0  0  0  0  0
  -29.0036  -22.7394   18.7401 O   0  0  0  0  0  0  0  0  0  0  0  0
  -25.6704  -11.1049   20.8019 O   0  0  0  0  0  0  0  0  0  0  0  0
  -28.2967  -26.9432   20.0909 O   0  0  0  0  0  0  0  0  0  1  0  0
  -21.1848   -7.9136   21.1165 F   0  0  0  0  0  0  0  0  0  0  0  0
  -24.9208   -9.4988   18.6804 F   0  0  0  0  0  0  0  0  0  0  0  0
  1  2  1  0  0  0  0
  1  5  2  0  0  0  0
  2  6  2  0  0  0  0
  3  8  2  0  0  0  0
  3 18  1  0  0  0  0
  4  9  1  0  0  0  0
  4 18  2  0  0  0  0
  5 20  1  0  0  0  0
  6 22  1  0  0  0  0
  7 10  2  0  0  0  0
  7 21  1  0  0  0  0
  8 27  1  0  0  0  0
  9 27  2  0  0  0  0
 10 28  1  0  0  0  0
 11 12  2  0  0  0  0
 11 29  1  0  0  0  0
 12 30  1  0  0  0  0
 13 23  1  0  0  0  0
 13 28  2  0  0  0  0
 14 24  2  0  0  0  0
 14 25  1  0  0  0  0
 15 24  1  0  0  0  0
 15 26  2  0  0  0  0
 16 25  2  0  0  0  0
 16 26  1  0  0  0  0
 17 30  2  0  0  0  0
 17 31  1  0  0  0  0
 18 32  1  0  0  0  0
 19 32  1  0  0  0  0
 19 33  2  0  0  0  0
 19 35  1  0  0  0  0
 20 22  2  0  0  0  0
 20 40  1  0  0  0  0
 21 23  2  0  0  0  0
 21 41  1  0  0  0  0
 22 51  1  0  0  0  0
 23 42  1  0  0  0  0
 24 55  1  0  0  0  0
 25 67  1  0  0  0  0
 26 72  1  0  0  0  0
 27 82  1  0  0  0  0
 28 83  1  0  0  0  0
 29 31  2  0  0  0  0
 29 82  1  0  0  0  0
 30 84  1  0  0  0  0
 31 85  1  0  0  0  0
 32 65  2  0  0  0  0
 33 66  1  0  0  0  0
 33 70  1  0  0  0  0
 34 43  1  0  0  0  0
 34 67  1  0  0  0  0
 34 76  2  0  0  0  0
 35 71  1  0  0  0  0
 35 77  2  0  0  0  0
 36 52  1  0  0  0  0
 36 73  1  0  0  0  0
 36 78  2  0  0  0  0
 37 62  1  0  0  0  0
 37 68  1  0  0  0  0
 37 79  2  0  0  0  0
 38 63  1  0  0  0  0
 38 74  1  0  0  0  0
 38 80  2  0  0  0  0
 39 69  1  0  0  0  0
 39 72  1  0  0  0  0
 39 81  2  0  0  0  0
 40 44  1  0  0  0  0
 41 52  1  0  0  0  0
 42 68  1  0  0  0  0
 43 45  1  0  0  0  0
 44 47  1  0  0  0  0
 45 54  1  0  0  0  0
 46 48  1  0  0  0  0
 46 49  1  0  0  0  0
 47 51  1  0  0  0  0
 48 53  1  0  0  0  0
 49 69  1  0  0  0  0
 50 53  1  0  0  0  0
 50 69  1  0  0  0  0
 51 73  1  0  0  0  0
 52 68  1  0  0  0  0
 53 66  1  0  0  0  0
 54 61  1  0  0  0  0
 54 67  1  0  0  0  0
 56 63  1  0  0  0  0
 57 64  1  0  0  0  0
 58 64  1  0  0  0  0
 59 64  1  0  0  0  0
 60 75  1  0  0  0  0
 61 83  1  0  0  0  0
 62 64  1  0  0  0  0
 62 74  1  0  0  0  0
 63 75  1  0  0  0  0
 65 66  1  0  0  0  0
M  CHG  1  75   1
M  ISO  4  39 100  61 101  72 100  83 101
M  END
> <Batch ID>
0063

> <Smiles>
CNC(C)C(=O)NC(C(=O)N1Cc2cc([101O:1][101CH2:1]C3CCC(=O)N3c3cc(C)cc([100NH:0][100C:0](=O)N4CCCC(n5nc(-c6ccc(Oc7ccc(F)cc7F)cc6)c(C(N)=O)c5N)C4)c3)ccc2CC1C(=O)NC1CCCc2ccccc21)C(C)(C)C

> <Shape>
0.193

> <Color>
0.090

> <Negative vol penalty>
0.000

$$$$

  -OEChem-04042323123D

 84 92  0     1  0  0  0  0  0999 V2000
  -23.9241  -30.0980   13.6485 C   0  0  0  0  0  0  0  0  0  0  0  0
  -25.0312  -29.4342   14.1672 C   0  0  0  0  0  0  0  0  0  0  0  0
  -22.9690  -10.3492   19.9473 C   0  0  0  0  0  0  0  0  0  0  0  0
  -23.7858   -9.8264   22.1601 C   0  0  0  0  0  0  0  0  0  0  0  0
  -23.2523  -31.0421   14.4240 C   0  0  0  0  0  0  0  0  0  0  0  0
  -25.4678  -29.7148   15.4615 C   0  0  0  0  0  0  0  0  0  0  0  0
  -26.5521  -25.4609   18.1486 C   0  0  0  0  0  0  0  0  0  0  0  0
  -22.1117   -9.2504   20.0041 C   0  0  0  0  0  0  0  0  0  0  0  0
  -22.9285   -8.7276   22.2170 C   0  0  0  0  0  0  0  0  0  0  0  0
  -27.7620  -24.8130   17.9036 C   0  0  0  0  0  0  0  0  0  0  0  0
  -22.8435   -5.5691   21.0139 C   0  0  0  0  0  0  0  0  0  0  0  0
  -23.3633   -4.3654   21.4899 C   0  0  0  0  0  0  0  0  0  0  0  0
  -28.7291  -25.9058   19.8242 C   0  0  0  0  0  0  0  0  0  0  0  0
  -21.7366   -4.3693   23.2762 C   0  0  0  0  0  0  0  0  0  0  0  0
  -23.8061  -10.6372   21.0253 C   0  0  0  0  0  0  0  0  0  0  0  0
  -24.4158  -13.0887   21.3804 C   0  0  0  0  0  0  0  0  0  0  0  0
  -23.6751  -31.3274   15.7318 C   0  0  0  0  0  0  0  0  0  0  0  0
  -26.4239  -26.3458   19.2290 C   0  0  0  0  0  0  0  0  0  0  0  0
  -24.8018  -30.6645   16.2547 C   0  0  0  0  0  0  0  0  0  0  0  0
  -27.5151  -26.5599   20.0834 C   0  0  0  0  0  0  0  0  0  0  0  0
  -22.0914   -8.4396   21.1390 C   0  0  0  0  0  0  0  0  0  0  0  0
  -28.8514  -25.0372   18.7401 C   0  0  0  0  0  0  0  0  0  0  0  0
  -21.7702   -6.1729   21.6691 C   0  0  0  0  0  0  0  0  0  0  0  0
  -22.8099   -3.7655   22.6210 C   0  0  0  0  0  0  0  0  0  0  0  0
  -21.2168   -5.5730   22.8002 C   0  0  0  0  0  0  0  0  0  0  0  0
  -24.6924  -11.7718   20.9669 C   0  0  0  0  0  0  0  0  0  0  0  0
  -25.5725  -13.7811   21.1179 C   0  0  0  0  0  0  0  0  0  0  0  0
  -33.9471  -17.0717   17.1160 C   0  0  0  0  0  0  0  0  0  0  0  0
  -33.1951  -15.9783   17.2707 C   0  0  0  0  0  0  0  0  0  0  0  0
  -33.5368  -18.4436   17.2605 C   0  0  0  0  0  0  0  0  0  0  0  0
  -31.7463  -18.1346   18.9482 C   0  0  0  0  0  0  0  0  0  0  0  0
  -31.3538  -16.8551   18.8287 C   0  0  0  0  0  0  0  0  0  0  0  0
  -32.5682  -18.9237   18.0544 C   0  0  0  0  0  0  0  0  0  0  0  0
  -31.7815  -15.9381   17.7233 C   0  0  0  0  0  0  0  0  0  0  0  0
  -31.1547  -22.3269   18.2996 C   0  0  0  0  0  0  0  0  0  0  0  0
  -30.0472  -23.0391   18.5195 C   0  0  0  0  0  0  0  0  0  1  0  0
  -23.2201  -13.6371   21.9508 C   0  0  0  0  0  0  0  0  0  0  0  0
  -31.1004  -20.8398   18.3321 C   0  0  0  0  0  0  0  0  0  0  0  0
  -25.7348  -29.4476   19.6164 C   0  0  0  0  0  0  0  0  0  0  0  0
  -25.8345  -28.5357   22.8121 C   0  0  0  0  0  0  0  0  0  0  0  0
  -24.3783  -31.5044   23.6524 C   0  0  0  0  0  0  0  0  0  0  0  0
  -29.6883  -15.0076   17.6279 C   0  0  0  0  0  0  0  0  0  0  0  0
  -22.9455  -32.3901   16.5150 C   0  0  0  0  0  0  0  0  0  0  0  0
  -25.1006  -27.0116   19.4937 C   0  0  0  0  0  0  0  0  0  0  0  0
  -27.4274  -27.4966   21.2579 C   0  0  0  0  0  0  0  0  0  0  0  0
  -23.2455  -32.3577   18.0114 C   0  0  0  0  0  0  0  0  0  0  0  0
  -30.1792  -12.1548   19.8386 C   0  0  0  0  0  0  0  0  0  0  0  0
  -24.7463  -32.2304   18.2524 C   0  0  0  0  0  0  0  0  0  0  0  0
  -28.7573  -11.8905   20.3327 C   0  0  0  0  0  0  0  0  0  0  0  0
  -30.1895  -12.6420   18.3924 C   0  0  0  0  0  0  0  0  0  0  0  0
  -27.9109  -13.5867   18.6532 C   0  0  0  0  0  0  0  0  0  0  0  0
  -25.2908  -30.9236   17.6632 C   0  0  1  0  0  0  0  0  0  0  0  0
  -25.2090  -28.2583   20.3692 C   0  0  1  0  0  0  0  0  0  0  0  0
  -27.8605  -13.1226   20.1185 C   0  0  1  0  0  0  0  0  0  0  0  0
  -30.4393  -16.2414   19.8558 C   0  0  0  0  0  0  0  0  0  0  0  0
  -23.3550  -32.7156   25.5974 C   0  0  0  0  0  0  0  0  0  0  0  0
  -23.3121  -26.8429   22.5347 C   0  0  0  0  0  0  0  0  0  0  0  0
  -22.0598  -28.6360   23.7533 C   0  0  0  0  0  0  0  0  0  0  0  0
  -23.9232  -27.4269   24.8884 C   0  0  0  0  0  0  0  0  0  0  0  0
  -26.4006  -33.6613   23.5224 C   0  0  0  0  0  0  0  0  0  0  0  0
  -24.4570  -29.0953   23.0654 C   0  0  1  0  0  0  0  0  0  0  0  0
  -24.6283  -32.4580   24.8067 C   0  0  2  0  0  0  0  0  0  0  0  0
  -23.4524  -28.0063   23.5366 C   0  0  0  0  0  0  0  0  0  0  0  0
  -25.9279  -11.6334   20.4787 N   0  0  0  0  0  0  0  0  0  0  0  0
  -31.0049  -15.0476   17.2087 N   0  0  0  0  0  0  0  0  0  0  0  0
  -26.4379  -12.8723   20.5836 N   0  0  0  0  0  0  0  0  0  0  0  0
  -26.0948  -28.0545   21.5226 N   0  0  0  0  0  0  0  0  0  0  0  0
  -29.2950  -13.7919   18.2177 N   0  0  0  0  0  0  0  0  0  0  0  0
  -25.9237  -15.0726   21.2942 N   0  0  0  0  0  0  0  0  0  0  0  0
  -22.1251  -12.7859   22.1531 N   0  0  0  0  0  0  0  0  0  0  0  0
  -32.3422  -20.2767   18.0821 N   0  0  0  0  0  0  0  0  0  0  0  0
  -24.9671  -29.8070   18.5252 N   0  0  0  0  0  0  0  0  0  0  0  0
  -24.6304  -30.1960   24.0071 N   0  0  0  0  0  0  0  0  0  0  0  0
  -25.1385  -33.7631   24.2993 N   0  3  0  0  0  0  0  0  0  0  0  0
  -23.1199  -14.8495   22.2564 O   0  0  0  0  0  0  0  0  0  0  0  0
  -30.0614  -20.2267   18.5565 O   0  0  0  0  0  0  0  0  0  0  0  0
  -26.7603  -29.9992   19.9983 O   0  0  0  0  0  0  0  0  0  0  0  0
  -26.6565  -28.5175   23.7325 O   0  0  0  0  0  0  0  0  0  0  0  0
  -23.9941  -31.8819   22.5477 O   0  0  0  0  0  0  0  0  0  0  0  0
  -28.8988  -15.9471   17.5029 O   0  0  0  0  0  0  0  0  0  0  0  0
  -21.2548   -7.3675   21.1949 O   0  0  0  0  0  0  0  0  0  0  0  0
  -30.0334  -24.4056   18.5036 O   0  0  0  0  0  0  0  0  0  1  0  0
  -23.3082   -2.6088   23.0770 F   0  0  0  0  0  0  0  0  0  0  0  0
  -20.1849   -6.1477   23.4332 F   0  0  0  0  0  0  0  0  0  0  0  0
  1  2  1  0  0  0  0
  1  5  2  0  0  0  0
  2  6  2  0  0  0  0
  3  8  2  0  0  0  0
  3 15  1  0  0  0  0
  4  9  1  0  0  0  0
  4 15  2  0  0  0  0
  5 17  1  0  0  0  0
  6 19  1  0  0  0  0
  7 10  2  0  0  0  0
  7 18  1  0  0  0  0
  8 21  1  0  0  0  0
  9 21  2  0  0  0  0
 10 22  1  0  0  0  0
 11 12  2  0  0  0  0
 11 23  1  0  0  0  0
 12 24  1  0  0  0  0
 13 20  1  0  0  0  0
 13 22  2  0  0  0  0
 14 24  2  0  0  0  0
 14 25  1  0  0  0  0
 15 26  1  0  0  0  0
 16 26  1  0  0  0  0
 16 27  2  0  0  0  0
 16 37  1  0  0  0  0
 17 19  2  0  0  0  0
 17 43  1  0  0  0  0
 18 20  2  0  0  0  0
 18 44  1  0  0  0  0
 19 52  1  0  0  0  0
 20 45  1  0  0  0  0
 21 81  1  0  0  0  0
 22 82  1  0  0  0  0
 23 25  2  0  0  0  0
 23 81  1  0  0  0  0
 24 83  1  0  0  0  0
 25 84  1  0  0  0  0
 26 64  2  0  0  0  0
 27 66  1  0  0  0  0
 27 69  1  0  0  0  0
 28 29  2  0  0  0  0
 28 30  1  0  0  0  0
 29 34  1  0  0  0  0
 30 33  2  0  0  0  0
 31 32  2  0  0  0  0
 31 33  1  0  0  0  0
 32 34  1  0  0  0  0
 32 55  1  0  0  0  0
 33 71  1  0  0  0  0
 34 65  2  0  0  0  0
 35 36  2  0  0  0  0
 35 38  1  0  0  0  0
 36 82  1  0  0  0  0
 37 70  1  0  0  0  0
 37 75  2  0  0  0  0
 38 71  1  0  0  0  0
 38 76  2  0  0  0  0
 39 53  1  0  0  0  0
 39 72  1  0  0  0  0
 39 77  2  0  0  0  0
 40 61  1  0  0  0  0
 40 67  1  0  0  0  0
 40 78  2  0  0  0  0
 41 62  1  0  0  0  0
 41 73  1  0  0  0  0
 41 79  2  0  0  0  0
 42 65  1  0  0  0  0
 42 68  1  0  0  0  0
 42 80  2  0  0  0  0
 43 46  1  0  0  0  0
 44 53  1  0  0  0  0
 45 67  1  0  0  0  0
 46 48  1  0  0  0  0
 47 49  1  0  0  0  0
 47 50  1  0  0  0  0
 48 52  1  0  0  0  0
 49 54  1  0  0  0  0
 50 68  1  0  0  0  0
 51 54  1  0  0  0  0
 51 68  1  0  0  0  0
 52 72  1  0  0  0  0
 53 67  1  0  0  0  0
 54 66  1  0  0  0  0
 56 62  1  0  0  0  0
 57 63  1  0  0  0  0
 58 63  1  0  0  0  0
 59 63  1  0  0  0  0
 60 74  1  0  0  0  0
 61 63  1  0  0  0  0
 61 73  1  0  0  0  0
 62 74  1  0  0  0  0
 64 66  1  0  0  0  0
M  CHG  1  74   1
M  ISO  4  36 101  42 100  65 100  82 101
M  END
> <Batch ID>
0063

> <Smiles>
CNC(C)C(=O)NC(C(=O)N1Cc2cc([101O:1][101CH:1]=CC(=O)N=c3cccc([100NH:0][100C:0](=O)N4CCCC(n5nc(-c6ccc(Oc7ccc(F)cc7F)cc6)c(C(N)=O)c5N)C4)c(C)c3)ccc2CC1C(=O)NC1CCCc2ccccc21)C(C)(C)C

> <Shape>
0.279

> <Color>
0.155

> <Negative vol penalty>
0.000

$$$$

  -OEChem-04042323123D

 87 96  0     1  0  0  0  0  0999 V2000
  -13.0479  -21.4611   25.6887 C   0  0  0  0  0  0  0  0  0  0  0  0
  -13.5054  -22.7544   25.4577 C   0  0  0  0  0  0  0  0  0  0  0  0
  -27.0449  -17.3972   19.4607 C   0  0  0  0  0  0  0  0  0  0  0  0
  -28.5917  -17.6061   21.3048 C   0  0  0  0  0  0  0  0  0  0  0  0
  -13.9593  -20.4303   25.9140 C   0  0  0  0  0  0  0  0  0  0  0  0
  -14.8747  -23.0179   25.4530 C   0  0  0  0  0  0  0  0  0  0  0  0
  -19.7354  -27.2465   22.3210 C   0  0  0  0  0  0  0  0  0  0  0  0
  -24.0381  -26.3969   18.1239 C   0  0  0  0  0  0  0  0  0  0  0  0
  -25.2090  -25.6407   18.1758 C   0  0  0  0  0  0  0  0  0  0  0  0
  -26.3457  -16.4126   20.1587 C   0  0  0  0  0  0  0  0  0  0  0  0
  -27.8924  -16.6215   22.0029 C   0  0  0  0  0  0  0  0  0  0  0  0
  -20.7682  -28.1248   22.6462 C   0  0  0  0  0  0  0  0  0  0  0  0
  -26.6877  -13.1177   20.8302 C   0  0  0  0  0  0  0  0  0  0  0  0
  -26.3133  -11.9705   20.1306 C   0  0  0  0  0  0  0  0  0  0  0  0
  -22.2523  -26.2507   22.9687 C   0  0  0  0  0  0  0  0  0  0  0  0
  -26.2116  -27.2924   19.6261 C   0  0  0  0  0  0  0  0  0  0  0  0
  -23.9912  -12.4386   20.6059 C   0  0  0  0  0  0  0  0  0  0  0  0
  -28.1680  -17.9939   20.0337 C   0  0  0  0  0  0  0  0  0  0  0  0
  -29.5242  -18.8786   18.0625 C   0  0  0  0  0  0  0  0  0  0  0  0
  -15.3407  -20.6795   25.9025 C   0  0  0  0  0  0  0  0  0  0  0  0
  -19.9508  -25.8609   22.3279 C   0  0  0  0  0  0  0  0  0  0  0  0
  -15.8054  -21.9898   25.6797 C   0  0  0  0  0  0  0  0  0  0  0  0
  -21.2214  -25.3570   22.6407 C   0  0  0  0  0  0  0  0  0  0  0  0
  -23.9540  -27.6010   18.8232 C   0  0  0  0  0  0  0  0  0  0  0  0
  -25.0407  -28.0487   19.5743 C   0  0  0  0  0  0  0  0  0  0  0  0
  -26.2957  -26.0884   18.9269 C   0  0  0  0  0  0  0  0  0  0  0  0
  -26.7694  -16.0248   21.4298 C   0  0  0  0  0  0  0  0  0  0  0  0
  -22.0261  -27.6269   22.9729 C   0  0  0  0  0  0  0  0  0  0  0  0
  -25.7139  -13.9253   21.4178 C   0  0  0  0  0  0  0  0  0  0  0  0
  -24.9650  -11.6310   20.0184 C   0  0  0  0  0  0  0  0  0  0  0  0
  -24.3656  -13.5857   21.3056 C   0  0  0  0  0  0  0  0  0  0  0  0
  -28.8910  -19.0106   19.3129 C   0  0  0  0  0  0  0  0  0  0  0  0
  -30.0626  -20.1182   17.8177 C   0  0  0  0  0  0  0  0  0  0  0  0
  -24.6564  -31.7125   20.5390 C   0  0  0  0  0  0  0  0  0  0  0  0
  -24.4956  -31.6587   21.8742 C   0  0  0  0  0  0  0  0  0  0  0  0
  -24.7439  -30.5120   19.6580 C   0  0  0  0  0  0  0  0  0  0  0  0
  -29.6172  -17.7375   17.1994 C   0  0  0  0  0  0  0  0  0  0  0  0
  -18.7512  -23.4124   23.9618 C   0  0  0  0  0  0  0  0  0  0  0  0
  -20.5523  -21.6633   21.9077 C   0  0  0  0  0  0  0  0  0  0  0  0
  -23.2384  -21.5228   19.8073 C   0  0  0  0  0  0  0  0  0  0  0  0
  -28.6547  -25.6198   19.6764 C   0  0  0  0  0  0  0  0  0  0  0  0
  -16.2860  -19.5421   26.1980 C   0  0  0  0  0  0  0  0  0  0  0  0
  -18.8335  -24.9279   21.9487 C   0  0  0  0  0  0  0  0  0  0  0  0
  -21.5098  -23.8788   22.6429 C   0  0  0  0  0  0  0  0  0  0  0  0
  -17.7319  -19.8339   25.8049 C   0  0  0  0  0  0  0  0  0  0  0  0
  -31.7823  -23.9686   20.0873 C   0  0  0  0  0  0  0  0  0  0  0  0
  -18.1471  -21.2200   26.2878 C   0  0  0  0  0  0  0  0  0  0  0  0
  -31.4547  -22.4986   19.8156 C   0  0  0  0  0  0  0  0  0  0  0  0
  -30.6464  -24.6761   20.8242 C   0  0  0  0  0  0  0  0  0  0  0  0
  -25.3058  -29.2860   21.7316 C   0  0  0  0  0  0  0  0  0  0  0  0
  -28.9981  -23.0827   19.9223 C   0  0  0  0  0  0  0  0  0  0  0  0
  -17.2839  -22.3106   25.6422 C   0  0  1  0  0  0  0  0  0  0  0  0
  -24.4531  -30.2831   22.5316 C   0  0  2  0  0  0  0  0  0  0  0  0
  -19.0267  -23.5141   22.4882 C   0  0  1  0  0  0  0  0  0  0  0  0
  -30.0856  -22.3448   19.1244 C   0  0  2  0  0  0  0  0  0  0  0  0
  -22.6873  -28.3903   18.7495 C   0  0  0  0  0  0  0  0  0  0  0  0
  -24.8136  -20.5695   18.1022 C   0  0  0  0  0  0  0  0  0  0  0  0
  -21.7996  -20.3166   24.3450 C   0  0  0  0  0  0  0  0  0  0  0  0
  -23.6382  -19.4899   22.8604 C   0  0  0  0  0  0  0  0  0  0  0  0
  -21.2856  -18.7704   22.4477 C   0  0  0  0  0  0  0  0  0  0  0  0
  -21.6071  -22.5441   17.5591 C   0  0  0  0  0  0  0  0  0  0  0  0
  -23.0106  -29.7721   22.6821 C   0  0  0  0  0  0  0  0  0  1  0  0
  -21.9695  -21.1432   21.9049 C   0  0  1  0  0  0  0  0  0  0  0  0
  -23.3829  -20.9970   18.3906 C   0  0  2  0  0  0  0  0  0  0  0  0
  -22.1676  -19.9578   22.8914 C   0  0  0  0  0  0  0  0  0  0  0  0
  -29.0151  -20.2372   19.8267 N   0  0  0  0  0  0  0  0  0  0  0  0
  -29.7324  -20.8873   18.8946 N   0  0  0  0  0  0  0  0  0  0  0  0
  -24.9734  -29.2899   20.3035 N   0  0  0  0  0  0  0  0  0  0  0  0
  -20.3832  -23.0068   22.2714 N   0  0  0  0  0  0  0  0  0  0  0  0
  -29.3818  -24.4908   20.1093 N   0  0  0  0  0  0  0  0  0  0  0  0
  -30.7817  -20.6144   16.7885 N   0  0  0  0  0  0  0  0  0  0  0  0
  -30.7019  -16.8646   17.3605 N   0  0  0  0  0  0  0  0  0  0  0  0
  -27.4850  -25.3198   18.9792 N   0  0  0  0  0  0  0  0  0  0  0  0
  -17.7144  -22.5572   24.2827 N   0  0  0  0  0  0  0  0  0  0  0  0
  -22.2845  -20.8242   20.5166 N   0  0  0  0  0  0  0  0  0  0  0  0
  -22.9990  -22.0481   17.4063 N   0  3  0  0  0  0  0  0  0  0  0  0
  -24.3909  -32.5953   22.7144 O   0  5  0  0  0  0  0  0  0  0  0  0
  -24.6529  -30.6979   18.4449 O   0  0  0  0  0  0  0  0  0  0  0  0
  -28.7726  -17.5079   16.3008 O   0  0  0  0  0  0  0  0  0  0  0  0
  -19.4301  -24.0607   24.7495 O   0  0  0  0  0  0  0  0  0  0  0  0
  -19.6301  -20.9075   21.5917 O   0  0  0  0  0  0  0  0  0  0  0  0
  -23.9077  -22.4573   20.2425 O   0  0  0  0  0  0  0  0  0  0  0  0
  -29.0553  -26.7681   19.8835 O   0  0  0  0  0  0  0  0  0  0  0  0
  -26.0872  -15.0642   22.1113 O   0  0  0  0  0  0  0  0  0  0  0  0
  -23.0357  -28.4819   23.2913 O   0  0  0  0  0  0  0  0  0  1  0  0
  -24.6055  -10.5302   19.3452 F   0  0  0  0  0  0  0  0  0  0  0  0
  -23.4255  -14.3583   21.8669 F   0  0  0  0  0  0  0  0  0  0  0  0
  1  2  1  0  0  0  0
  1  5  2  0  0  0  0
  2  6  2  0  0  0  0
  3 10  2  0  0  0  0
  3 18  1  0  0  0  0
  4 11  1  0  0  0  0
  4 18  2  0  0  0  0
  5 20  1  0  0  0  0
  6 22  1  0  0  0  0
  7 12  2  0  0  0  0
  7 21  1  0  0  0  0
  8  9  2  0  0  0  0
  8 24  1  0  0  0  0
  9 26  1  0  0  0  0
 10 27  1  0  0  0  0
 11 27  2  0  0  0  0
 12 28  1  0  0  0  0
 13 14  2  0  0  0  0
 13 29  1  0  0  0  0
 14 30  1  0  0  0  0
 15 23  1  0  0  0  0
 15 28  2  0  0  0  0
 16 25  1  0  0  0  0
 16 26  2  0  0  0  0
 17 30  2  0  0  0  0
 17 31  1  0  0  0  0
 18 32  1  0  0  0  0
 19 32  1  0  0  0  0
 19 33  2  0  0  0  0
 19 37  1  0  0  0  0
 20 22  2  0  0  0  0
 20 42  1  0  0  0  0
 21 23  2  0  0  0  0
 21 43  1  0  0  0  0
 22 52  1  0  0  0  0
 23 44  1  0  0  0  0
 24 25  2  0  0  0  0
 24 56  1  0  0  0  0
 25 68  1  0  0  0  0
 26 73  1  0  0  0  0
 27 84  1  0  0  0  0
 28 85  1  0  0  0  0
 29 31  2  0  0  0  0
 29 84  1  0  0  0  0
 30 86  1  0  0  0  0
 31 87  1  0  0  0  0
 32 66  2  0  0  0  0
 33 67  1  0  0  0  0
 33 71  1  0  0  0  0
 34 35  2  0  0  0  0
 34 36  1  0  0  0  0
 35 53  1  0  0  0  0
 35 77  1  0  0  0  0
 36 68  1  0  0  0  0
 36 78  2  0  0  0  0
 37 72  1  0  0  0  0
 37 79  2  0  0  0  0
 38 54  1  0  0  0  0
 38 74  1  0  0  0  0
 38 80  2  0  0  0  0
 39 63  1  0  0  0  0
 39 69  1  0  0  0  0
 39 81  2  0  0  0  0
 40 64  1  0  0  0  0
 40 75  1  0  0  0  0
 40 82  2  0  0  0  0
 41 70  1  0  0  0  0
 41 73  1  0  0  0  0
 41 83  2  0  0  0  0
 42 45  1  0  0  0  0
 43 54  1  0  0  0  0
 44 69  1  0  0  0  0
 45 47  1  0  0  0  0
 46 48  1  0  0  0  0
 46 49  1  0  0  0  0
 47 52  1  0  0  0  0
 48 55  1  0  0  0  0
 49 70  1  0  0  0  0
 50 53  1  0  0  0  0
 50 68  1  0  0  0  0
 51 55  1  0  0  0  0
 51 70  1  0  0  0  0
 52 74  1  0  0  0  0
 53 62  1  0  0  0  0
 54 69  1  0  0  0  0
 55 67  1  0  0  0  0
 57 64  1  0  0  0  0
 58 65  1  0  0  0  0
 59 65  1  0  0  0  0
 60 65  1  0  0  0  0
 61 76  1  0  0  0  0
 62 85  1  0  0  0  0
 63 65  1  0  0  0  0
 63 75  1  0  0  0  0
 64 76  1  0  0  0  0
 66 67  1  0  0  0  0
M  CHG  2  76   1  77  -1
M  ISO  4  41 100  62 101  73 100  85 101
M  END
> <Batch ID>
0063

> <Smiles>
CNC(C)C(=O)NC(C(=O)N1Cc2cc([101O:1][101CH2:1]C3CN(c4cc([100NH:0][100C:0](=O)N5CCCC(n6nc(-c7ccc(Oc8ccc(F)cc8F)cc7)c(C(N)=O)c6N)C5)ccc4C)C(=O)CC3=O)ccc2CC1C(=O)NC1CCCc2ccccc21)C(C)(C)C

> <Shape>
0.211

> <Color>
0.081

> <Negative vol penalty>
0.000

$$$$

  -OEChem-04042323123D

 86 95  0     1  0  0  0  0  0999 V2000
  -29.1089  -35.9373   22.7231 C   0  0  0  0  0  0  0  0  0  0  0  0
  -29.2292  -34.5697   22.4982 C   0  0  0  0  0  0  0  0  0  0  0  0
  -26.5195  -12.1985   21.7476 C   0  0  0  0  0  0  0  0  0  0  0  0
  -26.4992  -13.0047   19.4702 C   0  0  0  0  0  0  0  0  0  0  0  0
  -28.0179  -36.4319   23.4366 C   0  0  0  0  0  0  0  0  0  0  0  0
  -28.2591  -33.6957   22.9876 C   0  0  0  0  0  0  0  0  0  0  0  0
  -26.8767  -30.2194   19.5744 C   0  0  0  0  0  0  0  0  0  0  0  0
  -30.3652  -20.6871   16.3358 C   0  0  0  0  0  0  0  0  0  0  0  0
  -30.5928  -19.6813   17.2749 C   0  0  0  0  0  0  0  0  0  0  0  0
  -25.1816  -11.8230   21.6267 C   0  0  0  0  0  0  0  0  0  0  0  0
  -25.1613  -12.6291   19.3492 C   0  0  0  0  0  0  0  0  0  0  0  0
  -27.7388  -29.1413   19.3786 C   0  0  0  0  0  0  0  0  0  0  0  0
  -23.4226   -9.2762   20.2655 C   0  0  0  0  0  0  0  0  0  0  0  0
  -23.0555   -8.0204   20.7491 C   0  0  0  0  0  0  0  0  0  0  0  0
  -26.3402  -27.7742   20.7908 C   0  0  0  0  0  0  0  0  0  0  0  0
  -31.5768  -25.6150   19.2484 C   0  0  0  0  0  0  0  0  0  0  0  0
  -30.9517  -21.3547   18.9802 C   0  0  0  0  0  0  0  0  0  0  0  0
  -21.5075   -9.0636   22.2829 C   0  0  0  0  0  0  0  0  0  0  0  0
  -27.1783  -12.7894   20.6694 C   0  0  0  0  0  0  0  0  0  0  0  0
  -29.6931  -12.3937   20.5060 C   0  0  0  0  0  0  0  0  0  0  0  0
  -27.0288  -35.5645   23.9266 C   0  0  0  0  0  0  0  0  0  0  0  0
  -25.7439  -30.0859   20.3901 C   0  0  0  0  0  0  0  0  0  0  0  0
  -27.1545  -34.1791   23.7094 C   0  0  0  0  0  0  0  0  0  0  0  0
  -25.4640  -28.8514   20.9933 C   0  0  0  0  0  0  0  0  0  0  0  0
  -30.4309  -22.0268   16.7188 C   0  0  0  0  0  0  0  0  0  0  0  0
  -30.2284  -25.8052   18.8574 C   0  0  0  0  0  0  0  0  0  0  0  0
  -30.7241  -22.3606   18.0410 C   0  0  0  0  0  0  0  0  0  0  0  0
  -30.8860  -20.0150   18.5971 C   0  0  0  0  0  0  0  0  0  0  0  0
  -24.5025  -12.0382   20.4274 C   0  0  0  0  0  0  0  0  0  0  0  0
  -27.4722  -27.9193   19.9891 C   0  0  0  0  0  0  0  0  0  0  0  0
  -22.8322  -10.4257   20.7907 C   0  0  0  0  0  0  0  0  0  0  0  0
  -22.0979   -7.9141   21.7578 C   0  0  0  0  0  0  0  0  0  0  0  0
  -21.8746  -10.3194   21.7993 C   0  0  0  0  0  0  0  0  0  0  0  0
  -28.5602  -13.1781   20.7940 C   0  0  0  0  0  0  0  0  0  0  0  0
  -30.7587  -13.2139   20.7860 C   0  0  0  0  0  0  0  0  0  0  0  0
  -31.9010  -24.3030   18.9824 C   0  0  0  0  0  0  0  0  0  0  0  0
  -29.7697  -24.6035   18.3647 C   0  0  0  0  0  0  0  0  0  0  0  0
  -29.7750  -11.0444   20.0281 C   0  0  0  0  0  0  0  0  0  0  0  0
  -24.7448  -31.4490   23.0821 C   0  0  0  0  0  0  0  0  0  0  0  0
  -22.0588  -29.7263   22.4992 C   0  0  0  0  0  0  0  0  0  0  0  0
  -20.6203  -27.0249   20.9893 C   0  0  0  0  0  0  0  0  0  0  0  0
  -31.4198  -19.1514   20.9027 C   0  0  0  0  0  0  0  0  0  0  0  0
  -25.8922  -36.1412   24.7329 C   0  0  0  0  0  0  0  0  0  0  0  0
  -24.8094  -31.2508   20.5697 C   0  0  0  0  0  0  0  0  0  0  0  0
  -24.2501  -28.6504   21.8619 C   0  0  0  0  0  0  0  0  0  0  0  0
  -24.7135  -35.1847   24.8948 C   0  0  0  0  0  0  0  0  0  0  0  0
  -32.0218  -16.8887   23.5850 C   0  0  0  0  0  0  0  0  0  0  0  0
  -25.2039  -33.7950   25.2885 C   0  0  0  0  0  0  0  0  0  0  0  0
  -31.3107  -15.6071   23.1447 C   0  0  0  0  0  0  0  0  0  0  0  0
  -31.2499  -18.1384   23.1654 C   0  0  0  0  0  0  0  0  0  0  0  0
  -30.1951  -16.9246   21.2990 C   0  0  0  0  0  0  0  0  0  0  0  0
  -26.1099  -33.2016   24.2028 C   0  0  1  0  0  0  0  0  0  0  0  0
  -23.9630  -31.1482   21.8348 C   0  0  1  0  0  0  0  0  0  0  0  0
  -30.9677  -15.6405   21.6424 C   0  0  2  0  0  0  0  0  0  0  0  0
  -30.1817  -23.0800   15.6876 C   0  0  0  0  0  0  0  0  0  0  0  0
  -18.4141  -25.8583   20.7260 C   0  0  0  0  0  0  0  0  0  0  0  0
  -22.3240  -28.5932   25.3198 C   0  0  0  0  0  0  0  0  0  0  0  0
  -20.7173  -26.7864   24.6700 C   0  0  0  0  0  0  0  0  0  0  0  0
  -19.9868  -29.1714   24.6433 C   0  0  0  0  0  0  0  0  0  0  0  0
  -20.6301  -27.4198   18.0563 C   0  0  0  0  0  0  0  0  0  0  0  0
  -29.4483  -27.0824   18.9641 C   0  0  0  0  0  0  0  0  0  1  0  0
  -21.5769  -28.3422   22.8612 C   0  0  1  0  0  0  0  0  0  0  0  0
  -19.3658  -26.8924   20.1448 C   0  0  2  0  0  0  0  0  0  0  0  0
  -21.1753  -28.2273   24.3589 C   0  0  0  0  0  0  0  0  0  0  0  0
  -28.8764  -14.4024   21.2240 N   0  0  0  0  0  0  0  0  0  0  0  0
  -30.7948  -23.6976   18.4458 N   0  0  0  0  0  0  0  0  0  0  0  0
  -30.2202  -14.3936   21.2085 N   0  0  0  0  0  0  0  0  0  0  0  0
  -23.3701  -29.8211   22.0121 N   0  0  0  0  0  0  0  0  0  0  0  0
  -30.9641  -18.1028   21.7295 N   0  0  0  0  0  0  0  0  0  0  0  0
  -32.0944  -13.0338   20.7095 N   0  0  0  0  0  0  0  0  0  0  0  0
  -28.5832  -10.3457   19.7922 N   0  0  0  0  0  0  0  0  0  0  0  0
  -31.1171  -18.9928   19.5507 N   0  0  0  0  0  0  0  0  0  0  0  0
  -25.3171  -32.7067   23.0978 N   0  0  0  0  0  0  0  0  0  0  0  0
  -20.5005  -28.0277   21.9281 N   0  0  0  0  0  0  0  0  0  0  0  0
  -19.7171  -26.4800   18.7565 N   0  3  0  0  0  0  0  0  0  0  0  0
  -30.8727  -10.4697   19.8322 O   0  0  0  0  0  0  0  0  0  0  0  0
  -24.8218  -30.6033   23.9656 O   0  0  0  0  0  0  0  0  0  0  0  0
  -21.2973  -30.6869   22.6367 O   0  0  0  0  0  0  0  0  0  0  0  0
  -21.6063  -26.3078   20.8344 O   0  0  0  0  0  0  0  0  0  0  0  0
  -32.0570  -20.1054   21.3564 O   0  0  0  0  0  0  0  0  0  0  0  0
  -33.0372  -23.6422   19.1697 O   0  0  0  0  0  0  0  0  0  0  0  0
  -28.5807  -24.2654   17.8786 O   0  0  0  0  0  0  0  0  0  0  0  0
  -23.1971  -11.6717   20.3090 O   0  0  0  0  0  0  0  0  0  0  0  0
  -28.3124  -26.8656   19.8002 O   0  0  0  0  0  0  0  0  0  1  0  0
  -21.7444   -6.7081   22.2210 F   0  0  0  0  0  0  0  0  0  0  0  0
  -21.3030  -11.4201   22.3069 F   0  0  0  0  0  0  0  0  0  0  0  0
  1  2  1  0  0  0  0
  1  5  2  0  0  0  0
  2  6  2  0  0  0  0
  3 10  2  0  0  0  0
  3 19  1  0  0  0  0
  4 11  1  0  0  0  0
  4 19  2  0  0  0  0
  5 21  1  0  0  0  0
  6 23  1  0  0  0  0
  7 12  2  0  0  0  0
  7 22  1  0  0  0  0
  8  9  2  0  0  0  0
  8 25  1  0  0  0  0
  9 28  1  0  0  0  0
 10 29  1  0  0  0  0
 11 29  2  0  0  0  0
 12 30  1  0  0  0  0
 13 14  2  0  0  0  0
 13 31  1  0  0  0  0
 14 32  1  0  0  0  0
 15 24  1  0  0  0  0
 15 30  2  0  0  0  0
 16 26  1  0  0  0  0
 16 36  2  0  0  0  0
 17 27  1  0  0  0  0
 17 28  2  0  0  0  0
 18 32  2  0  0  0  0
 18 33  1  0  0  0  0
 19 34  1  0  0  0  0
 20 34  1  0  0  0  0
 20 35  2  0  0  0  0
 20 38  1  0  0  0  0
 21 23  2  0  0  0  0
 21 43  1  0  0  0  0
 22 24  2  0  0  0  0
 22 44  1  0  0  0  0
 23 52  1  0  0  0  0
 24 45  1  0  0  0  0
 25 27  2  0  0  0  0
 25 55  1  0  0  0  0
 26 37  2  0  0  0  0
 26 61  1  0  0  0  0
 27 66  1  0  0  0  0
 28 72  1  0  0  0  0
 29 83  1  0  0  0  0
 30 84  1  0  0  0  0
 31 33  2  0  0  0  0
 31 83  1  0  0  0  0
 32 85  1  0  0  0  0
 33 86  1  0  0  0  0
 34 65  2  0  0  0  0
 35 67  1  0  0  0  0
 35 70  1  0  0  0  0
 36 66  1  0  0  0  0
 36 81  1  0  0  0  0
 37 66  1  0  0  0  0
 37 82  1  0  0  0  0
 38 71  1  0  0  0  0
 38 76  2  0  0  0  0
 39 53  1  0  0  0  0
 39 73  1  0  0  0  0
 39 77  2  0  0  0  0
 40 62  1  0  0  0  0
 40 68  1  0  0  0  0
 40 78  2  0  0  0  0
 41 63  1  0  0  0  0
 41 74  1  0  0  0  0
 41 79  2  0  0  0  0
 42 69  1  0  0  0  0
 42 72  1  0  0  0  0
 42 80  2  0  0  0  0
 43 46  1  0  0  0  0
 44 53  1  0  0  0  0
 45 68  1  0  0  0  0
 46 48  1  0  0  0  0
 47 49  1  0  0  0  0
 47 50  1  0  0  0  0
 48 52  1  0  0  0  0
 49 54  1  0  0  0  0
 50 69  1  0  0  0  0
 51 54  1  0  0  0  0
 51 69  1  0  0  0  0
 52 73  1  0  0  0  0
 53 68  1  0  0  0  0
 54 67  1  0  0  0  0
 56 63  1  0  0  0  0
 57 64  1  0  0  0  0
 58 64  1  0  0  0  0
 59 64  1  0  0  0  0
 60 75  1  0  0  0  0
 61 84  1  0  0  0  0
 62 64  1  0  0  0  0
 62 74  1  0  0  0  0
 63 75  1  0  0  0  0
 65 67  1  0  0  0  0
M  CHG  1  75   1
M  ISO  4  42 100  61 101  72 100  84 101
M  END
> <Batch ID>
0063

> <Smiles>
CNC(C)C(=O)NC(C(=O)N1Cc2cc([101O:1][101CH2:1]C3CC(=O)N(c4cc([100NH:0][100C:0](=O)N5CCCC(n6nc(-c7ccc(Oc8ccc(F)cc8F)cc7)c(C(N)=O)c6N)C5)ccc4C)C3=O)ccc2CC1C(=O)NC1CCCc2ccccc21)C(C)(C)C

> <Shape>
0.357

> <Color>
0.070

> <Negative vol penalty>
0.000

$$$$

  -OEChem-04042323123D

 88 97  0     1  0  0  0  0  0999 V2000
  -25.9925  -35.5117   22.8410 C   0  0  0  0  0  0  0  0  0  0  0  0
  -26.5513  -34.2518   22.6517 C   0  0  0  0  0  0  0  0  0  0  0  0
  -21.5454  -10.1325   22.5138 C   0  0  0  0  0  0  0  0  0  0  0  0
  -23.7302  -10.1638   21.4829 C   0  0  0  0  0  0  0  0  0  0  0  0
  -24.7111  -35.6312   23.3774 C   0  0  0  0  0  0  0  0  0  0  0  0
  -25.8293  -33.1107   22.9996 C   0  0  0  0  0  0  0  0  0  0  0  0
  -26.0745  -29.5012   19.4561 C   0  0  0  0  0  0  0  0  0  0  0  0
  -27.1146  -21.2443   19.7603 C   0  0  0  0  0  0  0  0  0  0  0  0
  -25.9965  -20.4124   19.8201 C   0  0  0  0  0  0  0  0  0  0  0  0
  -21.4402   -8.7670   22.2494 C   0  0  0  0  0  0  0  0  0  0  0  0
  -23.6250   -8.7983   21.2185 C   0  0  0  0  0  0  0  0  0  0  0  0
  -27.2405  -28.7387   19.4035 C   0  0  0  0  0  0  0  0  0  0  0  0
  -22.5996   -5.8776   23.5686 C   0  0  0  0  0  0  0  0  0  0  0  0
  -22.1299   -5.0536   24.5913 C   0  0  0  0  0  0  0  0  0  0  0  0
  -26.1287  -26.9668   20.6049 C   0  0  0  0  0  0  0  0  0  0  0  0
  -20.2806   -4.3729   23.1935 C   0  0  0  0  0  0  0  0  0  0  0  0
  -22.6904  -10.8309   22.1306 C   0  0  0  0  0  0  0  0  0  0  0  0
  -23.3352  -12.8458   23.5561 C   0  0  0  0  0  0  0  0  0  0  0  0
  -23.9693  -34.4907   23.7231 C   0  0  0  0  0  0  0  0  0  0  0  0
  -24.9282  -29.0058   20.0941 C   0  0  0  0  0  0  0  0  0  0  0  0
  -24.5374  -33.2151   23.5423 C   0  0  0  0  0  0  0  0  0  0  0  0
  -24.9486  -27.7239   20.6620 C   0  0  0  0  0  0  0  0  0  0  0  0
  -28.1043  -21.1539   20.7390 C   0  0  0  0  0  0  0  0  0  0  0  0
  -27.9759  -20.2318   21.7777 C   0  0  0  0  0  0  0  0  0  0  0  0
  -26.8578  -19.3999   21.8375 C   0  0  0  0  0  0  0  0  0  0  0  0
  -25.8681  -19.4903   20.8587 C   0  0  0  0  0  0  0  0  0  0  0  0
  -22.4800   -8.0999   21.6017 C   0  0  0  0  0  0  0  0  0  0  0  0
  -27.2686  -27.4725   19.9805 C   0  0  0  0  0  0  0  0  0  0  0  0
  -21.9097   -5.9494   22.3583 C   0  0  0  0  0  0  0  0  0  0  0  0
  -20.9704   -4.3012   24.4038 C   0  0  0  0  0  0  0  0  0  0  0  0
  -20.7503   -5.1970   22.1708 C   0  0  0  0  0  0  0  0  0  0  0  0
  -22.7995  -12.2416   22.4030 C   0  0  0  0  0  0  0  0  0  0  0  0
  -23.2089  -14.1942   23.3274 C   0  0  0  0  0  0  0  0  0  0  0  0
  -29.4076  -22.9352   18.3598 C   0  0  0  0  0  0  0  0  0  0  0  0
  -28.6101  -24.3652   20.2754 C   0  0  0  0  0  0  0  0  0  0  0  0
  -23.8968  -12.2421   24.7291 C   0  0  0  0  0  0  0  0  0  0  0  0
  -23.1822  -29.9119   22.5909 C   0  0  0  0  0  0  0  0  0  0  0  0
  -21.2564  -27.4845   21.6309 C   0  0  0  0  0  0  0  0  0  0  0  0
  -21.6760  -24.1151   20.4109 C   0  0  0  0  0  0  0  0  0  0  0  0
  -23.6616  -18.6332   19.9968 C   0  0  0  0  0  0  0  0  0  0  0  0
  -22.6066  -34.6716   24.3436 C   0  0  0  0  0  0  0  0  0  0  0  0
  -23.6702  -29.8299   20.1189 C   0  0  0  0  0  0  0  0  0  0  0  0
  -23.7386  -27.1380   21.3410 C   0  0  0  0  0  0  0  0  0  0  0  0
  -29.1624  -24.0951   17.4212 C   0  0  0  0  0  0  0  0  0  0  0  0
  -21.7610  -33.4007   24.3374 C   0  0  0  0  0  0  0  0  0  0  0  0
  -29.3012  -25.4279   18.1207 C   0  0  0  0  0  0  0  0  0  0  0  0
  -20.6819  -16.7026   19.7296 C   0  0  0  0  0  0  0  0  0  0  0  0
  -22.5847  -32.2091   24.8154 C   0  0  0  0  0  0  0  0  0  0  0  0
  -21.0113  -15.4196   20.4962 C   0  0  0  0  0  0  0  0  0  0  0  0
  -21.8918  -17.2301   18.9604 C   0  0  0  0  0  0  0  0  0  0  0  0
  -23.4372  -16.1271   20.5301 C   0  0  0  0  0  0  0  0  0  0  0  0
  -23.7759  -31.9529   23.8843 C   0  0  1  0  0  0  0  0  0  0  0  0
  -28.3258  -25.4717   19.2777 C   0  0  2  0  0  0  0  0  0  1  0  0
  -22.7187  -29.4343   21.2438 C   0  0  1  0  0  0  0  0  0  0  0  0
  -22.2671  -15.5934   21.3726 C   0  0  2  0  0  0  0  0  0  0  0  0
  -29.0391  -20.1372   22.8260 C   0  0  0  0  0  0  0  0  0  0  0  0
  -26.7221  -18.4110   22.9530 C   0  0  0  0  0  0  0  0  0  0  0  0
  -20.2048  -22.7205   18.9317 C   0  0  0  0  0  0  0  0  0  0  0  0
  -20.1189  -26.4210   24.2548 C   0  0  0  0  0  0  0  0  0  0  0  0
  -19.9859  -24.1552   23.1980 C   0  0  0  0  0  0  0  0  0  0  0  0
  -18.6602  -26.0477   22.2580 C   0  0  0  0  0  0  0  0  0  0  0  0
  -23.8723  -23.6306   18.4872 C   0  0  0  0  0  0  0  0  0  0  0  0
  -29.2974  -22.0611   20.6509 C   0  0  0  0  0  0  0  0  0  0  0  0
  -21.1670  -26.0079   21.9317 C   0  0  1  0  0  0  0  0  0  0  0  0
  -21.4270  -23.6231   18.9965 C   0  0  2  0  0  0  0  0  0  0  0  0
  -20.0078  -25.6719   22.9119 C   0  0  0  0  0  0  0  0  0  0  0  0
  -22.3651  -13.1331   21.5082 N   0  0  0  0  0  0  0  0  0  0  0  0
  -22.6276  -14.3112   22.0992 N   0  0  0  0  0  0  0  0  0  0  0  0
  -29.0814  -23.1578   19.7129 N   0  0  0  0  0  0  0  0  0  0  0  0
  -22.5345  -27.9851   21.3448 N   0  0  0  0  0  0  0  0  0  0  0  0
  -23.0420  -17.3735   19.8556 N   0  0  0  0  0  0  0  0  0  0  0  0
  -23.5394  -15.2794   24.0592 N   0  0  0  0  0  0  0  0  0  0  0  0
  -23.9498  -10.8434   24.8006 N   0  0  0  0  0  0  0  0  0  0  0  0
  -24.7241  -18.6552   20.8996 N   0  0  0  0  0  0  0  0  0  0  0  0
  -23.3397  -31.2819   22.6785 N   0  0  0  0  0  0  0  0  0  0  0  0
  -21.0729  -25.3335   20.6414 N   0  0  0  0  0  0  0  0  0  0  0  0
  -22.6045  -22.8563   18.5000 N   0  3  0  0  0  0  0  0  0  0  0  0
  -29.8284  -21.8683   17.9067 O   0  0  0  0  0  0  0  0  0  0  0  0
  -28.4129  -24.5355   21.4803 O   0  0  0  0  0  0  0  0  0  0  0  0
  -24.3236  -12.9227   25.6925 O   0  0  0  0  0  0  0  0  0  0  0  0
  -23.3807  -29.0979   23.4852 O   0  0  0  0  0  0  0  0  0  0  0  0
  -20.2291  -28.1673   21.6422 O   0  0  0  0  0  0  0  0  0  0  0  0
  -22.3362  -23.4803   21.2304 O   0  0  0  0  0  0  0  0  0  0  0  0
  -23.2605  -19.6260   19.3839 O   0  0  0  0  0  0  0  0  0  0  0  0
  -22.3777   -6.7674   21.3437 O   0  0  0  0  0  0  0  0  0  0  0  0
  -28.4056  -26.7264   19.9312 O   0  0  0  0  0  0  0  0  0  1  0  0
  -20.5204   -3.5087   25.3854 F   0  0  0  0  0  0  0  0  0  0  0  0
  -20.0839   -5.2609   21.0099 F   0  0  0  0  0  0  0  0  0  0  0  0
  1  2  1  0  0  0  0
  1  5  2  0  0  0  0
  2  6  2  0  0  0  0
  3 10  2  0  0  0  0
  3 17  1  0  0  0  0
  4 11  1  0  0  0  0
  4 17  2  0  0  0  0
  5 19  1  0  0  0  0
  6 21  1  0  0  0  0
  7 12  2  0  0  0  0
  7 20  1  0  0  0  0
  8  9  2  0  0  0  0
  8 23  1  0  0  0  0
  9 26  1  0  0  0  0
 10 27  1  0  0  0  0
 11 27  2  0  0  0  0
 12 28  1  0  0  0  0
 13 14  2  0  0  0  0
 13 29  1  0  0  0  0
 14 30  1  0  0  0  0
 15 22  1  0  0  0  0
 15 28  2  0  0  0  0
 16 30  2  0  0  0  0
 16 31  1  0  0  0  0
 17 32  1  0  0  0  0
 18 32  1  0  0  0  0
 18 33  2  0  0  0  0
 18 36  1  0  0  0  0
 19 21  2  0  0  0  0
 19 41  1  0  0  0  0
 20 22  2  0  0  0  0
 20 42  1  0  0  0  0
 21 52  1  0  0  0  0
 22 43  1  0  0  0  0
 23 24  2  0  0  0  0
 23 63  1  0  0  0  0
 24 25  1  0  0  0  0
 24 56  1  0  0  0  0
 25 26  2  0  0  0  0
 25 57  1  0  0  0  0
 26 74  1  0  0  0  0
 27 85  1  0  0  0  0
 28 86  1  0  0  0  0
 29 31  2  0  0  0  0
 29 85  1  0  0  0  0
 30 87  1  0  0  0  0
 31 88  1  0  0  0  0
 32 67  2  0  0  0  0
 33 68  1  0  0  0  0
 33 72  1  0  0  0  0
 34 44  1  0  0  0  0
 34 69  1  0  0  0  0
 34 78  2  0  0  0  0
 35 53  1  0  0  0  0
 35 69  1  0  0  0  0
 35 79  2  0  0  0  0
 36 73  1  0  0  0  0
 36 80  2  0  0  0  0
 37 54  1  0  0  0  0
 37 75  1  0  0  0  0
 37 81  2  0  0  0  0
 38 64  1  0  0  0  0
 38 70  1  0  0  0  0
 38 82  2  0  0  0  0
 39 65  1  0  0  0  0
 39 76  1  0  0  0  0
 39 83  2  0  0  0  0
 40 71  1  0  0  0  0
 40 74  1  0  0  0  0
 40 84  2  0  0  0  0
 41 45  1  0  0  0  0
 42 54  1  0  0  0  0
 43 70  1  0  0  0  0
 44 46  1  0  0  0  0
 45 48  1  0  0  0  0
 46 53  1  0  0  0  0
 47 49  1  0  0  0  0
 47 50  1  0  0  0  0
 48 52  1  0  0  0  0
 49 55  1  0  0  0  0
 50 71  1  0  0  0  0
 51 55  1  0  0  0  0
 51 71  1  0  0  0  0
 52 75  1  0  0  0  0
 53 86  1  0  0  0  0
 54 70  1  0  0  0  0
 55 68  1  0  0  0  0
 58 65  1  0  0  0  0
 59 66  1  0  0  0  0
 60 66  1  0  0  0  0
 61 66  1  0  0  0  0
 62 77  1  0  0  0  0
 63 69  1  0  0  0  0
 64 66  1  0  0  0  0
 64 76  1  0  0  0  0
 65 77  1  0  0  0  0
 67 68  1  0  0  0  0
M  CHG  1  77   1
M  ISO  4  40 100  53 101  74 100  86 101
M  END
> <Batch ID>
0063

> <Smiles>
CNC(C)C(=O)NC(C(=O)N1Cc2cc([101O:1][101CH:1]3CCC(=O)N(Cc4ccc([100NH:0][100C:0](=O)N5CCCC(n6nc(-c7ccc(Oc8ccc(F)cc8F)cc7)c(C(N)=O)c6N)C5)c(C)c4C)C3=O)ccc2CC1C(=O)NC1CCCc2ccccc21)C(C)(C)C

> <Shape>
0.265

> <Color>
0.095

> <Negative vol penalty>
0.000

$$$$

  -OEChem-04042323123D

 96104  0     1  0  0  0  0  0999 V2000
  -18.1934  -28.8709   19.2289 C   0  0  0  0  0  0  0  0  0  0  0  0
  -19.3333  -28.1881   18.8168 C   0  0  0  0  0  0  0  0  0  0  0  0
  -26.3748  -12.6755   21.1301 C   0  0  0  0  0  0  0  0  0  0  0  0
  -24.6499  -14.2251   20.4517 C   0  0  0  0  0  0  0  0  0  0  0  0
  -17.8780  -28.9440   20.5851 C   0  0  0  0  0  0  0  0  0  0  0  0
  -20.1591  -27.5788   19.7609 C   0  0  0  0  0  0  0  0  0  0  0  0
  -21.5654  -22.9116   18.3879 C   0  0  0  0  0  0  0  0  0  0  0  0
  -25.3994  -11.7373   21.4676 C   0  0  0  0  0  0  0  0  0  0  0  0
  -23.6744  -13.2869   20.7891 C   0  0  0  0  0  0  0  0  0  0  0  0
  -22.5827  -22.8060   17.4404 C   0  0  0  0  0  0  0  0  0  0  0  0
  -23.4130   -9.5217   19.8620 C   0  0  0  0  0  0  0  0  0  0  0  0
  -23.6116   -8.2036   19.4511 C   0  0  0  0  0  0  0  0  0  0  0  0
  -29.4102  -23.7030   19.6467 C   0  0  0  0  0  0  0  0  0  0  0  0
  -29.1810  -22.3746   17.6418 C   0  0  0  0  0  0  0  0  0  0  0  0
  -24.1701  -22.3661   19.2027 C   0  0  0  0  0  0  0  0  0  0  0  0
  -23.5739   -7.4795   21.7557 C   0  0  0  0  0  0  0  0  0  0  0  0
  -26.0001  -13.9194   20.6222 C   0  0  0  0  0  0  0  0  0  0  0  0
  -29.2896  -24.8678   18.8888 C   0  0  0  0  0  0  0  0  0  0  0  0
  -29.0603  -23.5393   16.8838 C   0  0  0  0  0  0  0  0  0  0  0  0
  -27.6398  -15.0473   19.0263 C   0  0  0  0  0  0  0  0  0  0  0  0
  -18.6952  -28.3270   21.5454 C   0  0  0  0  0  0  0  0  0  0  0  0
  -21.8452  -22.7558   19.7531 C   0  0  0  0  0  0  0  0  0  0  0  0
  -19.8551  -27.6448   21.1312 C   0  0  0  0  0  0  0  0  0  0  0  0
  -23.1541  -22.4677   20.1653 C   0  0  0  0  0  0  0  0  0  0  0  0
  -29.1146  -24.7859   17.5074 C   0  0  0  0  0  0  0  0  0  0  0  0
  -29.3560  -22.4564   19.0232 C   0  0  0  0  0  0  0  0  0  0  0  0
  -24.0491  -12.0430   21.2971 C   0  0  0  0  0  0  0  0  0  0  0  0
  -23.8858  -22.5361   17.8480 C   0  0  0  0  0  0  0  0  0  0  0  0
  -23.2949   -9.8187   21.2197 C   0  0  0  0  0  0  0  0  0  0  0  0
  -23.6920   -7.1825   20.3980 C   0  0  0  0  0  0  0  0  0  0  0  0
  -23.3754   -8.7976   22.1666 C   0  0  0  0  0  0  0  0  0  0  0  0
  -27.0073  -14.8892   20.2740 C   0  0  0  0  0  0  0  0  0  0  0  0
  -28.5075  -16.0957   19.2116 C   0  0  0  0  0  0  0  0  0  0  0  0
  -25.5848  -18.8138   14.8618 C   0  0  0  0  0  0  0  0  0  0  0  0
  -26.2562  -19.9169   15.2020 C   0  0  0  0  0  0  0  0  0  0  0  0
  -29.3510  -26.1556   19.5677 C   0  0  0  0  0  0  0  0  0  0  0  0
  -28.8751  -23.4189   15.4101 C   0  0  0  0  0  0  0  0  0  0  0  0
  -27.4590  -14.3123   17.8086 C   0  0  0  0  0  0  0  0  0  0  0  0
  -26.1317  -21.1413   14.3842 C   0  0  0  0  0  0  0  0  0  0  0  0
  -26.9286  -22.3251   14.8543 C   0  0  0  0  0  0  0  0  0  0  0  0
  -21.6172  -24.6211   22.3168 C   0  0  0  0  0  0  0  0  0  0  0  0
  -28.2765  -27.9431   20.6221 C   0  0  0  0  0  0  0  0  0  0  0  0
  -22.4569  -21.9081   23.8841 C   0  0  0  0  0  0  0  0  0  0  0  0
  -23.9771  -18.8544   23.7798 C   0  0  0  0  0  0  0  0  0  0  0  0
  -29.6575  -21.1784   21.1731 C   0  0  0  0  0  0  0  0  0  0  0  0
  -18.3390  -28.4733   23.0036 C   0  0  0  0  0  0  0  0  0  0  0  0
  -20.7319  -22.8463   20.7604 C   0  0  0  0  0  0  0  0  0  0  0  0
  -23.5032  -22.2717   21.6173 C   0  0  0  0  0  0  0  0  0  0  0  0
  -19.0640  -27.4819   23.9102 C   0  0  0  0  0  0  0  0  0  0  0  0
  -29.9665  -18.4550   23.4457 C   0  0  0  0  0  0  0  0  0  0  0  0
  -20.5486  -27.4291   23.5640 C   0  0  0  0  0  0  0  0  0  0  0  0
  -29.2762  -17.2975   22.7205 C   0  0  0  0  0  0  0  0  0  0  0  0
  -29.2597  -19.7853   23.1920 C   0  0  0  0  0  0  0  0  0  0  0  0
  -28.3610  -18.9602   21.0517 C   0  0  0  0  0  0  0  0  0  0  0  0
  -20.7625  -26.9498   22.1231 C   0  0  1  0  0  0  0  0  0  0  0  0
  -21.2233  -23.1790   22.1659 C   0  0  1  0  0  0  0  0  0  0  0  0
  -29.0749  -17.6096   21.2246 C   0  0  2  0  0  0  0  0  0  0  0  0
  -28.9858  -26.0361   16.6941 C   0  0  0  0  0  0  0  0  0  0  0  0
  -30.7106  -26.8393   19.7435 C   0  0  0  0  0  0  0  0  0  0  0  0
  -27.8329  -29.2542   22.7340 C   0  0  0  0  0  0  0  0  0  0  0  0
  -26.0302  -24.4603   13.9695 C   0  0  0  0  0  0  0  0  0  0  0  0
  -24.5379  -16.8826   25.2272 C   0  0  0  0  0  0  0  0  0  0  0  0
  -24.7120  -23.5036   25.1798 C   0  0  0  0  0  0  0  0  0  0  0  0
  -25.7760  -21.3344   25.8358 C   0  0  0  0  0  0  0  0  0  0  0  0
  -23.5234  -21.9352   26.7231 C   0  0  0  0  0  0  0  0  0  0  0  0
  -22.3758  -17.0183   22.0994 C   0  0  0  0  0  0  0  0  0  0  0  0
  -27.7629  -27.9009   22.0498 C   0  0  0  0  0  0  0  0  0  0  0  0
  -24.7435  -23.2054   15.7332 C   0  0  0  0  0  0  0  0  0  1  0  0
  -26.1308  -23.5707   15.2048 C   0  0  1  0  0  0  0  0  0  0  0  0
  -23.7626  -21.2715   24.2953 C   0  0  1  0  0  0  0  0  0  0  0  0
  -23.5274  -17.4882   24.2655 C   0  0  2  0  0  0  0  0  0  0  0  0
  -24.4376  -22.0167   25.4813 C   0  0  0  0  0  0  0  0  0  0  0  0
  -27.4368  -15.7668   21.1847 N   0  0  0  0  0  0  0  0  0  0  0  0
  -28.2440  -26.7096   20.0145 N   0  0  0  0  0  0  0  0  0  0  0  0
  -28.2202  -22.2915   14.9728 N   0  0  0  0  0  0  0  0  0  0  0  0
  -28.3485  -16.4864   20.5087 N   0  0  0  0  0  0  0  0  0  0  0  0
  -22.3811  -22.3761   22.5646 N   0  0  0  0  0  0  0  0  0  0  0  0
  -29.1080  -20.0157   21.7537 N   0  0  0  0  0  0  0  0  0  0  0  0
  -29.3835  -16.7122   18.3901 N   0  0  0  0  0  0  0  0  0  0  0  0
  -26.5267  -13.2659   17.7919 N   0  0  0  0  0  0  0  0  0  0  0  0
  -29.4789  -21.2734   19.7933 N   0  0  0  0  0  0  0  0  0  0  0  0
  -20.6001  -25.5142   22.0387 N   0  0  0  0  0  0  0  0  0  0  0  0
  -23.4663  -19.8682   24.5624 N   0  0  0  0  0  0  0  0  0  0  0  0
  -23.3596  -16.5582   23.1131 N   0  3  0  0  0  0  0  0  0  0  0  0
  -29.3257  -24.2869   14.6693 O   0  0  0  0  0  0  0  0  0  0  0  0
  -28.1170  -14.5649   16.7709 O   0  0  0  0  0  0  0  0  0  0  0  0
  -25.4545  -21.2661   13.3777 O   0  0  0  0  0  0  0  0  0  0  0  0
  -22.7589  -24.9027   22.6615 O   0  0  0  0  0  0  0  0  0  0  0  0
  -28.6286  -28.9846   20.0750 O   0  0  0  0  0  0  0  0  0  0  0  0
  -21.5357  -21.9806   24.7013 O   0  0  0  0  0  0  0  0  0  0  0  0
  -24.7113  -19.0067   22.8060 O   0  0  0  0  0  0  0  0  0  0  0  0
  -30.2670  -22.0138   21.8457 O   0  0  0  0  0  0  0  0  0  0  0  0
  -23.0970  -11.1277   21.6260 O   0  0  0  0  0  0  0  0  0  0  0  0
  -24.8807  -22.4331   16.9253 O   0  0  0  0  0  0  0  0  0  1  0  0
  -23.8812   -5.9166   20.0032 F   0  0  0  0  0  0  0  0  0  0  0  0
  -23.2615   -9.0767   23.4724 F   0  0  0  0  0  0  0  0  0  0  0  0
  1  2  1  0  0  0  0
  1  5  2  0  0  0  0
  2  6  2  0  0  0  0
  3  8  2  0  0  0  0
  3 17  1  0  0  0  0
  4  9  1  0  0  0  0
  4 17  2  0  0  0  0
  5 21  1  0  0  0  0
  6 23  1  0  0  0  0
  7 10  2  0  0  0  0
  7 22  1  0  0  0  0
  8 27  1  0  0  0  0
  9 27  2  0  0  0  0
 10 28  1  0  0  0  0
 11 12  2  0  0  0  0
 11 29  1  0  0  0  0
 12 30  1  0  0  0  0
 13 18  1  0  0  0  0
 13 26  2  0  0  0  0
 14 19  2  0  0  0  0
 14 26  1  0  0  0  0
 15 24  1  0  0  0  0
 15 28  2  0  0  0  0
 16 30  2  0  0  0  0
 16 31  1  0  0  0  0
 17 32  1  0  0  0  0
 18 25  2  0  0  0  0
 18 36  1  0  0  0  0
 19 25  1  0  0  0  0
 19 37  1  0  0  0  0
 20 32  1  0  0  0  0
 20 33  2  0  0  0  0
 20 38  1  0  0  0  0
 21 23  2  0  0  0  0
 21 46  1  0  0  0  0
 22 24  2  0  0  0  0
 22 47  1  0  0  0  0
 23 55  1  0  0  0  0
 24 48  1  0  0  0  0
 25 58  1  0  0  0  0
 26 81  1  0  0  0  0
 27 93  1  0  0  0  0
 28 94  1  0  0  0  0
 29 31  2  0  0  0  0
 29 93  1  0  0  0  0
 30 95  1  0  0  0  0
 31 96  1  0  0  0  0
 32 73  2  0  0  0  0
 33 76  1  0  0  0  0
 33 79  1  0  0  0  0
 34 35  2  0  0  0  0
 35 39  1  0  0  0  0
 36 59  1  0  0  0  0
 36 74  2  0  0  0  0
 37 75  1  0  0  0  0
 37 85  2  0  0  0  0
 38 80  1  0  0  0  0
 38 86  2  0  0  0  0
 39 40  1  0  0  0  0
 39 87  2  0  0  0  0
 40 69  1  0  0  0  0
 40 75  2  0  0  0  0
 41 56  1  0  0  0  0
 41 82  1  0  0  0  0
 41 88  2  0  0  0  0
 42 67  1  0  0  0  0
 42 74  1  0  0  0  0
 42 89  2  0  0  0  0
 43 70  1  0  0  0  0
 43 77  1  0  0  0  0
 43 90  2  0  0  0  0
 44 71  1  0  0  0  0
 44 83  1  0  0  0  0
 44 91  2  0  0  0  0
 45 78  1  0  0  0  0
 45 81  1  0  0  0  0
 45 92  2  0  0  0  0
 46 49  1  0  0  0  0
 47 56  1  0  0  0  0
 48 77  1  0  0  0  0
 49 51  1  0  0  0  0
 50 52  1  0  0  0  0
 50 53  1  0  0  0  0
 51 55  1  0  0  0  0
 52 57  1  0  0  0  0
 53 78  1  0  0  0  0
 54 57  1  0  0  0  0
 54 78  1  0  0  0  0
 55 82  1  0  0  0  0
 56 77  1  0  0  0  0
 57 76  1  0  0  0  0
 60 67  1  0  0  0  0
 61 69  1  0  0  0  0
 62 71  1  0  0  0  0
 63 72  1  0  0  0  0
 64 72  1  0  0  0  0
 65 72  1  0  0  0  0
 66 84  1  0  0  0  0
 68 69  1  0  0  0  0
 68 94  1  0  0  0  0
 70 72  1  0  0  0  0
 70 83  1  0  0  0  0
 71 84  1  0  0  0  0
 73 76  1  0  0  0  0
M  CHG  1  84   1
M  ISO  4  45 100  68 101  81 100  94 101
M  END
> <Batch ID>
0063

> <Smiles>
C=CC(=O)N=C(C)c1cc([100NH:0][100C:0](=O)N2CCCC(n3nc(-c4ccc(Oc5ccc(F)cc5F)cc4)c(C(N)=O)c3N)C2)cc(C(=O)NC(C(=O)C=C)C(C)[101CH2:1][101O:1]c2ccc3c(c2)CN(C(=O)C(NC(=O)C(C)NC)C(C)(C)C)C(C(=O)NC2CCCc4ccccc42)C3)c1C

> <Shape>
0.206

> <Color>
0.053

> <Negative vol penalty>
0.000

$$$$

  -OEChem-04042323123D

 86 95  0     1  0  0  0  0  0999 V2000
  -27.2171  -37.5870   23.7855 C   0  0  0  0  0  0  0  0  0  0  0  0
  -27.8597  -36.6253   23.0125 C   0  0  0  0  0  0  0  0  0  0  0  0
  -24.6070   -8.6798   20.4381 C   0  0  0  0  0  0  0  0  0  0  0  0
  -22.9799  -10.4654   20.4726 C   0  0  0  0  0  0  0  0  0  0  0  0
  -26.2689  -37.1998   24.7314 C   0  0  0  0  0  0  0  0  0  0  0  0
  -27.5553  -35.2756   23.1858 C   0  0  0  0  0  0  0  0  0  0  0  0
  -27.0588  -29.1476   19.5092 C   0  0  0  0  0  0  0  0  0  0  0  0
  -23.6869   -7.8295   21.0514 C   0  0  0  0  0  0  0  0  0  0  0  0
  -22.0598   -9.6152   21.0859 C   0  0  0  0  0  0  0  0  0  0  0  0
  -27.5157  -27.8308   19.5436 C   0  0  0  0  0  0  0  0  0  0  0  0
  -22.4913   -7.2841   24.1655 C   0  0  0  0  0  0  0  0  0  0  0  0
  -22.9440   -6.4950   25.2228 C   0  0  0  0  0  0  0  0  0  0  0  0
  -25.8032  -27.2851   21.1526 C   0  0  0  0  0  0  0  0  0  0  0  0
  -27.1414  -19.5410   16.0310 C   0  0  0  0  0  0  0  0  0  0  0  0
  -28.4236  -19.3789   18.5033 C   0  0  0  0  0  0  0  0  0  0  0  0
  -22.3411   -4.5036   23.9948 C   0  0  0  0  0  0  0  0  0  0  0  0
  -24.2535   -9.9978   20.1487 C   0  0  0  0  0  0  0  0  0  0  0  0
  -25.3903  -11.0737   18.1343 C   0  0  0  0  0  0  0  0  0  0  0  0
  -25.9456  -35.8454   24.9097 C   0  0  0  0  0  0  0  0  0  0  0  0
  -25.9758  -29.5462   20.3057 C   0  0  0  0  0  0  0  0  0  0  0  0
  -26.6028  -34.8698   24.1360 C   0  0  0  0  0  0  0  0  0  0  0  0
  -25.3329  -28.6068   21.1245 C   0  0  0  0  0  0  0  0  0  0  0  0
  -27.5787  -20.7027   16.6673 C   0  0  0  0  0  0  0  0  0  0  0  0
  -27.3451  -18.2983   16.6309 C   0  0  0  0  0  0  0  0  0  0  0  0
  -28.2198  -20.6216   17.9034 C   0  0  0  0  0  0  0  0  0  0  0  0
  -27.9863  -18.2172   17.8670 C   0  0  0  0  0  0  0  0  0  0  0  0
  -22.4133   -8.2972   21.3753 C   0  0  0  0  0  0  0  0  0  0  0  0
  -26.8897  -26.9000   20.3676 C   0  0  0  0  0  0  0  0  0  0  0  0
  -21.9635   -6.6830   23.0228 C   0  0  0  0  0  0  0  0  0  0  0  0
  -22.8689   -5.1048   25.1375 C   0  0  0  0  0  0  0  0  0  0  0  0
  -21.8884   -5.2928   22.9374 C   0  0  0  0  0  0  0  0  0  0  0  0
  -25.2037  -10.8767   19.5157 C   0  0  0  0  0  0  0  0  0  0  0  0
  -26.4024  -11.9986   18.0530 C   0  0  0  0  0  0  0  0  0  0  0  0
  -27.8828  -22.8870   18.9912 C   0  0  0  0  0  0  0  0  0  0  0  0
  -24.7095  -10.4743   17.0240 C   0  0  0  0  0  0  0  0  0  0  0  0
  -25.5764  -31.6399   22.6639 C   0  0  0  0  0  0  0  0  0  0  0  0
  -22.4563  -30.8103   22.3486 C   0  0  0  0  0  0  0  0  0  0  0  0
  -20.1620  -28.4934   21.3413 C   0  0  0  0  0  0  0  0  0  0  0  0
  -28.8243  -16.7278   19.7179 C   0  0  0  0  0  0  0  0  0  0  0  0
  -24.9484  -35.4716   25.9776 C   0  0  0  0  0  0  0  0  0  0  0  0
  -25.4781  -30.9640   20.2370 C   0  0  0  0  0  0  0  0  0  0  0  0
  -24.1533  -28.9793   21.9837 C   0  0  0  0  0  0  0  0  0  0  0  0
  -24.4107  -34.0497   25.8380 C   0  0  0  0  0  0  0  0  0  0  0  0
  -29.5160  -13.7961   21.6162 C   0  0  0  0  0  0  0  0  0  0  0  0
  -25.5520  -33.0697   25.5857 C   0  0  0  0  0  0  0  0  0  0  0  0
  -28.4711  -12.7914   21.1253 C   0  0  0  0  0  0  0  0  0  0  0  0
  -30.1781  -23.4650   19.2396 C   0  0  0  0  0  0  0  0  0  0  0  0
  -28.9514  -15.2140   21.6844 C   0  0  0  0  0  0  0  0  0  0  0  0
  -30.0628  -21.9817   18.9505 C   0  0  0  0  0  0  0  0  0  0  0  0
  -27.2770  -14.6870   19.9558 C   0  0  0  0  0  0  0  0  0  0  0  0
  -26.2817  -33.3977   24.2774 C   0  0  1  0  0  0  0  0  0  0  0  0
  -28.7958  -23.8244   19.7650 C   0  0  1  0  0  0  0  0  0  0  0  0
  -24.6927  -31.3822   21.4763 C   0  0  1  0  0  0  0  0  0  0  0  0
  -27.8181  -13.2555   19.8086 C   0  0  2  0  0  0  0  0  0  0  0  0
  -27.3470  -22.0203   16.0017 C   0  0  0  0  0  0  0  0  0  0  0  0
  -26.8663  -17.0704   15.9266 C   0  0  0  0  0  0  0  0  0  0  0  0
  -17.6882  -28.0827   21.2467 C   0  0  0  0  0  0  0  0  0  0  0  0
  -22.4453  -30.2029   25.3387 C   0  0  0  0  0  0  0  0  0  0  0  0
  -20.3153  -28.9310   25.0017 C   0  0  0  0  0  0  0  0  0  0  0  0
  -20.3991  -31.3740   24.5046 C   0  0  0  0  0  0  0  0  0  0  0  0
  -20.1888  -28.3062   18.3878 C   0  0  0  0  0  0  0  0  0  0  0  0
  -28.4463  -25.2879   19.5713 C   0  0  0  0  0  0  0  0  0  1  0  0
  -21.5648  -29.7530   22.9537 C   0  0  1  0  0  0  0  0  0  0  0  0
  -18.9016  -28.6215   20.5049 C   0  0  2  0  0  0  0  0  0  0  0  0
  -21.2046  -30.0583   24.4351 C   0  0  0  0  0  0  0  0  0  0  0  0
  -26.0310  -11.6168   20.2585 N   0  0  0  0  0  0  0  0  0  0  0  0
  -26.7473  -12.2879   19.3405 N   0  0  0  0  0  0  0  0  0  0  0  0
  -28.6745  -21.7987   18.5702 N   0  0  0  0  0  0  0  0  0  0  0  0
  -23.7079  -30.3792   21.8865 N   0  0  0  0  0  0  0  0  0  0  0  0
  -28.3530  -15.5865   20.4006 N   0  0  0  0  0  0  0  0  0  0  0  0
  -27.0221  -12.5845   17.0066 N   0  0  0  0  0  0  0  0  0  0  0  0
  -23.6948   -9.5436   17.2858 N   0  0  0  0  0  0  0  0  0  0  0  0
  -28.2025  -16.9642   18.4923 N   0  0  0  0  0  0  0  0  0  0  0  0
  -25.5141  -32.9352   23.1410 N   0  0  0  0  0  0  0  0  0  0  0  0
  -20.4102  -29.6377   22.0695 N   0  0  0  0  0  0  0  0  0  0  0  0
  -19.0471  -27.8645   19.2295 N   0  3  0  0  0  0  0  0  0  0  0  0
  -26.6829  -23.0798   18.8583 O   0  0  0  0  0  0  0  0  0  0  0  0
  -25.0038  -10.7433   15.8346 O   0  0  0  0  0  0  0  0  0  0  0  0
  -26.2628  -30.7304   23.1149 O   0  0  0  0  0  0  0  0  0  0  0  0
  -22.0541  -31.9746   22.2818 O   0  0  0  0  0  0  0  0  0  0  0  0
  -20.8549  -27.4784   21.3506 O   0  0  0  0  0  0  0  0  0  0  0  0
  -29.7328  -17.4274   20.1732 O   0  0  0  0  0  0  0  0  0  0  0  0
  -21.5152   -7.4677   21.9735 O   0  0  0  0  0  0  0  0  0  0  0  0
  -27.3341  -25.6143   20.4036 O   0  0  0  0  0  0  0  0  0  1  0  0
  -23.3051   -4.3471   26.1523 F   0  0  0  0  0  0  0  0  0  0  0  0
  -21.3834   -4.7095   21.8417 F   0  0  0  0  0  0  0  0  0  0  0  0
  1  2  1  0  0  0  0
  1  5  2  0  0  0  0
  2  6  2  0  0  0  0
  3  8  2  0  0  0  0
  3 17  1  0  0  0  0
  4  9  1  0  0  0  0
  4 17  2  0  0  0  0
  5 19  1  0  0  0  0
  6 21  1  0  0  0  0
  7 10  2  0  0  0  0
  7 20  1  0  0  0  0
  8 27  1  0  0  0  0
  9 27  2  0  0  0  0
 10 28  1  0  0  0  0
 11 12  2  0  0  0  0
 11 29  1  0  0  0  0
 12 30  1  0  0  0  0
 13 22  1  0  0  0  0
 13 28  2  0  0  0  0
 14 23  1  0  0  0  0
 14 24  2  0  0  0  0
 15 25  1  0  0  0  0
 15 26  2  0  0  0  0
 16 30  2  0  0  0  0
 16 31  1  0  0  0  0
 17 32  1  0  0  0  0
 18 32  1  0  0  0  0
 18 33  2  0  0  0  0
 18 35  1  0  0  0  0
 19 21  2  0  0  0  0
 19 40  1  0  0  0  0
 20 22  2  0  0  0  0
 20 41  1  0  0  0  0
 21 51  1  0  0  0  0
 22 42  1  0  0  0  0
 23 25  2  0  0  0  0
 23 55  1  0  0  0  0
 24 26  1  0  0  0  0
 24 56  1  0  0  0  0
 25 68  1  0  0  0  0
 26 73  1  0  0  0  0
 27 83  1  0  0  0  0
 28 84  1  0  0  0  0
 29 31  2  0  0  0  0
 29 83  1  0  0  0  0
 30 85  1  0  0  0  0
 31 86  1  0  0  0  0
 32 66  2  0  0  0  0
 33 67  1  0  0  0  0
 33 71  1  0  0  0  0
 34 52  1  0  0  0  0
 34 68  1  0  0  0  0
 34 77  2  0  0  0  0
 35 72  1  0  0  0  0
 35 78  2  0  0  0  0
 36 53  1  0  0  0  0
 36 74  1  0  0  0  0
 36 79  2  0  0  0  0
 37 63  1  0  0  0  0
 37 69  1  0  0  0  0
 37 80  2  0  0  0  0
 38 64  1  0  0  0  0
 38 75  1  0  0  0  0
 38 81  2  0  0  0  0
 39 70  1  0  0  0  0
 39 73  1  0  0  0  0
 39 82  2  0  0  0  0
 40 43  1  0  0  0  0
 41 53  1  0  0  0  0
 42 69  1  0  0  0  0
 43 45  1  0  0  0  0
 44 46  1  0  0  0  0
 44 48  1  0  0  0  0
 45 51  1  0  0  0  0
 46 54  1  0  0  0  0
 47 49  1  0  0  0  0
 47 52  1  0  0  0  0
 48 70  1  0  0  0  0
 49 68  1  0  0  0  0
 50 54  1  0  0  0  0
 50 70  1  0  0  0  0
 51 74  1  0  0  0  0
 52 62  1  0  0  0  0
 53 69  1  0  0  0  0
 54 67  1  0  0  0  0
 57 64  1  0  0  0  0
 58 65  1  0  0  0  0
 59 65  1  0  0  0  0
 60 65  1  0  0  0  0
 61 76  1  0  0  0  0
 62 84  1  0  0  0  0
 63 65  1  0  0  0  0
 63 75  1  0  0  0  0
 64 76  1  0  0  0  0
 66 67  1  0  0  0  0
M  CHG  1  76   1
M  ISO  4  39 100  62 101  73 100  84 101
M  END
> <Batch ID>
0063

> <Smiles>
CNC(C)C(=O)NC(C(=O)N1Cc2cc([101O:1][101CH2:1]C3CCN(c4cc([100NH:0][100C:0](=O)N5CCCC(n6nc(-c7ccc(Oc8ccc(F)cc8F)cc7)c(C(N)=O)c6N)C5)c(C)cc4C)C3=O)ccc2CC1C(=O)NC1CCCc2ccccc21)C(C)(C)C

> <Shape>
0.326

> <Color>
0.107

> <Negative vol penalty>
0.000

$$$$

  -OEChem-04042323123D

 89 98  0     1  0  0  0  0  0999 V2000
  -33.2562  -36.7161   23.1336 C   0  0  0  0  0  0  0  0  0  0  0  0
  -33.8722  -35.4769   22.9906 C   0  0  0  0  0  0  0  0  0  0  0  0
  -23.0795   -9.8498   19.9346 C   0  0  0  0  0  0  0  0  0  0  0  0
  -23.8393   -9.8526   22.2280 C   0  0  0  0  0  0  0  0  0  0  0  0
  -31.9405  -36.7908   23.5890 C   0  0  0  0  0  0  0  0  0  0  0  0
  -33.1733  -34.3118   23.3041 C   0  0  0  0  0  0  0  0  0  0  0  0
  -32.5802  -27.4533   21.3229 C   0  0  0  0  0  0  0  0  0  0  0  0
  -22.3429   -8.6910   20.1801 C   0  0  0  0  0  0  0  0  0  0  0  0
  -23.1027   -8.6938   22.4735 C   0  0  0  0  0  0  0  0  0  0  0  0
  -32.6118  -26.1690   21.8647 C   0  0  0  0  0  0  0  0  0  0  0  0
  -19.8797   -7.8732   23.0728 C   0  0  0  0  0  0  0  0  0  0  0  0
  -19.1230   -7.8238   24.2435 C   0  0  0  0  0  0  0  0  0  0  0  0
  -30.3172  -26.4155   22.5672 C   0  0  0  0  0  0  0  0  0  0  0  0
  -29.6498  -19.3008   22.3817 C   0  0  0  0  0  0  0  0  0  0  0  0
  -31.1092  -17.7101   20.6147 C   0  0  0  0  0  0  0  0  0  0  0  0
  -30.7306  -23.4006   20.8459 C   0  0  0  0  0  0  0  0  0  0  0  0
  -20.3767   -5.8914   24.9724 C   0  0  0  0  0  0  0  0  0  0  0  0
  -23.8277  -10.4306   20.9586 C   0  0  0  0  0  0  0  0  0  0  0  0
  -24.1535  -12.9583   20.8485 C   0  0  0  0  0  0  0  0  0  0  0  0
  -31.2219  -35.6254   23.8990 C   0  0  0  0  0  0  0  0  0  0  0  0
  -31.4183  -28.2337   21.4089 C   0  0  0  0  0  0  0  0  0  0  0  0
  -31.8472  -34.3710   23.7654 C   0  0  0  0  0  0  0  0  0  0  0  0
  -30.2726  -27.7083   22.0234 C   0  0  0  0  0  0  0  0  0  0  0  0
  -29.4790  -17.9165   22.3858 C   0  0  0  0  0  0  0  0  0  0  0  0
  -31.2800  -19.0945   20.6106 C   0  0  0  0  0  0  0  0  0  0  0  0
  -30.5503  -19.8898   21.4941 C   0  0  0  0  0  0  0  0  0  0  0  0
  -30.2087  -17.1211   21.5023 C   0  0  0  0  0  0  0  0  0  0  0  0
  -22.3545   -8.1130   21.4495 C   0  0  0  0  0  0  0  0  0  0  0  0
  -31.4811  -25.6510   22.4895 C   0  0  0  0  0  0  0  0  0  0  0  0
  -20.8849   -6.9316   22.8518 C   0  0  0  0  0  0  0  0  0  0  0  0
  -31.1429  -23.3436   22.2003 C   0  0  0  0  0  0  0  0  0  1  0  0
  -19.3716   -6.8330   25.1933 C   0  0  0  0  0  0  0  0  0  0  0  0
  -21.1334   -5.9407   23.8016 C   0  0  0  0  0  0  0  0  0  0  0  0
  -24.5892  -11.6274   20.7056 C   0  0  0  0  0  0  0  0  0  0  0  0
  -25.2409  -13.7162   20.4882 C   0  0  0  0  0  0  0  0  0  0  0  0
  -30.4666  -22.1105   20.4417 C   0  0  0  0  0  0  0  0  0  0  0  0
  -31.1180  -22.0204   22.5825 C   0  0  0  0  0  0  0  0  0  0  0  0
  -22.8798  -13.4644   21.2694 C   0  0  0  0  0  0  0  0  0  0  0  0
  -30.6777  -31.0123   22.7632 C   0  0  0  0  0  0  0  0  0  0  0  0
  -27.8550  -30.5636   21.2292 C   0  0  0  0  0  0  0  0  0  0  0  0
  -25.6344  -28.3847   19.8262 C   0  0  0  0  0  0  0  0  0  0  0  0
  -30.7003  -14.7958   20.6671 C   0  0  0  0  0  0  0  0  0  0  0  0
  -29.8176  -35.7589   24.4329 C   0  0  0  0  0  0  0  0  0  0  0  0
  -31.3920  -29.6069   20.7958 C   0  0  0  0  0  0  0  0  0  0  0  0
  -28.9940  -28.4978   22.1240 C   0  0  0  0  0  0  0  0  0  0  0  0
  -29.0220  -34.4570   24.3865 C   0  0  0  0  0  0  0  0  0  0  0  0
  -29.6012  -12.3842   18.2894 C   0  0  0  0  0  0  0  0  0  0  0  0
  -29.8585  -33.3007   24.9252 C   0  0  0  0  0  0  0  0  0  0  0  0
  -28.1635  -12.0818   18.7178 C   0  0  0  0  0  0  0  0  0  0  0  0
  -30.5149  -12.6141   19.4919 C   0  0  0  0  0  0  0  0  0  0  0  0
  -28.6034  -13.3210   20.8760 C   0  0  0  0  0  0  0  0  0  0  0  0
  -31.1137  -33.0833   24.0716 C   0  0  1  0  0  0  0  0  0  0  0  0
  -30.3165  -30.5081   21.3946 C   0  0  1  0  0  0  0  0  0  0  0  0
  -27.6317  -13.1462   19.6975 C   0  0  2  0  0  0  0  0  0  0  0  0
  -32.2542  -19.6943   19.6484 C   0  0  0  0  0  0  0  0  0  0  0  0
  -23.3999  -28.3103   18.6866 C   0  0  0  0  0  0  0  0  0  0  0  0
  -26.4724  -30.9654   23.9193 C   0  0  0  0  0  0  0  0  0  0  0  0
  -24.4051  -29.9591   22.9284 C   0  0  0  0  0  0  0  0  0  0  0  0
  -25.3359  -32.0731   21.9865 C   0  0  0  0  0  0  0  0  0  0  0  0
  -26.8025  -27.2488   17.3555 C   0  0  0  0  0  0  0  0  0  0  0  0
  -26.5468  -29.8928   21.5720 C   0  0  1  0  0  0  0  0  0  0  0  0
  -24.9054  -28.4072   18.4949 C   0  0  2  0  0  0  0  0  0  0  0  0
  -28.5078  -17.3126   23.3476 C   0  0  0  0  0  0  0  0  0  0  0  0
  -25.7146  -30.7082   22.6015 C   0  0  0  0  0  0  0  0  0  0  0  0
  -25.8547  -11.5412   20.2869 N   0  0  0  0  0  0  0  0  0  0  0  0
  -30.7055  -21.2799   21.5055 N   0  0  0  0  0  0  0  0  0  0  0  0
  -26.2234  -12.8276   20.1637 N   0  0  0  0  0  0  0  0  0  0  0  0
  -29.0201  -29.8379   21.5149 N   0  0  0  0  0  0  0  0  0  0  0  0
  -29.9494  -13.6379   20.3734 N   0  0  0  0  0  0  0  0  0  0  0  0
  -25.4428  -15.0492   20.4204 N   0  0  0  0  0  0  0  0  0  0  0  0
  -21.8736  -12.5475   21.6031 N   0  0  0  0  0  0  0  0  0  0  0  0
  -30.0471  -15.7135   21.4892 N   0  0  0  0  0  0  0  0  0  0  0  0
  -30.7783  -32.3879   22.8475 N   0  0  0  0  0  0  0  0  0  0  0  0
  -25.8642  -29.6574   20.3043 N   0  0  0  0  0  0  0  0  0  0  0  0
  -25.3453  -27.2654   17.6441 N   0  3  0  0  0  0  0  0  0  0  0  0
  -22.6357  -14.6933   21.3316 O   0  0  0  0  0  0  0  0  0  0  0  0
  -30.8508  -30.2127   23.6755 O   0  0  0  0  0  0  0  0  0  0  0  0
  -27.8433  -31.6870   20.7198 O   0  0  0  0  0  0  0  0  0  0  0  0
  -25.9636  -27.3422   20.3879 O   0  0  0  0  0  0  0  0  0  0  0  0
  -31.8283  -14.9735   20.2002 O   0  0  0  0  0  0  0  0  0  0  0  0
  -30.0538  -21.6432   19.2699 O   0  0  0  0  0  0  0  0  0  0  0  0
  -31.4145  -21.4514   23.7454 O   0  0  0  0  0  0  0  0  0  0  0  0
  -21.6357   -6.9824   21.6894 O   0  0  0  0  0  0  0  0  0  0  0  0
  -31.5095  -24.3981   23.0197 O   0  0  0  0  0  0  0  0  0  1  0  0
  -18.6459   -6.7867   26.3182 F   0  0  0  0  0  0  0  0  0  0  0  0
  -22.0985   -5.0342   23.5954 F   0  0  0  0  0  0  0  0  0  0  0  0
  -27.8807  -18.2319   24.1377 F   0  0  0  0  0  0  0  0  0  0  0  0
  -27.5030  -16.6164   22.7408 F   0  0  0  0  0  0  0  0  0  0  0  0
  -29.1003  -16.4329   24.2049 F   0  0  0  0  0  0  0  0  0  0  0  0
  1  2  1  0  0  0  0
  1  5  2  0  0  0  0
  2  6  2  0  0  0  0
  3  8  2  0  0  0  0
  3 18  1  0  0  0  0
  4  9  1  0  0  0  0
  4 18  2  0  0  0  0
  5 20  1  0  0  0  0
  6 22  1  0  0  0  0
  7 10  2  0  0  0  0
  7 21  1  0  0  0  0
  8 28  1  0  0  0  0
  9 28  2  0  0  0  0
 10 29  1  0  0  0  0
 11 12  2  0  0  0  0
 11 30  1  0  0  0  0
 12 32  1  0  0  0  0
 13 23  1  0  0  0  0
 13 29  2  0  0  0  0
 14 24  2  0  0  0  0
 14 26  1  0  0  0  0
 15 25  1  0  0  0  0
 15 27  2  0  0  0  0
 16 31  1  0  0  0  0
 16 36  2  0  0  0  0
 17 32  2  0  0  0  0
 17 33  1  0  0  0  0
 18 34  1  0  0  0  0
 19 34  1  0  0  0  0
 19 35  2  0  0  0  0
 19 38  1  0  0  0  0
 20 22  2  0  0  0  0
 20 43  1  0  0  0  0
 21 23  2  0  0  0  0
 21 44  1  0  0  0  0
 22 52  1  0  0  0  0
 23 45  1  0  0  0  0
 24 27  1  0  0  0  0
 24 63  1  0  0  0  0
 25 26  2  0  0  0  0
 25 55  1  0  0  0  0
 26 66  1  0  0  0  0
 27 72  1  0  0  0  0
 28 83  1  0  0  0  0
 29 84  1  0  0  0  0
 30 33  2  0  0  0  0
 30 83  1  0  0  0  0
 31 37  2  0  0  0  0
 31 84  1  0  0  0  0
 32 85  1  0  0  0  0
 33 86  1  0  0  0  0
 34 65  2  0  0  0  0
 35 67  1  0  0  0  0
 35 70  1  0  0  0  0
 36 66  1  0  0  0  0
 36 81  1  0  0  0  0
 37 66  1  0  0  0  0
 37 82  1  0  0  0  0
 38 71  1  0  0  0  0
 38 76  2  0  0  0  0
 39 53  1  0  0  0  0
 39 73  1  0  0  0  0
 39 77  2  0  0  0  0
 40 61  1  0  0  0  0
 40 68  1  0  0  0  0
 40 78  2  0  0  0  0
 41 62  1  0  0  0  0
 41 74  1  0  0  0  0
 41 79  2  0  0  0  0
 42 69  1  0  0  0  0
 42 72  1  0  0  0  0
 42 80  2  0  0  0  0
 43 46  1  0  0  0  0
 44 53  1  0  0  0  0
 45 68  1  0  0  0  0
 46 48  1  0  0  0  0
 47 49  1  0  0  0  0
 47 50  1  0  0  0  0
 48 52  1  0  0  0  0
 49 54  1  0  0  0  0
 50 69  1  0  0  0  0
 51 54  1  0  0  0  0
 51 69  1  0  0  0  0
 52 73  1  0  0  0  0
 53 68  1  0  0  0  0
 54 67  1  0  0  0  0
 56 62  1  0  0  0  0
 57 64  1  0  0  0  0
 58 64  1  0  0  0  0
 59 64  1  0  0  0  0
 60 75  1  0  0  0  0
 61 64  1  0  0  0  0
 61 74  1  0  0  0  0
 62 75  1  0  0  0  0
 63 87  1  0  0  0  0
 63 88  1  0  0  0  0
 63 89  1  0  0  0  0
 65 67  1  0  0  0  0
M  CHG  1  75   1
M  ISO  4  31 101  42 100  72 100  84 101
M  END
> <Batch ID>
0063

> <Smiles>
CNC(C)C(=O)NC(C(=O)N1Cc2cc([101O:1][101CH:1]3CC(=O)N(c4cc(C(F)(F)F)c([100NH:0][100C:0](=O)N5CCCC(n6nc(-c7ccc(Oc8ccc(F)cc8F)cc7)c(C(N)=O)c6N)C5)cc4C)C3=O)ccc2CC1C(=O)NC1CCCc2ccccc21)C(C)(C)C

> <Shape>
0.278

> <Color>
0.183

> <Negative vol penalty>
0.000

$$$$

  -OEChem-04042323123D

 84 92  0     1  0  0  0  0  0999 V2000
  -24.1833  -32.7070   32.3437 C   0  0  0  0  0  0  0  0  0  0  0  0
  -24.6340  -31.4534   31.9427 C   0  0  0  0  0  0  0  0  0  0  0  0
  -23.1837   -9.8003   19.9146 C   0  0  0  0  0  0  0  0  0  0  0  0
  -23.8719   -9.8723   22.2294 C   0  0  0  0  0  0  0  0  0  0  0  0
  -23.2256  -33.3779   31.5842 C   0  0  0  0  0  0  0  0  0  0  0  0
  -24.1264  -30.8694   30.7827 C   0  0  0  0  0  0  0  0  0  0  0  0
  -27.1526  -27.3044   26.8281 C   0  0  0  0  0  0  0  0  0  0  0  0
  -22.4848   -8.6183   20.1591 C   0  0  0  0  0  0  0  0  0  0  0  0
  -23.1729   -8.6902   22.4739 C   0  0  0  0  0  0  0  0  0  0  0  0
  -27.2157  -25.9205   26.6714 C   0  0  0  0  0  0  0  0  0  0  0  0
  -19.9667   -7.7558   22.9910 C   0  0  0  0  0  0  0  0  0  0  0  0
  -19.1768   -7.6974   24.1391 C   0  0  0  0  0  0  0  0  0  0  0  0
  -25.5059  -26.0408   24.9740 C   0  0  0  0  0  0  0  0  0  0  0  0
  -30.1933  -20.1500   21.5411 C   0  0  0  0  0  0  0  0  0  0  0  0
  -30.8775  -17.9923   20.6967 C   0  0  0  0  0  0  0  0  0  0  0  0
  -20.4804   -5.8280   24.9410 C   0  0  0  0  0  0  0  0  0  0  0  0
  -23.8773  -10.4274   20.9497 C   0  0  0  0  0  0  0  0  0  0  0  0
  -24.1095  -12.9635   20.8028 C   0  0  0  0  0  0  0  0  0  0  0  0
  -22.7131  -32.8060   30.4091 C   0  0  0  0  0  0  0  0  0  0  0  0
  -26.2564  -28.0669   26.0654 C   0  0  0  0  0  0  0  0  0  0  0  0
  -23.1600  -31.5327   30.0075 C   0  0  0  0  0  0  0  0  0  0  0  0
  -25.4352  -27.4345   25.1211 C   0  0  0  0  0  0  0  0  0  0  0  0
  -30.9851  -19.3830   20.6865 C   0  0  0  0  0  0  0  0  0  0  0  0
  -29.2939  -19.5263   22.4060 C   0  0  0  0  0  0  0  0  0  0  0  0
  -29.9781  -17.3686   21.5615 C   0  0  0  0  0  0  0  0  0  0  0  0
  -22.4794   -8.0632   21.4388 C   0  0  0  0  0  0  0  0  0  0  0  0
  -26.3902  -25.2881   25.7463 C   0  0  0  0  0  0  0  0  0  0  0  0
  -21.0135   -6.8502   22.8178 C   0  0  0  0  0  0  0  0  0  0  0  0
  -19.4336   -6.7335   25.1141 C   0  0  0  0  0  0  0  0  0  0  0  0
  -21.2703   -5.8863   23.7928 C   0  0  0  0  0  0  0  0  0  0  0  0
  -29.1864  -18.1356   22.4161 C   0  0  0  0  0  0  0  0  0  0  0  0
  -24.6000  -11.6482   20.6976 C   0  0  0  0  0  0  0  0  0  0  0  0
  -25.1777  -13.7566   20.4614 C   0  0  0  0  0  0  0  0  0  0  0  0
  -27.4871  -22.1307   24.4154 C   0  0  0  0  0  0  0  0  0  0  0  0
  -27.3244  -23.4327   24.6713 C   0  0  0  0  0  0  0  0  0  1  0  0
  -22.8050  -13.4271   21.1757 C   0  0  0  0  0  0  0  0  0  0  0  0
  -28.4743  -21.6912   23.3866 C   0  0  0  0  0  0  0  0  0  0  0  0
  -23.7786  -29.9440   26.7294 C   0  0  0  0  0  0  0  0  0  0  0  0
  -23.8889  -30.5581   23.5462 C   0  0  0  0  0  0  0  0  0  0  0  0
  -24.8225  -29.5318   20.4282 C   0  0  0  0  0  0  0  0  0  0  0  0
  -30.5838  -15.0499   20.7847 C   0  0  0  0  0  0  0  0  0  0  0  0
  -21.6445  -33.5486   29.6466 C   0  0  0  0  0  0  0  0  0  0  0  0
  -26.2195  -29.5619   26.2274 C   0  0  0  0  0  0  0  0  0  0  0  0
  -24.4703  -28.2101   24.2633 C   0  0  0  0  0  0  0  0  0  0  0  0
  -21.4326  -33.0246   28.2285 C   0  0  0  0  0  0  0  0  0  0  0  0
  -29.6514  -12.5568   18.4199 C   0  0  0  0  0  0  0  0  0  0  0  0
  -21.3483  -31.5016   28.2292 C   0  0  0  0  0  0  0  0  0  0  0  0
  -28.2138  -12.2064   18.8103 C   0  0  0  0  0  0  0  0  0  0  0  0
  -30.5182  -12.8427   19.6450 C   0  0  0  0  0  0  0  0  0  0  0  0
  -28.5393  -13.4989   20.9575 C   0  0  0  0  0  0  0  0  0  0  0  0
  -22.6516  -30.8771   28.7419 C   0  0  1  0  0  0  0  0  0  0  0  0
  -24.9047  -30.1809   25.7632 C   0  0  1  0  0  0  0  0  0  0  0  0
  -27.6117  -13.2661   19.7537 C   0  0  2  0  0  0  0  0  0  0  0  0
  -31.9467  -20.0499   19.7616 C   0  0  0  0  0  0  0  0  0  0  0  0
  -24.7436  -30.2293   18.0189 C   0  0  0  0  0  0  0  0  0  0  0  0
  -20.9388  -29.7888   23.4226 C   0  0  0  0  0  0  0  0  0  0  0  0
  -21.1686  -29.5820   20.9381 C   0  0  0  0  0  0  0  0  0  0  0  0
  -21.5553  -31.7835   22.0457 C   0  0  0  0  0  0  0  0  0  0  0  0
  -27.7746  -29.5761   20.2239 C   0  0  0  0  0  0  0  0  0  0  0  0
  -23.2666  -29.9422   22.3163 C   0  0  1  0  0  0  0  0  0  0  0  0
  -25.5513  -30.2507   19.3072 C   0  0  2  0  0  0  0  0  0  0  0  0
  -21.7490  -30.2590   22.1981 C   0  0  0  0  0  0  0  0  0  0  0  0
  -25.8801  -11.6039   20.3190 N   0  0  0  0  0  0  0  0  0  0  0  0
  -26.2030  -12.9013   20.1831 N   0  0  0  0  0  0  0  0  0  0  0  0
  -24.4667  -29.6687   24.4632 N   0  0  0  0  0  0  0  0  0  0  0  0
  -29.8870  -13.8590   20.4899 N   0  0  0  0  0  0  0  0  0  0  0  0
  -25.3305  -15.0951   20.3751 N   0  0  0  0  0  0  0  0  0  0  0  0
  -21.8248  -12.4778   21.4958 N   0  0  0  0  0  0  0  0  0  0  0  0
  -28.4907  -20.3075   23.2728 N   0  0  0  0  0  0  0  0  0  0  0  0
  -29.8709  -15.9557   21.5695 N   0  0  0  0  0  0  0  0  0  0  0  0
  -23.6672  -30.9098   27.7114 N   0  0  0  0  0  0  0  0  0  0  0  0
  -24.0628  -30.4004   21.1830 N   0  0  0  0  0  0  0  0  0  0  0  0
  -26.8683  -29.6037   19.0471 N   0  3  0  0  0  0  0  0  0  0  0  0
  -22.5123  -14.6464   21.2077 O   0  0  0  0  0  0  0  0  0  0  0  0
  -29.1469  -22.5043   22.7635 O   0  0  0  0  0  0  0  0  0  0  0  0
  -23.0628  -28.9587   26.5932 O   0  0  0  0  0  0  0  0  0  0  0  0
  -23.8694  -31.7837   23.6845 O   0  0  0  0  0  0  0  0  0  0  0  0
  -24.9147  -28.3203   20.6132 O   0  0  0  0  0  0  0  0  0  0  0  0
  -31.7180  -15.2632   20.3487 O   0  0  0  0  0  0  0  0  0  0  0  0
  -21.7973   -6.9099   21.6778 O   0  0  0  0  0  0  0  0  0  0  0  0
  -26.4493  -23.9374   25.5918 O   0  0  0  0  0  0  0  0  0  1  0  0
  -18.6759   -6.6786   26.2173 F   0  0  0  0  0  0  0  0  0  0  0  0
  -22.2752   -5.0144   23.6326 F   0  0  0  0  0  0  0  0  0  0  0  0
  -28.3218  -17.5356   23.2486 F   0  0  0  0  0  0  0  0  0  0  0  0
  1  2  1  0  0  0  0
  1  5  2  0  0  0  0
  2  6  2  0  0  0  0
  3  8  2  0  0  0  0
  3 17  1  0  0  0  0
  4  9  1  0  0  0  0
  4 17  2  0  0  0  0
  5 19  1  0  0  0  0
  6 21  1  0  0  0  0
  7 10  2  0  0  0  0
  7 20  1  0  0  0  0
  8 26  1  0  0  0  0
  9 26  2  0  0  0  0
 10 27  1  0  0  0  0
 11 12  2  0  0  0  0
 11 28  1  0  0  0  0
 12 29  1  0  0  0  0
 13 22  1  0  0  0  0
 13 27  2  0  0  0  0
 14 23  2  0  0  0  0
 14 24  1  0  0  0  0
 15 23  1  0  0  0  0
 15 25  2  0  0  0  0
 16 29  2  0  0  0  0
 16 30  1  0  0  0  0
 17 32  1  0  0  0  0
 18 32  1  0  0  0  0
 18 33  2  0  0  0  0
 18 36  1  0  0  0  0
 19 21  2  0  0  0  0
 19 42  1  0  0  0  0
 20 22  2  0  0  0  0
 20 43  1  0  0  0  0
 21 51  1  0  0  0  0
 22 44  1  0  0  0  0
 23 54  1  0  0  0  0
 24 31  2  0  0  0  0
 24 69  1  0  0  0  0
 25 31  1  0  0  0  0
 25 70  1  0  0  0  0
 26 80  1  0  0  0  0
 27 81  1  0  0  0  0
 28 30  2  0  0  0  0
 28 80  1  0  0  0  0
 29 82  1  0  0  0  0
 30 83  1  0  0  0  0
 31 84  1  0  0  0  0
 32 63  2  0  0  0  0
 33 64  1  0  0  0  0
 33 67  1  0  0  0  0
 34 35  2  0  0  0  0
 34 37  1  0  0  0  0
 35 81  1  0  0  0  0
 36 68  1  0  0  0  0
 36 74  2  0  0  0  0
 37 69  1  0  0  0  0
 37 75  2  0  0  0  0
 38 52  1  0  0  0  0
 38 71  1  0  0  0  0
 38 76  2  0  0  0  0
 39 60  1  0  0  0  0
 39 65  1  0  0  0  0
 39 77  2  0  0  0  0
 40 61  1  0  0  0  0
 40 72  1  0  0  0  0
 40 78  2  0  0  0  0
 41 66  1  0  0  0  0
 41 70  1  0  0  0  0
 41 79  2  0  0  0  0
 42 45  1  0  0  0  0
 43 52  1  0  0  0  0
 44 65  1  0  0  0  0
 45 47  1  0  0  0  0
 46 48  1  0  0  0  0
 46 49  1  0  0  0  0
 47 51  1  0  0  0  0
 48 53  1  0  0  0  0
 49 66  1  0  0  0  0
 50 53  1  0  0  0  0
 50 66  1  0  0  0  0
 51 71  1  0  0  0  0
 52 65  1  0  0  0  0
 53 64  1  0  0  0  0
 55 61  1  0  0  0  0
 56 62  1  0  0  0  0
 57 62  1  0  0  0  0
 58 62  1  0  0  0  0
 59 73  1  0  0  0  0
 60 62  1  0  0  0  0
 60 72  1  0  0  0  0
 61 73  1  0  0  0  0
 63 64  1  0  0  0  0
M  CHG  1  73   1
M  ISO  4  35 101  41 100  70 100  81 101
M  END
> <Batch ID>
0063

> <Smiles>
CNC(C)C(=O)NC(C(=O)N1Cc2cc([101O:1][101CH:1]=CC(=O)Nc3cc(C)cc([100NH:0][100C:0](=O)N4CCCC(n5nc(-c6ccc(Oc7ccc(F)cc7F)cc6)c(C(N)=O)c5N)C4)c3F)ccc2CC1C(=O)NC1CCCc2ccccc21)C(C)(C)C

> <Shape>
0.267

> <Color>
0.205

> <Negative vol penalty>
0.000

$$$$

  -OEChem-04042323123D

 86 95  0     1  0  0  0  0  0999 V2000
  -19.3244  -20.6285   21.2538 C   0  0  0  0  0  0  0  0  0  0  0  0
  -20.5387  -20.6765   21.9311 C   0  0  0  0  0  0  0  0  0  0  0  0
  -23.0764   -9.8678   19.9431 C   0  0  0  0  0  0  0  0  0  0  0  0
  -23.8328   -9.8790   22.2377 C   0  0  0  0  0  0  0  0  0  0  0  0
  -18.5426  -21.7777   21.1445 C   0  0  0  0  0  0  0  0  0  0  0  0
  -20.9723  -21.8742   22.4985 C   0  0  0  0  0  0  0  0  0  0  0  0
  -22.7946  -21.2571   27.1829 C   0  0  0  0  0  0  0  0  0  0  0  0
  -32.6484  -17.4968   23.4561 C   0  0  0  0  0  0  0  0  0  0  0  0
  -32.0617  -16.6112   22.5522 C   0  0  0  0  0  0  0  0  0  0  0  0
  -22.3318   -8.7153   20.1942 C   0  0  0  0  0  0  0  0  0  0  0  0
  -23.0881   -8.7265   22.4887 C   0  0  0  0  0  0  0  0  0  0  0  0
  -24.0847  -20.7421   27.3015 C   0  0  0  0  0  0  0  0  0  0  0  0
  -19.8588   -7.9309   23.0878 C   0  0  0  0  0  0  0  0  0  0  0  0
  -19.1001   -7.8935   24.2576 C   0  0  0  0  0  0  0  0  0  0  0  0
  -24.9346  -22.9707   27.6628 C   0  0  0  0  0  0  0  0  0  0  0  0
  -29.8772  -17.4618   23.1367 C   0  0  0  0  0  0  0  0  0  0  0  0
  -20.3397   -5.9571   24.9998 C   0  0  0  0  0  0  0  0  0  0  0  0
  -23.8270  -10.4496   20.9649 C   0  0  0  0  0  0  0  0  0  0  0  0
  -24.1698  -12.9744   20.8405 C   0  0  0  0  0  0  0  0  0  0  0  0
  -18.9623  -22.9877   21.7191 C   0  0  0  0  0  0  0  0  0  0  0  0
  -22.5658  -22.6362   27.2927 C   0  0  0  0  0  0  0  0  0  0  0  0
  -20.1960  -23.0410   22.3955 C   0  0  0  0  0  0  0  0  0  0  0  0
  -23.6402  -23.5004   27.5477 C   0  0  0  0  0  0  0  0  0  0  0  0
  -31.8495  -18.3649   24.2004 C   0  0  0  0  0  0  0  0  0  0  0  0
  -30.4639  -18.3474   24.0407 C   0  0  0  0  0  0  0  0  0  0  0  0
  -30.6761  -16.5937   22.3925 C   0  0  0  0  0  0  0  0  0  0  0  0
  -22.3376   -8.1447   21.4670 C   0  0  0  0  0  0  0  0  0  0  0  0
  -25.1554  -21.5992   27.5386 C   0  0  0  0  0  0  0  0  0  0  0  0
  -20.8580   -6.9814   22.8739 C   0  0  0  0  0  0  0  0  0  0  0  0
  -19.3405   -6.9066   25.2136 C   0  0  0  0  0  0  0  0  0  0  0  0
  -21.0985   -5.9945   23.8299 C   0  0  0  0  0  0  0  0  0  0  0  0
  -24.5968  -11.6397   20.7060 C   0  0  0  0  0  0  0  0  0  0  0  0
  -25.2628  -13.7228   20.4774 C   0  0  0  0  0  0  0  0  0  0  0  0
  -29.6700  -20.6335   24.7804 C   0  0  0  0  0  0  0  0  0  0  0  0
  -22.8988  -13.4914   21.2564 C   0  0  0  0  0  0  0  0  0  0  0  0
  -21.4252  -24.8821   25.3539 C   0  0  0  0  0  0  0  0  0  0  0  0
  -21.6555  -26.7377   28.0046 C   0  0  0  0  0  0  0  0  0  0  0  0
  -23.1225  -27.2900   31.0361 C   0  0  0  0  0  0  0  0  0  0  0  0
  -30.7290  -14.7670   20.6585 C   0  0  0  0  0  0  0  0  0  0  0  0
  -18.1055  -24.2150   21.5340 C   0  0  0  0  0  0  0  0  0  0  0  0
  -21.1646  -23.1731   27.1889 C   0  0  0  0  0  0  0  0  0  0  0  0
  -23.4451  -24.9866   27.6940 C   0  0  0  0  0  0  0  0  0  0  0  0
  -28.5413  -21.1275   25.6582 C   0  0  0  0  0  0  0  0  0  0  0  0
  -18.4599  -25.3545   22.4860 C   0  0  0  0  0  0  0  0  0  0  0  0
  -29.6175  -12.3490   18.2932 C   0  0  0  0  0  0  0  0  0  0  0  0
  -19.9699  -25.5664   22.5262 C   0  0  0  0  0  0  0  0  0  0  0  0
  -28.1771  -12.0587   18.7211 C   0  0  0  0  0  0  0  0  0  0  0  0
  -30.5308  -12.5798   19.4958 C   0  0  0  0  0  0  0  0  0  0  0  0
  -28.6220  -13.3075   20.8727 C   0  0  0  0  0  0  0  0  0  0  0  0
  -28.5487  -18.7393   25.6309 C   0  0  0  0  0  0  0  0  0  0  0  0
  -20.6889  -24.3155   23.0458 C   0  0  1  0  0  0  0  0  0  0  0  0
  -21.1170  -24.6490   26.8059 C   0  0  1  0  0  0  0  0  0  0  0  0
  -27.6509  -13.1323   19.6937 C   0  0  2  0  0  0  0  0  0  0  0  0
  -28.1934  -19.9217   26.5360 C   0  0  1  0  0  0  0  0  0  0  0  0
  -32.5052  -19.3028   25.1613 C   0  0  0  0  0  0  0  0  0  0  0  0
  -29.0553  -19.9133   27.8101 C   0  0  0  0  0  0  0  0  0  0  0  0
  -23.1329  -28.9084   32.9539 C   0  0  0  0  0  0  0  0  0  0  0  0
  -23.2887  -28.7015   26.3355 C   0  0  0  0  0  0  0  0  0  0  0  0
  -24.0538  -29.7691   28.4669 C   0  0  0  0  0  0  0  0  0  0  0  0
  -21.6306  -29.7677   27.8744 C   0  0  0  0  0  0  0  0  0  0  0  0
  -22.2384  -25.2103   32.9471 C   0  0  0  0  0  0  0  0  0  0  0  0
  -26.7132  -19.9119   26.9207 C   0  0  0  0  0  0  0  0  0  1  0  0
  -22.7285  -27.6116   28.6080 C   0  0  1  0  0  0  0  0  0  0  0  0
  -22.5333  -27.6280   32.3936 C   0  0  2  0  0  0  0  0  0  0  0  0
  -22.9297  -28.9347   27.8166 C   0  0  0  0  0  0  0  0  0  0  0  0
  -25.8623  -11.5426   20.2898 N   0  0  0  0  0  0  0  0  0  0  0  0
  -26.2398  -12.8258   20.1596 N   0  0  0  0  0  0  0  0  0  0  0  0
  -29.6296  -19.2276   24.7931 N   0  0  0  0  0  0  0  0  0  0  0  0
  -22.0572  -25.4639   27.5782 N   0  0  0  0  0  0  0  0  0  0  0  0
  -29.9708  -13.6125   20.3703 N   0  0  0  0  0  0  0  0  0  0  0  0
  -25.4737  -15.0540   20.4021 N   0  0  0  0  0  0  0  0  0  0  0  0
  -21.8861  -12.5832   21.5939 N   0  0  0  0  0  0  0  0  0  0  0  0
  -30.0807  -15.6938   21.4741 N   0  0  0  0  0  0  0  0  0  0  0  0
  -20.5728  -24.2273   24.4856 N   0  0  0  0  0  0  0  0  0  0  0  0
  -22.3610  -27.8021   30.0069 N   0  0  0  0  0  0  0  0  0  0  0  0
  -22.7939  -26.5245   33.3607 N   0  3  0  0  0  0  0  0  0  0  0  0
  -30.4000  -21.3947   24.1620 O   0  0  0  0  0  0  0  0  0  0  0  0
  -22.6629  -14.7222   21.3110 O   0  0  0  0  0  0  0  0  0  0  0  0
  -22.3659  -25.6040   25.0443 O   0  0  0  0  0  0  0  0  0  0  0  0
  -20.5020  -27.1668   27.9215 O   0  0  0  0  0  0  0  0  0  0  0  0
  -24.1570  -26.6401   30.9021 O   0  0  0  0  0  0  0  0  0  0  0  0
  -31.8589  -14.9345   20.1923 O   0  0  0  0  0  0  0  0  0  0  0  0
  -21.6110   -7.0203   21.7124 O   0  0  0  0  0  0  0  0  0  0  0  0
  -26.4157  -21.0993   27.6541 O   0  0  0  0  0  0  0  0  0  1  0  0
  -18.6128   -6.8717   26.3377 F   0  0  0  0  0  0  0  0  0  0  0  0
  -22.0578   -5.0803   23.6305 F   0  0  0  0  0  0  0  0  0  0  0  0
  1  2  1  0  0  0  0
  1  5  2  0  0  0  0
  2  6  2  0  0  0  0
  3 10  2  0  0  0  0
  3 18  1  0  0  0  0
  4 11  1  0  0  0  0
  4 18  2  0  0  0  0
  5 20  1  0  0  0  0
  6 22  1  0  0  0  0
  7 12  2  0  0  0  0
  7 21  1  0  0  0  0
  8  9  2  0  0  0  0
  8 24  1  0  0  0  0
  9 26  1  0  0  0  0
 10 27  1  0  0  0  0
 11 27  2  0  0  0  0
 12 28  1  0  0  0  0
 13 14  2  0  0  0  0
 13 29  1  0  0  0  0
 14 30  1  0  0  0  0
 15 23  1  0  0  0  0
 15 28  2  0  0  0  0
 16 25  1  0  0  0  0
 16 26  2  0  0  0  0
 17 30  2  0  0  0  0
 17 31  1  0  0  0  0
 18 32  1  0  0  0  0
 19 32  1  0  0  0  0
 19 33  2  0  0  0  0
 19 35  1  0  0  0  0
 20 22  2  0  0  0  0
 20 40  1  0  0  0  0
 21 23  2  0  0  0  0
 21 41  1  0  0  0  0
 22 51  1  0  0  0  0
 23 42  1  0  0  0  0
 24 25  2  0  0  0  0
 24 55  1  0  0  0  0
 25 68  1  0  0  0  0
 26 73  1  0  0  0  0
 27 83  1  0  0  0  0
 28 84  1  0  0  0  0
 29 31  2  0  0  0  0
 29 83  1  0  0  0  0
 30 85  1  0  0  0  0
 31 86  1  0  0  0  0
 32 66  2  0  0  0  0
 33 67  1  0  0  0  0
 33 71  1  0  0  0  0
 34 43  1  0  0  0  0
 34 68  1  0  0  0  0
 34 77  2  0  0  0  0
 35 72  1  0  0  0  0
 35 78  2  0  0  0  0
 36 52  1  0  0  0  0
 36 74  1  0  0  0  0
 36 79  2  0  0  0  0
 37 63  1  0  0  0  0
 37 69  1  0  0  0  0
 37 80  2  0  0  0  0
 38 64  1  0  0  0  0
 38 75  1  0  0  0  0
 38 81  2  0  0  0  0
 39 70  1  0  0  0  0
 39 73  1  0  0  0  0
 39 82  2  0  0  0  0
 40 44  1  0  0  0  0
 41 52  1  0  0  0  0
 42 69  1  0  0  0  0
 43 54  1  0  0  0  0
 44 46  1  0  0  0  0
 45 47  1  0  0  0  0
 45 48  1  0  0  0  0
 46 51  1  0  0  0  0
 47 53  1  0  0  0  0
 48 70  1  0  0  0  0
 49 53  1  0  0  0  0
 49 70  1  0  0  0  0
 50 54  1  0  0  0  0
 50 68  1  0  0  0  0
 51 74  1  0  0  0  0
 52 69  1  0  0  0  0
 53 67  1  0  0  0  0
 54 56  1  0  0  0  0
 54 62  1  0  0  0  0
 57 64  1  0  0  0  0
 58 65  1  0  0  0  0
 59 65  1  0  0  0  0
 60 65  1  0  0  0  0
 61 76  1  0  0  0  0
 62 84  1  0  0  0  0
 63 65  1  0  0  0  0
 63 75  1  0  0  0  0
 64 76  1  0  0  0  0
 66 67  1  0  0  0  0
M  CHG  1  76   1
M  ISO  4  39 100  62 101  73 100  84 101
M  END
> <Batch ID>
0063

> <Smiles>
CNC(C)C(=O)NC(C(=O)N1Cc2cc([101O:1][101CH2:1]C3(C)CC(=O)N(c4cc([100NH:0][100C:0](=O)N5CCCC(n6nc(-c7ccc(Oc8ccc(F)cc8F)cc7)c(C(N)=O)c6N)C5)ccc4C)C3)ccc2CC1C(=O)NC1CCCc2ccccc21)C(C)(C)C

> <Shape>
0.176

> <Color>
0.192

> <Negative vol penalty>
0.000

$$$$

  -OEChem-04042323123D

 82 90  0     1  0  0  0  0  0999 V2000
  -17.1062  -30.2538   22.5694 C   0  0  0  0  0  0  0  0  0  0  0  0
  -18.3735  -29.7273   22.3407 C   0  0  0  0  0  0  0  0  0  0  0  0
  -32.6474  -18.2978   21.8081 C   0  0  0  0  0  0  0  0  0  0  0  0
  -23.0696   -9.9124   21.4599 C   0  0  0  0  0  0  0  0  0  0  0  0
  -23.8459  -10.7726   23.5800 C   0  0  0  0  0  0  0  0  0  0  0  0
  -16.4125  -29.9181   23.7312 C   0  0  0  0  0  0  0  0  0  0  0  0
  -18.9482  -28.8658   23.2744 C   0  0  0  0  0  0  0  0  0  0  0  0
  -22.6124  -24.0971   22.1167 C   0  0  0  0  0  0  0  0  0  0  0  0
  -31.8524  -19.3801   22.1850 C   0  0  0  0  0  0  0  0  0  0  0  0
  -32.0556  -17.1404   21.3021 C   0  0  0  0  0  0  0  0  0  0  0  0
  -22.3309   -8.9352   22.1269 C   0  0  0  0  0  0  0  0  0  0  0  0
  -23.1072   -9.7953   24.2470 C   0  0  0  0  0  0  0  0  0  0  0  0
  -23.9982  -23.9486   22.1527 C   0  0  0  0  0  0  0  0  0  0  0  0
  -22.9150   -5.9635   23.6276 C   0  0  0  0  0  0  0  0  0  0  0  0
  -22.9781   -4.6585   23.1392 C   0  0  0  0  0  0  0  0  0  0  0  0
  -23.8380  -23.0508   24.3859 C   0  0  0  0  0  0  0  0  0  0  0  0
  -29.8737  -18.1477   21.5500 C   0  0  0  0  0  0  0  0  0  0  0  0
  -20.5906   -4.6814   22.7695 C   0  0  0  0  0  0  0  0  0  0  0  0
  -23.8272  -10.8311   22.1865 C   0  0  0  0  0  0  0  0  0  0  0  0
  -24.1608  -13.1302   21.1325 C   0  0  0  0  0  0  0  0  0  0  0  0
  -16.9750  -29.0444   24.6750 C   0  0  0  0  0  0  0  0  0  0  0  0
  -21.8287  -23.7331   23.2211 C   0  0  0  0  0  0  0  0  0  0  0  0
  -18.2619  -28.5192   24.4506 C   0  0  0  0  0  0  0  0  0  0  0  0
  -22.4422  -23.1933   24.3605 C   0  0  0  0  0  0  0  0  0  0  0  0
  -30.4655  -19.3051   22.0560 C   0  0  0  0  0  0  0  0  0  0  0  0
  -30.6687  -17.0654   21.1731 C   0  0  0  0  0  0  0  0  0  0  0  0
  -22.3497   -8.8766   23.5204 C   0  0  0  0  0  0  0  0  0  0  0  0
  -24.6115  -23.4281   23.2885 C   0  0  0  0  0  0  0  0  0  0  0  0
  -21.6897   -6.6274   23.6871 C   0  0  0  0  0  0  0  0  0  0  0  0
  -21.8160   -4.0174   22.7101 C   0  0  0  0  0  0  0  0  0  0  0  0
  -20.5275   -5.9864   23.2580 C   0  0  0  0  0  0  0  0  0  0  0  0
  -24.5909  -11.8405   21.4981 C   0  0  0  0  0  0  0  0  0  0  0  0
  -25.2481  -13.6906   20.5080 C   0  0  0  0  0  0  0  0  0  0  0  0
  -27.8037  -21.8214   22.8732 C   0  0  0  0  0  0  0  0  0  0  0  0
  -26.4965  -22.1013   22.8922 C   0  0  0  0  0  0  0  0  0  1  0  0
  -22.8919  -13.7648   21.3392 C   0  0  0  0  0  0  0  0  0  0  0  0
  -28.2746  -20.4957   22.3764 C   0  0  0  0  0  0  0  0  0  0  0  0
  -19.8811  -25.2831   25.1981 C   0  0  0  0  0  0  0  0  0  0  0  0
  -19.2839  -22.3002   26.3242 C   0  0  0  0  0  0  0  0  0  0  0  0
  -20.3490  -19.0804   26.7059 C   0  0  0  0  0  0  0  0  0  0  0  0
  -30.7124  -14.7263   20.2387 C   0  0  0  0  0  0  0  0  0  0  0  0
  -16.2065  -28.7481   25.9385 C   0  0  0  0  0  0  0  0  0  0  0  0
  -20.3326  -23.8747   23.1564 C   0  0  0  0  0  0  0  0  0  0  0  0
  -21.6440  -22.7683   25.5650 C   0  0  0  0  0  0  0  0  0  0  0  0
  -16.7305  -27.5329   26.6993 C   0  0  0  0  0  0  0  0  0  0  0  0
  -29.5881  -11.6044   18.9477 C   0  0  0  0  0  0  0  0  0  0  0  0
  -18.2506  -27.5888   26.8128 C   0  0  0  0  0  0  0  0  0  0  0  0
  -28.1524  -11.4936   19.4661 C   0  0  0  0  0  0  0  0  0  0  0  0
  -30.5111  -12.2640   19.9708 C   0  0  0  0  0  0  0  0  0  0  0  0
  -28.6120  -13.4505   20.9978 C   0  0  0  0  0  0  0  0  0  0  0  0
  -18.9086  -27.5617   25.4280 C   0  0  1  0  0  0  0  0  0  0  0  0
  -19.6795  -23.9509   24.5330 C   0  0  1  0  0  0  0  0  0  0  0  0
  -27.6313  -12.8513   19.9767 C   0  0  2  0  0  0  0  0  0  0  0  0
  -19.6599  -16.8826   27.7020 C   0  0  0  0  0  0  0  0  0  0  0  0
  -19.9720  -23.3481   29.1060 C   0  0  0  0  0  0  0  0  0  0  0  0
  -20.1957  -20.9740   29.8688 C   0  0  0  0  0  0  0  0  0  0  0  0
  -18.0011  -21.8106   29.0284 C   0  0  0  0  0  0  0  0  0  0  0  0
  -20.3871  -17.7405   24.0673 C   0  0  0  0  0  0  0  0  0  0  0  0
  -19.8877  -21.4196   27.3914 C   0  0  1  0  0  0  0  0  0  0  0  0
  -19.6552  -17.7536   26.4554 C   0  0  2  0  0  0  0  0  0  0  0  0
  -19.5296  -21.8978   28.8269 C   0  0  0  0  0  0  0  0  0  0  0  0
  -25.8530  -11.5959   21.1357 N   0  0  0  0  0  0  0  0  0  0  0  0
  -26.2253  -12.7395   20.5360 N   0  0  0  0  0  0  0  0  0  0  0  0
  -20.1850  -22.9323   25.4556 N   0  0  0  0  0  0  0  0  0  0  0  0
  -29.9554  -13.5474   20.4057 N   0  0  0  0  0  0  0  0  0  0  0  0
  -25.4542  -14.8992   19.9430 N   0  0  0  0  0  0  0  0  0  0  0  0
  -21.8850  -13.0465   21.9984 N   0  0  0  0  0  0  0  0  0  0  0  0
  -29.6588  -20.4049   22.4385 N   0  0  0  0  0  0  0  0  0  0  0  0
  -30.0682  -15.8895   20.6590 N   0  0  0  0  0  0  0  0  0  0  0  0
  -18.9084  -26.2164   24.8945 N   0  0  0  0  0  0  0  0  0  0  0  0
  -19.4565  -20.0588   27.0900 N   0  0  0  0  0  0  0  0  0  0  0  0
  -20.3395  -17.0100   25.3600 N   0  3  0  0  0  0  0  0  0  0  0  0
  -22.6524  -14.9283   20.9362 O   0  0  0  0  0  0  0  0  0  0  0  0
  -27.4831  -19.6478   21.9811 O   0  0  0  0  0  0  0  0  0  0  0  0
  -20.8468  -25.4513   25.9335 O   0  0  0  0  0  0  0  0  0  0  0  0
  -18.0577  -22.4171   26.2590 O   0  0  0  0  0  0  0  0  0  0  0  0
  -21.5618  -19.2327   26.5775 O   0  0  0  0  0  0  0  0  0  0  0  0
  -31.8376  -14.7089   19.7332 O   0  0  0  0  0  0  0  0  0  0  0  0
  -21.6288   -7.9233   24.1716 O   0  0  0  0  0  0  0  0  0  0  0  0
  -25.9640  -23.2826   23.3264 O   0  0  0  0  0  0  0  0  0  1  0  0
  -21.8769   -2.7648   22.2396 F   0  0  0  0  0  0  0  0  0  0  0  0
  -19.3477   -6.6195   23.3116 F   0  0  0  0  0  0  0  0  0  0  0  0
  1  2  1  0  0  0  0
  1  6  2  0  0  0  0
  2  7  2  0  0  0  0
  3  9  2  0  0  0  0
  3 10  1  0  0  0  0
  4 11  2  0  0  0  0
  4 19  1  0  0  0  0
  5 12  1  0  0  0  0
  5 19  2  0  0  0  0
  6 21  1  0  0  0  0
  7 23  1  0  0  0  0
  8 13  2  0  0  0  0
  8 22  1  0  0  0  0
  9 25  1  0  0  0  0
 10 26  2  0  0  0  0
 11 27  1  0  0  0  0
 12 27  2  0  0  0  0
 13 28  1  0  0  0  0
 14 15  2  0  0  0  0
 14 29  1  0  0  0  0
 15 30  1  0  0  0  0
 16 24  1  0  0  0  0
 16 28  2  0  0  0  0
 17 25  2  0  0  0  0
 17 26  1  0  0  0  0
 18 30  2  0  0  0  0
 18 31  1  0  0  0  0
 19 32  1  0  0  0  0
 20 32  1  0  0  0  0
 20 33  2  0  0  0  0
 20 36  1  0  0  0  0
 21 23  2  0  0  0  0
 21 42  1  0  0  0  0
 22 24  2  0  0  0  0
 22 43  1  0  0  0  0
 23 51  1  0  0  0  0
 24 44  1  0  0  0  0
 25 68  1  0  0  0  0
 26 69  1  0  0  0  0
 27 79  1  0  0  0  0
 28 80  1  0  0  0  0
 29 31  2  0  0  0  0
 29 79  1  0  0  0  0
 30 81  1  0  0  0  0
 31 82  1  0  0  0  0
 32 62  2  0  0  0  0
 33 63  1  0  0  0  0
 33 66  1  0  0  0  0
 34 35  2  0  0  0  0
 34 37  1  0  0  0  0
 35 80  1  0  0  0  0
 36 67  1  0  0  0  0
 36 73  2  0  0  0  0
 37 68  1  0  0  0  0
 37 74  2  0  0  0  0
 38 52  1  0  0  0  0
 38 70  1  0  0  0  0
 38 75  2  0  0  0  0
 39 59  1  0  0  0  0
 39 64  1  0  0  0  0
 39 76  2  0  0  0  0
 40 60  1  0  0  0  0
 40 71  1  0  0  0  0
 40 77  2  0  0  0  0
 41 65  1  0  0  0  0
 41 69  1  0  0  0  0
 41 78  2  0  0  0  0
 42 45  1  0  0  0  0
 43 52  1  0  0  0  0
 44 64  1  0  0  0  0
 45 47  1  0  0  0  0
 46 48  1  0  0  0  0
 46 49  1  0  0  0  0
 47 51  1  0  0  0  0
 48 53  1  0  0  0  0
 49 65  1  0  0  0  0
 50 53  1  0  0  0  0
 50 65  1  0  0  0  0
 51 70  1  0  0  0  0
 52 64  1  0  0  0  0
 53 63  1  0  0  0  0
 54 60  1  0  0  0  0
 55 61  1  0  0  0  0
 56 61  1  0  0  0  0
 57 61  1  0  0  0  0
 58 72  1  0  0  0  0
 59 61  1  0  0  0  0
 59 71  1  0  0  0  0
 60 72  1  0  0  0  0
 62 63  1  0  0  0  0
M  CHG  1  72   1
M  ISO  4  35 101  41 100  69 100  80 101
M  END
> <Batch ID>
0063

> <Smiles>
CNC(C)C(=O)NC(C(=O)N1Cc2cc([101O:1][101CH:1]=CC(=O)Nc3cccc([100NH:0][100C:0](=O)N4CCCC(n5nc(-c6ccc(Oc7ccc(F)cc7F)cc6)c(C(N)=O)c5N)C4)c3)ccc2CC1C(=O)NC1CCCc2ccccc21)C(C)(C)C

> <Shape>
0.193

> <Color>
0.175

> <Negative vol penalty>
0.000

$$$$

  -OEChem-04042323123D

 86 95  0     1  0  0  0  0  0999 V2000
  -29.3272  -32.5626   25.4036 C   0  0  0  0  0  0  0  0  0  0  0  0
  -29.1141  -31.3304   24.7940 C   0  0  0  0  0  0  0  0  0  0  0  0
  -23.3054   -9.8650   23.4991 C   0  0  0  0  0  0  0  0  0  0  0  0
  -23.9735  -10.1080   21.1900 C   0  0  0  0  0  0  0  0  0  0  0  0
  -28.2424  -33.3096   25.8610 C   0  0  0  0  0  0  0  0  0  0  0  0
  -27.8161  -30.8439   24.6425 C   0  0  0  0  0  0  0  0  0  0  0  0
  -26.9877  -28.9221   20.0311 C   0  0  0  0  0  0  0  0  0  0  0  0
  -30.9677  -18.4003   20.0825 C   0  0  0  0  0  0  0  0  0  0  0  0
  -29.9598  -17.7794   20.8202 C   0  0  0  0  0  0  0  0  0  0  0  0
  -22.4972   -8.7827   23.1513 C   0  0  0  0  0  0  0  0  0  0  0  0
  -23.1653   -9.0256   20.8423 C   0  0  0  0  0  0  0  0  0  0  0  0
  -27.4881  -27.6465   19.7736 C   0  0  0  0  0  0  0  0  0  0  0  0
  -22.8967   -5.4987   22.4526 C   0  0  0  0  0  0  0  0  0  0  0  0
  -22.9507   -4.3632   23.2609 C   0  0  0  0  0  0  0  0  0  0  0  0
  -25.2945  -26.7163   20.1507 C   0  0  0  0  0  0  0  0  0  0  0  0
  -29.0695  -23.2153   17.7055 C   0  0  0  0  0  0  0  0  0  0  0  0
  -28.5276  -19.6943   20.4749 C   0  0  0  0  0  0  0  0  0  0  0  0
  -20.5931   -4.5904   23.7376 C   0  0  0  0  0  0  0  0  0  0  0  0
  -24.0435  -10.5278   22.5184 C   0  0  0  0  0  0  0  0  0  0  0  0
  -26.2311  -11.6077   23.2641 C   0  0  0  0  0  0  0  0  0  0  0  0
  -26.9298  -32.8364   25.7063 C   0  0  0  0  0  0  0  0  0  0  0  0
  -25.6370  -29.1034   20.3616 C   0  0  0  0  0  0  0  0  0  0  0  0
  -26.7129  -31.5846   25.0995 C   0  0  0  0  0  0  0  0  0  0  0  0
  -24.7789  -27.9955   20.4095 C   0  0  0  0  0  0  0  0  0  0  0  0
  -30.7557  -19.6682   19.5411 C   0  0  0  0  0  0  0  0  0  0  0  0
  -28.8485  -23.7548   18.9966 C   0  0  0  0  0  0  0  0  0  0  0  0
  -29.5356  -20.3152   19.7373 C   0  0  0  0  0  0  0  0  0  0  0  0
  -28.7398  -18.4264   21.0164 C   0  0  0  0  0  0  0  0  0  0  0  0
  -22.4271   -8.3630   21.8230 C   0  0  0  0  0  0  0  0  0  0  0  0
  -26.6422  -26.5431   19.8362 C   0  0  0  0  0  0  0  0  0  0  0  0
  -21.6909   -6.1801   22.2868 C   0  0  0  0  0  0  0  0  0  0  0  0
  -21.7990   -3.9091   23.9034 C   0  0  0  0  0  0  0  0  0  0  0  0
  -20.5391   -5.7259   22.9293 C   0  0  0  0  0  0  0  0  0  0  0  0
  -24.8782  -11.6462   22.8769 C   0  0  0  0  0  0  0  0  0  0  0  0
  -26.5593  -12.9210   23.4964 C   0  0  0  0  0  0  0  0  0  0  0  0
  -29.3475  -21.8753   17.8617 C   0  0  0  0  0  0  0  0  0  0  0  0
  -28.9983  -22.7281   19.9026 C   0  0  0  0  0  0  0  0  0  0  0  0
  -27.1123  -10.4851   23.4014 C   0  0  0  0  0  0  0  0  0  0  0  0
  -24.0785  -30.2208   22.8966 C   0  0  0  0  0  0  0  0  0  0  0  0
  -21.4892  -29.8625   20.9758 C   0  0  0  0  0  0  0  0  0  0  0  0
  -20.0623  -28.3007   18.2978 C   0  0  0  0  0  0  0  0  0  0  0  0
  -26.4479  -18.2979   22.0544 C   0  0  0  0  0  0  0  0  0  0  0  0
  -25.7922  -33.6578   26.2592 C   0  0  0  0  0  0  0  0  0  0  0  0
  -25.1069  -30.4888   20.6104 C   0  0  0  0  0  0  0  0  0  0  0  0
  -23.3164  -28.1389   20.7399 C   0  0  0  0  0  0  0  0  0  0  0  0
  -24.4244  -33.2425   25.7235 C   0  0  0  0  0  0  0  0  0  0  0  0
  -23.6331  -17.0375   23.8335 C   0  0  0  0  0  0  0  0  0  0  0  0
  -24.2694  -31.7258   25.7742 C   0  0  0  0  0  0  0  0  0  0  0  0
  -23.8174  -15.5194   23.7751 C   0  0  0  0  0  0  0  0  0  0  0  0
  -24.0818  -17.7135   22.5392 C   0  0  0  0  0  0  0  0  0  0  0  0
  -25.6278  -15.8601   22.0449 C   0  0  0  0  0  0  0  0  0  0  0  0
  -25.3181  -31.0344   24.8947 C   0  0  1  0  0  0  0  0  0  0  0  0
  -23.8275  -30.4987   21.4415 C   0  0  1  0  0  0  0  0  0  0  0  0
  -25.2501  -15.1415   23.3505 C   0  0  2  0  0  0  0  0  0  0  0  0
  -31.8566  -20.3054   18.7558 C   0  0  0  0  0  0  0  0  0  0  0  0
  -17.9215  -28.1887   16.9934 C   0  0  0  0  0  0  0  0  0  0  0  0
  -20.2200  -28.2106   23.2052 C   0  0  0  0  0  0  0  0  0  0  0  0
  -18.5627  -27.3567   21.5341 C   0  0  0  0  0  0  0  0  0  0  0  0
  -18.6579  -29.7932   22.0609 C   0  0  0  0  0  0  0  0  0  0  0  0
  -21.3937  -29.2016   15.8129 C   0  0  0  0  0  0  0  0  0  0  0  0
  -28.5148  -25.1928   19.2652 C   0  0  0  0  0  0  0  0  0  1  0  0
  -20.5114  -28.7467   20.6965 C   0  0  1  0  0  0  0  0  0  0  0  0
  -19.2891  -28.8435   17.1095 C   0  0  2  0  0  0  0  0  0  0  0  0
  -19.5160  -28.5235   21.8698 C   0  0  0  0  0  0  0  0  0  0  0  0
  -24.3809  -12.8858   22.8629 N   0  0  0  0  0  0  0  0  0  0  0  0
  -29.3018  -21.5904   19.2015 N   0  0  0  0  0  0  0  0  0  0  0  0
  -25.4270  -13.6384   23.2443 N   0  0  0  0  0  0  0  0  0  0  0  0
  -22.8471  -29.5132   20.9814 N   0  0  0  0  0  0  0  0  0  0  0  0
  -25.4493  -17.3121   22.2020 N   0  0  0  0  0  0  0  0  0  0  0  0
  -27.7030  -13.5206   23.8897 N   0  0  0  0  0  0  0  0  0  0  0  0
  -26.6128   -9.2055   23.1230 N   0  0  0  0  0  0  0  0  0  0  0  0
  -27.7162  -17.7952   21.7658 N   0  0  0  0  0  0  0  0  0  0  0  0
  -24.9411  -31.1160   23.4998 N   0  0  0  0  0  0  0  0  0  0  0  0
  -19.8735  -29.0716   19.4253 N   0  0  0  0  0  0  0  0  0  0  0  0
  -20.0387  -28.5936   15.8459 N   0  3  0  0  0  0  0  0  0  0  0  0
  -28.3028  -10.6113   23.7762 O   0  0  0  0  0  0  0  0  0  0  0  0
  -23.5289  -29.2657   23.4328 O   0  0  0  0  0  0  0  0  0  0  0  0
  -21.0642  -31.0034   21.1743 O   0  0  0  0  0  0  0  0  0  0  0  0
  -20.7608  -27.2914   18.2333 O   0  0  0  0  0  0  0  0  0  0  0  0
  -26.2021  -19.4978   22.2019 O   0  0  0  0  0  0  0  0  0  0  0  0
  -29.6224  -20.9436   16.9566 O   0  0  0  0  0  0  0  0  0  0  0  0
  -21.6387   -7.3067   21.4833 O   0  0  0  0  0  0  0  0  0  0  0  0
  -27.1282  -25.2969   19.5859 O   0  0  0  0  0  0  0  0  0  1  0  0
  -21.8507   -2.8178   24.6784 F   0  0  0  0  0  0  0  0  0  0  0  0
  -19.3776   -6.3757   22.7729 F   0  0  0  0  0  0  0  0  0  0  0  0
  -28.8314  -22.8749   21.5790 S   0  5  0  0  0  0  0  0  0  0  0  0
  1  2  1  0  0  0  0
  1  5  2  0  0  0  0
  2  6  2  0  0  0  0
  3 10  2  0  0  0  0
  3 19  1  0  0  0  0
  4 11  1  0  0  0  0
  4 19  2  0  0  0  0
  5 21  1  0  0  0  0
  6 23  1  0  0  0  0
  7 12  2  0  0  0  0
  7 22  1  0  0  0  0
  8  9  2  0  0  0  0
  8 25  1  0  0  0  0
  9 28  1  0  0  0  0
 10 29  1  0  0  0  0
 11 29  2  0  0  0  0
 12 30  1  0  0  0  0
 13 14  2  0  0  0  0
 13 31  1  0  0  0  0
 14 32  1  0  0  0  0
 15 24  1  0  0  0  0
 15 30  2  0  0  0  0
 16 26  1  0  0  0  0
 16 36  2  0  0  0  0
 17 27  1  0  0  0  0
 17 28  2  0  0  0  0
 18 32  2  0  0  0  0
 18 33  1  0  0  0  0
 19 34  1  0  0  0  0
 20 34  1  0  0  0  0
 20 35  2  0  0  0  0
 20 38  1  0  0  0  0
 21 23  2  0  0  0  0
 21 43  1  0  0  0  0
 22 24  2  0  0  0  0
 22 44  1  0  0  0  0
 23 52  1  0  0  0  0
 24 45  1  0  0  0  0
 25 27  2  0  0  0  0
 25 55  1  0  0  0  0
 26 37  2  0  0  0  0
 26 61  1  0  0  0  0
 27 66  1  0  0  0  0
 28 72  1  0  0  0  0
 29 82  1  0  0  0  0
 30 83  1  0  0  0  0
 31 33  2  0  0  0  0
 31 82  1  0  0  0  0
 32 84  1  0  0  0  0
 33 85  1  0  0  0  0
 34 65  2  0  0  0  0
 35 67  1  0  0  0  0
 35 70  1  0  0  0  0
 36 66  1  0  0  0  0
 36 81  1  0  0  0  0
 37 66  1  0  0  0  0
 37 86  1  0  0  0  0
 38 71  1  0  0  0  0
 38 76  2  0  0  0  0
 39 53  1  0  0  0  0
 39 73  1  0  0  0  0
 39 77  2  0  0  0  0
 40 62  1  0  0  0  0
 40 68  1  0  0  0  0
 40 78  2  0  0  0  0
 41 63  1  0  0  0  0
 41 74  1  0  0  0  0
 41 79  2  0  0  0  0
 42 69  1  0  0  0  0
 42 72  1  0  0  0  0
 42 80  2  0  0  0  0
 43 46  1  0  0  0  0
 44 53  1  0  0  0  0
 45 68  1  0  0  0  0
 46 48  1  0  0  0  0
 47 49  1  0  0  0  0
 47 50  1  0  0  0  0
 48 52  1  0  0  0  0
 49 54  1  0  0  0  0
 50 69  1  0  0  0  0
 51 54  1  0  0  0  0
 51 69  1  0  0  0  0
 52 73  1  0  0  0  0
 53 68  1  0  0  0  0
 54 67  1  0  0  0  0
 56 63  1  0  0  0  0
 57 64  1  0  0  0  0
 58 64  1  0  0  0  0
 59 64  1  0  0  0  0
 60 75  1  0  0  0  0
 61 83  1  0  0  0  0
 62 64  1  0  0  0  0
 62 74  1  0  0  0  0
 63 75  1  0  0  0  0
 65 67  1  0  0  0  0
M  CHG  2  75   1  86  -1
M  ISO  4  42 100  61 101  72 100  83 101
M  END
> <Batch ID>
0063

> <Smiles>
CNC(C)C(=O)NC(C(=O)N1Cc2cc([101O:1][101CH2:1]C3CC(=O)N(c4cc([100NH:0][100C:0](=O)N5CCCC(n6nc(-c7ccc(Oc8ccc(F)cc8F)cc7)c(C(N)=O)c6N)C5)ccc4C)C3=S)ccc2CC1C(=O)NC1CCCc2ccccc21)C(C)(C)C

> <Shape>
0.286

> <Color>
0.074

> <Negative vol penalty>
0.000

$$$$

  -OEChem-04042323123D

 85 93  0     1  0  0  0  0  0999 V2000
  -22.5731   -9.1270   26.7084 C   0  0  0  0  0  0  0  0  0  0  0  0
  -23.4999  -10.1523   26.5500 C   0  0  0  0  0  0  0  0  0  0  0  0
  -23.0758   -9.8675   19.9408 C   0  0  0  0  0  0  0  0  0  0  0  0
  -23.8345   -9.8750   22.2345 C   0  0  0  0  0  0  0  0  0  0  0  0
  -31.3191  -19.0821   20.6076 C   0  0  0  0  0  0  0  0  0  0  0  0
  -21.2146   -9.4255   26.8044 C   0  0  0  0  0  0  0  0  0  0  0  0
  -23.0686  -11.4768   26.4864 C   0  0  0  0  0  0  0  0  0  0  0  0
  -25.9881  -16.4070   28.6486 C   0  0  0  0  0  0  0  0  0  0  0  0
  -31.1505  -17.6975   20.5999 C   0  0  0  0  0  0  0  0  0  0  0  0
  -22.3317   -8.7145   20.1906 C   0  0  0  0  0  0  0  0  0  0  0  0
  -23.0904   -8.7220   22.4844 C   0  0  0  0  0  0  0  0  0  0  0  0
  -26.7952  -17.3636   28.0344 C   0  0  0  0  0  0  0  0  0  0  0  0
  -19.8619   -7.9244   23.0854 C   0  0  0  0  0  0  0  0  0  0  0  0
  -19.1043   -7.8848   24.2559 C   0  0  0  0  0  0  0  0  0  0  0  0
  -24.8855  -18.8196   27.8062 C   0  0  0  0  0  0  0  0  0  0  0  0
  -29.5191  -17.8863   22.3719 C   0  0  0  0  0  0  0  0  0  0  0  0
  -20.3453   -5.9475   24.9935 C   0  0  0  0  0  0  0  0  0  0  0  0
  -23.8272  -10.4478   20.9627 C   0  0  0  0  0  0  0  0  0  0  0  0
  -30.5877  -19.8688   21.4975 C   0  0  0  0  0  0  0  0  0  0  0  0
  -24.1692  -12.9729   20.8423 C   0  0  0  0  0  0  0  0  0  0  0  0
  -20.7672  -10.7551   26.7517 C   0  0  0  0  0  0  0  0  0  0  0  0
  -24.6191  -16.6455   28.8367 C   0  0  0  0  0  0  0  0  0  0  0  0
  -21.7027  -11.7933   26.5805 C   0  0  0  0  0  0  0  0  0  0  0  0
  -24.0637  -17.8655   28.4254 C   0  0  0  0  0  0  0  0  0  0  0  0
  -30.2505  -17.0996   21.4820 C   0  0  0  0  0  0  0  0  0  0  0  0
  -29.6877  -19.2709   22.3796 C   0  0  0  0  0  0  0  0  0  0  0  0
  -22.3390   -8.1417   21.4624 C   0  0  0  0  0  0  0  0  0  0  0  0
  -26.2434  -18.5689   27.6104 C   0  0  0  0  0  0  0  0  0  0  0  0
  -20.8611   -6.9755   22.8689 C   0  0  0  0  0  0  0  0  0  0  0  0
  -19.3460   -6.8963   25.2100 C   0  0  0  0  0  0  0  0  0  0  0  0
  -21.1028   -5.9871   23.8229 C   0  0  0  0  0  0  0  0  0  0  0  0
  -24.5964  -11.6386   20.7051 C   0  0  0  0  0  0  0  0  0  0  0  0
  -25.2615  -13.7223   20.4794 C   0  0  0  0  0  0  0  0  0  0  0  0
  -30.7809  -21.3044   21.4861 C   0  0  0  0  0  0  0  0  0  0  0  0
  -22.8985  -13.4889   21.2604 C   0  0  0  0  0  0  0  0  0  0  0  0
  -21.9416  -15.2653   27.8220 C   0  0  0  0  0  0  0  0  0  0  0  0
  -20.5449  -17.3825   29.8441 C   0  0  0  0  0  0  0  0  0  0  0  0
  -28.0085  -19.6038   24.2272 C   0  0  0  0  0  0  0  0  0  0  0  0
  -20.7375  -20.3511   31.5166 C   0  0  0  0  0  0  0  0  0  0  0  0
  -30.7277  -14.7677   20.6567 C   0  0  0  0  0  0  0  0  0  0  0  0
  -19.2847  -11.0252   26.8124 C   0  0  0  0  0  0  0  0  0  0  0  0
  -23.7675  -15.6144   29.5251 C   0  0  0  0  0  0  0  0  0  0  0  0
  -22.6037  -18.1786   28.6223 C   0  0  0  0  0  0  0  0  0  0  0  0
  -18.9428  -12.4824   27.1120 C   0  0  0  0  0  0  0  0  0  0  0  0
  -29.6144  -12.3534   18.2884 C   0  0  0  0  0  0  0  0  0  0  0  0
  -19.7798  -13.4165   26.2439 C   0  0  0  0  0  0  0  0  0  0  0  0
  -28.1745  -12.0620   18.7173 C   0  0  0  0  0  0  0  0  0  0  0  0
  -30.5289  -12.5824   19.4905 C   0  0  0  0  0  0  0  0  0  0  0  0
  -28.6213  -13.3073   20.8706 C   0  0  0  0  0  0  0  0  0  0  0  0
  -21.2760  -13.2445   26.5320 C   0  0  1  0  0  0  0  0  0  0  0  0
  -22.2830  -15.7529   29.2016 C   0  0  1  0  0  0  0  0  0  0  0  0
  -27.6490  -13.1338   19.6923 C   0  0  2  0  0  0  0  0  0  0  0  0
  -19.4250  -21.8307   33.0611 C   0  0  0  0  0  0  0  0  0  0  0  0
  -18.8083  -18.2825   27.5022 C   0  0  0  0  0  0  0  0  0  0  0  0
  -18.2273  -20.3354   28.8124 C   0  0  0  0  0  0  0  0  0  0  0  0
  -17.5985  -18.0834   29.6820 C   0  0  0  0  0  0  0  0  0  0  0  0
  -22.7882  -20.1489   33.6408 C   0  0  0  0  0  0  0  0  0  0  0  0
  -27.4301  -20.7784   25.0081 C   0  0  0  0  0  0  0  0  0  0  0  0
  -26.4055  -20.3565   26.0502 C   0  0  0  0  0  0  0  0  0  1  0  0
  -20.0245  -18.7943   29.7215 C   0  0  1  0  0  0  0  0  0  0  0  0
  -20.4513  -20.7128   32.9629 C   0  0  2  0  0  0  0  0  0  0  0  0
  -18.6918  -18.8675   28.9239 C   0  0  0  0  0  0  0  0  0  0  0  0
  -25.8615  -11.5426   20.2875 N   0  0  0  0  0  0  0  0  0  0  0  0
  -26.2385  -12.8261   20.1591 N   0  0  0  0  0  0  0  0  0  0  0  0
  -21.8110  -17.1360   29.2946 N   0  0  0  0  0  0  0  0  0  0  0  0
  -29.9695  -13.6135   20.3674 N   0  0  0  0  0  0  0  0  0  0  0  0
  -25.4720  -15.0537   20.4062 N   0  0  0  0  0  0  0  0  0  0  0  0
  -31.7142  -21.8697   22.2681 N   0  0  0  0  0  0  0  0  0  0  0  0
  -21.8864  -12.5798   21.5974 N   0  0  0  0  0  0  0  0  0  0  0  0
  -28.9373  -20.0510   23.2913 N   0  0  0  0  0  0  0  0  0  0  0  0
  -30.0799  -15.6930   21.4746 N   0  0  0  0  0  0  0  0  0  0  0  0
  -21.6350  -13.9193   27.7609 N   0  0  0  0  0  0  0  0  0  0  0  0
  -19.9368  -19.3165   31.0809 N   0  0  0  0  0  0  0  0  0  0  0  0
  -30.0299  -22.0839   20.6922 N   0  3  0  0  0  0  0  0  0  0  0  0
  -21.7002  -21.1605   33.6417 N   0  3  0  0  0  0  0  0  0  0  0  0
  -22.6622  -14.7195   21.3174 O   0  0  0  0  0  0  0  0  0  0  0  0
  -21.9540  -16.0522   26.8828 O   0  0  0  0  0  0  0  0  0  0  0  0
  -19.8565  -16.5315   30.4130 O   0  0  0  0  0  0  0  0  0  0  0  0
  -27.6635  -18.4460   24.4387 O   0  0  0  0  0  0  0  0  0  0  0  0
  -21.5838  -20.9309   30.8399 O   0  0  0  0  0  0  0  0  0  0  0  0
  -31.8570  -14.9363   20.1897 O   0  0  0  0  0  0  0  0  0  0  0  0
  -21.6129   -7.0167   21.7066 O   0  0  0  0  0  0  0  0  0  0  0  0
  -27.0288  -19.5041   27.0100 O   0  0  0  0  0  0  0  0  0  1  0  0
  -18.6195   -6.8593   26.3347 F   0  0  0  0  0  0  0  0  0  0  0  0
  -22.0622   -5.0735   23.6210 F   0  0  0  0  0  0  0  0  0  0  0  0
  1  2  1  0  0  0  0
  1  6  2  0  0  0  0
  2  7  2  0  0  0  0
  3 10  2  0  0  0  0
  3 18  1  0  0  0  0
  4 11  1  0  0  0  0
  4 18  2  0  0  0  0
  5  9  2  0  0  0  0
  5 19  1  0  0  0  0
  6 21  1  0  0  0  0
  7 23  1  0  0  0  0
  8 12  2  0  0  0  0
  8 22  1  0  0  0  0
  9 25  1  0  0  0  0
 10 27  1  0  0  0  0
 11 27  2  0  0  0  0
 12 28  1  0  0  0  0
 13 14  2  0  0  0  0
 13 29  1  0  0  0  0
 14 30  1  0  0  0  0
 15 24  1  0  0  0  0
 15 28  2  0  0  0  0
 16 25  2  0  0  0  0
 16 26  1  0  0  0  0
 17 30  2  0  0  0  0
 17 31  1  0  0  0  0
 18 32  1  0  0  0  0
 19 26  2  0  0  0  0
 19 34  1  0  0  0  0
 20 32  1  0  0  0  0
 20 33  2  0  0  0  0
 20 35  1  0  0  0  0
 21 23  2  0  0  0  0
 21 41  1  0  0  0  0
 22 24  2  0  0  0  0
 22 42  1  0  0  0  0
 23 50  1  0  0  0  0
 24 43  1  0  0  0  0
 25 71  1  0  0  0  0
 26 70  1  0  0  0  0
 27 82  1  0  0  0  0
 28 83  1  0  0  0  0
 29 31  2  0  0  0  0
 29 82  1  0  0  0  0
 30 84  1  0  0  0  0
 31 85  1  0  0  0  0
 32 63  2  0  0  0  0
 33 64  1  0  0  0  0
 33 67  1  0  0  0  0
 34 68  1  0  0  0  0
 34 74  2  0  0  0  0
 35 69  1  0  0  0  0
 35 76  2  0  0  0  0
 36 51  1  0  0  0  0
 36 72  1  0  0  0  0
 36 77  2  0  0  0  0
 37 60  1  0  0  0  0
 37 65  1  0  0  0  0
 37 78  2  0  0  0  0
 38 58  1  0  0  0  0
 38 70  1  0  0  0  0
 38 79  2  0  0  0  0
 39 61  1  0  0  0  0
 39 73  1  0  0  0  0
 39 80  2  0  0  0  0
 40 66  1  0  0  0  0
 40 71  1  0  0  0  0
 40 81  2  0  0  0  0
 41 44  1  0  0  0  0
 42 51  1  0  0  0  0
 43 65  1  0  0  0  0
 44 46  1  0  0  0  0
 45 47  1  0  0  0  0
 45 48  1  0  0  0  0
 46 50  1  0  0  0  0
 47 52  1  0  0  0  0
 48 66  1  0  0  0  0
 49 52  1  0  0  0  0
 49 66  1  0  0  0  0
 50 72  1  0  0  0  0
 51 65  1  0  0  0  0
 52 64  1  0  0  0  0
 53 61  1  0  0  0  0
 54 62  1  0  0  0  0
 55 62  1  0  0  0  0
 56 62  1  0  0  0  0
 57 75  1  0  0  0  0
 58 59  1  0  0  0  0
 59 83  1  0  0  0  0
 60 62  1  0  0  0  0
 60 73  1  0  0  0  0
 61 75  1  0  0  0  0
 63 64  1  0  0  0  0
M  CHG  2  74   1  75   1
M  ISO  4  40 100  59 101  71 100  83 101
M  END
> <Batch ID>
0063

> <Smiles>
CNC(C)C(=O)NC(C(=O)N1Cc2cc([101O:1][101CH2:1]CC(=O)Nc3cc([100NH:0][100C:0](=O)N4CCCC(n5nc(-c6ccc(Oc7ccc(F)cc7F)cc6)c(C(N)=O)c5N)C4)ccc3C(=N)N)ccc2CC1C(=O)NC1CCCc2ccccc21)C(C)(C)C

> <Shape>
0.182

> <Color>
0.180

> <Negative vol penalty>
0.000

$$$$

  -OEChem-04042323123D

 86 95  0     1  0  0  0  0  0999 V2000
  -26.2144  -35.2646   23.4434 C   0  0  0  0  0  0  0  0  0  0  0  0
  -26.7341  -34.0032   23.1711 C   0  0  0  0  0  0  0  0  0  0  0  0
  -26.3867  -11.9371   21.2821 C   0  0  0  0  0  0  0  0  0  0  0  0
  -25.8645  -12.9081   19.1323 C   0  0  0  0  0  0  0  0  0  0  0  0
  -24.9208  -35.3903   23.9481 C   0  0  0  0  0  0  0  0  0  0  0  0
  -25.9608  -32.8665   23.4045 C   0  0  0  0  0  0  0  0  0  0  0  0
  -26.1963  -29.5405   19.5931 C   0  0  0  0  0  0  0  0  0  0  0  0
  -29.2516  -20.6660   15.6485 C   0  0  0  0  0  0  0  0  0  0  0  0
  -29.6458  -19.5869   16.4396 C   0  0  0  0  0  0  0  0  0  0  0  0
  -25.0415  -11.6165   21.4640 C   0  0  0  0  0  0  0  0  0  0  0  0
  -24.5192  -12.5874   19.3142 C   0  0  0  0  0  0  0  0  0  0  0  0
  -27.3356  -28.7406   19.5154 C   0  0  0  0  0  0  0  0  0  0  0  0
  -22.8834   -9.2365   20.4098 C   0  0  0  0  0  0  0  0  0  0  0  0
  -22.5798   -7.9617   20.8875 C   0  0  0  0  0  0  0  0  0  0  0  0
  -26.1219  -26.9232   20.5369 C   0  0  0  0  0  0  0  0  0  0  0  0
  -30.4844  -21.1179   18.1099 C   0  0  0  0  0  0  0  0  0  0  0  0
  -21.4962   -8.9410   22.8121 C   0  0  0  0  0  0  0  0  0  0  0  0
  -26.7982  -12.5830   20.1162 C   0  0  0  0  0  0  0  0  0  0  0  0
  -29.1785  -12.1164   19.3262 C   0  0  0  0  0  0  0  0  0  0  0  0
  -24.1278  -34.2551   24.1787 C   0  0  0  0  0  0  0  0  0  0  0  0
  -25.0124  -29.0404   20.1541 C   0  0  0  0  0  0  0  0  0  0  0  0
  -24.6559  -32.9770   23.9140 C   0  0  0  0  0  0  0  0  0  0  0  0
  -24.9683  -27.7179   20.6181 C   0  0  0  0  0  0  0  0  0  0  0  0
  -29.4739  -21.9710   16.0880 C   0  0  0  0  0  0  0  0  0  0  0  0
  -30.0902  -22.1969   17.3188 C   0  0  0  0  0  0  0  0  0  0  0  0
  -30.2621  -19.8129   17.6703 C   0  0  0  0  0  0  0  0  0  0  0  0
  -24.1077  -11.9416   20.4801 C   0  0  0  0  0  0  0  0  0  0  0  0
  -27.2994  -27.4327   19.9900 C   0  0  0  0  0  0  0  0  0  0  0  0
  -22.4935  -10.3636   21.1332 C   0  0  0  0  0  0  0  0  0  0  0  0
  -21.8862   -7.8139   22.0886 C   0  0  0  0  0  0  0  0  0  0  0  0
  -21.7999  -10.2158   22.3343 C   0  0  0  0  0  0  0  0  0  0  0  0
  -28.1876  -12.9151   19.9279 C   0  0  0  0  0  0  0  0  0  0  0  0
  -30.3198  -12.8777   19.3919 C   0  0  0  0  0  0  0  0  0  0  0  0
  -31.3391  -25.4060   18.5045 C   0  0  0  0  0  0  0  0  0  0  0  0
  -30.0312  -25.6535   18.4789 C   0  0  0  0  0  0  0  0  0  0  0  0
  -31.5605  -24.0207   18.0657 C   0  0  0  0  0  0  0  0  0  0  0  0
  -29.3420  -24.4387   18.0018 C   0  0  0  0  0  0  0  0  0  0  0  0
  -29.0764  -10.8037   18.7586 C   0  0  0  0  0  0  0  0  0  0  0  0
  -23.2169  -29.8129   22.6607 C   0  0  0  0  0  0  0  0  0  0  0  0
  -21.2395  -27.5438   21.4513 C   0  0  0  0  0  0  0  0  0  0  0  0
  -20.8714  -24.7454   19.5328 C   0  0  0  0  0  0  0  0  0  0  0  0
  -31.2862  -18.7653   19.7198 C   0  0  0  0  0  0  0  0  0  0  0  0
  -22.7524  -34.4383   24.7696 C   0  0  0  0  0  0  0  0  0  0  0  0
  -23.7844  -29.9073   20.2061 C   0  0  0  0  0  0  0  0  0  0  0  0
  -23.7161  -27.1269   21.2107 C   0  0  0  0  0  0  0  0  0  0  0  0
  -21.8628  -33.2050   24.6360 C   0  0  0  0  0  0  0  0  0  0  0  0
  -32.3961  -16.2934   22.0295 C   0  0  0  0  0  0  0  0  0  0  0  0
  -22.6271  -31.9490   25.0422 C   0  0  0  0  0  0  0  0  0  0  0  0
  -31.5373  -15.0720   21.6939 C   0  0  0  0  0  0  0  0  0  0  0  0
  -31.6100  -17.5956   21.8882 C   0  0  0  0  0  0  0  0  0  0  0  0
  -30.0813  -16.5577   20.2587 C   0  0  0  0  0  0  0  0  0  0  0  0
  -23.8390  -31.7217   24.1306 C   0  0  1  0  0  0  0  0  0  0  0  0
  -22.7822  -29.4608   21.2662 C   0  0  1  0  0  0  0  0  0  0  0  0
  -30.8482  -15.2268   20.3239 C   0  0  2  0  0  0  0  0  0  0  0  0
  -29.0412  -23.1075   15.2198 C   0  0  0  0  0  0  0  0  0  0  0  0
  -19.1420  -23.0976   18.7639 C   0  0  0  0  0  0  0  0  0  0  0  0
  -21.2842  -26.2184   24.1992 C   0  0  0  0  0  0  0  0  0  0  0  0
  -20.3630  -24.1464   23.1378 C   0  0  0  0  0  0  0  0  0  0  0  0
  -19.0394  -26.2604   23.0977 C   0  0  0  0  0  0  0  0  0  0  0  0
  -21.3044  -25.4418   16.6891 C   0  0  0  0  0  0  0  0  0  0  0  0
  -29.3115  -26.9019   18.8388 C   0  0  0  0  0  0  0  0  0  1  0  0
  -21.0876  -26.0525   21.6302 C   0  0  1  0  0  0  0  0  0  0  0  0
  -19.8716  -24.3935   18.4460 C   0  0  2  0  0  0  0  0  0  0  0  0
  -20.4678  -25.6809   23.0069 C   0  0  0  0  0  0  0  0  0  0  0  0
  -28.6582  -14.0934   20.3453 N   0  0  0  0  0  0  0  0  0  0  0  0
  -29.9573  -14.0407   20.0054 N   0  0  0  0  0  0  0  0  0  0  0  0
  -30.3203  -23.4904   17.7738 N   0  0  0  0  0  0  0  0  0  0  0  0
  -22.5434  -28.0163   21.2453 N   0  0  0  0  0  0  0  0  0  0  0  0
  -30.9888  -17.6749   20.5643 N   0  0  0  0  0  0  0  0  0  0  0  0
  -31.5881  -12.6591   18.9843 N   0  0  0  0  0  0  0  0  0  0  0  0
  -27.8293  -10.1644   18.7737 N   0  0  0  0  0  0  0  0  0  0  0  0
  -30.6624  -18.7163   18.4736 N   0  0  0  0  0  0  0  0  0  0  0  0
  -23.4200  -31.1648   22.8622 N   0  0  0  0  0  0  0  0  0  0  0  0
  -20.3209  -25.5797   20.4826 N   0  0  0  0  0  0  0  0  0  0  0  0
  -20.5648  -24.2336   17.1365 N   0  3  0  0  0  0  0  0  0  0  0  0
  -32.6620  -23.5004   17.9946 O   0  0  0  0  0  0  0  0  0  0  0  0
  -28.1334  -24.3458   17.8578 O   0  0  0  0  0  0  0  0  0  0  0  0
  -30.0656  -10.2085   18.2679 O   0  0  0  0  0  0  0  0  0  0  0  0
  -23.3563  -28.9241   23.4927 O   0  0  0  0  0  0  0  0  0  0  0  0
  -20.2373  -28.2621   21.4856 O   0  0  0  0  0  0  0  0  0  0  0  0
  -22.0243  -24.3196   19.5404 O   0  0  0  0  0  0  0  0  0  0  0  0
  -32.0602  -19.6617   20.0655 O   0  0  0  0  0  0  0  0  0  0  0  0
  -22.7950  -11.6286   20.6572 O   0  0  0  0  0  0  0  0  0  0  0  0
  -28.4102  -26.6501   19.9161 O   0  0  0  0  0  0  0  0  0  1  0  0
  -21.5933   -6.5897   22.5464 F   0  0  0  0  0  0  0  0  0  0  0  0
  -21.4217  -11.2949   23.0332 F   0  0  0  0  0  0  0  0  0  0  0  0
  1  2  1  0  0  0  0
  1  5  2  0  0  0  0
  2  6  2  0  0  0  0
  3 10  2  0  0  0  0
  3 18  1  0  0  0  0
  4 11  1  0  0  0  0
  4 18  2  0  0  0  0
  5 20  1  0  0  0  0
  6 22  1  0  0  0  0
  7 12  2  0  0  0  0
  7 21  1  0  0  0  0
  8  9  2  0  0  0  0
  8 24  1  0  0  0  0
  9 26  1  0  0  0  0
 10 27  1  0  0  0  0
 11 27  2  0  0  0  0
 12 28  1  0  0  0  0
 13 14  2  0  0  0  0
 13 29  1  0  0  0  0
 14 30  1  0  0  0  0
 15 23  1  0  0  0  0
 15 28  2  0  0  0  0
 16 25  1  0  0  0  0
 16 26  2  0  0  0  0
 17 30  2  0  0  0  0
 17 31  1  0  0  0  0
 18 32  1  0  0  0  0
 19 32  1  0  0  0  0
 19 33  2  0  0  0  0
 19 38  1  0  0  0  0
 20 22  2  0  0  0  0
 20 43  1  0  0  0  0
 21 23  2  0  0  0  0
 21 44  1  0  0  0  0
 22 52  1  0  0  0  0
 23 45  1  0  0  0  0
 24 25  2  0  0  0  0
 24 55  1  0  0  0  0
 25 67  1  0  0  0  0
 26 72  1  0  0  0  0
 27 83  1  0  0  0  0
 28 84  1  0  0  0  0
 29 31  2  0  0  0  0
 29 83  1  0  0  0  0
 30 85  1  0  0  0  0
 31 86  1  0  0  0  0
 32 65  2  0  0  0  0
 33 66  1  0  0  0  0
 33 70  1  0  0  0  0
 34 35  2  0  0  0  0
 34 36  1  0  0  0  0
 35 37  1  0  0  0  0
 35 61  1  0  0  0  0
 36 67  1  0  0  0  0
 36 76  2  0  0  0  0
 37 67  1  0  0  0  0
 37 77  2  0  0  0  0
 38 71  1  0  0  0  0
 38 78  2  0  0  0  0
 39 53  1  0  0  0  0
 39 73  1  0  0  0  0
 39 79  2  0  0  0  0
 40 62  1  0  0  0  0
 40 68  1  0  0  0  0
 40 80  2  0  0  0  0
 41 63  1  0  0  0  0
 41 74  1  0  0  0  0
 41 81  2  0  0  0  0
 42 69  1  0  0  0  0
 42 72  1  0  0  0  0
 42 82  2  0  0  0  0
 43 46  1  0  0  0  0
 44 53  1  0  0  0  0
 45 68  1  0  0  0  0
 46 48  1  0  0  0  0
 47 49  1  0  0  0  0
 47 50  1  0  0  0  0
 48 52  1  0  0  0  0
 49 54  1  0  0  0  0
 50 69  1  0  0  0  0
 51 54  1  0  0  0  0
 51 69  1  0  0  0  0
 52 73  1  0  0  0  0
 53 68  1  0  0  0  0
 54 66  1  0  0  0  0
 56 63  1  0  0  0  0
 57 64  1  0  0  0  0
 58 64  1  0  0  0  0
 59 64  1  0  0  0  0
 60 75  1  0  0  0  0
 61 84  1  0  0  0  0
 62 64  1  0  0  0  0
 62 74  1  0  0  0  0
 63 75  1  0  0  0  0
 65 66  1  0  0  0  0
M  CHG  1  75   1
M  ISO  4  42 100  61 101  72 100  84 101
M  END
> <Batch ID>
0063

> <Smiles>
CNC(C)C(=O)NC(C(=O)N1Cc2cc([101O:1][101CH2:1]C3=CC(=O)N(c4cc([100NH:0][100C:0](=O)N5CCCC(n6nc(-c7ccc(Oc8ccc(F)cc8F)cc7)c(C(N)=O)c6N)C5)ccc4C)C3=O)ccc2CC1C(=O)NC1CCCc2ccccc21)C(C)(C)C

> <Shape>
0.330

> <Color>
0.092

> <Negative vol penalty>
0.000

$$$$

  -OEChem-04042323123D

 90 99  0     1  0  0  0  0  0999 V2000
  -19.6564  -29.7256   14.4049 C   0  0  0  0  0  0  0  0  0  0  0  0
  -20.7701  -29.0014   14.8178 C   0  0  0  0  0  0  0  0  0  0  0  0
  -24.2799   -9.7145   21.3440 C   0  0  0  0  0  0  0  0  0  0  0  0
  -24.9723  -10.7645   23.4068 C   0  0  0  0  0  0  0  0  0  0  0  0
  -19.5445  -31.0764   14.7314 C   0  0  0  0  0  0  0  0  0  0  0  0
  -21.7731  -29.6279   15.5566 C   0  0  0  0  0  0  0  0  0  0  0  0
  -25.1670  -27.1407   20.0065 C   0  0  0  0  0  0  0  0  0  0  0  0
  -23.9702   -8.5473   22.0421 C   0  0  0  0  0  0  0  0  0  0  0  0
  -24.6626   -9.5973   24.1049 C   0  0  0  0  0  0  0  0  0  0  0  0
  -26.4525  -26.6011   20.0154 C   0  0  0  0  0  0  0  0  0  0  0  0
  -21.4559   -7.4043   23.9927 C   0  0  0  0  0  0  0  0  0  0  0  0
  -20.2468   -6.7743   23.6981 C   0  0  0  0  0  0  0  0  0  0  0  0
  -27.3280  -28.7154   20.7787 C   0  0  0  0  0  0  0  0  0  0  0  0
  -30.4249  -19.4282   20.5532 C   0  0  0  0  0  0  0  0  0  0  0  0
  -21.4451   -4.7825   23.0393 C   0  0  0  0  0  0  0  0  0  0  0  0
  -24.7811  -10.8231   22.0264 C   0  0  0  0  0  0  0  0  0  0  0  0
  -24.2452  -13.1143   21.0410 C   0  0  0  0  0  0  0  0  0  0  0  0
  -20.5420  -31.7174   15.4829 C   0  0  0  0  0  0  0  0  0  0  0  0
  -24.9534  -28.4770   20.3738 C   0  0  0  0  0  0  0  0  0  0  0  0
  -21.6751  -30.9889   15.8924 C   0  0  0  0  0  0  0  0  0  0  0  0
  -26.0385  -29.2687   20.7761 C   0  0  0  0  0  0  0  0  0  0  0  0
  -28.3513  -20.9971   21.5637 C   0  0  0  0  0  0  0  0  0  0  0  0
  -28.0847  -19.7163   21.0797 C   0  0  0  0  0  0  0  0  0  0  0  0
  -29.6547  -21.4934   21.5425 C   0  0  0  0  0  0  0  0  0  0  0  0
  -29.1216  -18.9318   20.5745 C   0  0  0  0  0  0  0  0  0  0  0  0
  -24.1615   -8.4887   23.4225 C   0  0  0  0  0  0  0  0  0  0  0  0
  -27.5336  -27.3893   20.3988 C   0  0  0  0  0  0  0  0  0  0  0  0
  -22.6596   -6.7234   23.8105 C   0  0  0  0  0  0  0  0  0  0  0  0
  -20.2414   -5.4634   23.2215 C   0  0  0  0  0  0  0  0  0  0  0  0
  -30.6915  -20.7089   21.0373 C   0  0  0  0  0  0  0  0  0  0  0  0
  -22.6542   -5.4126   23.3338 C   0  0  0  0  0  0  0  0  0  0  0  0
  -25.1017  -12.0289   21.3057 C   0  0  0  0  0  0  0  0  0  0  0  0
  -25.0206  -13.9985   20.3315 C   0  0  0  0  0  0  0  0  0  0  0  0
  -29.9705  -24.5913   23.7369 C   0  0  0  0  0  0  0  0  0  0  0  0
  -30.2005  -25.5345   22.8136 C   0  0  0  0  0  0  0  0  0  0  0  0
  -29.6864  -23.1748   23.3676 C   0  0  0  0  0  0  0  0  0  0  0  0
  -29.7137  -27.4528   24.1843 C   0  0  0  0  0  0  0  0  0  0  0  0
  -30.4350  -26.9070   23.1914 C   0  0  0  0  0  0  0  0  0  0  0  0
  -22.8714  -13.3061   21.4039 C   0  0  0  0  0  0  0  0  0  0  0  0
  -23.8225  -31.0555   18.8986 C   0  0  0  0  0  0  0  0  0  0  0  0
  -24.0909  -32.3814   21.8468 C   0  0  0  0  0  0  0  0  0  0  0  0
  -25.5851  -32.3449   24.9149 C   0  0  0  0  0  0  0  0  0  0  0  0
  -29.8041  -16.7370   19.5433 C   0  0  0  0  0  0  0  0  0  0  0  0
  -20.3996  -33.1910   15.7711 C   0  0  0  0  0  0  0  0  0  0  0  0
  -23.5571  -29.0363   20.3846 C   0  0  0  0  0  0  0  0  0  0  0  0
  -25.8599  -30.7032   21.1989 C   0  0  0  0  0  0  0  0  0  0  0  0
  -21.3269  -33.6877   16.8773 C   0  0  0  0  0  0  0  0  0  0  0  0
  -29.5971  -13.4280   18.2455 C   0  0  0  0  0  0  0  0  0  0  0  0
  -22.7420  -33.1593   16.6650 C   0  0  0  0  0  0  0  0  0  0  0  0
  -28.3387  -12.8583   18.9042 C   0  0  0  0  0  0  0  0  0  0  0  0
  -30.3696  -14.3425   19.1945 C   0  0  0  0  0  0  0  0  0  0  0  0
  -30.6916  -23.7393   21.1673 C   0  0  0  0  0  0  0  0  0  0  0  0
  -28.3180  -14.8490   20.4610 C   0  0  0  0  0  0  0  0  0  0  0  0
  -22.7722  -31.6270   16.7166 C   0  0  1  0  0  0  0  0  0  0  0  0
  -30.2559  -25.1994   21.3476 C   0  0  1  0  0  0  0  0  0  0  0  0
  -23.5222  -30.5581   20.2842 C   0  0  1  0  0  0  0  0  0  0  0  0
  -27.4723  -13.9731   19.5223 C   0  0  2  0  0  0  0  0  0  0  0  0
  -27.2371  -21.8372   22.1061 C   0  0  0  0  0  0  0  0  0  0  0  0
  -26.6853  -19.1850   21.1033 C   0  0  0  0  0  0  0  0  0  0  0  0
  -25.6259  -33.5766   27.1009 C   0  0  0  0  0  0  0  0  0  0  0  0
  -25.7326  -34.6077   20.5590 C   0  0  0  0  0  0  0  0  0  0  0  0
  -26.5239  -35.2517   22.8454 C   0  0  0  0  0  0  0  0  0  0  0  0
  -24.0967  -35.3825   22.2846 C   0  0  0  0  0  0  0  0  0  0  0  0
  -24.6929  -29.9529   26.4120 C   0  0  0  0  0  0  0  0  0  0  0  0
  -28.9083  -25.4676   20.6692 C   0  0  0  0  0  0  0  0  0  1  0  0
  -25.1772  -33.1177   22.5931 C   0  0  1  0  0  0  0  0  0  0  0  0
  -25.0090  -32.4287   26.3169 C   0  0  2  0  0  0  0  0  0  0  0  0
  -25.3865  -34.5635   22.0607 C   0  0  0  0  0  0  0  0  0  0  0  0
  -26.3274  -12.2053   20.8051 N   0  0  0  0  0  0  0  0  0  0  0  0
  -26.2466  -13.4117   20.2186 N   0  0  0  0  0  0  0  0  0  0  0  0
  -29.9503  -22.8150   22.0371 N   0  0  0  0  0  0  0  0  0  0  0  0
  -24.4762  -31.2061   21.1866 N   0  0  0  0  0  0  0  0  0  0  0  0
  -29.4859  -15.3763   19.7379 N   0  0  0  0  0  0  0  0  0  0  0  0
  -24.7665  -15.2129   19.7995 N   0  0  0  0  0  0  0  0  0  0  0  0
  -22.2260  -12.2980   22.1329 N   0  0  0  0  0  0  0  0  0  0  0  0
  -28.8738  -17.6287   20.0762 N   0  0  0  0  0  0  0  0  0  0  0  0
  -22.7096  -31.1660   18.0870 N   0  0  0  0  0  0  0  0  0  0  0  0
  -24.8217  -33.0469   24.0062 N   0  0  0  0  0  0  0  0  0  0  0  0
  -25.2651  -31.1618   27.0587 N   0  3  0  0  0  0  0  0  0  0  0  0
  -29.2813  -22.4326   24.2621 O   0  0  0  0  0  0  0  0  0  0  0  0
  -22.2304  -14.3336   21.0770 O   0  0  0  0  0  0  0  0  0  0  0  0
  -24.9782  -31.3208   18.5891 O   0  0  0  0  0  0  0  0  0  0  0  0
  -22.9413  -32.8287   21.8555 O   0  0  0  0  0  0  0  0  0  0  0  0
  -26.6118  -31.7222   24.6527 O   0  0  0  0  0  0  0  0  0  0  0  0
  -30.8126  -17.0855   18.9240 O   0  0  0  0  0  0  0  0  0  0  0  0
  -23.8592   -7.3500   24.1041 O   0  0  0  0  0  0  0  0  0  0  0  0
  -28.7895  -26.8654   20.4077 O   0  0  0  0  0  0  0  0  0  1  0  0
  -19.0801   -4.8581   22.9401 F   0  0  0  0  0  0  0  0  0  0  0  0
  -31.9487  -21.1744   21.0133 F   0  0  0  0  0  0  0  0  0  0  0  0
  -23.8074   -4.7529   23.1579 F   0  0  0  0  0  0  0  0  0  0  0  0
  1  2  1  0  0  0  0
  1  5  2  0  0  0  0
  2  6  2  0  0  0  0
  3  8  2  0  0  0  0
  3 16  1  0  0  0  0
  4  9  1  0  0  0  0
  4 16  2  0  0  0  0
  5 18  1  0  0  0  0
  6 20  1  0  0  0  0
  7 10  2  0  0  0  0
  7 19  1  0  0  0  0
  8 26  1  0  0  0  0
  9 26  2  0  0  0  0
 10 27  1  0  0  0  0
 11 12  2  0  0  0  0
 11 28  1  0  0  0  0
 12 29  1  0  0  0  0
 13 21  1  0  0  0  0
 13 27  2  0  0  0  0
 14 25  1  0  0  0  0
 14 30  2  0  0  0  0
 15 29  2  0  0  0  0
 15 31  1  0  0  0  0
 16 32  1  0  0  0  0
 17 32  1  0  0  0  0
 17 33  2  0  0  0  0
 17 39  1  0  0  0  0
 18 20  2  0  0  0  0
 18 44  1  0  0  0  0
 19 21  2  0  0  0  0
 19 45  1  0  0  0  0
 20 54  1  0  0  0  0
 21 46  1  0  0  0  0
 22 23  1  0  0  0  0
 22 24  2  0  0  0  0
 22 58  1  0  0  0  0
 23 25  2  0  0  0  0
 23 59  1  0  0  0  0
 24 30  1  0  0  0  0
 24 71  1  0  0  0  0
 25 76  1  0  0  0  0
 26 86  1  0  0  0  0
 27 87  1  0  0  0  0
 28 31  2  0  0  0  0
 28 86  1  0  0  0  0
 29 88  1  0  0  0  0
 30 89  1  0  0  0  0
 31 90  1  0  0  0  0
 32 69  2  0  0  0  0
 33 70  1  0  0  0  0
 33 74  1  0  0  0  0
 34 35  2  0  0  0  0
 34 36  1  0  0  0  0
 35 38  1  0  0  0  0
 35 55  1  0  0  0  0
 36 71  1  0  0  0  0
 36 80  2  0  0  0  0
 37 38  2  0  0  0  0
 39 75  1  0  0  0  0
 39 81  2  0  0  0  0
 40 56  1  0  0  0  0
 40 77  1  0  0  0  0
 40 82  2  0  0  0  0
 41 66  1  0  0  0  0
 41 72  1  0  0  0  0
 41 83  2  0  0  0  0
 42 67  1  0  0  0  0
 42 78  1  0  0  0  0
 42 84  2  0  0  0  0
 43 73  1  0  0  0  0
 43 76  1  0  0  0  0
 43 85  2  0  0  0  0
 44 47  1  0  0  0  0
 45 56  1  0  0  0  0
 46 72  1  0  0  0  0
 47 49  1  0  0  0  0
 48 50  1  0  0  0  0
 48 51  1  0  0  0  0
 49 54  1  0  0  0  0
 50 57  1  0  0  0  0
 51 73  1  0  0  0  0
 52 55  1  0  0  0  0
 52 71  1  0  0  0  0
 53 57  1  0  0  0  0
 53 73  1  0  0  0  0
 54 77  1  0  0  0  0
 55 65  1  0  0  0  0
 56 72  1  0  0  0  0
 57 70  1  0  0  0  0
 60 67  1  0  0  0  0
 61 68  1  0  0  0  0
 62 68  1  0  0  0  0
 63 68  1  0  0  0  0
 64 79  1  0  0  0  0
 65 87  1  0  0  0  0
 66 68  1  0  0  0  0
 66 78  1  0  0  0  0
 67 79  1  0  0  0  0
 69 70  1  0  0  0  0
M  CHG  1  79   1
M  ISO  4  43 100  65 101  76 100  87 101
M  END
> <Batch ID>
0063

> <Smiles>
C=CC1=CC(=O)N(c2c(F)cc([100NH:0][100C:0](=O)N3CCCC(n4nc(-c5ccc(Oc6ccc(F)cc6F)cc5)c(C(N)=O)c4N)C3)c(C)c2C)CC1[101CH2:1][101O:1]c1ccc2c(c1)CN(C(=O)C(NC(=O)C(C)NC)C(C)(C)C)C(C(=O)NC1CCCc3ccccc31)C2

> <Shape>
0.310

> <Color>
0.149

> <Negative vol penalty>
0.000

$$$$

  -OEChem-04042323123D

 87 96  0     1  0  0  0  0  0999 V2000
  -27.0826  -23.2868   17.4000 C   0  0  0  0  0  0  0  0  0  0  0  0
  -27.1782  -23.1642   18.7825 C   0  0  0  0  0  0  0  0  0  0  0  0
  -33.6293  -11.9396   24.7109 C   0  0  0  0  0  0  0  0  0  0  0  0
  -23.2752   -9.7986   19.9260 C   0  0  0  0  0  0  0  0  0  0  0  0
  -23.7507   -9.9427   22.2904 C   0  0  0  0  0  0  0  0  0  0  0  0
  -27.5466  -22.2618   16.5766 C   0  0  0  0  0  0  0  0  0  0  0  0
  -27.7369  -22.0159   19.3424 C   0  0  0  0  0  0  0  0  0  0  0  0
  -31.6109  -19.8668   24.9719 C   0  0  0  0  0  0  0  0  0  0  0  0
  -33.0657  -11.9484   25.9867 C   0  0  0  0  0  0  0  0  0  0  0  0
  -32.8461  -12.2537   23.6002 C   0  0  0  0  0  0  0  0  0  0  0  0
  -22.5480   -8.6284   20.1435 C   0  0  0  0  0  0  0  0  0  0  0  0
  -23.0234   -8.7724   22.5079 C   0  0  0  0  0  0  0  0  0  0  0  0
  -31.5871  -18.9244   25.9990 C   0  0  0  0  0  0  0  0  0  0  0  0
  -19.7765   -7.8702   22.7604 C   0  0  0  0  0  0  0  0  0  0  0  0
  -18.8850   -7.8529   23.8330 C   0  0  0  0  0  0  0  0  0  0  0  0
  -32.4278  -17.2527   24.4766 C   0  0  0  0  0  0  0  0  0  0  0  0
  -30.9355  -12.5852   25.0413 C   0  0  0  0  0  0  0  0  0  0  0  0
  -20.0961   -6.0044   24.8097 C   0  0  0  0  0  0  0  0  0  0  0  0
  -23.8766  -10.4558   20.9995 C   0  0  0  0  0  0  0  0  0  0  0  0
  -24.1404  -12.9847   20.7933 C   0  0  0  0  0  0  0  0  0  0  0  0
  -28.1201  -21.1045   17.1266 C   0  0  0  0  0  0  0  0  0  0  0  0
  -32.0337  -19.5059   23.6844 C   0  0  0  0  0  0  0  0  0  0  0  0
  -28.2079  -20.9738   18.5257 C   0  0  0  0  0  0  0  0  0  0  0  0
  -32.4584  -18.1930   23.4355 C   0  0  0  0  0  0  0  0  0  0  0  0
  -31.7188  -12.2712   26.1520 C   0  0  0  0  0  0  0  0  0  0  0  0
  -31.4992  -12.5765   23.7654 C   0  0  0  0  0  0  0  0  0  0  0  0
  -22.4221   -8.1153   21.4344 C   0  0  0  0  0  0  0  0  0  0  0  0
  -31.9928  -17.6164   25.7508 C   0  0  0  0  0  0  0  0  0  0  0  0
  -20.8277   -6.9546   22.7123 C   0  0  0  0  0  0  0  0  0  0  0  0
  -19.0449   -6.9200   24.8577 C   0  0  0  0  0  0  0  0  0  0  0  0
  -20.9875   -6.0217   23.7370 C   0  0  0  0  0  0  0  0  0  0  0  0
  -24.6284  -11.6643   20.7754 C   0  0  0  0  0  0  0  0  0  0  0  0
  -25.2412  -13.7613   20.5255 C   0  0  0  0  0  0  0  0  0  0  0  0
  -31.0644  -13.3447   28.3523 C   0  0  0  0  0  0  0  0  0  0  0  0
  -30.5812  -11.1161   28.0324 C   0  0  0  0  0  0  0  0  0  0  0  0
  -31.2348  -14.6479   28.0961 C   0  0  0  0  0  0  0  0  0  0  0  0
  -22.8110  -13.4662   21.0308 C   0  0  0  0  0  0  0  0  0  0  0  0
  -30.6735  -19.4424   20.8123 C   0  0  0  0  0  0  0  0  0  0  0  0
  -33.6705  -18.6717   19.8396 C   0  0  0  0  0  0  0  0  0  0  0  0
  -36.7218  -17.3577   20.6206 C   0  0  0  0  0  0  0  0  0  0  0  0
  -31.1077  -12.9334   21.3026 C   0  0  0  0  0  0  0  0  0  0  0  0
  -28.5646  -20.0027   16.1975 C   0  0  0  0  0  0  0  0  0  0  0  0
  -32.0788  -20.5408   22.5939 C   0  0  0  0  0  0  0  0  0  0  0  0
  -32.9403  -17.7598   22.0758 C   0  0  0  0  0  0  0  0  0  0  0  0
  -30.6291  -12.8380   29.6923 C   0  0  0  0  0  0  0  0  0  0  0  0
  -29.9831  -11.5056   29.3621 C   0  0  0  0  0  0  0  0  0  0  0  0
  -29.4851  -18.9813   16.8604 C   0  0  0  0  0  0  0  0  0  0  0  0
  -29.4444  -13.6361   18.2339 C   0  0  0  0  0  0  0  0  0  0  0  0
  -28.9256  -18.5584   18.2150 C   0  0  0  0  0  0  0  0  0  0  0  0
  -27.9754  -13.3362   18.5408 C   0  0  0  0  0  0  0  0  0  0  0  0
  -30.3824  -12.6599   18.9416 C   0  0  0  0  0  0  0  0  0  0  0  0
  -28.7061  -12.2396   20.6973 C   0  0  0  0  0  0  0  0  0  0  0  0
  -28.8303  -19.7543   19.1702 C   0  0  1  0  0  0  0  0  0  0  0  0
  -32.0404  -19.9358   21.1940 C   0  0  1  0  0  0  0  0  0  0  0  0
  -27.7257  -13.2367   20.0585 C   0  0  2  0  0  0  0  0  0  0  0  0
  -38.9554  -16.8262   19.6077 C   0  0  0  0  0  0  0  0  0  0  0  0
  -32.4599  -16.2382   18.4531 C   0  0  0  0  0  0  0  0  0  0  0  0
  -34.7636  -15.2713   18.2912 C   0  0  0  0  0  0  0  0  0  0  0  0
  -34.2292  -17.4166   17.1358 C   0  0  0  0  0  0  0  0  0  0  0  0
  -38.1286  -19.1814   22.4791 C   0  0  0  0  0  0  0  0  0  0  0  0
  -34.4367  -17.3841   19.6553 C   0  0  1  0  0  0  0  0  0  0  0  0
  -38.1309  -17.8590   20.3602 C   0  0  2  0  0  0  0  0  0  0  0  0
  -33.9615  -16.5849   18.4091 C   0  0  0  0  0  0  0  0  0  0  0  0
  -25.9372  -11.6018   20.5165 N   0  0  0  0  0  0  0  0  0  0  0  0
  -26.2810  -12.8926   20.3692 N   0  0  0  0  0  0  0  0  0  0  0  0
  -31.1410  -12.2805   27.4623 N   0  0  0  0  0  0  0  0  0  0  0  0
  -32.9601  -18.8066   21.0408 N   0  0  0  0  0  0  0  0  0  0  0  0
  -30.0902  -12.6215   20.3762 N   0  0  0  0  0  0  0  0  0  0  0  0
  -25.4114  -15.0955   20.4107 N   0  0  0  0  0  0  0  0  0  0  0  0
  -21.7986  -12.5324   21.2905 N   0  0  0  0  0  0  0  0  0  0  0  0
  -30.7040  -12.8955   22.6368 N   0  0  0  0  0  0  0  0  0  0  0  0
  -30.1344  -20.0760   19.7089 N   0  0  0  0  0  0  0  0  0  0  0  0
  -35.8488  -17.7496   19.6279 N   0  0  0  0  0  0  0  0  0  0  0  0
  -38.8187  -18.1625   21.6469 N   0  3  0  0  0  0  0  0  0  0  0  0
  -30.5339   -9.9758   27.5916 O   0  0  0  0  0  0  0  0  0  0  0  0
  -22.5259  -14.6873   20.9971 O   0  0  0  0  0  0  0  0  0  0  0  0
  -30.1474  -18.5517   21.4692 O   0  0  0  0  0  0  0  0  0  0  0  0
  -33.7070  -19.5292   18.9537 O   0  0  0  0  0  0  0  0  0  0  0  0
  -36.4261  -16.6827   21.6041 O   0  0  0  0  0  0  0  0  0  0  0  0
  -32.2457  -13.2401   20.9379 O   0  0  0  0  0  0  0  0  0  0  0  0
  -32.9996  -14.4650   26.2118 O   0  0  0  0  0  0  0  0  0  0  0  0
  -30.5887  -14.9309   25.6087 O   0  0  0  0  0  0  0  0  0  0  0  0
  -21.7124   -6.9735   21.6471 O   0  0  0  0  0  0  0  0  0  0  0  0
  -31.9700  -16.6945   26.7515 O   0  0  0  0  0  0  0  0  0  1  0  0
  -18.1896   -6.9045   25.8885 F   0  0  0  0  0  0  0  0  0  0  0  0
  -21.9962   -5.1404   23.6969 F   0  0  0  0  0  0  0  0  0  0  0  0
  -31.7236  -15.0936   26.4977 S   0  0  0  0  0  0  0  0  0  1  0  0
  1  2  1  0  0  0  0
  1  6  2  0  0  0  0
  2  7  2  0  0  0  0
  3  9  2  0  0  0  0
  3 10  1  0  0  0  0
  4 11  2  0  0  0  0
  4 19  1  0  0  0  0
  5 12  1  0  0  0  0
  5 19  2  0  0  0  0
  6 21  1  0  0  0  0
  7 23  1  0  0  0  0
  8 13  2  0  0  0  0
  8 22  1  0  0  0  0
  9 25  1  0  0  0  0
 10 26  2  0  0  0  0
 11 27  1  0  0  0  0
 12 27  2  0  0  0  0
 13 28  1  0  0  0  0
 14 15  2  0  0  0  0
 14 29  1  0  0  0  0
 15 30  1  0  0  0  0
 16 24  1  0  0  0  0
 16 28  2  0  0  0  0
 17 25  2  0  0  0  0
 17 26  1  0  0  0  0
 18 30  2  0  0  0  0
 18 31  1  0  0  0  0
 19 32  1  0  0  0  0
 20 32  1  0  0  0  0
 20 33  2  0  0  0  0
 20 37  1  0  0  0  0
 21 23  2  0  0  0  0
 21 42  1  0  0  0  0
 22 24  2  0  0  0  0
 22 43  1  0  0  0  0
 23 53  1  0  0  0  0
 24 44  1  0  0  0  0
 25 66  1  0  0  0  0
 26 71  1  0  0  0  0
 27 83  1  0  0  0  0
 28 84  1  0  0  0  0
 29 31  2  0  0  0  0
 29 83  1  0  0  0  0
 30 85  1  0  0  0  0
 31 86  1  0  0  0  0
 32 64  2  0  0  0  0
 33 65  1  0  0  0  0
 33 69  1  0  0  0  0
 34 36  2  0  0  0  0
 34 45  1  0  0  0  0
 34 66  1  0  0  0  0
 35 46  1  0  0  0  0
 35 66  1  0  0  0  0
 35 75  2  0  0  0  0
 36 87  1  0  0  0  0
 37 70  1  0  0  0  0
 37 76  2  0  0  0  0
 38 54  1  0  0  0  0
 38 72  1  0  0  0  0
 38 77  2  0  0  0  0
 39 61  1  0  0  0  0
 39 67  1  0  0  0  0
 39 78  2  0  0  0  0
 40 62  1  0  0  0  0
 40 73  1  0  0  0  0
 40 79  2  0  0  0  0
 41 68  1  0  0  0  0
 41 71  1  0  0  0  0
 41 80  2  0  0  0  0
 42 47  1  0  0  0  0
 43 54  1  0  0  0  0
 44 67  1  0  0  0  0
 45 46  1  0  0  0  0
 47 49  1  0  0  0  0
 48 50  1  0  0  0  0
 48 51  1  0  0  0  0
 49 53  1  0  0  0  0
 50 55  1  0  0  0  0
 51 68  1  0  0  0  0
 52 55  1  0  0  0  0
 52 68  1  0  0  0  0
 53 72  1  0  0  0  0
 54 67  1  0  0  0  0
 55 65  1  0  0  0  0
 56 62  1  0  0  0  0
 57 63  1  0  0  0  0
 58 63  1  0  0  0  0
 59 63  1  0  0  0  0
 60 74  1  0  0  0  0
 61 63  1  0  0  0  0
 61 73  1  0  0  0  0
 62 74  1  0  0  0  0
 64 65  1  0  0  0  0
 81 87  2  0  0  0  0
 82 87  2  0  0  0  0
 84 87  1  0  0  0  0
M  CHG  1  74   1
M  ISO  4  41 100  71 100  84 101  87 101
M  END
> <Batch ID>
0063

> <Smiles>
CNC(C)C(=O)NC(C(=O)N1Cc2cc([101O:1][101S:1](=O)(=O)C=C3CCC(=O)N3c3cccc([100NH:0][100C:0](=O)N4CCCC(n5nc(-c6ccc(Oc7ccc(F)cc7F)cc6)c(C(N)=O)c5N)C4)c3)ccc2CC1C(=O)NC1CCCc2ccccc21)C(C)(C)C

> <Shape>
0.170

> <Color>
0.172

> <Negative vol penalty>
0.000

$$$$

  -OEChem-04042323123D

 85 93  0     1  0  0  0  0  0999 V2000
  -33.7675  -19.1249   23.5049 C   0  0  0  0  0  0  0  0  0  0  0  0
  -32.7185  -19.6500   24.2527 C   0  0  0  0  0  0  0  0  0  0  0  0
  -29.4698  -26.7907   21.1257 C   0  0  0  0  0  0  0  0  0  0  0  0
  -27.6898  -25.2088   20.7176 C   0  0  0  0  0  0  0  0  0  0  0  0
  -33.5515  -18.7277   22.1860 C   0  0  0  0  0  0  0  0  0  0  0  0
  -31.4530  -19.7792   23.6816 C   0  0  0  0  0  0  0  0  0  0  0  0
  -24.5018  -19.4897   25.3886 C   0  0  0  0  0  0  0  0  0  0  0  0
  -18.2919  -28.1896   23.9168 C   0  0  0  0  0  0  0  0  0  0  0  0
  -19.4169  -28.8991   23.4966 C   0  0  0  0  0  0  0  0  0  0  0  0
  -30.2699  -25.7620   21.6230 C   0  0  0  0  0  0  0  0  0  0  0  0
  -28.4900  -24.1801   21.2147 C   0  0  0  0  0  0  0  0  0  0  0  0
  -23.3319  -20.2390   25.2718 C   0  0  0  0  0  0  0  0  0  0  0  0
  -32.9116  -23.4924   22.6647 C   0  0  0  0  0  0  0  0  0  0  0  0
  -34.2400  -23.4421   22.2422 C   0  0  0  0  0  0  0  0  0  0  0  0
  -23.0571  -19.4462   23.0101 C   0  0  0  0  0  0  0  0  0  0  0  0
  -19.8817  -27.1892   21.8542 C   0  0  0  0  0  0  0  0  0  0  0  0
  -33.5031  -23.2109   19.9530 C   0  0  0  0  0  0  0  0  0  0  0  0
  -28.1797  -26.5141   20.6731 C   0  0  0  0  0  0  0  0  0  0  0  0
  -27.2660  -28.0176   18.8259 C   0  0  0  0  0  0  0  0  0  0  0  0
  -32.2804  -18.8431   21.6016 C   0  0  0  0  0  0  0  0  0  0  0  0
  -24.9648  -18.7202   24.3116 C   0  0  0  0  0  0  0  0  0  0  0  0
  -31.2200  -19.3844   22.3533 C   0  0  0  0  0  0  0  0  0  0  0  0
  -24.2318  -18.6860   23.1167 C   0  0  0  0  0  0  0  0  0  0  0  0
  -17.9618  -26.9799   23.3058 C   0  0  0  0  0  0  0  0  0  0  0  0
  -20.2118  -28.3989   22.4652 C   0  0  0  0  0  0  0  0  0  0  0  0
  -29.7801  -24.4568   21.6674 C   0  0  0  0  0  0  0  0  0  0  0  0
  -22.6109  -20.2196   24.0815 C   0  0  0  0  0  0  0  0  0  0  0  0
  -31.8790  -23.4018   21.7314 C   0  0  0  0  0  0  0  0  0  0  0  0
  -34.5357  -23.3013   20.8864 C   0  0  0  0  0  0  0  0  0  0  0  0
  -32.1747  -23.2611   20.3755 C   0  0  0  0  0  0  0  0  0  0  0  0
  -18.7567  -26.4797   22.2745 C   0  0  0  0  0  0  0  0  0  0  0  0
  -27.3524  -27.5763   20.1599 C   0  0  0  0  0  0  0  0  0  0  0  0
  -26.3488  -29.0393   18.8610 C   0  0  0  0  0  0  0  0  0  0  0  0
  -27.9532  -27.5460   17.6593 C   0  0  0  0  0  0  0  0  0  0  0  0
  -27.5885  -18.7226   22.5172 C   0  0  0  0  0  0  0  0  0  0  0  0
  -26.2772  -16.0240   21.2841 C   0  0  0  0  0  0  0  0  0  0  0  0
  -23.4700  -14.1753   20.6936 C   0  0  0  0  0  0  0  0  0  0  0  0
  -21.8209  -30.3359   22.5382 C   0  0  0  0  0  0  0  0  0  0  0  0
  -32.1064  -18.4443   20.1575 C   0  0  0  0  0  0  0  0  0  0  0  0
  -26.2142  -17.8965   24.4627 C   0  0  0  0  0  0  0  0  0  0  0  0
  -24.6752  -17.8602   21.9377 C   0  0  0  0  0  0  0  0  0  0  0  0
  -30.6472  -18.2662   19.7463 C   0  0  0  0  0  0  0  0  0  0  0  0
  -24.6116  -32.4135   21.7818 C   0  0  0  0  0  0  0  0  0  0  0  0
  -29.8052  -19.4360   20.2458 C   0  0  0  0  0  0  0  0  0  0  0  0
  -25.6210  -31.4502   21.1531 C   0  0  0  0  0  0  0  0  0  0  0  0
  -23.8270  -31.7534   22.9142 C   0  0  0  0  0  0  0  0  0  0  0  0
  -24.1845  -29.5224   21.9323 C   0  0  0  0  0  0  0  0  0  0  0  0
  -29.8271  -19.5173   21.7769 C   0  0  1  0  0  0  0  0  0  0  0  0
  -26.8688  -17.5535   23.1280 C   0  0  1  0  0  0  0  0  0  0  0  0
  -24.9534  -30.1226   20.7439 C   0  0  2  0  0  0  0  0  0  0  0  0
  -16.7503  -26.2455   23.7792 C   0  0  0  0  0  0  0  0  0  0  0  0
  -22.7098  -12.0322   19.6323 C   0  0  0  0  0  0  0  0  0  0  0  0
  -26.5919  -17.2827   18.5226 C   0  0  0  0  0  0  0  0  0  0  0  0
  -24.9940  -15.5709   17.6369 C   0  0  0  0  0  0  0  0  0  0  0  0
  -27.1651  -14.8509   18.6320 C   0  0  0  0  0  0  0  0  0  0  0  0
  -22.4179  -13.1424   23.2597 C   0  0  0  0  0  0  0  0  0  0  0  0
  -20.0528  -22.8297   24.4353 C   0  0  0  0  0  0  0  0  0  0  0  0
  -19.8886  -23.2056   22.9692 C   0  0  0  0  0  0  0  0  0  0  0  0
  -21.3866  -22.1531   24.7284 C   0  0  0  0  0  0  0  0  0  1  0  0
  -25.3346  -15.7171   20.1456 C   0  0  1  0  0  0  0  0  0  0  0  0
  -23.1667  -12.7048   20.9174 C   0  0  2  0  0  0  0  0  0  0  0  0
  -26.0138  -15.8726   18.7556 C   0  0  0  0  0  0  0  0  0  0  0  0
  -26.5540  -28.2618   20.9825 N   0  0  0  0  0  0  0  0  0  0  0  0
  -25.9571  -29.1441   20.1632 N   0  0  0  0  0  0  0  0  0  0  0  0
  -25.9065  -17.0770   22.1325 N   0  0  0  0  0  0  0  0  0  0  0  0
  -23.2191  -30.5036   22.4520 N   0  0  0  0  0  0  0  0  0  0  0  0
  -25.8472  -29.8494   17.9046 N   0  0  0  0  0  0  0  0  0  0  0  0
  -28.8618  -26.4882   17.8009 N   0  0  0  0  0  0  0  0  0  0  0  0
  -21.3540  -29.1206   22.0384 N   0  0  0  0  0  0  0  0  0  0  0  0
  -28.9453  -18.5222   22.3486 N   0  0  0  0  0  0  0  0  0  0  0  0
  -24.8020  -14.3839   20.4046 N   0  0  0  0  0  0  0  0  0  0  0  0
  -18.5695  -23.8350   22.7439 N   0  0  0  0  0  0  0  0  0  0  0  0
  -22.0924  -12.5470   21.9381 N   0  3  0  0  0  0  0  0  0  0  0  0
  -27.7794  -28.0586   16.5276 O   0  0  0  0  0  0  0  0  0  0  0  0
  -26.9592  -19.7310   22.2195 O   0  0  0  0  0  0  0  0  0  0  0  0
  -27.3010  -15.3494   21.4202 O   0  0  0  0  0  0  0  0  0  0  0  0
  -22.6105  -15.0509   20.7641 O   0  0  0  0  0  0  0  0  0  0  0  0
  -21.0884  -31.2174   22.9949 O   0  0  0  0  0  0  0  0  0  0  0  0
  -16.9691  -24.9915   21.0912 O   0  0  0  0  0  0  0  0  0  0  0  0
  -19.3932  -24.7205   20.4791 O   0  0  0  0  0  0  0  0  0  0  0  0
  -30.5607  -23.4527   22.1523 O   0  0  0  0  0  0  0  0  0  0  0  0
  -21.4691  -20.9506   23.9645 O   0  0  0  0  0  0  0  0  0  1  0  0
  -35.8114  -23.2546   20.4806 F   0  0  0  0  0  0  0  0  0  0  0  0
  -31.1869  -23.1748   19.4740 F   0  0  0  0  0  0  0  0  0  0  0  0
  -18.3666  -24.9509   21.4774 S   0  0  0  0  0  0  0  0  0  0  0  0
  1  2  1  0  0  0  0
  1  5  2  0  0  0  0
  2  6  2  0  0  0  0
  3 10  2  0  0  0  0
  3 18  1  0  0  0  0
  4 11  1  0  0  0  0
  4 18  2  0  0  0  0
  5 20  1  0  0  0  0
  6 22  1  0  0  0  0
  7 12  2  0  0  0  0
  7 21  1  0  0  0  0
  8  9  2  0  0  0  0
  8 24  1  0  0  0  0
  9 25  1  0  0  0  0
 10 26  1  0  0  0  0
 11 26  2  0  0  0  0
 12 27  1  0  0  0  0
 13 14  2  0  0  0  0
 13 28  1  0  0  0  0
 14 29  1  0  0  0  0
 15 23  1  0  0  0  0
 15 27  2  0  0  0  0
 16 25  2  0  0  0  0
 16 31  1  0  0  0  0
 17 29  2  0  0  0  0
 17 30  1  0  0  0  0
 18 32  1  0  0  0  0
 19 32  1  0  0  0  0
 19 33  2  0  0  0  0
 19 34  1  0  0  0  0
 20 22  2  0  0  0  0
 20 39  1  0  0  0  0
 21 23  2  0  0  0  0
 21 40  1  0  0  0  0
 22 48  1  0  0  0  0
 23 41  1  0  0  0  0
 24 31  2  0  0  0  0
 24 51  1  0  0  0  0
 25 69  1  0  0  0  0
 26 81  1  0  0  0  0
 27 82  1  0  0  0  0
 28 30  2  0  0  0  0
 28 81  1  0  0  0  0
 29 83  1  0  0  0  0
 30 84  1  0  0  0  0
 31 85  1  0  0  0  0
 32 63  2  0  0  0  0
 33 64  1  0  0  0  0
 33 67  1  0  0  0  0
 34 68  1  0  0  0  0
 34 74  2  0  0  0  0
 35 49  1  0  0  0  0
 35 70  1  0  0  0  0
 35 75  2  0  0  0  0
 36 60  1  0  0  0  0
 36 65  1  0  0  0  0
 36 76  2  0  0  0  0
 37 61  1  0  0  0  0
 37 71  1  0  0  0  0
 37 77  2  0  0  0  0
 38 66  1  0  0  0  0
 38 69  1  0  0  0  0
 38 78  2  0  0  0  0
 39 42  1  0  0  0  0
 40 49  1  0  0  0  0
 41 65  1  0  0  0  0
 42 44  1  0  0  0  0
 43 45  1  0  0  0  0
 43 46  1  0  0  0  0
 44 48  1  0  0  0  0
 45 50  1  0  0  0  0
 46 66  1  0  0  0  0
 47 50  1  0  0  0  0
 47 66  1  0  0  0  0
 48 70  1  0  0  0  0
 49 65  1  0  0  0  0
 50 64  1  0  0  0  0
 52 61  1  0  0  0  0
 53 62  1  0  0  0  0
 54 62  1  0  0  0  0
 55 62  1  0  0  0  0
 56 73  1  0  0  0  0
 57 58  1  0  0  0  0
 57 59  1  0  0  0  0
 58 72  1  0  0  0  0
 59 82  1  0  0  0  0
 60 62  1  0  0  0  0
 60 71  1  0  0  0  0
 61 73  1  0  0  0  0
 63 64  1  0  0  0  0
 72 85  1  0  0  0  0
 79 85  2  0  0  0  0
 80 85  2  0  0  0  0
M  CHG  1  73   1
M  ISO  4  38 100  59 101  69 100  82 101
M  END
> <Batch ID>
0063

> <Smiles>
CNC(C)C(=O)NC(C(=O)N1Cc2cc([101O:1][101CH2:1]CCNS(=O)(=O)c3cc([100NH:0][100C:0](=O)N4CCCC(n5nc(-c6ccc(Oc7ccc(F)cc7F)cc6)c(C(N)=O)c5N)C4)ccc3C)ccc2CC1C(=O)NC1CCCc2ccccc21)C(C)(C)C

> <Shape>
0.198

> <Color>
0.087

> <Negative vol penalty>
0.000

$$$$

  -OEChem-04042323123D

 86 95  0     1  0  0  0  0  0999 V2000
  -28.6567  -12.5761   18.2894 C   0  0  0  0  0  0  0  0  0  0  0  0
  -28.0742  -13.7381   17.7934 C   0  0  0  0  0  0  0  0  0  0  0  0
  -18.1226  -29.4815   22.1739 C   0  0  0  0  0  0  0  0  0  0  0  0
  -29.0254  -25.0459   20.4135 C   0  0  0  0  0  0  0  0  0  0  0  0
  -27.1178  -23.7255   21.0878 C   0  0  0  0  0  0  0  0  0  0  0  0
  -28.0359  -11.8716   19.3200 C   0  0  0  0  0  0  0  0  0  0  0  0
  -26.8700  -14.1957   18.3272 C   0  0  0  0  0  0  0  0  0  0  0  0
  -23.3340  -20.2655   19.7310 C   0  0  0  0  0  0  0  0  0  0  0  0
  -17.5924  -28.1977   22.3027 C   0  0  0  0  0  0  0  0  0  0  0  0
  -19.4994  -29.6810   22.2758 C   0  0  0  0  0  0  0  0  0  0  0  0
  -29.8790  -24.1148   21.0051 C   0  0  0  0  0  0  0  0  0  0  0  0
  -27.9714  -22.7943   21.6794 C   0  0  0  0  0  0  0  0  0  0  0  0
  -22.0976  -20.8687   19.5047 C   0  0  0  0  0  0  0  0  0  0  0  0
  -29.9485  -20.2426   20.6793 C   0  0  0  0  0  0  0  0  0  0  0  0
  -29.6945  -18.8915   20.4438 C   0  0  0  0  0  0  0  0  0  0  0  0
  -21.1564  -19.6132   21.3369 C   0  0  0  0  0  0  0  0  0  0  0  0
  -29.4092  -18.5317   22.8158 C   0  0  0  0  0  0  0  0  0  0  0  0
  -27.6448  -24.8513   20.4549 C   0  0  0  0  0  0  0  0  0  0  0  0
  -26.2928  -25.8134   18.5173 C   0  0  0  0  0  0  0  0  0  0  0  0
  -26.8285  -12.3261   19.8733 C   0  0  0  0  0  0  0  0  0  0  0  0
  -23.4884  -19.3219   20.7568 C   0  0  0  0  0  0  0  0  0  0  0  0
  -26.2318  -13.4959   19.3654 C   0  0  0  0  0  0  0  0  0  0  0  0
  -22.3964  -19.0013   21.5758 C   0  0  0  0  0  0  0  0  0  0  0  0
  -18.4391  -27.1135   22.5335 C   0  0  0  0  0  0  0  0  0  0  0  0
  -19.8159  -27.3130   22.6355 C   0  0  0  0  0  0  0  0  0  0  0  0
  -20.3460  -28.5967   22.5066 C   0  0  0  0  0  0  0  0  0  0  0  0
  -29.3520  -22.9890   21.6381 C   0  0  0  0  0  0  0  0  0  0  0  0
  -21.0079  -20.5404   20.3058 C   0  0  0  0  0  0  0  0  0  0  0  0
  -29.9330  -20.7383   21.9831 C   0  0  0  0  0  0  0  0  0  0  0  0
  -29.4248  -18.0360   21.5120 C   0  0  0  0  0  0  0  0  0  0  0  0
  -29.6633  -19.8828   23.0513 C   0  0  0  0  0  0  0  0  0  0  0  0
  -26.7624  -25.8130   19.8445 C   0  0  0  0  0  0  0  0  0  0  0  0
  -25.4926  -26.9268   18.4366 C   0  0  0  0  0  0  0  0  0  0  0  0
  -18.7092  -23.7097   21.4475 C   0  0  0  0  0  0  0  0  0  0  0  0
  -26.5563  -24.8899   17.4527 C   0  0  0  0  0  0  0  0  0  0  0  0
  -24.2774  -16.2449   20.8739 C   0  0  0  0  0  0  0  0  0  0  0  0
  -24.2169  -16.7525   24.0772 C   0  0  0  0  0  0  0  0  0  0  0  0
  -23.0491  -18.6036   26.6957 C   0  0  0  0  0  0  0  0  0  0  0  0
  -22.4098  -30.0414   22.4987 C   0  0  0  0  0  0  0  0  0  0  0  0
  -26.1707  -11.5051   20.9540 C   0  0  0  0  0  0  0  0  0  0  0  0
  -24.8353  -18.7000   21.0051 C   0  0  0  0  0  0  0  0  0  0  0  0
  -22.5148  -18.0095   22.7031 C   0  0  0  0  0  0  0  0  0  0  0  0
  -25.0878  -12.2612   21.7195 C   0  0  0  0  0  0  0  0  0  0  0  0
  -24.9448  -31.2901   20.3327 C   0  0  0  0  0  0  0  0  0  0  0  0
  -24.1650  -12.9961   20.7525 C   0  0  0  0  0  0  0  0  0  0  0  0
  -25.6520  -30.0270   19.8362 C   0  0  0  0  0  0  0  0  0  0  0  0
  -18.2707  -24.4503   19.2225 C   0  0  0  0  0  0  0  0  0  0  0  0
  -24.5125  -31.1615   21.7923 C   0  0  0  0  0  0  0  0  0  0  0  0
  -17.5130  -25.3270   20.2017 C   0  0  0  0  0  0  0  0  0  0  0  0
  -24.4180  -28.7070   21.6031 C   0  0  0  0  0  0  0  0  0  0  0  0
  -24.9388  -14.0376   19.9352 C   0  0  1  0  0  0  0  0  0  0  0  0
  -18.5716  -23.1850   20.0292 C   0  0  1  0  0  0  0  0  0  0  0  0
  -24.7517  -17.3707   21.7488 C   0  0  1  0  0  0  0  0  0  0  0  0
  -24.8145  -28.7643   20.1188 C   0  0  2  0  0  0  0  0  0  0  0  0
  -20.7202  -26.1465   22.8831 C   0  0  0  0  0  0  0  0  0  0  0  0
  -22.8106  -19.3936   29.0656 C   0  0  0  0  0  0  0  0  0  0  0  0
  -22.2989  -14.3891   24.2893 C   0  0  0  0  0  0  0  0  0  0  0  0
  -21.7007  -15.1707   26.5913 C   0  0  0  0  0  0  0  0  0  0  0  0
  -24.0427  -14.4812   26.0795 C   0  0  0  0  0  0  0  0  0  0  0  0
  -25.2734  -20.5332   26.3987 C   0  0  0  0  0  0  0  0  0  0  0  0
  -17.8422  -25.7425   22.6682 C   0  0  0  0  0  0  0  0  0  0  0  0
  -19.8078  -22.4492   19.5493 C   0  0  0  0  0  0  0  0  0  1  0  0
  -23.1627  -16.6632   25.1541 C   0  0  1  0  0  0  0  0  0  0  0  0
  -23.7574  -19.2208   27.8881 C   0  0  2  0  0  0  0  0  0  0  0  0
  -22.7982  -15.1933   25.5062 C   0  0  0  0  0  0  0  0  0  0  0  0
  -26.2993  -26.8444   20.5556 N   0  0  0  0  0  0  0  0  0  0  0  0
  -25.5304  -27.5033   19.6721 N   0  0  0  0  0  0  0  0  0  0  0  0
  -18.0555  -24.9403   21.4832 N   0  0  0  0  0  0  0  0  0  0  0  0
  -23.8509  -17.4239   22.9020 N   0  0  0  0  0  0  0  0  0  0  0  0
  -23.7199  -29.9450   21.9838 N   0  0  0  0  0  0  0  0  0  0  0  0
  -24.7675  -27.4591   17.4300 N   0  0  0  0  0  0  0  0  0  0  0  0
  -27.4010  -23.8007   17.7068 N   0  0  0  0  0  0  0  0  0  0  0  0
  -21.7413  -28.8223   22.6061 N   0  0  0  0  0  0  0  0  0  0  0  0
  -25.1920  -15.2189   20.7320 N   0  0  0  0  0  0  0  0  0  0  0  0
  -23.6643  -17.4410   26.2818 N   0  0  0  0  0  0  0  0  0  0  0  0
  -24.3085  -20.5578   27.5281 N   0  3  0  0  0  0  0  0  0  0  0  0
  -19.2506  -23.1189   22.3701 O   0  0  0  0  0  0  0  0  0  0  0  0
  -26.0706  -25.0355   16.3054 O   0  0  0  0  0  0  0  0  0  0  0  0
  -23.1635  -16.3023   20.3664 O   0  0  0  0  0  0  0  0  0  0  0  0
  -25.3268  -16.2515   24.2744 O   0  0  0  0  0  0  0  0  0  0  0  0
  -22.0479  -19.1008   26.1851 O   0  0  0  0  0  0  0  0  0  0  0  0
  -21.9074  -31.1285   22.7951 O   0  0  0  0  0  0  0  0  0  0  0  0
  -30.1847  -22.0801   22.2152 O   0  0  0  0  0  0  0  0  0  0  0  0
  -19.7998  -21.1273   20.0866 O   0  0  0  0  0  0  0  0  0  1  0  0
  -29.1793  -16.7389   21.2855 F   0  0  0  0  0  0  0  0  0  0  0  0
  -29.6458  -20.3534   24.3059 F   0  0  0  0  0  0  0  0  0  0  0  0
  1  2  1  0  0  0  0
  1  6  2  0  0  0  0
  2  7  2  0  0  0  0
  3  9  2  0  0  0  0
  3 10  1  0  0  0  0
  4 11  2  0  0  0  0
  4 18  1  0  0  0  0
  5 12  1  0  0  0  0
  5 18  2  0  0  0  0
  6 20  1  0  0  0  0
  7 22  1  0  0  0  0
  8 13  2  0  0  0  0
  8 21  1  0  0  0  0
  9 24  1  0  0  0  0
 10 26  2  0  0  0  0
 11 27  1  0  0  0  0
 12 27  2  0  0  0  0
 13 28  1  0  0  0  0
 14 15  2  0  0  0  0
 14 29  1  0  0  0  0
 15 30  1  0  0  0  0
 16 23  1  0  0  0  0
 16 28  2  0  0  0  0
 17 30  2  0  0  0  0
 17 31  1  0  0  0  0
 18 32  1  0  0  0  0
 19 32  1  0  0  0  0
 19 33  2  0  0  0  0
 19 35  1  0  0  0  0
 20 22  2  0  0  0  0
 20 40  1  0  0  0  0
 21 23  2  0  0  0  0
 21 41  1  0  0  0  0
 22 51  1  0  0  0  0
 23 42  1  0  0  0  0
 24 25  2  0  0  0  0
 24 61  1  0  0  0  0
 25 26  1  0  0  0  0
 25 55  1  0  0  0  0
 26 73  1  0  0  0  0
 27 83  1  0  0  0  0
 28 84  1  0  0  0  0
 29 31  2  0  0  0  0
 29 83  1  0  0  0  0
 30 85  1  0  0  0  0
 31 86  1  0  0  0  0
 32 66  2  0  0  0  0
 33 67  1  0  0  0  0
 33 71  1  0  0  0  0
 34 52  1  0  0  0  0
 34 68  1  0  0  0  0
 34 77  2  0  0  0  0
 35 72  1  0  0  0  0
 35 78  2  0  0  0  0
 36 53  1  0  0  0  0
 36 74  1  0  0  0  0
 36 79  2  0  0  0  0
 37 63  1  0  0  0  0
 37 69  1  0  0  0  0
 37 80  2  0  0  0  0
 38 64  1  0  0  0  0
 38 75  1  0  0  0  0
 38 81  2  0  0  0  0
 39 70  1  0  0  0  0
 39 73  1  0  0  0  0
 39 82  2  0  0  0  0
 40 43  1  0  0  0  0
 41 53  1  0  0  0  0
 42 69  1  0  0  0  0
 43 45  1  0  0  0  0
 44 46  1  0  0  0  0
 44 48  1  0  0  0  0
 45 51  1  0  0  0  0
 46 54  1  0  0  0  0
 47 49  1  0  0  0  0
 47 52  1  0  0  0  0
 48 70  1  0  0  0  0
 49 68  1  0  0  0  0
 50 54  1  0  0  0  0
 50 70  1  0  0  0  0
 51 74  1  0  0  0  0
 52 62  1  0  0  0  0
 53 69  1  0  0  0  0
 54 67  1  0  0  0  0
 56 64  1  0  0  0  0
 57 65  1  0  0  0  0
 58 65  1  0  0  0  0
 59 65  1  0  0  0  0
 60 76  1  0  0  0  0
 61 68  1  0  0  0  0
 62 84  1  0  0  0  0
 63 65  1  0  0  0  0
 63 75  1  0  0  0  0
 64 76  1  0  0  0  0
 66 67  1  0  0  0  0
M  CHG  1  76   1
M  ISO  4  39 100  62 101  73 100  84 101
M  END
> <Batch ID>
0063

> <Smiles>
CNC(C)C(=O)NC(C(=O)N1Cc2cc([101O:1][101CH2:1]C3CCN(Cc4cccc([100NH:0][100C:0](=O)N5CCCC(n6nc(-c7ccc(Oc8ccc(F)cc8F)cc7)c(C(N)=O)c6N)C5)c4C)C3=O)ccc2CC1C(=O)NC1CCCc2ccccc21)C(C)(C)C

> <Shape>
0.212

> <Color>
0.076

> <Negative vol penalty>
0.000

$$$$

  -OEChem-04042323123D

 84 93  0     1  0  0  0  0  0999 V2000
  -22.9048  -31.2516   13.6644 C   0  0  0  0  0  0  0  0  0  0  0  0
  -23.8295  -30.5042   14.3868 C   0  0  0  0  0  0  0  0  0  0  0  0
  -22.5783  -11.3595   21.0840 C   0  0  0  0  0  0  0  0  0  0  0  0
  -24.1573   -9.8489   22.1146 C   0  0  0  0  0  0  0  0  0  0  0  0
  -22.6621  -32.5804   14.0097 C   0  0  0  0  0  0  0  0  0  0  0  0
  -24.5128  -31.0856   15.4542 C   0  0  0  0  0  0  0  0  0  0  0  0
  -24.6923  -28.0709   19.5193 C   0  0  0  0  0  0  0  0  0  0  0  0
  -29.8155  -19.4280   21.1789 C   0  0  0  0  0  0  0  0  0  0  0  0
  -27.5321  -19.5342   20.3967 C   0  0  0  0  0  0  0  0  0  0  0  0
  -29.8805  -18.0852   20.8070 C   0  0  0  0  0  0  0  0  0  0  0  0
  -27.5970  -18.1914   20.0247 C   0  0  0  0  0  0  0  0  0  0  0  0
  -21.6474  -11.0664   22.0805 C   0  0  0  0  0  0  0  0  0  0  0  0
  -23.2264   -9.5559   23.1112 C   0  0  0  0  0  0  0  0  0  0  0  0
  -25.6210  -27.0312   19.5004 C   0  0  0  0  0  0  0  0  0  0  0  0
  -20.4712   -7.6272   23.4574 C   0  0  0  0  0  0  0  0  0  0  0  0
  -20.2964   -6.2884   23.8075 C   0  0  0  0  0  0  0  0  0  0  0  0
  -27.1111  -28.3456   20.8684 C   0  0  0  0  0  0  0  0  0  0  0  0
  -20.9613   -6.7943   26.0744 C   0  0  0  0  0  0  0  0  0  0  0  0
  -23.8332  -10.7507   21.1009 C   0  0  0  0  0  0  0  0  0  0  0  0
  -24.6488  -10.8509   18.6859 C   0  0  0  0  0  0  0  0  0  0  0  0
  -23.3358  -33.1756   15.0879 C   0  0  0  0  0  0  0  0  0  0  0  0
  -24.9711  -29.2620   20.2049 C   0  0  0  0  0  0  0  0  0  0  0  0
  -24.2799  -32.4241   15.8134 C   0  0  0  0  0  0  0  0  0  0  0  0
  -26.1832  -29.3979   20.8965 C   0  0  0  0  0  0  0  0  0  0  0  0
  -28.6413  -20.1525   20.9738 C   0  0  0  0  0  0  0  0  0  0  0  0
  -28.7713  -17.4670   20.2299 C   0  0  0  0  0  0  0  0  0  0  0  0
  -21.9715  -10.1646   23.0942 C   0  0  0  0  0  0  0  0  0  0  0  0
  -26.8318  -27.1696   20.1726 C   0  0  0  0  0  0  0  0  0  0  0  0
  -20.8911   -8.5496   24.4159 C   0  0  0  0  0  0  0  0  0  0  0  0
  -20.5414   -5.8719   25.1160 C   0  0  0  0  0  0  0  0  0  0  0  0
  -21.1361   -8.1332   25.7243 C   0  0  0  0  0  0  0  0  0  0  0  0
  -24.7950  -11.0526   20.0714 C   0  0  0  0  0  0  0  0  0  0  0  0
  -25.8314  -11.2957   18.1474 C   0  0  0  0  0  0  0  0  0  0  0  0
  -23.5427  -10.3098   17.9513 C   0  0  0  0  0  0  0  0  0  0  0  0
  -25.2902  -32.3112   19.3658 C   0  0  0  0  0  0  0  0  0  0  0  0
  -25.4950  -32.7670   22.5708 C   0  0  0  0  0  0  0  0  0  0  0  0
  -27.0815  -31.1301   25.3674 C   0  0  0  0  0  0  0  0  0  0  0  0
  -29.9253  -15.2410   19.9859 C   0  0  0  0  0  0  0  0  0  0  0  0
  -23.0748  -34.6292   15.3938 C   0  0  0  0  0  0  0  0  0  0  0  0
  -23.9476  -30.3637   20.2379 C   0  0  0  0  0  0  0  0  0  0  0  0
  -26.5222  -30.6484   21.6644 C   0  0  0  0  0  0  0  0  0  0  0  0
  -23.5660  -35.0590   16.7737 C   0  0  0  0  0  0  0  0  0  0  0  0
  -29.2712  -23.2573   22.9293 C   0  0  0  0  0  0  0  0  0  0  0  0
  -30.4722  -11.8089   19.2122 C   0  0  0  0  0  0  0  0  0  0  0  0
  -24.9806  -34.5446   17.0209 C   0  0  0  0  0  0  0  0  0  0  0  0
  -28.3445  -24.2403   22.2253 C   0  0  0  0  0  0  0  0  0  0  0  0
  -29.0646  -11.2084   19.2126 C   0  0  0  0  0  0  0  0  0  0  0  0
  -28.7937  -21.8174   22.7663 C   0  0  0  0  0  0  0  0  0  0  0  0
  -30.6329  -12.8785   20.2910 C   0  0  0  0  0  0  0  0  0  0  0  0
  -27.7144  -22.4164   20.5912 C   0  0  0  0  0  0  0  0  0  0  0  0
  -28.2134  -13.3419   20.2663 C   0  0  0  0  0  0  0  0  0  0  0  0
  -25.0230  -33.0119   16.9933 C   0  0  1  0  0  0  0  0  0  0  0  0
  -24.5518  -31.7318   20.5391 C   0  0  1  0  0  0  0  0  0  0  0  0
  -28.1915  -23.8681   20.7484 C   0  0  1  0  0  0  0  0  0  0  0  0
  -27.9838  -12.3056   19.1541 C   0  0  2  0  0  0  0  0  0  0  0  0
  -26.4574  -31.0809   27.7975 C   0  0  0  0  0  0  0  0  0  0  0  0
  -27.4265  -35.1163   22.8163 C   0  0  0  0  0  0  0  0  0  0  0  0
  -28.1762  -34.1801   25.0140 C   0  0  0  0  0  0  0  0  0  0  0  0
  -25.8062  -34.8959   24.7085 C   0  0  0  0  0  0  0  0  0  0  0  0
  -27.0343  -28.1713   25.4148 C   0  0  0  0  0  0  0  0  0  0  0  0
  -27.2300  -24.8282   20.0490 C   0  0  0  0  0  0  0  0  0  1  0  0
  -26.6191  -32.7854   23.5784 C   0  0  1  0  0  0  0  0  0  0  0  0
  -26.3945  -30.3434   26.4691 C   0  0  2  0  0  0  0  0  0  0  0  0
  -27.0085  -34.2287   24.0056 C   0  0  0  0  0  0  0  0  0  0  0  0
  -25.9774  -11.5841   20.3931 N   0  0  0  0  0  0  0  0  0  0  0  0
  -26.5849  -11.7200   19.2021 N   0  0  0  0  0  0  0  0  0  0  0  0
  -28.5752  -21.5004   21.3490 N   0  0  2  0  0  0  0  0  0  0  0  0
  -25.4917  -31.6998   21.6615 N   0  0  0  0  0  0  0  0  0  0  0  0
  -29.5770  -13.8862   20.1708 N   0  0  0  0  0  0  0  0  0  0  0  0
  -26.2899  -11.3614   16.8794 N   0  0  0  0  0  0  0  0  0  0  0  0
  -23.5044   -8.9275   17.7231 N   0  0  0  0  0  0  0  0  0  0  0  0
  -28.8373  -16.1029   19.8520 N   0  0  0  0  0  0  0  0  0  0  0  0
  -24.5128  -32.4698   18.2344 N   0  0  0  0  0  0  0  0  0  0  0  0
  -26.1929  -31.9303   24.6810 N   0  0  0  0  0  0  0  0  0  0  0  0
  -27.0450  -29.0133   26.6387 N   0  3  0  0  0  0  0  0  0  0  0  0
  -22.6243  -11.0329   17.4961 O   0  0  0  0  0  0  0  0  0  0  0  0
  -26.4770  -32.5948   19.4790 O   0  0  0  0  0  0  0  0  0  0  0  0
  -24.6471  -33.6626   22.5944 O   0  0  0  0  0  0  0  0  0  0  0  0
  -28.2866  -31.0461   25.1410 O   0  0  0  0  0  0  0  0  0  0  0  0
  -31.1022  -15.6055   19.9219 O   0  0  0  0  0  0  0  0  0  0  0  0
  -21.0635   -9.8786   24.0669 O   0  0  0  0  0  0  0  0  0  0  0  0
  -27.7403  -26.1566   20.1553 O   0  0  0  0  0  0  0  0  0  1  0  0
  -20.3720   -4.5865   25.4524 F   0  0  0  0  0  0  0  0  0  0  0  0
  -21.5386   -9.0149   26.6497 F   0  0  0  0  0  0  0  0  0  0  0  0
  1  2  1  0  0  0  0
  1  5  2  0  0  0  0
  2  6  2  0  0  0  0
  3 12  2  0  0  0  0
  3 19  1  0  0  0  0
  4 13  1  0  0  0  0
  4 19  2  0  0  0  0
  5 21  1  0  0  0  0
  6 23  1  0  0  0  0
  7 14  2  0  0  0  0
  7 22  1  0  0  0  0
  8 10  2  0  0  0  0
  8 25  1  0  0  0  0
  9 11  1  0  0  0  0
  9 25  2  0  0  0  0
 10 26  1  0  0  0  0
 11 26  2  0  0  0  0
 12 27  1  0  0  0  0
 13 27  2  0  0  0  0
 14 28  1  0  0  0  0
 15 16  2  0  0  0  0
 15 29  1  0  0  0  0
 16 30  1  0  0  0  0
 17 24  1  0  0  0  0
 17 28  2  0  0  0  0
 18 30  2  0  0  0  0
 18 31  1  0  0  0  0
 19 32  1  0  0  0  0
 20 32  1  0  0  0  0
 20 33  2  0  0  0  0
 20 34  1  0  0  0  0
 21 23  2  0  0  0  0
 21 39  1  0  0  0  0
 22 24  2  0  0  0  0
 22 40  1  0  0  0  0
 23 52  1  0  0  0  0
 24 41  1  0  0  0  0
 25 67  1  0  0  0  0
 26 72  1  0  0  0  0
 27 81  1  0  0  0  0
 28 82  1  0  0  0  0
 29 31  2  0  0  0  0
 29 81  1  0  0  0  0
 30 83  1  0  0  0  0
 31 84  1  0  0  0  0
 32 65  2  0  0  0  0
 33 66  1  0  0  0  0
 33 70  1  0  0  0  0
 34 71  1  0  0  0  0
 34 76  2  0  0  0  0
 35 53  1  0  0  0  0
 35 73  1  0  0  0  0
 35 77  2  0  0  0  0
 36 62  1  0  0  0  0
 36 68  1  0  0  0  0
 36 78  2  0  0  0  0
 37 63  1  0  0  0  0
 37 74  1  0  0  0  0
 37 79  2  0  0  0  0
 38 69  1  0  0  0  0
 38 72  1  0  0  0  0
 38 80  2  0  0  0  0
 39 42  1  0  0  0  0
 40 53  1  0  0  0  0
 41 68  1  0  0  0  0
 42 45  1  0  0  0  0
 43 46  1  0  0  0  0
 43 48  1  0  0  0  0
 44 47  1  0  0  0  0
 44 49  1  0  0  0  0
 45 52  1  0  0  0  0
 46 54  1  0  0  0  0
 47 55  1  0  0  0  0
 48 67  1  0  0  0  0
 49 69  1  0  0  0  0
 50 54  1  0  0  0  0
 50 67  1  0  0  0  0
 51 55  1  0  0  0  0
 51 69  1  0  0  0  0
 52 73  1  0  0  0  0
 53 68  1  0  0  0  0
 54 61  1  0  0  0  0
 55 66  1  0  0  0  0
 56 63  1  0  0  0  0
 57 64  1  0  0  0  0
 58 64  1  0  0  0  0
 59 64  1  0  0  0  0
 60 75  1  0  0  0  0
 61 82  1  0  0  0  0
 62 64  1  0  0  0  0
 62 74  1  0  0  0  0
 63 75  1  0  0  0  0
 65 66  1  0  0  0  0
M  CHG  1  75   1
M  ISO  4  38 100  61 101  72 100  82 101
M  END
> <Batch ID>
0063

> <Smiles>
CNC(C)C(=O)NC(C(=O)N1Cc2cc([101O:1][101CH2:1]C3CCCN(c4ccc([100NH:0][100C:0](=O)N5CCCC(n6nc(-c7ccc(Oc8ccc(F)cc8F)cc7)c(C(N)=O)c6N)C5)cc4)C3)ccc2CC1C(=O)NC1CCCc2ccccc21)C(C)(C)C

> <Shape>
0.281

> <Color>
0.085

> <Negative vol penalty>
0.000

$$$$

  -OEChem-04042323123D

 87 96  0     1  0  0  0  0  0999 V2000
  -18.5321  -33.4566   22.5730 C   0  0  0  0  0  0  0  0  0  0  0  0
  -19.6930  -32.7663   22.9063 C   0  0  0  0  0  0  0  0  0  0  0  0
  -32.6938  -18.1725   22.0694 C   0  0  0  0  0  0  0  0  0  0  0  0
  -23.0866   -9.8573   21.2154 C   0  0  0  0  0  0  0  0  0  0  0  0
  -23.8820  -10.5661   23.3839 C   0  0  0  0  0  0  0  0  0  0  0  0
  -17.2922  -32.8295   22.6879 C   0  0  0  0  0  0  0  0  0  0  0  0
  -19.6145  -31.4486   23.3558 C   0  0  0  0  0  0  0  0  0  0  0  0
  -23.6348  -26.9519   22.2963 C   0  0  0  0  0  0  0  0  0  0  0  0
  -31.9052  -19.2281   22.5268 C   0  0  0  0  0  0  0  0  0  0  0  0
  -32.0944  -17.0547   21.4889 C   0  0  0  0  0  0  0  0  0  0  0  0
  -22.3500   -8.8381   21.8187 C   0  0  0  0  0  0  0  0  0  0  0  0
  -23.1452   -9.5468   23.9872 C   0  0  0  0  0  0  0  0  0  0  0  0
  -24.6743  -26.4237   23.0607 C   0  0  0  0  0  0  0  0  0  0  0  0
  -22.9359   -5.7677   23.1048 C   0  0  0  0  0  0  0  0  0  0  0  0
  -22.9911   -4.4997   22.5265 C   0  0  0  0  0  0  0  0  0  0  0  0
  -23.2042  -24.6784   23.8429 C   0  0  0  0  0  0  0  0  0  0  0  0
  -29.9177  -18.0482   21.8235 C   0  0  0  0  0  0  0  0  0  0  0  0
  -20.6009   -4.5546   22.1781 C   0  0  0  0  0  0  0  0  0  0  0  0
  -23.8527  -10.7213   21.9980 C   0  0  0  0  0  0  0  0  0  0  0  0
  -24.1856  -13.0871   21.1037 C   0  0  0  0  0  0  0  0  0  0  0  0
  -17.1992  -31.5003   23.1298 C   0  0  0  0  0  0  0  0  0  0  0  0
  -22.3671  -26.3526   22.3080 C   0  0  0  0  0  0  0  0  0  0  0  0
  -18.3721  -30.8035   23.4780 C   0  0  0  0  0  0  0  0  0  0  0  0
  -22.1510  -25.1994   23.0758 C   0  0  0  0  0  0  0  0  0  0  0  0
  -30.5171  -19.1660   22.4039 C   0  0  0  0  0  0  0  0  0  0  0  0
  -30.7063  -16.9925   21.3660 C   0  0  0  0  0  0  0  0  0  0  0  0
  -22.3792   -8.6828   23.2046 C   0  0  0  0  0  0  0  0  0  0  0  0
  -24.4583  -25.2885   23.8364 C   0  0  0  0  0  0  0  0  0  0  0  0
  -21.7133   -6.4293   23.2199 C   0  0  0  0  0  0  0  0  0  0  0  0
  -21.8236   -3.8931   22.0631 C   0  0  0  0  0  0  0  0  0  0  0  0
  -20.5458   -5.8227   22.7565 C   0  0  0  0  0  0  0  0  0  0  0  0
  -24.6144  -11.7740   21.3754 C   0  0  0  0  0  0  0  0  0  0  0  0
  -25.2699  -13.6867   20.5110 C   0  0  0  0  0  0  0  0  0  0  0  0
  -29.2825  -22.6069   23.4761 C   0  0  0  0  0  0  0  0  0  0  0  0
  -28.1861  -22.2820   24.1721 C   0  0  0  0  0  0  0  0  0  0  0  0
  -30.1796  -21.5780   22.8794 C   0  0  0  0  0  0  0  0  0  0  0  0
  -22.9204  -13.7093   21.3639 C   0  0  0  0  0  0  0  0  0  0  0  0
  -19.4538  -27.2835   23.1741 C   0  0  0  0  0  0  0  0  0  0  0  0
  -18.5895  -24.4194   21.9202 C   0  0  0  0  0  0  0  0  0  0  0  0
  -19.4873  -21.2373   21.0748 C   0  0  0  0  0  0  0  0  0  0  0  0
  -26.2536  -23.8088   23.9148 C   0  0  0  0  0  0  0  0  0  1  0  0
  -30.7352  -14.7239   20.2711 C   0  0  0  0  0  0  0  0  0  0  0  0
  -15.8330  -30.8801   23.2829 C   0  0  0  0  0  0  0  0  0  0  0  0
  -21.2636  -26.9190   21.4572 C   0  0  0  0  0  0  0  0  0  0  0  0
  -20.8141  -24.5065   23.1072 C   0  0  0  0  0  0  0  0  0  0  0  0
  -27.7575  -20.8572   24.3209 C   0  0  0  0  0  0  0  0  0  0  0  0
  -15.8653  -29.3592   23.4099 C   0  0  0  0  0  0  0  0  0  0  0  0
  -29.5909  -11.7022   18.7753 C   0  0  0  0  0  0  0  0  0  0  0  0
  -16.9346  -28.9296   24.4094 C   0  0  0  0  0  0  0  0  0  0  0  0
  -28.1589  -11.5596   19.2961 C   0  0  0  0  0  0  0  0  0  0  0  0
  -28.2922  -19.9909   23.1873 C   0  0  0  0  0  0  0  0  0  0  0  0
  -30.5239  -12.2868   19.8344 C   0  0  0  0  0  0  0  0  0  0  0  0
  -28.6366  -13.4041   20.9563 C   0  0  0  0  0  0  0  0  0  0  0  0
  -18.3299  -29.3649   23.9457 C   0  0  1  0  0  0  0  0  0  0  0  0
  -19.8721  -26.5274   21.9448 C   0  0  1  0  0  0  0  0  0  0  0  0
  -27.6461  -12.8799   19.9038 C   0  0  2  0  0  0  0  0  0  0  0  0
  -18.5546  -19.1193   20.1043 C   0  0  0  0  0  0  0  0  0  0  0  0
  -17.2003  -23.8199   24.5699 C   0  0  0  0  0  0  0  0  0  0  0  0
  -17.1267  -21.4072   23.9055 C   0  0  0  0  0  0  0  0  0  0  0  0
  -15.9236  -23.1125   22.5391 C   0  0  0  0  0  0  0  0  0  0  0  0
  -21.3634  -21.3223   18.7875 C   0  0  0  0  0  0  0  0  0  0  0  0
  -27.3372  -23.3159   24.8488 C   0  0  0  0  0  0  0  0  0  0  0  0
  -18.4486  -23.0158   22.4578 C   0  0  1  0  0  0  0  0  0  0  0  0
  -19.2651  -20.4309   19.8080 C   0  0  2  0  0  0  0  0  0  0  0  0
  -17.1996  -22.8528   23.3692 C   0  0  0  0  0  0  0  0  0  0  0  0
  -25.8729  -11.5518   20.9869 N   0  0  0  0  0  0  0  0  0  0  0  0
  -26.2442  -12.7333   20.4651 N   0  0  0  0  0  0  0  0  0  0  0  0
  -29.7020  -20.2587   22.8769 N   0  0  0  0  0  0  0  0  0  0  0  0
  -19.7651  -25.1022   22.2632 N   0  0  0  0  0  0  0  0  0  0  0  0
  -29.9758  -13.5382   20.3618 N   0  0  0  0  0  0  0  0  0  0  0  0
  -25.4755  -14.9311   20.0297 N   0  0  0  0  0  0  0  0  0  0  0  0
  -21.9163  -12.9496   21.9797 N   0  0  0  0  0  0  0  0  0  0  0  0
  -30.0981  -15.8568   20.7762 N   0  0  0  0  0  0  0  0  0  0  0  0
  -18.8166  -28.4806   22.9086 N   0  0  0  0  0  0  0  0  0  0  0  0
  -18.4614  -22.1312   21.2977 N   0  0  0  0  0  0  0  0  0  0  0  0
  -20.5688  -20.1221   19.1553 N   0  3  0  0  0  0  0  0  0  0  0  0
  -31.2498  -21.9713   22.4149 O   0  0  0  0  0  0  0  0  0  0  0  0
  -22.6816  -14.8986   21.0446 O   0  0  0  0  0  0  0  0  0  0  0  0
  -19.6903  -26.8148   24.2814 O   0  0  0  0  0  0  0  0  0  0  0  0
  -17.6928  -24.8901   21.2159 O   0  0  0  0  0  0  0  0  0  0  0  0
  -20.4706  -21.0864   21.7966 O   0  0  0  0  0  0  0  0  0  0  0  0
  -26.0767  -23.4376   22.7622 O   0  0  0  0  0  0  0  0  0  0  0  0
  -31.8565  -14.7386   19.7567 O   0  0  0  0  0  0  0  0  0  0  0  0
  -21.6603   -7.6885   23.7937 O   0  0  0  0  0  0  0  0  0  0  0  0
  -25.4711  -24.7712   24.5839 O   0  0  0  0  0  0  0  0  0  1  0  0
  -21.8769   -2.6760   21.5063 F   0  0  0  0  0  0  0  0  0  0  0  0
  -19.3684   -6.4538   22.8633 F   0  0  0  0  0  0  0  0  0  0  0  0
  1  2  1  0  0  0  0
  1  6  2  0  0  0  0
  2  7  2  0  0  0  0
  3  9  2  0  0  0  0
  3 10  1  0  0  0  0
  4 11  2  0  0  0  0
  4 19  1  0  0  0  0
  5 12  1  0  0  0  0
  5 19  2  0  0  0  0
  6 21  1  0  0  0  0
  7 23  1  0  0  0  0
  8 13  2  0  0  0  0
  8 22  1  0  0  0  0
  9 25  1  0  0  0  0
 10 26  2  0  0  0  0
 11 27  1  0  0  0  0
 12 27  2  0  0  0  0
 13 28  1  0  0  0  0
 14 15  2  0  0  0  0
 14 29  1  0  0  0  0
 15 30  1  0  0  0  0
 16 24  1  0  0  0  0
 16 28  2  0  0  0  0
 17 25  2  0  0  0  0
 17 26  1  0  0  0  0
 18 30  2  0  0  0  0
 18 31  1  0  0  0  0
 19 32  1  0  0  0  0
 20 32  1  0  0  0  0
 20 33  2  0  0  0  0
 20 37  1  0  0  0  0
 21 23  2  0  0  0  0
 21 43  1  0  0  0  0
 22 24  2  0  0  0  0
 22 44  1  0  0  0  0
 23 54  1  0  0  0  0
 24 45  1  0  0  0  0
 25 68  1  0  0  0  0
 26 73  1  0  0  0  0
 27 84  1  0  0  0  0
 28 85  1  0  0  0  0
 29 31  2  0  0  0  0
 29 84  1  0  0  0  0
 30 86  1  0  0  0  0
 31 87  1  0  0  0  0
 32 66  2  0  0  0  0
 33 67  1  0  0  0  0
 33 71  1  0  0  0  0
 34 35  2  0  0  0  0
 34 36  1  0  0  0  0
 35 46  1  0  0  0  0
 35 62  1  0  0  0  0
 36 68  1  0  0  0  0
 36 77  2  0  0  0  0
 37 72  1  0  0  0  0
 37 78  2  0  0  0  0
 38 55  1  0  0  0  0
 38 74  1  0  0  0  0
 38 79  2  0  0  0  0
 39 63  1  0  0  0  0
 39 69  1  0  0  0  0
 39 80  2  0  0  0  0
 40 64  1  0  0  0  0
 40 75  1  0  0  0  0
 40 81  2  0  0  0  0
 41 62  1  0  0  0  0
 41 82  2  0  0  0  0
 41 85  1  0  0  0  0
 42 70  1  0  0  0  0
 42 73  1  0  0  0  0
 42 83  2  0  0  0  0
 43 47  1  0  0  0  0
 44 55  1  0  0  0  0
 45 69  1  0  0  0  0
 46 51  1  0  0  0  0
 47 49  1  0  0  0  0
 48 50  1  0  0  0  0
 48 52  1  0  0  0  0
 49 54  1  0  0  0  0
 50 56  1  0  0  0  0
 51 68  1  0  0  0  0
 52 70  1  0  0  0  0
 53 56  1  0  0  0  0
 53 70  1  0  0  0  0
 54 74  1  0  0  0  0
 55 69  1  0  0  0  0
 56 67  1  0  0  0  0
 57 64  1  0  0  0  0
 58 65  1  0  0  0  0
 59 65  1  0  0  0  0
 60 65  1  0  0  0  0
 61 76  1  0  0  0  0
 63 65  1  0  0  0  0
 63 75  1  0  0  0  0
 64 76  1  0  0  0  0
 66 67  1  0  0  0  0
M  CHG  1  76   1
M  ISO  4  41 101  42 100  73 100  85 101
M  END
> <Batch ID>
0063

> <Smiles>
CNC(C)C(=O)NC(C(=O)N1Cc2cc([101O:1][101C:1](=O)C=C3CCN(c4cccc([100NH:0][100C:0](=O)N5CCCC(n6nc(-c7ccc(Oc8ccc(F)cc8F)cc7)c(C(N)=O)c6N)C5)c4)C(=O)C3)ccc2CC1C(=O)NC1CCCc2ccccc21)C(C)(C)C

> <Shape>
0.235

> <Color>
0.159

> <Negative vol penalty>
0.000

$$$$

  -OEChem-04042323123D

 83 91  0     1  0  0  0  0  0999 V2000
  -17.9797  -27.9195   22.7994 C   0  0  0  0  0  0  0  0  0  0  0  0
  -18.8161  -26.8329   23.0341 C   0  0  0  0  0  0  0  0  0  0  0  0
  -32.3957  -17.7626   23.4712 C   0  0  0  0  0  0  0  0  0  0  0  0
  -23.1728   -9.7309   19.9349 C   0  0  0  0  0  0  0  0  0  0  0  0
  -23.8477   -9.8469   22.2517 C   0  0  0  0  0  0  0  0  0  0  0  0
  -18.5240  -29.1521   22.4411 C   0  0  0  0  0  0  0  0  0  0  0  0
  -20.1973  -26.9780   22.9096 C   0  0  0  0  0  0  0  0  0  0  0  0
  -24.5078  -24.1902   26.2493 C   0  0  0  0  0  0  0  0  0  0  0  0
  -31.8473  -16.8342   22.5865 C   0  0  0  0  0  0  0  0  0  0  0  0
  -22.4565   -8.5642   20.2019 C   0  0  0  0  0  0  0  0  0  0  0  0
  -23.1315   -8.6802   22.5188 C   0  0  0  0  0  0  0  0  0  0  0  0
  -25.2980  -23.0665   26.0115 C   0  0  0  0  0  0  0  0  0  0  0  0
  -19.9099   -7.8006   23.0366 C   0  0  0  0  0  0  0  0  0  0  0  0
  -19.1122   -7.7792   24.1807 C   0  0  0  0  0  0  0  0  0  0  0  0
  -31.5632  -18.6403   24.1658 C   0  0  0  0  0  0  0  0  0  0  0  0
  -27.0810  -24.4925   25.2327 C   0  0  0  0  0  0  0  0  0  0  0  0
  -20.3856   -5.9115   25.0335 C   0  0  0  0  0  0  0  0  0  0  0  0
  -23.8684  -10.3723   20.9598 C   0  0  0  0  0  0  0  0  0  0  0  0
  -24.1356  -12.9011   20.7563 C   0  0  0  0  0  0  0  0  0  0  0  0
  -19.9132  -29.3149   22.3216 C   0  0  0  0  0  0  0  0  0  0  0  0
  -24.9952  -25.4751   25.9699 C   0  0  0  0  0  0  0  0  0  0  0  0
  -20.7607  -28.2136   22.5481 C   0  0  0  0  0  0  0  0  0  0  0  0
  -26.2960  -25.6311   25.4703 C   0  0  0  0  0  0  0  0  0  0  0  0
  -29.6339  -17.6611   23.0907 C   0  0  0  0  0  0  0  0  0  0  0  0
  -30.4664  -16.7834   22.3962 C   0  0  0  0  0  0  0  0  0  0  0  0
  -22.4358   -8.0388   21.4939 C   0  0  0  0  0  0  0  0  0  0  0  0
  -26.5837  -23.2173   25.5004 C   0  0  0  0  0  0  0  0  0  0  0  0
  -20.9453   -6.8774   22.8909 C   0  0  0  0  0  0  0  0  0  0  0  0
  -19.3501   -6.8346   25.1792 C   0  0  0  0  0  0  0  0  0  0  0  0
  -21.1832   -5.9329   23.8894 C   0  0  0  0  0  0  0  0  0  0  0  0
  -30.1823  -18.5895   23.9755 C   0  0  0  0  0  0  0  0  0  0  0  0
  -24.6090  -11.5772   20.6844 C   0  0  0  0  0  0  0  0  0  0  0  0
  -25.2165  -13.6718   20.4037 C   0  0  0  0  0  0  0  0  0  0  0  0
  -22.8352  -13.3904   21.1102 C   0  0  0  0  0  0  0  0  0  0  0  0
  -24.1310  -27.8252   24.0119 C   0  0  0  0  0  0  0  0  0  0  0  0
  -26.4731  -29.4507   25.5595 C   0  0  0  0  0  0  0  0  0  0  0  0
  -29.3580  -29.3428   27.3794 C   0  0  0  0  0  0  0  0  0  0  0  0
  -30.6374  -14.9001   20.7318 C   0  0  0  0  0  0  0  0  0  0  0  0
  -20.4523  -30.6543   21.8857 C   0  0  0  0  0  0  0  0  0  0  0  0
  -24.1401  -26.6787   26.2572 C   0  0  0  0  0  0  0  0  0  0  0  0
  -26.8735  -26.9899   25.1726 C   0  0  0  0  0  0  0  0  0  0  0  0
  -21.9481  -30.8211   22.1406 C   0  0  0  0  0  0  0  0  0  0  0  0
  -29.6860  -12.3659   18.4188 C   0  0  0  0  0  0  0  0  0  0  0  0
  -22.7102  -29.5849   21.6738 C   0  0  0  0  0  0  0  0  0  0  0  0
  -28.2414  -12.0437   18.8079 C   0  0  0  0  0  0  0  0  0  0  0  0
  -30.5490  -12.6683   19.6425 C   0  0  0  0  0  0  0  0  0  0  0  0
  -28.5712  -13.3808   20.9270 C   0  0  0  0  0  0  0  0  0  0  0  0
  -22.2655  -28.3378   22.4473 C   0  0  1  0  0  0  0  0  0  0  0  0
  -24.5497  -27.9084   25.4526 C   0  0  1  0  0  0  0  0  0  0  0  0
  -27.6479  -13.1328   19.7230 C   0  0  2  0  0  0  0  0  0  0  0  0
  -28.1526  -17.6041   22.8824 C   0  0  0  0  0  0  0  0  0  0  0  0
  -31.0571  -30.8344   28.4684 C   0  0  0  0  0  0  0  0  0  0  0  0
  -27.6741  -30.0750   22.8249 C   0  0  0  0  0  0  0  0  0  0  0  0
  -29.8011  -30.7116   23.9818 C   0  0  0  0  0  0  0  0  0  0  0  0
  -27.7054  -31.9852   24.4388 C   0  0  0  0  0  0  0  0  0  0  0  0
  -28.7846  -28.2321   30.0620 C   0  0  0  0  0  0  0  0  0  0  0  0
  -28.3080  -22.2127   24.2067 C   0  0  0  0  0  0  0  0  0  1  0  0
  -28.5644  -20.8308   23.6401 C   0  0  0  0  0  0  0  0  0  0  0  0
  -27.9565  -29.6420   25.3545 C   0  0  1  0  0  0  0  0  0  0  0  0
  -29.7688  -30.0490   28.6589 C   0  0  2  0  0  0  0  0  0  0  0  0
  -28.2730  -30.5776   24.1537 C   0  0  0  0  0  0  0  0  0  0  0  0
  -25.8906  -11.5072   20.3151 N   0  0  0  0  0  0  0  0  0  0  0  0
  -26.2318  -12.7968   20.1516 N   0  0  0  0  0  0  0  0  0  0  0  0
  -25.9962  -28.1356   25.4644 N   0  0  0  0  0  0  0  0  0  0  0  0
  -29.9265  -13.7120   20.4599 N   0  0  0  0  0  0  0  0  0  0  0  0
  -25.3878  -15.0058   20.2878 N   0  0  0  0  0  0  0  0  0  0  0  0
  -21.8405  -12.4619   21.4457 N   0  0  0  0  0  0  0  0  0  0  0  0
  -29.9321  -15.8331   21.4912 N   0  0  0  0  0  0  0  0  0  0  0  0
  -22.8646  -28.3197   23.7646 N   0  0  0  0  0  0  0  0  0  0  0  0
  -28.4883  -30.1072   26.6308 N   0  0  0  0  0  0  0  0  0  0  0  0
  -29.9795  -29.0586   29.7524 N   0  3  0  0  0  0  0  0  0  0  0  0
  -22.5588  -14.6140   21.1124 O   0  0  0  0  0  0  0  0  0  0  0  0
  -24.9006  -27.3490   23.1856 O   0  0  0  0  0  0  0  0  0  0  0  0
  -25.7648  -30.4309   25.8023 O   0  0  0  0  0  0  0  0  0  0  0  0
  -29.7706  -28.2264   27.0728 O   0  0  0  0  0  0  0  0  0  0  0  0
  -31.7770  -15.0881   20.2983 O   0  0  0  0  0  0  0  0  0  0  0  0
  -28.0407  -18.9544   25.3949 O   0  0  0  0  0  0  0  0  0  0  0  0
  -30.0142  -20.4728   25.7763 O   0  0  0  0  0  0  0  0  0  0  0  0
  -21.7368   -6.9005   21.7548 O   0  0  0  0  0  0  0  0  0  0  0  0
  -27.3569  -22.1221   25.2666 O   0  0  0  0  0  0  0  0  0  1  0  0
  -18.5851   -6.8152   26.2785 F   0  0  0  0  0  0  0  0  0  0  0  0
  -22.1773   -5.0442   23.7556 F   0  0  0  0  0  0  0  0  0  0  0  0
  -29.1614  -19.7178   24.8752 S   0  0  0  0  0  0  0  0  0  0  0  0
  1  2  1  0  0  0  0
  1  6  2  0  0  0  0
  2  7  2  0  0  0  0
  3  9  1  0  0  0  0
  3 15  2  0  0  0  0
  4 10  2  0  0  0  0
  4 18  1  0  0  0  0
  5 11  1  0  0  0  0
  5 18  2  0  0  0  0
  6 20  1  0  0  0  0
  7 22  1  0  0  0  0
  8 12  2  0  0  0  0
  8 21  1  0  0  0  0
  9 25  2  0  0  0  0
 10 26  1  0  0  0  0
 11 26  2  0  0  0  0
 12 27  1  0  0  0  0
 13 14  2  0  0  0  0
 13 28  1  0  0  0  0
 14 29  1  0  0  0  0
 15 31  1  0  0  0  0
 16 23  1  0  0  0  0
 16 27  2  0  0  0  0
 17 29  2  0  0  0  0
 17 30  1  0  0  0  0
 18 32  1  0  0  0  0
 19 32  1  0  0  0  0
 19 33  2  0  0  0  0
 19 34  1  0  0  0  0
 20 22  2  0  0  0  0
 20 39  1  0  0  0  0
 21 23  2  0  0  0  0
 21 40  1  0  0  0  0
 22 48  1  0  0  0  0
 23 41  1  0  0  0  0
 24 25  1  0  0  0  0
 24 31  2  0  0  0  0
 24 51  1  0  0  0  0
 25 68  1  0  0  0  0
 26 79  1  0  0  0  0
 27 80  1  0  0  0  0
 28 30  2  0  0  0  0
 28 79  1  0  0  0  0
 29 81  1  0  0  0  0
 30 82  1  0  0  0  0
 31 83  1  0  0  0  0
 32 62  2  0  0  0  0
 33 63  1  0  0  0  0
 33 66  1  0  0  0  0
 34 67  1  0  0  0  0
 34 72  2  0  0  0  0
 35 49  1  0  0  0  0
 35 69  1  0  0  0  0
 35 73  2  0  0  0  0
 36 59  1  0  0  0  0
 36 64  1  0  0  0  0
 36 74  2  0  0  0  0
 37 60  1  0  0  0  0
 37 70  1  0  0  0  0
 37 75  2  0  0  0  0
 38 65  1  0  0  0  0
 38 68  1  0  0  0  0
 38 76  2  0  0  0  0
 39 42  1  0  0  0  0
 40 49  1  0  0  0  0
 41 64  1  0  0  0  0
 42 44  1  0  0  0  0
 43 45  1  0  0  0  0
 43 46  1  0  0  0  0
 44 48  1  0  0  0  0
 45 50  1  0  0  0  0
 46 65  1  0  0  0  0
 47 50  1  0  0  0  0
 47 65  1  0  0  0  0
 48 69  1  0  0  0  0
 49 64  1  0  0  0  0
 50 63  1  0  0  0  0
 52 60  1  0  0  0  0
 53 61  1  0  0  0  0
 54 61  1  0  0  0  0
 55 61  1  0  0  0  0
 56 71  1  0  0  0  0
 57 58  1  0  0  0  0
 57 80  1  0  0  0  0
 58 83  1  0  0  0  0
 59 61  1  0  0  0  0
 59 70  1  0  0  0  0
 60 71  1  0  0  0  0
 62 63  1  0  0  0  0
 77 83  2  0  0  0  0
 78 83  2  0  0  0  0
M  CHG  1  71   1
M  ISO  4  38 100  57 101  68 100  80 101
M  END
> <Batch ID>
0063

> <Smiles>
CNC(C)C(=O)NC(C(=O)N1Cc2cc([101O:1][101CH2:1]CS(=O)(=O)c3cccc([100NH:0][100C:0](=O)N4CCCC(n5nc(-c6ccc(Oc7ccc(F)cc7F)cc6)c(C(N)=O)c5N)C4)c3C)ccc2CC1C(=O)NC1CCCc2ccccc21)C(C)(C)C

> <Shape>
0.277

> <Color>
0.209

> <Negative vol penalty>
0.000

$$$$

  -OEChem-04042323123D

 86 95  0     1  0  0  0  0  0999 V2000
  -23.6724  -32.8184   24.0786 C   0  0  0  0  0  0  0  0  0  0  0  0
  -23.2176  -31.5801   24.5205 C   0  0  0  0  0  0  0  0  0  0  0  0
  -33.0452  -16.8865   23.4834 C   0  0  0  0  0  0  0  0  0  0  0  0
  -23.3033  -10.1609   22.2240 C   0  0  0  0  0  0  0  0  0  0  0  0
  -23.4665   -9.6231   19.8742 C   0  0  0  0  0  0  0  0  0  0  0  0
  -24.1808  -32.9527   22.7873 C   0  0  0  0  0  0  0  0  0  0  0  0
  -23.2701  -30.4756   23.6709 C   0  0  0  0  0  0  0  0  0  0  0  0
  -26.9584  -24.5637   25.4979 C   0  0  0  0  0  0  0  0  0  0  0  0
  -32.3408  -17.7405   24.3319 C   0  0  0  0  0  0  0  0  0  0  0  0
  -32.3589  -16.1037   22.5550 C   0  0  0  0  0  0  0  0  0  0  0  0
  -22.5150   -9.0286   22.4284 C   0  0  0  0  0  0  0  0  0  0  0  0
  -22.6781   -8.4907   20.0787 C   0  0  0  0  0  0  0  0  0  0  0  0
  -27.4670  -23.3184   25.8677 C   0  0  0  0  0  0  0  0  0  0  0  0
  -19.2948   -8.1173   21.9543 C   0  0  0  0  0  0  0  0  0  0  0  0
  -18.1511   -8.2581   22.7402 C   0  0  0  0  0  0  0  0  0  0  0  0
  -26.8774  -22.4221   23.7004 C   0  0  0  0  0  0  0  0  0  0  0  0
  -19.0138   -6.6173   24.2896 C   0  0  0  0  0  0  0  0  0  0  0  0
  -23.7791  -10.4582   20.9468 C   0  0  0  0  0  0  0  0  0  0  0  0
  -24.2363  -12.9677   20.9798 C   0  0  0  0  0  0  0  0  0  0  0  0
  -24.2485  -31.8472   21.9248 C   0  0  0  0  0  0  0  0  0  0  0  0
  -26.4207  -24.7472   24.2209 C   0  0  0  0  0  0  0  0  0  0  0  0
  -23.7787  -30.5956   22.3664 C   0  0  0  0  0  0  0  0  0  0  0  0
  -26.3778  -23.6705   23.3200 C   0  0  0  0  0  0  0  0  0  0  0  0
  -30.2637  -17.0289   23.3237 C   0  0  0  0  0  0  0  0  0  0  0  0
  -30.9500  -17.8117   24.2521 C   0  0  0  0  0  0  0  0  0  0  0  0
  -30.9682  -16.1749   22.4751 C   0  0  0  0  0  0  0  0  0  0  0  0
  -22.2023   -8.1935   21.3558 C   0  0  0  0  0  0  0  0  0  0  0  0
  -27.4264  -22.2503   24.9712 C   0  0  0  0  0  0  0  0  0  0  0  0
  -20.2980   -7.2264   22.3360 C   0  0  0  0  0  0  0  0  0  0  0  0
  -18.0106   -7.5081   23.9079 C   0  0  0  0  0  0  0  0  0  0  0  0
  -20.1575   -6.4764   23.5036 C   0  0  0  0  0  0  0  0  0  0  0  0
  -24.5930  -11.6281   20.7349 C   0  0  0  0  0  0  0  0  0  0  0  0
  -25.3472  -13.6903   20.6189 C   0  0  0  0  0  0  0  0  0  0  0  0
  -29.8088  -18.2223   26.3980 C   0  0  0  0  0  0  0  0  0  0  0  0
  -30.0122  -20.0350   24.7145 C   0  0  0  0  0  0  0  0  0  0  0  0
  -30.1485  -17.0203   26.9038 C   0  0  0  0  0  0  0  0  0  0  0  0
  -23.0104  -13.5103   21.4880 C   0  0  0  0  0  0  0  0  0  0  0  0
  -24.8292  -27.1031   21.7729 C   0  0  0  0  0  0  0  0  0  0  0  0
  -26.8153  -25.3819   20.1908 C   0  0  0  0  0  0  0  0  0  0  0  0
  -29.0767  -24.1569   17.9496 C   0  0  0  0  0  0  0  0  0  0  0  0
  -30.8597  -14.4743   20.6197 C   0  0  0  0  0  0  0  0  0  0  0  0
  -24.7624  -32.0516   20.5216 C   0  0  0  0  0  0  0  0  0  0  0  0
  -25.8056  -26.0546   23.8012 C   0  0  0  0  0  0  0  0  0  0  0  0
  -25.7587  -23.9050   21.9692 C   0  0  0  0  0  0  0  0  0  0  0  0
  -28.9677  -19.1243   27.2615 C   0  0  0  0  0  0  0  0  0  0  0  0
  -25.1302  -30.7510   19.8122 C   0  0  0  0  0  0  0  0  0  0  0  0
  -29.4342  -20.5599   27.1340 C   0  0  0  0  0  0  0  0  0  0  0  0
  -29.5341  -12.2809   18.1482 C   0  0  0  0  0  0  0  0  0  0  0  0
  -24.0302  -29.7109   20.0000 C   0  0  0  0  0  0  0  0  0  0  0  0
  -28.1011  -12.0257   18.6209 C   0  0  0  0  0  0  0  0  0  0  0  0
  -30.5080  -12.3855   19.3205 C   0  0  0  0  0  0  0  0  0  0  0  0
  -28.6966  -13.0989   20.8302 C   0  0  0  0  0  0  0  0  0  0  0  0
  -23.8421  -29.3686   21.4829 C   0  0  1  0  0  0  0  0  0  0  0  0
  -29.3074  -20.9889   25.6881 C   0  0  2  0  0  0  0  0  0  1  0  0
  -26.0249  -26.3741   22.3115 C   0  0  1  0  0  0  0  0  0  0  0  0
  -27.6688  -13.0506   19.6878 C   0  0  2  0  0  0  0  0  0  0  0  0
  -28.7704  -17.1048   23.2385 C   0  0  0  0  0  0  0  0  0  0  0  0
  -29.4132  -23.7937   15.4895 C   0  0  0  0  0  0  0  0  0  0  0  0
  -24.9165  -22.9968   20.2869 C   0  0  0  0  0  0  0  0  0  0  0  0
  -25.9927  -22.1460   18.1926 C   0  0  0  0  0  0  0  0  0  0  0  0
  -24.8017  -24.3378   18.1791 C   0  0  0  0  0  0  0  0  0  0  0  0
  -31.4584  -25.9129   17.8983 C   0  0  0  0  0  0  0  0  0  0  0  0
  -27.0319  -24.1462   19.3544 C   0  0  1  0  0  0  0  0  0  0  0  0
  -29.6345  -24.7363   16.6622 C   0  0  2  0  0  0  0  0  0  0  0  0
  -25.7013  -23.4119   19.0265 C   0  0  0  0  0  0  0  0  0  0  0  0
  -25.8335  -11.5043   20.2554 N   0  0  0  0  0  0  0  0  0  0  0  0
  -26.2659  -12.7753   20.1960 N   0  0  0  0  0  0  0  0  0  0  0  0
  -30.2429  -18.7003   25.1400 N   0  0  0  0  0  0  0  0  0  0  0  0
  -26.1969  -25.2036   21.4343 N   0  0  0  0  0  0  0  0  0  0  0  0
  -30.0357  -13.3780   20.2884 N   0  0  0  0  0  0  0  0  0  0  0  0
  -25.6179  -15.0129   20.6252 N   0  0  0  0  0  0  0  0  0  0  0  0
  -21.9708  -12.6267   21.8088 N   0  0  0  0  0  0  0  0  0  0  0  0
  -30.2918  -15.3694   21.5257 N   0  0  0  0  0  0  0  0  0  0  0  0
  -24.8878  -28.4745   21.9318 N   0  0  0  0  0  0  0  0  0  0  0  0
  -27.7830  -24.5751   18.1795 N   0  0  0  0  0  0  0  0  0  0  0  0
  -31.0980  -24.9835   16.7969 N   0  3  0  0  0  0  0  0  0  0  0  0
  -22.8359  -14.7435   21.6374 O   0  0  0  0  0  0  0  0  0  0  0  0
  -23.9201  -26.4693   21.2499 O   0  0  0  0  0  0  0  0  0  0  0  0
  -27.1784  -26.4775   19.7535 O   0  0  0  0  0  0  0  0  0  0  0  0
  -29.7225  -23.4052   18.6766 O   0  0  0  0  0  0  0  0  0  0  0  0
  -31.9753  -14.6237   20.1146 O   0  0  0  0  0  0  0  0  0  0  0  0
  -21.4333   -7.0883   21.5550 O   0  0  0  0  0  0  0  0  0  0  0  0
  -27.9288  -21.0385   25.3371 O   0  0  0  0  0  0  0  0  0  1  0  0
  -16.9130   -7.6446   24.6633 F   0  0  0  0  0  0  0  0  0  0  0  0
  -21.1184   -5.6198   23.8761 F   0  0  0  0  0  0  0  0  0  0  0  0
  -30.3663  -20.6822   23.1800 S   0  0  0  0  0  0  0  0  0  0  0  0
  1  2  1  0  0  0  0
  1  6  2  0  0  0  0
  2  7  2  0  0  0  0
  3  9  2  0  0  0  0
  3 10  1  0  0  0  0
  4 11  2  0  0  0  0
  4 18  1  0  0  0  0
  5 12  1  0  0  0  0
  5 18  2  0  0  0  0
  6 20  1  0  0  0  0
  7 22  1  0  0  0  0
  8 13  2  0  0  0  0
  8 21  1  0  0  0  0
  9 25  1  0  0  0  0
 10 26  2  0  0  0  0
 11 27  1  0  0  0  0
 12 27  2  0  0  0  0
 13 28  1  0  0  0  0
 14 15  2  0  0  0  0
 14 29  1  0  0  0  0
 15 30  1  0  0  0  0
 16 23  1  0  0  0  0
 16 28  2  0  0  0  0
 17 30  2  0  0  0  0
 17 31  1  0  0  0  0
 18 32  1  0  0  0  0
 19 32  1  0  0  0  0
 19 33  2  0  0  0  0
 19 37  1  0  0  0  0
 20 22  2  0  0  0  0
 20 42  1  0  0  0  0
 21 23  2  0  0  0  0
 21 43  1  0  0  0  0
 22 53  1  0  0  0  0
 23 44  1  0  0  0  0
 24 25  2  0  0  0  0
 24 26  1  0  0  0  0
 24 57  1  0  0  0  0
 25 68  1  0  0  0  0
 26 73  1  0  0  0  0
 27 82  1  0  0  0  0
 28 83  1  0  0  0  0
 29 31  2  0  0  0  0
 29 82  1  0  0  0  0
 30 84  1  0  0  0  0
 31 85  1  0  0  0  0
 32 66  2  0  0  0  0
 33 67  1  0  0  0  0
 33 71  1  0  0  0  0
 34 36  2  0  0  0  0
 34 45  1  0  0  0  0
 34 68  1  0  0  0  0
 35 54  1  0  0  0  0
 35 68  1  0  0  0  0
 35 86  2  0  0  0  0
 37 72  1  0  0  0  0
 37 77  2  0  0  0  0
 38 55  1  0  0  0  0
 38 74  1  0  0  0  0
 38 78  2  0  0  0  0
 39 63  1  0  0  0  0
 39 69  1  0  0  0  0
 39 79  2  0  0  0  0
 40 64  1  0  0  0  0
 40 75  1  0  0  0  0
 40 80  2  0  0  0  0
 41 70  1  0  0  0  0
 41 73  1  0  0  0  0
 41 81  2  0  0  0  0
 42 46  1  0  0  0  0
 43 55  1  0  0  0  0
 44 69  1  0  0  0  0
 45 47  1  0  0  0  0
 46 49  1  0  0  0  0
 47 54  1  0  0  0  0
 48 50  1  0  0  0  0
 48 51  1  0  0  0  0
 49 53  1  0  0  0  0
 50 56  1  0  0  0  0
 51 70  1  0  0  0  0
 52 56  1  0  0  0  0
 52 70  1  0  0  0  0
 53 74  1  0  0  0  0
 54 83  1  0  0  0  0
 55 69  1  0  0  0  0
 56 67  1  0  0  0  0
 58 64  1  0  0  0  0
 59 65  1  0  0  0  0
 60 65  1  0  0  0  0
 61 65  1  0  0  0  0
 62 76  1  0  0  0  0
 63 65  1  0  0  0  0
 63 75  1  0  0  0  0
 64 76  1  0  0  0  0
 66 67  1  0  0  0  0
M  CHG  1  76   1
M  ISO  4  41 100  54 101  73 100  83 101
M  END
> <Batch ID>
0063

> <Smiles>
C=C1CC[101CH:1]([101O:1]c2ccc3c(c2)CN(C(=O)C(NC(=O)C(C)NC)C(C)(C)C)C(C(=O)NC2CCCc4ccccc42)C3)C(=S)N1c1cccc([100NH:0][100C:0](=O)N2CCCC(n3nc(-c4ccc(Oc5ccc(F)cc5F)cc4)c(C(N)=O)c3N)C2)c1C

> <Shape>
0.243

> <Color>
0.215

> <Negative vol penalty>
0.000

$$$$

  -OEChem-04042323123D

 84 92  0     1  0  0  0  0  0999 V2000
  -26.7532  -17.8569   14.9008 C   0  0  0  0  0  0  0  0  0  0  0  0
  -26.9217  -18.4755   16.1355 C   0  0  0  0  0  0  0  0  0  0  0  0
  -23.0719   -9.8726   19.9386 C   0  0  0  0  0  0  0  0  0  0  0  0
  -23.8313   -9.8748   22.2322 C   0  0  0  0  0  0  0  0  0  0  0  0
  -27.6458  -18.1205   13.8627 C   0  0  0  0  0  0  0  0  0  0  0  0
  -27.9836  -19.3573   16.3331 C   0  0  0  0  0  0  0  0  0  0  0  0
  -26.5777  -23.5816   18.7462 C   0  0  0  0  0  0  0  0  0  0  0  0
  -31.3278  -19.0743   20.6186 C   0  0  0  0  0  0  0  0  0  0  0  0
  -31.1576  -17.6899   20.6093 C   0  0  0  0  0  0  0  0  0  0  0  0
  -22.3263   -8.7201   20.1866 C   0  0  0  0  0  0  0  0  0  0  0  0
  -23.0857   -8.7223   22.4802 C   0  0  0  0  0  0  0  0  0  0  0  0
  -26.4002  -23.4974   20.1265 C   0  0  0  0  0  0  0  0  0  0  0  0
  -19.3767   -7.9253   21.6360 C   0  0  0  0  0  0  0  0  0  0  0  0
  -18.0698   -7.8817   21.1504 C   0  0  0  0  0  0  0  0  0  0  0  0
  -29.5265  -17.8785   22.3816 C   0  0  0  0  0  0  0  0  0  0  0  0
  -28.5806  -24.4740   20.4603 C   0  0  0  0  0  0  0  0  0  0  0  0
  -18.6271   -5.9399   19.8252 C   0  0  0  0  0  0  0  0  0  0  0  0
  -23.8244  -10.4499   20.9614 C   0  0  0  0  0  0  0  0  0  0  0  0
  -29.6967  -19.2629   22.3909 C   0  0  0  0  0  0  0  0  0  0  0  0
  -24.1698  -12.9748   20.8455 C   0  0  0  0  0  0  0  0  0  0  0  0
  -28.7136  -19.0135   14.0448 C   0  0  0  0  0  0  0  0  0  0  0  0
  -27.7644  -24.1035   18.2117 C   0  0  0  0  0  0  0  0  0  0  0  0
  -28.8921  -19.6321   15.2969 C   0  0  0  0  0  0  0  0  0  0  0  0
  -28.7696  -24.5662   19.0729 C   0  0  0  0  0  0  0  0  0  0  0  0
  -30.5973  -19.8608   21.5094 C   0  0  0  0  0  0  0  0  0  0  0  0
  -30.2570  -17.0920   21.4908 C   0  0  0  0  0  0  0  0  0  0  0  0
  -22.3332   -8.1449   21.4574 C   0  0  0  0  0  0  0  0  0  0  0  0
  -27.4029  -23.9410   20.9838 C   0  0  0  0  0  0  0  0  0  0  0  0
  -20.3088   -6.9763   21.2161 C   0  0  0  0  0  0  0  0  0  0  0  0
  -17.6950   -6.8890   20.2450 C   0  0  0  0  0  0  0  0  0  0  0  0
  -19.9340   -5.9836   20.3108 C   0  0  0  0  0  0  0  0  0  0  0  0
  -24.5952  -11.6401   20.7057 C   0  0  0  0  0  0  0  0  0  0  0  0
  -25.2631  -13.7233   20.4836 C   0  0  0  0  0  0  0  0  0  0  0  0
  -28.9138  -20.0778   23.3414 C   0  0  0  0  0  0  0  0  0  0  0  0
  -22.9000  -13.4917   21.2650 C   0  0  0  0  0  0  0  0  0  0  0  0
  -30.0887  -22.9592   16.3700 C   0  0  0  0  0  0  0  0  0  0  0  0
  -31.1272  -26.0314   16.4418 C   0  0  0  0  0  0  0  0  0  0  0  0
  -31.1720  -29.0376   18.0567 C   0  0  0  0  0  0  0  0  0  0  0  0
  -30.7307  -14.7610   20.6612 C   0  0  0  0  0  0  0  0  0  0  0  0
  -29.6802  -19.2306   12.9076 C   0  0  0  0  0  0  0  0  0  0  0  0
  -27.9294  -24.2123   16.7206 C   0  0  0  0  0  0  0  0  0  0  0  0
  -30.0539  -25.1535   18.5495 C   0  0  0  0  0  0  0  0  0  0  0  0
  -30.5609  -20.4649   13.0841 C   0  0  0  0  0  0  0  0  0  0  0  0
  -29.6134  -12.3525   18.2888 C   0  0  0  0  0  0  0  0  0  0  0  0
  -31.1344  -20.5140   14.4967 C   0  0  0  0  0  0  0  0  0  0  0  0
  -28.1733  -12.0623   18.7176 C   0  0  0  0  0  0  0  0  0  0  0  0
  -30.5286  -12.5781   19.4910 C   0  0  0  0  0  0  0  0  0  0  0  0
  -28.6224  -13.3030   20.8730 C   0  0  0  0  0  0  0  0  0  0  0  0
  -30.0174  -20.6138   15.5425 C   0  0  1  0  0  0  0  0  0  0  0  0
  -29.3895  -24.2864   16.2848 C   0  0  1  0  0  0  0  0  0  0  0  0
  -27.6495  -13.1330   19.6947 C   0  0  2  0  0  0  0  0  0  0  0  0
  -30.7965  -21.3411   21.4996 C   0  0  0  0  0  0  0  0  0  0  0  0
  -32.1384  -31.3477   17.8926 C   0  0  0  0  0  0  0  0  0  0  0  0
  -25.2121  -23.3735   23.5540 C   0  0  0  0  0  0  0  0  0  0  0  0
  -33.8294  -24.9647   17.3745 C   0  0  0  0  0  0  0  0  0  0  0  0
  -34.4209  -27.2891   18.0924 C   0  0  0  0  0  0  0  0  0  0  0  0
  -33.9608  -26.8071   15.6885 C   0  0  0  0  0  0  0  0  0  0  0  0
  -28.4880  -30.2749   17.9009 C   0  0  0  0  0  0  0  0  0  0  0  0
  -27.2655  -21.8826   23.6914 C   0  0  0  0  0  0  0  0  0  0  0  0
  -32.0441  -26.8294   17.3371 C   0  0  1  0  0  0  0  0  0  0  0  0
  -30.9552  -30.4538   17.5550 C   0  0  2  0  0  0  0  0  0  0  0  0
  -26.4145  -22.7967   22.8195 C   0  0  2  0  0  0  0  0  0  1  0  0
  -33.5405  -26.4598   17.1333 C   0  0  0  0  0  0  0  0  0  0  0  0
  -25.8600  -11.5432   20.2876 N   0  0  0  0  0  0  0  0  0  0  0  0
  -26.2388  -12.8264   20.1614 N   0  0  0  0  0  0  0  0  0  0  0  0
  -30.1706  -25.2326   17.0841 N   0  0  0  0  0  0  0  0  0  0  0  0
  -29.9709  -13.6083   20.3699 N   0  0  0  0  0  0  0  0  0  0  0  0
  -25.4754  -15.0546   20.4128 N   0  0  0  0  0  0  0  0  0  0  0  0
  -29.0654  -19.8416   24.6446 N   0  0  0  0  0  0  0  0  0  0  0  0
  -21.8867  -12.5834   21.6006 N   0  0  0  0  0  0  0  0  0  0  0  0
  -30.0844  -15.6856   21.4809 N   0  0  0  0  0  0  0  0  0  0  0  0
  -29.5050  -21.9657   15.6073 N   0  0  0  0  0  0  0  0  0  0  0  0
  -31.7363  -28.2337   17.0889 N   0  0  0  0  0  0  0  0  0  0  0  0
  -28.0898  -21.0106   22.8501 N   0  3  0  0  0  0  0  0  0  0  0  0
  -29.7320  -31.0404   18.1720 N   0  3  0  0  0  0  0  0  0  0  0  0
  -22.6654  -14.7226   21.3242 O   0  0  0  0  0  0  0  0  0  0  0  0
  -31.0850  -22.8453   17.0745 O   0  0  0  0  0  0  0  0  0  0  0  0
  -31.2504  -26.1193   15.2176 O   0  0  0  0  0  0  0  0  0  0  0  0
  -30.8742  -28.6811   19.1946 O   0  0  0  0  0  0  0  0  0  0  0  0
  -31.8601  -14.9289   20.1941 O   0  0  0  0  0  0  0  0  0  0  0  0
  -21.6056   -7.0205   21.6998 O   0  0  0  0  0  0  0  0  0  0  0  0
  -27.2326  -23.8593   22.3315 O   0  0  0  0  0  0  0  0  0  1  0  0
  -16.4396   -6.8463   19.7800 F   0  0  0  0  0  0  0  0  0  0  0  0
  -20.8247   -5.0684   19.9047 F   0  0  0  0  0  0  0  0  0  0  0  0
  1  2  1  0  0  0  0
  1  5  2  0  0  0  0
  2  6  2  0  0  0  0
  3 10  2  0  0  0  0
  3 18  1  0  0  0  0
  4 11  1  0  0  0  0
  4 18  2  0  0  0  0
  5 21  1  0  0  0  0
  6 23  1  0  0  0  0
  7 12  2  0  0  0  0
  7 22  1  0  0  0  0
  8  9  2  0  0  0  0
  8 25  1  0  0  0  0
  9 26  1  0  0  0  0
 10 27  1  0  0  0  0
 11 27  2  0  0  0  0
 12 28  1  0  0  0  0
 13 14  2  0  0  0  0
 13 29  1  0  0  0  0
 14 30  1  0  0  0  0
 15 19  1  0  0  0  0
 15 26  2  0  0  0  0
 16 24  1  0  0  0  0
 16 28  2  0  0  0  0
 17 30  2  0  0  0  0
 17 31  1  0  0  0  0
 18 32  1  0  0  0  0
 19 25  2  0  0  0  0
 19 34  1  0  0  0  0
 20 32  1  0  0  0  0
 20 33  2  0  0  0  0
 20 35  1  0  0  0  0
 21 23  2  0  0  0  0
 21 40  1  0  0  0  0
 22 24  2  0  0  0  0
 22 41  1  0  0  0  0
 23 49  1  0  0  0  0
 24 42  1  0  0  0  0
 25 52  1  0  0  0  0
 26 71  1  0  0  0  0
 27 81  1  0  0  0  0
 28 82  1  0  0  0  0
 29 31  2  0  0  0  0
 29 81  1  0  0  0  0
 30 83  1  0  0  0  0
 31 84  1  0  0  0  0
 32 64  2  0  0  0  0
 33 65  1  0  0  0  0
 33 68  1  0  0  0  0
 34 69  1  0  0  0  0
 34 74  2  0  0  0  0
 35 70  1  0  0  0  0
 35 76  2  0  0  0  0
 36 50  1  0  0  0  0
 36 72  1  0  0  0  0
 36 77  2  0  0  0  0
 37 60  1  0  0  0  0
 37 66  1  0  0  0  0
 37 78  2  0  0  0  0
 38 61  1  0  0  0  0
 38 73  1  0  0  0  0
 38 79  2  0  0  0  0
 39 67  1  0  0  0  0
 39 71  1  0  0  0  0
 39 80  2  0  0  0  0
 40 43  1  0  0  0  0
 41 50  1  0  0  0  0
 42 66  1  0  0  0  0
 43 45  1  0  0  0  0
 44 46  1  0  0  0  0
 44 47  1  0  0  0  0
 45 49  1  0  0  0  0
 46 51  1  0  0  0  0
 47 67  1  0  0  0  0
 48 51  1  0  0  0  0
 48 67  1  0  0  0  0
 49 72  1  0  0  0  0
 50 66  1  0  0  0  0
 51 65  1  0  0  0  0
 53 61  1  0  0  0  0
 54 62  1  0  0  0  0
 55 63  1  0  0  0  0
 56 63  1  0  0  0  0
 57 63  1  0  0  0  0
 58 75  1  0  0  0  0
 59 62  1  0  0  0  0
 59 74  1  0  0  0  0
 60 63  1  0  0  0  0
 60 73  1  0  0  0  0
 61 75  1  0  0  0  0
 62 82  1  0  0  0  0
 64 65  1  0  0  0  0
M  CHG  2  74   1  75   1
M  ISO  4  39 100  62 101  71 100  82 101
M  END
> <Batch ID>
0063

> <Smiles>
CNC(C)C(=O)NC(C(=O)N1Cc2cc([101O:1][101CH:1](C)CNC(=N)c3cc([100NH:0][100C:0](=O)N4CCCC(n5nc(-c6ccc(Oc7ccc(F)cc7F)cc6)c(C(N)=O)c5N)C4)ccc3C)ccc2CC1C(=O)NC1CCCc2ccccc21)C(C)(C)C

> <Shape>
0.202

> <Color>
0.187

> <Negative vol penalty>
0.000

$$$$

  -OEChem-04042323123D

 89 97  0     1  0  0  0  0  0999 V2000
  -20.3201  -29.3652   16.5800 C   0  0  0  0  0  0  0  0  0  0  0  0
  -20.8031  -28.1596   17.0788 C   0  0  0  0  0  0  0  0  0  0  0  0
  -23.0949   -9.8424   19.9669 C   0  0  0  0  0  0  0  0  0  0  0  0
  -23.8232   -9.9126   22.2694 C   0  0  0  0  0  0  0  0  0  0  0  0
  -32.5776  -17.6123   23.4130 C   0  0  0  0  0  0  0  0  0  0  0  0
  -21.2056  -30.4007   16.2843 C   0  0  0  0  0  0  0  0  0  0  0  0
  -22.1721  -27.9886   17.2812 C   0  0  0  0  0  0  0  0  0  0  0  0
  -24.8596  -24.7537   21.7330 C   0  0  0  0  0  0  0  0  0  0  0  0
  -32.0074  -16.7018   22.5234 C   0  0  0  0  0  0  0  0  0  0  0  0
  -22.3542   -8.6916   20.2362 C   0  0  0  0  0  0  0  0  0  0  0  0
  -23.0825   -8.7618   22.5388 C   0  0  0  0  0  0  0  0  0  0  0  0
  -25.3937  -23.4662   21.7654 C   0  0  0  0  0  0  0  0  0  0  0  0
  -19.3909   -7.9148   21.6673 C   0  0  0  0  0  0  0  0  0  0  0  0
  -18.0910   -7.8484   21.1657 C   0  0  0  0  0  0  0  0  0  0  0  0
  -27.5897  -24.3732   21.3480 C   0  0  0  0  0  0  0  0  0  0  0  0
  -29.8108  -17.5522   23.0611 C   0  0  0  0  0  0  0  0  0  0  0  0
  -18.6798   -5.8755   19.9014 C   0  0  0  0  0  0  0  0  0  0  0  0
  -23.8295  -10.4529   20.9835 C   0  0  0  0  0  0  0  0  0  0  0  0
  -31.7645  -18.4927   24.1268 C   0  0  0  0  0  0  0  0  0  0  0  0
  -24.1587  -12.9762   20.8034 C   0  0  0  0  0  0  0  0  0  0  0  0
  -22.5852  -30.2457   16.4923 C   0  0  0  0  0  0  0  0  0  0  0  0
  -25.6863  -25.8614   21.4966 C   0  0  0  0  0  0  0  0  0  0  0  0
  -23.0770  -29.0226   16.9867 C   0  0  0  0  0  0  0  0  0  0  0  0
  -27.0640  -25.6739   21.3156 C   0  0  0  0  0  0  0  0  0  0  0  0
  -30.6240  -16.6718   22.3474 C   0  0  0  0  0  0  0  0  0  0  0  0
  -30.3811  -18.4627   23.9508 C   0  0  0  0  0  0  0  0  0  0  0  0
  -22.3479   -8.1513   21.5221 C   0  0  0  0  0  0  0  0  0  0  0  0
  -26.7585  -23.2756   21.5700 C   0  0  0  0  0  0  0  0  0  0  0  0
  -20.3352   -6.9616   21.2859 C   0  0  0  0  0  0  0  0  0  0  0  0
  -17.7355   -6.8287   20.2827 C   0  0  0  0  0  0  0  0  0  0  0  0
  -19.9796   -5.9420   20.4030 C   0  0  0  0  0  0  0  0  0  0  0  0
  -24.5953  -11.6414   20.7058 C   0  0  0  0  0  0  0  0  0  0  0  0
  -25.2515  -13.7226   20.4359 C   0  0  0  0  0  0  0  0  0  0  0  0
  -32.3905  -19.4322   25.0488 C   0  0  0  0  0  0  0  0  0  0  0  0
  -22.8797  -13.4949   21.1917 C   0  0  0  0  0  0  0  0  0  0  0  0
  -25.8541  -28.0942   19.2405 C   0  0  0  0  0  0  0  0  0  0  0  0
  -28.1161  -29.3492   21.1977 C   0  0  0  0  0  0  0  0  0  0  0  0
  -30.4219  -28.8393   23.6614 C   0  0  0  0  0  0  0  0  0  0  0  0
  -30.7088  -14.8050   20.6580 C   0  0  0  0  0  0  0  0  0  0  0  0
  -23.5081  -31.3767   16.1133 C   0  0  0  0  0  0  0  0  0  0  0  0
  -25.0988  -27.2461   21.4913 C   0  0  0  0  0  0  0  0  0  0  0  0
  -27.9975  -26.8318   21.0784 C   0  0  0  0  0  0  0  0  0  0  0  0
  -24.9075  -31.2468   16.7093 C   0  0  0  0  0  0  0  0  0  0  0  0
  -29.6407  -12.3248   18.3374 C   0  0  0  0  0  0  0  0  0  0  0  0
  -25.4386  -29.8294   16.5204 C   0  0  0  0  0  0  0  0  0  0  0  0
  -28.1969  -12.0357   18.7547 C   0  0  0  0  0  0  0  0  0  0  0  0
  -30.5379  -12.5897   19.5451 C   0  0  0  0  0  0  0  0  0  0  0  0
  -28.6081  -13.3378   20.8813 C   0  0  0  0  0  0  0  0  0  0  0  0
  -24.5529  -28.8074   17.2432 C   0  0  1  0  0  0  0  0  0  0  0  0
  -25.9540  -28.2551   20.7310 C   0  0  1  0  0  0  0  0  0  0  0  0
  -27.6525  -13.1287   19.6953 C   0  0  2  0  0  0  0  0  0  0  0  0
  -32.1443  -30.0485   25.0284 C   0  0  0  0  0  0  0  0  0  0  0  0
  -32.1404  -17.6372   26.8763 C   0  0  0  0  0  0  0  0  0  0  0  0
  -31.8610  -20.0430   27.4386 C   0  0  0  0  0  0  0  0  0  0  0  0
  -34.1303  -19.1661   26.8432 C   0  0  0  0  0  0  0  0  0  0  0  0
  -30.0004  -29.3731   18.7979 C   0  0  0  0  0  0  0  0  0  0  0  0
  -31.9106  -29.6696   20.3890 C   0  0  0  0  0  0  0  0  0  0  0  0
  -30.1282  -31.4088   20.2450 C   0  0  0  0  0  0  0  0  0  0  0  0
  -29.0278  -28.2027   26.1932 C   0  0  0  0  0  0  0  0  0  0  0  0
  -26.6281  -21.0634   22.4331 C   0  0  0  0  0  0  0  0  0  1  0  0
  -27.6314  -20.0244   22.8916 C   0  0  0  0  0  0  0  0  0  0  0  0
  -29.6103  -29.1915   21.3437 C   0  0  1  0  0  0  0  0  0  0  0  0
  -30.6973  -29.5867   24.9537 C   0  0  2  0  0  0  0  0  0  0  0  0
  -32.6293  -19.0552   26.5379 C   0  0  0  0  0  0  0  0  0  0  0  0
  -30.3948  -29.8885   20.1964 C   0  0  0  0  0  0  0  0  0  0  0  0
  -25.8663  -11.5424   20.3073 N   0  0  0  0  0  0  0  0  0  0  0  0
  -32.7811  -20.6070   24.6311 N   0  0  0  0  0  0  0  0  0  0  0  0
  -26.2377  -12.8246   20.1512 N   0  0  0  0  0  0  0  0  0  0  0  0
  -27.3743  -28.1656   21.0759 N   0  0  0  0  0  0  0  0  0  0  0  0
  -29.9611  -13.6393   20.3881 N   0  0  0  0  0  0  0  0  0  0  0  0
  -25.4554  -15.0530   20.3317 N   0  0  0  0  0  0  0  0  0  0  0  0
  -21.8684  -12.5886   21.5384 N   0  0  0  0  0  0  0  0  0  0  0  0
  -30.0451  -15.7468   21.4435 N   0  0  0  0  0  0  0  0  0  0  0  0
  -29.5228  -19.3613   24.6759 N   0  0  0  0  0  0  0  0  0  0  0  0
  -24.8267  -28.8167   18.6642 N   0  0  0  0  0  0  0  0  0  0  0  0
  -29.9438  -29.6789   22.6777 N   0  0  0  0  0  0  0  0  0  0  0  0
  -30.4224  -28.7105   26.1274 N   0  3  0  0  0  0  0  0  0  0  0  0
  -22.6358  -14.7251   21.2143 O   0  0  0  0  0  0  0  0  0  0  0  0
  -26.6510  -27.3695   18.6562 O   0  0  0  0  0  0  0  0  0  0  0  0
  -27.6244  -30.4805   21.1990 O   0  0  0  0  0  0  0  0  0  0  0  0
  -30.6154  -27.6321   23.5359 O   0  0  0  0  0  0  0  0  0  0  0  0
  -31.8433  -14.9685   20.2015 O   0  0  0  0  0  0  0  0  0  0  0  0
  -28.3100  -21.6213   24.8298 O   0  0  0  0  0  0  0  0  0  0  0  0
  -29.9315  -21.2714   22.9342 O   0  0  0  0  0  0  0  0  0  0  0  0
  -21.6250   -7.0285   21.7853 O   0  0  0  0  0  0  0  0  0  0  0  0
  -27.2823  -22.0200   21.6005 O   0  0  0  0  0  0  0  0  0  1  0  0
  -16.4868   -6.7642   19.8023 F   0  0  0  0  0  0  0  0  0  0  0  0
  -20.8822   -5.0227   20.0338 F   0  0  0  0  0  0  0  0  0  0  0  0
  -28.9301  -20.7462   23.8471 S   0  0  0  0  0  0  0  0  0  0  0  0
  1  2  1  0  0  0  0
  1  6  2  0  0  0  0
  2  7  2  0  0  0  0
  3 10  2  0  0  0  0
  3 18  1  0  0  0  0
  4 11  1  0  0  0  0
  4 18  2  0  0  0  0
  5  9  2  0  0  0  0
  5 19  1  0  0  0  0
  6 21  1  0  0  0  0
  7 23  1  0  0  0  0
  8 12  2  0  0  0  0
  8 22  1  0  0  0  0
  9 25  1  0  0  0  0
 10 27  1  0  0  0  0
 11 27  2  0  0  0  0
 12 28  1  0  0  0  0
 13 14  2  0  0  0  0
 13 29  1  0  0  0  0
 14 30  1  0  0  0  0
 15 24  1  0  0  0  0
 15 28  2  0  0  0  0
 16 25  2  0  0  0  0
 16 26  1  0  0  0  0
 17 30  2  0  0  0  0
 17 31  1  0  0  0  0
 18 32  1  0  0  0  0
 19 26  2  0  0  0  0
 19 34  1  0  0  0  0
 20 32  1  0  0  0  0
 20 33  2  0  0  0  0
 20 35  1  0  0  0  0
 21 23  2  0  0  0  0
 21 40  1  0  0  0  0
 22 24  2  0  0  0  0
 22 41  1  0  0  0  0
 23 49  1  0  0  0  0
 24 42  1  0  0  0  0
 25 73  1  0  0  0  0
 26 74  1  0  0  0  0
 27 85  1  0  0  0  0
 28 86  1  0  0  0  0
 29 31  2  0  0  0  0
 29 85  1  0  0  0  0
 30 87  1  0  0  0  0
 31 88  1  0  0  0  0
 32 66  2  0  0  0  0
 33 68  1  0  0  0  0
 33 71  1  0  0  0  0
 34 64  1  0  0  0  0
 34 67  2  0  0  0  0
 35 72  1  0  0  0  0
 35 78  2  0  0  0  0
 36 50  1  0  0  0  0
 36 75  1  0  0  0  0
 36 79  2  0  0  0  0
 37 62  1  0  0  0  0
 37 69  1  0  0  0  0
 37 80  2  0  0  0  0
 38 63  1  0  0  0  0
 38 76  1  0  0  0  0
 38 81  2  0  0  0  0
 39 70  1  0  0  0  0
 39 73  1  0  0  0  0
 39 82  2  0  0  0  0
 40 43  1  0  0  0  0
 41 50  1  0  0  0  0
 42 69  1  0  0  0  0
 43 45  1  0  0  0  0
 44 46  1  0  0  0  0
 44 47  1  0  0  0  0
 45 49  1  0  0  0  0
 46 51  1  0  0  0  0
 47 70  1  0  0  0  0
 48 51  1  0  0  0  0
 48 70  1  0  0  0  0
 49 75  1  0  0  0  0
 50 69  1  0  0  0  0
 51 68  1  0  0  0  0
 52 63  1  0  0  0  0
 53 64  1  0  0  0  0
 54 64  1  0  0  0  0
 55 64  1  0  0  0  0
 56 65  1  0  0  0  0
 57 65  1  0  0  0  0
 58 65  1  0  0  0  0
 59 77  1  0  0  0  0
 60 61  1  0  0  0  0
 60 86  1  0  0  0  0
 61 89  1  0  0  0  0
 62 65  1  0  0  0  0
 62 76  1  0  0  0  0
 63 77  1  0  0  0  0
 66 68  1  0  0  0  0
 74 89  1  0  0  0  0
 83 89  2  0  0  0  0
 84 89  2  0  0  0  0
M  CHG  1  77   1
M  ISO  4  39 100  60 101  73 100  86 101
M  END
> <Batch ID>
0063

> <Smiles>
CNC(C)C(=O)NC(C(=O)N1Cc2cc([101O:1][101CH2:1]CS(=O)(=O)Nc3cc([100NH:0][100C:0](=O)N4CCCC(n5nc(-c6ccc(Oc7ccc(F)cc7F)cc6)c(C(N)=O)c5N)C4)ccc3C(=N)C(C)(C)C)ccc2CC1C(=O)NC1CCCc2ccccc21)C(C)(C)C

> <Shape>
0.200

> <Color>
0.177

> <Negative vol penalty>
0.000

$$$$

  -OEChem-04042323123D

 86 95  0     1  0  0  0  0  0999 V2000
  -18.5531  -25.0166   24.4928 C   0  0  0  0  0  0  0  0  0  0  0  0
  -19.8002  -24.7548   23.9348 C   0  0  0  0  0  0  0  0  0  0  0  0
  -24.4095   -9.1192   21.4007 C   0  0  0  0  0  0  0  0  0  0  0  0
  -22.3982  -10.4181   21.0774 C   0  0  0  0  0  0  0  0  0  0  0  0
  -17.9381  -26.2488   24.2753 C   0  0  0  0  0  0  0  0  0  0  0  0
  -20.4327  -25.7248   23.1579 C   0  0  0  0  0  0  0  0  0  0  0  0
  -26.4497  -26.8092   22.8027 C   0  0  0  0  0  0  0  0  0  0  0  0
  -27.0567  -22.3284   18.3557 C   0  0  0  0  0  0  0  0  0  0  0  0
  -26.2438  -21.2298   18.0770 C   0  0  0  0  0  0  0  0  0  0  0  0
  -23.6491   -7.9504   21.4357 C   0  0  0  0  0  0  0  0  0  0  0  0
  -21.6378   -9.2493   21.1123 C   0  0  0  0  0  0  0  0  0  0  0  0
  -27.4192  -26.4239   21.8778 C   0  0  0  0  0  0  0  0  0  0  0  0
  -21.6985   -6.3139   23.6586 C   0  0  0  0  0  0  0  0  0  0  0  0
  -21.9860   -5.3842   24.6579 C   0  0  0  0  0  0  0  0  0  0  0  0
  -27.1562  -28.5311   20.7333 C   0  0  0  0  0  0  0  0  0  0  0  0
  -28.7708  -20.8473   19.1954 C   0  0  0  0  0  0  0  0  0  0  0  0
  -22.4888   -3.7280   22.9723 C   0  0  0  0  0  0  0  0  0  0  0  0
  -23.7840  -10.3531   21.2216 C   0  0  0  0  0  0  0  0  0  0  0  0
  -25.4030  -12.0630   22.2029 C   0  0  0  0  0  0  0  0  0  0  0  0
  -18.5677  -27.2380   23.5033 C   0  0  0  0  0  0  0  0  0  0  0  0
  -25.8172  -28.0560   22.6932 C   0  0  0  0  0  0  0  0  0  0  0  0
  -19.8250  -26.9709   22.9287 C   0  0  0  0  0  0  0  0  0  0  0  0
  -26.1808  -28.9309   21.6595 C   0  0  0  0  0  0  0  0  0  0  0  0
  -27.9578  -19.7485   18.9167 C   0  0  0  0  0  0  0  0  0  0  0  0
  -28.3202  -22.1372   18.9148 C   0  0  0  0  0  0  0  0  0  0  0  0
  -26.6943  -19.9398   18.3575 C   0  0  0  0  0  0  0  0  0  0  0  0
  -22.2632   -8.0154   21.2914 C   0  0  0  0  0  0  0  0  0  0  0  0
  -27.7706  -27.2837   20.8413 C   0  0  0  0  0  0  0  0  0  0  0  0
  -21.8060   -5.9507   22.3161 C   0  0  0  0  0  0  0  0  0  0  0  0
  -22.3812   -4.0913   24.3147 C   0  0  0  0  0  0  0  0  0  0  0  0
  -22.2012   -4.6577   21.9730 C   0  0  0  0  0  0  0  0  0  0  0  0
  -24.5689  -11.5609   21.1860 C   0  0  0  0  0  0  0  0  0  0  0  0
  -25.9185  -13.2246   21.6818 C   0  0  0  0  0  0  0  0  0  0  0  0
  -30.5659  -23.1655   19.1553 C   0  0  0  0  0  0  0  0  0  0  0  0
  -25.6865  -11.5273   23.5022 C   0  0  0  0  0  0  0  0  0  0  0  0
  -22.8221  -29.0200   22.2420 C   0  0  0  0  0  0  0  0  0  0  0  0
  -24.1054  -31.9580   22.7355 C   0  0  0  0  0  0  0  0  0  0  0  0
  -26.8672  -33.9617   22.6682 C   0  0  0  0  0  0  0  0  0  0  0  0
  -25.4116  -17.9319   19.0746 C   0  0  0  0  0  0  0  0  0  0  0  0
  -17.8427  -28.5373   23.2568 C   0  0  0  0  0  0  0  0  0  0  0  0
  -24.7926  -28.4677   23.7145 C   0  0  0  0  0  0  0  0  0  0  0  0
  -25.5462  -30.2886   21.5097 C   0  0  0  0  0  0  0  0  0  0  0  0
  -31.3549  -24.3076   19.7696 C   0  0  0  0  0  0  0  0  0  0  0  0
  -18.7471  -29.6494   22.7318 C   0  0  0  0  0  0  0  0  0  0  0  0
  -30.7237  -25.6673   19.5822 C   0  0  0  0  0  0  0  0  0  0  0  0
  -25.7907  -15.0792   16.9863 C   0  0  0  0  0  0  0  0  0  0  0  0
  -19.6339  -29.1290   21.6051 C   0  0  0  0  0  0  0  0  0  0  0  0
  -25.5625  -13.9421   17.9815 C   0  0  0  0  0  0  0  0  0  0  0  0
  -24.8504  -16.2582   17.2387 C   0  0  0  0  0  0  0  0  0  0  0  0
  -24.6574  -15.6307   19.6248 C   0  0  0  0  0  0  0  0  0  0  0  0
  -28.5069  -24.5878   19.3360 C   0  0  0  0  0  0  0  0  0  0  0  0
  -20.5540  -28.0068   22.1007 C   0  0  1  0  0  0  0  0  0  0  0  0
  -23.8446  -29.5499   23.2071 C   0  0  1  0  0  0  0  0  0  0  0  0
  -25.6280  -14.4553   19.4308 C   0  0  1  0  0  0  0  0  0  0  0  0
  -29.3059  -25.6263   20.1095 C   0  0  2  0  0  0  0  0  0  1  0  0
  -28.4666  -18.3779   19.2255 C   0  0  0  0  0  0  0  0  0  0  0  0
  -27.5966  -36.3257   23.0887 C   0  0  0  0  0  0  0  0  0  0  0  0
  -22.8483  -32.8138   20.0902 C   0  0  0  0  0  0  0  0  0  0  0  0
  -24.3601  -34.8095   20.0975 C   0  0  0  0  0  0  0  0  0  0  0  0
  -22.6839  -34.5101   21.9205 C   0  0  0  0  0  0  0  0  0  0  0  0
  -25.2182  -18.7403   16.7327 C   0  0  0  0  0  0  0  0  0  0  0  0
  -28.7366  -33.1275   24.8057 C   0  0  0  0  0  0  0  0  0  0  0  0
  -24.7228  -33.0167   21.8540 C   0  0  1  0  0  0  0  0  0  0  0  0
  -27.4288  -34.9375   23.6866 C   0  0  2  0  0  0  0  0  0  0  0  0
  -23.6645  -33.7612   20.9920 C   0  0  0  0  0  0  0  0  0  0  0  0
  -24.5525  -12.3398   20.1011 N   0  0  0  0  0  0  0  0  0  0  0  0
  -25.3825  -13.3432   20.4333 N   0  0  0  0  0  0  0  0  0  0  0  0
  -29.1647  -23.2773   19.2014 N   0  0  0  0  0  0  0  0  0  0  0  0
  -24.5452  -30.6427   22.5296 N   0  0  0  0  0  0  0  0  0  0  0  0
  -24.9173  -16.6865   18.6431 N   0  0  0  0  0  0  0  0  0  0  0  0
  -26.7734  -14.1459   22.1745 N   0  0  0  0  0  0  0  0  0  0  0  0
  -24.8691  -11.9085   24.5750 N   0  0  0  0  0  0  0  0  0  0  0  0
  -21.6674  -28.5571   22.8436 N   0  0  0  0  0  0  0  0  0  0  0  0
  -25.4922  -33.8859   22.7378 N   0  0  0  0  0  0  0  0  0  0  0  0
  -25.8382  -18.8156   18.0600 N   0  0  0  0  0  0  0  0  0  0  0  0
  -28.7582  -34.4712   24.1724 N   0  3  0  0  0  0  0  0  0  0  0  0
  -31.1936  -22.1990   18.7139 O   0  0  0  0  0  0  0  0  0  0  0  0
  -26.6465  -10.7469   23.7090 O   0  0  0  0  0  0  0  0  0  0  0  0
  -23.0624  -29.0317   21.0404 O   0  0  0  0  0  0  0  0  0  0  0  0
  -23.2692  -32.2869   23.5805 O   0  0  0  0  0  0  0  0  0  0  0  0
  -27.5771  -33.3326   21.8866 O   0  0  0  0  0  0  0  0  0  0  0  0
  -25.4448  -18.2411   20.2718 O   0  0  0  0  0  0  0  0  0  0  0  0
  -21.5209   -6.8750   21.3252 O   0  0  0  0  0  0  0  0  0  0  0  0
  -28.7161  -26.9098   19.9369 O   0  0  0  0  0  0  0  0  0  1  0  0
  -22.6588   -3.1990   25.2744 F   0  0  0  0  0  0  0  0  0  0  0  0
  -22.3074   -4.3032   20.6850 F   0  0  0  0  0  0  0  0  0  0  0  0
  1  2  1  0  0  0  0
  1  5  2  0  0  0  0
  2  6  2  0  0  0  0
  3 10  2  0  0  0  0
  3 18  1  0  0  0  0
  4 11  1  0  0  0  0
  4 18  2  0  0  0  0
  5 20  1  0  0  0  0
  6 22  1  0  0  0  0
  7 12  2  0  0  0  0
  7 21  1  0  0  0  0
  8  9  2  0  0  0  0
  8 25  1  0  0  0  0
  9 26  1  0  0  0  0
 10 27  1  0  0  0  0
 11 27  2  0  0  0  0
 12 28  1  0  0  0  0
 13 14  2  0  0  0  0
 13 29  1  0  0  0  0
 14 30  1  0  0  0  0
 15 23  1  0  0  0  0
 15 28  2  0  0  0  0
 16 24  1  0  0  0  0
 16 25  2  0  0  0  0
 17 30  2  0  0  0  0
 17 31  1  0  0  0  0
 18 32  1  0  0  0  0
 19 32  1  0  0  0  0
 19 33  2  0  0  0  0
 19 35  1  0  0  0  0
 20 22  2  0  0  0  0
 20 40  1  0  0  0  0
 21 23  2  0  0  0  0
 21 41  1  0  0  0  0
 22 52  1  0  0  0  0
 23 42  1  0  0  0  0
 24 26  2  0  0  0  0
 24 56  1  0  0  0  0
 25 68  1  0  0  0  0
 26 75  1  0  0  0  0
 27 83  1  0  0  0  0
 28 84  1  0  0  0  0
 29 31  2  0  0  0  0
 29 83  1  0  0  0  0
 30 85  1  0  0  0  0
 31 86  1  0  0  0  0
 32 66  2  0  0  0  0
 33 67  1  0  0  0  0
 33 71  1  0  0  0  0
 34 43  1  0  0  0  0
 34 68  1  0  0  0  0
 34 77  2  0  0  0  0
 35 72  1  0  0  0  0
 35 78  2  0  0  0  0
 36 53  1  0  0  0  0
 36 73  1  0  0  0  0
 36 79  2  0  0  0  0
 37 63  1  0  0  0  0
 37 69  1  0  0  0  0
 37 80  2  0  0  0  0
 38 64  1  0  0  0  0
 38 74  1  0  0  0  0
 38 81  2  0  0  0  0
 39 70  1  0  0  0  0
 39 75  1  0  0  0  0
 39 82  2  0  0  0  0
 40 44  1  0  0  0  0
 41 53  1  0  0  0  0
 42 69  1  0  0  0  0
 43 45  1  0  0  0  0
 44 47  1  0  0  0  0
 45 55  1  0  0  0  0
 46 48  1  0  0  0  0
 46 49  1  0  0  0  0
 47 52  1  0  0  0  0
 48 54  1  0  0  0  0
 49 70  1  0  0  0  0
 50 54  1  0  0  0  0
 50 70  1  0  0  0  0
 51 55  1  0  0  0  0
 51 68  1  0  0  0  0
 52 73  1  0  0  0  0
 53 69  1  0  0  0  0
 54 67  1  0  0  0  0
 55 84  1  0  0  0  0
 57 64  1  0  0  0  0
 58 65  1  0  0  0  0
 59 65  1  0  0  0  0
 60 65  1  0  0  0  0
 61 75  1  0  0  0  0
 62 76  1  0  0  0  0
 63 65  1  0  0  0  0
 63 74  1  0  0  0  0
 64 76  1  0  0  0  0
 66 67  1  0  0  0  0
M  CHG  1  76   1
M  ISO  4  39 100  55 101  75 100  84 101
M  END
> <Batch ID>
0063

> <Smiles>
CNC(C)C(=O)NC(C(=O)N1Cc2cc([101O:1][101CH:1]3CCC(=O)N(c4ccc([100N:0](C)[100C:0](=O)N5CCCC(n6nc(-c7ccc(Oc8ccc(F)cc8F)cc7)c(C(N)=O)c6N)C5)c(C)c4)C3)ccc2CC1C(=O)NC1CCCc2ccccc21)C(C)(C)C

> <Shape>
0.303

> <Color>
0.136

> <Negative vol penalty>
0.000

$$$$

  -OEChem-04042323123D

 88 97  0     1  0  0  0  0  0999 V2000
  -29.1228  -36.8030   20.9343 C   0  0  0  0  0  0  0  0  0  0  0  0
  -29.3884  -35.4639   20.6662 C   0  0  0  0  0  0  0  0  0  0  0  0
  -24.0338   -9.2326   21.4865 C   0  0  0  0  0  0  0  0  0  0  0  0
  -23.2548  -11.5194   21.4660 C   0  0  0  0  0  0  0  0  0  0  0  0
  -28.1644  -37.1451   21.8873 C   0  0  0  0  0  0  0  0  0  0  0  0
  -28.6964  -34.4662   21.3518 C   0  0  0  0  0  0  0  0  0  0  0  0
  -26.9558  -29.0201   19.1573 C   0  0  0  0  0  0  0  0  0  0  0  0
  -23.0392   -8.9020   22.4067 C   0  0  0  0  0  0  0  0  0  0  0  0
  -22.2600  -11.1888   22.3862 C   0  0  0  0  0  0  0  0  0  0  0  0
  -27.5117  -27.7458   19.2612 C   0  0  0  0  0  0  0  0  0  0  0  0
  -19.7226   -8.2450   22.3614 C   0  0  0  0  0  0  0  0  0  0  0  0
  -18.9970   -7.0747   22.1391 C   0  0  0  0  0  0  0  0  0  0  0  0
  -26.2254  -20.6844   18.9286 C   0  0  0  0  0  0  0  0  0  0  0  0
  -26.0453  -27.2638   21.1149 C   0  0  0  0  0  0  0  0  0  0  0  0
  -27.9726  -19.1074   19.4741 C   0  0  0  0  0  0  0  0  0  0  0  0
  -19.7498   -6.2043   24.2634 C   0  0  0  0  0  0  0  0  0  0  0  0
  -24.1417  -10.5414   21.0161 C   0  0  0  0  0  0  0  0  0  0  0  0
  -25.4502  -19.6466   18.4112 C   0  0  0  0  0  0  0  0  0  0  0  0
  -25.3523  -10.3420   18.7795 C   0  0  0  0  0  0  0  0  0  0  0  0
  -27.4534  -36.1511   22.5780 C   0  0  0  0  0  0  0  0  0  0  0  0
  -25.9463  -29.4304   20.0399 C   0  0  0  0  0  0  0  0  0  0  0  0
  -27.7285  -34.7954   22.3159 C   0  0  0  0  0  0  0  0  0  0  0  0
  -25.4764  -28.5429   21.0185 C   0  0  0  0  0  0  0  0  0  0  0  0
  -27.4866  -20.4148   19.4600 C   0  0  0  0  0  0  0  0  0  0  0  0
  -27.1974  -18.0696   18.9568 C   0  0  0  0  0  0  0  0  0  0  0  0
  -22.1522   -9.8800   22.8565 C   0  0  0  0  0  0  0  0  0  0  0  0
  -27.0585  -26.8684   20.2419 C   0  0  0  0  0  0  0  0  0  0  0  0
  -20.4620   -8.3949   23.5347 C   0  0  0  0  0  0  0  0  0  0  0  0
  -19.0105   -6.0544   23.0900 C   0  0  0  0  0  0  0  0  0  0  0  0
  -20.4756   -7.3746   24.4857 C   0  0  0  0  0  0  0  0  0  0  0  0
  -25.9362  -18.3392   18.4254 C   0  0  0  0  0  0  0  0  0  0  0  0
  -25.1694  -10.8837   20.0659 C   0  0  0  0  0  0  0  0  0  0  0  0
  -26.4559  -10.9940   18.2861 C   0  0  0  0  0  0  0  0  0  0  0  0
  -29.1987  -21.2561   21.0447 C   0  0  0  0  0  0  0  0  0  0  0  0
  -23.8256  -21.0718   17.2518 C   0  0  0  0  0  0  0  0  0  0  0  0
  -24.1360  -19.9341   17.8575 C   0  0  0  0  0  0  0  0  0  0  0  0
  -24.5925   -9.3391   18.0920 C   0  0  0  0  0  0  0  0  0  0  0  0
  -25.6685  -31.7295   22.2172 C   0  0  0  0  0  0  0  0  0  0  0  0
  -22.6046  -30.6755   22.3723 C   0  0  0  0  0  0  0  0  0  0  0  0
  -20.3898  -28.1253   21.8845 C   0  0  0  0  0  0  0  0  0  0  0  0
  -28.9241  -16.3068   19.4641 C   0  0  0  0  0  0  0  0  0  0  0  0
  -26.4603  -36.5695   23.6332 C   0  0  0  0  0  0  0  0  0  0  0  0
  -25.3384  -30.7988   19.8975 C   0  0  0  0  0  0  0  0  0  0  0  0
  -24.3807  -28.9276   21.9775 C   0  0  0  0  0  0  0  0  0  0  0  0
  -30.2061  -22.3556   21.3234 C   0  0  0  0  0  0  0  0  0  0  0  0
  -25.5046  -35.4534   24.0469 C   0  0  0  0  0  0  0  0  0  0  0  0
  -29.6748  -23.7568   21.1153 C   0  0  0  0  0  0  0  0  0  0  0  0
  -30.4989  -13.1237   19.7191 C   0  0  0  0  0  0  0  0  0  0  0  0
  -26.2717  -34.1585   24.2953 C   0  0  0  0  0  0  0  0  0  0  0  0
  -29.3278  -12.1384   19.7137 C   0  0  0  0  0  0  0  0  0  0  0  0
  -30.1590  -14.4044   20.4794 C   0  0  0  0  0  0  0  0  0  0  0  0
  -27.9688  -22.8608   19.5564 C   0  0  0  0  0  0  0  0  0  0  0  0
  -27.7553  -14.0895   20.0412 C   0  0  0  0  0  0  0  0  0  0  0  0
  -26.9811  -33.6844   23.0211 C   0  0  1  0  0  0  0  0  0  0  0  0
  -24.6740  -31.2937   21.1786 C   0  0  1  0  0  0  0  0  0  0  0  0
  -29.1111  -23.8642   19.7080 C   0  0  1  0  0  0  0  0  0  0  0  0
  -28.0275  -12.8111   19.2318 C   0  0  2  0  0  0  0  0  0  0  0  0
  -17.9601  -27.5510   22.1372 C   0  0  0  0  0  0  0  0  0  0  0  0
  -22.9893  -30.3845   25.3852 C   0  0  0  0  0  0  0  0  0  0  0  0
  -20.9367  -28.9519   25.4385 C   0  0  0  0  0  0  0  0  0  0  0  0
  -20.7769  -31.3300   24.7025 C   0  0  0  0  0  0  0  0  0  0  0  0
  -20.0850  -27.6325   18.9822 C   0  0  0  0  0  0  0  0  0  0  0  0
  -28.6286  -25.2838   19.4174 C   0  0  0  0  0  0  0  0  0  1  0  0
  -21.8724  -29.6328   23.1821 C   0  0  1  0  0  0  0  0  0  0  0  0
  -19.0342  -28.0851   21.2025 C   0  0  2  0  0  0  0  0  0  0  0  0
  -21.6658  -30.0679   24.6604 C   0  0  0  0  0  0  0  0  0  0  0  0
  -26.0836  -11.8085   20.3708 N   0  0  0  0  0  0  0  0  0  0  0  0
  -26.8517  -11.8529   19.2689 N   0  0  0  0  0  0  0  0  0  0  0  0
  -28.2906  -21.4915   19.9979 N   0  0  0  0  0  0  0  0  0  0  0  0
  -23.8225  -30.2786   21.8022 N   0  0  0  0  0  0  0  0  0  0  0  0
  -28.9179  -14.9880   19.9657 N   0  0  0  0  0  0  0  0  0  0  0  0
  -27.1167  -10.9106   17.1119 N   0  0  0  0  0  0  0  0  0  0  0  0
  -23.4888   -8.7728   18.7443 N   0  0  0  0  0  0  0  0  0  0  0  0
  -27.6939  -16.7426   18.9729 N   0  0  0  0  0  0  0  0  0  0  0  0
  -26.0373  -33.0577   22.1205 N   0  0  0  0  0  0  0  0  0  0  0  0
  -20.6343  -29.3528   22.4630 N   0  0  0  0  0  0  0  0  0  0  0  0
  -19.0863  -27.2097   19.9975 N   0  3  0  0  0  0  0  0  0  0  0  0
  -29.2776  -20.2166   21.7049 O   0  0  0  0  0  0  0  0  0  0  0  0
  -24.8935   -8.9447   16.9399 O   0  0  0  0  0  0  0  0  0  0  0  0
  -26.0703  -30.9210   23.0458 O   0  0  0  0  0  0  0  0  0  0  0  0
  -22.1105  -31.7985   22.2443 O   0  0  0  0  0  0  0  0  0  0  0  0
  -21.1538  -27.1628   21.9054 O   0  0  0  0  0  0  0  0  0  0  0  0
  -29.9518  -16.9890   19.4450 O   0  0  0  0  0  0  0  0  0  0  0  0
  -21.1813   -9.5577   23.7543 O   0  0  0  0  0  0  0  0  0  0  0  0
  -27.5999  -25.6242   20.3460 O   0  0  0  0  0  0  0  0  0  1  0  0
  -18.3124   -4.9313   22.8771 F   0  0  0  0  0  0  0  0  0  0  0  0
  -21.1830   -7.5133   25.6153 F   0  0  0  0  0  0  0  0  0  0  0  0
  -25.1935  -17.3377   17.9281 F   0  0  0  0  0  0  0  0  0  0  0  0
  1  2  1  0  0  0  0
  1  5  2  0  0  0  0
  2  6  2  0  0  0  0
  3  8  2  0  0  0  0
  3 17  1  0  0  0  0
  4  9  1  0  0  0  0
  4 17  2  0  0  0  0
  5 20  1  0  0  0  0
  6 22  1  0  0  0  0
  7 10  2  0  0  0  0
  7 21  1  0  0  0  0
  8 26  1  0  0  0  0
  9 26  2  0  0  0  0
 10 27  1  0  0  0  0
 11 12  2  0  0  0  0
 11 28  1  0  0  0  0
 12 29  1  0  0  0  0
 13 18  1  0  0  0  0
 13 24  2  0  0  0  0
 14 23  1  0  0  0  0
 14 27  2  0  0  0  0
 15 24  1  0  0  0  0
 15 25  2  0  0  0  0
 16 29  2  0  0  0  0
 16 30  1  0  0  0  0
 17 32  1  0  0  0  0
 18 31  2  0  0  0  0
 18 36  1  0  0  0  0
 19 32  1  0  0  0  0
 19 33  2  0  0  0  0
 19 37  1  0  0  0  0
 20 22  2  0  0  0  0
 20 42  1  0  0  0  0
 21 23  2  0  0  0  0
 21 43  1  0  0  0  0
 22 54  1  0  0  0  0
 23 44  1  0  0  0  0
 24 69  1  0  0  0  0
 25 31  1  0  0  0  0
 25 74  1  0  0  0  0
 26 84  1  0  0  0  0
 27 85  1  0  0  0  0
 28 30  2  0  0  0  0
 28 84  1  0  0  0  0
 29 86  1  0  0  0  0
 30 87  1  0  0  0  0
 31 88  1  0  0  0  0
 32 67  2  0  0  0  0
 33 68  1  0  0  0  0
 33 72  1  0  0  0  0
 34 45  1  0  0  0  0
 34 69  1  0  0  0  0
 34 78  2  0  0  0  0
 35 36  2  0  0  0  0
 37 73  1  0  0  0  0
 37 79  2  0  0  0  0
 38 55  1  0  0  0  0
 38 75  1  0  0  0  0
 38 80  2  0  0  0  0
 39 64  1  0  0  0  0
 39 70  1  0  0  0  0
 39 81  2  0  0  0  0
 40 65  1  0  0  0  0
 40 76  1  0  0  0  0
 40 82  2  0  0  0  0
 41 71  1  0  0  0  0
 41 74  1  0  0  0  0
 41 83  2  0  0  0  0
 42 46  1  0  0  0  0
 43 55  1  0  0  0  0
 44 70  1  0  0  0  0
 45 47  1  0  0  0  0
 46 49  1  0  0  0  0
 47 56  1  0  0  0  0
 48 50  1  0  0  0  0
 48 51  1  0  0  0  0
 49 54  1  0  0  0  0
 50 57  1  0  0  0  0
 51 71  1  0  0  0  0
 52 56  1  0  0  0  0
 52 69  1  0  0  0  0
 53 57  1  0  0  0  0
 53 71  1  0  0  0  0
 54 75  1  0  0  0  0
 55 70  1  0  0  0  0
 56 63  1  0  0  0  0
 57 68  1  0  0  0  0
 58 65  1  0  0  0  0
 59 66  1  0  0  0  0
 60 66  1  0  0  0  0
 61 66  1  0  0  0  0
 62 77  1  0  0  0  0
 63 85  1  0  0  0  0
 64 66  1  0  0  0  0
 64 76  1  0  0  0  0
 65 77  1  0  0  0  0
 67 68  1  0  0  0  0
M  CHG  1  77   1
M  ISO  4  41 100  63 101  74 100  85 101
M  END
> <Batch ID>
0063

> <Smiles>
C=Cc1cc(N2CC([101CH2:1][101O:1]c3ccc4c(c3)CN(C(=O)C(NC(=O)C(C)NC)C(C)(C)C)C(C(=O)NC3CCCc5ccccc53)C4)CCC2=O)cc([100NH:0][100C:0](=O)N2CCCC(n3nc(-c4ccc(Oc5ccc(F)cc5F)cc4)c(C(N)=O)c3N)C2)c1F

> <Shape>
0.300

> <Color>
0.085

> <Negative vol penalty>
0.000

$$$$

  -OEChem-04042323123D

 83 91  0     1  0  0  0  0  0999 V2000
  -37.7833  -27.7106   26.6342 C   0  0  0  0  0  0  0  0  0  0  0  0
  -37.2993  -26.5540   26.0311 C   0  0  0  0  0  0  0  0  0  0  0  0
  -23.0731   -9.8706   19.9396 C   0  0  0  0  0  0  0  0  0  0  0  0
  -23.8321   -9.8753   22.2333 C   0  0  0  0  0  0  0  0  0  0  0  0
  -37.1285  -28.9253   26.4354 C   0  0  0  0  0  0  0  0  0  0  0  0
  -36.1595  -26.6114   25.2299 C   0  0  0  0  0  0  0  0  0  0  0  0
  -36.6840  -24.0101   20.9167 C   0  0  0  0  0  0  0  0  0  0  0  0
  -29.8800  -17.4524   23.1452 C   0  0  0  0  0  0  0  0  0  0  0  0
  -30.4669  -18.3357   24.0512 C   0  0  0  0  0  0  0  0  0  0  0  0
  -22.3282   -8.7179   20.1884 C   0  0  0  0  0  0  0  0  0  0  0  0
  -23.0872   -8.7225   22.4821 C   0  0  0  0  0  0  0  0  0  0  0  0
  -36.5543  -22.6239   20.9894 C   0  0  0  0  0  0  0  0  0  0  0  0
  -19.3788   -7.9225   21.6380 C   0  0  0  0  0  0  0  0  0  0  0  0
  -18.0721   -7.8777   21.1523 C   0  0  0  0  0  0  0  0  0  0  0  0
  -32.0645  -16.6039   22.5574 C   0  0  0  0  0  0  0  0  0  0  0  0
  -34.2901  -22.7991   20.1758 C   0  0  0  0  0  0  0  0  0  0  0  0
  -18.6307   -5.9352   19.8287 C   0  0  0  0  0  0  0  0  0  0  0  0
  -23.8251  -10.4493   20.9621 C   0  0  0  0  0  0  0  0  0  0  0  0
  -32.6514  -17.4873   23.4634 C   0  0  0  0  0  0  0  0  0  0  0  0
  -24.1690  -12.9743   20.8441 C   0  0  0  0  0  0  0  0  0  0  0  0
  -35.9857  -28.9994   25.6235 C   0  0  0  0  0  0  0  0  0  0  0  0
  -35.6123  -24.8035   20.4827 C   0  0  0  0  0  0  0  0  0  0  0  0
  -35.4881  -27.8281   25.0212 C   0  0  0  0  0  0  0  0  0  0  0  0
  -34.4096  -24.1950   20.0961 C   0  0  0  0  0  0  0  0  0  0  0  0
  -30.6788  -16.5864   22.3983 C   0  0  0  0  0  0  0  0  0  0  0  0
  -31.8526  -18.3532   24.2103 C   0  0  0  0  0  0  0  0  0  0  0  0
  -22.3352   -8.1438   21.4597 C   0  0  0  0  0  0  0  0  0  0  0  0
  -35.3563  -22.0184   20.6217 C   0  0  0  0  0  0  0  0  0  0  0  0
  -20.3116   -6.9737   21.2191 C   0  0  0  0  0  0  0  0  0  0  0  0
  -17.6980   -6.8840   20.2476 C   0  0  0  0  0  0  0  0  0  0  0  0
  -19.9375   -5.9801   20.3145 C   0  0  0  0  0  0  0  0  0  0  0  0
  -24.5952  -11.6398   20.7055 C   0  0  0  0  0  0  0  0  0  0  0  0
  -25.2618  -13.7232   20.4818 C   0  0  0  0  0  0  0  0  0  0  0  0
  -35.2139  -18.7792   22.1108 C   0  0  0  0  0  0  0  0  0  0  0  0
  -34.1330  -17.4803   23.6105 C   0  0  0  0  0  0  0  0  0  0  0  0
  -22.8987  -13.4908   21.2629 C   0  0  0  0  0  0  0  0  0  0  0  0
  -33.8463  -27.0991   21.7922 C   0  0  0  0  0  0  0  0  0  0  0  0
  -32.6002  -27.3072   18.8045 C   0  0  0  0  0  0  0  0  0  0  0  0
  -31.9801  -25.7887   15.8118 C   0  0  0  0  0  0  0  0  0  0  0  0
  -30.7288  -14.7644   20.6593 C   0  0  0  0  0  0  0  0  0  0  0  0
  -35.2844  -30.3265   25.4764 C   0  0  0  0  0  0  0  0  0  0  0  0
  -35.7771  -26.2953   20.3845 C   0  0  0  0  0  0  0  0  0  0  0  0
  -33.2358  -25.0002   19.6040 C   0  0  0  0  0  0  0  0  0  0  0  0
  -34.3003  -30.3694   24.3103 C   0  0  0  0  0  0  0  0  0  0  0  0
  -29.6133  -12.3532   18.2888 C   0  0  0  0  0  0  0  0  0  0  0  0
  -33.4237  -29.1210   24.3053 C   0  0  0  0  0  0  0  0  0  0  0  0
  -28.1733  -12.0625   18.7176 C   0  0  0  0  0  0  0  0  0  0  0  0
  -30.5282  -12.5804   19.4910 C   0  0  0  0  0  0  0  0  0  0  0  0
  -28.6213  -13.3053   20.8721 C   0  0  0  0  0  0  0  0  0  0  0  0
  -34.2689  -27.8543   24.1250 C   0  0  1  0  0  0  0  0  0  0  0  0
  -34.4498  -27.0466   20.4172 C   0  0  1  0  0  0  0  0  0  0  0  0
  -27.6488  -13.1337   19.6938 C   0  0  2  0  0  0  0  0  0  0  0  0
  -30.9115  -26.1991   13.5786 C   0  0  0  0  0  0  0  0  0  0  0  0
  -29.8417  -26.9839   20.0679 C   0  0  0  0  0  0  0  0  0  0  0  0
  -28.9395  -26.4513   17.7940 C   0  0  0  0  0  0  0  0  0  0  0  0
  -29.9582  -28.6846   18.2380 C   0  0  0  0  0  0  0  0  0  0  0  0
  -34.5351  -25.3614   14.3807 C   0  0  0  0  0  0  0  0  0  0  0  0
  -35.9893  -19.9915   21.6926 C   0  0  0  0  0  0  0  0  0  1  0  0
  -31.4516  -26.6510   18.0771 C   0  0  1  0  0  0  0  0  0  0  0  0
  -32.2012  -26.2509   14.3828 C   0  0  2  0  0  0  0  0  0  0  0  0
  -30.0690  -27.1774   18.5553 C   0  0  0  0  0  0  0  0  0  0  0  0
  -25.8601  -11.5433   20.2876 N   0  0  0  0  0  0  0  0  0  0  0  0
  -34.8230  -18.6364   23.3357 N   0  0  0  0  0  0  0  0  0  0  0  0
  -26.2381  -12.8267   20.1604 N   0  0  0  0  0  0  0  0  0  0  0  0
  -33.4441  -26.4559   19.5318 N   0  0  0  0  0  0  0  0  0  0  0  0
  -29.9697  -13.6110   20.3689 N   0  0  0  0  0  0  0  0  0  0  0  0
  -32.4270  -19.2561   25.1326 N   0  0  0  0  0  0  0  0  0  0  0  0
  -25.4733  -15.0546   20.4099 N   0  0  0  0  0  0  0  0  0  0  0  0
  -21.8860  -12.5822   21.5991 N   0  0  0  0  0  0  0  0  0  0  0  0
  -30.0818  -15.6893   21.4782 N   0  0  0  0  0  0  0  0  0  0  0  0
  -34.6554  -27.6975   22.7392 N   0  0  0  0  0  0  0  0  0  0  0  0
  -31.7054  -26.8456   16.6537 N   0  0  0  0  0  0  0  0  0  0  0  0
  -34.7888  -16.4254   23.9446 N   0  3  0  0  0  0  0  0  0  0  0  0
  -33.2104  -25.3859   13.7089 N   0  3  0  0  0  0  0  0  0  0  0  0
  -22.6634  -14.7215   21.3211 O   0  0  0  0  0  0  0  0  0  0  0  0
  -32.7287  -26.6327   21.9798 O   0  0  0  0  0  0  0  0  0  0  0  0
  -32.7475  -28.5293   18.7244 O   0  0  0  0  0  0  0  0  0  0  0  0
  -32.0411  -24.6078   16.1469 O   0  0  0  0  0  0  0  0  0  0  0  0
  -31.8582  -14.9325   20.1923 O   0  0  0  0  0  0  0  0  0  0  0  0
  -21.6083   -7.0191   21.7029 O   0  0  0  0  0  0  0  0  0  0  0  0
  -35.2268  -20.6656   20.6924 O   0  0  0  0  0  0  0  0  0  1  0  0
  -16.4427   -6.8402   19.7824 F   0  0  0  0  0  0  0  0  0  0  0  0
  -20.8289   -5.0651   19.9093 F   0  0  0  0  0  0  0  0  0  0  0  0
  1  2  1  0  0  0  0
  1  5  2  0  0  0  0
  2  6  2  0  0  0  0
  3 10  2  0  0  0  0
  3 18  1  0  0  0  0
  4 11  1  0  0  0  0
  4 18  2  0  0  0  0
  5 21  1  0  0  0  0
  6 23  1  0  0  0  0
  7 12  2  0  0  0  0
  7 22  1  0  0  0  0
  8  9  2  0  0  0  0
  8 25  1  0  0  0  0
  9 26  1  0  0  0  0
 10 27  1  0  0  0  0
 11 27  2  0  0  0  0
 12 28  1  0  0  0  0
 13 14  2  0  0  0  0
 13 29  1  0  0  0  0
 14 30  1  0  0  0  0
 15 19  1  0  0  0  0
 15 25  2  0  0  0  0
 16 24  1  0  0  0  0
 16 28  2  0  0  0  0
 17 30  2  0  0  0  0
 17 31  1  0  0  0  0
 18 32  1  0  0  0  0
 19 26  2  0  0  0  0
 19 35  1  0  0  0  0
 20 32  1  0  0  0  0
 20 33  2  0  0  0  0
 20 36  1  0  0  0  0
 21 23  2  0  0  0  0
 21 41  1  0  0  0  0
 22 24  2  0  0  0  0
 22 42  1  0  0  0  0
 23 50  1  0  0  0  0
 24 43  1  0  0  0  0
 25 70  1  0  0  0  0
 26 67  1  0  0  0  0
 27 80  1  0  0  0  0
 28 81  1  0  0  0  0
 29 31  2  0  0  0  0
 29 80  1  0  0  0  0
 30 82  1  0  0  0  0
 31 83  1  0  0  0  0
 32 62  2  0  0  0  0
 33 64  1  0  0  0  0
 33 68  1  0  0  0  0
 34 58  1  0  0  0  0
 34 63  2  0  0  0  0
 35 63  1  0  0  0  0
 35 73  2  0  0  0  0
 36 69  1  0  0  0  0
 36 75  2  0  0  0  0
 37 51  1  0  0  0  0
 37 71  1  0  0  0  0
 37 76  2  0  0  0  0
 38 59  1  0  0  0  0
 38 65  1  0  0  0  0
 38 77  2  0  0  0  0
 39 60  1  0  0  0  0
 39 72  1  0  0  0  0
 39 78  2  0  0  0  0
 40 66  1  0  0  0  0
 40 70  1  0  0  0  0
 40 79  2  0  0  0  0
 41 44  1  0  0  0  0
 42 51  1  0  0  0  0
 43 65  1  0  0  0  0
 44 46  1  0  0  0  0
 45 47  1  0  0  0  0
 45 48  1  0  0  0  0
 46 50  1  0  0  0  0
 47 52  1  0  0  0  0
 48 66  1  0  0  0  0
 49 52  1  0  0  0  0
 49 66  1  0  0  0  0
 50 71  1  0  0  0  0
 51 65  1  0  0  0  0
 52 64  1  0  0  0  0
 53 60  1  0  0  0  0
 54 61  1  0  0  0  0
 55 61  1  0  0  0  0
 56 61  1  0  0  0  0
 57 74  1  0  0  0  0
 58 81  1  0  0  0  0
 59 61  1  0  0  0  0
 59 72  1  0  0  0  0
 60 74  1  0  0  0  0
 62 64  1  0  0  0  0
M  CHG  2  73   1  74   1
M  ISO  4  40 100  58 101  70 100  81 101
M  END
> <Batch ID>
0063

> <Smiles>
CNC(C)C(=O)NC(C(=O)N1Cc2cc([101O:1][101CH:1]=CNC(=N)c3cc([100NH:0][100C:0](=O)N4CCCC(n5nc(-c6ccc(Oc7ccc(F)cc7F)cc6)c(C(N)=O)c5N)C4)ccc3N)ccc2CC1C(=O)NC1CCCc2ccccc21)C(C)(C)C

> <Shape>
0.173

> <Color>
0.180

> <Negative vol penalty>
0.000

$$$$

  -OEChem-04042323123D

 84 92  0     1  0  0  0  0  0999 V2000
  -29.4591  -22.7088   19.1412 C   0  0  0  0  0  0  0  0  0  0  0  0
  -28.1960  -22.9860   19.6542 C   0  0  0  0  0  0  0  0  0  0  0  0
  -20.7241  -20.9535   26.3788 C   0  0  0  0  0  0  0  0  0  0  0  0
  -27.1708  -16.6399   18.8961 C   0  0  0  0  0  0  0  0  0  0  0  0
  -27.2436  -17.0447   21.2769 C   0  0  0  0  0  0  0  0  0  0  0  0
  -30.5694  -23.4111   19.6080 C   0  0  0  0  0  0  0  0  0  0  0  0
  -28.0427  -23.9651   20.6352 C   0  0  0  0  0  0  0  0  0  0  0  0
  -24.1064  -27.0204   19.7320 C   0  0  0  0  0  0  0  0  0  0  0  0
  -20.8581  -20.1076   25.2779 C   0  0  0  0  0  0  0  0  0  0  0  0
  -28.5029  -17.0389   18.7875 C   0  0  0  0  0  0  0  0  0  0  0  0
  -28.5758  -17.4437   21.1683 C   0  0  0  0  0  0  0  0  0  0  0  0
  -22.8369  -26.5295   20.0339 C   0  0  0  0  0  0  0  0  0  0  0  0
  -32.1032  -18.2254   21.5734 C   0  0  0  0  0  0  0  0  0  0  0  0
  -33.0069  -17.7348   22.5159 C   0  0  0  0  0  0  0  0  0  0  0  0
  -19.9020  -22.0775   26.2988 C   0  0  0  0  0  0  0  0  0  0  0  0
  -22.8539  -27.7731   22.1008 C   0  0  0  0  0  0  0  0  0  0  0  0
  -19.3478  -21.5097   24.0169 C   0  0  0  0  0  0  0  0  0  0  0  0
  -32.5074  -15.4760   21.8190 C   0  0  0  0  0  0  0  0  0  0  0  0
  -26.5411  -16.6428   20.1408 C   0  0  0  0  0  0  0  0  0  0  0  0
  -24.6834  -14.9296   20.4898 C   0  0  0  0  0  0  0  0  0  0  0  0
  -30.4282  -24.4060   20.5882 C   0  0  0  0  0  0  0  0  0  0  0  0
  -24.7648  -27.8843   20.6190 C   0  0  0  0  0  0  0  0  0  0  0  0
  -29.1523  -24.6805   21.1165 C   0  0  0  0  0  0  0  0  0  0  0  0
  -24.1307  -28.2757   21.8067 C   0  0  0  0  0  0  0  0  0  0  0  0
  -20.1699  -20.3857   24.0969 C   0  0  0  0  0  0  0  0  0  0  0  0
  -29.2054  -17.4408   19.9236 C   0  0  0  0  0  0  0  0  0  0  0  0
  -22.2117  -26.9035   21.2197 C   0  0  0  0  0  0  0  0  0  0  0  0
  -31.4016  -17.3413   20.7537 C   0  0  0  0  0  0  0  0  0  0  0  0
  -33.2090  -16.3601   22.6387 C   0  0  0  0  0  0  0  0  0  0  0  0
  -31.6037  -15.9667   20.8765 C   0  0  0  0  0  0  0  0  0  0  0  0
  -19.2138  -22.3556   25.1179 C   0  0  0  0  0  0  0  0  0  0  0  0
  -25.1649  -16.2313   20.2536 C   0  0  0  0  0  0  0  0  0  0  0  0
  -23.3170  -15.0672   20.5091 C   0  0  0  0  0  0  0  0  0  0  0  0
  -25.4068  -13.7057   20.6754 C   0  0  0  0  0  0  0  0  0  0  0  0
  -27.4652  -27.7510   22.2906 C   0  0  0  0  0  0  0  0  0  0  0  0
  -26.7172  -30.8253   23.0056 C   0  0  0  0  0  0  0  0  0  0  0  0
  -19.6513  -25.1497   23.0852 C   0  0  0  0  0  0  0  0  0  0  0  0
  -24.3108  -33.2261   23.3095 C   0  0  0  0  0  0  0  0  0  0  0  0
  -19.6931  -19.6580   21.7327 C   0  0  0  0  0  0  0  0  0  0  0  0
  -31.6642  -25.1057   21.0956 C   0  0  0  0  0  0  0  0  0  0  0  0
  -26.1229  -28.4263   20.2662 C   0  0  0  0  0  0  0  0  0  0  0  0
  -24.7864  -29.2167   22.7829 C   0  0  0  0  0  0  0  0  0  0  0  0
  -31.3646  -26.3885   21.8670 C   0  0  0  0  0  0  0  0  0  0  0  0
  -19.8003  -17.7760   18.7121 C   0  0  0  0  0  0  0  0  0  0  0  0
  -30.2406  -26.1569   22.8719 C   0  0  0  0  0  0  0  0  0  0  0  0
  -21.1416  -17.0431   18.7890 C   0  0  0  0  0  0  0  0  0  0  0  0
  -19.8880  -19.1827   19.3014 C   0  0  0  0  0  0  0  0  0  0  0  0
  -21.7749  -18.5196   20.7398 C   0  0  0  0  0  0  0  0  0  0  0  0
  -28.9420  -25.7526   22.1636 C   0  0  1  0  0  0  0  0  0  0  0  0
  -26.9147  -28.8929   21.4838 C   0  0  1  0  0  0  0  0  0  0  0  0
  -21.7200  -17.0748   20.2173 C   0  0  2  0  0  0  0  0  0  0  0  0
  -23.9988  -35.6327   23.9485 C   0  0  0  0  0  0  0  0  0  0  0  0
  -26.9993  -30.0775   25.9503 C   0  0  0  0  0  0  0  0  0  0  0  0
  -25.7786  -32.1850   26.5305 C   0  0  0  0  0  0  0  0  0  0  0  0
  -27.9683  -32.3012   25.3412 C   0  0  0  0  0  0  0  0  0  0  0  0
  -23.2785  -33.9255   20.6254 C   0  0  0  0  0  0  0  0  0  0  0  0
  -20.6528  -26.2650   22.8985 C   0  0  0  0  0  0  0  0  0  1  0  0
  -25.9194  -31.5068   24.0910 C   0  0  1  0  0  0  0  0  0  0  0  0
  -24.2472  -34.6576   22.8082 C   0  0  2  0  0  0  0  0  0  0  0  0
  -26.6546  -31.4983   25.4610 C   0  0  0  0  0  0  0  0  0  0  0  0
  -24.1840  -17.1295   20.1314 N   0  0  0  0  0  0  0  0  0  0  0  0
  -23.0725  -16.3912   20.2914 N   0  0  0  0  0  0  0  0  0  0  0  0
  -26.1168  -29.7146   22.3961 N   0  0  0  0  0  0  0  0  0  0  0  0
  -20.4406  -19.1339   20.6568 N   0  0  0  0  0  0  0  0  0  0  0  0
  -22.3127  -14.1835   20.6908 N   0  0  0  0  0  0  0  0  0  0  0  0
  -26.8069  -13.7429   20.6255 N   0  0  0  0  0  0  0  0  0  0  0  0
  -20.3057  -19.5263   22.9785 N   0  0  0  0  0  0  0  0  0  0  0  0
  -28.3024  -26.9122   21.5800 N   0  0  0  0  0  0  0  0  0  0  0  0
  -25.6045  -32.8403   23.5901 N   0  0  0  0  0  0  0  0  0  0  0  0
  -19.2814  -24.9555   24.4547 N   0  0  0  0  0  0  0  0  0  0  0  0
  -23.1488  -34.8094   21.8124 N   0  3  0  0  0  0  0  0  0  0  0  0
  -24.8281  -12.6087   20.8630 O   0  0  0  0  0  0  0  0  0  0  0  0
  -27.1545  -27.6400   23.4708 O   0  0  0  0  0  0  0  0  0  0  0  0
  -27.8291  -31.2667   22.7047 O   0  0  0  0  0  0  0  0  0  0  0  0
  -19.2034  -24.4851   22.1579 O   0  0  0  0  0  0  0  0  0  0  0  0
  -23.3124  -32.5220   23.4426 O   0  0  0  0  0  0  0  0  0  0  0  0
  -18.5789  -20.1602   21.5650 O   0  0  0  0  0  0  0  0  0  0  0  0
  -17.7471  -24.1245   26.3595 O   0  0  0  0  0  0  0  0  0  0  0  0
  -17.1941  -23.5127   23.9807 O   0  0  0  0  0  0  0  0  0  0  0  0
  -30.5054  -17.8300   19.8180 O   0  0  0  0  0  0  0  0  0  0  0  0
  -20.9728  -26.4252   21.5171 O   0  0  0  0  0  0  0  0  0  1  0  0
  -34.0779  -15.8892   23.5427 F   0  0  0  0  0  0  0  0  0  0  0  0
  -30.9334  -15.1125   20.0910 F   0  0  0  0  0  0  0  0  0  0  0  0
  -18.1729  -23.7805   25.0167 S   0  0  0  0  0  0  0  0  0  0  0  0
  1  2  1  0  0  0  0
  1  6  2  0  0  0  0
  2  7  2  0  0  0  0
  3  9  1  0  0  0  0
  3 15  2  0  0  0  0
  4 10  2  0  0  0  0
  4 19  1  0  0  0  0
  5 11  1  0  0  0  0
  5 19  2  0  0  0  0
  6 21  1  0  0  0  0
  7 23  1  0  0  0  0
  8 12  2  0  0  0  0
  8 22  1  0  0  0  0
  9 25  2  0  0  0  0
 10 26  1  0  0  0  0
 11 26  2  0  0  0  0
 12 27  1  0  0  0  0
 13 14  2  0  0  0  0
 13 28  1  0  0  0  0
 14 29  1  0  0  0  0
 15 31  1  0  0  0  0
 16 24  1  0  0  0  0
 16 27  2  0  0  0  0
 17 25  1  0  0  0  0
 17 31  2  0  0  0  0
 18 29  2  0  0  0  0
 18 30  1  0  0  0  0
 19 32  1  0  0  0  0
 20 32  1  0  0  0  0
 20 33  2  0  0  0  0
 20 34  1  0  0  0  0
 21 23  2  0  0  0  0
 21 40  1  0  0  0  0
 22 24  2  0  0  0  0
 22 41  1  0  0  0  0
 23 49  1  0  0  0  0
 24 42  1  0  0  0  0
 25 67  1  0  0  0  0
 26 80  1  0  0  0  0
 27 81  1  0  0  0  0
 28 30  2  0  0  0  0
 28 80  1  0  0  0  0
 29 82  1  0  0  0  0
 30 83  1  0  0  0  0
 31 84  1  0  0  0  0
 32 61  2  0  0  0  0
 33 62  1  0  0  0  0
 33 65  1  0  0  0  0
 34 66  1  0  0  0  0
 34 72  2  0  0  0  0
 35 50  1  0  0  0  0
 35 68  1  0  0  0  0
 35 73  2  0  0  0  0
 36 58  1  0  0  0  0
 36 63  1  0  0  0  0
 36 74  2  0  0  0  0
 37 57  1  0  0  0  0
 37 70  1  0  0  0  0
 37 75  2  0  0  0  0
 38 59  1  0  0  0  0
 38 69  1  0  0  0  0
 38 76  2  0  0  0  0
 39 64  1  0  0  0  0
 39 67  1  0  0  0  0
 39 77  2  0  0  0  0
 40 43  1  0  0  0  0
 41 50  1  0  0  0  0
 42 63  1  0  0  0  0
 43 45  1  0  0  0  0
 44 46  1  0  0  0  0
 44 47  1  0  0  0  0
 45 49  1  0  0  0  0
 46 51  1  0  0  0  0
 47 64  1  0  0  0  0
 48 51  1  0  0  0  0
 48 64  1  0  0  0  0
 49 68  1  0  0  0  0
 50 63  1  0  0  0  0
 51 62  1  0  0  0  0
 52 59  1  0  0  0  0
 53 60  1  0  0  0  0
 54 60  1  0  0  0  0
 55 60  1  0  0  0  0
 56 71  1  0  0  0  0
 57 81  1  0  0  0  0
 58 60  1  0  0  0  0
 58 69  1  0  0  0  0
 59 71  1  0  0  0  0
 61 62  1  0  0  0  0
 70 84  1  0  0  0  0
 78 84  2  0  0  0  0
 79 84  2  0  0  0  0
M  CHG  1  71   1
M  ISO  4  39 100  57 101  67 100  81 101
M  END
> <Batch ID>
0063

> <Smiles>
CNC(C)C(=O)NC(C(=O)N1Cc2cc([101O:1][101CH2:1]C(=O)NS(=O)(=O)c3cccc([100NH:0][100C:0](=O)N4CCCC(n5nc(-c6ccc(Oc7ccc(F)cc7F)cc6)c(C(N)=O)c5N)C4)c3)ccc2CC1C(=O)NC1CCCc2ccccc21)C(C)(C)C

> <Shape>
0.229

> <Color>
0.071

> <Negative vol penalty>
0.000

$$$$

  -OEChem-04042323123D

 83 91  0     1  0  0  0  0  0999 V2000
  -18.3859  -26.2751   25.3213 C   0  0  0  0  0  0  0  0  0  0  0  0
  -19.3082  -25.7805   24.4047 C   0  0  0  0  0  0  0  0  0  0  0  0
  -27.2714  -16.6746   15.5074 C   0  0  0  0  0  0  0  0  0  0  0  0
  -23.0173  -10.0717   19.9809 C   0  0  0  0  0  0  0  0  0  0  0  0
  -23.6903   -9.9574   22.2985 C   0  0  0  0  0  0  0  0  0  0  0  0
  -28.1793  -15.6821   15.8766 C   0  0  0  0  0  0  0  0  0  0  0  0
  -17.8753  -27.5634   25.1687 C   0  0  0  0  0  0  0  0  0  0  0  0
  -19.7196  -26.5737   23.3342 C   0  0  0  0  0  0  0  0  0  0  0  0
  -24.7301  -26.4206   22.6156 C   0  0  0  0  0  0  0  0  0  0  0  0
  -27.0123  -17.7390   16.3708 C   0  0  0  0  0  0  0  0  0  0  0  0
  -22.2096   -8.9487   20.1601 C   0  0  0  0  0  0  0  0  0  0  0  0
  -22.8825   -8.8344   22.4777 C   0  0  0  0  0  0  0  0  0  0  0  0
  -25.2470  -25.2969   21.9723 C   0  0  0  0  0  0  0  0  0  0  0  0
  -21.2771   -5.7237   23.4552 C   0  0  0  0  0  0  0  0  0  0  0  0
  -21.8132   -4.6448   24.1581 C   0  0  0  0  0  0  0  0  0  0  0  0
  -25.3613  -26.5390   19.9075 C   0  0  0  0  0  0  0  0  0  0  0  0
  -23.5691   -4.4441   22.5108 C   0  0  0  0  0  0  0  0  0  0  0  0
  -23.7578  -10.5760   21.0501 C   0  0  0  0  0  0  0  0  0  0  0  0
  -28.8281  -15.7540   17.1093 C   0  0  0  0  0  0  0  0  0  0  0  0
  -24.2260  -13.0836   21.0387 C   0  0  0  0  0  0  0  0  0  0  0  0
  -18.2879  -28.3763   24.1012 C   0  0  0  0  0  0  0  0  0  0  0  0
  -24.5143  -27.6107   21.9060 C   0  0  0  0  0  0  0  0  0  0  0  0
  -19.2130  -27.8737   23.1663 C   0  0  0  0  0  0  0  0  0  0  0  0
  -24.8439  -27.6772   20.5447 C   0  0  0  0  0  0  0  0  0  0  0  0
  -28.5689  -16.8183   17.9728 C   0  0  0  0  0  0  0  0  0  0  0  0
  -27.6610  -17.8109   17.6035 C   0  0  0  0  0  0  0  0  0  0  0  0
  -22.1421   -8.3301   21.4084 C   0  0  0  0  0  0  0  0  0  0  0  0
  -25.5600  -25.3551   20.6174 C   0  0  0  0  0  0  0  0  0  0  0  0
  -21.8869   -6.1628   22.2800 C   0  0  0  0  0  0  0  0  0  0  0  0
  -22.9593   -4.0050   23.6859 C   0  0  0  0  0  0  0  0  0  0  0  0
  -23.0329   -5.5230   21.8078 C   0  0  0  0  0  0  0  0  0  0  0  0
  -24.5928  -11.7356   20.8655 C   0  0  0  0  0  0  0  0  0  0  0  0
  -25.3660  -13.7904   20.7434 C   0  0  0  0  0  0  0  0  0  0  0  0
  -26.4984  -20.9024   19.3877 C   0  0  0  0  0  0  0  0  0  0  0  0
  -25.7193  -21.9926   19.3661 C   0  0  0  0  0  0  0  0  0  0  0  0
  -29.7788  -14.6941   17.4692 C   0  0  0  0  0  0  0  0  0  0  0  0
  -22.9672  -13.6466   21.4315 C   0  0  0  0  0  0  0  0  0  0  0  0
  -26.5096  -19.9555   18.2332 C   0  0  0  0  0  0  0  0  0  0  0  0
  -21.9649  -29.3782   21.2129 C   0  0  0  0  0  0  0  0  0  0  0  0
  -24.1853  -31.4041   19.9931 C   0  0  0  0  0  0  0  0  0  0  0  0
  -27.3119  -31.8346   18.6947 C   0  0  0  0  0  0  0  0  0  0  0  0
  -17.6723  -29.7450   23.9509 C   0  0  0  0  0  0  0  0  0  0  0  0
  -23.9811  -28.8220   22.6207 C   0  0  0  0  0  0  0  0  0  0  0  0
  -24.6500  -28.9370   19.7425 C   0  0  0  0  0  0  0  0  0  0  0  0
  -18.4425  -30.6582   23.0005 C   0  0  0  0  0  0  0  0  0  0  0  0
  -30.1278  -12.2397   20.0374 C   0  0  0  0  0  0  0  0  0  0  0  0
  -18.7963  -29.9154   21.7160 C   0  0  0  0  0  0  0  0  0  0  0  0
  -28.6875  -11.9837   20.4850 C   0  0  0  0  0  0  0  0  0  0  0  0
  -30.2125  -12.5074   18.5369 C   0  0  0  0  0  0  0  0  0  0  0  0
  -27.8854  -13.3369   18.5035 C   0  0  0  0  0  0  0  0  0  0  0  0
  -19.7024  -28.7127   22.0059 C   0  0  1  0  0  0  0  0  0  0  0  0
  -23.3200  -29.8267   21.6821 C   0  0  1  0  0  0  0  0  0  0  0  0
  -27.7495  -13.1128   20.0186 C   0  0  1  0  0  0  0  0  0  0  0  0
  -29.2662  -16.8951   19.2956 C   0  0  0  0  0  0  0  0  0  0  0  0
  -28.8282  -33.5986   17.7531 C   0  0  0  0  0  0  0  0  0  0  0  0
  -22.6018  -31.3698   17.3851 C   0  0  0  0  0  0  0  0  0  0  0  0
  -24.6061  -32.3352   16.2367 C   0  0  0  0  0  0  0  0  0  0  0  0
  -23.4702  -33.6192   18.0488 C   0  0  0  0  0  0  0  0  0  0  0  0
  -29.3249  -31.4036   20.8209 C   0  0  0  0  0  0  0  0  0  0  0  0
  -25.6652  -22.9830   20.4843 C   0  0  0  0  0  0  0  0  0  1  0  0
  -24.8443  -31.5830   18.6468 C   0  0  1  0  0  0  0  0  0  0  0  0
  -28.4004  -32.8465   19.0038 C   0  0  2  0  0  0  0  0  0  0  0  0
  -23.8826  -32.2023   17.5937 C   0  0  0  0  0  0  0  0  0  0  0  0
  -25.8663  -11.5920   20.4892 N   0  0  0  0  0  0  0  0  0  0  0  0
  -26.3096  -12.8590   20.4234 N   0  0  0  0  0  0  0  0  0  0  0  0
  -29.2916  -13.5752   18.1489 N   0  0  0  0  0  0  0  0  0  0  0  0
  -24.1200  -30.0927   20.4848 N   0  0  0  0  0  0  0  0  0  0  0  0
  -25.6434  -15.1115   20.7288 N   0  0  0  0  0  0  0  0  0  0  0  0
  -21.9005  -12.7774   21.6977 N   0  0  0  0  0  0  0  0  0  0  0  0
  -27.3829  -18.9007   18.4646 N   0  0  0  0  0  0  0  0  0  0  0  0
  -21.0633  -29.1488   22.2346 N   0  0  0  0  0  0  0  0  0  0  0  0
  -26.0531  -32.3644   18.8846 N   0  0  0  0  0  0  0  0  0  0  0  0
  -29.5961  -32.1634   19.5735 N   0  3  0  0  0  0  0  0  0  0  0  0
  -30.9512  -14.8840   17.1488 O   0  0  0  0  0  0  0  0  0  0  0  0
  -22.7890  -14.8846   21.5273 O   0  0  0  0  0  0  0  0  0  0  0  0
  -25.8124  -20.1493   17.2444 O   0  0  0  0  0  0  0  0  0  0  0  0
  -21.7526  -29.2511   20.0127 O   0  0  0  0  0  0  0  0  0  0  0  0
  -23.7510  -32.3925   20.5899 O   0  0  0  0  0  0  0  0  0  0  0  0
  -27.5540  -30.6899   18.3186 O   0  0  0  0  0  0  0  0  0  0  0  0
  -21.3538   -7.2345   21.5837 O   0  0  0  0  0  0  0  0  0  0  0  0
  -26.0641  -24.2596   19.9869 O   0  0  0  0  0  0  0  0  0  1  0  0
  -23.4749   -2.9700   24.3619 F   0  0  0  0  0  0  0  0  0  0  0  0
  -23.6239   -5.9411   20.6801 F   0  0  0  0  0  0  0  0  0  0  0  0
  1  2  1  0  0  0  0
  1  7  2  0  0  0  0
  2  8  2  0  0  0  0
  3  6  1  0  0  0  0
  3 10  2  0  0  0  0
  4 11  2  0  0  0  0
  4 18  1  0  0  0  0
  5 12  1  0  0  0  0
  5 18  2  0  0  0  0
  6 19  2  0  0  0  0
  7 21  1  0  0  0  0
  8 23  1  0  0  0  0
  9 13  2  0  0  0  0
  9 22  1  0  0  0  0
 10 26  1  0  0  0  0
 11 27  1  0  0  0  0
 12 27  2  0  0  0  0
 13 28  1  0  0  0  0
 14 15  2  0  0  0  0
 14 29  1  0  0  0  0
 15 30  1  0  0  0  0
 16 24  1  0  0  0  0
 16 28  2  0  0  0  0
 17 30  2  0  0  0  0
 17 31  1  0  0  0  0
 18 32  1  0  0  0  0
 19 25  1  0  0  0  0
 19 36  1  0  0  0  0
 20 32  1  0  0  0  0
 20 33  2  0  0  0  0
 20 37  1  0  0  0  0
 21 23  2  0  0  0  0
 21 42  1  0  0  0  0
 22 24  2  0  0  0  0
 22 43  1  0  0  0  0
 23 51  1  0  0  0  0
 24 44  1  0  0  0  0
 25 26  2  0  0  0  0
 25 54  1  0  0  0  0
 26 70  1  0  0  0  0
 27 80  1  0  0  0  0
 28 81  1  0  0  0  0
 29 31  2  0  0  0  0
 29 80  1  0  0  0  0
 30 82  1  0  0  0  0
 31 83  1  0  0  0  0
 32 64  2  0  0  0  0
 33 65  1  0  0  0  0
 33 68  1  0  0  0  0
 34 35  2  0  0  0  0
 34 38  1  0  0  0  0
 35 60  1  0  0  0  0
 36 66  1  0  0  0  0
 36 74  2  0  0  0  0
 37 69  1  0  0  0  0
 37 75  2  0  0  0  0
 38 70  1  0  0  0  0
 38 76  2  0  0  0  0
 39 52  1  0  0  0  0
 39 71  1  0  0  0  0
 39 77  2  0  0  0  0
 40 61  1  0  0  0  0
 40 67  1  0  0  0  0
 40 78  2  0  0  0  0
 41 62  1  0  0  0  0
 41 72  1  0  0  0  0
 41 79  2  0  0  0  0
 42 45  1  0  0  0  0
 43 52  1  0  0  0  0
 44 67  1  0  0  0  0
 45 47  1  0  0  0  0
 46 48  1  0  0  0  0
 46 49  1  0  0  0  0
 47 51  1  0  0  0  0
 48 53  1  0  0  0  0
 49 66  1  0  0  0  0
 50 53  1  0  0  0  0
 50 66  1  0  0  0  0
 51 71  1  0  0  0  0
 52 67  1  0  0  0  0
 53 65  1  0  0  0  0
 55 62  1  0  0  0  0
 56 63  1  0  0  0  0
 57 63  1  0  0  0  0
 58 63  1  0  0  0  0
 59 73  1  0  0  0  0
 60 81  1  0  0  0  0
 61 63  1  0  0  0  0
 61 72  1  0  0  0  0
 62 73  1  0  0  0  0
 64 65  1  0  0  0  0
M  CHG  1  73   1
M  ISO  4  19 100  36 100  60 101  81 101
M  END
> <Batch ID>
0063

> <Smiles>
CNC(C)C(=O)NC(C(=O)N1Cc2cc([101O:1][101CH2:1]C=CC(=O)Nc3ccc[100c:0]([100C:0](=O)N4CCCC(n5nc(-c6ccc(Oc7ccc(F)cc7F)cc6)c(C(N)=O)c5N)C4)c3C)ccc2CC1C(=O)NC1CCCc2ccccc21)C(C)(C)C

> <Shape>
0.262

> <Color>
0.204

> <Negative vol penalty>
0.000

$$$$

  -OEChem-04042323123D

 89 98  0     1  0  0  0  0  0999 V2000
  -17.5006  -30.2606   24.5947 C   0  0  0  0  0  0  0  0  0  0  0  0
  -18.8776  -30.4079   24.7274 C   0  0  0  0  0  0  0  0  0  0  0  0
  -24.4301  -11.5614   20.6891 C   0  0  0  0  0  0  0  0  0  0  0  0
  -24.9837  -12.9072   22.6177 C   0  0  0  0  0  0  0  0  0  0  0  0
  -16.9838  -29.2820   23.7467 C   0  0  0  0  0  0  0  0  0  0  0  0
  -19.7387  -29.5758   24.0128 C   0  0  0  0  0  0  0  0  0  0  0  0
  -26.1554  -29.5950   20.8284 C   0  0  0  0  0  0  0  0  0  0  0  0
  -24.5265  -10.4074   21.4667 C   0  0  0  0  0  0  0  0  0  0  0  0
  -25.0800  -11.7533   23.3953 C   0  0  0  0  0  0  0  0  0  0  0  0
  -27.3484  -28.8738   20.8049 C   0  0  0  0  0  0  0  0  0  0  0  0
  -22.6242   -8.7590   23.7244 C   0  0  0  0  0  0  0  0  0  0  0  0
  -21.6198   -7.8006   23.5893 C   0  0  0  0  0  0  0  0  0  0  0  0
  -26.4390  -20.8516   23.5646 C   0  0  0  0  0  0  0  0  0  0  0  0
  -26.3427  -27.2705   19.3091 C   0  0  0  0  0  0  0  0  0  0  0  0
  -28.0899  -21.9727   22.2026 C   0  0  0  0  0  0  0  0  0  0  0  0
  -23.2653   -6.1743   22.8931 C   0  0  0  0  0  0  0  0  0  0  0  0
  -24.6588  -12.8113   21.2646 C   0  0  0  0  0  0  0  0  0  0  0  0
  -26.3834  -21.9599   24.4095 C   0  0  0  0  0  0  0  0  0  0  0  0
  -23.4296  -14.4655   19.7612 C   0  0  0  0  0  0  0  0  0  0  0  0
  -17.8390  -28.4439   23.0141 C   0  0  0  0  0  0  0  0  0  0  0  0
  -25.0419  -29.1527   20.0998 C   0  0  0  0  0  0  0  0  0  0  0  0
  -19.2328  -28.5841   23.1552 C   0  0  0  0  0  0  0  0  0  0  0  0
  -25.1376  -27.9893   19.3230 C   0  0  0  0  0  0  0  0  0  0  0  0
  -28.0342  -23.0811   23.0476 C   0  0  0  0  0  0  0  0  0  0  0  0
  -27.2923  -20.8579   22.4612 C   0  0  0  0  0  0  0  0  0  0  0  0
  -24.8514  -10.5033   22.8198 C   0  0  0  0  0  0  0  0  0  0  0  0
  -27.4412  -27.7098   20.0475 C   0  0  0  0  0  0  0  0  0  0  0  0
  -23.9491   -8.4251   23.4437 C   0  0  0  0  0  0  0  0  0  0  0  0
  -21.9403   -6.5082   23.1737 C   0  0  0  0  0  0  0  0  0  0  0  0
  -24.2697   -7.1328   23.0281 C   0  0  0  0  0  0  0  0  0  0  0  0
  -27.1809  -23.0747   24.1510 C   0  0  0  0  0  0  0  0  0  0  0  0
  -24.5599  -14.0036   20.4617 C   0  0  0  0  0  0  0  0  0  0  0  0
  -23.8484  -15.6284   19.1621 C   0  0  0  0  0  0  0  0  0  0  0  0
  -29.2275  -24.5682   21.4611 C   0  0  0  0  0  0  0  0  0  0  0  0
  -25.4923  -21.9496   25.5592 C   0  0  0  0  0  0  0  0  0  0  0  0
  -22.1182  -13.8946   19.6611 C   0  0  0  0  0  0  0  0  0  0  0  0
  -22.0970  -28.2202   20.8494 C   0  0  0  0  0  0  0  0  0  0  0  0
  -21.7131  -28.1670   17.6289 C   0  0  0  0  0  0  0  0  0  0  0  0
  -23.1501  -27.9156   14.5436 C   0  0  0  0  0  0  0  0  0  0  0  0
  -28.1408  -19.5757   20.4656 C   0  0  0  0  0  0  0  0  0  0  0  0
  -17.2337  -27.3692   22.1461 C   0  0  0  0  0  0  0  0  0  0  0  0
  -23.7706  -29.9565   20.1143 C   0  0  0  0  0  0  0  0  0  0  0  0
  -23.9773  -27.4830   18.5069 C   0  0  0  0  0  0  0  0  0  0  0  0
  -18.2147  -26.7759   21.1382 C   0  0  0  0  0  0  0  0  0  0  0  0
  -30.5151  -25.8442   23.8232 C   0  0  0  0  0  0  0  0  0  0  0  0
  -27.7814  -17.7444   17.4334 C   0  0  0  0  0  0  0  0  0  0  0  0
  -19.5432  -26.4511   21.8138 C   0  0  0  0  0  0  0  0  0  0  0  0
  -31.1902  -25.7290   22.4685 C   0  0  0  0  0  0  0  0  0  0  0  0
  -26.8069  -16.6229   17.8005 C   0  0  0  0  0  0  0  0  0  0  0  0
  -29.1557  -25.1481   23.8912 C   0  0  0  0  0  0  0  0  0  0  0  0
  -28.7346  -18.0663   18.5829 C   0  0  0  0  0  0  0  0  0  0  0  0
  -27.1090  -17.2309   20.2348 C   0  0  0  0  0  0  0  0  0  0  0  0
  -20.1993  -27.7171   22.3779 C   0  0  1  0  0  0  0  0  0  0  0  0
  -30.1843  -25.7450   21.3270 C   0  0  2  0  0  0  0  0  0  0  0  0
  -22.5400  -29.1350   19.7428 C   0  0  1  0  0  0  0  0  0  0  0  0
  -26.0862  -16.9156   19.1311 C   0  0  2  0  0  0  0  0  0  0  0  0
  -24.2303  -21.1442   25.4508 C   0  0  0  0  0  0  0  0  0  0  0  0
  -22.5760  -27.8671   12.1012 C   0  0  0  0  0  0  0  0  0  0  0  0
  -20.7333  -25.2920   17.9187 C   0  0  0  0  0  0  0  0  0  0  0  0
  -21.0854  -24.9975   15.4575 C   0  0  0  0  0  0  0  0  0  0  0  0
  -19.4377  -26.6762   16.2879 C   0  0  0  0  0  0  0  0  0  0  0  0
  -24.7431  -30.3504   14.0021 C   0  0  0  0  0  0  0  0  0  0  0  0
  -29.4221  -27.0590   21.1915 C   0  0  0  0  0  0  0  0  0  1  0  0
  -21.9107  -27.1343   16.5456 C   0  0  1  0  0  0  0  0  0  0  0  0
  -22.9754  -28.7398   13.2809 C   0  0  2  0  0  0  0  0  0  0  0  0
  -20.8132  -26.0332   16.5692 C   0  0  0  0  0  0  0  0  0  0  0  0
  -25.6175  -14.8073   20.3214 N   0  0  0  0  0  0  0  0  0  0  0  0
  -25.1534  -15.7860   19.5257 N   0  0  0  0  0  0  0  0  0  0  0  0
  -28.8610  -24.2334   22.7779 N   0  0  0  0  0  0  0  0  0  0  0  0
  -22.7539  -28.3004   18.5588 N   0  0  0  0  0  0  0  0  0  0  0  0
  -27.9811  -18.3369   19.8093 N   0  0  0  0  0  0  0  0  0  0  0  0
  -23.2240  -16.5212   18.3649 N   0  0  0  0  0  0  0  0  0  0  0  0
  -21.1532  -14.2673   20.6067 N   0  0  0  0  0  0  0  0  0  0  0  0
  -27.3489  -19.7320   21.6027 N   0  0  0  0  0  0  0  0  0  0  0  0
  -20.8227  -28.4789   21.3171 N   0  0  0  0  0  0  0  0  0  0  0  0
  -21.9909  -27.8711   15.2890 N   0  0  0  0  0  0  0  0  0  0  0  0
  -24.2460  -29.4394   12.9390 N   0  3  0  0  0  0  0  0  0  0  0  0
  -28.8047  -24.0307   20.4350 O   0  0  0  0  0  0  0  0  0  0  0  0
  -25.6929  -22.5557   26.6136 O   0  0  0  0  0  0  0  0  0  0  0  0
  -21.8160  -13.0655   18.7695 O   0  0  0  0  0  0  0  0  0  0  0  0
  -22.8547  -27.3436   21.2484 O   0  0  0  0  0  0  0  0  0  0  0  0
  -20.6768  -28.8358   17.6450 O   0  0  0  0  0  0  0  0  0  0  0  0
  -24.2079  -27.3632   14.8374 O   0  0  0  0  0  0  0  0  0  0  0  0
  -28.9023  -20.4452   20.0342 O   0  0  0  0  0  0  0  0  0  0  0  0
  -24.9453   -9.3775   23.5790 O   0  0  0  0  0  0  0  0  0  0  0  0
  -28.6042  -27.0036   20.0234 O   0  0  0  0  0  0  0  0  0  1  0  0
  -20.9759   -5.5875   23.0456 F   0  0  0  0  0  0  0  0  0  0  0  0
  -25.5409   -6.8058   22.7581 F   0  0  0  0  0  0  0  0  0  0  0  0
  -27.1272  -24.1409   24.9640 F   0  0  0  0  0  0  0  0  0  0  0  0
  1  2  1  0  0  0  0
  1  5  2  0  0  0  0
  2  6  2  0  0  0  0
  3  8  2  0  0  0  0
  3 17  1  0  0  0  0
  4  9  1  0  0  0  0
  4 17  2  0  0  0  0
  5 20  1  0  0  0  0
  6 22  1  0  0  0  0
  7 10  2  0  0  0  0
  7 21  1  0  0  0  0
  8 26  1  0  0  0  0
  9 26  2  0  0  0  0
 10 27  1  0  0  0  0
 11 12  2  0  0  0  0
 11 28  1  0  0  0  0
 12 29  1  0  0  0  0
 13 18  2  0  0  0  0
 13 25  1  0  0  0  0
 14 23  1  0  0  0  0
 14 27  2  0  0  0  0
 15 24  1  0  0  0  0
 15 25  2  0  0  0  0
 16 29  2  0  0  0  0
 16 30  1  0  0  0  0
 17 32  1  0  0  0  0
 18 31  1  0  0  0  0
 18 35  1  0  0  0  0
 19 32  1  0  0  0  0
 19 33  2  0  0  0  0
 19 36  1  0  0  0  0
 20 22  2  0  0  0  0
 20 41  1  0  0  0  0
 21 23  2  0  0  0  0
 21 42  1  0  0  0  0
 22 53  1  0  0  0  0
 23 43  1  0  0  0  0
 24 31  2  0  0  0  0
 24 69  1  0  0  0  0
 25 74  1  0  0  0  0
 26 85  1  0  0  0  0
 27 86  1  0  0  0  0
 28 30  2  0  0  0  0
 28 85  1  0  0  0  0
 29 87  1  0  0  0  0
 30 88  1  0  0  0  0
 31 89  1  0  0  0  0
 32 67  2  0  0  0  0
 33 68  1  0  0  0  0
 33 72  1  0  0  0  0
 34 54  1  0  0  0  0
 34 69  1  0  0  0  0
 34 78  2  0  0  0  0
 35 57  1  0  0  0  0
 35 79  2  0  0  0  0
 36 73  1  0  0  0  0
 36 80  2  0  0  0  0
 37 55  1  0  0  0  0
 37 75  1  0  0  0  0
 37 81  2  0  0  0  0
 38 64  1  0  0  0  0
 38 70  1  0  0  0  0
 38 82  2  0  0  0  0
 39 65  1  0  0  0  0
 39 76  1  0  0  0  0
 39 83  2  0  0  0  0
 40 71  1  0  0  0  0
 40 74  1  0  0  0  0
 40 84  2  0  0  0  0
 41 44  1  0  0  0  0
 42 55  1  0  0  0  0
 43 70  1  0  0  0  0
 44 47  1  0  0  0  0
 45 48  1  0  0  0  0
 45 50  1  0  0  0  0
 46 49  1  0  0  0  0
 46 51  1  0  0  0  0
 47 53  1  0  0  0  0
 48 54  1  0  0  0  0
 49 56  1  0  0  0  0
 50 69  1  0  0  0  0
 51 71  1  0  0  0  0
 52 56  1  0  0  0  0
 52 71  1  0  0  0  0
 53 75  1  0  0  0  0
 54 63  1  0  0  0  0
 55 70  1  0  0  0  0
 56 68  1  0  0  0  0
 58 65  1  0  0  0  0
 59 66  1  0  0  0  0
 60 66  1  0  0  0  0
 61 66  1  0  0  0  0
 62 77  1  0  0  0  0
 63 86  1  0  0  0  0
 64 66  1  0  0  0  0
 64 76  1  0  0  0  0
 65 77  1  0  0  0  0
 67 68  1  0  0  0  0
M  CHG  1  77   1
M  ISO  4  40 100  63 101  74 100  86 101
M  END
> <Batch ID>
0063

> <Smiles>
CNC(C)C(=O)NC(C(=O)N1Cc2cc([101O:1][101CH2:1]C3CCCN(c4cc([100NH:0][100C:0](=O)N5CCCC(n6nc(-c7ccc(Oc8ccc(F)cc8F)cc7)c(C(N)=O)c6N)C5)cc(C(C)=O)c4F)C3=O)ccc2CC1C(=O)NC1CCCc2ccccc21)C(C)(C)C

> <Shape>
0.244

> <Color>
0.094

> <Negative vol penalty>
0.000

$$$$

  -OEChem-04042323123D

 88 97  0     1  0  0  0  0  0999 V2000
  -26.1359  -12.1839   12.3261 C   0  0  0  0  0  0  0  0  0  0  0  0
  -27.0363  -12.6842   13.2612 C   0  0  0  0  0  0  0  0  0  0  0  0
  -25.2337  -30.6579   21.1925 C   0  0  0  0  0  0  0  0  0  0  0  0
  -24.5611  -28.9163   22.7260 C   0  0  0  0  0  0  0  0  0  0  0  0
  -24.7897  -12.5395   12.3966 C   0  0  0  0  0  0  0  0  0  0  0  0
  -26.5910  -13.5414   14.2669 C   0  0  0  0  0  0  0  0  0  0  0  0
  -28.4803  -12.3507   18.8120 C   0  0  0  0  0  0  0  0  0  0  0  0
  -29.5134  -19.1760   19.6977 C   0  0  0  0  0  0  0  0  0  0  0  0
  -28.3995  -20.0068   19.5768 C   0  0  0  0  0  0  0  0  0  0  0  0
  -24.4647  -31.5800   21.9024 C   0  0  0  0  0  0  0  0  0  0  0  0
  -23.7921  -29.8384   23.4359 C   0  0  0  0  0  0  0  0  0  0  0  0
  -29.7942  -12.7352   19.0759 C   0  0  0  0  0  0  0  0  0  0  0  0
  -22.9654  -34.4683   23.5226 C   0  0  0  0  0  0  0  0  0  0  0  0
  -23.5371  -35.7088   23.8048 C   0  0  0  0  0  0  0  0  0  0  0  0
  -28.9817  -14.6345   20.3217 C   0  0  0  0  0  0  0  0  0  0  0  0
  -25.3022  -34.6146   25.0394 C   0  0  0  0  0  0  0  0  0  0  0  0
  -25.2819  -29.3261   21.6043 C   0  0  0  0  0  0  0  0  0  0  0  0
  -27.4648  -28.4172   20.6469 C   0  0  0  0  0  0  0  0  0  0  0  0
  -24.3259  -13.3938   13.4094 C   0  0  0  0  0  0  0  0  0  0  0  0
  -27.4055  -13.1126   19.2925 C   0  0  0  0  0  0  0  0  0  0  0  0
  -25.2375  -13.9099   14.3503 C   0  0  0  0  0  0  0  0  0  0  0  0
  -27.6551  -14.2561   20.0646 C   0  0  0  0  0  0  0  0  0  0  0  0
  -30.0429  -20.1952   21.8233 C   0  0  0  0  0  0  0  0  0  0  0  0
  -28.9290  -21.0260   21.7024 C   0  0  0  0  0  0  0  0  0  0  0  0
  -30.3351  -19.2702   20.8210 C   0  0  0  0  0  0  0  0  0  0  0  0
  -28.1073  -20.9318   20.5791 C   0  0  0  0  0  0  0  0  0  0  0  0
  -23.7439  -31.1703   23.0241 C   0  0  0  0  0  0  0  0  0  0  0  0
  -30.0451  -13.8788   19.8285 C   0  0  0  0  0  0  0  0  0  0  0  0
  -23.5620  -33.3008   23.9989 C   0  0  0  0  0  0  0  0  0  0  0  0
  -24.7055  -35.7820   24.5632 C   0  0  0  0  0  0  0  0  0  0  0  0
  -24.7304  -33.3740   24.7572 C   0  0  0  0  0  0  0  0  0  0  0  0
  -26.0757  -28.3730   20.8710 C   0  0  0  0  0  0  0  0  0  0  0  0
  -27.7286  -27.2926   19.9037 C   0  0  0  0  0  0  0  0  0  0  0  0
  -31.3604  -16.0366   21.6997 C   0  0  0  0  0  0  0  0  0  0  0  0
  -32.5132  -18.4188   19.9606 C   0  0  0  0  0  0  0  0  0  0  0  0
  -28.4303  -29.3879   21.0724 C   0  0  0  0  0  0  0  0  0  0  0  0
  -25.0263  -14.7342   17.9459 C   0  0  0  0  0  0  0  0  0  0  0  0
  -24.0448  -15.0840   21.0178 C   0  0  0  0  0  0  0  0  0  0  0  0
  -24.8603  -15.1406   24.3312 C   0  0  0  0  0  0  0  0  0  0  0  0
  -26.0667  -21.7864   19.3742 C   0  0  0  0  0  0  0  0  0  0  0  0
  -22.8701  -13.7876   13.4169 C   0  0  0  0  0  0  0  0  0  0  0  0
  -25.9939  -12.6696   19.0216 C   0  0  0  0  0  0  0  0  0  0  0  0
  -26.5363  -15.0972   20.6207 C   0  0  0  0  0  0  0  0  0  0  0  0
  -31.5495  -17.4933   22.0843 C   0  0  0  0  0  0  0  0  0  0  0  0
  -33.5546  -17.3209   20.1070 C   0  0  0  0  0  0  0  0  0  0  0  0
  -22.4122  -14.4027   14.7368 C   0  0  0  0  0  0  0  0  0  0  0  0
  -33.0013  -15.9324   19.7828 C   0  0  0  0  0  0  0  0  0  0  0  0
  -25.0225  -24.2815   17.0587 C   0  0  0  0  0  0  0  0  0  0  0  0
  -23.4133  -15.4504   15.2133 C   0  0  0  0  0  0  0  0  0  0  0  0
  -25.3229  -25.5962   17.7824 C   0  0  0  0  0  0  0  0  0  0  0  0
  -24.5349  -23.2018   18.0232 C   0  0  0  0  0  0  0  0  0  0  0  0
  -25.7074  -24.2776   19.9039 C   0  0  0  0  0  0  0  0  0  0  0  0
  -24.7884  -14.8225   15.4707 C   0  0  1  0  0  0  0  0  0  0  0  0
  -31.5712  -15.6463   20.2449 C   0  0  1  0  0  0  0  0  0  1  0  0
  -24.9807  -13.8054   19.1261 C   0  0  1  0  0  0  0  0  0  0  0  0
  -26.2637  -25.3762   18.9833 C   0  0  2  0  0  0  0  0  0  0  0  0
  -30.9229  -20.2973   23.0299 C   0  0  0  0  0  0  0  0  0  0  0  0
  -28.6171  -22.0181   22.7791 C   0  0  0  0  0  0  0  0  0  0  0  0
  -23.8513  -15.4877   26.6026 C   0  0  0  0  0  0  0  0  0  0  0  0
  -23.9494  -18.0917   20.5132 C   0  0  0  0  0  0  0  0  0  0  0  0
  -23.8762  -18.4349   22.9922 C   0  0  0  0  0  0  0  0  0  0  0  0
  -22.0353  -17.1972   21.8512 C   0  0  0  0  0  0  0  0  0  0  0  0
  -25.6025  -12.4123   25.2055 C   0  0  0  0  0  0  0  0  0  0  0  0
  -24.2951  -16.0939   22.1117 C   0  0  1  0  0  0  0  0  0  0  0  0
  -24.2258  -14.4700   25.5363 C   0  0  2  0  0  0  0  0  0  0  0  0
  -23.5603  -17.4398   21.8551 C   0  0  0  0  0  0  0  0  0  0  0  0
  -25.4974  -27.3050   20.3151 N   0  0  0  0  0  0  0  0  0  0  0  0
  -26.5282  -26.6677   19.7342 N   0  0  0  0  0  0  0  0  0  0  0  0
  -31.4822  -18.3995   20.9251 N   0  0  0  0  0  0  0  0  0  0  0  0
  -25.1735  -14.6263   20.3232 N   0  0  0  0  0  0  0  0  0  0  0  0
  -25.4780  -23.0458   19.1327 N   0  0  0  0  0  0  0  0  0  0  0  0
  -28.8680  -26.7873   19.3852 N   0  0  0  0  0  0  0  0  0  0  0  0
  -27.9890  -30.4820   21.8290 N   0  0  0  0  0  0  0  0  0  0  0  0
  -26.9718  -21.7670   20.4349 N   0  0  0  0  0  0  0  0  0  0  0  0
  -24.7925  -14.1147   16.7331 N   0  0  0  0  0  0  0  0  0  0  0  0
  -23.9257  -15.4405   23.3627 N   0  0  0  0  0  0  0  0  0  0  0  0
  -25.1690  -13.4851   26.1373 N   0  3  0  0  0  0  0  0  0  0  0  0
  -31.1237  -15.1942   22.5677 O   0  0  0  0  0  0  0  0  0  0  0  0
  -32.5886  -19.1698   18.9866 O   0  0  0  0  0  0  0  0  0  0  0  0
  -29.6458  -29.2966   20.7762 O   0  0  0  0  0  0  0  0  0  0  0  0
  -25.2551  -15.9250   18.1227 O   0  0  0  0  0  0  0  0  0  0  0  0
  -22.8912  -14.7096   20.7929 O   0  0  0  0  0  0  0  0  0  0  0  0
  -26.0639  -15.3783   24.2581 O   0  0  0  0  0  0  0  0  0  0  0  0
  -25.8090  -20.8045   18.6733 O   0  0  0  0  0  0  0  0  0  0  0  0
  -22.9936  -32.0698   23.7172 O   0  0  0  0  0  0  0  0  0  0  0  0
  -31.3266  -14.2567   20.0871 O   0  0  0  0  0  0  0  0  0  1  0  0
  -25.2553  -36.9733   24.8328 F   0  0  0  0  0  0  0  0  0  0  0  0
  -25.3088  -32.2558   25.2165 F   0  0  0  0  0  0  0  0  0  0  0  0
  1  2  1  0  0  0  0
  1  5  2  0  0  0  0
  2  6  2  0  0  0  0
  3 10  2  0  0  0  0
  3 17  1  0  0  0  0
  4 11  1  0  0  0  0
  4 17  2  0  0  0  0
  5 19  1  0  0  0  0
  6 21  1  0  0  0  0
  7 12  2  0  0  0  0
  7 20  1  0  0  0  0
  8  9  2  0  0  0  0
  8 25  1  0  0  0  0
  9 26  1  0  0  0  0
 10 27  1  0  0  0  0
 11 27  2  0  0  0  0
 12 28  1  0  0  0  0
 13 14  2  0  0  0  0
 13 29  1  0  0  0  0
 14 30  1  0  0  0  0
 15 22  1  0  0  0  0
 15 28  2  0  0  0  0
 16 30  2  0  0  0  0
 16 31  1  0  0  0  0
 17 32  1  0  0  0  0
 18 32  1  0  0  0  0
 18 33  2  0  0  0  0
 18 36  1  0  0  0  0
 19 21  2  0  0  0  0
 19 41  1  0  0  0  0
 20 22  2  0  0  0  0
 20 42  1  0  0  0  0
 21 53  1  0  0  0  0
 22 43  1  0  0  0  0
 23 24  1  0  0  0  0
 23 25  2  0  0  0  0
 23 57  1  0  0  0  0
 24 26  2  0  0  0  0
 24 58  1  0  0  0  0
 25 69  1  0  0  0  0
 26 74  1  0  0  0  0
 27 85  1  0  0  0  0
 28 86  1  0  0  0  0
 29 31  2  0  0  0  0
 29 85  1  0  0  0  0
 30 87  1  0  0  0  0
 31 88  1  0  0  0  0
 32 67  2  0  0  0  0
 33 68  1  0  0  0  0
 33 72  1  0  0  0  0
 34 44  1  0  0  0  0
 34 54  1  0  0  0  0
 34 78  2  0  0  0  0
 35 45  1  0  0  0  0
 35 69  1  0  0  0  0
 35 79  2  0  0  0  0
 36 73  1  0  0  0  0
 36 80  2  0  0  0  0
 37 55  1  0  0  0  0
 37 75  1  0  0  0  0
 37 81  2  0  0  0  0
 38 64  1  0  0  0  0
 38 70  1  0  0  0  0
 38 82  2  0  0  0  0
 39 65  1  0  0  0  0
 39 76  1  0  0  0  0
 39 83  2  0  0  0  0
 40 71  1  0  0  0  0
 40 74  1  0  0  0  0
 40 84  2  0  0  0  0
 41 46  1  0  0  0  0
 42 55  1  0  0  0  0
 43 70  1  0  0  0  0
 44 69  1  0  0  0  0
 45 47  1  0  0  0  0
 46 49  1  0  0  0  0
 47 54  1  0  0  0  0
 48 50  1  0  0  0  0
 48 51  1  0  0  0  0
 49 53  1  0  0  0  0
 50 56  1  0  0  0  0
 51 71  1  0  0  0  0
 52 56  1  0  0  0  0
 52 71  1  0  0  0  0
 53 75  1  0  0  0  0
 54 86  1  0  0  0  0
 55 70  1  0  0  0  0
 56 68  1  0  0  0  0
 59 65  1  0  0  0  0
 60 66  1  0  0  0  0
 61 66  1  0  0  0  0
 62 66  1  0  0  0  0
 63 77  1  0  0  0  0
 64 66  1  0  0  0  0
 64 76  1  0  0  0  0
 65 77  1  0  0  0  0
 67 68  1  0  0  0  0
M  CHG  1  77   1
M  ISO  4  40 100  54 101  74 100  86 101
M  END
> <Batch ID>
0063

> <Smiles>
CNC(C)C(=O)NC(C(=O)N1Cc2cc([101O:1][101CH:1]3CCC(=O)N(c4ccc([100NH:0][100C:0](=O)N5CCCC(n6nc(-c7ccc(Oc8ccc(F)cc8F)cc7)c(C(N)=O)c6N)C5)c(C)c4C)CC3=O)ccc2CC1C(=O)NC1CCCc2ccccc21)C(C)(C)C

> <Shape>
0.231

> <Color>
0.073

> <Negative vol penalty>
0.000

$$$$

  -OEChem-04042323123D

 87 96  0     1  0  0  0  0  0999 V2000
  -29.5285  -34.2274   25.6166 C   0  0  0  0  0  0  0  0  0  0  0  0
  -29.6199  -33.0486   24.8834 C   0  0  0  0  0  0  0  0  0  0  0  0
  -24.6575   -8.9048   21.5684 C   0  0  0  0  0  0  0  0  0  0  0  0
  -23.1439  -10.3927   20.4143 C   0  0  0  0  0  0  0  0  0  0  0  0
  -28.3192  -34.5853   26.2111 C   0  0  0  0  0  0  0  0  0  0  0  0
  -28.5021  -32.2264   24.7452 C   0  0  0  0  0  0  0  0  0  0  0  0
  -26.9939  -28.8543   19.8606 C   0  0  0  0  0  0  0  0  0  0  0  0
  -23.6243   -8.5144   22.4203 C   0  0  0  0  0  0  0  0  0  0  0  0
  -22.1106  -10.0023   21.2661 C   0  0  0  0  0  0  0  0  0  0  0  0
  -27.1674  -27.5031   19.5638 C   0  0  0  0  0  0  0  0  0  0  0  0
  -20.9549   -6.4419   22.3114 C   0  0  0  0  0  0  0  0  0  0  0  0
  -20.8089   -5.0792   22.5712 C   0  0  0  0  0  0  0  0  0  0  0  0
  -25.5610  -20.0235   17.9989 C   0  0  0  0  0  0  0  0  0  0  0  0
  -25.5821  -17.6359   17.6302 C   0  0  0  0  0  0  0  0  0  0  0  0
  -24.9285  -27.0513   20.3399 C   0  0  0  0  0  0  0  0  0  0  0  0
  -27.4148  -18.6945   18.7953 C   0  0  0  0  0  0  0  0  0  0  0  0
  -21.1496   -5.4920   24.9272 C   0  0  0  0  0  0  0  0  0  0  0  0
  -24.4173   -9.8440   20.5655 C   0  0  0  0  0  0  0  0  0  0  0  0
  -24.9571  -18.8748   17.4876 C   0  0  0  0  0  0  0  0  0  0  0  0
  -25.8424   -9.6601   18.4576 C   0  0  0  0  0  0  0  0  0  0  0  0
  -27.1835  -33.7719   26.0720 C   0  0  0  0  0  0  0  0  0  0  0  0
  -25.7882  -29.3131   20.4104 C   0  0  0  0  0  0  0  0  0  0  0  0
  -27.2768  -32.5731   25.3395 C   0  0  0  0  0  0  0  0  0  0  0  0
  -24.7413  -28.4091   20.6405 C   0  0  0  0  0  0  0  0  0  0  0  0
  -26.7899  -19.9334   18.6527 C   0  0  0  0  0  0  0  0  0  0  0  0
  -26.8109  -17.5458   18.2840 C   0  0  0  0  0  0  0  0  0  0  0  0
  -22.3509   -9.0631   22.2691 C   0  0  0  0  0  0  0  0  0  0  0  0
  -26.1357  -26.6010   19.8061 C   0  0  0  0  0  0  0  0  0  0  0  0
  -21.1984   -7.3296   23.3595 C   0  0  0  0  0  0  0  0  0  0  0  0
  -20.9062   -4.6043   23.8791 C   0  0  0  0  0  0  0  0  0  0  0  0
  -21.2956   -6.8546   24.6674 C   0  0  0  0  0  0  0  0  0  0  0  0
  -25.4844  -10.2481   19.6856 C   0  0  0  0  0  0  0  0  0  0  0  0
  -26.9090  -10.4056   18.0180 C   0  0  0  0  0  0  0  0  0  0  0  0
  -28.6380  -21.1778   19.8557 C   0  0  0  0  0  0  0  0  0  0  0  0
  -23.6759  -18.9687   16.8062 C   0  0  0  0  0  0  0  0  0  0  0  0
  -25.2626   -8.5403   17.7753 C   0  0  0  0  0  0  0  0  0  0  0  0
  -24.9587  -30.7231   23.1357 C   0  0  0  0  0  0  0  0  0  0  0  0
  -22.0579  -30.9212   21.6975 C   0  0  0  0  0  0  0  0  0  0  0  0
  -19.8962  -29.7017   19.3551 C   0  0  0  0  0  0  0  0  0  0  0  0
  -28.6655  -16.0228   19.0505 C   0  0  0  0  0  0  0  0  0  0  0  0
  -25.9106  -34.1765   26.7724 C   0  0  0  0  0  0  0  0  0  0  0  0
  -25.6073  -30.7779   20.7001 C   0  0  0  0  0  0  0  0  0  0  0  0
  -23.4202  -28.8542   21.2105 C   0  0  0  0  0  0  0  0  0  0  0  0
  -28.9229  -22.6375   20.1261 C   0  0  0  0  0  0  0  0  0  0  0  0
  -24.6748  -33.4381   26.2646 C   0  0  0  0  0  0  0  0  0  0  0  0
  -30.5475  -13.0597   19.6463 C   0  0  0  0  0  0  0  0  0  0  0  0
  -24.9552  -31.9430   26.1514 C   0  0  0  0  0  0  0  0  0  0  0  0
  -29.4962  -11.9482   19.6062 C   0  0  0  0  0  0  0  0  0  0  0  0
  -30.0019  -14.3334   20.2894 C   0  0  0  0  0  0  0  0  0  0  0  0
  -26.8390  -22.4296   18.9853 C   0  0  0  0  0  0  0  0  0  0  0  0
  -27.6971  -13.7221   19.6704 C   0  0  0  0  0  0  0  0  0  0  0  0
  -26.0800  -31.6673   25.1462 C   0  0  1  0  0  0  0  0  0  0  0  0
  -24.5218  -31.0524   21.7363 C   0  0  1  0  0  0  0  0  0  0  0  0
  -27.5554  -23.2957   20.0100 C   0  0  2  0  0  0  0  0  0  0  0  0
  -28.1800  -12.4401   18.9725 C   0  0  2  0  0  0  0  0  0  0  0  0
  -22.7399  -20.0607   17.2365 C   0  0  0  0  0  0  0  0  0  0  0  0
  -17.5852  -30.0447   18.4393 C   0  0  0  0  0  0  0  0  0  0  0  0
  -20.8816  -29.5637   24.1640 C   0  0  0  0  0  0  0  0  0  0  0  0
  -18.8192  -29.0814   22.8291 C   0  0  0  0  0  0  0  0  0  0  0  0
  -19.5058  -31.4421   23.2511 C   0  0  0  0  0  0  0  0  0  0  0  0
  -20.9328  -30.3127   16.6512 C   0  0  0  0  0  0  0  0  0  0  0  0
  -27.6275  -24.7592   19.6101 C   0  0  0  0  0  0  0  0  0  1  0  0
  -20.8373  -30.0357   21.6260 C   0  0  1  0  0  0  0  0  0  0  0  0
  -19.0575  -30.3984   18.2988 C   0  0  2  0  0  0  0  0  0  0  0  0
  -20.0365  -30.0217   22.9586 C   0  0  0  0  0  0  0  0  0  0  0  0
  -26.2606  -11.2869   20.0056 N   0  0  0  0  0  0  0  0  0  0  0  0
  -27.1171  -11.3574   18.9724 N   0  0  0  0  0  0  0  0  0  0  0  0
  -27.4077  -21.1085   19.1757 N   0  0  0  0  0  0  0  0  0  0  0  0
  -23.2942  -30.2955   21.4830 N   0  0  0  0  0  0  0  0  0  0  0  0
  -28.7570  -14.7419   19.6351 N   0  0  0  0  0  0  0  0  0  0  0  0
  -27.6798  -10.3331   16.9121 N   0  0  0  0  0  0  0  0  0  0  0  0
  -24.1720   -7.8888   18.3672 N   0  0  0  0  0  0  0  0  0  0  0  0
  -27.4454  -16.2872   18.4291 N   0  0  0  0  0  0  0  0  0  0  0  0
  -25.5825  -31.7677   23.7909 N   0  0  0  0  0  0  0  0  0  0  0  0
  -20.0695  -30.4912   20.4722 N   0  0  0  0  0  0  0  0  0  0  0  0
  -19.5082  -30.0015   16.9348 N   0  3  0  0  0  0  0  0  0  0  0  0
  -29.4228  -20.2898   20.1563 O   0  0  0  0  0  0  0  0  0  0  0  0
  -23.2980  -18.2168   15.9052 O   0  0  0  0  0  0  0  0  0  0  0  0
  -25.7092   -8.1194   16.6812 O   0  0  0  0  0  0  0  0  0  0  0  0
  -24.7443  -29.6046   23.5882 O   0  0  0  0  0  0  0  0  0  0  0  0
  -21.9190  -32.1251   21.9278 O   0  0  0  0  0  0  0  0  0  0  0  0
  -20.3489  -28.5689   19.2058 O   0  0  0  0  0  0  0  0  0  0  0  0
  -29.6102  -16.8159   19.0740 O   0  0  0  0  0  0  0  0  0  0  0  0
  -21.3423   -8.6822   23.1000 O   0  0  0  0  0  0  0  0  0  0  0  0
  -26.3027  -25.2815   19.5179 O   0  0  0  0  0  0  0  0  0  1  0  0
  -20.7644   -3.2959   24.1287 F   0  0  0  0  0  0  0  0  0  0  0  0
  -21.5282   -7.7028   25.6785 F   0  0  0  0  0  0  0  0  0  0  0  0
  1  2  1  0  0  0  0
  1  5  2  0  0  0  0
  2  6  2  0  0  0  0
  3  8  2  0  0  0  0
  3 18  1  0  0  0  0
  4  9  1  0  0  0  0
  4 18  2  0  0  0  0
  5 21  1  0  0  0  0
  6 23  1  0  0  0  0
  7 10  2  0  0  0  0
  7 22  1  0  0  0  0
  8 27  1  0  0  0  0
  9 27  2  0  0  0  0
 10 28  1  0  0  0  0
 11 12  2  0  0  0  0
 11 29  1  0  0  0  0
 12 30  1  0  0  0  0
 13 19  1  0  0  0  0
 13 25  2  0  0  0  0
 14 19  2  0  0  0  0
 14 26  1  0  0  0  0
 15 24  1  0  0  0  0
 15 28  2  0  0  0  0
 16 25  1  0  0  0  0
 16 26  2  0  0  0  0
 17 30  2  0  0  0  0
 17 31  1  0  0  0  0
 18 32  1  0  0  0  0
 19 35  1  0  0  0  0
 20 32  1  0  0  0  0
 20 33  2  0  0  0  0
 20 36  1  0  0  0  0
 21 23  2  0  0  0  0
 21 41  1  0  0  0  0
 22 24  2  0  0  0  0
 22 42  1  0  0  0  0
 23 52  1  0  0  0  0
 24 43  1  0  0  0  0
 25 68  1  0  0  0  0
 26 73  1  0  0  0  0
 27 84  1  0  0  0  0
 28 85  1  0  0  0  0
 29 31  2  0  0  0  0
 29 84  1  0  0  0  0
 30 86  1  0  0  0  0
 31 87  1  0  0  0  0
 32 66  2  0  0  0  0
 33 67  1  0  0  0  0
 33 71  1  0  0  0  0
 34 44  1  0  0  0  0
 34 68  1  0  0  0  0
 34 77  2  0  0  0  0
 35 56  1  0  0  0  0
 35 78  2  0  0  0  0
 36 72  1  0  0  0  0
 36 79  2  0  0  0  0
 37 53  1  0  0  0  0
 37 74  1  0  0  0  0
 37 80  2  0  0  0  0
 38 63  1  0  0  0  0
 38 69  1  0  0  0  0
 38 81  2  0  0  0  0
 39 64  1  0  0  0  0
 39 75  1  0  0  0  0
 39 82  2  0  0  0  0
 40 70  1  0  0  0  0
 40 73  1  0  0  0  0
 40 83  2  0  0  0  0
 41 45  1  0  0  0  0
 42 53  1  0  0  0  0
 43 69  1  0  0  0  0
 44 54  1  0  0  0  0
 45 47  1  0  0  0  0
 46 48  1  0  0  0  0
 46 49  1  0  0  0  0
 47 52  1  0  0  0  0
 48 55  1  0  0  0  0
 49 70  1  0  0  0  0
 50 54  1  0  0  0  0
 50 68  1  0  0  0  0
 51 55  1  0  0  0  0
 51 70  1  0  0  0  0
 52 74  1  0  0  0  0
 53 69  1  0  0  0  0
 54 62  1  0  0  0  0
 55 67  1  0  0  0  0
 57 64  1  0  0  0  0
 58 65  1  0  0  0  0
 59 65  1  0  0  0  0
 60 65  1  0  0  0  0
 61 76  1  0  0  0  0
 62 85  1  0  0  0  0
 63 65  1  0  0  0  0
 63 75  1  0  0  0  0
 64 76  1  0  0  0  0
 66 67  1  0  0  0  0
M  CHG  1  76   1
M  ISO  4  40 100  62 101  73 100  85 101
M  END
> <Batch ID>
0063

> <Smiles>
CNC(C)C(=O)NC(C(=O)N1Cc2cc([101O:1][101CH2:1]C3CC(=O)N(c4cc([100NH:0][100C:0](=O)N5CCCC(n6nc(-c7ccc(Oc8ccc(F)cc8F)cc7)c(C(N)=O)c6N)C5)cc(C(C)=O)c4)C3)ccc2CC1C(=O)NC1CCCc2ccccc21)C(C)(C)C

> <Shape>
0.298

> <Color>
0.105

> <Negative vol penalty>
0.000

$$$$

  -OEChem-04042323123D

 83 91  0     1  0  0  0  0  0999 V2000
  -18.6255  -17.9099   21.2797 C   0  0  0  0  0  0  0  0  0  0  0  0
  -19.8809  -18.4890   21.4342 C   0  0  0  0  0  0  0  0  0  0  0  0
  -22.9714   -9.9513   20.9926 C   0  0  0  0  0  0  0  0  0  0  0  0
  -23.7128  -10.6342   23.1882 C   0  0  0  0  0  0  0  0  0  0  0  0
  -17.5911  -18.6371   20.6922 C   0  0  0  0  0  0  0  0  0  0  0  0
  -20.1030  -19.7955   21.0003 C   0  0  0  0  0  0  0  0  0  0  0  0
  -22.6819  -22.5516   24.3764 C   0  0  0  0  0  0  0  0  0  0  0  0
  -22.1791   -8.9586   21.5688 C   0  0  0  0  0  0  0  0  0  0  0  0
  -22.9204   -9.6415   23.7646 C   0  0  0  0  0  0  0  0  0  0  0  0
  -24.0595  -22.3480   24.4454 C   0  0  0  0  0  0  0  0  0  0  0  0
  -19.1893   -8.7542   23.1349 C   0  0  0  0  0  0  0  0  0  0  0  0
  -17.8855   -8.6090   22.6610 C   0  0  0  0  0  0  0  0  0  0  0  0
  -24.4127  -24.3273   23.1124 C   0  0  0  0  0  0  0  0  0  0  0  0
  -32.0533  -19.0137   22.6236 C   0  0  0  0  0  0  0  0  0  0  0  0
  -32.2061  -16.8354   21.5900 C   0  0  0  0  0  0  0  0  0  0  0  0
  -30.0536  -17.9018   21.8477 C   0  0  0  0  0  0  0  0  0  0  0  0
  -18.3756   -6.3348   22.0093 C   0  0  0  0  0  0  0  0  0  0  0  0
  -23.7384  -10.7892   21.8023 C   0  0  0  0  0  0  0  0  0  0  0  0
  -24.1842  -13.1413   20.9211 C   0  0  0  0  0  0  0  0  0  0  0  0
  -17.7980  -19.9565   20.2597 C   0  0  0  0  0  0  0  0  0  0  0  0
  -22.1581  -23.6403   23.6645 C   0  0  0  0  0  0  0  0  0  0  0  0
  -19.0708  -20.5406   20.4053 C   0  0  0  0  0  0  0  0  0  0  0  0
  -23.0283  -24.5439   23.0380 C   0  0  0  0  0  0  0  0  0  0  0  0
  -32.8217  -17.9321   22.1932 C   0  0  0  0  0  0  0  0  0  0  0  0
  -30.6692  -18.9986   22.4509 C   0  0  0  0  0  0  0  0  0  0  0  0
  -30.8220  -16.8202   21.4172 C   0  0  0  0  0  0  0  0  0  0  0  0
  -22.1535   -8.8037   22.9548 C   0  0  0  0  0  0  0  0  0  0  0  0
  -24.9250  -23.2343   23.8110 C   0  0  0  0  0  0  0  0  0  0  0  0
  -20.0863   -7.6897   23.0459 C   0  0  0  0  0  0  0  0  0  0  0  0
  -17.4786   -7.3993   22.0982 C   0  0  0  0  0  0  0  0  0  0  0  0
  -19.6795   -6.4800   22.4831 C   0  0  0  0  0  0  0  0  0  0  0  0
  -24.5576  -11.8145   21.2075 C   0  0  0  0  0  0  0  0  0  0  0  0
  -25.3090  -13.7026   20.3677 C   0  0  0  0  0  0  0  0  0  0  0  0
  -28.0714  -21.5461   23.3712 C   0  0  0  0  0  0  0  0  0  0  0  0
  -26.7747  -21.8712   23.3736 C   0  0  0  0  0  0  0  0  0  1  0  0
  -22.9327  -13.8068   21.1362 C   0  0  0  0  0  0  0  0  0  0  0  0
  -28.5116  -20.2424   22.7943 C   0  0  0  0  0  0  0  0  0  0  0  0
  -20.2576  -23.9625   21.1370 C   0  0  0  0  0  0  0  0  0  0  0  0
  -20.4354  -27.1119   21.8930 C   0  0  0  0  0  0  0  0  0  0  0  0
  -22.1604  -29.6335   23.4139 C   0  0  0  0  0  0  0  0  0  0  0  0
  -30.8118  -14.5510   20.3233 C   0  0  0  0  0  0  0  0  0  0  0  0
  -16.6624  -20.6867   19.5875 C   0  0  0  0  0  0  0  0  0  0  0  0
  -20.6709  -23.8610   23.6220 C   0  0  0  0  0  0  0  0  0  0  0  0
  -22.5173  -25.7397   22.2780 C   0  0  0  0  0  0  0  0  0  0  0  0
  -16.8778  -22.1951   19.4953 C   0  0  0  0  0  0  0  0  0  0  0  0
  -29.6183  -11.5691   18.7868 C   0  0  0  0  0  0  0  0  0  0  0  0
  -18.2869  -22.5037   18.9992 C   0  0  0  0  0  0  0  0  0  0  0  0
  -28.1646  -11.4762   19.2560 C   0  0  0  0  0  0  0  0  0  0  0  0
  -30.5325  -12.1221   19.8786 C   0  0  0  0  0  0  0  0  0  0  0  0
  -28.6459  -13.3048   20.9328 C   0  0  0  0  0  0  0  0  0  0  0  0
  -19.3441  -21.9639   19.9699 C   0  0  1  0  0  0  0  0  0  0  0  0
  -20.2270  -24.7141   22.4377 C   0  0  1  0  0  0  0  0  0  0  0  0
  -27.6762  -12.8140   19.8455 C   0  0  2  0  0  0  0  0  0  0  0  0
  -34.3016  -17.9481   22.3793 C   0  0  0  0  0  0  0  0  0  0  0  0
  -22.0748  -32.1065   23.8312 C   0  0  0  0  0  0  0  0  0  0  0  0
  -21.3073  -27.6253   19.0145 C   0  0  0  0  0  0  0  0  0  0  0  0
  -22.1064  -29.8865   19.7333 C   0  0  0  0  0  0  0  0  0  0  0  0
  -19.6899  -29.2993   19.9289 C   0  0  0  0  0  0  0  0  0  0  0  0
  -22.0711  -29.2528   26.3475 C   0  0  0  0  0  0  0  0  0  0  0  0
  -21.3527  -28.2511   21.5189 C   0  0  1  0  0  0  0  0  0  0  0  0
  -21.7133  -30.7291   24.3648 C   0  0  2  0  0  0  0  0  0  0  0  0
  -21.1240  -28.7420   20.0615 C   0  0  0  0  0  0  0  0  0  0  0  0
  -25.8207  -11.5487   20.8642 N   0  0  0  0  0  0  0  0  0  0  0  0
  -26.2509  -12.7163   20.3563 N   0  0  0  0  0  0  0  0  0  0  0  0
  -21.0549  -25.9088   22.2600 N   0  0  0  0  0  0  0  0  0  0  0  0
  -30.0093  -13.3922   20.3865 N   0  0  0  0  0  0  0  0  0  0  0  0
  -25.5743  -14.9388   19.8944 N   0  0  0  0  0  0  0  0  0  0  0  0
  -21.8817  -13.0827   21.7155 N   0  0  0  0  0  0  0  0  0  0  0  0
  -29.8893  -20.0972   22.8884 N   0  0  0  0  0  0  0  0  0  0  0  0
  -30.1964  -15.7056   20.8057 N   0  0  0  0  0  0  0  0  0  0  0  0
  -19.4630  -22.8321   21.1217 N   0  0  0  0  0  0  0  0  0  0  0  0
  -21.1592  -29.2811   22.5338 N   0  0  0  0  0  0  0  0  0  0  0  0
  -22.3610  -30.5559   25.6958 N   0  3  0  0  0  0  0  0  0  0  0  0
  -22.7465  -15.0034   20.8090 O   0  0  0  0  0  0  0  0  0  0  0  0
  -27.7040  -19.4538   22.3174 O   0  0  0  0  0  0  0  0  0  0  0  0
  -20.9497  -24.3781   20.2151 O   0  0  0  0  0  0  0  0  0  0  0  0
  -19.2144  -27.2854   21.8677 O   0  0  0  0  0  0  0  0  0  0  0  0
  -23.2865  -29.1421   23.4461 O   0  0  0  0  0  0  0  0  0  0  0  0
  -31.9506  -14.5266   19.8493 O   0  0  0  0  0  0  0  0  0  0  0  0
  -21.3802   -7.8352   23.5176 O   0  0  0  0  0  0  0  0  0  0  0  0
  -26.2699  -23.0376   23.8762 O   0  0  0  0  0  0  0  0  0  1  0  0
  -16.2261   -7.2595   21.6446 F   0  0  0  0  0  0  0  0  0  0  0  0
  -20.5364   -5.4534   22.3960 F   0  0  0  0  0  0  0  0  0  0  0  0
  1  2  1  0  0  0  0
  1  5  2  0  0  0  0
  2  6  2  0  0  0  0
  3  8  2  0  0  0  0
  3 18  1  0  0  0  0
  4  9  1  0  0  0  0
  4 18  2  0  0  0  0
  5 20  1  0  0  0  0
  6 22  1  0  0  0  0
  7 10  2  0  0  0  0
  7 21  1  0  0  0  0
  8 27  1  0  0  0  0
  9 27  2  0  0  0  0
 10 28  1  0  0  0  0
 11 12  2  0  0  0  0
 11 29  1  0  0  0  0
 12 30  1  0  0  0  0
 13 23  1  0  0  0  0
 13 28  2  0  0  0  0
 14 24  2  0  0  0  0
 14 25  1  0  0  0  0
 15 24  1  0  0  0  0
 15 26  2  0  0  0  0
 16 25  2  0  0  0  0
 16 26  1  0  0  0  0
 17 30  2  0  0  0  0
 17 31  1  0  0  0  0
 18 32  1  0  0  0  0
 19 32  1  0  0  0  0
 19 33  2  0  0  0  0
 19 36  1  0  0  0  0
 20 22  2  0  0  0  0
 20 42  1  0  0  0  0
 21 23  2  0  0  0  0
 21 43  1  0  0  0  0
 22 51  1  0  0  0  0
 23 44  1  0  0  0  0
 24 54  1  0  0  0  0
 25 69  1  0  0  0  0
 26 70  1  0  0  0  0
 27 80  1  0  0  0  0
 28 81  1  0  0  0  0
 29 31  2  0  0  0  0
 29 80  1  0  0  0  0
 30 82  1  0  0  0  0
 31 83  1  0  0  0  0
 32 63  2  0  0  0  0
 33 64  1  0  0  0  0
 33 67  1  0  0  0  0
 34 35  2  0  0  0  0
 34 37  1  0  0  0  0
 35 81  1  0  0  0  0
 36 68  1  0  0  0  0
 36 74  2  0  0  0  0
 37 69  1  0  0  0  0
 37 75  2  0  0  0  0
 38 52  1  0  0  0  0
 38 71  1  0  0  0  0
 38 76  2  0  0  0  0
 39 60  1  0  0  0  0
 39 65  1  0  0  0  0
 39 77  2  0  0  0  0
 40 61  1  0  0  0  0
 40 72  1  0  0  0  0
 40 78  2  0  0  0  0
 41 66  1  0  0  0  0
 41 70  1  0  0  0  0
 41 79  2  0  0  0  0
 42 45  1  0  0  0  0
 43 52  1  0  0  0  0
 44 65  1  0  0  0  0
 45 47  1  0  0  0  0
 46 48  1  0  0  0  0
 46 49  1  0  0  0  0
 47 51  1  0  0  0  0
 48 53  1  0  0  0  0
 49 66  1  0  0  0  0
 50 53  1  0  0  0  0
 50 66  1  0  0  0  0
 51 71  1  0  0  0  0
 52 65  1  0  0  0  0
 53 64  1  0  0  0  0
 55 61  1  0  0  0  0
 56 62  1  0  0  0  0
 57 62  1  0  0  0  0
 58 62  1  0  0  0  0
 59 73  1  0  0  0  0
 60 62  1  0  0  0  0
 60 72  1  0  0  0  0
 61 73  1  0  0  0  0
 63 64  1  0  0  0  0
M  CHG  1  73   1
M  ISO  4  35 101  41 100  70 100  81 101
M  END
> <Batch ID>
0063

> <Smiles>
CNC(C)C(=O)NC(C(=O)N1Cc2cc([101O:1][101CH:1]=CC(=O)Nc3cc(C)cc([100NH:0][100C:0](=O)N4CCCC(n5nc(-c6ccc(Oc7ccc(F)cc7F)cc6)c(C(N)=O)c5N)C4)c3)ccc2CC1C(=O)NC1CCCc2ccccc21)C(C)(C)C

> <Shape>
0.201

> <Color>
0.180

> <Negative vol penalty>
0.000

$$$$

  -OEChem-04042323123D

 83 91  0     1  0  0  0  0  0999 V2000
  -19.4715  -30.3010   20.5841 C   0  0  0  0  0  0  0  0  0  0  0  0
  -20.5483  -29.5381   21.0247 C   0  0  0  0  0  0  0  0  0  0  0  0
  -23.0602   -9.9424   21.5084 C   0  0  0  0  0  0  0  0  0  0  0  0
  -23.7641  -10.9054   23.6095 C   0  0  0  0  0  0  0  0  0  0  0  0
  -18.2635  -30.2667   21.2795 C   0  0  0  0  0  0  0  0  0  0  0  0
  -20.4179  -28.7413   22.1615 C   0  0  0  0  0  0  0  0  0  0  0  0
  -22.3734  -24.1136   21.5250 C   0  0  0  0  0  0  0  0  0  0  0  0
  -31.9447  -17.2934   21.2832 C   0  0  0  0  0  0  0  0  0  0  0  0
  -22.3167   -8.9838   22.1968 C   0  0  0  0  0  0  0  0  0  0  0  0
  -23.0205   -9.9468   24.2979 C   0  0  0  0  0  0  0  0  0  0  0  0
  -23.7598  -23.9914   21.6071 C   0  0  0  0  0  0  0  0  0  0  0  0
  -22.8997   -6.0892   23.8417 C   0  0  0  0  0  0  0  0  0  0  0  0
  -32.5053  -18.4805   21.7544 C   0  0  0  0  0  0  0  0  0  0  0  0
  -22.9950   -4.7654   23.4128 C   0  0  0  0  0  0  0  0  0  0  0  0
  -23.5488  -23.1875   23.8717 C   0  0  0  0  0  0  0  0  0  0  0  0
  -29.7424  -18.2764   21.4265 C   0  0  0  0  0  0  0  0  0  0  0  0
  -20.6188   -4.7358   22.9765 C   0  0  0  0  0  0  0  0  0  0  0  0
  -23.7840  -10.9032   22.2147 C   0  0  0  0  0  0  0  0  0  0  0  0
  -24.1149  -13.1592   21.0709 C   0  0  0  0  0  0  0  0  0  0  0  0
  -18.1153  -29.4616   22.4199 C   0  0  0  0  0  0  0  0  0  0  0  0
  -21.5636  -23.7834   22.6212 C   0  0  0  0  0  0  0  0  0  0  0  0
  -19.2072  -28.6972   22.8736 C   0  0  0  0  0  0  0  0  0  0  0  0
  -22.1522  -23.3040   23.8001 C   0  0  0  0  0  0  0  0  0  0  0  0
  -30.5633  -17.1913   21.1192 C   0  0  0  0  0  0  0  0  0  0  0  0
  -30.3029  -19.4635   21.8978 C   0  0  0  0  0  0  0  0  0  0  0  0
  -22.2969   -8.9860   23.5915 C   0  0  0  0  0  0  0  0  0  0  0  0
  -24.3479  -23.5310   22.7815 C   0  0  0  0  0  0  0  0  0  0  0  0
  -21.6640   -6.7363   23.8382 C   0  0  0  0  0  0  0  0  0  0  0  0
  -21.8545   -4.0887   22.9801 C   0  0  0  0  0  0  0  0  0  0  0  0
  -31.6844  -19.5656   22.0617 C   0  0  0  0  0  0  0  0  0  0  0  0
  -20.5236   -6.0596   23.4055 C   0  0  0  0  0  0  0  0  0  0  0  0
  -24.5526  -11.8933   21.5042 C   0  0  0  0  0  0  0  0  0  0  0  0
  -25.2115  -13.7086   20.4527 C   0  0  0  0  0  0  0  0  0  0  0  0
  -27.5770  -21.9650   22.5282 C   0  0  0  0  0  0  0  0  0  0  0  0
  -26.2654  -22.2221   22.4975 C   0  0  0  0  0  0  0  0  0  1  0  0
  -22.8319  -13.7828   21.2144 C   0  0  0  0  0  0  0  0  0  0  0  0
  -28.0842  -20.6277   22.1032 C   0  0  0  0  0  0  0  0  0  0  0  0
  -19.5334  -25.3820   24.4723 C   0  0  0  0  0  0  0  0  0  0  0  0
  -18.9527  -22.4401   25.7092 C   0  0  0  0  0  0  0  0  0  0  0  0
  -20.0590  -19.2591   26.2608 C   0  0  0  0  0  0  0  0  0  0  0  0
  -30.6661  -14.8148   20.2896 C   0  0  0  0  0  0  0  0  0  0  0  0
  -16.8049  -29.4937   23.1658 C   0  0  0  0  0  0  0  0  0  0  0  0
  -20.0680  -23.8955   22.5075 C   0  0  0  0  0  0  0  0  0  0  0  0
  -21.3260  -22.9170   24.9984 C   0  0  0  0  0  0  0  0  0  0  0  0
  -16.6328  -28.3351   24.1448 C   0  0  0  0  0  0  0  0  0  0  0  0
  -29.6227  -11.6231   19.1058 C   0  0  0  0  0  0  0  0  0  0  0  0
  -17.8969  -28.1476   24.9776 C   0  0  0  0  0  0  0  0  0  0  0  0
  -28.1747  -11.5130   19.5886 C   0  0  0  0  0  0  0  0  0  0  0  0
  -30.5071  -12.3405   20.1241 C   0  0  0  0  0  0  0  0  0  0  0  0
  -28.5632  -13.5413   21.0454 C   0  0  0  0  0  0  0  0  0  0  0  0
  -19.0972  -27.8013   24.0882 C   0  0  1  0  0  0  0  0  0  0  0  0
  -19.3735  -24.0191   23.8602 C   0  0  1  0  0  0  0  0  0  0  0  0
  -27.6203  -12.8834   20.0247 C   0  0  2  0  0  0  0  0  0  0  0  0
  -19.3773  -17.0942   27.3313 C   0  0  0  0  0  0  0  0  0  0  0  0
  -19.5412  -23.6185   28.4615 C   0  0  0  0  0  0  0  0  0  0  0  0
  -19.7815  -21.2837   29.3328 C   0  0  0  0  0  0  0  0  0  0  0  0
  -17.5990  -22.0443   28.3943 C   0  0  0  0  0  0  0  0  0  0  0  0
  -20.1968  -17.8080   23.6851 C   0  0  0  0  0  0  0  0  0  0  0  0
  -19.5392  -21.6170   26.8306 C   0  0  1  0  0  0  0  0  0  0  0  0
  -19.3949  -17.9106   26.0484 C   0  0  2  0  0  0  0  0  0  0  0  0
  -19.1312  -22.1499   28.2331 C   0  0  0  0  0  0  0  0  0  0  0  0
  -25.8278  -11.6525   21.1880 N   0  0  0  0  0  0  0  0  0  0  0  0
  -26.2008  -12.7746   20.5493 N   0  0  0  0  0  0  0  0  0  0  0  0
  -19.8683  -23.0502   24.8402 N   0  0  0  0  0  0  0  0  0  0  0  0
  -29.9214  -13.6328   20.4870 N   0  0  0  0  0  0  0  0  0  0  0  0
  -25.4165  -14.8946   19.8413 N   0  0  0  0  0  0  0  0  0  0  0  0
  -21.8170  -13.0784   21.8763 N   0  0  0  0  0  0  0  0  0  0  0  0
  -29.4672  -20.5642   22.2089 N   0  0  0  0  0  0  0  0  0  0  0  0
  -29.9941  -15.9852   20.6406 N   0  0  0  0  0  0  0  0  0  0  0  0
  -19.0462  -26.4111   23.6893 N   0  0  0  0  0  0  0  0  0  0  0  0
  -19.1396  -20.2371   26.5763 N   0  0  0  0  0  0  0  0  0  0  0  0
  -20.1233  -17.1330   25.0064 N   0  3  0  0  0  0  0  0  0  0  0  0
  -22.5877  -14.9240   20.7544 O   0  0  0  0  0  0  0  0  0  0  0  0
  -27.3187  -19.7497   21.7225 O   0  0  0  0  0  0  0  0  0  0  0  0
  -20.0586  -25.4917   25.5740 O   0  0  0  0  0  0  0  0  0  0  0  0
  -17.7271  -22.5323   25.6038 O   0  0  0  0  0  0  0  0  0  0  0  0
  -21.2724  -19.4272   26.1608 O   0  0  0  0  0  0  0  0  0  0  0  0
  -31.8053  -14.7927   19.8166 O   0  0  0  0  0  0  0  0  0  0  0  0
  -21.5713   -8.0509   24.2636 O   0  0  0  0  0  0  0  0  0  0  0  0
  -25.7009  -23.4114   22.8645 O   0  0  0  0  0  0  0  0  0  1  0  0
  -21.9464   -2.8179   22.5668 F   0  0  0  0  0  0  0  0  0  0  0  0
  -32.2344  -20.7012   22.5142 F   0  0  0  0  0  0  0  0  0  0  0  0
  -19.3339   -6.6765   23.3987 F   0  0  0  0  0  0  0  0  0  0  0  0
  1  2  1  0  0  0  0
  1  5  2  0  0  0  0
  2  6  2  0  0  0  0
  3  9  2  0  0  0  0
  3 18  1  0  0  0  0
  4 10  1  0  0  0  0
  4 18  2  0  0  0  0
  5 20  1  0  0  0  0
  6 22  1  0  0  0  0
  7 11  2  0  0  0  0
  7 21  1  0  0  0  0
  8 13  2  0  0  0  0
  8 24  1  0  0  0  0
  9 26  1  0  0  0  0
 10 26  2  0  0  0  0
 11 27  1  0  0  0  0
 12 14  2  0  0  0  0
 12 28  1  0  0  0  0
 13 30  1  0  0  0  0
 14 29  1  0  0  0  0
 15 23  1  0  0  0  0
 15 27  2  0  0  0  0
 16 24  2  0  0  0  0
 16 25  1  0  0  0  0
 17 29  2  0  0  0  0
 17 31  1  0  0  0  0
 18 32  1  0  0  0  0
 19 32  1  0  0  0  0
 19 33  2  0  0  0  0
 19 36  1  0  0  0  0
 20 22  2  0  0  0  0
 20 42  1  0  0  0  0
 21 23  2  0  0  0  0
 21 43  1  0  0  0  0
 22 51  1  0  0  0  0
 23 44  1  0  0  0  0
 24 69  1  0  0  0  0
 25 30  2  0  0  0  0
 25 68  1  0  0  0  0
 26 79  1  0  0  0  0
 27 80  1  0  0  0  0
 28 31  2  0  0  0  0
 28 79  1  0  0  0  0
 29 81  1  0  0  0  0
 30 82  1  0  0  0  0
 31 83  1  0  0  0  0
 32 62  2  0  0  0  0
 33 63  1  0  0  0  0
 33 66  1  0  0  0  0
 34 35  2  0  0  0  0
 34 37  1  0  0  0  0
 35 80  1  0  0  0  0
 36 67  1  0  0  0  0
 36 73  2  0  0  0  0
 37 68  1  0  0  0  0
 37 74  2  0  0  0  0
 38 52  1  0  0  0  0
 38 70  1  0  0  0  0
 38 75  2  0  0  0  0
 39 59  1  0  0  0  0
 39 64  1  0  0  0  0
 39 76  2  0  0  0  0
 40 60  1  0  0  0  0
 40 71  1  0  0  0  0
 40 77  2  0  0  0  0
 41 65  1  0  0  0  0
 41 69  1  0  0  0  0
 41 78  2  0  0  0  0
 42 45  1  0  0  0  0
 43 52  1  0  0  0  0
 44 64  1  0  0  0  0
 45 47  1  0  0  0  0
 46 48  1  0  0  0  0
 46 49  1  0  0  0  0
 47 51  1  0  0  0  0
 48 53  1  0  0  0  0
 49 65  1  0  0  0  0
 50 53  1  0  0  0  0
 50 65  1  0  0  0  0
 51 70  1  0  0  0  0
 52 64  1  0  0  0  0
 53 63  1  0  0  0  0
 54 60  1  0  0  0  0
 55 61  1  0  0  0  0
 56 61  1  0  0  0  0
 57 61  1  0  0  0  0
 58 72  1  0  0  0  0
 59 61  1  0  0  0  0
 59 71  1  0  0  0  0
 60 72  1  0  0  0  0
 62 63  1  0  0  0  0
M  CHG  1  72   1
M  ISO  4  35 101  41 100  69 100  80 101
M  END
> <Batch ID>
0063

> <Smiles>
CNC(C)C(=O)NC(C(=O)N1Cc2cc([101O:1][101CH:1]=CC(=O)Nc3cc([100NH:0][100C:0](=O)N4CCCC(n5nc(-c6ccc(Oc7ccc(F)cc7F)cc6)c(C(N)=O)c5N)C4)ccc3F)ccc2CC1C(=O)NC1CCCc2ccccc21)C(C)(C)C

> <Shape>
0.208

> <Color>
0.163

> <Negative vol penalty>
0.000

$$$$

  -OEChem-04042323123D

 86 94  0     1  0  0  0  0  0999 V2000
  -29.4253  -24.4539   17.0105 C   0  0  0  0  0  0  0  0  0  0  0  0
  -28.2363  -24.4723   17.7324 C   0  0  0  0  0  0  0  0  0  0  0  0
  -28.5696  -15.8680   20.4224 C   0  0  0  0  0  0  0  0  0  0  0  0
  -27.9714  -15.5911   22.7468 C   0  0  0  0  0  0  0  0  0  0  0  0
  -30.5150  -25.2075   17.4448 C   0  0  0  0  0  0  0  0  0  0  0  0
  -28.1365  -25.2437   18.8898 C   0  0  0  0  0  0  0  0  0  0  0  0
  -23.8080  -27.8627   19.1118 C   0  0  0  0  0  0  0  0  0  0  0  0
  -29.8713  -16.2009   20.7970 C   0  0  0  0  0  0  0  0  0  0  0  0
  -29.2731  -15.9240   23.1214 C   0  0  0  0  0  0  0  0  0  0  0  0
  -22.6603  -27.1654   19.4863 C   0  0  0  0  0  0  0  0  0  0  0  0
  -31.5011  -18.9053   22.0028 C   0  0  0  0  0  0  0  0  0  0  0  0
  -32.0937  -20.0030   21.3787 C   0  0  0  0  0  0  0  0  0  0  0  0
  -22.8704  -28.0350   21.7266 C   0  0  0  0  0  0  0  0  0  0  0  0
  -19.4263  -19.4636   26.7993 C   0  0  0  0  0  0  0  0  0  0  0  0
  -20.6667  -17.8004   25.5615 C   0  0  0  0  0  0  0  0  0  0  0  0
  -19.5375  -19.5856   24.3889 C   0  0  0  0  0  0  0  0  0  0  0  0
  -33.8501  -18.5750   20.5345 C   0  0  0  0  0  0  0  0  0  0  0  0
  -27.6196  -15.5631   21.3973 C   0  0  0  0  0  0  0  0  0  0  0  0
  -25.7730  -13.9349   20.7290 C   0  0  0  0  0  0  0  0  0  0  0  0
  -30.4254  -25.9961   18.6027 C   0  0  0  0  0  0  0  0  0  0  0  0
  -24.5028  -28.6441   20.0462 C   0  0  0  0  0  0  0  0  0  0  0  0
  -29.2264  -26.0076   19.3407 C   0  0  0  0  0  0  0  0  0  0  0  0
  -24.0251  -28.7434   21.3608 C   0  0  0  0  0  0  0  0  0  0  0  0
  -20.2161  -18.3141   26.7775 C   0  0  0  0  0  0  0  0  0  0  0  0
  -19.0869  -20.0993   25.6049 C   0  0  0  0  0  0  0  0  0  0  0  0
  -20.3273  -18.4361   24.3672 C   0  0  0  0  0  0  0  0  0  0  0  0
  -30.2231  -16.2289   22.1465 C   0  0  0  0  0  0  0  0  0  0  0  0
  -22.1930  -27.2491   20.7946 C   0  0  0  0  0  0  0  0  0  0  0  0
  -32.0831  -17.6424   21.8928 C   0  0  0  0  0  0  0  0  0  0  0  0
  -33.2681  -19.8379   20.6445 C   0  0  0  0  0  0  0  0  0  0  0  0
  -33.2576  -17.4773   21.1587 C   0  0  0  0  0  0  0  0  0  0  0  0
  -26.2747  -15.2197   21.0110 C   0  0  0  0  0  0  0  0  0  0  0  0
  -24.4523  -14.1434   20.4148 C   0  0  0  0  0  0  0  0  0  0  0  0
  -26.4411  -12.6665   20.7494 C   0  0  0  0  0  0  0  0  0  0  0  0
  -27.4307  -28.5880   21.2823 C   0  0  0  0  0  0  0  0  0  0  0  0
  -26.4849  -31.3728   22.6507 C   0  0  0  0  0  0  0  0  0  0  0  0
  -19.1978  -23.0749   24.1039 C   0  0  0  0  0  0  0  0  0  0  0  0
  -23.9169  -33.3507   23.7185 C   0  0  0  0  0  0  0  0  0  0  0  0
  -20.5394  -18.4230   21.8569 C   0  0  0  0  0  0  0  0  0  0  0  0
  -31.6451  -26.7569   19.0590 C   0  0  0  0  0  0  0  0  0  0  0  0
  -25.7240  -29.4116   19.6195 C   0  0  0  0  0  0  0  0  0  0  0  0
  -24.7231  -29.5847   22.3968 C   0  0  0  0  0  0  0  0  0  0  0  0
  -31.3369  -27.8410   20.0886 C   0  0  0  0  0  0  0  0  0  0  0  0
  -21.5176  -17.4502   18.5746 C   0  0  0  0  0  0  0  0  0  0  0  0
  -30.4151  -27.2980   21.1759 C   0  0  0  0  0  0  0  0  0  0  0  0
  -22.7995  -16.6458   18.8017 C   0  0  0  0  0  0  0  0  0  0  0  0
  -21.4101  -18.6303   19.5388 C   0  0  0  0  0  0  0  0  0  0  0  0
  -22.8374  -17.4822   21.1863 C   0  0  0  0  0  0  0  0  0  0  0  0
  -29.0713  -26.8512   20.5874 C   0  0  1  0  0  0  0  0  0  0  0  0
  -26.6435  -29.7668   20.7839 C   0  0  1  0  0  0  0  0  0  0  0  0
  -22.9586  -16.2451   20.2815 C   0  0  2  0  0  0  0  0  0  0  0  0
  -20.5788  -17.6344   28.0546 C   0  0  0  0  0  0  0  0  0  0  0  0
  -23.4575  -35.5533   24.8297 C   0  0  0  0  0  0  0  0  0  0  0  0
  -27.3024  -30.1842   25.3393 C   0  0  0  0  0  0  0  0  0  0  0  0
  -25.9729  -31.9849   26.4609 C   0  0  0  0  0  0  0  0  0  0  0  0
  -27.9244  -32.5864   25.0283 C   0  0  0  0  0  0  0  0  0  0  0  0
  -19.6074  -23.1518   26.5759 C   0  0  0  0  0  0  0  0  0  0  0  0
  -22.4086  -34.3495   21.3761 C   0  0  0  0  0  0  0  0  0  0  0  0
  -18.2369  -21.3367   25.6285 C   0  0  0  0  0  0  0  0  0  0  0  0
  -20.0434  -24.3386   24.0134 C   0  0  0  0  0  0  0  0  0  0  0  0
  -20.1840  -24.8501   22.5813 C   0  0  0  0  0  0  0  0  0  0  0  0
  -20.9926  -26.1380   22.5211 C   0  0  0  0  0  0  0  0  0  1  0  0
  -25.7999  -31.7511   23.9417 C   0  0  1  0  0  0  0  0  0  0  0  0
  -23.6251  -34.8251   23.5051 C   0  0  2  0  0  0  0  0  0  0  0  0
  -26.7376  -31.6092   25.1738 C   0  0  0  0  0  0  0  0  0  0  0  0
  -25.3482  -16.1737   20.8867 N   0  0  0  0  0  0  0  0  0  0  0  0
  -24.2511  -15.4880   20.5231 N   0  0  0  0  0  0  0  0  0  0  0  0
  -25.9165  -30.3112   21.9325 N   0  0  0  0  0  0  0  0  0  0  0  0
  -21.5662  -18.1743   20.9217 N   0  0  0  0  0  0  0  0  0  0  0  0
  -23.4550  -13.3059   20.0592 N   0  0  0  0  0  0  0  0  0  0  0  0
  -27.7991  -12.6321   21.0940 N   0  0  0  0  0  0  0  0  0  0  0  0
  -20.7851  -17.9143   23.1319 N   0  0  0  0  0  0  0  0  0  0  0  0
  -28.2297  -27.9981   20.3215 N   0  0  0  0  0  0  0  0  0  0  0  0
  -25.2719  -33.0967   23.7446 N   0  0  0  0  0  0  0  0  0  0  0  0
  -19.0205  -22.5415   25.3851 N   0  0  0  0  0  0  0  0  0  0  0  0
  -22.3744  -34.9963   22.7131 N   0  3  0  0  0  0  0  0  0  0  0  0
  -25.8553  -11.5972   20.4543 O   0  0  0  0  0  0  0  0  0  0  0  0
  -27.3223  -28.2402   22.4524 O   0  0  0  0  0  0  0  0  0  0  0  0
  -27.4831  -32.0009   22.2891 O   0  0  0  0  0  0  0  0  0  0  0  0
  -18.7106  -22.5743   23.0868 O   0  0  0  0  0  0  0  0  0  0  0  0
  -23.0313  -32.5090   23.8525 O   0  0  0  0  0  0  0  0  0  0  0  0
  -19.5054  -19.0179   21.5425 O   0  0  0  0  0  0  0  0  0  0  0  0
  -31.4932  -16.5535   22.5124 O   0  0  0  0  0  0  0  0  0  0  0  0
  -21.0734  -26.5689   21.1631 O   0  0  0  0  0  0  0  0  0  1  0  0
  -33.8362  -20.8918   20.0439 F   0  0  0  0  0  0  0  0  0  0  0  0
  -33.8207  -16.2662   21.0485 F   0  0  0  0  0  0  0  0  0  0  0  0
  1  2  1  0  0  0  0
  1  5  2  0  0  0  0
  2  6  2  0  0  0  0
  3  8  2  0  0  0  0
  3 18  1  0  0  0  0
  4  9  1  0  0  0  0
  4 18  2  0  0  0  0
  5 20  1  0  0  0  0
  6 22  1  0  0  0  0
  7 10  2  0  0  0  0
  7 21  1  0  0  0  0
  8 27  1  0  0  0  0
  9 27  2  0  0  0  0
 10 28  1  0  0  0  0
 11 12  2  0  0  0  0
 11 29  1  0  0  0  0
 12 30  1  0  0  0  0
 13 23  1  0  0  0  0
 13 28  2  0  0  0  0
 14 24  2  0  0  0  0
 14 25  1  0  0  0  0
 15 24  1  0  0  0  0
 15 26  2  0  0  0  0
 16 25  2  0  0  0  0
 16 26  1  0  0  0  0
 17 30  2  0  0  0  0
 17 31  1  0  0  0  0
 18 32  1  0  0  0  0
 19 32  1  0  0  0  0
 19 33  2  0  0  0  0
 19 34  1  0  0  0  0
 20 22  2  0  0  0  0
 20 40  1  0  0  0  0
 21 23  2  0  0  0  0
 21 41  1  0  0  0  0
 22 49  1  0  0  0  0
 23 42  1  0  0  0  0
 24 52  1  0  0  0  0
 25 59  1  0  0  0  0
 26 72  1  0  0  0  0
 27 83  1  0  0  0  0
 28 84  1  0  0  0  0
 29 31  2  0  0  0  0
 29 83  1  0  0  0  0
 30 85  1  0  0  0  0
 31 86  1  0  0  0  0
 32 66  2  0  0  0  0
 33 67  1  0  0  0  0
 33 70  1  0  0  0  0
 34 71  1  0  0  0  0
 34 77  2  0  0  0  0
 35 50  1  0  0  0  0
 35 73  1  0  0  0  0
 35 78  2  0  0  0  0
 36 63  1  0  0  0  0
 36 68  1  0  0  0  0
 36 79  2  0  0  0  0
 37 60  1  0  0  0  0
 37 75  1  0  0  0  0
 37 80  2  0  0  0  0
 38 64  1  0  0  0  0
 38 74  1  0  0  0  0
 38 81  2  0  0  0  0
 39 69  1  0  0  0  0
 39 72  1  0  0  0  0
 39 82  2  0  0  0  0
 40 43  1  0  0  0  0
 41 50  1  0  0  0  0
 42 68  1  0  0  0  0
 43 45  1  0  0  0  0
 44 46  1  0  0  0  0
 44 47  1  0  0  0  0
 45 49  1  0  0  0  0
 46 51  1  0  0  0  0
 47 69  1  0  0  0  0
 48 51  1  0  0  0  0
 48 69  1  0  0  0  0
 49 73  1  0  0  0  0
 50 68  1  0  0  0  0
 51 67  1  0  0  0  0
 53 64  1  0  0  0  0
 54 65  1  0  0  0  0
 55 65  1  0  0  0  0
 56 65  1  0  0  0  0
 57 75  1  0  0  0  0
 58 76  1  0  0  0  0
 59 75  1  0  0  0  0
 60 61  1  0  0  0  0
 61 62  1  0  0  0  0
 62 84  1  0  0  0  0
 63 65  1  0  0  0  0
 63 74  1  0  0  0  0
 64 76  1  0  0  0  0
 66 67  1  0  0  0  0
M  CHG  1  76   1
M  ISO  4  39 100  62 101  72 100  84 101
M  END
> <Batch ID>
0063

> <Smiles>
CNC(C)C(=O)NC(C(=O)N1Cc2cc([101O:1][101CH2:1]CCC(=O)N(C)Cc3cc(C)cc([100NH:0][100C:0](=O)N4CCCC(n5nc(-c6ccc(Oc7ccc(F)cc7F)cc6)c(C(N)=O)c5N)C4)c3)ccc2CC1C(=O)NC1CCCc2ccccc21)C(C)(C)C

> <Shape>
0.249

> <Color>
0.073

> <Negative vol penalty>
0.000

$$$$

  -OEChem-04042323123D

 86 95  0     1  0  0  0  0  0999 V2000
  -28.1222  -37.7249   20.9267 C   0  0  0  0  0  0  0  0  0  0  0  0
  -28.1144  -36.6804   20.0077 C   0  0  0  0  0  0  0  0  0  0  0  0
  -24.4956   -9.0430   21.7676 C   0  0  0  0  0  0  0  0  0  0  0  0
  -23.2873  -10.3666   20.1474 C   0  0  0  0  0  0  0  0  0  0  0  0
  -28.0870  -37.4499   22.2931 C   0  0  0  0  0  0  0  0  0  0  0  0
  -28.0725  -35.3602   20.4548 C   0  0  0  0  0  0  0  0  0  0  0  0
  -25.5039  -28.9269   18.6297 C   0  0  0  0  0  0  0  0  0  0  0  0
  -25.7906  -20.0075   17.8515 C   0  0  0  0  0  0  0  0  0  0  0  0
  -23.2881   -8.6271   22.3285 C   0  0  0  0  0  0  0  0  0  0  0  0
  -22.0798   -9.9507   20.7083 C   0  0  0  0  0  0  0  0  0  0  0  0
  -25.9244  -27.6092   18.4553 C   0  0  0  0  0  0  0  0  0  0  0  0
  -20.8620   -6.3774   21.6319 C   0  0  0  0  0  0  0  0  0  0  0  0
  -25.4095  -18.7976   17.2714 C   0  0  0  0  0  0  0  0  0  0  0  0
  -20.7190   -5.0227   21.9318 C   0  0  0  0  0  0  0  0  0  0  0  0
  -25.7861  -27.2561   20.8376 C   0  0  0  0  0  0  0  0  0  0  0  0
  -28.4054  -22.8216   20.3666 C   0  0  0  0  0  0  0  0  0  0  0  0
  -27.4142  -18.8443   19.2109 C   0  0  0  0  0  0  0  0  0  0  0  0
  -20.3726   -5.5743   24.2583 C   0  0  0  0  0  0  0  0  0  0  0  0
  -24.4953   -9.9128   20.6771 C   0  0  0  0  0  0  0  0  0  0  0  0
  -26.4557   -9.7200   19.0563 C   0  0  0  0  0  0  0  0  0  0  0  0
  -28.0349  -36.1260   22.7569 C   0  0  0  0  0  0  0  0  0  0  0  0
  -25.2313  -29.4232   19.9127 C   0  0  0  0  0  0  0  0  0  0  0  0
  -28.0379  -35.0673   21.8287 C   0  0  0  0  0  0  0  0  0  0  0  0
  -25.3598  -28.5797   21.0254 C   0  0  0  0  0  0  0  0  0  0  0  0
  -27.0936  -23.3232   20.1805 C   0  0  0  0  0  0  0  0  0  0  0  0
  -26.7930  -20.0308   18.8213 C   0  0  0  0  0  0  0  0  0  0  0  0
  -27.0331  -17.6344   18.6308 C   0  0  0  0  0  0  0  0  0  0  0  0
  -22.0802   -9.0809   21.7988 C   0  0  0  0  0  0  0  0  0  0  0  0
  -26.0684  -26.7744   19.5596 C   0  0  0  0  0  0  0  0  0  0  0  0
  -20.7603   -7.3306   22.6452 C   0  0  0  0  0  0  0  0  0  0  0  0
  -20.4743   -4.6211   23.2450 C   0  0  0  0  0  0  0  0  0  0  0  0
  -26.0307  -17.6111   17.6610 C   0  0  0  0  0  0  0  0  0  0  0  0
  -20.5156   -6.9290   23.9584 C   0  0  0  0  0  0  0  0  0  0  0  0
  -25.7423  -10.3431   20.0977 C   0  0  0  0  0  0  0  0  0  0  0  0
  -27.5630  -10.5124   18.8765 C   0  0  0  0  0  0  0  0  0  0  0  0
  -28.4272  -21.5347   19.8759 C   0  0  0  0  0  0  0  0  0  0  0  0
  -26.3535  -22.3274   19.5820 C   0  0  0  0  0  0  0  0  0  0  0  0
  -26.1451   -8.5312   18.3174 C   0  0  0  0  0  0  0  0  0  0  0  0
  -26.4393  -31.7376   21.7259 C   0  0  0  0  0  0  0  0  0  0  0  0
  -23.9771  -30.9534   23.6867 C   0  0  0  0  0  0  0  0  0  0  0  0
  -21.7210  -28.6049   24.7073 C   0  0  0  0  0  0  0  0  0  0  0  0
  -28.6777  -16.2793   19.9745 C   0  0  0  0  0  0  0  0  0  0  0  0
  -28.0458  -35.8769   24.2444 C   0  0  0  0  0  0  0  0  0  0  0  0
  -24.7528  -30.8392   20.0813 C   0  0  0  0  0  0  0  0  0  0  0  0
  -25.0602  -29.0580   22.4218 C   0  0  0  0  0  0  0  0  0  0  0  0
  -27.6241  -34.4609   24.6279 C   0  0  0  0  0  0  0  0  0  0  0  0
  -30.4689  -13.4825   21.2576 C   0  0  0  0  0  0  0  0  0  0  0  0
  -28.3360  -33.4358   23.7510 C   0  0  0  0  0  0  0  0  0  0  0  0
  -29.5276  -12.3024   21.0054 C   0  0  0  0  0  0  0  0  0  0  0  0
  -29.7027  -14.7473   21.6410 C   0  0  0  0  0  0  0  0  0  0  0  0
  -27.6935  -13.9526   20.4574 C   0  0  0  0  0  0  0  0  0  0  0  0
  -27.9679  -33.6227   22.2741 C   0  0  1  0  0  0  0  0  0  0  0  0
  -24.9979  -31.3897   21.4828 C   0  0  1  0  0  0  0  0  0  0  0  0
  -28.4152  -12.6727   20.0049 C   0  0  2  0  0  0  0  0  0  0  0  0
  -19.8625  -28.2435   26.3543 C   0  0  0  0  0  0  0  0  0  0  0  0
  -26.0261  -30.6299   25.9242 C   0  0  0  0  0  0  0  0  0  0  0  0
  -24.2959  -29.3807   27.2335 C   0  0  0  0  0  0  0  0  0  0  0  0
  -23.9047  -31.7637   26.6084 C   0  0  0  0  0  0  0  0  0  0  0  0
  -19.7458  -28.1406   22.5528 C   0  0  0  0  0  0  0  0  0  0  0  0
  -26.6054  -24.6882   20.5674 C   0  0  0  0  0  0  0  0  0  1  0  0
  -23.7839  -29.9781   24.8226 C   0  0  1  0  0  0  0  0  0  0  0  0
  -20.2235  -28.6825   24.9438 C   0  0  2  0  0  0  0  0  0  0  0  0
  -24.5102  -30.4293   26.1212 C   0  0  0  0  0  0  0  0  0  0  0  0
  -26.3458  -11.4463   20.5481 N   0  0  0  0  0  0  0  0  0  0  0  0
  -27.1744  -21.2449   19.4019 N   0  0  0  0  0  0  0  0  0  0  0  0
  -27.4502  -11.5225   19.7860 N   0  0  0  0  0  0  0  0  0  0  0  0
  -24.6015  -30.4524   22.5356 N   0  0  0  0  0  0  0  0  0  0  0  0
  -28.6686  -15.0382   20.6455 N   0  0  0  0  0  0  0  0  0  0  0  0
  -28.6126  -10.4367   18.0309 N   0  0  0  0  0  0  0  0  0  0  0  0
  -24.9677   -7.8383   18.6305 N   0  0  0  0  0  0  0  0  0  0  0  0
  -27.6656  -16.4299   19.0270 N   0  0  0  0  0  0  0  0  0  0  0  0
  -26.6561  -33.0731   22.0067 N   0  0  0  0  0  0  0  0  0  0  0  0
  -22.3429  -29.8066   24.9728 N   0  0  0  0  0  0  0  0  0  0  0  0
  -19.5007  -27.8060   23.9793 N   0  3  0  0  0  0  0  0  0  0  0  0
  -26.8979   -8.0872   17.4175 O   0  0  0  0  0  0  0  0  0  0  0  0
  -27.2915  -30.8591   21.6647 O   0  0  0  0  0  0  0  0  0  0  0  0
  -23.5818  -32.1150   23.8132 O   0  0  0  0  0  0  0  0  0  0  0  0
  -22.2833  -27.5797   24.3288 O   0  0  0  0  0  0  0  0  0  0  0  0
  -29.5374  -17.1342   20.2026 O   0  0  0  0  0  0  0  0  0  0  0  0
  -29.4165  -20.6510   19.8212 O   0  0  0  0  0  0  0  0  0  0  0  0
  -25.0797  -22.3036   19.2065 O   0  0  0  0  0  0  0  0  0  0  0  0
  -20.9017   -8.6752   22.3457 O   0  0  0  0  0  0  0  0  0  0  0  0
  -26.4794  -25.4879   19.3923 O   0  0  0  0  0  0  0  0  0  1  0  0
  -20.3355   -3.3203   23.5326 F   0  0  0  0  0  0  0  0  0  0  0  0
  -25.6554  -16.4540   17.0973 F   0  0  0  0  0  0  0  0  0  0  0  0
  -20.4157   -7.8402   24.9359 F   0  0  0  0  0  0  0  0  0  0  0  0
  1  2  1  0  0  0  0
  1  5  2  0  0  0  0
  2  6  2  0  0  0  0
  3  9  2  0  0  0  0
  3 19  1  0  0  0  0
  4 10  1  0  0  0  0
  4 19  2  0  0  0  0
  5 21  1  0  0  0  0
  6 23  1  0  0  0  0
  7 11  2  0  0  0  0
  7 22  1  0  0  0  0
  8 13  2  0  0  0  0
  8 26  1  0  0  0  0
  9 28  1  0  0  0  0
 10 28  2  0  0  0  0
 11 29  1  0  0  0  0
 12 14  2  0  0  0  0
 12 30  1  0  0  0  0
 13 32  1  0  0  0  0
 14 31  1  0  0  0  0
 15 24  1  0  0  0  0
 15 29  2  0  0  0  0
 16 25  1  0  0  0  0
 16 36  2  0  0  0  0
 17 26  2  0  0  0  0
 17 27  1  0  0  0  0
 18 31  2  0  0  0  0
 18 33  1  0  0  0  0
 19 34  1  0  0  0  0
 20 34  1  0  0  0  0
 20 35  2  0  0  0  0
 20 38  1  0  0  0  0
 21 23  2  0  0  0  0
 21 43  1  0  0  0  0
 22 24  2  0  0  0  0
 22 44  1  0  0  0  0
 23 52  1  0  0  0  0
 24 45  1  0  0  0  0
 25 37  2  0  0  0  0
 25 60  1  0  0  0  0
 26 65  1  0  0  0  0
 27 32  2  0  0  0  0
 27 71  1  0  0  0  0
 28 82  1  0  0  0  0
 29 83  1  0  0  0  0
 30 33  2  0  0  0  0
 30 82  1  0  0  0  0
 31 84  1  0  0  0  0
 32 85  1  0  0  0  0
 33 86  1  0  0  0  0
 34 64  2  0  0  0  0
 35 66  1  0  0  0  0
 35 69  1  0  0  0  0
 36 65  1  0  0  0  0
 36 80  1  0  0  0  0
 37 65  1  0  0  0  0
 37 81  1  0  0  0  0
 38 70  1  0  0  0  0
 38 75  2  0  0  0  0
 39 53  1  0  0  0  0
 39 72  1  0  0  0  0
 39 76  2  0  0  0  0
 40 61  1  0  0  0  0
 40 67  1  0  0  0  0
 40 77  2  0  0  0  0
 41 62  1  0  0  0  0
 41 73  1  0  0  0  0
 41 78  2  0  0  0  0
 42 68  1  0  0  0  0
 42 71  1  0  0  0  0
 42 79  2  0  0  0  0
 43 46  1  0  0  0  0
 44 53  1  0  0  0  0
 45 67  1  0  0  0  0
 46 48  1  0  0  0  0
 47 49  1  0  0  0  0
 47 50  1  0  0  0  0
 48 52  1  0  0  0  0
 49 54  1  0  0  0  0
 50 68  1  0  0  0  0
 51 54  1  0  0  0  0
 51 68  1  0  0  0  0
 52 72  1  0  0  0  0
 53 67  1  0  0  0  0
 54 66  1  0  0  0  0
 55 62  1  0  0  0  0
 56 63  1  0  0  0  0
 57 63  1  0  0  0  0
 58 63  1  0  0  0  0
 59 74  1  0  0  0  0
 60 83  1  0  0  0  0
 61 63  1  0  0  0  0
 61 73  1  0  0  0  0
 62 74  1  0  0  0  0
 64 66  1  0  0  0  0
M  CHG  1  74   1
M  ISO  4  42 100  60 101  71 100  83 101
M  END
> <Batch ID>
0063

> <Smiles>
CNC(C)C(=O)NC(C(=O)N1Cc2cc([101O:1][101CH2:1]C3CC(=O)N(c4ccc(F)c([100NH:0][100C:0](=O)N5CCCC(n6nc(-c7ccc(Oc8ccc(F)cc8F)cc7)c(C(N)=O)c6N)C5)c4)C3=O)ccc2CC1C(=O)NC1CCCc2ccccc21)C(C)(C)C

> <Shape>
0.267

> <Color>
0.110

> <Negative vol penalty>
0.000

$$$$

  -OEChem-04042323123D

 84 92  0     1  0  0  0  0  0999 V2000
  -17.0697  -25.4241   24.2122 C   0  0  0  0  0  0  0  0  0  0  0  0
  -18.2480  -24.8863   24.7196 C   0  0  0  0  0  0  0  0  0  0  0  0
  -32.4484  -17.7955   23.3646 C   0  0  0  0  0  0  0  0  0  0  0  0
  -23.0449   -9.8824   20.0457 C   0  0  0  0  0  0  0  0  0  0  0  0
  -23.7153  -10.0554   22.3603 C   0  0  0  0  0  0  0  0  0  0  0  0
  -17.1224  -26.4329   23.2512 C   0  0  0  0  0  0  0  0  0  0  0  0
  -19.4799  -25.3562   24.2656 C   0  0  0  0  0  0  0  0  0  0  0  0
  -24.6315  -25.9277   27.5275 C   0  0  0  0  0  0  0  0  0  0  0  0
  -31.6346  -18.7123   24.0299 C   0  0  0  0  0  0  0  0  0  0  0  0
  -31.8812  -16.8548   22.5049 C   0  0  0  0  0  0  0  0  0  0  0  0
  -22.2997   -8.7424   20.3467 C   0  0  0  0  0  0  0  0  0  0  0  0
  -22.9701   -8.9154   22.6614 C   0  0  0  0  0  0  0  0  0  0  0  0
  -25.7612  -25.1193   27.6460 C   0  0  0  0  0  0  0  0  0  0  0  0
  -23.3048   -5.5657   22.3482 C   0  0  0  0  0  0  0  0  0  0  0  0
  -23.8989   -4.5985   23.1588 C   0  0  0  0  0  0  0  0  0  0  0  0
  -26.8837  -26.4541   25.9794 C   0  0  0  0  0  0  0  0  0  0  0  0
  -22.1316   -4.8739   24.7829 C   0  0  0  0  0  0  0  0  0  0  0  0
  -23.7528  -10.5389   21.0524 C   0  0  0  0  0  0  0  0  0  0  0  0
  -24.0819  -13.0528   20.7700 C   0  0  0  0  0  0  0  0  0  0  0  0
  -18.3555  -26.9222   22.7922 C   0  0  0  0  0  0  0  0  0  0  0  0
  -24.6155  -27.0005   26.6246 C   0  0  0  0  0  0  0  0  0  0  0  0
  -19.5491  -26.3716   23.2966 C   0  0  0  0  0  0  0  0  0  0  0  0
  -25.7535  -27.2761   25.8532 C   0  0  0  0  0  0  0  0  0  0  0  0
  -29.6863  -17.7478   22.9759 C   0  0  0  0  0  0  0  0  0  0  0  0
  -30.2535  -18.6885   23.8356 C   0  0  0  0  0  0  0  0  0  0  0  0
  -30.5001  -16.8309   22.3106 C   0  0  0  0  0  0  0  0  0  0  0  0
  -22.2623   -8.2589   21.6546 C   0  0  0  0  0  0  0  0  0  0  0  0
  -26.8865  -25.3807   26.8698 C   0  0  0  0  0  0  0  0  0  0  0  0
  -22.1241   -6.1871   22.7550 C   0  0  0  0  0  0  0  0  0  0  0  0
  -23.3123   -4.2525   24.3761 C   0  0  0  0  0  0  0  0  0  0  0  0
  -21.5374   -5.8412   23.9723 C   0  0  0  0  0  0  0  0  0  0  0  0
  -24.5232  -11.7162   20.7419 C   0  0  0  0  0  0  0  0  0  0  0  0
  -25.1823  -13.7855   20.3974 C   0  0  0  0  0  0  0  0  0  0  0  0
  -28.7072  -21.4017   25.9188 C   0  0  0  0  0  0  0  0  0  0  0  0
  -28.8967  -22.4058   26.7859 C   0  0  0  0  0  0  0  0  0  0  0  0
  -22.7928  -13.5844   21.1032 C   0  0  0  0  0  0  0  0  0  0  0  0
  -29.8674  -20.6149   25.4045 C   0  0  0  0  0  0  0  0  0  0  0  0
  -22.8908  -27.7501   24.0620 C   0  0  0  0  0  0  0  0  0  0  0  0
  -24.5561  -30.5284   24.2355 C   0  0  0  0  0  0  0  0  0  0  0  0
  -27.3586  -32.1654   25.2904 C   0  0  0  0  0  0  0  0  0  0  0  0
  -30.6304  -14.8921   20.7073 C   0  0  0  0  0  0  0  0  0  0  0  0
  -18.3621  -27.9807   21.7178 C   0  0  0  0  0  0  0  0  0  0  0  0
  -23.3986  -27.8793   26.5280 C   0  0  0  0  0  0  0  0  0  0  0  0
  -25.7945  -28.4281   24.8838 C   0  0  0  0  0  0  0  0  0  0  0  0
  -19.7082  -28.6839   21.5639 C   0  0  0  0  0  0  0  0  0  0  0  0
  -29.6249  -12.3096   18.4721 C   0  0  0  0  0  0  0  0  0  0  0  0
  -20.8428  -27.6648   21.5360 C   0  0  0  0  0  0  0  0  0  0  0  0
  -28.1717  -12.0349   18.8657 C   0  0  0  0  0  0  0  0  0  0  0  0
  -30.4912  -12.6297   19.6889 C   0  0  0  0  0  0  0  0  0  0  0  0
  -28.5273  -13.4302   20.9426 C   0  0  0  0  0  0  0  0  0  0  0  0
  -20.9047  -26.8722   22.8473 C   0  0  1  0  0  0  0  0  0  0  0  0
  -23.3089  -28.6322   25.2042 C   0  0  1  0  0  0  0  0  0  0  0  0
  -27.6020  -13.1666   19.7434 C   0  0  2  0  0  0  0  0  0  0  0  0
  -28.2034  -17.7216   22.7679 C   0  0  0  0  0  0  0  0  0  0  0  0
  -28.4536  -34.4230   25.2509 C   0  0  0  0  0  0  0  0  0  0  0  0
  -25.3445  -30.0924   21.3203 C   0  0  0  0  0  0  0  0  0  0  0  0
  -27.1473  -31.8028   21.6247 C   0  0  0  0  0  0  0  0  0  0  0  0
  -24.7547  -32.4526   21.8996 C   0  0  0  0  0  0  0  0  0  0  0  0
  -27.3276  -32.3606   28.2434 C   0  0  0  0  0  0  0  0  0  0  0  0
  -27.7801  -23.2282   27.3436 C   0  0  0  0  0  0  0  0  0  1  0  0
  -25.8634  -31.0283   23.6699 C   0  0  1  0  0  0  0  0  0  0  0  0
  -27.5402  -33.4830   26.0221 C   0  0  2  0  0  0  0  0  0  0  0  0
  -25.7763  -31.3211   22.1454 C   0  0  0  0  0  0  0  0  0  0  0  0
  -25.8039  -11.6035   20.3799 N   0  0  0  0  0  0  0  0  0  0  0  0
  -26.1769  -12.8786   20.1770 N   0  0  0  0  0  0  0  0  0  0  0  0
  -24.5777  -29.2546   24.8208 N   0  0  0  0  0  0  0  0  0  0  0  0
  -29.8917  -13.7136   20.4704 N   0  0  0  0  0  0  0  0  0  0  0  0
  -25.3864  -15.1106   20.2399 N   0  0  0  0  0  0  0  0  0  0  0  0
  -21.7747  -12.6913   21.4641 N   0  0  0  0  0  0  0  0  0  0  0  0
  -29.4463  -19.6281   24.5227 N   0  0  0  0  0  0  0  0  0  0  0  0
  -29.9456  -15.8655   21.4340 N   0  0  0  0  0  0  0  0  0  0  0  0
  -21.5225  -27.6651   23.8885 N   0  0  0  0  0  0  0  0  0  0  0  0
  -26.2439  -32.1812   24.4789 N   0  0  0  0  0  0  0  0  0  0  0  0
  -28.1345  -33.2500   27.3688 N   0  3  0  0  0  0  0  0  0  0  0  0
  -22.5462  -14.8137   21.0657 O   0  0  0  0  0  0  0  0  0  0  0  0
  -31.0132  -20.8651   25.7592 O   0  0  0  0  0  0  0  0  0  0  0  0
  -23.7462  -27.1894   23.3871 O   0  0  0  0  0  0  0  0  0  0  0  0
  -23.5542  -31.2449   24.1670 O   0  0  0  0  0  0  0  0  0  0  0  0
  -28.1307  -31.2182   25.4224 O   0  0  0  0  0  0  0  0  0  0  0  0
  -31.7756  -15.0387   20.2725 O   0  0  0  0  0  0  0  0  0  0  0  0
  -21.5350   -7.1467   21.9488 O   0  0  0  0  0  0  0  0  0  0  0  0
  -27.9903  -24.5928   26.9830 O   0  0  0  0  0  0  0  0  0  1  0  0
  -23.8821   -3.3226   25.1537 F   0  0  0  0  0  0  0  0  0  0  0  0
  -20.4025   -6.4339   24.3679 F   0  0  0  0  0  0  0  0  0  0  0  0
  1  2  1  0  0  0  0
  1  6  2  0  0  0  0
  2  7  2  0  0  0  0
  3  9  2  0  0  0  0
  3 10  1  0  0  0  0
  4 11  2  0  0  0  0
  4 18  1  0  0  0  0
  5 12  1  0  0  0  0
  5 18  2  0  0  0  0
  6 20  1  0  0  0  0
  7 22  1  0  0  0  0
  8 13  2  0  0  0  0
  8 21  1  0  0  0  0
  9 25  1  0  0  0  0
 10 26  2  0  0  0  0
 11 27  1  0  0  0  0
 12 27  2  0  0  0  0
 13 28  1  0  0  0  0
 14 15  2  0  0  0  0
 14 29  1  0  0  0  0
 15 30  1  0  0  0  0
 16 23  1  0  0  0  0
 16 28  2  0  0  0  0
 17 30  2  0  0  0  0
 17 31  1  0  0  0  0
 18 32  1  0  0  0  0
 19 32  1  0  0  0  0
 19 33  2  0  0  0  0
 19 36  1  0  0  0  0
 20 22  2  0  0  0  0
 20 42  1  0  0  0  0
 21 23  2  0  0  0  0
 21 43  1  0  0  0  0
 22 51  1  0  0  0  0
 23 44  1  0  0  0  0
 24 25  2  0  0  0  0
 24 26  1  0  0  0  0
 24 54  1  0  0  0  0
 25 70  1  0  0  0  0
 26 71  1  0  0  0  0
 27 81  1  0  0  0  0
 28 82  1  0  0  0  0
 29 31  2  0  0  0  0
 29 81  1  0  0  0  0
 30 83  1  0  0  0  0
 31 84  1  0  0  0  0
 32 64  2  0  0  0  0
 33 65  1  0  0  0  0
 33 68  1  0  0  0  0
 34 35  2  0  0  0  0
 34 37  1  0  0  0  0
 35 60  1  0  0  0  0
 36 69  1  0  0  0  0
 36 75  2  0  0  0  0
 37 70  1  0  0  0  0
 37 76  2  0  0  0  0
 38 52  1  0  0  0  0
 38 72  1  0  0  0  0
 38 77  2  0  0  0  0
 39 61  1  0  0  0  0
 39 66  1  0  0  0  0
 39 78  2  0  0  0  0
 40 62  1  0  0  0  0
 40 73  1  0  0  0  0
 40 79  2  0  0  0  0
 41 67  1  0  0  0  0
 41 71  1  0  0  0  0
 41 80  2  0  0  0  0
 42 45  1  0  0  0  0
 43 52  1  0  0  0  0
 44 66  1  0  0  0  0
 45 47  1  0  0  0  0
 46 48  1  0  0  0  0
 46 49  1  0  0  0  0
 47 51  1  0  0  0  0
 48 53  1  0  0  0  0
 49 67  1  0  0  0  0
 50 53  1  0  0  0  0
 50 67  1  0  0  0  0
 51 72  1  0  0  0  0
 52 66  1  0  0  0  0
 53 65  1  0  0  0  0
 55 62  1  0  0  0  0
 56 63  1  0  0  0  0
 57 63  1  0  0  0  0
 58 63  1  0  0  0  0
 59 74  1  0  0  0  0
 60 82  1  0  0  0  0
 61 63  1  0  0  0  0
 61 73  1  0  0  0  0
 62 74  1  0  0  0  0
 64 65  1  0  0  0  0
M  CHG  1  74   1
M  ISO  4  41 100  60 101  71 100  82 101
M  END
> <Batch ID>
0063

> <Smiles>
CNC(C)C(=O)NC(C(=O)N1Cc2cc([101O:1][101CH2:1]C=CC(=O)Nc3cccc([100NH:0][100C:0](=O)N4CCCC(n5nc(-c6ccc(Oc7ccc(F)cc7F)cc6)c(C(N)=O)c5N)C4)c3C)ccc2CC1C(=O)NC1CCCc2ccccc21)C(C)(C)C

> <Shape>
0.310

> <Color>
0.227

> <Negative vol penalty>
0.000

$$$$

  -OEChem-04042323123D

 89 98  0     1  0  0  0  0  0999 V2000
  -26.9624  -37.8641   22.5967 C   0  0  0  0  0  0  0  0  0  0  0  0
  -27.5849  -36.8708   21.8474 C   0  0  0  0  0  0  0  0  0  0  0  0
  -24.0325   -9.2404   21.4552 C   0  0  0  0  0  0  0  0  0  0  0  0
  -23.2557  -11.5280   21.4417 C   0  0  0  0  0  0  0  0  0  0  0  0
  -26.1589  -37.5167   23.6819 C   0  0  0  0  0  0  0  0  0  0  0  0
  -27.4052  -35.5296   22.1837 C   0  0  0  0  0  0  0  0  0  0  0  0
  -26.9641  -29.0350   19.1934 C   0  0  0  0  0  0  0  0  0  0  0  0
  -23.0338   -8.9066   22.3698 C   0  0  0  0  0  0  0  0  0  0  0  0
  -22.2569  -11.1942   22.3563 C   0  0  0  0  0  0  0  0  0  0  0  0
  -27.5206  -27.7609   19.2982 C   0  0  0  0  0  0  0  0  0  0  0  0
  -19.7168   -8.2531   22.3079 C   0  0  0  0  0  0  0  0  0  0  0  0
  -18.9910   -7.0845   22.0773 C   0  0  0  0  0  0  0  0  0  0  0  0
  -26.0467  -27.2756   21.1451 C   0  0  0  0  0  0  0  0  0  0  0  0
  -26.2412  -20.6996   18.9519 C   0  0  0  0  0  0  0  0  0  0  0  0
  -25.9559  -18.3554   18.4419 C   0  0  0  0  0  0  0  0  0  0  0  0
  -27.9871  -19.1226   19.5014 C   0  0  0  0  0  0  0  0  0  0  0  0
  -19.7342   -6.2038   24.2008 C   0  0  0  0  0  0  0  0  0  0  0  0
  -24.1436  -10.5511   20.9911 C   0  0  0  0  0  0  0  0  0  0  0  0
  -25.3632  -10.3606   18.7587 C   0  0  0  0  0  0  0  0  0  0  0  0
  -25.9615  -36.1700   24.0258 C   0  0  0  0  0  0  0  0  0  0  0  0
  -25.9506  -29.4434   20.0722 C   0  0  0  0  0  0  0  0  0  0  0  0
  -26.5995  -35.1639   23.2754 C   0  0  0  0  0  0  0  0  0  0  0  0
  -25.4773  -28.5544   21.0478 C   0  0  0  0  0  0  0  0  0  0  0  0
  -25.4690  -19.6625   18.4287 C   0  0  0  0  0  0  0  0  0  0  0  0
  -27.5003  -20.4297   19.4882 C   0  0  0  0  0  0  0  0  0  0  0  0
  -27.2149  -18.0855   18.9782 C   0  0  0  0  0  0  0  0  0  0  0  0
  -22.1459   -9.8835   22.8204 C   0  0  0  0  0  0  0  0  0  0  0  0
  -27.0639  -26.8821   20.2760 C   0  0  0  0  0  0  0  0  0  0  0  0
  -20.4515   -8.3970   23.4849 C   0  0  0  0  0  0  0  0  0  0  0  0
  -18.9996   -6.0599   23.0238 C   0  0  0  0  0  0  0  0  0  0  0  0
  -20.4602   -7.3724   24.4313 C   0  0  0  0  0  0  0  0  0  0  0  0
  -25.1755  -10.8967   20.0468 C   0  0  0  0  0  0  0  0  0  0  0  0
  -26.4694  -11.0137   18.2728 C   0  0  0  0  0  0  0  0  0  0  0  0
  -29.2049  -21.2705   21.0811 C   0  0  0  0  0  0  0  0  0  0  0  0
  -24.6053   -9.3615   18.0635 C   0  0  0  0  0  0  0  0  0  0  0  0
  -25.6618  -31.7398   22.2510 C   0  0  0  0  0  0  0  0  0  0  0  0
  -22.5981  -30.6833   22.3920 C   0  0  0  0  0  0  0  0  0  0  0  0
  -20.3874  -28.1319   21.8918 C   0  0  0  0  0  0  0  0  0  0  0  0
  -28.9379  -16.3187   19.4847 C   0  0  0  0  0  0  0  0  0  0  0  0
  -25.1223  -35.8454   25.2361 C   0  0  0  0  0  0  0  0  0  0  0  0
  -25.3422  -30.8115   19.9289 C   0  0  0  0  0  0  0  0  0  0  0  0
  -24.3772  -28.9372   22.0027 C   0  0  0  0  0  0  0  0  0  0  0  0
  -30.2104  -22.3704   21.3654 C   0  0  0  0  0  0  0  0  0  0  0  0
  -24.6817  -34.3851   25.2979 C   0  0  0  0  0  0  0  0  0  0  0  0
  -29.6789  -23.7714   21.1567 C   0  0  0  0  0  0  0  0  0  0  0  0
  -30.5085  -13.1330   19.7319 C   0  0  0  0  0  0  0  0  0  0  0  0
  -25.8584  -33.4596   25.0052 C   0  0  0  0  0  0  0  0  0  0  0  0
  -29.3366  -12.1489   19.7173 C   0  0  0  0  0  0  0  0  0  0  0  0
  -30.1668  -14.4106   20.4965 C   0  0  0  0  0  0  0  0  0  0  0  0
  -27.9801  -22.8760   19.5896 C   0  0  0  0  0  0  0  0  0  0  0  0
  -27.7645  -14.1000   20.0470 C   0  0  0  0  0  0  0  0  0  0  0  0
  -26.4090  -33.6967   23.5938 C   0  0  1  0  0  0  0  0  0  0  0  0
  -24.6721  -31.3044   21.2078 C   0  0  1  0  0  0  0  0  0  0  0  0
  -29.1211  -23.8800   19.7471 C   0  0  1  0  0  0  0  0  0  0  0  0
  -28.0389  -12.8250   19.2330 C   0  0  2  0  0  0  0  0  0  0  0  0
  -17.9570  -27.5555   22.1336 C   0  0  0  0  0  0  0  0  0  0  0  0
  -23.1709  -20.5781   18.8900 C   0  0  0  0  0  0  0  0  0  0  0  0
  -24.2038  -20.8606   16.6131 C   0  0  0  0  0  0  0  0  0  0  0  0
  -22.9703  -30.3889   25.4061 C   0  0  0  0  0  0  0  0  0  0  0  0
  -20.9186  -28.9547   25.4492 C   0  0  0  0  0  0  0  0  0  0  0  0
  -20.7601  -31.3335   24.7152 C   0  0  0  0  0  0  0  0  0  0  0  0
  -20.0952  -27.6423   18.9877 C   0  0  0  0  0  0  0  0  0  0  0  0
  -28.6387  -25.2996   19.4562 C   0  0  0  0  0  0  0  0  0  1  0  0
  -21.8633  -29.6390   23.1974 C   0  0  1  0  0  0  0  0  0  0  0  0
  -19.0347  -28.0915   21.2041 C   0  0  2  0  0  0  0  0  0  0  0  0
  -24.1232  -19.9519   17.8541 C   0  0  0  0  0  0  0  0  0  0  0  0
  -21.6502  -30.0722   24.6754 C   0  0  0  0  0  0  0  0  0  0  0  0
  -26.0893  -11.8193   20.3595 N   0  0  0  0  0  0  0  0  0  0  0  0
  -26.8620  -11.8679   19.2610 N   0  0  0  0  0  0  0  0  0  0  0  0
  -28.3012  -21.5063   20.0308 N   0  0  0  0  0  0  0  0  0  0  0  0
  -23.8187  -30.2880   21.8265 N   0  0  0  0  0  0  0  0  0  0  0  0
  -28.9284  -14.9977   19.9803 N   0  0  0  0  0  0  0  0  0  0  0  0
  -27.1350  -10.9350   17.1009 N   0  0  0  0  0  0  0  0  0  0  0  0
  -23.4984   -8.7934   18.7088 N   0  0  0  0  0  0  0  0  0  0  0  0
  -27.7101  -16.7579   18.9903 N   0  0  0  0  0  0  0  0  0  0  0  0
  -25.5556  -33.0708   22.6067 N   0  0  0  0  0  0  0  0  0  0  0  0
  -20.6285  -29.3590   22.4728 N   0  0  0  0  0  0  0  0  0  0  0  0
  -19.0926  -27.2176   19.9983 N   0  3  0  0  0  0  0  0  0  0  0  0
  -29.2819  -20.2302   21.7404 O   0  0  0  0  0  0  0  0  0  0  0  0
  -24.9107   -8.9720   16.9109 O   0  0  0  0  0  0  0  0  0  0  0  0
  -26.4617  -30.9278   22.7012 O   0  0  0  0  0  0  0  0  0  0  0  0
  -22.1038  -31.8061   22.2632 O   0  0  0  0  0  0  0  0  0  0  0  0
  -21.1520  -27.1700   21.9148 O   0  0  0  0  0  0  0  0  0  0  0  0
  -29.9663  -17.0000   19.4728 O   0  0  0  0  0  0  0  0  0  0  0  0
  -21.1710   -9.5581   23.7127 O   0  0  0  0  0  0  0  0  0  0  0  0
  -27.6058  -25.6382   20.3808 O   0  0  0  0  0  0  0  0  0  1  0  0
  -18.3013   -4.9384   22.8029 F   0  0  0  0  0  0  0  0  0  0  0  0
  -21.1631   -7.5054   25.5645 F   0  0  0  0  0  0  0  0  0  0  0  0
  -23.4699  -18.8130   17.4164 F   0  0  0  0  0  0  0  0  0  0  0  0
  1  2  1  0  0  0  0
  1  5  2  0  0  0  0
  2  6  2  0  0  0  0
  3  8  2  0  0  0  0
  3 18  1  0  0  0  0
  4  9  1  0  0  0  0
  4 18  2  0  0  0  0
  5 20  1  0  0  0  0
  6 22  1  0  0  0  0
  7 10  2  0  0  0  0
  7 21  1  0  0  0  0
  8 27  1  0  0  0  0
  9 27  2  0  0  0  0
 10 28  1  0  0  0  0
 11 12  2  0  0  0  0
 11 29  1  0  0  0  0
 12 30  1  0  0  0  0
 13 23  1  0  0  0  0
 13 28  2  0  0  0  0
 14 24  1  0  0  0  0
 14 25  2  0  0  0  0
 15 24  2  0  0  0  0
 15 26  1  0  0  0  0
 16 25  1  0  0  0  0
 16 26  2  0  0  0  0
 17 30  2  0  0  0  0
 17 31  1  0  0  0  0
 18 32  1  0  0  0  0
 19 32  1  0  0  0  0
 19 33  2  0  0  0  0
 19 35  1  0  0  0  0
 20 22  2  0  0  0  0
 20 40  1  0  0  0  0
 21 23  2  0  0  0  0
 21 41  1  0  0  0  0
 22 52  1  0  0  0  0
 23 42  1  0  0  0  0
 24 66  1  0  0  0  0
 25 70  1  0  0  0  0
 26 75  1  0  0  0  0
 27 85  1  0  0  0  0
 28 86  1  0  0  0  0
 29 31  2  0  0  0  0
 29 85  1  0  0  0  0
 30 87  1  0  0  0  0
 31 88  1  0  0  0  0
 32 68  2  0  0  0  0
 33 69  1  0  0  0  0
 33 73  1  0  0  0  0
 34 43  1  0  0  0  0
 34 70  1  0  0  0  0
 34 79  2  0  0  0  0
 35 74  1  0  0  0  0
 35 80  2  0  0  0  0
 36 53  1  0  0  0  0
 36 76  1  0  0  0  0
 36 81  2  0  0  0  0
 37 64  1  0  0  0  0
 37 71  1  0  0  0  0
 37 82  2  0  0  0  0
 38 65  1  0  0  0  0
 38 77  1  0  0  0  0
 38 83  2  0  0  0  0
 39 72  1  0  0  0  0
 39 75  1  0  0  0  0
 39 84  2  0  0  0  0
 40 44  1  0  0  0  0
 41 53  1  0  0  0  0
 42 71  1  0  0  0  0
 43 45  1  0  0  0  0
 44 47  1  0  0  0  0
 45 54  1  0  0  0  0
 46 48  1  0  0  0  0
 46 49  1  0  0  0  0
 47 52  1  0  0  0  0
 48 55  1  0  0  0  0
 49 72  1  0  0  0  0
 50 54  1  0  0  0  0
 50 70  1  0  0  0  0
 51 55  1  0  0  0  0
 51 72  1  0  0  0  0
 52 76  1  0  0  0  0
 53 71  1  0  0  0  0
 54 63  1  0  0  0  0
 55 69  1  0  0  0  0
 56 65  1  0  0  0  0
 57 66  1  0  0  0  0
 58 66  1  0  0  0  0
 59 67  1  0  0  0  0
 60 67  1  0  0  0  0
 61 67  1  0  0  0  0
 62 78  1  0  0  0  0
 63 86  1  0  0  0  0
 64 67  1  0  0  0  0
 64 77  1  0  0  0  0
 65 78  1  0  0  0  0
 66 89  1  0  0  0  0
 68 69  1  0  0  0  0
M  CHG  1  78   1
M  ISO  4  39 100  63 101  75 100  86 101
M  END
> <Batch ID>
0063

> <Smiles>
CNC(C)C(=O)NC(C(=O)N1Cc2cc([101O:1][101CH2:1]C3CCC(=O)N(c4cc([100NH:0][100C:0](=O)N5CCCC(n6nc(-c7ccc(Oc8ccc(F)cc8F)cc7)c(C(N)=O)c6N)C5)cc(C(C)(C)F)c4)C3)ccc2CC1C(=O)NC1CCCc2ccccc21)C(C)(C)C

> <Shape>
0.322

> <Color>
0.086

> <Negative vol penalty>
0.000

$$$$

  -OEChem-04042323123D

 83 91  0     1  0  0  0  0  0999 V2000
  -27.3111  -37.8852   21.9699 C   0  0  0  0  0  0  0  0  0  0  0  0
  -27.8044  -36.8448   21.1891 C   0  0  0  0  0  0  0  0  0  0  0  0
  -24.7940   -8.6781   21.6215 C   0  0  0  0  0  0  0  0  0  0  0  0
  -23.2447  -10.0156   20.3379 C   0  0  0  0  0  0  0  0  0  0  0  0
  -26.6427  -37.6049   23.1610 C   0  0  0  0  0  0  0  0  0  0  0  0
  -27.6306  -35.5236   21.5995 C   0  0  0  0  0  0  0  0  0  0  0  0
  -26.6263  -28.9424   18.9545 C   0  0  0  0  0  0  0  0  0  0  0  0
  -25.0764  -19.7420   17.7810 C   0  0  0  0  0  0  0  0  0  0  0  0
  -23.7439   -8.2313   22.4235 C   0  0  0  0  0  0  0  0  0  0  0  0
  -22.1945   -9.5688   21.1400 C   0  0  0  0  0  0  0  0  0  0  0  0
  -27.1547  -27.6551   19.0399 C   0  0  0  0  0  0  0  0  0  0  0  0
  -21.4174   -6.4585   24.5820 C   0  0  0  0  0  0  0  0  0  0  0  0
  -24.5898  -18.5390   17.2695 C   0  0  0  0  0  0  0  0  0  0  0  0
  -21.3606   -5.0963   24.8768 C   0  0  0  0  0  0  0  0  0  0  0  0
  -25.9146  -27.2875   21.0761 C   0  0  0  0  0  0  0  0  0  0  0  0
  -26.9716  -18.5756   18.7216 C   0  0  0  0  0  0  0  0  0  0  0  0
  -21.1933   -4.5932   22.5197 C   0  0  0  0  0  0  0  0  0  0  0  0
  -24.5444   -9.5703   20.5787 C   0  0  0  0  0  0  0  0  0  0  0  0
  -26.1028   -9.4428   18.5631 C   0  0  0  0  0  0  0  0  0  0  0  0
  -26.4521  -36.2792   23.5813 C   0  0  0  0  0  0  0  0  0  0  0  0
  -25.7450  -29.4166   19.9368 C   0  0  0  0  0  0  0  0  0  0  0  0
  -26.9602  -35.2253   22.7980 C   0  0  0  0  0  0  0  0  0  0  0  0
  -25.3743  -28.5803   20.9995 C   0  0  0  0  0  0  0  0  0  0  0  0
  -26.2673  -19.7603   18.5070 C   0  0  0  0  0  0  0  0  0  0  0  0
  -26.4850  -17.3725   18.2101 C   0  0  0  0  0  0  0  0  0  0  0  0
  -22.4442   -8.6766   22.1828 C   0  0  0  0  0  0  0  0  0  0  0  0
  -26.8012  -26.8284   20.1023 C   0  0  0  0  0  0  0  0  0  0  0  0
  -21.3620   -6.8881   23.2561 C   0  0  0  0  0  0  0  0  0  0  0  0
  -21.2486   -4.1637   23.8457 C   0  0  0  0  0  0  0  0  0  0  0  0
  -25.2941  -17.3543   17.4841 C   0  0  0  0  0  0  0  0  0  0  0  0
  -21.2500   -5.9554   22.2249 C   0  0  0  0  0  0  0  0  0  0  0  0
  -25.6288  -10.0326   19.7502 C   0  0  0  0  0  0  0  0  0  0  0  0
  -27.1348  -10.2565   18.1637 C   0  0  0  0  0  0  0  0  0  0  0  0
  -27.0174  -23.2733   19.5940 C   0  0  0  0  0  0  0  0  0  0  0  0
  -26.6299  -24.5528   19.5893 C   0  0  0  0  0  0  0  0  0  1  0  0
  -25.6507   -8.2648   17.8822 C   0  0  0  0  0  0  0  0  0  0  0  0
  -26.1884  -22.2413   18.9056 C   0  0  0  0  0  0  0  0  0  0  0  0
  -25.8019  -31.7995   22.0397 C   0  0  0  0  0  0  0  0  0  0  0  0
  -22.7520  -30.8525   22.6086 C   0  0  0  0  0  0  0  0  0  0  0  0
  -20.4233  -28.3603   22.4950 C   0  0  0  0  0  0  0  0  0  0  0  0
  -28.3995  -16.0164   19.1276 C   0  0  0  0  0  0  0  0  0  0  0  0
  -25.7647  -36.0274   24.9000 C   0  0  0  0  0  0  0  0  0  0  0  0
  -25.1628  -30.7982   19.8160 C   0  0  0  0  0  0  0  0  0  0  0  0
  -24.4162  -29.0345   22.0692 C   0  0  0  0  0  0  0  0  0  0  0  0
  -25.2939  -34.5860   25.0760 C   0  0  0  0  0  0  0  0  0  0  0  0
  -30.4597  -13.2225   19.9193 C   0  0  0  0  0  0  0  0  0  0  0  0
  -26.3968  -33.6115   24.6751 C   0  0  0  0  0  0  0  0  0  0  0  0
  -29.4991  -12.0330   19.8518 C   0  0  0  0  0  0  0  0  0  0  0  0
  -29.7825  -14.4665   20.4915 C   0  0  0  0  0  0  0  0  0  0  0  0
  -27.5713  -13.6646   19.7590 C   0  0  0  0  0  0  0  0  0  0  0  0
  -26.7697  -33.7781   23.1970 C   0  0  1  0  0  0  0  0  0  0  0  0
  -24.6753  -31.3598   21.1481 C   0  0  1  0  0  0  0  0  0  0  0  0
  -28.1901  -12.4061   19.1288 C   0  0  2  0  0  0  0  0  0  0  0  0
  -18.0279  -27.8751   23.0644 C   0  0  0  0  0  0  0  0  0  0  0  0
  -23.4962  -30.6563   25.5611 C   0  0  0  0  0  0  0  0  0  0  0  0
  -21.4264  -29.2943   25.9206 C   0  0  0  0  0  0  0  0  0  0  0  0
  -21.2441  -31.6487   25.1166 C   0  0  0  0  0  0  0  0  0  0  0  0
  -19.7499  -27.7748   19.6731 C   0  0  0  0  0  0  0  0  0  0  0  0
  -22.0960  -29.8637   23.5419 C   0  0  1  0  0  0  0  0  0  0  0  0
  -18.9934  -28.3402   21.9854 C   0  0  2  0  0  0  0  0  0  0  0  0
  -22.0853  -30.3576   25.0161 C   0  0  0  0  0  0  0  0  0  0  0  0
  -26.3043  -11.1356   20.0834 N   0  0  0  0  0  0  0  0  0  0  0  0
  -27.2133  -11.2454   19.0996 N   0  0  0  0  0  0  0  0  0  0  0  0
  -23.8788  -30.3959   21.9102 N   0  0  0  0  0  0  0  0  0  0  0  0
  -28.5518  -14.7615   19.7545 N   0  0  0  0  0  0  0  0  0  0  0  0
  -27.9737  -10.2152   17.1068 N   0  0  0  0  0  0  0  0  0  0  0  0
  -24.5786   -7.5468   18.4294 N   0  0  0  0  0  0  0  0  0  0  0  0
  -26.7612  -20.9822   19.0264 N   0  0  0  0  0  0  0  0  0  0  0  0
  -27.2024  -16.1704   18.4291 N   0  0  0  0  0  0  0  0  0  0  0  0
  -25.7800  -33.1455   22.3516 N   0  0  0  0  0  0  0  0  0  0  0  0
  -20.7715  -29.5990   22.9907 N   0  0  0  0  0  0  0  0  0  0  0  0
  -18.8723  -27.4213   20.8184 N   0  3  0  0  0  0  0  0  0  0  0  0
  -26.1922   -7.8518   16.8288 O   0  0  0  0  0  0  0  0  0  0  0  0
  -25.1494  -22.5418   18.3296 O   0  0  0  0  0  0  0  0  0  0  0  0
  -26.6289  -30.9781   22.4180 O   0  0  0  0  0  0  0  0  0  0  0  0
  -22.2777  -31.9858   22.4977 O   0  0  0  0  0  0  0  0  0  0  0  0
  -21.1566  -27.3746   22.4604 O   0  0  0  0  0  0  0  0  0  0  0  0
  -29.2789  -16.8799   19.1819 O   0  0  0  0  0  0  0  0  0  0  0  0
  -21.4192   -8.2407   22.9650 O   0  0  0  0  0  0  0  0  0  0  0  0
  -27.3161  -25.5717   20.1884 O   0  0  0  0  0  0  0  0  0  1  0  0
  -21.1957   -2.8556   24.1288 F   0  0  0  0  0  0  0  0  0  0  0  0
  -24.8166  -16.2041   16.9880 F   0  0  0  0  0  0  0  0  0  0  0  0
  -21.1975   -6.3620   20.9491 F   0  0  0  0  0  0  0  0  0  0  0  0
  1  2  1  0  0  0  0
  1  5  2  0  0  0  0
  2  6  2  0  0  0  0
  3  9  2  0  0  0  0
  3 18  1  0  0  0  0
  4 10  1  0  0  0  0
  4 18  2  0  0  0  0
  5 20  1  0  0  0  0
  6 22  1  0  0  0  0
  7 11  2  0  0  0  0
  7 21  1  0  0  0  0
  8 13  2  0  0  0  0
  8 24  1  0  0  0  0
  9 26  1  0  0  0  0
 10 26  2  0  0  0  0
 11 27  1  0  0  0  0
 12 14  2  0  0  0  0
 12 28  1  0  0  0  0
 13 30  1  0  0  0  0
 14 29  1  0  0  0  0
 15 23  1  0  0  0  0
 15 27  2  0  0  0  0
 16 24  2  0  0  0  0
 16 25  1  0  0  0  0
 17 29  2  0  0  0  0
 17 31  1  0  0  0  0
 18 32  1  0  0  0  0
 19 32  1  0  0  0  0
 19 33  2  0  0  0  0
 19 36  1  0  0  0  0
 20 22  2  0  0  0  0
 20 42  1  0  0  0  0
 21 23  2  0  0  0  0
 21 43  1  0  0  0  0
 22 51  1  0  0  0  0
 23 44  1  0  0  0  0
 24 68  1  0  0  0  0
 25 30  2  0  0  0  0
 25 69  1  0  0  0  0
 26 79  1  0  0  0  0
 27 80  1  0  0  0  0
 28 31  2  0  0  0  0
 28 79  1  0  0  0  0
 29 81  1  0  0  0  0
 30 82  1  0  0  0  0
 31 83  1  0  0  0  0
 32 62  2  0  0  0  0
 33 63  1  0  0  0  0
 33 66  1  0  0  0  0
 34 35  2  0  0  0  0
 34 37  1  0  0  0  0
 35 80  1  0  0  0  0
 36 67  1  0  0  0  0
 36 73  2  0  0  0  0
 37 68  1  0  0  0  0
 37 74  2  0  0  0  0
 38 52  1  0  0  0  0
 38 70  1  0  0  0  0
 38 75  2  0  0  0  0
 39 59  1  0  0  0  0
 39 64  1  0  0  0  0
 39 76  2  0  0  0  0
 40 60  1  0  0  0  0
 40 71  1  0  0  0  0
 40 77  2  0  0  0  0
 41 65  1  0  0  0  0
 41 69  1  0  0  0  0
 41 78  2  0  0  0  0
 42 45  1  0  0  0  0
 43 52  1  0  0  0  0
 44 64  1  0  0  0  0
 45 47  1  0  0  0  0
 46 48  1  0  0  0  0
 46 49  1  0  0  0  0
 47 51  1  0  0  0  0
 48 53  1  0  0  0  0
 49 65  1  0  0  0  0
 50 53  1  0  0  0  0
 50 65  1  0  0  0  0
 51 70  1  0  0  0  0
 52 64  1  0  0  0  0
 53 63  1  0  0  0  0
 54 60  1  0  0  0  0
 55 61  1  0  0  0  0
 56 61  1  0  0  0  0
 57 61  1  0  0  0  0
 58 72  1  0  0  0  0
 59 61  1  0  0  0  0
 59 71  1  0  0  0  0
 60 72  1  0  0  0  0
 62 63  1  0  0  0  0
M  CHG  1  72   1
M  ISO  4  35 101  41 100  69 100  80 101
M  END
> <Batch ID>
0063

> <Smiles>
CNC(C)C(=O)NC(C(=O)N1Cc2cc([101O:1][101CH:1]=CC(=O)Nc3ccc(F)c([100NH:0][100C:0](=O)N4CCCC(n5nc(-c6ccc(Oc7ccc(F)cc7F)cc6)c(C(N)=O)c5N)C4)c3)ccc2CC1C(=O)NC1CCCc2ccccc21)C(C)(C)C

> <Shape>
0.298

> <Color>
0.105

> <Negative vol penalty>
0.000

$$$$

  -OEChem-04042323123D

 87 96  0     1  0  0  0  0  0999 V2000
  -19.1380  -24.4750   23.2887 C   0  0  0  0  0  0  0  0  0  0  0  0
  -20.3351  -24.6022   22.5914 C   0  0  0  0  0  0  0  0  0  0  0  0
  -24.9672  -20.9307   17.9934 C   0  0  0  0  0  0  0  0  0  0  0  0
  -24.9284   -8.3939   21.6729 C   0  0  0  0  0  0  0  0  0  0  0  0
  -23.4040  -10.2592   21.4895 C   0  0  0  0  0  0  0  0  0  0  0  0
  -24.7736  -19.8106   18.8018 C   0  0  0  0  0  0  0  0  0  0  0  0
  -18.3456  -25.5983   23.5217 C   0  0  0  0  0  0  0  0  0  0  0  0
  -20.7400  -25.8527   22.1258 C   0  0  0  0  0  0  0  0  0  0  0  0
  -25.6394  -26.7668   23.0234 C   0  0  0  0  0  0  0  0  0  0  0  0
  -25.9691  -21.8502   18.3040 C   0  0  0  0  0  0  0  0  0  0  0  0
  -23.8509   -7.5091   21.6314 C   0  0  0  0  0  0  0  0  0  0  0  0
  -22.3264   -9.3744   21.4480 C   0  0  0  0  0  0  0  0  0  0  0  0
  -26.5658  -26.1596   22.1768 C   0  0  0  0  0  0  0  0  0  0  0  0
  -21.4859   -6.3637   23.7573 C   0  0  0  0  0  0  0  0  0  0  0  0
  -21.4745   -5.3140   24.6758 C   0  0  0  0  0  0  0  0  0  0  0  0
  -26.7867  -28.2237   20.9480 C   0  0  0  0  0  0  0  0  0  0  0  0
  -21.4636   -3.7231   22.8575 C   0  0  0  0  0  0  0  0  0  0  0  0
  -24.7050   -9.7689   21.6020 C   0  0  0  0  0  0  0  0  0  0  0  0
  -25.5818  -19.6101   19.9209 C   0  0  0  0  0  0  0  0  0  0  0  0
  -26.7588  -10.8286   22.6821 C   0  0  0  0  0  0  0  0  0  0  0  0
  -18.7457  -26.8647   23.0672 C   0  0  0  0  0  0  0  0  0  0  0  0
  -25.2708  -28.1061   22.8316 C   0  0  0  0  0  0  0  0  0  0  0  0
  -19.9516  -26.9937   22.3519 C   0  0  0  0  0  0  0  0  0  0  0  0
  -25.8572  -28.8463   21.7951 C   0  0  0  0  0  0  0  0  0  0  0  0
  -26.5836  -20.5296   20.2315 C   0  0  0  0  0  0  0  0  0  0  0  0
  -26.7773  -21.6496   19.4230 C   0  0  0  0  0  0  0  0  0  0  0  0
  -22.5499   -7.9994   21.5190 C   0  0  0  0  0  0  0  0  0  0  0  0
  -27.1375  -26.8872   21.1371 C   0  0  0  0  0  0  0  0  0  0  0  0
  -21.4861   -6.0931   22.3889 C   0  0  0  0  0  0  0  0  0  0  0  0
  -21.4634   -3.9937   24.2259 C   0  0  0  0  0  0  0  0  0  0  0  0
  -21.4749   -4.7728   21.9390 C   0  0  0  0  0  0  0  0  0  0  0  0
  -25.8176  -10.6834   21.6453 C   0  0  0  0  0  0  0  0  0  0  0  0
  -27.6032  -11.8189   22.2431 C   0  0  0  0  0  0  0  0  0  0  0  0
  -29.1634  -22.2338   19.7743 C   0  0  0  0  0  0  0  0  0  0  0  0
  -26.8607  -10.1306   23.9303 C   0  0  0  0  0  0  0  0  0  0  0  0
  -25.3535  -18.4188   20.7531 C   0  0  0  0  0  0  0  0  0  0  0  0
  -22.5534  -29.6100   22.1551 C   0  0  0  0  0  0  0  0  0  0  0  0
  -24.3572  -32.2634   22.6325 C   0  0  0  0  0  0  0  0  0  0  0  0
  -27.4573  -33.6897   22.6779 C   0  0  0  0  0  0  0  0  0  0  0  0
  -26.9823  -16.9848   19.4082 C   0  0  0  0  0  0  0  0  0  0  0  0
  -17.8328  -28.0421   23.3020 C   0  0  0  0  0  0  0  0  0  0  0  0
  -24.2900  -28.7541   23.7699 C   0  0  0  0  0  0  0  0  0  0  0  0
  -25.5106  -30.2929   21.5592 C   0  0  0  0  0  0  0  0  0  0  0  0
  -30.1245  -23.2283   20.4001 C   0  0  0  0  0  0  0  0  0  0  0  0
  -18.5161  -29.3923   23.1012 C   0  0  0  0  0  0  0  0  0  0  0  0
  -29.7837  -24.6745   20.1269 C   0  0  0  0  0  0  0  0  0  0  0  0
  -28.1088  -13.9950   17.6973 C   0  0  0  0  0  0  0  0  0  0  0  0
  -19.3261  -29.3936   21.8086 C   0  0  0  0  0  0  0  0  0  0  0  0
  -27.4988  -12.9299   18.6143 C   0  0  0  0  0  0  0  0  0  0  0  0
  -28.4945  -15.2827   18.4208 C   0  0  0  0  0  0  0  0  0  0  0  0
  -27.1402  -14.6495   20.4187 C   0  0  0  0  0  0  0  0  0  0  0  0
  -27.4161  -24.0343   19.7735 C   0  0  0  0  0  0  0  0  0  0  0  0
  -20.4369  -28.3373   21.8525 C   0  0  1  0  0  0  0  0  0  0  0  0
  -23.6030  -29.9752   23.1663 C   0  0  1  0  0  0  0  0  0  0  0  0
  -27.7095  -13.2559   20.0998 C   0  0  1  0  0  0  0  0  0  0  0  0
  -28.3576  -24.9326   20.5621 C   0  0  2  0  0  0  0  0  0  1  0  0
  -27.4502  -20.3133   21.4331 C   0  0  0  0  0  0  0  0  0  0  0  0
  -28.6104  -35.8845   23.0658 C   0  0  0  0  0  0  0  0  0  0  0  0
  -23.4453  -33.2254   19.8843 C   0  0  0  0  0  0  0  0  0  0  0  0
  -25.3159  -34.8891   19.9230 C   0  0  0  0  0  0  0  0  0  0  0  0
  -23.5121  -35.0027   21.6424 C   0  0  0  0  0  0  0  0  0  0  0  0
  -29.0017  -32.6073   24.9588 C   0  0  0  0  0  0  0  0  0  0  0  0
  -25.2194  -33.1416   21.7582 C   0  0  1  0  0  0  0  0  0  0  0  0
  -28.1400  -34.5835   23.6974 C   0  0  2  0  0  0  0  0  0  0  0  0
  -24.3785  -34.0369   20.8050 C   0  0  0  0  0  0  0  0  0  0  0  0
  -26.0425  -11.5150   20.6246 N   0  0  0  0  0  0  0  0  0  0  0  0
  -27.1345  -12.1924   21.0179 N   0  0  0  0  0  0  0  0  0  0  0  0
  -27.8110  -22.6166   19.7256 N   0  0  0  0  0  0  0  0  0  0  0  0
  -24.5417  -30.8799   22.4996 N   0  0  0  0  0  0  0  0  0  0  0  0
  -27.5003  -15.6699   19.4207 N   0  0  0  0  0  0  0  0  0  0  0  0
  -28.6934  -12.3980   22.7894 N   0  0  0  0  0  0  0  0  0  0  0  0
  -26.1905  -10.6533   25.0448 N   0  0  0  0  0  0  0  0  0  0  0  0
  -26.0488  -17.2466   20.4379 N   0  0  0  0  0  0  0  0  0  0  0  0
  -21.5474  -28.8047   22.6542 N   0  0  0  0  0  0  0  0  0  0  0  0
  -26.0924  -33.8846   22.6606 N   0  0  0  0  0  0  0  0  0  0  0  0
  -29.3223  -33.8913   24.2838 N   0  3  0  0  0  0  0  0  0  0  0  0
  -29.6137  -21.1451   19.4070 O   0  0  0  0  0  0  0  0  0  0  0  0
  -27.5397   -9.0836   24.0577 O   0  0  0  0  0  0  0  0  0  0  0  0
  -22.6483  -30.0290   21.0075 O   0  0  0  0  0  0  0  0  0  0  0  0
  -23.5547  -32.7859   23.4101 O   0  0  0  0  0  0  0  0  0  0  0  0
  -28.0736  -32.9003   21.9654 O   0  0  0  0  0  0  0  0  0  0  0  0
  -27.3328  -17.8327   18.5840 O   0  0  0  0  0  0  0  0  0  0  0  0
  -21.4982   -7.1363   21.4783 O   0  0  0  0  0  0  0  0  0  0  0  0
  -28.0416  -26.2968   20.3089 O   0  0  0  0  0  0  0  0  0  1  0  0
  -21.4540   -2.9858   25.1080 F   0  0  0  0  0  0  0  0  0  0  0  0
  -21.4762   -4.5067   20.6256 F   0  0  0  0  0  0  0  0  0  0  0  0
  -24.2669  -18.4385   22.0348 S   0  0  0  0  0  0  0  0  0  0  0  0
  1  2  1  0  0  0  0
  1  7  2  0  0  0  0
  2  8  2  0  0  0  0
  3  6  1  0  0  0  0
  3 10  2  0  0  0  0
  4 11  2  0  0  0  0
  4 18  1  0  0  0  0
  5 12  1  0  0  0  0
  5 18  2  0  0  0  0
  6 19  2  0  0  0  0
  7 21  1  0  0  0  0
  8 23  1  0  0  0  0
  9 13  2  0  0  0  0
  9 22  1  0  0  0  0
 10 26  1  0  0  0  0
 11 27  1  0  0  0  0
 12 27  2  0  0  0  0
 13 28  1  0  0  0  0
 14 15  2  0  0  0  0
 14 29  1  0  0  0  0
 15 30  1  0  0  0  0
 16 24  1  0  0  0  0
 16 28  2  0  0  0  0
 17 30  2  0  0  0  0
 17 31  1  0  0  0  0
 18 32  1  0  0  0  0
 19 25  1  0  0  0  0
 19 36  1  0  0  0  0
 20 32  1  0  0  0  0
 20 33  2  0  0  0  0
 20 35  1  0  0  0  0
 21 23  2  0  0  0  0
 21 41  1  0  0  0  0
 22 24  2  0  0  0  0
 22 42  1  0  0  0  0
 23 53  1  0  0  0  0
 24 43  1  0  0  0  0
 25 26  2  0  0  0  0
 25 57  1  0  0  0  0
 26 68  1  0  0  0  0
 27 83  1  0  0  0  0
 28 84  1  0  0  0  0
 29 31  2  0  0  0  0
 29 83  1  0  0  0  0
 30 85  1  0  0  0  0
 31 86  1  0  0  0  0
 32 66  2  0  0  0  0
 33 67  1  0  0  0  0
 33 71  1  0  0  0  0
 34 44  1  0  0  0  0
 34 68  1  0  0  0  0
 34 77  2  0  0  0  0
 35 72  1  0  0  0  0
 35 78  2  0  0  0  0
 36 73  1  0  0  0  0
 36 87  2  0  0  0  0
 37 54  1  0  0  0  0
 37 74  1  0  0  0  0
 37 79  2  0  0  0  0
 38 63  1  0  0  0  0
 38 69  1  0  0  0  0
 38 80  2  0  0  0  0
 39 64  1  0  0  0  0
 39 75  1  0  0  0  0
 39 81  2  0  0  0  0
 40 70  1  0  0  0  0
 40 73  1  0  0  0  0
 40 82  2  0  0  0  0
 41 45  1  0  0  0  0
 42 54  1  0  0  0  0
 43 69  1  0  0  0  0
 44 46  1  0  0  0  0
 45 48  1  0  0  0  0
 46 56  1  0  0  0  0
 47 49  1  0  0  0  0
 47 50  1  0  0  0  0
 48 53  1  0  0  0  0
 49 55  1  0  0  0  0
 50 70  1  0  0  0  0
 51 55  1  0  0  0  0
 51 70  1  0  0  0  0
 52 56  1  0  0  0  0
 52 68  1  0  0  0  0
 53 74  1  0  0  0  0
 54 69  1  0  0  0  0
 55 67  1  0  0  0  0
 56 84  1  0  0  0  0
 58 64  1  0  0  0  0
 59 65  1  0  0  0  0
 60 65  1  0  0  0  0
 61 65  1  0  0  0  0
 62 76  1  0  0  0  0
 63 65  1  0  0  0  0
 63 75  1  0  0  0  0
 64 76  1  0  0  0  0
 66 67  1  0  0  0  0
M  CHG  1  76   1
M  ISO  4  40 100  56 101  73 100  84 101
M  END
> <Batch ID>
0063

> <Smiles>
CNC(C)C(=O)NC(C(=O)N1Cc2cc([101O:1][101CH:1]3CCC(=O)N(c4cccc(C(=S)[100NH:0][100C:0](=O)N5CCCC(n6nc(-c7ccc(Oc8ccc(F)cc8F)cc7)c(C(N)=O)c6N)C5)c4C)C3)ccc2CC1C(=O)NC1CCCc2ccccc21)C(C)(C)C

> <Shape>
0.290

> <Color>
0.132

> <Negative vol penalty>
0.000

$$$$

  -OEChem-04042323123D

 82 90  0     1  0  0  0  0  0999 V2000
  -17.1062  -30.2538   22.5694 C   0  0  0  0  0  0  0  0  0  0  0  0
  -18.3735  -29.7273   22.3407 C   0  0  0  0  0  0  0  0  0  0  0  0
  -32.6474  -18.2978   21.8081 C   0  0  0  0  0  0  0  0  0  0  0  0
  -23.0696   -9.9124   21.4599 C   0  0  0  0  0  0  0  0  0  0  0  0
  -23.8459  -10.7726   23.5800 C   0  0  0  0  0  0  0  0  0  0  0  0
  -16.4125  -29.9181   23.7312 C   0  0  0  0  0  0  0  0  0  0  0  0
  -18.9482  -28.8658   23.2744 C   0  0  0  0  0  0  0  0  0  0  0  0
  -22.6124  -24.0971   22.1167 C   0  0  0  0  0  0  0  0  0  0  0  0
  -31.8524  -19.3801   22.1850 C   0  0  0  0  0  0  0  0  0  0  0  0
  -32.0556  -17.1404   21.3021 C   0  0  0  0  0  0  0  0  0  0  0  0
  -22.3309   -8.9352   22.1269 C   0  0  0  0  0  0  0  0  0  0  0  0
  -23.1072   -9.7953   24.2470 C   0  0  0  0  0  0  0  0  0  0  0  0
  -23.9982  -23.9486   22.1527 C   0  0  0  0  0  0  0  0  0  0  0  0
  -22.9150   -5.9635   23.6276 C   0  0  0  0  0  0  0  0  0  0  0  0
  -22.9781   -4.6585   23.1392 C   0  0  0  0  0  0  0  0  0  0  0  0
  -23.8380  -23.0508   24.3859 C   0  0  0  0  0  0  0  0  0  0  0  0
  -29.8737  -18.1477   21.5500 C   0  0  0  0  0  0  0  0  0  0  0  0
  -20.5906   -4.6814   22.7695 C   0  0  0  0  0  0  0  0  0  0  0  0
  -23.8272  -10.8311   22.1865 C   0  0  0  0  0  0  0  0  0  0  0  0
  -24.1608  -13.1302   21.1325 C   0  0  0  0  0  0  0  0  0  0  0  0
  -16.9750  -29.0444   24.6750 C   0  0  0  0  0  0  0  0  0  0  0  0
  -21.8287  -23.7331   23.2211 C   0  0  0  0  0  0  0  0  0  0  0  0
  -18.2619  -28.5192   24.4506 C   0  0  0  0  0  0  0  0  0  0  0  0
  -22.4422  -23.1933   24.3605 C   0  0  0  0  0  0  0  0  0  0  0  0
  -30.4655  -19.3051   22.0560 C   0  0  0  0  0  0  0  0  0  0  0  0
  -30.6687  -17.0654   21.1731 C   0  0  0  0  0  0  0  0  0  0  0  0
  -22.3497   -8.8766   23.5204 C   0  0  0  0  0  0  0  0  0  0  0  0
  -24.6115  -23.4281   23.2885 C   0  0  0  0  0  0  0  0  0  0  0  0
  -21.6897   -6.6274   23.6871 C   0  0  0  0  0  0  0  0  0  0  0  0
  -21.8160   -4.0174   22.7101 C   0  0  0  0  0  0  0  0  0  0  0  0
  -20.5275   -5.9864   23.2580 C   0  0  0  0  0  0  0  0  0  0  0  0
  -24.5909  -11.8405   21.4981 C   0  0  0  0  0  0  0  0  0  0  0  0
  -25.2481  -13.6906   20.5080 C   0  0  0  0  0  0  0  0  0  0  0  0
  -27.8037  -21.8214   22.8732 C   0  0  0  0  0  0  0  0  0  0  0  0
  -26.4965  -22.1013   22.8922 C   0  0  0  0  0  0  0  0  0  1  0  0
  -22.8919  -13.7648   21.3392 C   0  0  0  0  0  0  0  0  0  0  0  0
  -28.2746  -20.4957   22.3764 C   0  0  0  0  0  0  0  0  0  0  0  0
  -19.8811  -25.2831   25.1981 C   0  0  0  0  0  0  0  0  0  0  0  0
  -19.2839  -22.3002   26.3242 C   0  0  0  0  0  0  0  0  0  0  0  0
  -20.3490  -19.0804   26.7059 C   0  0  0  0  0  0  0  0  0  0  0  0
  -30.7124  -14.7263   20.2387 C   0  0  0  0  0  0  0  0  0  0  0  0
  -16.2065  -28.7481   25.9385 C   0  0  0  0  0  0  0  0  0  0  0  0
  -20.3326  -23.8747   23.1564 C   0  0  0  0  0  0  0  0  0  0  0  0
  -21.6440  -22.7683   25.5650 C   0  0  0  0  0  0  0  0  0  0  0  0
  -16.7305  -27.5329   26.6993 C   0  0  0  0  0  0  0  0  0  0  0  0
  -29.5881  -11.6044   18.9477 C   0  0  0  0  0  0  0  0  0  0  0  0
  -18.2506  -27.5888   26.8128 C   0  0  0  0  0  0  0  0  0  0  0  0
  -28.1524  -11.4936   19.4661 C   0  0  0  0  0  0  0  0  0  0  0  0
  -30.5111  -12.2640   19.9708 C   0  0  0  0  0  0  0  0  0  0  0  0
  -28.6120  -13.4505   20.9978 C   0  0  0  0  0  0  0  0  0  0  0  0
  -18.9086  -27.5617   25.4280 C   0  0  1  0  0  0  0  0  0  0  0  0
  -19.6795  -23.9509   24.5330 C   0  0  1  0  0  0  0  0  0  0  0  0
  -27.6313  -12.8513   19.9767 C   0  0  2  0  0  0  0  0  0  0  0  0
  -19.6599  -16.8826   27.7020 C   0  0  0  0  0  0  0  0  0  0  0  0
  -19.9720  -23.3481   29.1060 C   0  0  0  0  0  0  0  0  0  0  0  0
  -20.1957  -20.9740   29.8688 C   0  0  0  0  0  0  0  0  0  0  0  0
  -18.0011  -21.8106   29.0284 C   0  0  0  0  0  0  0  0  0  0  0  0
  -20.3871  -17.7405   24.0673 C   0  0  0  0  0  0  0  0  0  0  0  0
  -19.8877  -21.4196   27.3914 C   0  0  1  0  0  0  0  0  0  0  0  0
  -19.6552  -17.7536   26.4554 C   0  0  2  0  0  0  0  0  0  0  0  0
  -19.5296  -21.8978   28.8269 C   0  0  0  0  0  0  0  0  0  0  0  0
  -25.8530  -11.5959   21.1357 N   0  0  0  0  0  0  0  0  0  0  0  0
  -26.2253  -12.7395   20.5360 N   0  0  0  0  0  0  0  0  0  0  0  0
  -20.1850  -22.9323   25.4556 N   0  0  0  0  0  0  0  0  0  0  0  0
  -29.9554  -13.5474   20.4057 N   0  0  0  0  0  0  0  0  0  0  0  0
  -25.4542  -14.8992   19.9430 N   0  0  0  0  0  0  0  0  0  0  0  0
  -21.8850  -13.0465   21.9984 N   0  0  0  0  0  0  0  0  0  0  0  0
  -29.6588  -20.4049   22.4385 N   0  0  0  0  0  0  0  0  0  0  0  0
  -30.0682  -15.8895   20.6590 N   0  0  0  0  0  0  0  0  0  0  0  0
  -18.9084  -26.2164   24.8945 N   0  0  0  0  0  0  0  0  0  0  0  0
  -19.4565  -20.0588   27.0900 N   0  0  0  0  0  0  0  0  0  0  0  0
  -20.3395  -17.0100   25.3600 N   0  3  0  0  0  0  0  0  0  0  0  0
  -22.6524  -14.9283   20.9362 O   0  0  0  0  0  0  0  0  0  0  0  0
  -27.4831  -19.6478   21.9811 O   0  0  0  0  0  0  0  0  0  0  0  0
  -20.8468  -25.4513   25.9335 O   0  0  0  0  0  0  0  0  0  0  0  0
  -18.0577  -22.4171   26.2590 O   0  0  0  0  0  0  0  0  0  0  0  0
  -21.5618  -19.2327   26.5775 O   0  0  0  0  0  0  0  0  0  0  0  0
  -31.8376  -14.7089   19.7332 O   0  0  0  0  0  0  0  0  0  0  0  0
  -21.6288   -7.9233   24.1716 O   0  0  0  0  0  0  0  0  0  0  0  0
  -25.9640  -23.2826   23.3264 O   0  0  0  0  0  0  0  0  0  1  0  0
  -21.8769   -2.7648   22.2396 F   0  0  0  0  0  0  0  0  0  0  0  0
  -19.3477   -6.6195   23.3116 F   0  0  0  0  0  0  0  0  0  0  0  0
  1  2  1  0  0  0  0
  1  6  2  0  0  0  0
  2  7  2  0  0  0  0
  3  9  2  0  0  0  0
  3 10  1  0  0  0  0
  4 11  2  0  0  0  0
  4 19  1  0  0  0  0
  5 12  1  0  0  0  0
  5 19  2  0  0  0  0
  6 21  1  0  0  0  0
  7 23  1  0  0  0  0
  8 13  2  0  0  0  0
  8 22  1  0  0  0  0
  9 25  1  0  0  0  0
 10 26  2  0  0  0  0
 11 27  1  0  0  0  0
 12 27  2  0  0  0  0
 13 28  1  0  0  0  0
 14 15  2  0  0  0  0
 14 29  1  0  0  0  0
 15 30  1  0  0  0  0
 16 24  1  0  0  0  0
 16 28  2  0  0  0  0
 17 25  2  0  0  0  0
 17 26  1  0  0  0  0
 18 30  2  0  0  0  0
 18 31  1  0  0  0  0
 19 32  1  0  0  0  0
 20 32  1  0  0  0  0
 20 33  2  0  0  0  0
 20 36  1  0  0  0  0
 21 23  2  0  0  0  0
 21 42  1  0  0  0  0
 22 24  2  0  0  0  0
 22 43  1  0  0  0  0
 23 51  1  0  0  0  0
 24 44  1  0  0  0  0
 25 68  1  0  0  0  0
 26 69  1  0  0  0  0
 27 79  1  0  0  0  0
 28 80  1  0  0  0  0
 29 31  2  0  0  0  0
 29 79  1  0  0  0  0
 30 81  1  0  0  0  0
 31 82  1  0  0  0  0
 32 62  2  0  0  0  0
 33 63  1  0  0  0  0
 33 66  1  0  0  0  0
 34 35  2  0  0  0  0
 34 37  1  0  0  0  0
 35 80  1  0  0  0  0
 36 67  1  0  0  0  0
 36 73  2  0  0  0  0
 37 68  1  0  0  0  0
 37 74  2  0  0  0  0
 38 52  1  0  0  0  0
 38 70  1  0  0  0  0
 38 75  2  0  0  0  0
 39 59  1  0  0  0  0
 39 64  1  0  0  0  0
 39 76  2  0  0  0  0
 40 60  1  0  0  0  0
 40 71  1  0  0  0  0
 40 77  2  0  0  0  0
 41 65  1  0  0  0  0
 41 69  1  0  0  0  0
 41 78  2  0  0  0  0
 42 45  1  0  0  0  0
 43 52  1  0  0  0  0
 44 64  1  0  0  0  0
 45 47  1  0  0  0  0
 46 48  1  0  0  0  0
 46 49  1  0  0  0  0
 47 51  1  0  0  0  0
 48 53  1  0  0  0  0
 49 65  1  0  0  0  0
 50 53  1  0  0  0  0
 50 65  1  0  0  0  0
 51 70  1  0  0  0  0
 52 64  1  0  0  0  0
 53 63  1  0  0  0  0
 54 60  1  0  0  0  0
 55 61  1  0  0  0  0
 56 61  1  0  0  0  0
 57 61  1  0  0  0  0
 58 72  1  0  0  0  0
 59 61  1  0  0  0  0
 59 71  1  0  0  0  0
 60 72  1  0  0  0  0
 62 63  1  0  0  0  0
M  CHG  1  72   1
M  ISO  4  35 101  41 100  69 100  80 101
M  END
> <Batch ID>
0063

> <Smiles>
CNC(C)C(=O)NC(C(=O)N1Cc2cc([101O:1][101CH:1]=CC(=O)Nc3cccc([100NH:0][100C:0](=O)N4CCCC(n5nc(-c6ccc(Oc7ccc(F)cc7F)cc6)c(C(N)=O)c5N)C4)c3)ccc2CC1C(=O)NC1CCCc2ccccc21)C(C)(C)C

> <Shape>
0.193

> <Color>
0.175

> <Negative vol penalty>
0.000

$$$$

  -OEChem-04042323123D

 89 98  0     1  0  0  0  0  0999 V2000
  -18.9375  -24.4741   22.7527 C   0  0  0  0  0  0  0  0  0  0  0  0
  -20.1668  -24.6110   22.1160 C   0  0  0  0  0  0  0  0  0  0  0  0
  -29.0422  -13.6626   18.4425 C   0  0  0  0  0  0  0  0  0  0  0  0
  -29.2971  -13.5002   20.8395 C   0  0  0  0  0  0  0  0  0  0  0  0
  -18.1783  -25.6050   23.0506 C   0  0  0  0  0  0  0  0  0  0  0  0
  -20.6372  -25.8788   21.7757 C   0  0  0  0  0  0  0  0  0  0  0  0
  -25.5250  -26.5142   22.9379 C   0  0  0  0  0  0  0  0  0  0  0  0
  -29.1315  -12.2745   18.3389 C   0  0  0  0  0  0  0  0  0  0  0  0
  -29.3865  -12.1121   20.7359 C   0  0  0  0  0  0  0  0  0  0  0  0
  -26.4631  -25.9435   22.0789 C   0  0  0  0  0  0  0  0  0  0  0  0
  -29.6532   -8.7982   17.4077 C   0  0  0  0  0  0  0  0  0  0  0  0
  -30.4679   -8.2723   16.4051 C   0  0  0  0  0  0  0  0  0  0  0  0
  -26.8120  -28.0933   21.0416 C   0  0  0  0  0  0  0  0  0  0  0  0
  -25.4652  -25.4528   17.4418 C   0  0  0  0  0  0  0  0  0  0  0  0
  -24.8350  -23.9684   19.2407 C   0  0  0  0  0  0  0  0  0  0  0  0
  -26.3530  -23.2073   17.5221 C   0  0  0  0  0  0  0  0  0  0  0  0
  -32.3775   -9.3976   17.3665 C   0  0  0  0  0  0  0  0  0  0  0  0
  -29.1250  -14.2755   19.6928 C   0  0  0  0  0  0  0  0  0  0  0  0
  -29.8845  -16.6624   19.2094 C   0  0  0  0  0  0  0  0  0  0  0  0
  -18.6440  -26.8880   22.7225 C   0  0  0  0  0  0  0  0  0  0  0  0
  -25.2148  -27.8788   22.8479 C   0  0  0  0  0  0  0  0  0  0  0  0
  -19.8829  -27.0278   22.0683 C   0  0  0  0  0  0  0  0  0  0  0  0
  -25.8715  -28.6794   21.9024 C   0  0  0  0  0  0  0  0  0  0  0  0
  -24.7491  -25.2117   18.6143 C   0  0  0  0  0  0  0  0  0  0  0  0
  -26.2671  -24.4506   16.8956 C   0  0  0  0  0  0  0  0  0  0  0  0
  -25.6370  -22.9661   18.6946 C   0  0  0  0  0  0  0  0  0  0  0  0
  -29.3037  -11.4992   19.4856 C   0  0  0  0  0  0  0  0  0  0  0  0
  -27.1047  -26.7324   21.1286 C   0  0  0  0  0  0  0  0  0  0  0  0
  -30.2006   -9.6239   18.3897 C   0  0  0  0  0  0  0  0  0  0  0  0
  -31.8300   -8.5719   16.3845 C   0  0  0  0  0  0  0  0  0  0  0  0
  -31.5628   -9.9235   18.3691 C   0  0  0  0  0  0  0  0  0  0  0  0
  -29.0333  -15.7094   19.8004 C   0  0  0  0  0  0  0  0  0  0  0  0
  -29.3767  -17.8732   19.6127 C   0  0  0  0  0  0  0  0  0  0  0  0
  -27.9674  -25.7084   15.5797 C   0  0  0  0  0  0  0  0  0  0  0  0
  -27.1001  -24.2692   13.2563 C   0  0  0  0  0  0  0  0  0  0  0  0
  -28.7180  -26.2068   16.5811 C   0  0  0  0  0  0  0  0  0  0  0  0
  -31.0316  -16.4703   18.3710 C   0  0  0  0  0  0  0  0  0  0  0  0
  -28.5532  -25.7169   17.9774 C   0  0  0  0  0  0  0  0  0  0  0  0
  -22.5861  -29.5435   22.1982 C   0  0  0  0  0  0  0  0  0  0  0  0
  -24.4655  -32.0717   22.9716 C   0  0  0  0  0  0  0  0  0  0  0  0
  -27.8687  -33.1057   22.3664 C   0  0  0  0  0  0  0  0  0  0  0  0
  -25.0793  -21.3006   20.5005 C   0  0  0  0  0  0  0  0  0  0  0  0
  -17.7664  -28.0774   23.0221 C   0  0  0  0  0  0  0  0  0  0  0  0
  -24.2201  -28.4846   23.7997 C   0  0  0  0  0  0  0  0  0  0  0  0
  -25.5891  -30.1536   21.7785 C   0  0  0  0  0  0  0  0  0  0  0  0
  -28.1902  -26.2545   14.1854 C   0  0  0  0  0  0  0  0  0  0  0  0
  -28.3260  -25.1372   13.1688 C   0  0  0  0  0  0  0  0  0  0  0  0
  -26.7387  -23.7263   14.6184 C   0  0  0  0  0  0  0  0  0  0  0  0
  -18.5073  -29.4109   22.9647 C   0  0  0  0  0  0  0  0  0  0  0  0
  -25.8636  -18.9801   23.0846 C   0  0  0  0  0  0  0  0  0  0  0  0
  -19.3705  -29.4884   21.7094 C   0  0  0  0  0  0  0  0  0  0  0  0
  -26.8282  -18.0007   22.4119 C   0  0  0  0  0  0  0  0  0  0  0  0
  -24.7694  -19.4469   22.1262 C   0  0  0  0  0  0  0  0  0  0  0  0
  -26.2168  -19.0161   20.1798 C   0  0  0  0  0  0  0  0  0  0  0  0
  -20.4384  -28.3879   21.7054 C   0  0  1  0  0  0  0  0  0  0  0  0
  -23.6050  -29.7792   23.2771 C   0  0  1  0  0  0  0  0  0  0  0  0
  -27.3744  -18.5681   21.0870 C   0  0  2  0  0  0  0  0  0  0  0  0
  -23.8918  -26.2833   19.1981 C   0  0  0  0  0  0  0  0  0  0  0  0
  -29.3858  -34.5894   23.7059 C   0  0  0  0  0  0  0  0  0  0  0  0
  -23.4392  -34.2861   21.1404 C   0  0  0  0  0  0  0  0  0  0  0  0
  -25.7496  -35.2506   21.1275 C   0  0  0  0  0  0  0  0  0  0  0  0
  -24.4789  -35.0901   23.2681 C   0  0  0  0  0  0  0  0  0  0  0  0
  -29.9673  -31.0239   22.5122 C   0  0  0  0  0  0  0  0  0  0  0  0
  -28.1540  -26.7648   18.9946 C   0  0  0  0  0  0  0  0  0  1  0  0
  -25.3958  -32.9848   22.2102 C   0  0  1  0  0  0  0  0  0  0  0  0
  -28.9973  -33.1556   23.3804 C   0  0  2  0  0  0  0  0  0  0  0  0
  -24.7613  -34.3760   21.9283 C   0  0  0  0  0  0  0  0  0  0  0  0
  -28.0589  -16.2668   20.5240 N   0  0  0  0  0  0  0  0  0  0  0  0
  -28.2946  -17.5831   20.3906 N   0  0  0  0  0  0  0  0  0  0  0  0
  -26.9994  -24.6976   15.6961 N   0  0  0  0  0  0  0  0  0  0  0  0
  -24.6040  -30.6980   22.7275 N   0  0  0  0  0  0  0  0  0  0  0  0
  -25.3613  -19.9757   20.8954 N   0  0  0  0  0  0  0  0  0  0  0  0
  -29.7548  -19.1470   19.3742 N   0  0  0  0  0  0  0  0  0  0  0  0
  -31.4159  -15.1602   18.0544 N   0  0  0  0  0  0  0  0  0  0  0  0
  -25.7242  -21.7034   19.3316 N   0  0  0  0  0  0  0  0  0  0  0  0
  -21.5308  -28.7405   22.5868 N   0  0  0  0  0  0  0  0  0  0  0  0
  -26.6350  -33.0378   22.9783 N   0  0  0  0  0  0  0  0  0  0  0  0
  -30.1998  -32.4512   22.8522 N   0  3  0  0  0  0  0  0  0  0  0  0
  -26.4843  -23.9266   12.2470 O   0  0  0  0  0  0  0  0  0  0  0  0
  -31.7057  -17.4315   17.9294 O   0  0  0  0  0  0  0  0  0  0  0  0
  -28.7311  -24.5397   18.2787 O   0  0  0  0  0  0  0  0  0  0  0  0
  -22.7448  -30.0537   21.0954 O   0  0  0  0  0  0  0  0  0  0  0  0
  -23.6509  -32.5589   23.7595 O   0  0  0  0  0  0  0  0  0  0  0  0
  -28.0621  -33.1287   21.1529 O   0  0  0  0  0  0  0  0  0  0  0  0
  -24.3430  -22.0333   21.1660 O   0  0  0  0  0  0  0  0  0  0  0  0
  -29.3907  -10.1446   19.3849 O   0  0  0  0  0  0  0  0  0  0  0  0
  -28.0203  -26.1778   20.2884 O   0  0  0  0  0  0  0  0  0  1  0  0
  -32.6125   -8.0655   15.4225 F   0  0  0  0  0  0  0  0  0  0  0  0
  -32.0947  -10.7152   19.3105 F   0  0  0  0  0  0  0  0  0  0  0  0
  1  2  1  0  0  0  0
  1  5  2  0  0  0  0
  2  6  2  0  0  0  0
  3  8  2  0  0  0  0
  3 18  1  0  0  0  0
  4  9  1  0  0  0  0
  4 18  2  0  0  0  0
  5 20  1  0  0  0  0
  6 22  1  0  0  0  0
  7 10  2  0  0  0  0
  7 21  1  0  0  0  0
  8 27  1  0  0  0  0
  9 27  2  0  0  0  0
 10 28  1  0  0  0  0
 11 12  2  0  0  0  0
 11 29  1  0  0  0  0
 12 30  1  0  0  0  0
 13 23  1  0  0  0  0
 13 28  2  0  0  0  0
 14 24  2  0  0  0  0
 14 25  1  0  0  0  0
 15 24  1  0  0  0  0
 15 26  2  0  0  0  0
 16 25  2  0  0  0  0
 16 26  1  0  0  0  0
 17 30  2  0  0  0  0
 17 31  1  0  0  0  0
 18 32  1  0  0  0  0
 19 32  1  0  0  0  0
 19 33  2  0  0  0  0
 19 37  1  0  0  0  0
 20 22  2  0  0  0  0
 20 43  1  0  0  0  0
 21 23  2  0  0  0  0
 21 44  1  0  0  0  0
 22 55  1  0  0  0  0
 23 45  1  0  0  0  0
 24 58  1  0  0  0  0
 25 70  1  0  0  0  0
 26 75  1  0  0  0  0
 27 86  1  0  0  0  0
 28 87  1  0  0  0  0
 29 31  2  0  0  0  0
 29 86  1  0  0  0  0
 30 88  1  0  0  0  0
 31 89  1  0  0  0  0
 32 68  2  0  0  0  0
 33 69  1  0  0  0  0
 33 73  1  0  0  0  0
 34 36  2  0  0  0  0
 34 46  1  0  0  0  0
 34 70  1  0  0  0  0
 35 47  1  0  0  0  0
 35 48  1  0  0  0  0
 35 79  2  0  0  0  0
 36 38  1  0  0  0  0
 37 74  1  0  0  0  0
 37 80  2  0  0  0  0
 38 64  1  0  0  0  0
 38 81  2  0  0  0  0
 39 56  1  0  0  0  0
 39 76  1  0  0  0  0
 39 82  2  0  0  0  0
 40 65  1  0  0  0  0
 40 71  1  0  0  0  0
 40 83  2  0  0  0  0
 41 66  1  0  0  0  0
 41 77  1  0  0  0  0
 41 84  2  0  0  0  0
 42 72  1  0  0  0  0
 42 75  1  0  0  0  0
 42 85  2  0  0  0  0
 43 49  1  0  0  0  0
 44 56  1  0  0  0  0
 45 71  1  0  0  0  0
 46 47  1  0  0  0  0
 48 70  1  0  0  0  0
 49 51  1  0  0  0  0
 50 52  1  0  0  0  0
 50 53  1  0  0  0  0
 51 55  1  0  0  0  0
 52 57  1  0  0  0  0
 53 72  1  0  0  0  0
 54 57  1  0  0  0  0
 54 72  1  0  0  0  0
 55 76  1  0  0  0  0
 56 71  1  0  0  0  0
 57 69  1  0  0  0  0
 59 66  1  0  0  0  0
 60 67  1  0  0  0  0
 61 67  1  0  0  0  0
 62 67  1  0  0  0  0
 63 78  1  0  0  0  0
 64 87  1  0  0  0  0
 65 67  1  0  0  0  0
 65 77  1  0  0  0  0
 66 78  1  0  0  0  0
 68 69  1  0  0  0  0
M  CHG  1  78   1
M  ISO  4  42 100  64 101  75 100  87 101
M  END
> <Batch ID>
0063

> <Smiles>
CNC(C)C(=O)NC(C(=O)N1Cc2cc([101O:1][101CH2:1]C(=O)C=C3CCC(=O)CN3c3cc(C)cc([100NH:0][100C:0](=O)N4CCCC(n5nc(-c6ccc(Oc7ccc(F)cc7F)cc6)c(C(N)=O)c5N)C4)c3)ccc2CC1C(=O)NC1CCCc2ccccc21)C(C)(C)C

> <Shape>
0.206

> <Color>
0.076

> <Negative vol penalty>
0.000

$$$$

  -OEChem-04042323123D

 91100  0     1  0  0  0  0  0999 V2000
  -16.6156  -29.9600   23.2474 C   0  0  0  0  0  0  0  0  0  0  0  0
  -17.6727  -30.5219   22.5387 C   0  0  0  0  0  0  0  0  0  0  0  0
  -26.4091  -12.8189   21.8925 C   0  0  0  0  0  0  0  0  0  0  0  0
  -25.3828  -14.3814   20.3621 C   0  0  0  0  0  0  0  0  0  0  0  0
  -16.8625  -28.9676   24.1951 C   0  0  0  0  0  0  0  0  0  0  0  0
  -18.9775  -30.0925   22.7782 C   0  0  0  0  0  0  0  0  0  0  0  0
  -25.2271  -29.0847   19.4249 C   0  0  0  0  0  0  0  0  0  0  0  0
  -28.1249  -24.9969   16.2186 C   0  0  0  0  0  0  0  0  0  0  0  0
  -28.5865  -26.2029   16.7459 C   0  0  0  0  0  0  0  0  0  0  0  0
  -25.2253  -12.0824   21.9345 C   0  0  0  0  0  0  0  0  0  0  0  0
  -24.1990  -13.6449   20.4040 C   0  0  0  0  0  0  0  0  0  0  0  0
  -26.5761  -29.4182   19.5379 C   0  0  0  0  0  0  0  0  0  0  0  0
  -23.6272   -9.8229   19.9918 C   0  0  0  0  0  0  0  0  0  0  0  0
  -23.7230   -8.4353   19.8871 C   0  0  0  0  0  0  0  0  0  0  0  0
  -26.8748  -27.6414   21.1419 C   0  0  0  0  0  0  0  0  0  0  0  0
  -30.0891  -24.9921   18.1996 C   0  0  0  0  0  0  0  0  0  0  0  0
  -22.6844   -8.1999   22.0558 C   0  0  0  0  0  0  0  0  0  0  0  0
  -26.4879  -13.9685   21.1064 C   0  0  0  0  0  0  0  0  0  0  0  0
  -28.7854  -14.5618   20.1700 C   0  0  0  0  0  0  0  0  0  0  0  0
  -18.1700  -28.5190   24.4393 C   0  0  0  0  0  0  0  0  0  0  0  0
  -24.6885  -28.0323   20.1790 C   0  0  0  0  0  0  0  0  0  0  0  0
  -19.2423  -29.0941   23.7309 C   0  0  0  0  0  0  0  0  0  0  0  0
  -25.5192  -27.2949   21.0348 C   0  0  0  0  0  0  0  0  0  0  0  0
  -28.6454  -23.7885   16.6817 C   0  0  0  0  0  0  0  0  0  0  0  0
  -29.5686  -26.2005   17.7364 C   0  0  0  0  0  0  0  0  0  0  0  0
  -24.1203  -12.4953   21.1902 C   0  0  0  0  0  0  0  0  0  0  0  0
  -27.3995  -28.6984   20.3987 C   0  0  0  0  0  0  0  0  0  0  0  0
  -23.0601  -10.3990   21.1286 C   0  0  0  0  0  0  0  0  0  0  0  0
  -23.2516   -7.6238   20.9191 C   0  0  0  0  0  0  0  0  0  0  0  0
  -22.5887   -9.5875   22.1605 C   0  0  0  0  0  0  0  0  0  0  0  0
  -29.6275  -23.7861   17.6722 C   0  0  0  0  0  0  0  0  0  0  0  0
  -27.7103  -14.7300   21.0631 C   0  0  0  0  0  0  0  0  0  0  0  0
  -29.6936  -15.5231   20.5411 C   0  0  0  0  0  0  0  0  0  0  0  0
  -31.7060  -28.9085   19.3499 C   0  0  0  0  0  0  0  0  0  0  0  0
  -30.8060  -29.8522   19.6792 C   0  0  0  0  0  0  0  0  0  0  0  0
  -31.3546  -27.5855   18.7596 C   0  0  0  0  0  0  0  0  0  0  0  0
  -28.9486  -13.6209   19.1006 C   0  0  0  0  0  0  0  0  0  0  0  0
  -22.4412  -27.7952   22.4145 C   0  0  0  0  0  0  0  0  0  0  0  0
  -22.9994  -24.6167   22.0866 C   0  0  0  0  0  0  0  0  0  0  0  0
  -25.1497  -22.1330   21.1621 C   0  0  0  0  0  0  0  0  0  0  0  0
  -30.8915  -20.7550   22.0700 C   0  0  0  0  0  0  0  0  0  0  0  0
  -18.3925  -27.4773   25.5071 C   0  0  0  0  0  0  0  0  0  0  0  0
  -23.2373  -27.6679   20.0257 C   0  0  0  0  0  0  0  0  0  0  0  0
  -24.9945  -26.1430   21.8511 C   0  0  0  0  0  0  0  0  0  0  0  0
  -19.7650  -26.8132   25.4337 C   0  0  0  0  0  0  0  0  0  0  0  0
  -29.8484  -18.5046   24.6244 C   0  0  0  0  0  0  0  0  0  0  0  0
  -20.8572  -27.8630   25.2549 C   0  0  0  0  0  0  0  0  0  0  0  0
  -29.2825  -17.3116   23.8521 C   0  0  0  0  0  0  0  0  0  0  0  0
  -29.5387  -19.8271   23.9263 C   0  0  0  0  0  0  0  0  0  0  0  0
  -29.1863  -28.6326   18.1714 C   0  0  0  0  0  0  0  0  0  0  0  0
  -29.3870  -18.6997   21.7400 C   0  0  0  0  0  0  0  0  0  0  0  0
  -20.6691  -28.6372   23.9447 C   0  0  1  0  0  0  0  0  0  0  0  0
  -29.3496  -29.5837   19.3585 C   0  0  1  0  0  0  0  0  0  1  0  0
  -22.6820  -26.9077   21.2262 C   0  0  1  0  0  0  0  0  0  0  0  0
  -29.7221  -17.3397   22.3759 C   0  0  2  0  0  0  0  0  0  0  0  0
  -28.1298  -22.5150   16.0956 C   0  0  0  0  0  0  0  0  0  0  0  0
  -25.9413  -19.8044   20.6637 C   0  0  0  0  0  0  0  0  0  0  0  0
  -23.4387  -24.5097   25.1041 C   0  0  0  0  0  0  0  0  0  0  0  0
  -24.5281  -22.2767   24.7962 C   0  0  0  0  0  0  0  0  0  0  0  0
  -22.1337  -22.5911   24.1712 C   0  0  0  0  0  0  0  0  0  0  0  0
  -24.2193  -22.2925   18.3571 C   0  0  0  0  0  0  0  0  0  0  0  0
  -32.1974  -21.5587   20.1187 C   0  0  0  0  0  0  0  0  0  0  0  0
  -31.5005  -22.7579   19.5054 C   0  0  0  0  0  0  0  0  0  0  0  0
  -23.9366  -23.6238   22.7307 C   0  0  1  0  0  0  0  0  0  0  0  0
  -24.9535  -20.9010   20.2971 C   0  0  2  0  0  0  0  0  0  0  0  0
  -23.5190  -23.2732   24.1868 C   0  0  0  0  0  0  0  0  0  0  0  0
  -27.9150  -15.7201   21.9359 N   0  0  0  0  0  0  0  0  0  0  0  0
  -31.0937  -21.6639   17.0977 N   0  0  0  0  0  0  0  0  0  0  0  0
  -29.1293  -16.1826   21.5932 N   0  0  0  0  0  0  0  0  0  0  0  0
  -30.0459  -27.4481   18.2807 N   0  0  0  0  0  0  0  0  0  0  0  0
  -23.5673  -25.8294   21.6711 N   0  0  0  0  0  0  0  0  0  0  0  0
  -29.9821  -19.7886   22.5306 N   0  0  0  0  0  0  0  0  0  0  0  0
  -30.9118  -15.8600   20.0670 N   0  0  0  0  0  0  0  0  0  0  0  0
  -27.9183  -12.7029   18.8553 N   0  0  0  0  0  0  0  0  0  0  0  0
  -21.1214  -27.8458   22.8206 N   0  0  0  0  0  0  0  0  0  0  0  0
  -23.9946  -22.4754   21.8328 N   0  0  0  0  0  0  0  0  0  0  0  0
  -31.2647  -20.6425   20.7363 N   0  0  0  0  0  0  0  0  0  0  0  0
  -25.1427  -21.2424   18.8589 N   0  3  0  0  0  0  0  0  0  0  0  0
  -30.9765  -30.9828   20.2143 O   0  5  0  0  0  0  0  0  0  0  0  0
  -32.2486  -26.7410   18.7072 O   0  0  0  0  0  0  0  0  0  0  0  0
  -29.9845  -13.5843   18.3942 O   0  0  0  0  0  0  0  0  0  0  0  0
  -23.3833  -28.3890   22.9259 O   0  0  0  0  0  0  0  0  0  0  0  0
  -21.8089  -24.3241   21.9504 O   0  0  0  0  0  0  0  0  0  0  0  0
  -26.2215  -22.7296   21.2383 O   0  0  0  0  0  0  0  0  0  0  0  0
  -31.3418  -21.6484   22.7952 O   0  0  0  0  0  0  0  0  0  0  0  0
  -29.2530  -21.6057   19.0244 O   0  0  0  0  0  0  0  0  0  0  0  0
  -22.9650  -11.7768   21.2307 O   0  0  0  0  0  0  0  0  0  0  0  0
  -28.7164  -29.0223   20.5113 O   0  0  0  0  0  0  0  0  0  1  0  0
  -23.3423   -6.2912   20.8177 F   0  0  0  0  0  0  0  0  0  0  0  0
  -22.0418  -10.1352   23.2545 F   0  0  0  0  0  0  0  0  0  0  0  0
  -30.3030  -22.2883   18.2750 S   0  0  2  0  0  0  0  0  0  0  0  0
  1  2  1  0  0  0  0
  1  5  2  0  0  0  0
  2  6  2  0  0  0  0
  3 10  2  0  0  0  0
  3 18  1  0  0  0  0
  4 11  1  0  0  0  0
  4 18  2  0  0  0  0
  5 20  1  0  0  0  0
  6 22  1  0  0  0  0
  7 12  2  0  0  0  0
  7 21  1  0  0  0  0
  8  9  2  0  0  0  0
  8 24  1  0  0  0  0
  9 25  1  0  0  0  0
 10 26  1  0  0  0  0
 11 26  2  0  0  0  0
 12 27  1  0  0  0  0
 13 14  2  0  0  0  0
 13 28  1  0  0  0  0
 14 29  1  0  0  0  0
 15 23  1  0  0  0  0
 15 27  2  0  0  0  0
 16 25  2  0  0  0  0
 16 31  1  0  0  0  0
 17 29  2  0  0  0  0
 17 30  1  0  0  0  0
 18 32  1  0  0  0  0
 19 32  1  0  0  0  0
 19 33  2  0  0  0  0
 19 37  1  0  0  0  0
 20 22  2  0  0  0  0
 20 42  1  0  0  0  0
 21 23  2  0  0  0  0
 21 43  1  0  0  0  0
 22 52  1  0  0  0  0
 23 44  1  0  0  0  0
 24 31  2  0  0  0  0
 24 56  1  0  0  0  0
 25 70  1  0  0  0  0
 26 87  1  0  0  0  0
 27 88  1  0  0  0  0
 28 30  2  0  0  0  0
 28 87  1  0  0  0  0
 29 89  1  0  0  0  0
 30 90  1  0  0  0  0
 31 91  1  0  0  0  0
 32 67  2  0  0  0  0
 33 69  1  0  0  0  0
 33 73  1  0  0  0  0
 34 35  2  0  0  0  0
 34 36  1  0  0  0  0
 35 53  1  0  0  0  0
 35 79  1  0  0  0  0
 36 70  1  0  0  0  0
 36 80  2  0  0  0  0
 37 74  1  0  0  0  0
 37 81  2  0  0  0  0
 38 54  1  0  0  0  0
 38 75  1  0  0  0  0
 38 82  2  0  0  0  0
 39 64  1  0  0  0  0
 39 71  1  0  0  0  0
 39 83  2  0  0  0  0
 40 65  1  0  0  0  0
 40 76  1  0  0  0  0
 40 84  2  0  0  0  0
 41 72  1  0  0  0  0
 41 77  1  0  0  0  0
 41 85  2  0  0  0  0
 42 45  1  0  0  0  0
 43 54  1  0  0  0  0
 44 71  1  0  0  0  0
 45 47  1  0  0  0  0
 46 48  1  0  0  0  0
 46 49  1  0  0  0  0
 47 52  1  0  0  0  0
 48 55  1  0  0  0  0
 49 72  1  0  0  0  0
 50 53  1  0  0  0  0
 50 70  1  0  0  0  0
 51 55  1  0  0  0  0
 51 72  1  0  0  0  0
 52 75  1  0  0  0  0
 53 88  1  0  0  0  0
 54 71  1  0  0  0  0
 55 69  1  0  0  0  0
 57 65  1  0  0  0  0
 58 66  1  0  0  0  0
 59 66  1  0  0  0  0
 60 66  1  0  0  0  0
 61 78  1  0  0  0  0
 62 63  1  0  0  0  0
 62 77  1  0  0  0  0
 63 91  1  0  0  0  0
 64 66  1  0  0  0  0
 64 76  1  0  0  0  0
 65 78  1  0  0  0  0
 67 69  1  0  0  0  0
 68 91  2  0  0  0  0
 86 91  2  0  0  0  0
M  CHG  2  78   1  79  -1
M  ISO  4  41 100  53 101  77 100  88 101
M  END
> <Batch ID>
0063

> <Smiles>
CNC(C)C(=O)NC(C(=O)N1Cc2cc([101O:1][101CH:1]3CN(c4ccc(C)c(S(=N)(=O)CC[100NH:0][100C:0](=O)N5CCCC(n6nc(-c7ccc(Oc8ccc(F)cc8F)cc7)c(C(N)=O)c6N)C5)c4)C(=O)CC3=O)ccc2CC1C(=O)NC1CCCc2ccccc21)C(C)(C)C

> <Shape>
0.242

> <Color>
0.088

> <Negative vol penalty>
0.000

$$$$

  -OEChem-04042323123D

 84 92  0     1  0  0  0  0  0999 V2000
  -27.0209  -37.4468   17.9693 C   0  0  0  0  0  0  0  0  0  0  0  0
  -27.2618  -36.1112   17.6634 C   0  0  0  0  0  0  0  0  0  0  0  0
  -23.9145  -10.9091   23.2540 C   0  0  0  0  0  0  0  0  0  0  0  0
  -22.6214  -12.7245   22.3218 C   0  0  0  0  0  0  0  0  0  0  0  0
  -26.8778  -37.8413   19.2988 C   0  0  0  0  0  0  0  0  0  0  0  0
  -27.3609  -35.1695   18.6870 C   0  0  0  0  0  0  0  0  0  0  0  0
  -25.5333  -29.3272   18.5043 C   0  0  0  0  0  0  0  0  0  0  0  0
  -26.1873  -19.3350   19.1990 C   0  0  0  0  0  0  0  0  0  0  0  0
  -22.9493  -10.7303   24.2449 C   0  0  0  0  0  0  0  0  0  0  0  0
  -21.6560  -12.5456   23.3126 C   0  0  0  0  0  0  0  0  0  0  0  0
  -26.2212  -28.1359   18.2777 C   0  0  0  0  0  0  0  0  0  0  0  0
  -19.8997   -9.2963   24.5216 C   0  0  0  0  0  0  0  0  0  0  0  0
  -19.4940   -7.9918   24.8035 C   0  0  0  0  0  0  0  0  0  0  0  0
  -25.8385  -20.6843   19.1419 C   0  0  0  0  0  0  0  0  0  0  0  0
  -26.4252  -27.8077   20.6589 C   0  0  0  0  0  0  0  0  0  0  0  0
  -28.3528  -19.9324   20.0882 C   0  0  0  0  0  0  0  0  0  0  0  0
  -20.2413   -8.2528   27.0862 C   0  0  0  0  0  0  0  0  0  0  0  0
  -23.7506  -11.9063   22.2925 C   0  0  0  0  0  0  0  0  0  0  0  0
  -24.7930  -11.4750   20.0045 C   0  0  0  0  0  0  0  0  0  0  0  0
  -26.9655  -36.9024   20.3387 C   0  0  0  0  0  0  0  0  0  0  0  0
  -25.2954  -29.7740   19.8121 C   0  0  0  0  0  0  0  0  0  0  0  0
  -27.2201  -35.5521   20.0318 C   0  0  0  0  0  0  0  0  0  0  0  0
  -25.7318  -29.0038   20.8994 C   0  0  0  0  0  0  0  0  0  0  0  0
  -27.4445  -18.9590   19.6722 C   0  0  0  0  0  0  0  0  0  0  0  0
  -21.8200  -11.5485   24.2742 C   0  0  0  0  0  0  0  0  0  0  0  0
  -26.6698  -27.3774   19.3550 C   0  0  0  0  0  0  0  0  0  0  0  0
  -20.4762  -10.0790   25.5220 C   0  0  0  0  0  0  0  0  0  0  0  0
  -28.0040  -21.2818   20.0310 C   0  0  0  0  0  0  0  0  0  0  0  0
  -19.6648   -7.4701   26.0858 C   0  0  0  0  0  0  0  0  0  0  0  0
  -20.6470   -9.5572   26.8043 C   0  0  0  0  0  0  0  0  0  0  0  0
  -26.7468  -21.6577   19.5579 C   0  0  0  0  0  0  0  0  0  0  0  0
  -24.7477  -12.0919   21.2690 C   0  0  0  0  0  0  0  0  0  0  0  0
  -25.9261  -11.9811   19.4159 C   0  0  0  0  0  0  0  0  0  0  0  0
  -23.8913  -10.5291   19.4145 C   0  0  0  0  0  0  0  0  0  0  0  0
  -26.1341  -32.3373   21.4942 C   0  0  0  0  0  0  0  0  0  0  0  0
  -24.1415  -31.0543   23.7092 C   0  0  0  0  0  0  0  0  0  0  0  0
  -22.6026  -28.2763   24.9586 C   0  0  0  0  0  0  0  0  0  0  0  0
  -29.0052  -17.0458   20.1725 C   0  0  0  0  0  0  0  0  0  0  0  0
  -26.8511  -37.3842   21.7633 C   0  0  0  0  0  0  0  0  0  0  0  0
  -24.5285  -31.0477   20.0399 C   0  0  0  0  0  0  0  0  0  0  0  0
  -25.4841  -29.4292   22.3228 C   0  0  0  0  0  0  0  0  0  0  0  0
  -26.5969  -36.2625   22.7671 C   0  0  0  0  0  0  0  0  0  0  0  0
  -30.2507  -13.7268   20.5041 C   0  0  0  0  0  0  0  0  0  0  0  0
  -27.5386  -35.0908   22.5080 C   0  0  0  0  0  0  0  0  0  0  0  0
  -28.9849  -12.8741   20.6167 C   0  0  0  0  0  0  0  0  0  0  0  0
  -30.0946  -15.0703   21.2144 C   0  0  0  0  0  0  0  0  0  0  0  0
  -27.6486  -14.9962   20.9301 C   0  0  0  0  0  0  0  0  0  0  0  0
  -27.3095  -34.4969   21.1129 C   0  0  1  0  0  0  0  0  0  0  0  0
  -24.7920  -31.6671   21.4090 C   0  0  1  0  0  0  0  0  0  0  0  0
  -27.7349  -13.6600   20.1746 C   0  0  2  0  0  0  0  0  0  0  0  0
  -21.0642  -27.5357   26.7977 C   0  0  0  0  0  0  0  0  0  0  0  0
  -26.4401  -31.2479   25.7065 C   0  0  0  0  0  0  0  0  0  0  0  0
  -25.1912  -29.6652   27.1910 C   0  0  0  0  0  0  0  0  0  0  0  0
  -24.2030  -31.8847   26.6255 C   0  0  0  0  0  0  0  0  0  0  0  0
  -20.5638  -27.3339   23.0314 C   0  0  0  0  0  0  0  0  0  0  0  0
  -30.1663  -21.7375   20.9101 C   0  0  0  0  0  0  0  0  0  0  0  0
  -27.0178  -25.4898   17.9508 C   0  0  0  0  0  0  0  0  0  1  0  0
  -27.2811  -24.0143   18.1741 C   0  0  0  0  0  0  0  0  0  0  0  0
  -24.2992  -30.0832   24.8542 C   0  0  1  0  0  0  0  0  0  0  0  0
  -21.1613  -28.0171   25.3584 C   0  0  2  0  0  0  0  0  0  0  0  0
  -25.0399  -30.7129   26.0676 C   0  0  0  0  0  0  0  0  0  0  0  0
  -25.7709  -12.9260   21.4728 N   0  0  0  0  0  0  0  0  0  0  0  0
  -26.4697  -12.8367   20.3283 N   0  0  0  0  0  0  0  0  0  0  0  0
  -24.7354  -30.6852   22.4939 N   0  0  0  0  0  0  0  0  0  0  0  0
  -28.8920  -15.7599   20.7419 N   0  0  0  0  0  0  0  0  0  0  0  0
  -26.5006  -11.7731   18.2121 N   0  0  0  0  0  0  0  0  0  0  0  0
  -22.7769  -10.1156   20.1570 N   0  0  0  0  0  0  0  0  0  0  0  0
  -27.7993  -17.5884   19.7296 N   0  0  0  0  0  0  0  0  0  0  0  0
  -26.1263  -33.6636   21.1064 N   0  0  0  0  0  0  0  0  0  0  0  0
  -22.9599  -29.5926   25.1607 N   0  0  0  0  0  0  0  0  0  0  0  0
  -20.5569  -26.9807   24.4744 N   0  3  0  0  0  0  0  0  0  0  0  0
  -24.0775  -10.0520   18.2694 O   0  0  0  0  0  0  0  0  0  0  0  0
  -27.1046  -31.6989   21.8844 O   0  0  0  0  0  0  0  0  0  0  0  0
  -23.5085  -32.0984   23.8845 O   0  0  0  0  0  0  0  0  0  0  0  0
  -23.3391  -27.3980   24.5151 O   0  0  0  0  0  0  0  0  0  0  0  0
  -30.0955  -17.6119   20.0595 O   0  0  0  0  0  0  0  0  0  0  0  0
  -24.8901  -23.4003   19.0576 O   0  0  0  0  0  0  0  0  0  0  0  0
  -26.6920  -23.9987   20.7131 O   0  0  0  0  0  0  0  0  0  0  0  0
  -20.8777  -11.3741   25.2408 O   0  0  0  0  0  0  0  0  0  0  0  0
  -28.9069  -22.2158   20.4422 O   0  0  0  0  0  0  0  0  0  0  0  0
  -27.3420  -26.2145   19.1366 O   0  0  0  0  0  0  0  0  0  1  0  0
  -19.2738   -6.2179   26.3568 F   0  0  0  0  0  0  0  0  0  0  0  0
  -21.1992  -10.3048   27.7698 F   0  0  0  0  0  0  0  0  0  0  0  0
  -26.2804  -23.3608   19.4750 S   0  0  0  0  0  0  0  0  0  0  0  0
  1  2  1  0  0  0  0
  1  5  2  0  0  0  0
  2  6  2  0  0  0  0
  3  9  2  0  0  0  0
  3 18  1  0  0  0  0
  4 10  1  0  0  0  0
  4 18  2  0  0  0  0
  5 20  1  0  0  0  0
  6 22  1  0  0  0  0
  7 11  2  0  0  0  0
  7 21  1  0  0  0  0
  8 14  2  0  0  0  0
  8 24  1  0  0  0  0
  9 25  1  0  0  0  0
 10 25  2  0  0  0  0
 11 26  1  0  0  0  0
 12 13  2  0  0  0  0
 12 27  1  0  0  0  0
 13 29  1  0  0  0  0
 14 31  1  0  0  0  0
 15 23  1  0  0  0  0
 15 26  2  0  0  0  0
 16 24  2  0  0  0  0
 16 28  1  0  0  0  0
 17 29  2  0  0  0  0
 17 30  1  0  0  0  0
 18 32  1  0  0  0  0
 19 32  1  0  0  0  0
 19 33  2  0  0  0  0
 19 34  1  0  0  0  0
 20 22  2  0  0  0  0
 20 39  1  0  0  0  0
 21 23  2  0  0  0  0
 21 40  1  0  0  0  0
 22 48  1  0  0  0  0
 23 41  1  0  0  0  0
 24 68  1  0  0  0  0
 25 79  1  0  0  0  0
 26 81  1  0  0  0  0
 27 30  2  0  0  0  0
 27 79  1  0  0  0  0
 28 31  2  0  0  0  0
 28 80  1  0  0  0  0
 29 82  1  0  0  0  0
 30 83  1  0  0  0  0
 31 84  1  0  0  0  0
 32 62  2  0  0  0  0
 33 63  1  0  0  0  0
 33 66  1  0  0  0  0
 34 67  1  0  0  0  0
 34 72  2  0  0  0  0
 35 49  1  0  0  0  0
 35 69  1  0  0  0  0
 35 73  2  0  0  0  0
 36 59  1  0  0  0  0
 36 64  1  0  0  0  0
 36 74  2  0  0  0  0
 37 60  1  0  0  0  0
 37 70  1  0  0  0  0
 37 75  2  0  0  0  0
 38 65  1  0  0  0  0
 38 68  1  0  0  0  0
 38 76  2  0  0  0  0
 39 42  1  0  0  0  0
 40 49  1  0  0  0  0
 41 64  1  0  0  0  0
 42 44  1  0  0  0  0
 43 45  1  0  0  0  0
 43 46  1  0  0  0  0
 44 48  1  0  0  0  0
 45 50  1  0  0  0  0
 46 65  1  0  0  0  0
 47 50  1  0  0  0  0
 47 65  1  0  0  0  0
 48 69  1  0  0  0  0
 49 64  1  0  0  0  0
 50 63  1  0  0  0  0
 51 60  1  0  0  0  0
 52 61  1  0  0  0  0
 53 61  1  0  0  0  0
 54 61  1  0  0  0  0
 55 71  1  0  0  0  0
 56 80  1  0  0  0  0
 57 58  1  0  0  0  0
 57 81  1  0  0  0  0
 58 84  1  0  0  0  0
 59 61  1  0  0  0  0
 59 70  1  0  0  0  0
 60 71  1  0  0  0  0
 62 63  1  0  0  0  0
 77 84  2  0  0  0  0
 78 84  2  0  0  0  0
M  CHG  1  71   1
M  ISO  4  38 100  57 101  68 100  81 101
M  END
> <Batch ID>
0063

> <Smiles>
CNC(C)C(=O)NC(C(=O)N1Cc2cc([101O:1][101CH2:1]CS(=O)(=O)c3ccc([100NH:0][100C:0](=O)N4CCCC(n5nc(-c6ccc(Oc7ccc(F)cc7F)cc6)c(C(N)=O)c5N)C4)cc3OC)ccc2CC1C(=O)NC1CCCc2ccccc21)C(C)(C)C

> <Shape>
0.247

> <Color>
0.087

> <Negative vol penalty>
0.000

$$$$

  -OEChem-04042323123D

 85 93  0     1  0  0  0  0  0999 V2000
  -17.7922  -33.2202   22.3692 C   0  0  0  0  0  0  0  0  0  0  0  0
  -19.0271  -33.3262   21.7374 C   0  0  0  0  0  0  0  0  0  0  0  0
  -24.9892  -12.7272   19.6379 C   0  0  0  0  0  0  0  0  0  0  0  0
  -26.5571  -12.8457   21.4722 C   0  0  0  0  0  0  0  0  0  0  0  0
  -17.6073  -32.2807   23.3827 C   0  0  0  0  0  0  0  0  0  0  0  0
  -20.0783  -32.4935   22.1195 C   0  0  0  0  0  0  0  0  0  0  0  0
  -25.8033  -29.1352   19.4246 C   0  0  0  0  0  0  0  0  0  0  0  0
  -32.8802  -21.9019   22.0437 C   0  0  0  0  0  0  0  0  0  0  0  0
  -32.8144  -23.2691   21.7752 C   0  0  0  0  0  0  0  0  0  0  0  0
  -24.8248  -11.3611   19.8667 C   0  0  0  0  0  0  0  0  0  0  0  0
  -26.3926  -11.4796   21.7010 C   0  0  0  0  0  0  0  0  0  0  0  0
  -27.1718  -28.9912   19.6484 C   0  0  0  0  0  0  0  0  0  0  0  0
  -23.7181   -7.9142   20.1973 C   0  0  0  0  0  0  0  0  0  0  0  0
  -22.4188   -7.4071   20.1892 C   0  0  0  0  0  0  0  0  0  0  0  0
  -26.7137  -27.3513   21.3573 C   0  0  0  0  0  0  0  0  0  0  0  0
  -30.8418  -22.9096   20.4274 C   0  0  0  0  0  0  0  0  0  0  0  0
  -21.8346   -8.8744   22.0176 C   0  0  0  0  0  0  0  0  0  0  0  0
  -25.8555  -13.4695   20.4406 C   0  0  0  0  0  0  0  0  0  0  0  0
  -25.2835  -15.9334   20.7714 C   0  0  0  0  0  0  0  0  0  0  0  0
  -18.6540  -31.4295   23.7709 C   0  0  0  0  0  0  0  0  0  0  0  0
  -24.8777  -28.3951   20.1743 C   0  0  0  0  0  0  0  0  0  0  0  0
  -19.9077  -31.5427   23.1401 C   0  0  0  0  0  0  0  0  0  0  0  0
  -25.3340  -27.4859   21.1393 C   0  0  0  0  0  0  0  0  0  0  0  0
  -31.9268  -21.0385   21.5039 C   0  0  0  0  0  0  0  0  0  0  0  0
  -30.9076  -21.5424   20.6958 C   0  0  0  0  0  0  0  0  0  0  0  0
  -31.7952  -23.7730   20.9671 C   0  0  0  0  0  0  0  0  0  0  0  0
  -25.5264  -10.7373   20.8983 C   0  0  0  0  0  0  0  0  0  0  0  0
  -27.6271  -28.1013   20.6169 C   0  0  0  0  0  0  0  0  0  0  0  0
  -24.0758   -8.9014   21.1157 C   0  0  0  0  0  0  0  0  0  0  0  0
  -21.4770   -7.8872   21.0992 C   0  0  0  0  0  0  0  0  0  0  0  0
  -23.1341   -9.3815   22.0257 C   0  0  0  0  0  0  0  0  0  0  0  0
  -26.0262  -14.8806   20.2043 C   0  0  0  0  0  0  0  0  0  0  0  0
  -25.8317  -17.0706   20.2304 C   0  0  0  0  0  0  0  0  0  0  0  0
  -24.1953  -15.8876   21.7039 C   0  0  0  0  0  0  0  0  0  0  0  0
  -22.5352  -29.1225   22.1961 C   0  0  0  0  0  0  0  0  0  0  0  0
  -30.3565  -20.0376   18.8117 C   0  0  0  0  0  0  0  0  0  0  0  0
  -21.9676  -25.9309   22.0761 C   0  0  0  0  0  0  0  0  0  0  0  0
  -30.7854  -25.8277   19.9173 C   0  0  0  0  0  0  0  0  0  0  0  0
  -23.1729  -22.7943   21.4800 C   0  0  0  0  0  0  0  0  0  0  0  0
  -18.4205  -30.4619   24.9039 C   0  0  0  0  0  0  0  0  0  0  0  0
  -23.4057  -28.5423   19.9023 C   0  0  0  0  0  0  0  0  0  0  0  0
  -24.3821  -26.6530   21.9570 C   0  0  0  0  0  0  0  0  0  0  0  0
  -19.4752  -29.3619   24.9926 C   0  0  0  0  0  0  0  0  0  0  0  0
  -29.1027  -17.6726   16.4296 C   0  0  0  0  0  0  0  0  0  0  0  0
  -20.8755  -29.9537   24.8675 C   0  0  0  0  0  0  0  0  0  0  0  0
  -28.1529  -16.8032   17.2526 C   0  0  0  0  0  0  0  0  0  0  0  0
  -30.3068  -18.1184   17.2534 C   0  0  0  0  0  0  0  0  0  0  0  0
  -28.9982  -17.9543   19.3468 C   0  0  0  0  0  0  0  0  0  0  0  0
  -21.0650  -30.6403   23.5096 C   0  0  1  0  0  0  0  0  0  0  0  0
  -22.5348  -28.1163   21.0802 C   0  0  1  0  0  0  0  0  0  0  0  0
  -27.7526  -17.5076   18.5611 C   0  0  2  0  0  0  0  0  0  0  0  0
  -32.0183  -19.5785   21.8048 C   0  0  0  0  0  0  0  0  0  0  0  0
  -22.4825  -20.3817   21.5010 C   0  0  0  0  0  0  0  0  0  0  0  0
  -22.1237  -25.9153   25.1233 C   0  0  0  0  0  0  0  0  0  0  0  0
  -22.3816  -23.4268   25.0279 C   0  0  0  0  0  0  0  0  0  0  0  0
  -20.3002  -24.4973   24.1649 C   0  0  0  0  0  0  0  0  0  0  0  0
  -23.7283  -22.4899   18.5890 C   0  0  0  0  0  0  0  0  0  0  0  0
  -31.0805  -27.3231   19.8883 C   0  0  0  0  0  0  0  0  0  0  0  0
  -28.5093  -21.3000   19.8536 C   0  0  0  0  0  0  0  0  0  0  0  0
  -29.8312  -28.1757   19.7266 C   0  0  0  0  0  0  0  0  0  1  0  0
  -29.8748  -20.6373   20.1088 C   0  0  2  0  0  0  0  0  0  0  0  0
  -22.4491  -24.7295   22.8531 C   0  0  1  0  0  0  0  0  0  0  0  0
  -22.6205  -21.6418   20.6608 C   0  0  2  0  0  0  0  0  0  0  0  0
  -21.8318  -24.6592   24.2784 C   0  0  0  0  0  0  0  0  0  0  0  0
  -26.9739  -15.3106   19.3671 N   0  0  0  0  0  0  0  0  0  0  0  0
  -26.8303  -16.6463   19.4041 N   0  0  0  0  0  0  0  0  0  0  0  0
  -22.9523  -26.8373   21.6583 N   0  0  0  0  0  0  0  0  0  0  0  0
  -29.8848  -18.7627   18.4984 N   0  0  0  0  0  0  0  0  0  0  0  0
  -25.5520  -18.3822   20.3857 N   0  0  0  0  0  0  0  0  0  0  0  0
  -23.7571  -14.6362   22.1583 N   0  0  0  0  0  0  0  0  0  0  0  0
  -31.7269  -25.1603   20.6961 N   0  0  0  0  0  0  0  0  0  0  0  0
  -21.2911  -29.6563   22.4728 N   0  0  0  0  0  0  0  0  0  0  0  0
  -22.1657  -23.5650   22.0211 N   0  0  0  0  0  0  0  0  0  0  0  0
  -27.9607  -21.8282   21.1282 N   0  3  0  0  0  0  0  0  0  0  0  0
  -23.5218  -21.3442   19.5119 N   0  3  0  0  0  0  0  0  0  0  0  0
  -23.6176  -16.9247   22.1092 O   0  0  0  0  0  0  0  0  0  0  0  0
  -23.5863  -29.3933   22.7650 O   0  0  0  0  0  0  0  0  0  0  0  0
  -31.1267  -20.6857   18.0983 O   0  0  0  0  0  0  0  0  0  0  0  0
  -20.7630  -26.0568   21.8423 O   0  0  0  0  0  0  0  0  0  0  0  0
  -29.8348  -25.3382   19.3165 O   0  0  0  0  0  0  0  0  0  0  0  0
  -24.3773  -22.9890   21.6283 O   0  0  0  0  0  0  0  0  0  0  0  0
  -25.3660   -9.4044   21.1220 O   0  0  0  0  0  0  0  0  0  0  0  0
  -28.9624  -27.9592   20.8378 O   0  0  0  0  0  0  0  0  0  1  0  0
  -20.2288   -7.4013   21.0903 F   0  0  0  0  0  0  0  0  0  0  0  0
  -23.4715  -10.3306   22.9095 F   0  0  0  0  0  0  0  0  0  0  0  0
  1  2  1  0  0  0  0
  1  5  2  0  0  0  0
  2  6  2  0  0  0  0
  3 10  2  0  0  0  0
  3 18  1  0  0  0  0
  4 11  1  0  0  0  0
  4 18  2  0  0  0  0
  5 20  1  0  0  0  0
  6 22  1  0  0  0  0
  7 12  2  0  0  0  0
  7 21  1  0  0  0  0
  8  9  2  0  0  0  0
  8 24  1  0  0  0  0
  9 26  1  0  0  0  0
 10 27  1  0  0  0  0
 11 27  2  0  0  0  0
 12 28  1  0  0  0  0
 13 14  2  0  0  0  0
 13 29  1  0  0  0  0
 14 30  1  0  0  0  0
 15 23  1  0  0  0  0
 15 28  2  0  0  0  0
 16 25  1  0  0  0  0
 16 26  2  0  0  0  0
 17 30  2  0  0  0  0
 17 31  1  0  0  0  0
 18 32  1  0  0  0  0
 19 32  1  0  0  0  0
 19 33  2  0  0  0  0
 19 34  1  0  0  0  0
 20 22  2  0  0  0  0
 20 40  1  0  0  0  0
 21 23  2  0  0  0  0
 21 41  1  0  0  0  0
 22 49  1  0  0  0  0
 23 42  1  0  0  0  0
 24 25  2  0  0  0  0
 24 52  1  0  0  0  0
 25 61  1  0  0  0  0
 26 71  1  0  0  0  0
 27 82  1  0  0  0  0
 28 83  1  0  0  0  0
 29 31  2  0  0  0  0
 29 82  1  0  0  0  0
 30 84  1  0  0  0  0
 31 85  1  0  0  0  0
 32 65  2  0  0  0  0
 33 66  1  0  0  0  0
 33 69  1  0  0  0  0
 34 70  1  0  0  0  0
 34 76  2  0  0  0  0
 35 50  1  0  0  0  0
 35 72  1  0  0  0  0
 35 77  2  0  0  0  0
 36 61  1  0  0  0  0
 36 68  1  0  0  0  0
 36 78  2  0  0  0  0
 37 62  1  0  0  0  0
 37 67  1  0  0  0  0
 37 79  2  0  0  0  0
 38 58  1  0  0  0  0
 38 71  1  0  0  0  0
 38 80  2  0  0  0  0
 39 63  1  0  0  0  0
 39 73  1  0  0  0  0
 39 81  2  0  0  0  0
 40 43  1  0  0  0  0
 41 50  1  0  0  0  0
 42 67  1  0  0  0  0
 43 45  1  0  0  0  0
 44 46  1  0  0  0  0
 44 47  1  0  0  0  0
 45 49  1  0  0  0  0
 46 51  1  0  0  0  0
 47 68  1  0  0  0  0
 48 51  1  0  0  0  0
 48 68  1  0  0  0  0
 49 72  1  0  0  0  0
 50 67  1  0  0  0  0
 51 66  1  0  0  0  0
 53 63  1  0  0  0  0
 54 64  1  0  0  0  0
 55 64  1  0  0  0  0
 56 64  1  0  0  0  0
 57 75  1  0  0  0  0
 58 60  1  0  0  0  0
 59 61  1  0  0  0  0
 59 74  1  0  0  0  0
 60 83  1  0  0  0  0
 62 64  1  0  0  0  0
 62 73  1  0  0  0  0
 63 75  1  0  0  0  0
 65 66  1  0  0  0  0
M  CHG  2  74   1  75   1
M  ISO  4  36 100  60 101  61 100  83 101
M  END
> <Batch ID>
0063

> <Smiles>
CNC(C)C(=O)NC(C(=O)N1Cc2cc([101O:1][101CH2:1]CC(=O)Nc3ccc(C)c([100CH:0](CN)[100C:0](=O)N4CCCC(n5nc(-c6ccc(Oc7ccc(F)cc7F)cc6)c(C(N)=O)c5N)C4)c3)ccc2CC1C(=O)NC1CCCc2ccccc21)C(C)(C)C

> <Shape>
0.228

> <Color>
0.073

> <Negative vol penalty>
0.000

$$$$

  -OEChem-04042323123D

 84 92  0     1  0  0  0  0  0999 V2000
  -23.4746  -30.7146   20.3121 C   0  0  0  0  0  0  0  0  0  0  0  0
  -23.6647  -29.3432   20.4482 C   0  0  0  0  0  0  0  0  0  0  0  0
  -23.0397   -9.8681   20.1058 C   0  0  0  0  0  0  0  0  0  0  0  0
  -23.7373  -10.0648   22.4105 C   0  0  0  0  0  0  0  0  0  0  0  0
  -32.7257  -17.5361   23.1953 C   0  0  0  0  0  0  0  0  0  0  0  0
  -24.2177  -31.6009   21.0906 C   0  0  0  0  0  0  0  0  0  0  0  0
  -24.5990  -28.8573   21.3622 C   0  0  0  0  0  0  0  0  0  0  0  0
  -24.1867  -23.7188   24.6685 C   0  0  0  0  0  0  0  0  0  0  0  0
  -32.1378  -16.5888   22.3572 C   0  0  0  0  0  0  0  0  0  0  0  0
  -22.2575   -8.7617   20.4369 C   0  0  0  0  0  0  0  0  0  0  0  0
  -22.9550   -8.9585   22.7417 C   0  0  0  0  0  0  0  0  0  0  0  0
  -24.7224  -22.4439   24.4913 C   0  0  0  0  0  0  0  0  0  0  0  0
  -19.6908   -8.3010   23.3186 C   0  0  0  0  0  0  0  0  0  0  0  0
  -18.9016   -8.3871   24.4655 C   0  0  0  0  0  0  0  0  0  0  0  0
  -26.5567  -23.0186   25.9488 C   0  0  0  0  0  0  0  0  0  0  0  0
  -29.9636  -17.5430   22.8036 C   0  0  0  0  0  0  0  0  0  0  0  0
  -20.0682   -6.4940   25.4103 C   0  0  0  0  0  0  0  0  0  0  0  0
  -23.7797  -10.5196   21.0925 C   0  0  0  0  0  0  0  0  0  0  0  0
  -31.9325  -18.4869   23.8377 C   0  0  0  0  0  0  0  0  0  0  0  0
  -24.1950  -13.0138   20.7548 C   0  0  0  0  0  0  0  0  0  0  0  0
  -25.1546  -31.1254   22.0216 C   0  0  0  0  0  0  0  0  0  0  0  0
  -24.8388  -24.6584   25.4799 C   0  0  0  0  0  0  0  0  0  0  0  0
  -25.3563  -29.7381   22.1530 C   0  0  0  0  0  0  0  0  0  0  0  0
  -26.0259  -24.3039   26.1367 C   0  0  0  0  0  0  0  0  0  0  0  0
  -30.7568  -16.5922   22.1613 C   0  0  0  0  0  0  0  0  0  0  0  0
  -30.5515  -18.4904   23.6418 C   0  0  0  0  0  0  0  0  0  0  0  0
  -22.2151   -8.3069   21.7549 C   0  0  0  0  0  0  0  0  0  0  0  0
  -25.9091  -22.0946   25.1292 C   0  0  0  0  0  0  0  0  0  0  0  0
  -20.6685   -7.3113   23.2175 C   0  0  0  0  0  0  0  0  0  0  0  0
  -19.0904   -7.4837   25.5114 C   0  0  0  0  0  0  0  0  0  0  0  0
  -20.8573   -6.4078   24.2633 C   0  0  0  0  0  0  0  0  0  0  0  0
  -24.5884  -11.6621   20.7509 C   0  0  0  0  0  0  0  0  0  0  0  0
  -25.3170  -13.6991   20.3576 C   0  0  0  0  0  0  0  0  0  0  0  0
  -32.5784  -19.4624   24.7071 C   0  0  0  0  0  0  0  0  0  0  0  0
  -22.9285  -13.5977   21.0878 C   0  0  0  0  0  0  0  0  0  0  0  0
  -26.1449  -27.5160   24.9978 C   0  0  0  0  0  0  0  0  0  0  0  0
  -26.4766  -27.4768   28.2244 C   0  0  0  0  0  0  0  0  0  0  0  0
  -28.3457  -19.5721   24.1877 C   0  0  0  0  0  0  0  0  0  0  0  0
  -26.7238  -25.6389   31.0893 C   0  0  0  0  0  0  0  0  0  0  0  0
  -30.8036  -14.6174   20.5978 C   0  0  0  0  0  0  0  0  0  0  0  0
  -25.9682  -32.1232   22.8071 C   0  0  0  0  0  0  0  0  0  0  0  0
  -24.2339  -26.0206   25.6821 C   0  0  0  0  0  0  0  0  0  0  0  0
  -26.7541  -25.2694   27.0345 C   0  0  0  0  0  0  0  0  0  0  0  0
  -26.6701  -31.5171   24.0196 C   0  0  0  0  0  0  0  0  0  0  0  0
  -29.6866  -12.0268   18.4257 C   0  0  0  0  0  0  0  0  0  0  0  0
  -27.3596  -30.2106   23.6394 C   0  0  0  0  0  0  0  0  0  0  0  0
  -28.2283  -11.8122   18.8373 C   0  0  0  0  0  0  0  0  0  0  0  0
  -30.5749  -12.3409   19.6282 C   0  0  0  0  0  0  0  0  0  0  0  0
  -28.6523  -13.2364   20.8816 C   0  0  0  0  0  0  0  0  0  0  0  0
  -26.3427  -29.1718   23.1513 C   0  0  1  0  0  0  0  0  0  0  0  0
  -25.2529  -27.0677   26.1209 C   0  0  1  0  0  0  0  0  0  0  0  0
  -27.7072  -12.9812   19.6961 C   0  0  2  0  0  0  0  0  0  0  0  0
  -33.8615  -19.1074   25.4547 C   0  0  0  0  0  0  0  0  0  0  0  0
  -27.0254  -25.8859   33.5683 C   0  0  0  0  0  0  0  0  0  0  0  0
  -29.4385  -28.0758   27.8018 C   0  0  0  0  0  0  0  0  0  0  0  0
  -29.8464  -27.3766   30.1710 C   0  0  0  0  0  0  0  0  0  0  0  0
  -28.3780  -29.3338   29.6852 C   0  0  0  0  0  0  0  0  0  0  0  0
  -24.1224  -24.3445   31.6519 C   0  0  0  0  0  0  0  0  0  0  0  0
  -27.8540  -20.7290   25.0377 C   0  0  0  0  0  0  0  0  0  1  0  0
  -27.5407  -27.0015   29.1840 C   0  0  1  0  0  0  0  0  0  0  0  0
  -26.0238  -25.7649   32.4305 C   0  0  2  0  0  0  0  0  0  0  0  0
  -28.7884  -27.9292   29.1921 C   0  0  0  0  0  0  0  0  0  0  0  0
  -25.8609  -11.4966   20.3804 N   0  0  0  0  0  0  0  0  0  0  0  0
  -32.0788  -20.6610   24.8887 N   0  0  0  0  0  0  0  0  0  0  0  0
  -26.2768  -12.7531   20.1477 N   0  0  0  0  0  0  0  0  0  0  0  0
  -26.1261  -26.5912   27.1954 N   0  0  0  0  0  0  0  0  0  0  0  0
  -30.0215  -13.4613   20.3919 N   0  0  0  0  0  0  0  0  0  0  0  0
  -25.5664  -15.0126   20.1707 N   0  0  0  0  0  0  0  0  0  0  0  0
  -21.8829  -12.7490   21.4760 N   0  0  0  0  0  0  0  0  0  0  0  0
  -29.7272  -19.4450   24.2835 N   0  0  0  0  0  0  0  0  0  0  0  0
  -30.1604  -15.6293   21.3099 N   0  0  0  0  0  0  0  0  0  0  0  0
  -25.6452  -28.5813   24.2734 N   0  0  0  0  0  0  0  0  0  0  0  0
  -26.8886  -26.8658   30.4820 N   0  0  0  0  0  0  0  0  0  0  0  0
  -25.1683  -24.5709   32.6824 N   0  3  0  0  0  0  0  0  0  0  0  0
  -22.7253  -14.8340   21.0267 O   0  0  0  0  0  0  0  0  0  0  0  0
  -27.2084  -26.9390   24.8039 O   0  0  0  0  0  0  0  0  0  0  0  0
  -25.9698  -28.5897   28.3861 O   0  0  0  0  0  0  0  0  0  0  0  0
  -27.5722  -18.8840   23.5298 O   0  0  0  0  0  0  0  0  0  0  0  0
  -27.0912  -24.5604   30.6285 O   0  0  0  0  0  0  0  0  0  0  0  0
  -31.9491  -14.7142   20.1503 O   0  0  0  0  0  0  0  0  0  0  0  0
  -21.4517   -7.2275   22.0784 O   0  0  0  0  0  0  0  0  0  0  0  0
  -26.4345  -20.8511   24.9574 O   0  0  0  0  0  0  0  0  0  1  0  0
  -18.3336   -7.5675   26.6134 F   0  0  0  0  0  0  0  0  0  0  0  0
  -21.7958   -5.4557   24.1724 F   0  0  0  0  0  0  0  0  0  0  0  0
  1  2  1  0  0  0  0
  1  6  2  0  0  0  0
  2  7  2  0  0  0  0
  3 10  2  0  0  0  0
  3 18  1  0  0  0  0
  4 11  1  0  0  0  0
  4 18  2  0  0  0  0
  5  9  2  0  0  0  0
  5 19  1  0  0  0  0
  6 21  1  0  0  0  0
  7 23  1  0  0  0  0
  8 12  2  0  0  0  0
  8 22  1  0  0  0  0
  9 25  1  0  0  0  0
 10 27  1  0  0  0  0
 11 27  2  0  0  0  0
 12 28  1  0  0  0  0
 13 14  2  0  0  0  0
 13 29  1  0  0  0  0
 14 30  1  0  0  0  0
 15 24  1  0  0  0  0
 15 28  2  0  0  0  0
 16 25  2  0  0  0  0
 16 26  1  0  0  0  0
 17 30  2  0  0  0  0
 17 31  1  0  0  0  0
 18 32  1  0  0  0  0
 19 26  2  0  0  0  0
 19 34  1  0  0  0  0
 20 32  1  0  0  0  0
 20 33  2  0  0  0  0
 20 35  1  0  0  0  0
 21 23  2  0  0  0  0
 21 41  1  0  0  0  0
 22 24  2  0  0  0  0
 22 42  1  0  0  0  0
 23 50  1  0  0  0  0
 24 43  1  0  0  0  0
 25 71  1  0  0  0  0
 26 70  1  0  0  0  0
 27 81  1  0  0  0  0
 28 82  1  0  0  0  0
 29 31  2  0  0  0  0
 29 81  1  0  0  0  0
 30 83  1  0  0  0  0
 31 84  1  0  0  0  0
 32 63  2  0  0  0  0
 33 65  1  0  0  0  0
 33 68  1  0  0  0  0
 34 53  1  0  0  0  0
 34 64  2  0  0  0  0
 35 69  1  0  0  0  0
 35 75  2  0  0  0  0
 36 51  1  0  0  0  0
 36 72  1  0  0  0  0
 36 76  2  0  0  0  0
 37 60  1  0  0  0  0
 37 66  1  0  0  0  0
 37 77  2  0  0  0  0
 38 59  1  0  0  0  0
 38 70  1  0  0  0  0
 38 78  2  0  0  0  0
 39 61  1  0  0  0  0
 39 73  1  0  0  0  0
 39 79  2  0  0  0  0
 40 67  1  0  0  0  0
 40 71  1  0  0  0  0
 40 80  2  0  0  0  0
 41 44  1  0  0  0  0
 42 51  1  0  0  0  0
 43 66  1  0  0  0  0
 44 46  1  0  0  0  0
 45 47  1  0  0  0  0
 45 48  1  0  0  0  0
 46 50  1  0  0  0  0
 47 52  1  0  0  0  0
 48 67  1  0  0  0  0
 49 52  1  0  0  0  0
 49 67  1  0  0  0  0
 50 72  1  0  0  0  0
 51 66  1  0  0  0  0
 52 65  1  0  0  0  0
 54 61  1  0  0  0  0
 55 62  1  0  0  0  0
 56 62  1  0  0  0  0
 57 62  1  0  0  0  0
 58 74  1  0  0  0  0
 59 82  1  0  0  0  0
 60 62  1  0  0  0  0
 60 73  1  0  0  0  0
 61 74  1  0  0  0  0
 63 65  1  0  0  0  0
M  CHG  1  74   1
M  ISO  4  40 100  59 101  71 100  82 101
M  END
> <Batch ID>
0063

> <Smiles>
CNC(C)C(=O)NC(C(=O)N1Cc2cc([101O:1][101CH2:1]C(=O)Nc3cc([100NH:0][100C:0](=O)N4CCCC(n5nc(-c6ccc(Oc7ccc(F)cc7F)cc6)c(C(N)=O)c5N)C4)ccc3C(C)=N)ccc2CC1C(=O)NC1CCCc2ccccc21)C(C)(C)C

> <Shape>
0.226

> <Color>
0.193

> <Negative vol penalty>
0.000

$$$$

  -OEChem-04042323123D

 88 96  0     1  0  0  0  0  0999 V2000
  -20.8444  -31.5956   23.5504 C   0  0  0  0  0  0  0  0  0  0  0  0
  -21.4470  -30.3782   23.8506 C   0  0  0  0  0  0  0  0  0  0  0  0
  -23.1440   -9.7736   20.8889 C   0  0  0  0  0  0  0  0  0  0  0  0
  -23.7710  -10.5039   23.1049 C   0  0  0  0  0  0  0  0  0  0  0  0
  -19.4616  -31.6661   23.3867 C   0  0  0  0  0  0  0  0  0  0  0  0
  -20.6669  -29.2306   23.9884 C   0  0  0  0  0  0  0  0  0  0  0  0
  -22.6587  -25.2300   21.6065 C   0  0  0  0  0  0  0  0  0  0  0  0
  -32.3846  -18.4100   22.3712 C   0  0  0  0  0  0  0  0  0  0  0  0
  -31.8633  -17.2734   21.7531 C   0  0  0  0  0  0  0  0  0  0  0  0
  -22.4047   -8.7284   21.4425 C   0  0  0  0  0  0  0  0  0  0  0  0
  -23.0316   -9.4587   23.6585 C   0  0  0  0  0  0  0  0  0  0  0  0
  -23.7177  -24.5769   22.2355 C   0  0  0  0  0  0  0  0  0  0  0  0
  -19.7867   -8.7798   24.3144 C   0  0  0  0  0  0  0  0  0  0  0  0
  -18.9645   -9.0746   25.4019 C   0  0  0  0  0  0  0  0  0  0  0  0
  -29.6365  -18.1910   21.9437 C   0  0  0  0  0  0  0  0  0  0  0  0
  -22.1947  -22.8815   23.0261 C   0  0  0  0  0  0  0  0  0  0  0  0
  -20.1909   -7.4947   26.7574 C   0  0  0  0  0  0  0  0  0  0  0  0
  -23.8273  -10.6613   21.7201 C   0  0  0  0  0  0  0  0  0  0  0  0
  -30.1578  -19.3276   22.5619 C   0  0  0  0  0  0  0  0  0  0  0  0
  -24.1370  -13.0392   20.8498 C   0  0  0  0  0  0  0  0  0  0  0  0
  -18.6652  -30.5170   23.5130 C   0  0  0  0  0  0  0  0  0  0  0  0
  -21.3557  -24.7188   21.6919 C   0  0  0  0  0  0  0  0  0  0  0  0
  -19.2720  -29.2860   23.8275 C   0  0  0  0  0  0  0  0  0  0  0  0
  -21.1213  -23.5286   22.3952 C   0  0  0  0  0  0  0  0  0  0  0  0
  -31.5318  -19.4371   22.7757 C   0  0  0  0  0  0  0  0  0  0  0  0
  -30.4893  -17.1640   21.5393 C   0  0  0  0  0  0  0  0  0  0  0  0
  -22.3484   -8.5710   22.8273 C   0  0  0  0  0  0  0  0  0  0  0  0
  -23.4854  -23.4040   22.9478 C   0  0  0  0  0  0  0  0  0  0  0  0
  -20.8109   -7.8424   24.4483 C   0  0  0  0  0  0  0  0  0  0  0  0
  -19.1666   -8.4321   26.6234 C   0  0  0  0  0  0  0  0  0  0  0  0
  -21.0131   -7.1999   25.6698 C   0  0  0  0  0  0  0  0  0  0  0  0
  -24.5917  -11.7409   21.1488 C   0  0  0  0  0  0  0  0  0  0  0  0
  -25.2367  -13.6768   20.3295 C   0  0  0  0  0  0  0  0  0  0  0  0
  -29.2305  -20.3946   22.9781 C   0  0  0  0  0  0  0  0  0  0  0  0
  -28.2417  -20.2382   23.8706 C   0  0  0  0  0  0  0  0  0  0  0  0
  -22.8369  -13.6173   21.0266 C   0  0  0  0  0  0  0  0  0  0  0  0
  -27.3687  -21.3940   24.2234 C   0  0  0  0  0  0  0  0  0  0  0  0
  -18.6042  -25.7775   22.8803 C   0  0  0  0  0  0  0  0  0  0  0  0
  -17.4260  -23.0805   21.5163 C   0  0  0  0  0  0  0  0  0  0  0  0
  -18.0099  -19.9172   20.3766 C   0  0  0  0  0  0  0  0  0  0  0  0
  -30.6673  -14.9002   20.4483 C   0  0  0  0  0  0  0  0  0  0  0  0
  -17.1695  -30.6515   23.3738 C   0  0  0  0  0  0  0  0  0  0  0  0
  -20.2285  -25.4209   20.9855 C   0  0  0  0  0  0  0  0  0  0  0  0
  -19.7442  -22.9276   22.5000 C   0  0  0  0  0  0  0  0  0  0  0  0
  -16.4547  -29.3186   23.1666 C   0  0  0  0  0  0  0  0  0  0  0  0
  -29.7274  -11.8448   18.8805 C   0  0  0  0  0  0  0  0  0  0  0  0
  -16.9651  -28.2792   24.1596 C   0  0  0  0  0  0  0  0  0  0  0  0
  -28.2700  -11.6522   19.3063 C   0  0  0  0  0  0  0  0  0  0  0  0
  -30.5685  -12.4583   19.9985 C   0  0  0  0  0  0  0  0  0  0  0  0
  -28.5747  -13.5081   20.9945 C   0  0  0  0  0  0  0  0  0  0  0  0
  -18.4623  -28.0144   23.9604 C   0  0  1  0  0  0  0  0  0  0  0  0
  -18.8587  -25.0890   21.5692 C   0  0  1  0  0  0  0  0  0  0  0  0
  -27.6737  -12.9528   19.8793 C   0  0  2  0  0  0  0  0  0  0  0  0
  -32.1252  -20.6403   23.4354 C   0  0  0  0  0  0  0  0  0  0  0  0
  -16.8434  -17.9459   19.3515 C   0  0  0  0  0  0  0  0  0  0  0  0
  -26.2864  -21.6255   28.0412 C   0  0  0  0  0  0  0  0  0  0  0  0
  -24.2474  -20.3711   27.2969 C   0  0  0  0  0  0  0  0  0  0  0  0
  -16.2278  -22.3797   24.2335 C   0  0  0  0  0  0  0  0  0  0  0  0
  -15.9192  -20.0340   23.4145 C   0  0  0  0  0  0  0  0  0  0  0  0
  -14.7332  -21.9145   22.2831 C   0  0  0  0  0  0  0  0  0  0  0  0
  -19.6847  -20.0460   17.9399 C   0  0  0  0  0  0  0  0  0  0  0  0
  -24.2116  -22.0276   24.7462 C   0  0  0  0  0  0  0  0  0  1  0  0
  -17.2280  -21.6533   21.9668 C   0  0  1  0  0  0  0  0  0  0  0  0
  -17.6211  -19.2248   19.0828 C   0  0  2  0  0  0  0  0  0  0  0  0
  -25.0489  -21.6666   27.1376 C   0  0  0  0  0  0  0  0  0  0  0  0
  -25.4320  -21.9812   25.6714 C   0  0  1  0  0  0  0  0  0  0  0  0
  -16.0528  -21.5075   22.9743 C   0  0  0  0  0  0  0  0  0  0  0  0
  -25.8797  -11.5626   20.8437 N   0  0  0  0  0  0  0  0  0  0  0  0
  -26.2438  -12.7573   20.3474 N   0  0  0  0  0  0  0  0  0  0  0  0
  -18.6740  -23.6544   21.7974 N   0  0  0  0  0  0  0  0  0  0  0  0
  -29.9445  -13.6891   20.4890 N   0  0  0  0  0  0  0  0  0  0  0  0
  -25.4307  -14.9286   19.8628 N   0  0  0  0  0  0  0  0  0  0  0  0
  -21.8212  -12.8223   21.5751 N   0  0  0  0  0  0  0  0  0  0  0  0
  -29.9601  -16.0095   20.9107 N   0  0  0  0  0  0  0  0  0  0  0  0
  -26.4083  -21.0449   25.1565 N   0  0  0  0  0  0  0  0  0  0  0  0
  -18.6757  -27.1559   22.8151 N   0  0  0  0  0  0  0  0  0  0  0  0
  -17.0759  -20.8593   20.7523 N   0  0  0  0  0  0  0  0  0  0  0  0
  -18.8377  -18.8782   18.2949 N   0  3  0  0  0  0  0  0  0  0  0  0
  -22.5791  -14.7985   20.6924 O   0  0  0  0  0  0  0  0  0  0  0  0
  -27.5139  -22.5061   23.7264 O   0  0  0  0  0  0  0  0  0  0  0  0
  -18.3595  -25.1078   23.8769 O   0  0  0  0  0  0  0  0  0  0  0  0
  -16.5097  -23.6623   20.9301 O   0  0  0  0  0  0  0  0  0  0  0  0
  -19.0374  -19.6464   20.9942 O   0  0  0  0  0  0  0  0  0  0  0  0
  -31.8187  -14.9543   20.0085 O   0  0  0  0  0  0  0  0  0  0  0  0
  -21.6268   -7.5513   23.3679 O   0  0  0  0  0  0  0  0  0  0  0  0
  -24.5172  -22.7648   23.5632 O   0  0  0  0  0  0  0  0  0  1  0  0
  -18.3780   -8.7164   27.6681 F   0  0  0  0  0  0  0  0  0  0  0  0
  -21.9962   -6.2993   25.8048 F   0  0  0  0  0  0  0  0  0  0  0  0
  1  2  1  0  0  0  0
  1  5  2  0  0  0  0
  2  6  2  0  0  0  0
  3 10  2  0  0  0  0
  3 18  1  0  0  0  0
  4 11  1  0  0  0  0
  4 18  2  0  0  0  0
  5 21  1  0  0  0  0
  6 23  1  0  0  0  0
  7 12  2  0  0  0  0
  7 22  1  0  0  0  0
  8  9  2  0  0  0  0
  8 25  1  0  0  0  0
  9 26  1  0  0  0  0
 10 27  1  0  0  0  0
 11 27  2  0  0  0  0
 12 28  1  0  0  0  0
 13 14  2  0  0  0  0
 13 29  1  0  0  0  0
 14 30  1  0  0  0  0
 15 19  1  0  0  0  0
 15 26  2  0  0  0  0
 16 24  1  0  0  0  0
 16 28  2  0  0  0  0
 17 30  2  0  0  0  0
 17 31  1  0  0  0  0
 18 32  1  0  0  0  0
 19 25  2  0  0  0  0
 19 34  1  0  0  0  0
 20 32  1  0  0  0  0
 20 33  2  0  0  0  0
 20 36  1  0  0  0  0
 21 23  2  0  0  0  0
 21 42  1  0  0  0  0
 22 24  2  0  0  0  0
 22 43  1  0  0  0  0
 23 51  1  0  0  0  0
 24 44  1  0  0  0  0
 25 54  1  0  0  0  0
 26 74  1  0  0  0  0
 27 85  1  0  0  0  0
 28 86  1  0  0  0  0
 29 31  2  0  0  0  0
 29 85  1  0  0  0  0
 30 87  1  0  0  0  0
 31 88  1  0  0  0  0
 32 68  2  0  0  0  0
 33 69  1  0  0  0  0
 33 72  1  0  0  0  0
 34 35  2  0  0  0  0
 35 37  1  0  0  0  0
 36 73  1  0  0  0  0
 36 79  2  0  0  0  0
 37 75  1  0  0  0  0
 37 80  2  0  0  0  0
 38 52  1  0  0  0  0
 38 76  1  0  0  0  0
 38 81  2  0  0  0  0
 39 63  1  0  0  0  0
 39 70  1  0  0  0  0
 39 82  2  0  0  0  0
 40 64  1  0  0  0  0
 40 77  1  0  0  0  0
 40 83  2  0  0  0  0
 41 71  1  0  0  0  0
 41 74  1  0  0  0  0
 41 84  2  0  0  0  0
 42 45  1  0  0  0  0
 43 52  1  0  0  0  0
 44 70  1  0  0  0  0
 45 47  1  0  0  0  0
 46 48  1  0  0  0  0
 46 49  1  0  0  0  0
 47 51  1  0  0  0  0
 48 53  1  0  0  0  0
 49 71  1  0  0  0  0
 50 53  1  0  0  0  0
 50 71  1  0  0  0  0
 51 76  1  0  0  0  0
 52 70  1  0  0  0  0
 53 69  1  0  0  0  0
 55 64  1  0  0  0  0
 56 65  1  0  0  0  0
 57 65  1  0  0  0  0
 58 67  1  0  0  0  0
 59 67  1  0  0  0  0
 60 67  1  0  0  0  0
 61 78  1  0  0  0  0
 62 66  1  0  0  0  0
 62 86  1  0  0  0  0
 63 67  1  0  0  0  0
 63 77  1  0  0  0  0
 64 78  1  0  0  0  0
 65 66  1  0  0  0  0
 66 75  1  0  0  0  0
 68 69  1  0  0  0  0
M  CHG  1  78   1
M  ISO  4  41 100  62 101  74 100  86 101
M  END
> <Batch ID>
0063

> <Smiles>
CNC(C)C(=O)NC(C(=O)N1Cc2cc([101O:1][101CH2:1]C(NC(=O)C=Cc3cc([100NH:0][100C:0](=O)N4CCCC(n5nc(-c6ccc(Oc7ccc(F)cc7F)cc6)c(C(N)=O)c5N)C4)ccc3C)C(C)C)ccc2CC1C(=O)NC1CCCc2ccccc21)C(C)(C)C

> <Shape>
0.212

> <Color>
0.164

> <Negative vol penalty>
0.000

$$$$

  -OEChem-04042323123D

 82 90  0     1  0  0  0  0  0999 V2000
  -18.4661  -31.6189   22.9097 C   0  0  0  0  0  0  0  0  0  0  0  0
  -19.8544  -31.5393   22.8695 C   0  0  0  0  0  0  0  0  0  0  0  0
  -30.4729  -22.9162   17.1667 C   0  0  0  0  0  0  0  0  0  0  0  0
  -28.0160  -12.6991   22.4229 C   0  0  0  0  0  0  0  0  0  0  0  0
  -26.8072  -12.9677   20.3484 C   0  0  0  0  0  0  0  0  0  0  0  0
  -17.6998  -30.4567   22.8330 C   0  0  0  0  0  0  0  0  0  0  0  0
  -20.4773  -30.2971   22.7535 C   0  0  0  0  0  0  0  0  0  0  0  0
  -25.6617  -29.0451   19.7435 C   0  0  0  0  0  0  0  0  0  0  0  0
  -30.7116  -24.1213   17.8272 C   0  0  0  0  0  0  0  0  0  0  0  0
  -29.5335  -22.0177   17.6726 C   0  0  0  0  0  0  0  0  0  0  0  0
  -27.4894  -11.4151   22.5635 C   0  0  0  0  0  0  0  0  0  0  0  0
  -26.2806  -11.6837   20.4890 C   0  0  0  0  0  0  0  0  0  0  0  0
  -26.9808  -28.8957   20.1693 C   0  0  0  0  0  0  0  0  0  0  0  0
  -23.8173  -10.1804   22.2505 C   0  0  0  0  0  0  0  0  0  0  0  0
  -22.4548  -10.0084   22.0064 C   0  0  0  0  0  0  0  0  0  0  0  0
  -26.6729  -26.5050   20.2647 C   0  0  0  0  0  0  0  0  0  0  0  0
  -29.0716  -23.5294   19.4997 C   0  0  0  0  0  0  0  0  0  0  0  0
  -22.9688   -8.4421   20.2402 C   0  0  0  0  0  0  0  0  0  0  0  0
  -27.6748  -13.4754   21.3154 C   0  0  0  0  0  0  0  0  0  0  0  0
  -29.4131  -15.1647   20.5202 C   0  0  0  0  0  0  0  0  0  0  0  0
  -18.3134  -29.2004   22.7064 C   0  0  0  0  0  0  0  0  0  0  0  0
  -24.8336  -27.9246   19.5853 C   0  0  0  0  0  0  0  0  0  0  0  0
  -19.7185  -29.1169   22.6764 C   0  0  0  0  0  0  0  0  0  0  0  0
  -25.3444  -26.6427   19.8343 C   0  0  0  0  0  0  0  0  0  0  0  0
  -30.0109  -24.4279   18.9938 C   0  0  0  0  0  0  0  0  0  0  0  0
  -28.8329  -22.3243   18.8391 C   0  0  0  0  0  0  0  0  0  0  0  0
  -26.6218  -10.9074   21.5966 C   0  0  0  0  0  0  0  0  0  0  0  0
  -27.4858  -27.6257   20.4327 C   0  0  0  0  0  0  0  0  0  0  0  0
  -24.7556   -9.4833   21.4893 C   0  0  0  0  0  0  0  0  0  0  0  0
  -22.0305   -9.1393   21.0013 C   0  0  0  0  0  0  0  0  0  0  0  0
  -24.3313   -8.6142   20.4842 C   0  0  0  0  0  0  0  0  0  0  0  0
  -28.2180  -14.8020   21.1698 C   0  0  0  0  0  0  0  0  0  0  0  0
  -29.4782  -16.5297   20.6581 C   0  0  0  0  0  0  0  0  0  0  0  0
  -30.3781  -14.3414   19.8519 C   0  0  0  0  0  0  0  0  0  0  0  0
  -22.1242  -26.9316   20.9184 C   0  0  0  0  0  0  0  0  0  0  0  0
  -22.3259  -24.6036   18.6685 C   0  0  0  0  0  0  0  0  0  0  0  0
  -31.1474  -26.6547   19.3003 C   0  0  0  0  0  0  0  0  0  0  0  0
  -24.2899  -22.7721   16.5625 C   0  0  0  0  0  0  0  0  0  0  0  0
  -27.0974  -21.5606   20.4978 C   0  0  0  0  0  0  0  0  0  0  0  0
  -17.4445  -27.9681   22.6745 C   0  0  0  0  0  0  0  0  0  0  0  0
  -23.4209  -28.1005   19.0996 C   0  0  0  0  0  0  0  0  0  0  0  0
  -24.5025  -25.4060   19.6604 C   0  0  0  0  0  0  0  0  0  0  0  0
  -18.1724  -26.7224   22.1758 C   0  0  0  0  0  0  0  0  0  0  0  0
  -26.7303  -19.6878   23.5037 C   0  0  0  0  0  0  0  0  0  0  0  0
  -19.5322  -26.5911   22.8543 C   0  0  0  0  0  0  0  0  0  0  0  0
  -27.1830  -18.2796   23.1110 C   0  0  0  0  0  0  0  0  0  0  0  0
  -25.9720  -20.3765   22.3703 C   0  0  0  0  0  0  0  0  0  0  0  0
  -27.1264  -18.9957   20.6880 C   0  0  0  0  0  0  0  0  0  0  0  0
  -20.4304  -27.7899   22.5263 C   0  0  1  0  0  0  0  0  0  0  0  0
  -22.5127  -26.9311   19.4669 C   0  0  1  0  0  0  0  0  0  0  0  0
  -27.9509  -18.2866   21.7747 C   0  0  2  0  0  0  0  0  0  0  0  0
  -24.1749  -20.9175   14.8760 C   0  0  0  0  0  0  0  0  0  0  0  0
  -22.0473  -22.5707   20.9267 C   0  0  0  0  0  0  0  0  0  0  0  0
  -22.8794  -20.8114   19.3518 C   0  0  0  0  0  0  0  0  0  0  0  0
  -20.7523  -22.0180   18.8598 C   0  0  0  0  0  0  0  0  0  0  0  0
  -25.3048  -24.5192   14.4000 C   0  0  0  0  0  0  0  0  0  0  0  0
  -31.0931  -27.8045   20.2997 C   0  0  0  0  0  0  0  0  0  0  0  0
  -29.7175  -28.4466   20.3976 C   0  0  0  0  0  0  0  0  0  1  0  0
  -22.9545  -23.2328   18.6019 C   0  0  1  0  0  0  0  0  0  0  0  0
  -24.1383  -22.4222   15.0932 C   0  0  2  0  0  0  0  0  0  0  0  0
  -22.1739  -22.1815   19.4403 C   0  0  0  0  0  0  0  0  0  0  0  0
  -27.5706  -15.8518   21.6824 N   0  0  0  0  0  0  0  0  0  0  0  0
  -28.3618  -16.8877   21.3550 N   0  0  0  0  0  0  0  0  0  0  0  0
  -23.1258  -25.6305   19.1895 N   0  0  0  0  0  0  0  0  0  0  0  0
  -26.7622  -20.3485   21.1376 N   0  0  0  0  0  0  0  0  0  0  0  0
  -30.3809  -17.4468   20.2499 N   0  0  0  0  0  0  0  0  0  0  0  0
  -30.1567  -12.9584   19.8026 N   0  0  0  0  0  0  0  0  0  0  0  0
  -30.2532  -25.6510   19.6631 N   0  0  0  0  0  0  0  0  0  0  0  0
  -27.8787  -21.4111   19.3525 N   0  0  0  0  0  0  0  0  0  0  0  0
  -20.9821  -27.6587   21.1948 N   0  0  0  0  0  0  0  0  0  0  0  0
  -23.0666  -22.9034   17.1851 N   0  0  0  0  0  0  0  0  0  0  0  0
  -25.2376  -23.0387   14.2978 N   0  3  0  0  0  0  0  0  0  0  0  0
  -31.4144  -14.8163   19.3284 O   0  0  0  0  0  0  0  0  0  0  0  0
  -22.8090  -26.3166   21.7274 O   0  0  0  0  0  0  0  0  0  0  0  0
  -21.1702  -24.7591   18.2662 O   0  0  0  0  0  0  0  0  0  0  0  0
  -31.8968  -26.6684   18.3295 O   0  0  0  0  0  0  0  0  0  0  0  0
  -25.3841  -22.9112   17.1047 O   0  0  0  0  0  0  0  0  0  0  0  0
  -26.7421  -22.6524   20.9491 O   0  0  0  0  0  0  0  0  0  0  0  0
  -26.1079   -9.6545   21.7333 O   0  0  0  0  0  0  0  0  0  0  0  0
  -28.7728  -27.4771   20.8491 O   0  0  0  0  0  0  0  0  0  1  0  0
  -20.7220   -8.9731   20.7681 F   0  0  0  0  0  0  0  0  0  0  0  0
  -25.2280   -7.9408   19.7505 F   0  0  0  0  0  0  0  0  0  0  0  0
  1  2  1  0  0  0  0
  1  6  2  0  0  0  0
  2  7  2  0  0  0  0
  3  9  2  0  0  0  0
  3 10  1  0  0  0  0
  4 11  2  0  0  0  0
  4 19  1  0  0  0  0
  5 12  1  0  0  0  0
  5 19  2  0  0  0  0
  6 21  1  0  0  0  0
  7 23  1  0  0  0  0
  8 13  2  0  0  0  0
  8 22  1  0  0  0  0
  9 25  1  0  0  0  0
 10 26  2  0  0  0  0
 11 27  1  0  0  0  0
 12 27  2  0  0  0  0
 13 28  1  0  0  0  0
 14 15  2  0  0  0  0
 14 29  1  0  0  0  0
 15 30  1  0  0  0  0
 16 24  1  0  0  0  0
 16 28  2  0  0  0  0
 17 25  2  0  0  0  0
 17 26  1  0  0  0  0
 18 30  2  0  0  0  0
 18 31  1  0  0  0  0
 19 32  1  0  0  0  0
 20 32  1  0  0  0  0
 20 33  2  0  0  0  0
 20 34  1  0  0  0  0
 21 23  2  0  0  0  0
 21 40  1  0  0  0  0
 22 24  2  0  0  0  0
 22 41  1  0  0  0  0
 23 49  1  0  0  0  0
 24 42  1  0  0  0  0
 25 68  1  0  0  0  0
 26 69  1  0  0  0  0
 27 79  1  0  0  0  0
 28 80  1  0  0  0  0
 29 31  2  0  0  0  0
 29 79  1  0  0  0  0
 30 81  1  0  0  0  0
 31 82  1  0  0  0  0
 32 62  2  0  0  0  0
 33 63  1  0  0  0  0
 33 66  1  0  0  0  0
 34 67  1  0  0  0  0
 34 73  2  0  0  0  0
 35 50  1  0  0  0  0
 35 70  1  0  0  0  0
 35 74  2  0  0  0  0
 36 59  1  0  0  0  0
 36 64  1  0  0  0  0
 36 75  2  0  0  0  0
 37 57  1  0  0  0  0
 37 68  1  0  0  0  0
 37 76  2  0  0  0  0
 38 60  1  0  0  0  0
 38 71  1  0  0  0  0
 38 77  2  0  0  0  0
 39 65  1  0  0  0  0
 39 69  1  0  0  0  0
 39 78  2  0  0  0  0
 40 43  1  0  0  0  0
 41 50  1  0  0  0  0
 42 64  1  0  0  0  0
 43 45  1  0  0  0  0
 44 46  1  0  0  0  0
 44 47  1  0  0  0  0
 45 49  1  0  0  0  0
 46 51  1  0  0  0  0
 47 65  1  0  0  0  0
 48 51  1  0  0  0  0
 48 65  1  0  0  0  0
 49 70  1  0  0  0  0
 50 64  1  0  0  0  0
 51 63  1  0  0  0  0
 52 60  1  0  0  0  0
 53 61  1  0  0  0  0
 54 61  1  0  0  0  0
 55 61  1  0  0  0  0
 56 72  1  0  0  0  0
 57 58  1  0  0  0  0
 58 80  1  0  0  0  0
 59 61  1  0  0  0  0
 59 71  1  0  0  0  0
 60 72  1  0  0  0  0
 62 63  1  0  0  0  0
M  CHG  1  72   1
M  ISO  4  39 100  58 101  69 100  80 101
M  END
> <Batch ID>
0063

> <Smiles>
CNC(C)C(=O)NC(C(=O)N1Cc2cc([101O:1][101CH2:1]CC(=O)Nc3cccc([100NH:0][100C:0](=O)N4CCCC(n5nc(-c6ccc(Oc7ccc(F)cc7F)cc6)c(C(N)=O)c5N)C4)c3)ccc2CC1C(=O)NC1CCCc2ccccc21)C(C)(C)C

> <Shape>
0.268

> <Color>
0.082

> <Negative vol penalty>
0.000

$$$$

  -OEChem-04042323123D

 85 93  0     1  0  0  0  0  0999 V2000
  -22.2910  -33.9589   22.6568 C   0  0  0  0  0  0  0  0  0  0  0  0
  -23.3619  -33.0826   22.5132 C   0  0  0  0  0  0  0  0  0  0  0  0
  -26.0219  -13.1046   21.6147 C   0  0  0  0  0  0  0  0  0  0  0  0
  -25.8298  -13.7260   19.2879 C   0  0  0  0  0  0  0  0  0  0  0  0
  -21.0648  -33.4887   23.1249 C   0  0  0  0  0  0  0  0  0  0  0  0
  -23.2074  -31.7355   22.8388 C   0  0  0  0  0  0  0  0  0  0  0  0
  -25.2198  -28.6532   19.3611 C   0  0  0  0  0  0  0  0  0  0  0  0
  -28.3296  -21.1811   16.6026 C   0  0  0  0  0  0  0  0  0  0  0  0
  -24.8570  -12.3450   21.5081 C   0  0  0  0  0  0  0  0  0  0  0  0
  -24.6648  -12.9663   19.1812 C   0  0  0  0  0  0  0  0  0  0  0  0
  -26.6045  -28.4912   19.3787 C   0  0  0  0  0  0  0  0  0  0  0  0
  -23.9611   -9.3137   20.3073 C   0  0  0  0  0  0  0  0  0  0  0  0
  -28.4095  -22.0368   15.5040 C   0  0  0  0  0  0  0  0  0  0  0  0
  -23.9652   -8.0381   20.8715 C   0  0  0  0  0  0  0  0  0  0  0  0
  -28.8816  -23.0170   18.0728 C   0  0  0  0  0  0  0  0  0  0  0  0
  -26.3386  -26.3964   20.5449 C   0  0  0  0  0  0  0  0  0  0  0  0
  -22.1370   -8.6721   22.3182 C   0  0  0  0  0  0  0  0  0  0  0  0
  -26.5083  -13.7952   20.5046 C   0  0  0  0  0  0  0  0  0  0  0  0
  -28.9615  -23.8728   16.9742 C   0  0  0  0  0  0  0  0  0  0  0  0
  -29.0321  -14.1484   20.3896 C   0  0  0  0  0  0  0  0  0  0  0  0
  -20.8925  -32.1333   23.4472 C   0  0  0  0  0  0  0  0  0  0  0  0
  -24.3833  -27.6917   19.9459 C   0  0  0  0  0  0  0  0  0  0  0  0
  -21.9781  -31.2469   23.3130 C   0  0  0  0  0  0  0  0  0  0  0  0
  -24.9435  -26.5473   20.5312 C   0  0  0  0  0  0  0  0  0  0  0  0
  -28.5656  -21.6712   17.8870 C   0  0  0  0  0  0  0  0  0  0  0  0
  -24.1784  -12.2758   20.2914 C   0  0  0  0  0  0  0  0  0  0  0  0
  -27.1642  -27.3642   19.9732 C   0  0  0  0  0  0  0  0  0  0  0  0
  -23.0451  -10.2686   20.7486 C   0  0  0  0  0  0  0  0  0  0  0  0
  -23.0531   -7.7173   21.8769 C   0  0  0  0  0  0  0  0  0  0  0  0
  -28.7255  -23.3826   15.6897 C   0  0  0  0  0  0  0  0  0  0  0  0
  -22.1330   -9.9478   21.7539 C   0  0  0  0  0  0  0  0  0  0  0  0
  -27.7113  -14.5806   20.6143 C   0  0  0  0  0  0  0  0  0  0  0  0
  -29.8020  -15.2618   20.6225 C   0  0  0  0  0  0  0  0  0  0  0  0
  -29.2984  -25.3057   17.1753 C   0  0  0  0  0  0  0  0  0  0  0  0
  -29.5195  -12.8562   20.0047 C   0  0  0  0  0  0  0  0  0  0  0  0
  -22.2893  -27.6967   22.3373 C   0  0  0  0  0  0  0  0  0  0  0  0
  -21.7006  -24.6760   21.3121 C   0  0  0  0  0  0  0  0  0  0  0  0
  -22.8191  -21.9080   19.6587 C   0  0  0  0  0  0  0  0  0  0  0  0
  -28.6889  -21.1259   20.3434 C   0  0  0  0  0  0  0  0  0  0  0  0
  -19.5619  -31.6807   23.9944 C   0  0  0  0  0  0  0  0  0  0  0  0
  -22.8904  -27.8680   19.8949 C   0  0  0  0  0  0  0  0  0  0  0  0
  -24.0882  -25.4758   21.1548 C   0  0  0  0  0  0  0  0  0  0  0  0
  -19.3731  -30.1663   23.9617 C   0  0  0  0  0  0  0  0  0  0  0  0
  -29.8528  -19.3120   23.1775 C   0  0  0  0  0  0  0  0  0  0  0  0
  -20.6156  -29.4618   24.4972 C   0  0  0  0  0  0  0  0  0  0  0  0
  -29.5615  -17.8530   22.8187 C   0  0  0  0  0  0  0  0  0  0  0  0
  -28.7603  -20.2503   22.6679 C   0  0  0  0  0  0  0  0  0  0  0  0
  -28.1606  -18.6663   20.8789 C   0  0  0  0  0  0  0  0  0  0  0  0
  -21.8427  -29.7739   23.6322 C   0  0  1  0  0  0  0  0  0  0  0  0
  -22.1581  -27.0773   20.9747 C   0  0  1  0  0  0  0  0  0  0  0  0
  -29.2659  -17.6906   21.3148 C   0  0  2  0  0  0  0  0  0  0  0  0
  -22.1272  -19.5824   19.0180 C   0  0  0  0  0  0  0  0  0  0  0  0
  -22.2033  -23.7410   24.1727 C   0  0  0  0  0  0  0  0  0  0  0  0
  -22.4400  -21.4083   23.2946 C   0  0  0  0  0  0  0  0  0  0  0  0
  -20.2775  -22.6240   23.0333 C   0  0  0  0  0  0  0  0  0  0  0  0
  -31.3974  -26.8907   19.8516 C   0  0  0  0  0  0  0  0  0  0  0  0
  -31.2936  -27.5332   17.4306 C   0  0  0  0  0  0  0  0  0  0  0  0
  -23.0400  -22.5133   16.7701 C   0  0  0  0  0  0  0  0  0  0  0  0
  -29.2525  -27.7748   18.9120 C   0  0  0  0  0  0  0  0  0  1  0  0
  -22.2634  -23.3111   21.6276 C   0  0  1  0  0  0  0  0  0  0  0  0
  -22.1728  -21.0417   18.5926 C   0  0  2  0  0  0  0  0  0  0  0  0
  -21.8125  -22.7921   23.0221 C   0  0  0  0  0  0  0  0  0  0  0  0
  -30.5056  -26.9362   18.6036 C   0  0  0  0  0  0  0  0  0  0  0  0
  -27.6424  -15.8680   20.9634 N   0  0  0  0  0  0  0  0  0  0  0  0
  -28.9295  -16.2544   20.9598 N   0  0  0  0  0  0  0  0  0  0  0  0
  -22.6343  -25.6970   21.0854 N   0  0  0  0  0  0  0  0  0  0  0  0
  -28.5378  -20.0431   21.2353 N   0  0  0  0  0  0  0  0  0  0  0  0
  -31.1334  -15.4787   20.5697 N   0  0  0  0  0  0  0  0  0  0  0  0
  -28.5922  -11.8242   19.8064 N   0  0  0  0  0  0  0  0  0  0  0  0
  -28.4840  -20.8016   19.0027 N   0  0  0  0  0  0  0  0  0  0  0  0
  -30.1084  -25.5808   18.2599 N   0  0  0  0  0  0  0  0  0  0  0  0
  -21.8147  -28.9921   22.4146 N   0  0  0  0  0  0  0  0  0  0  0  0
  -21.8829  -22.4459   20.5163 N   0  0  0  0  0  0  0  0  0  0  0  0
  -22.9362  -21.1355   17.3161 N   0  3  0  0  0  0  0  0  0  0  0  0
  -28.8378  -26.1441   16.4050 O   0  0  0  0  0  0  0  0  0  0  0  0
  -30.7425  -12.6193   19.8574 O   0  0  0  0  0  0  0  0  0  0  0  0
  -22.7832  -27.0468   23.2514 O   0  0  0  0  0  0  0  0  0  0  0  0
  -20.4776  -24.8288   21.2614 O   0  0  0  0  0  0  0  0  0  0  0  0
  -24.0332  -22.0863   19.7263 O   0  0  0  0  0  0  0  0  0  0  0  0
  -29.0053  -22.2515   20.7370 O   0  0  0  0  0  0  0  0  0  0  0  0
  -23.0418  -11.5344   20.1869 O   0  0  0  0  0  0  0  0  0  0  0  0
  -28.5154  -27.2039   19.9924 O   0  0  0  0  0  0  0  0  0  1  0  0
  -23.0561   -6.4918   22.4176 F   0  0  0  0  0  0  0  0  0  0  0  0
  -28.7995  -24.1961   14.6270 F   0  0  0  0  0  0  0  0  0  0  0  0
  -21.2497  -10.8606   22.1812 F   0  0  0  0  0  0  0  0  0  0  0  0
  1  2  1  0  0  0  0
  1  5  2  0  0  0  0
  2  6  2  0  0  0  0
  3  9  2  0  0  0  0
  3 18  1  0  0  0  0
  4 10  1  0  0  0  0
  4 18  2  0  0  0  0
  5 21  1  0  0  0  0
  6 23  1  0  0  0  0
  7 11  2  0  0  0  0
  7 22  1  0  0  0  0
  8 13  2  0  0  0  0
  8 25  1  0  0  0  0
  9 26  1  0  0  0  0
 10 26  2  0  0  0  0
 11 27  1  0  0  0  0
 12 14  2  0  0  0  0
 12 28  1  0  0  0  0
 13 30  1  0  0  0  0
 14 29  1  0  0  0  0
 15 19  1  0  0  0  0
 15 25  2  0  0  0  0
 16 24  1  0  0  0  0
 16 27  2  0  0  0  0
 17 29  2  0  0  0  0
 17 31  1  0  0  0  0
 18 32  1  0  0  0  0
 19 30  2  0  0  0  0
 19 34  1  0  0  0  0
 20 32  1  0  0  0  0
 20 33  2  0  0  0  0
 20 35  1  0  0  0  0
 21 23  2  0  0  0  0
 21 40  1  0  0  0  0
 22 24  2  0  0  0  0
 22 41  1  0  0  0  0
 23 49  1  0  0  0  0
 24 42  1  0  0  0  0
 25 70  1  0  0  0  0
 26 81  1  0  0  0  0
 27 82  1  0  0  0  0
 28 31  2  0  0  0  0
 28 81  1  0  0  0  0
 29 83  1  0  0  0  0
 30 84  1  0  0  0  0
 31 85  1  0  0  0  0
 32 64  2  0  0  0  0
 33 65  1  0  0  0  0
 33 68  1  0  0  0  0
 34 71  1  0  0  0  0
 34 75  2  0  0  0  0
 35 69  1  0  0  0  0
 35 76  2  0  0  0  0
 36 50  1  0  0  0  0
 36 72  1  0  0  0  0
 36 77  2  0  0  0  0
 37 60  1  0  0  0  0
 37 66  1  0  0  0  0
 37 78  2  0  0  0  0
 38 61  1  0  0  0  0
 38 73  1  0  0  0  0
 38 79  2  0  0  0  0
 39 67  1  0  0  0  0
 39 70  1  0  0  0  0
 39 80  2  0  0  0  0
 40 43  1  0  0  0  0
 41 50  1  0  0  0  0
 42 66  1  0  0  0  0
 43 45  1  0  0  0  0
 44 46  1  0  0  0  0
 44 47  1  0  0  0  0
 45 49  1  0  0  0  0
 46 51  1  0  0  0  0
 47 67  1  0  0  0  0
 48 51  1  0  0  0  0
 48 67  1  0  0  0  0
 49 72  1  0  0  0  0
 50 66  1  0  0  0  0
 51 65  1  0  0  0  0
 52 61  1  0  0  0  0
 53 62  1  0  0  0  0
 54 62  1  0  0  0  0
 55 62  1  0  0  0  0
 56 63  1  0  0  0  0
 57 63  1  0  0  0  0
 58 74  1  0  0  0  0
 59 63  1  0  0  0  0
 59 82  1  0  0  0  0
 60 62  1  0  0  0  0
 60 73  1  0  0  0  0
 61 74  1  0  0  0  0
 63 71  1  0  0  0  0
 64 65  1  0  0  0  0
M  CHG  1  74   1
M  ISO  4  39 100  59 101  70 100  82 101
M  END
> <Batch ID>
0063

> <Smiles>
CNC(C)C(=O)NC(C(=O)N1Cc2cc([101O:1][101CH2:1]C(C)(C)NC(=O)c3cc([100NH:0][100C:0](=O)N4CCCC(n5nc(-c6ccc(Oc7ccc(F)cc7F)cc6)c(C(N)=O)c5N)C4)ccc3F)ccc2CC1C(=O)NC1CCCc2ccccc21)C(C)(C)C

> <Shape>
0.264

> <Color>
0.078

> <Negative vol penalty>
0.000

$$$$

  -OEChem-04042323123D

 87 96  0     1  0  0  0  0  0999 V2000
  -19.0850  -24.3438   22.2186 C   0  0  0  0  0  0  0  0  0  0  0  0
  -20.3130  -24.5999   21.6171 C   0  0  0  0  0  0  0  0  0  0  0  0
  -26.9539  -11.8328   17.1041 C   0  0  0  0  0  0  0  0  0  0  0  0
  -25.8205  -12.1255   19.2176 C   0  0  0  0  0  0  0  0  0  0  0  0
  -31.3715  -20.2406   15.8313 C   0  0  0  0  0  0  0  0  0  0  0  0
  -18.2759  -25.4032   22.6275 C   0  0  0  0  0  0  0  0  0  0  0  0
  -20.7322  -25.9156   21.4231 C   0  0  0  0  0  0  0  0  0  0  0  0
  -25.5782  -26.6209   22.7132 C   0  0  0  0  0  0  0  0  0  0  0  0
  -31.2710  -19.1957   16.7499 C   0  0  0  0  0  0  0  0  0  0  0  0
  -25.7483  -11.4613   16.5090 C   0  0  0  0  0  0  0  0  0  0  0  0
  -24.6149  -11.7539   18.6225 C   0  0  0  0  0  0  0  0  0  0  0  0
  -26.5472  -26.1866   21.8098 C   0  0  0  0  0  0  0  0  0  0  0  0
  -23.7928   -8.7089   16.3519 C   0  0  0  0  0  0  0  0  0  0  0  0
  -23.8013   -7.5947   15.5129 C   0  0  0  0  0  0  0  0  0  0  0  0
  -26.8139  -28.4493   21.0172 C   0  0  0  0  0  0  0  0  0  0  0  0
  -30.9868  -20.7952   18.5382 C   0  0  0  0  0  0  0  0  0  0  0  0
  -23.0433   -8.9709   13.6775 C   0  0  0  0  0  0  0  0  0  0  0  0
  -26.9900  -12.1649   18.4584 C   0  0  0  0  0  0  0  0  0  0  0  0
  -31.2797  -21.5628   16.2662 C   0  0  0  0  0  0  0  0  0  0  0  0
  -29.4091  -11.7770   19.1694 C   0  0  0  0  0  0  0  0  0  0  0  0
  -18.6897  -26.7324   22.4471 C   0  0  0  0  0  0  0  0  0  0  0  0
  -25.2112  -27.9733   22.7678 C   0  0  0  0  0  0  0  0  0  0  0  0
  -19.9273  -26.9937   21.8287 C   0  0  0  0  0  0  0  0  0  0  0  0
  -25.8418  -28.8987   21.9239 C   0  0  0  0  0  0  0  0  0  0  0  0
  -31.0874  -21.8401   17.6197 C   0  0  0  0  0  0  0  0  0  0  0  0
  -31.0786  -19.4730   18.1033 C   0  0  0  0  0  0  0  0  0  0  0  0
  -24.5788  -11.4219   17.2682 C   0  0  0  0  0  0  0  0  0  0  0  0
  -27.1632  -27.1003   20.9597 C   0  0  0  0  0  0  0  0  0  0  0  0
  -23.4094   -9.9542   15.8538 C   0  0  0  0  0  0  0  0  0  0  0  0
  -23.4266   -7.7256   14.1757 C   0  0  0  0  0  0  0  0  0  0  0  0
  -23.0347  -10.0851   14.5166 C   0  0  0  0  0  0  0  0  0  0  0  0
  -28.2352  -12.5482   19.0738 C   0  0  0  0  0  0  0  0  0  0  0  0
  -30.2971  -12.5848   19.8367 C   0  0  0  0  0  0  0  0  0  0  0  0
  -32.0482  -24.1067   17.9185 C   0  0  0  0  0  0  0  0  0  0  0  0
  -32.4403  -22.7902   14.4881 C   0  0  0  0  0  0  0  0  0  0  0  0
  -31.3892  -22.6282   15.2765 C   0  0  0  0  0  0  0  0  0  0  0  0
  -29.6732  -10.4493   18.6970 C   0  0  0  0  0  0  0  0  0  0  0  0
  -22.5202  -29.5893   22.2678 C   0  0  0  0  0  0  0  0  0  0  0  0
  -24.2838  -32.0932   23.3367 C   0  0  0  0  0  0  0  0  0  0  0  0
  -27.3699  -33.4727   23.8057 C   0  0  0  0  0  0  0  0  0  0  0  0
  -30.7860  -18.5121   20.4136 C   0  0  0  0  0  0  0  0  0  0  0  0
  -17.7598  -27.8449   22.8624 C   0  0  0  0  0  0  0  0  0  0  0  0
  -24.1833  -28.4301   23.7664 C   0  0  0  0  0  0  0  0  0  0  0  0
  -25.4982  -30.3647   21.9573 C   0  0  0  0  0  0  0  0  0  0  0  0
  -31.7359  -25.5699   18.1696 C   0  0  0  0  0  0  0  0  0  0  0  0
  -18.4440  -29.2060   22.9604 C   0  0  0  0  0  0  0  0  0  0  0  0
  -30.7481  -25.8143   19.2891 C   0  0  0  0  0  0  0  0  0  0  0  0
  -30.4468  -16.1374   23.0447 C   0  0  0  0  0  0  0  0  0  0  0  0
  -19.3142  -29.4556   21.7327 C   0  0  0  0  0  0  0  0  0  0  0  0
  -29.9538  -14.8755   22.3328 C   0  0  0  0  0  0  0  0  0  0  0  0
  -29.8514  -17.4037   22.4317 C   0  0  0  0  0  0  0  0  0  0  0  0
  -29.8394  -23.5314   18.9639 C   0  0  0  0  0  0  0  0  0  0  0  0
  -29.5338  -16.2702   20.2675 C   0  0  0  0  0  0  0  0  0  0  0  0
  -20.4278  -28.4071   21.6234 C   0  0  1  0  0  0  0  0  0  0  0  0
  -23.5186  -29.7475   23.3795 C   0  0  1  0  0  0  0  0  0  0  0  0
  -29.4844  -25.0167   19.0119 C   0  0  1  0  0  0  0  0  0  0  0  0
  -30.1569  -14.9728   20.8081 C   0  0  2  0  0  0  0  0  0  0  0  0
  -28.4905  -35.5463   24.6669 C   0  0  0  0  0  0  0  0  0  0  0  0
  -23.4975  -33.5739   20.7874 C   0  0  0  0  0  0  0  0  0  0  0  0
  -25.3543  -35.1919   21.2375 C   0  0  0  0  0  0  0  0  0  0  0  0
  -23.4706  -34.9756   22.8584 C   0  0  0  0  0  0  0  0  0  0  0  0
  -28.8108  -31.9625   25.9038 C   0  0  0  0  0  0  0  0  0  0  0  0
  -28.4214  -25.2866   20.0747 C   0  0  0  0  0  0  0  0  0  1  0  0
  -25.1813  -33.1215   22.6917 C   0  0  1  0  0  0  0  0  0  0  0  0
  -27.9983  -34.1491   25.0107 C   0  0  2  0  0  0  0  0  0  0  0  0
  -24.3812  -34.1879   21.8915 C   0  0  0  0  0  0  0  0  0  0  0  0
  -28.3627  -13.7532   19.6357 N   0  0  0  0  0  0  0  0  0  0  0  0
  -29.6272  -13.7453   20.0908 N   0  0  0  0  0  0  0  0  0  0  0  0
  -30.9887  -23.2014   18.1013 N   0  0  0  0  0  0  0  0  0  0  0  0
  -24.4825  -30.7613   22.9466 N   0  0  0  0  0  0  0  0  0  0  0  0
  -30.0860  -17.4292   20.9863 N   0  0  0  0  0  0  0  0  0  0  0  0
  -31.5779  -12.4084   20.2253 N   0  0  0  0  0  0  0  0  0  0  0  0
  -28.6496   -9.7610   18.0315 N   0  0  0  0  0  0  0  0  0  0  0  0
  -30.9773  -18.4111   19.0360 N   0  0  0  0  0  0  0  0  0  0  0  0
  -21.4964  -28.7060   22.5525 N   0  0  0  0  0  0  0  0  0  0  0  0
  -26.0062  -33.6720   23.7616 N   0  0  0  0  0  0  0  0  0  0  0  0
  -29.1556  -33.3520   25.5071 N   0  3  0  0  0  0  0  0  0  0  0  0
  -33.1786  -23.8157   17.5182 O   0  0  0  0  0  0  0  0  0  0  0  0
  -30.7786   -9.8837   18.8747 O   0  0  0  0  0  0  0  0  0  0  0  0
  -22.6669  -30.2230   21.2292 O   0  0  0  0  0  0  0  0  0  0  0  0
  -23.4423  -32.4575   24.1619 O   0  0  0  0  0  0  0  0  0  0  0  0
  -28.0238  -32.8347   22.9836 O   0  0  0  0  0  0  0  0  0  0  0  0
  -31.2101  -19.4461   21.0991 O   0  0  0  0  0  0  0  0  0  0  0  0
  -23.4022  -11.0596   16.6878 O   0  0  0  0  0  0  0  0  0  0  0  0
  -28.1089  -26.6790   20.0766 O   0  0  0  0  0  0  0  0  0  1  0  0
  -23.4364   -6.6558   13.3698 F   0  0  0  0  0  0  0  0  0  0  0  0
  -22.6666  -11.2791   14.0320 F   0  0  0  0  0  0  0  0  0  0  0  0
  1  2  1  0  0  0  0
  1  6  2  0  0  0  0
  2  7  2  0  0  0  0
  3 10  2  0  0  0  0
  3 18  1  0  0  0  0
  4 11  1  0  0  0  0
  4 18  2  0  0  0  0
  5  9  2  0  0  0  0
  5 19  1  0  0  0  0
  6 21  1  0  0  0  0
  7 23  1  0  0  0  0
  8 12  2  0  0  0  0
  8 22  1  0  0  0  0
  9 26  1  0  0  0  0
 10 27  1  0  0  0  0
 11 27  2  0  0  0  0
 12 28  1  0  0  0  0
 13 14  2  0  0  0  0
 13 29  1  0  0  0  0
 14 30  1  0  0  0  0
 15 24  1  0  0  0  0
 15 28  2  0  0  0  0
 16 25  1  0  0  0  0
 16 26  2  0  0  0  0
 17 30  2  0  0  0  0
 17 31  1  0  0  0  0
 18 32  1  0  0  0  0
 19 25  2  0  0  0  0
 19 36  1  0  0  0  0
 20 32  1  0  0  0  0
 20 33  2  0  0  0  0
 20 37  1  0  0  0  0
 21 23  2  0  0  0  0
 21 42  1  0  0  0  0
 22 24  2  0  0  0  0
 22 43  1  0  0  0  0
 23 54  1  0  0  0  0
 24 44  1  0  0  0  0
 25 69  1  0  0  0  0
 26 74  1  0  0  0  0
 27 84  1  0  0  0  0
 28 85  1  0  0  0  0
 29 31  2  0  0  0  0
 29 84  1  0  0  0  0
 30 86  1  0  0  0  0
 31 87  1  0  0  0  0
 32 67  2  0  0  0  0
 33 68  1  0  0  0  0
 33 72  1  0  0  0  0
 34 45  1  0  0  0  0
 34 69  1  0  0  0  0
 34 78  2  0  0  0  0
 35 36  2  0  0  0  0
 37 73  1  0  0  0  0
 37 79  2  0  0  0  0
 38 55  1  0  0  0  0
 38 75  1  0  0  0  0
 38 80  2  0  0  0  0
 39 64  1  0  0  0  0
 39 70  1  0  0  0  0
 39 81  2  0  0  0  0
 40 65  1  0  0  0  0
 40 76  1  0  0  0  0
 40 82  2  0  0  0  0
 41 71  1  0  0  0  0
 41 74  1  0  0  0  0
 41 83  2  0  0  0  0
 42 46  1  0  0  0  0
 43 55  1  0  0  0  0
 44 70  1  0  0  0  0
 45 47  1  0  0  0  0
 46 49  1  0  0  0  0
 47 56  1  0  0  0  0
 48 50  1  0  0  0  0
 48 51  1  0  0  0  0
 49 54  1  0  0  0  0
 50 57  1  0  0  0  0
 51 71  1  0  0  0  0
 52 56  1  0  0  0  0
 52 69  1  0  0  0  0
 53 57  1  0  0  0  0
 53 71  1  0  0  0  0
 54 75  1  0  0  0  0
 55 70  1  0  0  0  0
 56 63  1  0  0  0  0
 57 68  1  0  0  0  0
 58 65  1  0  0  0  0
 59 66  1  0  0  0  0
 60 66  1  0  0  0  0
 61 66  1  0  0  0  0
 62 77  1  0  0  0  0
 63 85  1  0  0  0  0
 64 66  1  0  0  0  0
 64 76  1  0  0  0  0
 65 77  1  0  0  0  0
 67 68  1  0  0  0  0
M  CHG  1  77   1
M  ISO  4  41 100  63 101  74 100  85 101
M  END
> <Batch ID>
0063

> <Smiles>
C=Cc1ccc([100NH:0][100C:0](=O)N2CCCC(n3nc(-c4ccc(Oc5ccc(F)cc5F)cc4)c(C(N)=O)c3N)C2)cc1N1CC([101CH2:1][101O:1]c2ccc3c(c2)CN(C(=O)C(NC(=O)C(C)NC)C(C)(C)C)C(C(=O)NC2CCCc4ccccc42)C3)CCC1=O

> <Shape>
0.275

> <Color>
0.090

> <Negative vol penalty>
0.000

$$$$

  -OEChem-04042323123D

 84 92  0     1  0  0  0  0  0999 V2000
  -24.6730  -35.4338   22.1968 C   0  0  0  0  0  0  0  0  0  0  0  0
  -25.4500  -34.2808   22.1481 C   0  0  0  0  0  0  0  0  0  0  0  0
  -23.8207  -12.2015   20.8637 C   0  0  0  0  0  0  0  0  0  0  0  0
  -26.1692  -12.1833   21.4304 C   0  0  0  0  0  0  0  0  0  0  0  0
  -23.3630  -35.3707   22.6700 C   0  0  0  0  0  0  0  0  0  0  0  0
  -24.9177  -33.0642   22.5736 C   0  0  0  0  0  0  0  0  0  0  0  0
  -25.9730  -29.2646   19.3965 C   0  0  0  0  0  0  0  0  0  0  0  0
  -32.0560  -19.4174   20.3037 C   0  0  0  0  0  0  0  0  0  0  0  0
  -30.9581  -18.7142   19.8079 C   0  0  0  0  0  0  0  0  0  0  0  0
  -23.8503  -10.8171   20.6965 C   0  0  0  0  0  0  0  0  0  0  0  0
  -26.1988  -10.7988   21.2633 C   0  0  0  0  0  0  0  0  0  0  0  0
  -27.2541  -28.7183   19.4605 C   0  0  0  0  0  0  0  0  0  0  0  0
  -23.2222   -7.2435   20.4722 C   0  0  0  0  0  0  0  0  0  0  0  0
  -22.1822   -6.5005   21.0307 C   0  0  0  0  0  0  0  0  0  0  0  0
  -30.0461  -20.7664   18.9169 C   0  0  0  0  0  0  0  0  0  0  0  0
  -26.4009  -26.8875   20.7794 C   0  0  0  0  0  0  0  0  0  0  0  0
  -22.7714   -7.3245   23.2241 C   0  0  0  0  0  0  0  0  0  0  0  0
  -24.9802  -12.8847   21.2306 C   0  0  0  0  0  0  0  0  0  0  0  0
  -31.1440  -21.4696   19.4127 C   0  0  0  0  0  0  0  0  0  0  0  0
  -24.6703  -15.0229   22.5870 C   0  0  0  0  0  0  0  0  0  0  0  0
  -22.8113  -34.1510   23.0925 C   0  0  0  0  0  0  0  0  0  0  0  0
  -24.8964  -28.6311   20.0338 C   0  0  0  0  0  0  0  0  0  0  0  0
  -23.5996  -32.9850   23.0542 C   0  0  0  0  0  0  0  0  0  0  0  0
  -25.1067  -27.4264   20.7199 C   0  0  0  0  0  0  0  0  0  0  0  0
  -32.1489  -20.7951   20.1061 C   0  0  0  0  0  0  0  0  0  0  0  0
  -29.9531  -19.3887   19.1145 C   0  0  0  0  0  0  0  0  0  0  0  0
  -25.0393  -10.1157   20.8964 C   0  0  0  0  0  0  0  0  0  0  0  0
  -27.4687  -27.5311   20.1545 C   0  0  0  0  0  0  0  0  0  0  0  0
  -24.0369   -8.0270   21.2897 C   0  0  0  0  0  0  0  0  0  0  0  0
  -21.9568   -6.5410   22.4066 C   0  0  0  0  0  0  0  0  0  0  0  0
  -23.8115   -8.0675   22.6656 C   0  0  0  0  0  0  0  0  0  0  0  0
  -24.9504  -14.3149   21.4029 C   0  0  0  0  0  0  0  0  0  0  0  0
  -24.7681  -16.3450   22.2279 C   0  0  0  0  0  0  0  0  0  0  0  0
  -31.2181  -22.9357   19.1876 C   0  0  0  0  0  0  0  0  0  0  0  0
  -24.3505  -14.5295   23.8947 C   0  0  0  0  0  0  0  0  0  0  0  0
  -22.8876  -29.4253   22.3657 C   0  0  0  0  0  0  0  0  0  0  0  0
  -21.4640  -26.6228   21.5646 C   0  0  0  0  0  0  0  0  0  0  0  0
  -30.0701  -25.0726   19.6470 C   0  0  0  0  0  0  0  0  0  0  0  0
  -21.7496  -23.5260   20.1593 C   0  0  0  0  0  0  0  0  0  0  0  0
  -27.7530  -19.1905   17.9036 C   0  0  0  0  0  0  0  0  0  0  0  0
  -21.4062  -34.1409   23.6406 C   0  0  0  0  0  0  0  0  0  0  0  0
  -23.5157  -29.2192   19.9328 C   0  0  0  0  0  0  0  0  0  0  0  0
  -23.9808  -26.6965   21.4039 C   0  0  0  0  0  0  0  0  0  0  0  0
  -20.7939  -32.7450   23.7212 C   0  0  0  0  0  0  0  0  0  0  0  0
  -24.2365  -19.2507   18.4585 C   0  0  0  0  0  0  0  0  0  0  0  0
  -21.7834  -31.7629   24.3401 C   0  0  0  0  0  0  0  0  0  0  0  0
  -23.9958  -18.0599   19.3892 C   0  0  0  0  0  0  0  0  0  0  0  0
  -25.3253  -18.9547   17.4286 C   0  0  0  0  0  0  0  0  0  0  0  0
  -26.3550  -17.2851   18.9190 C   0  0  0  0  0  0  0  0  0  0  0  0
  -23.0497  -31.6422   23.4837 C   0  0  1  0  0  0  0  0  0  0  0  0
  -22.5871  -28.7596   21.0526 C   0  0  1  0  0  0  0  0  0  0  0  0
  -25.3122  -17.5588   20.0150 C   0  0  2  0  0  0  0  0  0  0  0  0
  -33.3355  -21.5237   20.6476 C   0  0  0  0  0  0  0  0  0  0  0  0
  -20.4247  -21.4483   19.6848 C   0  0  0  0  0  0  0  0  0  0  0  0
  -21.6758  -25.8201   24.5007 C   0  0  0  0  0  0  0  0  0  0  0  0
  -21.2393  -23.4527   23.8128 C   0  0  0  0  0  0  0  0  0  0  0  0
  -19.5131  -25.2067   23.4049 C   0  0  0  0  0  0  0  0  0  0  0  0
  -22.1375  -23.8060   17.2387 C   0  0  0  0  0  0  0  0  0  0  0  0
  -28.8122  -25.5759   20.3231 C   0  0  0  0  0  0  0  0  0  1  0  0
  -21.6142  -25.1849   21.9989 C   0  0  1  0  0  0  0  0  0  0  0  0
  -20.8847  -22.7949   19.1484 C   0  0  2  0  0  0  0  0  0  0  0  0
  -21.0324  -24.9306   23.4182 C   0  0  0  0  0  0  0  0  0  0  0  0
  -25.2067  -15.1206   20.3688 N   0  0  0  0  0  0  0  0  0  0  0  0
  -25.0880  -16.3484   20.9020 N   0  0  0  0  0  0  0  0  0  0  0  0
  -22.6502  -27.3148   21.2820 N   0  0  0  0  0  0  0  0  0  0  0  0
  -26.5437  -18.4890   18.0945 N   0  0  0  0  0  0  0  0  0  0  0  0
  -24.6107  -17.4933   22.9200 N   0  0  0  0  0  0  0  0  0  0  0  0
  -24.2919  -13.1429   24.0897 N   0  0  0  0  0  0  0  0  0  0  0  0
  -28.8370  -18.6743   18.6129 N   0  0  0  0  0  0  0  0  0  0  0  0
  -30.1699  -23.6824   19.7227 N   0  0  0  0  0  0  0  0  0  0  0  0
  -22.8017  -30.8040   22.3303 N   0  0  0  0  0  0  0  0  0  0  0  0
  -21.0044  -24.3756   20.9494 N   0  0  0  0  0  0  0  0  0  0  0  0
  -21.6448  -22.5637   17.8875 N   0  3  0  0  0  0  0  0  0  0  0  0
  -32.1821  -23.4000   18.5849 O   0  0  0  0  0  0  0  0  0  0  0  0
  -24.1073  -15.2958   24.8576 O   0  0  0  0  0  0  0  0  0  0  0  0
  -23.1747  -28.7388   23.3394 O   0  0  0  0  0  0  0  0  0  0  0  0
  -20.3353  -27.1119   21.4723 O   0  0  0  0  0  0  0  0  0  0  0  0
  -30.8792  -25.8216   19.1066 O   0  0  0  0  0  0  0  0  0  0  0  0
  -22.9642  -23.3572   20.2425 O   0  0  0  0  0  0  0  0  0  0  0  0
  -27.8157  -20.1926   17.1868 O   0  0  0  0  0  0  0  0  0  0  0  0
  -25.0685   -8.7647   20.7336 O   0  0  0  0  0  0  0  0  0  0  0  0
  -28.7183  -26.9960   20.2190 O   0  0  0  0  0  0  0  0  0  1  0  0
  -20.9571   -5.8286   22.9426 F   0  0  0  0  0  0  0  0  0  0  0  0
  -24.5900   -8.8192   23.4558 F   0  0  0  0  0  0  0  0  0  0  0  0
  1  2  1  0  0  0  0
  1  5  2  0  0  0  0
  2  6  2  0  0  0  0
  3 10  2  0  0  0  0
  3 18  1  0  0  0  0
  4 11  1  0  0  0  0
  4 18  2  0  0  0  0
  5 21  1  0  0  0  0
  6 23  1  0  0  0  0
  7 12  2  0  0  0  0
  7 22  1  0  0  0  0
  8  9  2  0  0  0  0
  8 25  1  0  0  0  0
  9 26  1  0  0  0  0
 10 27  1  0  0  0  0
 11 27  2  0  0  0  0
 12 28  1  0  0  0  0
 13 14  2  0  0  0  0
 13 29  1  0  0  0  0
 14 30  1  0  0  0  0
 15 19  1  0  0  0  0
 15 26  2  0  0  0  0
 16 24  1  0  0  0  0
 16 28  2  0  0  0  0
 17 30  2  0  0  0  0
 17 31  1  0  0  0  0
 18 32  1  0  0  0  0
 19 25  2  0  0  0  0
 19 34  1  0  0  0  0
 20 32  1  0  0  0  0
 20 33  2  0  0  0  0
 20 35  1  0  0  0  0
 21 23  2  0  0  0  0
 21 41  1  0  0  0  0
 22 24  2  0  0  0  0
 22 42  1  0  0  0  0
 23 50  1  0  0  0  0
 24 43  1  0  0  0  0
 25 53  1  0  0  0  0
 26 69  1  0  0  0  0
 27 81  1  0  0  0  0
 28 82  1  0  0  0  0
 29 31  2  0  0  0  0
 29 81  1  0  0  0  0
 30 83  1  0  0  0  0
 31 84  1  0  0  0  0
 32 63  2  0  0  0  0
 33 64  1  0  0  0  0
 33 67  1  0  0  0  0
 34 70  1  0  0  0  0
 34 74  2  0  0  0  0
 35 68  1  0  0  0  0
 35 75  2  0  0  0  0
 36 51  1  0  0  0  0
 36 71  1  0  0  0  0
 36 76  2  0  0  0  0
 37 60  1  0  0  0  0
 37 65  1  0  0  0  0
 37 77  2  0  0  0  0
 38 59  1  0  0  0  0
 38 70  1  0  0  0  0
 38 78  2  0  0  0  0
 39 61  1  0  0  0  0
 39 72  1  0  0  0  0
 39 79  2  0  0  0  0
 40 66  1  0  0  0  0
 40 69  1  0  0  0  0
 40 80  2  0  0  0  0
 41 44  1  0  0  0  0
 42 51  1  0  0  0  0
 43 65  1  0  0  0  0
 44 46  1  0  0  0  0
 45 47  1  0  0  0  0
 45 48  1  0  0  0  0
 46 50  1  0  0  0  0
 47 52  1  0  0  0  0
 48 66  1  0  0  0  0
 49 52  1  0  0  0  0
 49 66  1  0  0  0  0
 50 71  1  0  0  0  0
 51 65  1  0  0  0  0
 52 64  1  0  0  0  0
 54 61  1  0  0  0  0
 55 62  1  0  0  0  0
 56 62  1  0  0  0  0
 57 62  1  0  0  0  0
 58 73  1  0  0  0  0
 59 82  1  0  0  0  0
 60 62  1  0  0  0  0
 60 72  1  0  0  0  0
 61 73  1  0  0  0  0
 63 64  1  0  0  0  0
M  CHG  1  73   1
M  ISO  4  40 100  59 101  69 100  82 101
M  END
> <Batch ID>
0063

> <Smiles>
CNC(C)C(=O)NC(C(=O)N1Cc2cc([101O:1][101CH2:1]C(=O)NC(=O)c3cc([100NH:0][100C:0](=O)N4CCCC(n5nc(-c6ccc(Oc7ccc(F)cc7F)cc6)c(C(N)=O)c5N)C4)ccc3C)ccc2CC1C(=O)NC1CCCc2ccccc21)C(C)(C)C

> <Shape>
0.227

> <Color>
0.088

> <Negative vol penalty>
0.000

$$$$

  -OEChem-04042323123D

 84 92  0     1  0  0  0  0  0999 V2000
  -19.3941  -28.4692   21.6187 C   0  0  0  0  0  0  0  0  0  0  0  0
  -20.4386  -27.7936   22.2416 C   0  0  0  0  0  0  0  0  0  0  0  0
  -23.0637   -9.7616   19.9912 C   0  0  0  0  0  0  0  0  0  0  0  0
  -23.6194  -10.0346   22.3265 C   0  0  0  0  0  0  0  0  0  0  0  0
  -32.3729  -17.7403   23.4320 C   0  0  0  0  0  0  0  0  0  0  0  0
  -18.1690  -28.6082   22.2695 C   0  0  0  0  0  0  0  0  0  0  0  0
  -20.2589  -27.2576   23.5163 C   0  0  0  0  0  0  0  0  0  0  0  0
  -22.1031  -22.5590   23.9257 C   0  0  0  0  0  0  0  0  0  0  0  0
  -31.8576  -16.7578   22.5866 C   0  0  0  0  0  0  0  0  0  0  0  0
  -22.2887   -8.6455   20.3061 C   0  0  0  0  0  0  0  0  0  0  0  0
  -22.8443   -8.9185   22.6414 C   0  0  0  0  0  0  0  0  0  0  0  0
  -23.4833  -22.4273   24.0728 C   0  0  0  0  0  0  0  0  0  0  0  0
  -23.1481   -5.5542   22.4998 C   0  0  0  0  0  0  0  0  0  0  0  0
  -23.6875   -4.6190   23.3830 C   0  0  0  0  0  0  0  0  0  0  0  0
  -23.1950  -22.1241   26.4485 C   0  0  0  0  0  0  0  0  0  0  0  0
  -29.6394  -17.6695   22.8794 C   0  0  0  0  0  0  0  0  0  0  0  0
  -21.8448   -4.9900   24.9009 C   0  0  0  0  0  0  0  0  0  0  0  0
  -23.7291  -10.4562   21.0014 C   0  0  0  0  0  0  0  0  0  0  0  0
  -31.5216  -18.6874   24.0011 C   0  0  0  0  0  0  0  0  0  0  0  0
  -24.1066  -12.9503   20.6209 C   0  0  0  0  0  0  0  0  0  0  0  0
  -17.9710  -28.0652   23.5488 C   0  0  0  0  0  0  0  0  0  0  0  0
  -21.2580  -22.4850   25.0423 C   0  0  0  0  0  0  0  0  0  0  0  0
  -19.0303  -27.3906   24.1854 C   0  0  0  0  0  0  0  0  0  0  0  0
  -21.8043  -22.2527   26.3126 C   0  0  0  0  0  0  0  0  0  0  0  0
  -30.4908  -16.7224   22.3103 C   0  0  0  0  0  0  0  0  0  0  0  0
  -30.1548  -18.6520   23.7247 C   0  0  0  0  0  0  0  0  0  0  0  0
  -22.1790   -8.2239   21.6311 C   0  0  0  0  0  0  0  0  0  0  0  0
  -24.0297  -22.2127   25.3347 C   0  0  0  0  0  0  0  0  0  0  0  0
  -21.9572   -6.2073   22.8171 C   0  0  0  0  0  0  0  0  0  0  0  0
  -23.0358   -4.3369   24.5836 C   0  0  0  0  0  0  0  0  0  0  0  0
  -21.3055   -5.9252   24.0177 C   0  0  0  0  0  0  0  0  0  0  0  0
  -24.5303  -11.6089   20.6767 C   0  0  0  0  0  0  0  0  0  0  0  0
  -25.2343  -13.6522   20.2714 C   0  0  0  0  0  0  0  0  0  0  0  0
  -32.9994  -20.5841   24.4849 C   0  0  0  0  0  0  0  0  0  0  0  0
  -32.0971  -19.6992   24.8795 C   0  0  0  0  0  0  0  0  0  0  0  0
  -27.3154  -20.8230   24.8692 C   0  0  0  0  0  0  0  0  0  0  0  0
  -26.0019  -21.0669   24.8171 C   0  0  0  0  0  0  0  0  0  1  0  0
  -22.8098  -13.5115   20.8634 C   0  0  0  0  0  0  0  0  0  0  0  0
  -27.8923  -19.6814   24.1010 C   0  0  0  0  0  0  0  0  0  0  0  0
  -19.2272  -24.4812   26.4546 C   0  0  0  0  0  0  0  0  0  0  0  0
  -18.5366  -21.8796   28.2649 C   0  0  0  0  0  0  0  0  0  0  0  0
  -19.5424  -18.8637   29.5058 C   0  0  0  0  0  0  0  0  0  0  0  0
  -30.6747  -14.7097   20.8065 C   0  0  0  0  0  0  0  0  0  0  0  0
  -16.6441  -28.2819   24.2321 C   0  0  0  0  0  0  0  0  0  0  0  0
  -19.7692  -22.6025   24.8632 C   0  0  0  0  0  0  0  0  0  0  0  0
  -20.9387  -22.1450   27.5405 C   0  0  0  0  0  0  0  0  0  0  0  0
  -16.4166  -27.3599   25.4272 C   0  0  0  0  0  0  0  0  0  0  0  0
  -29.7472  -12.0375   18.6440 C   0  0  0  0  0  0  0  0  0  0  0  0
  -17.6544  -27.3255   26.3180 C   0  0  0  0  0  0  0  0  0  0  0  0
  -28.2724  -11.7981   18.9755 C   0  0  0  0  0  0  0  0  0  0  0  0
  -30.5556  -12.4041   19.8873 C   0  0  0  0  0  0  0  0  0  0  0  0
  -28.5425  -13.2845   21.0015 C   0  0  0  0  0  0  0  0  0  0  0  0
  -18.8663  -26.7737   25.5575 C   0  0  1  0  0  0  0  0  0  0  0  0
  -19.0454  -23.0236   26.1384 C   0  0  1  0  0  0  0  0  0  0  0  0
  -27.6750  -12.9759   19.7703 C   0  0  2  0  0  0  0  0  0  0  0  0
  -18.7761  -16.9885   30.9870 C   0  0  0  0  0  0  0  0  0  0  0  0
  -19.0892  -23.5994   30.7239 C   0  0  0  0  0  0  0  0  0  0  0  0
  -19.2446  -21.4965   32.0736 C   0  0  0  0  0  0  0  0  0  0  0  0
  -17.1073  -22.0883   30.9317 C   0  0  0  0  0  0  0  0  0  0  0  0
  -19.7039  -16.8992   27.2982 C   0  0  0  0  0  0  0  0  0  0  0  0
  -19.0729  -21.2993   29.5512 C   0  0  1  0  0  0  0  0  0  0  0  0
  -18.8474  -17.5153   29.5622 C   0  0  2  0  0  0  0  0  0  0  0  0
  -18.6453  -22.1248   30.7974 C   0  0  0  0  0  0  0  0  0  0  0  0
  -25.8259  -11.4649   20.3857 N   0  0  0  0  0  0  0  0  0  0  0  0
  -26.2261  -12.7248   20.1437 N   0  0  0  0  0  0  0  0  0  0  0  0
  -19.4895  -22.2729   27.3146 N   0  0  0  0  0  0  0  0  0  0  0  0
  -29.9327  -13.5299   20.5867 N   0  0  0  0  0  0  0  0  0  0  0  0
  -25.4642  -14.9662   20.0638 N   0  0  0  0  0  0  0  0  0  0  0  0
  -21.7627  -12.6479   21.2128 N   0  0  0  0  0  0  0  0  0  0  0  0
  -29.2657  -19.6000   24.2882 N   0  0  0  0  0  0  0  0  0  0  0  0
  -29.9678  -15.7237   21.4520 N   0  0  0  0  0  0  0  0  0  0  0  0
  -18.7874  -25.3320   25.4586 N   0  0  0  0  0  0  0  0  0  0  0  0
  -18.6424  -19.9057   29.5811 N   0  0  0  0  0  0  0  0  0  0  0  0
  -19.5797  -16.5199   28.7292 N   0  3  0  0  0  0  0  0  0  0  0  0
  -22.5823  -14.7405   20.7570 O   0  0  0  0  0  0  0  0  0  0  0  0
  -27.1830  -18.9539   23.4159 O   0  0  0  0  0  0  0  0  0  0  0  0
  -19.7279  -24.8096   27.5237 O   0  0  0  0  0  0  0  0  0  0  0  0
  -17.3170  -21.9736   28.1061 O   0  0  0  0  0  0  0  0  0  0  0  0
  -20.7619  -18.9810   29.4088 O   0  0  0  0  0  0  0  0  0  0  0  0
  -31.8422  -14.8227   20.4241 O   0  0  0  0  0  0  0  0  0  0  0  0
  -21.4226   -7.1350   21.9388 O   0  0  0  0  0  0  0  0  0  0  0  0
  -25.3765  -22.0845   25.4812 O   0  0  0  0  0  0  0  0  0  1  0  0
  -23.5530   -3.4376   25.4310 F   0  0  0  0  0  0  0  0  0  0  0  0
  -20.1604   -6.5486   24.3275 F   0  0  0  0  0  0  0  0  0  0  0  0
  1  2  1  0  0  0  0
  1  6  2  0  0  0  0
  2  7  2  0  0  0  0
  3 10  2  0  0  0  0
  3 18  1  0  0  0  0
  4 11  1  0  0  0  0
  4 18  2  0  0  0  0
  5  9  2  0  0  0  0
  5 19  1  0  0  0  0
  6 21  1  0  0  0  0
  7 23  1  0  0  0  0
  8 12  2  0  0  0  0
  8 22  1  0  0  0  0
  9 25  1  0  0  0  0
 10 27  1  0  0  0  0
 11 27  2  0  0  0  0
 12 28  1  0  0  0  0
 13 14  2  0  0  0  0
 13 29  1  0  0  0  0
 14 30  1  0  0  0  0
 15 24  1  0  0  0  0
 15 28  2  0  0  0  0
 16 25  2  0  0  0  0
 16 26  1  0  0  0  0
 17 30  2  0  0  0  0
 17 31  1  0  0  0  0
 18 32  1  0  0  0  0
 19 26  2  0  0  0  0
 19 35  1  0  0  0  0
 20 32  1  0  0  0  0
 20 33  2  0  0  0  0
 20 38  1  0  0  0  0
 21 23  2  0  0  0  0
 21 44  1  0  0  0  0
 22 24  2  0  0  0  0
 22 45  1  0  0  0  0
 23 53  1  0  0  0  0
 24 46  1  0  0  0  0
 25 71  1  0  0  0  0
 26 70  1  0  0  0  0
 27 81  1  0  0  0  0
 28 82  1  0  0  0  0
 29 31  2  0  0  0  0
 29 81  1  0  0  0  0
 30 83  1  0  0  0  0
 31 84  1  0  0  0  0
 32 64  2  0  0  0  0
 33 65  1  0  0  0  0
 33 68  1  0  0  0  0
 34 35  2  0  0  0  0
 36 37  2  0  0  0  0
 36 39  1  0  0  0  0
 37 82  1  0  0  0  0
 38 69  1  0  0  0  0
 38 75  2  0  0  0  0
 39 70  1  0  0  0  0
 39 76  2  0  0  0  0
 40 54  1  0  0  0  0
 40 72  1  0  0  0  0
 40 77  2  0  0  0  0
 41 61  1  0  0  0  0
 41 66  1  0  0  0  0
 41 78  2  0  0  0  0
 42 62  1  0  0  0  0
 42 73  1  0  0  0  0
 42 79  2  0  0  0  0
 43 67  1  0  0  0  0
 43 71  1  0  0  0  0
 43 80  2  0  0  0  0
 44 47  1  0  0  0  0
 45 54  1  0  0  0  0
 46 66  1  0  0  0  0
 47 49  1  0  0  0  0
 48 50  1  0  0  0  0
 48 51  1  0  0  0  0
 49 53  1  0  0  0  0
 50 55  1  0  0  0  0
 51 67  1  0  0  0  0
 52 55  1  0  0  0  0
 52 67  1  0  0  0  0
 53 72  1  0  0  0  0
 54 66  1  0  0  0  0
 55 65  1  0  0  0  0
 56 62  1  0  0  0  0
 57 63  1  0  0  0  0
 58 63  1  0  0  0  0
 59 63  1  0  0  0  0
 60 74  1  0  0  0  0
 61 63  1  0  0  0  0
 61 73  1  0  0  0  0
 62 74  1  0  0  0  0
 64 65  1  0  0  0  0
M  CHG  1  74   1
M  ISO  4  37 101  43 100  71 100  82 101
M  END
> <Batch ID>
0063

> <Smiles>
C=Cc1ccc([100NH:0][100C:0](=O)N2CCCC(n3nc(-c4ccc(Oc5ccc(F)cc5F)cc4)c(C(N)=O)c3N)C2)cc1NC(=O)C=[101CH:1][101O:1]c1ccc2c(c1)CN(C(=O)C(NC(=O)C(C)NC)C(C)(C)C)C(C(=O)NC1CCCc3ccccc31)C2

> <Shape>
0.207

> <Color>
0.203

> <Negative vol penalty>
0.000

$$$$

  -OEChem-04042323123D

 88 97  0     1  0  0  0  0  0999 V2000
  -26.6415  -32.2557   28.4126 C   0  0  0  0  0  0  0  0  0  0  0  0
  -26.4998  -30.9608   27.9242 C   0  0  0  0  0  0  0  0  0  0  0  0
  -22.9802   -9.9367   19.9574 C   0  0  0  0  0  0  0  0  0  0  0  0
  -23.7253   -9.9187   22.2555 C   0  0  0  0  0  0  0  0  0  0  0  0
  -26.6528  -33.3351   27.5301 C   0  0  0  0  0  0  0  0  0  0  0  0
  -26.3682  -30.7446   26.5529 C   0  0  0  0  0  0  0  0  0  0  0  0
  -29.2435  -26.9155   24.9052 C   0  0  0  0  0  0  0  0  0  0  0  0
  -22.2031   -8.8042   20.2004 C   0  0  0  0  0  0  0  0  0  0  0  0
  -22.9481   -8.7862   22.4986 C   0  0  0  0  0  0  0  0  0  0  0  0
  -28.7811  -25.6225   25.1462 C   0  0  0  0  0  0  0  0  0  0  0  0
  -23.1504   -5.4584   21.9369 C   0  0  0  0  0  0  0  0  0  0  0  0
  -23.7326   -4.4152   22.6568 C   0  0  0  0  0  0  0  0  0  0  0  0
  -31.9637  -17.1663   21.6467 C   0  0  0  0  0  0  0  0  0  0  0  0
  -27.9655  -25.4982   22.8793 C   0  0  0  0  0  0  0  0  0  0  0  0
  -29.9031  -17.6228   22.8225 C   0  0  0  0  0  0  0  0  0  0  0  0
  -22.0257   -4.6330   24.3528 C   0  0  0  0  0  0  0  0  0  0  0  0
  -23.7414  -10.4940   20.9849 C   0  0  0  0  0  0  0  0  0  0  0  0
  -32.4910  -18.3749   22.1016 C   0  0  0  0  0  0  0  0  0  0  0  0
  -24.1539  -13.0089   20.8718 C   0  0  0  0  0  0  0  0  0  0  0  0
  -26.5310  -33.1312   26.1465 C   0  0  0  0  0  0  0  0  0  0  0  0
  -29.0604  -27.5146   23.6507 C   0  0  0  0  0  0  0  0  0  0  0  0
  -26.3765  -31.8223   25.6512 C   0  0  0  0  0  0  0  0  0  0  0  0
  -28.4288  -26.7980   22.6242 C   0  0  0  0  0  0  0  0  0  0  0  0
  -31.7244  -19.2074   22.9170 C   0  0  0  0  0  0  0  0  0  0  0  0
  -30.4304  -18.8313   23.2775 C   0  0  0  0  0  0  0  0  0  0  0  0
  -30.6697  -16.7903   22.0071 C   0  0  0  0  0  0  0  0  0  0  0  0
  -22.1870   -8.2290   21.4710 C   0  0  0  0  0  0  0  0  0  0  0  0
  -28.1394  -24.9147   24.1340 C   0  0  0  0  0  0  0  0  0  0  0  0
  -22.0058   -6.0890   22.4249 C   0  0  0  0  0  0  0  0  0  0  0  0
  -23.1702   -4.0025   23.8648 C   0  0  0  0  0  0  0  0  0  0  0  0
  -21.4435   -5.6763   23.6329 C   0  0  0  0  0  0  0  0  0  0  0  0
  -24.5448  -11.6635   20.7343 C   0  0  0  0  0  0  0  0  0  0  0  0
  -25.2687  -13.7284   20.5169 C   0  0  0  0  0  0  0  0  0  0  0  0
  -29.2238  -20.9904   23.8356 C   0  0  0  0  0  0  0  0  0  0  0  0
  -33.8456  -18.7402   21.7088 C   0  0  0  0  0  0  0  0  0  0  0  0
  -22.8955  -13.5590   21.2836 C   0  0  0  0  0  0  0  0  0  0  0  0
  -27.5119  -30.0823   22.5957 C   0  0  0  0  0  0  0  0  0  0  0  0
  -28.9450  -29.3128   19.7892 C   0  0  0  0  0  0  0  0  0  0  0  0
  -30.3768  -26.9136   17.8295 C   0  0  0  0  0  0  0  0  0  0  0  0
  -30.7605  -14.6217   20.7284 C   0  0  0  0  0  0  0  0  0  0  0  0
  -26.5013  -34.3328   25.2356 C   0  0  0  0  0  0  0  0  0  0  0  0
  -29.5888  -28.9002   23.3987 C   0  0  0  0  0  0  0  0  0  0  0  0
  -28.2255  -27.3885   21.2537 C   0  0  0  0  0  0  0  0  0  0  0  0
  -26.7326  -33.9892   23.7663 C   0  0  0  0  0  0  0  0  0  0  0  0
  -29.5949  -12.2437   18.3486 C   0  0  0  0  0  0  0  0  0  0  0  0
  -25.8807  -32.7917   23.3576 C   0  0  0  0  0  0  0  0  0  0  0  0
  -28.1450  -11.9914   18.7684 C   0  0  0  0  0  0  0  0  0  0  0  0
  -28.6630  -20.4678   26.0887 C   0  0  0  0  0  0  0  0  0  0  0  0
  -30.5082  -12.4450   19.5565 C   0  0  0  0  0  0  0  0  0  0  0  0
  -29.0738  -19.1999   25.3671 C   0  0  0  0  0  0  0  0  0  0  0  0
  -28.6133  -13.2197   20.9269 C   0  0  0  0  0  0  0  0  0  0  0  0
  -26.2560  -31.5453   24.1683 C   0  0  1  0  0  0  0  0  0  0  0  0
  -28.2795  -21.4048   24.9526 C   0  0  1  0  0  0  0  0  0  0  0  0
  -28.8909  -29.6041   22.2390 C   0  0  1  0  0  0  0  0  0  0  0  0
  -27.6436  -13.0755   19.7426 C   0  0  2  0  0  0  0  0  0  0  0  0
  -32.2920  -20.5038   23.4056 C   0  0  0  0  0  0  0  0  0  0  0  0
  -31.4201  -26.5781   15.5719 C   0  0  0  0  0  0  0  0  0  0  0  0
  -26.1778  -29.3688   18.5048 C   0  0  0  0  0  0  0  0  0  0  0  0
  -27.1356  -28.1287   16.5522 C   0  0  0  0  0  0  0  0  0  0  0  0
  -27.9897  -30.4015   17.1245 C   0  0  0  0  0  0  0  0  0  0  0  0
  -32.9595  -26.0897   19.0169 C   0  0  0  0  0  0  0  0  0  0  0  0
  -28.4033  -22.8711   25.3215 C   0  0  0  0  0  0  0  0  0  1  0  0
  -28.5859  -28.4433   18.6085 C   0  0  1  0  0  0  0  0  0  0  0  0
  -31.6713  -26.9009   17.0366 C   0  0  2  0  0  0  0  0  0  0  0  0
  -27.4742  -29.0749   17.7238 C   0  0  0  0  0  0  0  0  0  0  0  0
  -25.8092  -11.5333   20.3239 N   0  0  0  0  0  0  0  0  0  0  0  0
  -34.7909  -17.8878   21.4637 N   0  0  0  0  0  0  0  0  0  0  0  0
  -26.2224  -12.8062   20.2004 N   0  0  0  0  0  0  0  0  0  0  0  0
  -29.6284  -19.6678   24.1105 N   0  0  0  0  0  0  0  0  0  0  0  0
  -28.7542  -28.7486   21.0585 N   0  0  0  0  0  0  0  0  0  0  0  0
  -29.9724  -13.4894   20.4322 N   0  0  0  0  0  0  0  0  0  0  0  0
  -25.5164  -15.0536   20.4477 N   0  0  0  0  0  0  0  0  0  0  0  0
  -21.8566  -12.6777   21.6127 N   0  0  0  0  0  0  0  0  0  0  0  0
  -30.1338  -15.5629   21.5444 N   0  0  0  0  0  0  0  0  0  0  0  0
  -27.4794  -30.9618   23.6609 N   0  0  0  0  0  0  0  0  0  0  0  0
  -29.8343  -28.1792   17.9014 N   0  0  0  0  0  0  0  0  0  0  0  0
  -32.6070  -25.8809   17.5889 N   0  3  0  0  0  0  0  0  0  0  0  0
  -29.4831  -21.7053   22.8784 O   0  0  0  0  0  0  0  0  0  0  0  0
  -22.6931  -14.7956   21.3417 O   0  0  0  0  0  0  0  0  0  0  0  0
  -26.5488  -29.6839   21.9511 O   0  0  0  0  0  0  0  0  0  0  0  0
  -29.3855  -30.4481   19.5924 O   0  0  0  0  0  0  0  0  0  0  0  0
  -29.8932  -25.9013   18.3314 O   0  0  0  0  0  0  0  0  0  0  0  0
  -31.8969  -14.7598   20.2683 O   0  0  0  0  0  0  0  0  0  0  0  0
  -21.4286   -7.1241   21.7086 O   0  0  0  0  0  0  0  0  0  0  0  0
  -27.6864  -23.6527   24.3667 O   0  0  0  0  0  0  0  0  0  1  0  0
  -23.7285   -2.9997   24.5553 F   0  0  0  0  0  0  0  0  0  0  0  0
  -20.3433   -6.2775   24.1062 F   0  0  0  0  0  0  0  0  0  0  0  0
  -34.1565  -20.0429   21.5872 F   0  0  0  0  0  0  0  0  0  0  0  0
  1  2  1  0  0  0  0
  1  5  2  0  0  0  0
  2  6  2  0  0  0  0
  3  8  2  0  0  0  0
  3 17  1  0  0  0  0
  4  9  1  0  0  0  0
  4 17  2  0  0  0  0
  5 20  1  0  0  0  0
  6 22  1  0  0  0  0
  7 10  2  0  0  0  0
  7 21  1  0  0  0  0
  8 27  1  0  0  0  0
  9 27  2  0  0  0  0
 10 28  1  0  0  0  0
 11 12  2  0  0  0  0
 11 29  1  0  0  0  0
 12 30  1  0  0  0  0
 13 18  2  0  0  0  0
 13 26  1  0  0  0  0
 14 23  1  0  0  0  0
 14 28  2  0  0  0  0
 15 25  1  0  0  0  0
 15 26  2  0  0  0  0
 16 30  2  0  0  0  0
 16 31  1  0  0  0  0
 17 32  1  0  0  0  0
 18 24  1  0  0  0  0
 18 35  1  0  0  0  0
 19 32  1  0  0  0  0
 19 33  2  0  0  0  0
 19 36  1  0  0  0  0
 20 22  2  0  0  0  0
 20 41  1  0  0  0  0
 21 23  2  0  0  0  0
 21 42  1  0  0  0  0
 22 52  1  0  0  0  0
 23 43  1  0  0  0  0
 24 25  2  0  0  0  0
 24 56  1  0  0  0  0
 25 69  1  0  0  0  0
 26 74  1  0  0  0  0
 27 84  1  0  0  0  0
 28 85  1  0  0  0  0
 29 31  2  0  0  0  0
 29 84  1  0  0  0  0
 30 86  1  0  0  0  0
 31 87  1  0  0  0  0
 32 66  2  0  0  0  0
 33 68  1  0  0  0  0
 33 72  1  0  0  0  0
 34 53  1  0  0  0  0
 34 69  1  0  0  0  0
 34 78  2  0  0  0  0
 35 67  2  0  0  0  0
 35 88  1  0  0  0  0
 36 73  1  0  0  0  0
 36 79  2  0  0  0  0
 37 54  1  0  0  0  0
 37 75  1  0  0  0  0
 37 80  2  0  0  0  0
 38 63  1  0  0  0  0
 38 70  1  0  0  0  0
 38 81  2  0  0  0  0
 39 64  1  0  0  0  0
 39 76  1  0  0  0  0
 39 82  2  0  0  0  0
 40 71  1  0  0  0  0
 40 74  1  0  0  0  0
 40 83  2  0  0  0  0
 41 44  1  0  0  0  0
 42 54  1  0  0  0  0
 43 70  1  0  0  0  0
 44 46  1  0  0  0  0
 45 47  1  0  0  0  0
 45 49  1  0  0  0  0
 46 52  1  0  0  0  0
 47 55  1  0  0  0  0
 48 50  1  0  0  0  0
 48 53  1  0  0  0  0
 49 71  1  0  0  0  0
 50 69  1  0  0  0  0
 51 55  1  0  0  0  0
 51 71  1  0  0  0  0
 52 75  1  0  0  0  0
 53 62  1  0  0  0  0
 54 70  1  0  0  0  0
 55 68  1  0  0  0  0
 57 64  1  0  0  0  0
 58 65  1  0  0  0  0
 59 65  1  0  0  0  0
 60 65  1  0  0  0  0
 61 77  1  0  0  0  0
 62 85  1  0  0  0  0
 63 65  1  0  0  0  0
 63 76  1  0  0  0  0
 64 77  1  0  0  0  0
 66 68  1  0  0  0  0
M  CHG  1  77   1
M  ISO  4  40 100  62 101  74 100  85 101
M  END
> <Batch ID>
0063

> <Smiles>
CNC(C)C(=O)NC(C(=O)N1Cc2cc([101O:1][101CH2:1]C3CCN(c4cc([100NH:0][100C:0](=O)N5CCCC(n6nc(-c7ccc(Oc8ccc(F)cc8F)cc7)c(C(N)=O)c6N)C5)cc(C(=N)F)c4C)C3=O)ccc2CC1C(=O)NC1CCCc2ccccc21)C(C)(C)C

> <Shape>
0.285

> <Color>
0.191

> <Negative vol penalty>
0.000

$$$$

  -OEChem-04042323123D

 89 97  0     1  0  0  0  0  0999 V2000
  -19.7692  -32.4025   18.9964 C   0  0  0  0  0  0  0  0  0  0  0  0
  -20.7351  -31.4400   18.7207 C   0  0  0  0  0  0  0  0  0  0  0  0
  -23.4571   -9.7425   19.9212 C   0  0  0  0  0  0  0  0  0  0  0  0
  -23.8579  -10.0006   22.2897 C   0  0  0  0  0  0  0  0  0  0  0  0
  -30.3801  -19.9554   20.9507 C   0  0  0  0  0  0  0  0  0  0  0  0
  -19.5690  -32.8321   20.3076 C   0  0  0  0  0  0  0  0  0  0  0  0
  -21.5023  -30.9073   19.7561 C   0  0  0  0  0  0  0  0  0  0  0  0
  -23.5954  -25.1699   20.2113 C   0  0  0  0  0  0  0  0  0  0  0  0
  -30.3766  -18.5634   21.0383 C   0  0  0  0  0  0  0  0  0  0  0  0
  -22.8233   -8.5234   20.1612 C   0  0  0  0  0  0  0  0  0  0  0  0
  -23.2241   -8.7815   22.5298 C   0  0  0  0  0  0  0  0  0  0  0  0
  -24.8340  -24.5978   19.9244 C   0  0  0  0  0  0  0  0  0  0  0  0
  -19.8033   -7.4570   21.2455 C   0  0  0  0  0  0  0  0  0  0  0  0
  -18.5985   -7.2121   20.5868 C   0  0  0  0  0  0  0  0  0  0  0  0
  -25.4662  -24.8189   22.2418 C   0  0  0  0  0  0  0  0  0  0  0  0
  -28.4871  -18.6627   22.5407 C   0  0  0  0  0  0  0  0  0  0  0  0
  -19.5724   -5.2716   19.5270 C   0  0  0  0  0  0  0  0  0  0  0  0
  -23.9745  -10.4811   20.9854 C   0  0  0  0  0  0  0  0  0  0  0  0
  -29.4372  -20.7012   21.6581 C   0  0  0  0  0  0  0  0  0  0  0  0
  -24.0346  -13.0153   20.6999 C   0  0  0  0  0  0  0  0  0  0  0  0
  -20.3275  -32.2973   21.3609 C   0  0  0  0  0  0  0  0  0  0  0  0
  -23.2865  -25.5815   21.5158 C   0  0  0  0  0  0  0  0  0  0  0  0
  -21.3131  -31.3311   21.0825 C   0  0  0  0  0  0  0  0  0  0  0  0
  -24.2220  -25.3936   22.5432 C   0  0  0  0  0  0  0  0  0  0  0  0
  -28.4907  -20.0548   22.4531 C   0  0  0  0  0  0  0  0  0  0  0  0
  -29.4301  -17.9170   21.8332 C   0  0  0  0  0  0  0  0  0  0  0  0
  -22.7067   -8.0429   21.4655 C   0  0  0  0  0  0  0  0  0  0  0  0
  -25.7707  -24.4248   20.9391 C   0  0  0  0  0  0  0  0  0  0  0  0
  -20.8928   -6.6094   21.0449 C   0  0  0  0  0  0  0  0  0  0  0  0
  -18.4830   -6.1194   19.7276 C   0  0  0  0  0  0  0  0  0  0  0  0
  -20.7773   -5.5166   20.1857 C   0  0  0  0  0  0  0  0  0  0  0  0
  -24.6299  -11.7402   20.7379 C   0  0  0  0  0  0  0  0  0  0  0  0
  -25.0744  -13.8717   20.4315 C   0  0  0  0  0  0  0  0  0  0  0  0
  -29.4648  -22.1824   21.5468 C   0  0  0  0  0  0  0  0  0  0  0  0
  -22.6644  -13.3920   20.8903 C   0  0  0  0  0  0  0  0  0  0  0  0
  -22.5805  -28.3633   22.8822 C   0  0  0  0  0  0  0  0  0  0  0  0
  -22.0477  -26.5049   25.4869 C   0  0  0  0  0  0  0  0  0  0  0  0
  -22.6694  -23.5834   27.1378 C   0  0  0  0  0  0  0  0  0  0  0  0
  -27.9792  -24.7871   20.2984 C   0  0  0  0  0  0  0  0  0  1  0  0
  -30.2933  -15.6148   21.2843 C   0  0  0  0  0  0  0  0  0  0  0  0
  -20.1078  -32.8273   22.7557 C   0  0  0  0  0  0  0  0  0  0  0  0
  -21.9359  -26.1725   21.8140 C   0  0  0  0  0  0  0  0  0  0  0  0
  -23.9317  -25.8001   23.9641 C   0  0  0  0  0  0  0  0  0  0  0  0
  -20.7045  -31.9402   23.8454 C   0  0  0  0  0  0  0  0  0  0  0  0
  -29.8354  -12.9248   18.9972 C   0  0  0  0  0  0  0  0  0  0  0  0
  -22.1270  -31.5287   23.4792 C   0  0  0  0  0  0  0  0  0  0  0  0
  -28.3913  -12.4817   19.2430 C   0  0  0  0  0  0  0  0  0  0  0  0
  -30.5268  -13.3487   20.2918 C   0  0  0  0  0  0  0  0  0  0  0  0
  -28.3629  -13.9155   21.3240 C   0  0  0  0  0  0  0  0  0  0  0  0
  -22.1482  -30.7114   22.1819 C   0  0  1  0  0  0  0  0  0  0  0  0
  -21.9233  -27.0264   23.0782 C   0  0  1  0  0  0  0  0  0  0  0  0
  -27.6048  -13.5408   20.0400 C   0  0  2  0  0  0  0  0  0  0  0  0
  -27.4707  -20.8296   23.2220 C   0  0  0  0  0  0  0  0  0  0  0  0
  -32.3074  -24.2325   19.2831 C   0  0  0  0  0  0  0  0  0  0  0  0
  -29.3835  -24.3008   16.0239 C   0  0  0  0  0  0  0  0  0  0  0  0
  -22.1209  -22.3663   29.2627 C   0  0  0  0  0  0  0  0  0  0  0  0
  -23.9650  -28.3187   27.0179 C   0  0  0  0  0  0  0  0  0  0  0  0
  -24.1152  -26.5515   28.7851 C   0  0  0  0  0  0  0  0  0  0  0  0
  -21.9251  -27.6411   28.2963 C   0  0  0  0  0  0  0  0  0  0  0  0
  -21.4192  -21.3402   25.6667 C   0  0  0  0  0  0  0  0  0  0  0  0
  -31.2234  -23.7935   18.3074 C   0  0  0  0  0  0  0  0  0  0  0  0
  -28.8853  -23.9987   17.4280 C   0  0  0  0  0  0  0  0  0  0  0  0
  -22.8927  -26.0019   26.6323 C   0  0  1  0  0  0  0  0  0  0  0  0
  -21.7399  -22.5871   27.8071 C   0  0  2  0  0  0  0  0  0  0  0  0
  -29.3169  -24.1145   19.9972 C   0  0  2  0  0  0  0  0  0  0  0  0
  -29.8363  -24.4337   18.5720 C   0  0  0  0  0  0  0  0  0  0  0  0
  -23.2310  -27.1223   27.6559 C   0  0  0  0  0  0  0  0  0  0  0  0
  -25.9457  -11.7784   20.5116 N   0  0  0  0  0  0  0  0  0  0  0  0
  -26.1858  -13.0880   20.3287 N   0  0  0  0  0  0  0  0  0  0  0  0
  -22.5996  -26.3791   24.2042 N   0  0  0  0  0  0  0  0  0  0  0  0
  -29.7264  -14.3566   20.9906 N   0  0  0  0  0  0  0  0  0  0  0  0
  -25.1371  -15.2112   20.2756 N   0  0  0  0  0  0  0  0  0  0  0  0
  -21.7259  -12.3861   21.1580 N   0  0  0  0  0  0  0  0  0  0  0  0
  -29.4273  -16.5028   21.9216 N   0  0  0  0  0  0  0  0  0  0  0  0
  -29.2907  -22.7000   20.2705 N   0  0  0  0  0  0  0  0  0  0  0  0
  -21.7240  -29.3510   22.4346 N   0  0  0  0  0  0  0  0  0  0  0  0
  -22.1734  -24.8683   27.2032 N   0  0  0  0  0  0  0  0  0  0  0  0
  -21.7935  -21.2748   27.1029 N   0  3  0  0  0  0  0  0  0  0  0  0
  -29.6552  -22.8565   22.5557 O   0  0  0  0  0  0  0  0  0  0  0  0
  -22.2808  -14.5836   20.8087 O   0  0  0  0  0  0  0  0  0  0  0  0
  -23.7758  -28.4897   23.1208 O   0  0  0  0  0  0  0  0  0  0  0  0
  -20.9358  -26.9850   25.7211 O   0  0  0  0  0  0  0  0  0  0  0  0
  -23.7312  -23.2552   26.6129 O   0  0  0  0  0  0  0  0  0  0  0  0
  -27.8201  -26.0033   20.2642 O   0  0  0  0  0  0  0  0  0  0  0  0
  -31.4525  -15.8942   20.9677 O   0  0  0  0  0  0  0  0  0  0  0  0
  -22.0881   -6.8535   21.7002 O   0  0  0  0  0  0  0  0  0  0  0  0
  -26.9807  -23.8673   20.6617 O   0  0  0  0  0  0  0  0  0  1  0  0
  -17.3254   -5.8833   19.0963 F   0  0  0  0  0  0  0  0  0  0  0  0
  -21.8201   -4.6981   19.9899 F   0  0  0  0  0  0  0  0  0  0  0  0
  1  2  1  0  0  0  0
  1  6  2  0  0  0  0
  2  7  2  0  0  0  0
  3 10  2  0  0  0  0
  3 18  1  0  0  0  0
  4 11  1  0  0  0  0
  4 18  2  0  0  0  0
  5  9  2  0  0  0  0
  5 19  1  0  0  0  0
  6 21  1  0  0  0  0
  7 23  1  0  0  0  0
  8 12  2  0  0  0  0
  8 22  1  0  0  0  0
  9 26  1  0  0  0  0
 10 27  1  0  0  0  0
 11 27  2  0  0  0  0
 12 28  1  0  0  0  0
 13 14  2  0  0  0  0
 13 29  1  0  0  0  0
 14 30  1  0  0  0  0
 15 24  1  0  0  0  0
 15 28  2  0  0  0  0
 16 25  1  0  0  0  0
 16 26  2  0  0  0  0
 17 30  2  0  0  0  0
 17 31  1  0  0  0  0
 18 32  1  0  0  0  0
 19 25  2  0  0  0  0
 19 34  1  0  0  0  0
 20 32  1  0  0  0  0
 20 33  2  0  0  0  0
 20 35  1  0  0  0  0
 21 23  2  0  0  0  0
 21 41  1  0  0  0  0
 22 24  2  0  0  0  0
 22 42  1  0  0  0  0
 23 50  1  0  0  0  0
 24 43  1  0  0  0  0
 25 53  1  0  0  0  0
 26 74  1  0  0  0  0
 27 86  1  0  0  0  0
 28 87  1  0  0  0  0
 29 31  2  0  0  0  0
 29 86  1  0  0  0  0
 30 88  1  0  0  0  0
 31 89  1  0  0  0  0
 32 68  2  0  0  0  0
 33 69  1  0  0  0  0
 33 72  1  0  0  0  0
 34 75  1  0  0  0  0
 34 79  2  0  0  0  0
 35 73  1  0  0  0  0
 35 80  2  0  0  0  0
 36 51  1  0  0  0  0
 36 76  1  0  0  0  0
 36 81  2  0  0  0  0
 37 63  1  0  0  0  0
 37 70  1  0  0  0  0
 37 82  2  0  0  0  0
 38 64  1  0  0  0  0
 38 77  1  0  0  0  0
 38 83  2  0  0  0  0
 39 65  1  0  0  0  0
 39 84  2  0  0  0  0
 39 87  1  0  0  0  0
 40 71  1  0  0  0  0
 40 74  1  0  0  0  0
 40 85  2  0  0  0  0
 41 44  1  0  0  0  0
 42 51  1  0  0  0  0
 43 70  1  0  0  0  0
 44 46  1  0  0  0  0
 45 47  1  0  0  0  0
 45 48  1  0  0  0  0
 46 50  1  0  0  0  0
 47 52  1  0  0  0  0
 48 71  1  0  0  0  0
 49 52  1  0  0  0  0
 49 71  1  0  0  0  0
 50 76  1  0  0  0  0
 51 70  1  0  0  0  0
 52 69  1  0  0  0  0
 54 61  1  0  0  0  0
 55 62  1  0  0  0  0
 56 64  1  0  0  0  0
 57 67  1  0  0  0  0
 58 67  1  0  0  0  0
 59 67  1  0  0  0  0
 60 78  1  0  0  0  0
 61 66  1  0  0  0  0
 62 66  1  0  0  0  0
 63 67  1  0  0  0  0
 63 77  1  0  0  0  0
 64 78  1  0  0  0  0
 65 66  1  0  0  0  0
 65 75  1  0  0  0  0
 68 69  1  0  0  0  0
M  CHG  1  78   1
M  ISO  4  39 101  40 100  74 100  87 101
M  END
> <Batch ID>
0063

> <Smiles>
CCC(CC)C(NC(=O)c1ccc([100NH:0][100C:0](=O)N2CCCC(n3nc(-c4ccc(Oc5ccc(F)cc5F)cc4)c(C(N)=O)c3N)C2)cc1C)[101C:1](=O)[101O:1]c1ccc2c(c1)CN(C(=O)C(NC(=O)C(C)NC)C(C)(C)C)C(C(=O)NC1CCCc3ccccc31)C2

> <Shape>
0.238

> <Color>
0.196

> <Negative vol penalty>
0.000

$$$$

  -OEChem-04042323123D

 90 98  0     1  0  0  0  0  0999 V2000
  -40.6220  -25.7682   26.9746 C   0  0  0  0  0  0  0  0  0  0  0  0
  -39.3059  -25.4273   27.2698 C   0  0  0  0  0  0  0  0  0  0  0  0
  -23.0005   -9.8941   19.9810 C   0  0  0  0  0  0  0  0  0  0  0  0
  -23.7258   -9.9447   22.2850 C   0  0  0  0  0  0  0  0  0  0  0  0
  -40.9595  -26.1934   25.6904 C   0  0  0  0  0  0  0  0  0  0  0  0
  -38.3263  -25.5124   26.2811 C   0  0  0  0  0  0  0  0  0  0  0  0
  -33.4836  -21.8315   25.5705 C   0  0  0  0  0  0  0  0  0  0  0  0
  -22.2340   -8.7596   20.2472 C   0  0  0  0  0  0  0  0  0  0  0  0
  -22.9592   -8.8102   22.5513 C   0  0  0  0  0  0  0  0  0  0  0  0
  -32.1451  -21.9607   25.9389 C   0  0  0  0  0  0  0  0  0  0  0  0
  -23.2033   -5.4713   22.0789 C   0  0  0  0  0  0  0  0  0  0  0  0
  -23.7908   -4.4540   22.8308 C   0  0  0  0  0  0  0  0  0  0  0  0
  -31.6218  -22.7745   23.7291 C   0  0  0  0  0  0  0  0  0  0  0  0
  -32.0581  -16.5506   22.5647 C   0  0  0  0  0  0  0  0  0  0  0  0
  -29.8796  -17.4481   23.0994 C   0  0  0  0  0  0  0  0  0  0  0  0
  -22.0671   -4.6967   24.5061 C   0  0  0  0  0  0  0  0  0  0  0  0
  -23.7465  -10.4866   20.9999 C   0  0  0  0  0  0  0  0  0  0  0  0
  -24.1320  -13.0022   20.8243 C   0  0  0  0  0  0  0  0  0  0  0  0
  -39.9853  -26.2745   24.6829 C   0  0  0  0  0  0  0  0  0  0  0  0
  -33.9038  -22.1838   24.2799 C   0  0  0  0  0  0  0  0  0  0  0  0
  -38.6508  -25.9403   24.9825 C   0  0  0  0  0  0  0  0  0  0  0  0
  -32.9656  -22.6464   23.3461 C   0  0  0  0  0  0  0  0  0  0  0  0
  -32.6464  -17.4468   23.4570 C   0  0  0  0  0  0  0  0  0  0  0  0
  -30.6747  -16.5513   22.3858 C   0  0  0  0  0  0  0  0  0  0  0  0
  -30.4679  -18.3443   23.9918 C   0  0  0  0  0  0  0  0  0  0  0  0
  -22.2133   -8.2177   21.5324 C   0  0  0  0  0  0  0  0  0  0  0  0
  -31.2145  -22.4350   25.0190 C   0  0  0  0  0  0  0  0  0  0  0  0
  -22.0477   -6.1014   22.5406 C   0  0  0  0  0  0  0  0  0  0  0  0
  -23.2227   -4.0666   24.0444 C   0  0  0  0  0  0  0  0  0  0  0  0
  -21.4796   -5.7141   23.7542 C   0  0  0  0  0  0  0  0  0  0  0  0
  -31.8513  -18.3436   24.1706 C   0  0  0  0  0  0  0  0  0  0  0  0
  -24.5391  -11.6582   20.7254 C   0  0  0  0  0  0  0  0  0  0  0  0
  -25.2418  -13.7248   20.4599 C   0  0  0  0  0  0  0  0  0  0  0  0
  -22.8641  -13.5486   21.2110 C   0  0  0  0  0  0  0  0  0  0  0  0
  -35.9178  -24.3332   23.0850 C   0  0  0  0  0  0  0  0  0  0  0  0
  -35.2600  -22.8221   20.2910 C   0  0  0  0  0  0  0  0  0  0  0  0
  -28.2781  -19.3877   24.6572 C   0  0  0  0  0  0  0  0  0  0  0  0
  -33.1044  -20.8972   18.4759 C   0  0  0  0  0  0  0  0  0  0  0  0
  -30.7213  -14.6855   20.6938 C   0  0  0  0  0  0  0  0  0  0  0  0
  -40.3890  -26.7847   23.3222 C   0  0  0  0  0  0  0  0  0  0  0  0
  -35.3464  -22.0133   23.8899 C   0  0  0  0  0  0  0  0  0  0  0  0
  -33.3621  -23.0189   21.9416 C   0  0  0  0  0  0  0  0  0  0  0  0
  -39.3625  -26.4890   22.2317 C   0  0  0  0  0  0  0  0  0  0  0  0
  -29.6028  -12.2330   18.3675 C   0  0  0  0  0  0  0  0  0  0  0  0
  -37.9577  -26.8395   22.7117 C   0  0  0  0  0  0  0  0  0  0  0  0
  -28.1522  -11.9754   18.7817 C   0  0  0  0  0  0  0  0  0  0  0  0
  -30.5034  -12.4762   19.5773 C   0  0  0  0  0  0  0  0  0  0  0  0
  -28.5881  -13.2650   20.9110 C   0  0  0  0  0  0  0  0  0  0  0  0
  -37.5645  -25.9958   23.9304 C   0  0  1  0  0  0  0  0  0  0  0  0
  -35.7533  -22.8880   22.7080 C   0  0  1  0  0  0  0  0  0  0  0  0
  -27.6304  -13.0789   19.7228 C   0  0  2  0  0  0  0  0  0  0  0  0
  -32.2663  -19.5230   16.5507 C   0  0  0  0  0  0  0  0  0  0  0  0
  -34.5560  -16.4921   24.7612 C   0  0  0  0  0  0  0  0  0  0  0  0
  -34.5334  -25.5494   19.1318 C   0  0  0  0  0  0  0  0  0  0  0  0
  -33.3852  -24.3653   17.2483 C   0  0  0  0  0  0  0  0  0  0  0  0
  -35.8390  -24.0750   17.5904 C   0  0  0  0  0  0  0  0  0  0  0  0
  -26.5852  -21.7113   23.7675 C   0  0  0  0  0  0  0  0  0  0  0  0
  -27.0432  -22.9041   25.9121 C   0  0  0  0  0  0  0  0  0  0  0  0
  -34.3016  -18.4220   19.5708 C   0  0  0  0  0  0  0  0  0  0  0  0
  -27.7691  -20.4817   25.5871 C   0  0  0  0  0  0  0  0  0  0  0  0
  -28.9339  -22.4025   24.3453 C   0  0  0  0  0  0  0  0  0  1  0  0
  -34.2253  -22.9871   19.2042 C   0  0  1  0  0  0  0  0  0  0  0  0
  -33.3296  -19.6572   17.6297 C   0  0  2  0  0  0  0  0  0  0  0  0
  -34.1260  -17.4424   23.6463 C   0  0  0  0  0  0  0  0  0  0  0  0
  -34.4883  -24.2391   18.3207 C   0  0  0  0  0  0  0  0  0  0  0  0
  -27.6022  -21.8704   24.9185 C   0  0  0  0  0  0  0  0  0  0  0  0
  -25.8083  -11.5317   20.3292 N   0  0  0  0  0  0  0  0  0  0  0  0
  -26.2084  -12.8055   20.1757 N   0  0  0  0  0  0  0  0  0  0  0  0
  -34.7854  -22.8407   21.6102 N   0  0  0  0  0  0  0  0  0  0  0  0
  -29.9484  -13.5371   20.4208 N   0  0  0  0  0  0  0  0  0  0  0  0
  -25.4753  -15.0505   20.3580 N   0  0  0  0  0  0  0  0  0  0  0  0
  -21.8323  -12.6645   21.5544 N   0  0  0  0  0  0  0  0  0  0  0  0
  -29.6592  -19.2534   24.7144 N   0  0  0  0  0  0  0  0  0  0  0  0
  -30.0771  -15.6406   21.4795 N   0  0  0  0  0  0  0  0  0  0  0  0
  -37.1879  -24.6600   23.5201 N   0  0  0  0  0  0  0  0  0  0  0  0
  -34.2043  -21.7287   18.4663 N   0  0  0  0  0  0  0  0  0  0  0  0
  -33.2917  -18.4349   18.4814 N   0  3  0  0  0  0  0  0  0  0  0  0
  -22.6474  -14.7839   21.2349 O   0  0  0  0  0  0  0  0  0  0  0  0
  -34.9634  -25.0956   22.9870 O   0  0  0  0  0  0  0  0  0  0  0  0
  -36.4448  -22.6749   19.9807 O   0  0  0  0  0  0  0  0  0  0  0  0
  -27.4927  -18.7470   23.9638 O   0  0  0  0  0  0  0  0  0  0  0  0
  -32.0562  -21.1089   19.0816 O   0  0  0  0  0  0  0  0  0  0  0  0
  -31.8600  -14.8244   20.2397 O   0  0  0  0  0  0  0  0  0  0  0  0
  -21.4652   -7.1108   21.7925 O   0  0  0  0  0  0  0  0  0  0  0  0
  -29.9076  -22.5627   25.3762 O   0  0  0  0  0  0  0  0  0  1  0  0
  -23.7861   -3.0886   24.7656 F   0  0  0  0  0  0  0  0  0  0  0  0
  -20.3687   -6.3150   24.2024 F   0  0  0  0  0  0  0  0  0  0  0  0
  -32.4195  -19.2050   25.0280 F   0  0  0  0  0  0  0  0  0  0  0  0
  -34.6304  -18.6796   23.9569 F   0  0  0  0  0  0  0  0  0  0  0  0
  -34.8098  -17.0712   22.5166 F   0  0  0  0  0  0  0  0  0  0  0  0
  1  2  1  0  0  0  0
  1  5  2  0  0  0  0
  2  6  2  0  0  0  0
  3  8  2  0  0  0  0
  3 17  1  0  0  0  0
  4  9  1  0  0  0  0
  4 17  2  0  0  0  0
  5 19  1  0  0  0  0
  6 21  1  0  0  0  0
  7 10  2  0  0  0  0
  7 20  1  0  0  0  0
  8 26  1  0  0  0  0
  9 26  2  0  0  0  0
 10 27  1  0  0  0  0
 11 12  2  0  0  0  0
 11 28  1  0  0  0  0
 12 29  1  0  0  0  0
 13 22  1  0  0  0  0
 13 27  2  0  0  0  0
 14 23  2  0  0  0  0
 14 24  1  0  0  0  0
 15 24  2  0  0  0  0
 15 25  1  0  0  0  0
 16 29  2  0  0  0  0
 16 30  1  0  0  0  0
 17 32  1  0  0  0  0
 18 32  1  0  0  0  0
 18 33  2  0  0  0  0
 18 34  1  0  0  0  0
 19 21  2  0  0  0  0
 19 40  1  0  0  0  0
 20 22  2  0  0  0  0
 20 41  1  0  0  0  0
 21 49  1  0  0  0  0
 22 42  1  0  0  0  0
 23 31  1  0  0  0  0
 23 64  1  0  0  0  0
 24 74  1  0  0  0  0
 25 31  2  0  0  0  0
 25 73  1  0  0  0  0
 26 84  1  0  0  0  0
 27 85  1  0  0  0  0
 28 30  2  0  0  0  0
 28 84  1  0  0  0  0
 29 86  1  0  0  0  0
 30 87  1  0  0  0  0
 31 88  1  0  0  0  0
 32 67  2  0  0  0  0
 33 68  1  0  0  0  0
 33 71  1  0  0  0  0
 34 72  1  0  0  0  0
 34 78  2  0  0  0  0
 35 50  1  0  0  0  0
 35 75  1  0  0  0  0
 35 79  2  0  0  0  0
 36 62  1  0  0  0  0
 36 69  1  0  0  0  0
 36 80  2  0  0  0  0
 37 60  1  0  0  0  0
 37 73  1  0  0  0  0
 37 81  2  0  0  0  0
 38 63  1  0  0  0  0
 38 76  1  0  0  0  0
 38 82  2  0  0  0  0
 39 70  1  0  0  0  0
 39 74  1  0  0  0  0
 39 83  2  0  0  0  0
 40 43  1  0  0  0  0
 41 50  1  0  0  0  0
 42 69  1  0  0  0  0
 43 45  1  0  0  0  0
 44 46  1  0  0  0  0
 44 47  1  0  0  0  0
 45 49  1  0  0  0  0
 46 51  1  0  0  0  0
 47 70  1  0  0  0  0
 48 51  1  0  0  0  0
 48 70  1  0  0  0  0
 49 75  1  0  0  0  0
 50 69  1  0  0  0  0
 51 68  1  0  0  0  0
 52 63  1  0  0  0  0
 53 64  1  0  0  0  0
 54 65  1  0  0  0  0
 55 65  1  0  0  0  0
 56 65  1  0  0  0  0
 57 66  1  0  0  0  0
 58 66  1  0  0  0  0
 59 77  1  0  0  0  0
 60 66  1  0  0  0  0
 61 66  1  0  0  0  0
 61 85  1  0  0  0  0
 62 65  1  0  0  0  0
 62 76  1  0  0  0  0
 63 77  1  0  0  0  0
 64 89  1  0  0  0  0
 64 90  1  0  0  0  0
 67 68  1  0  0  0  0
M  CHG  1  77   1
M  ISO  4  39 100  61 101  74 100  85 101
M  END
> <Batch ID>
0063

> <Smiles>
CNC(C)C(=O)NC(C(=O)N1Cc2cc([101O:1][101CH2:1]C(C)(C)CC(=O)Nc3cc([100NH:0][100C:0](=O)N4CCCC(n5nc(-c6ccc(Oc7ccc(F)cc7F)cc6)c(C(N)=O)c5N)C4)cc(C(C)(F)F)c3F)ccc2CC1C(=O)NC1CCCc2ccccc21)C(C)(C)C

> <Shape>
0.169

> <Color>
0.193

> <Negative vol penalty>
0.000

$$$$

  -OEChem-04042323123D

 88 96  0     1  0  0  0  0  0999 V2000
  -23.4600  -27.9027   27.9477 C   0  0  0  0  0  0  0  0  0  0  0  0
  -24.5869  -27.4724   27.2546 C   0  0  0  0  0  0  0  0  0  0  0  0
  -24.5057   -9.0897   21.5565 C   0  0  0  0  0  0  0  0  0  0  0  0
  -23.8978  -10.8397   23.1074 C   0  0  0  0  0  0  0  0  0  0  0  0
  -22.2259  -27.9616   27.3017 C   0  0  0  0  0  0  0  0  0  0  0  0
  -24.4800  -27.0996   25.9152 C   0  0  0  0  0  0  0  0  0  0  0  0
  -28.6706  -27.9083   21.5230 C   0  0  0  0  0  0  0  0  0  0  0  0
  -23.9934   -8.1341   22.4339 C   0  0  0  0  0  0  0  0  0  0  0  0
  -23.3853   -9.8841   23.9848 C   0  0  0  0  0  0  0  0  0  0  0  0
  -29.6249  -27.0563   20.9688 C   0  0  0  0  0  0  0  0  0  0  0  0
  -20.9580   -6.9259   23.3053 C   0  0  0  0  0  0  0  0  0  0  0  0
  -20.1559   -5.9181   22.7699 C   0  0  0  0  0  0  0  0  0  0  0  0
  -29.1224  -19.5252   19.8822 C   0  0  0  0  0  0  0  0  0  0  0  0
  -28.1049  -26.5339   19.1699 C   0  0  0  0  0  0  0  0  0  0  0  0
  -26.8455  -19.2272   19.1312 C   0  0  0  0  0  0  0  0  0  0  0  0
  -21.7139   -4.2535   23.5691 C   0  0  0  0  0  0  0  0  0  0  0  0
  -24.4580  -10.4425   21.8933 C   0  0  0  0  0  0  0  0  0  0  0  0
  -28.9420  -20.9084   19.8802 C   0  0  0  0  0  0  0  0  0  0  0  0
  -24.2956  -12.0999   19.9608 C   0  0  0  0  0  0  0  0  0  0  0  0
  -22.1057  -27.5985   25.9510 C   0  0  0  0  0  0  0  0  0  0  0  0
  -27.4201  -28.0713   20.9097 C   0  0  0  0  0  0  0  0  0  0  0  0
  -23.2428  -27.1524   25.2508 C   0  0  0  0  0  0  0  0  0  0  0  0
  -27.1374  -27.3905   19.7169 C   0  0  0  0  0  0  0  0  0  0  0  0
  -27.7134  -21.4510   19.5037 C   0  0  0  0  0  0  0  0  0  0  0  0
  -28.0741  -18.6846   19.5076 C   0  0  0  0  0  0  0  0  0  0  0  0
  -26.6651  -20.6104   19.1292 C   0  0  0  0  0  0  0  0  0  0  0  0
  -23.4331   -8.5313   23.6480 C   0  0  0  0  0  0  0  0  0  0  0  0
  -29.3411  -26.3667   19.7936 C   0  0  0  0  0  0  0  0  0  0  0  0
  -22.1380   -6.5975   23.9726 C   0  0  0  0  0  0  0  0  0  0  0  0
  -20.5338   -4.5819   22.9018 C   0  0  0  0  0  0  0  0  0  0  0  0
  -22.5160   -5.2613   24.1046 C   0  0  0  0  0  0  0  0  0  0  0  0
  -24.9876  -11.4301   20.9876 C   0  0  0  0  0  0  0  0  0  0  0  0
  -25.2353  -12.9276   19.3966 C   0  0  0  0  0  0  0  0  0  0  0  0
  -30.0780  -21.7775   20.2819 C   0  0  0  0  0  0  0  0  0  0  0  0
  -22.9258  -11.9844   19.5536 C   0  0  0  0  0  0  0  0  0  0  0  0
  -24.4117  -27.5011   21.7630 C   0  0  0  0  0  0  0  0  0  0  0  0
  -23.7447  -28.9838   18.9560 C   0  0  0  0  0  0  0  0  0  0  0  0
  -24.7869  -29.8745   15.8307 C   0  0  0  0  0  0  0  0  0  0  0  0
  -29.4134  -16.5795   19.8552 C   0  0  0  0  0  0  0  0  0  0  0  0
  -20.7416  -27.6336   25.3085 C   0  0  0  0  0  0  0  0  0  0  0  0
  -26.4114  -29.0146   21.5057 C   0  0  0  0  0  0  0  0  0  0  0  0
  -25.8176  -27.5465   19.0084 C   0  0  0  0  0  0  0  0  0  0  0  0
  -20.7850  -27.5779   23.7836 C   0  0  0  0  0  0  0  0  0  0  0  0
  -30.2541  -13.1238   20.0250 C   0  0  0  0  0  0  0  0  0  0  0  0
  -21.7404  -26.4845   23.3163 C   0  0  0  0  0  0  0  0  0  0  0  0
  -28.9020  -12.4302   20.2061 C   0  0  0  0  0  0  0  0  0  0  0  0
  -30.3142  -14.4537   20.7743 C   0  0  0  0  0  0  0  0  0  0  0  0
  -27.8647  -14.6898   20.6591 C   0  0  0  0  0  0  0  0  0  0  0  0
  -23.1720  -26.7632   23.7901 C   0  0  1  0  0  0  0  0  0  0  0  0
  -24.9803  -28.7095   21.0744 C   0  0  1  0  0  0  0  0  0  0  0  0
  -27.7334  -13.3772   19.8696 C   0  0  2  0  0  0  0  0  0  0  0  0
  -27.5206  -22.9352   19.5011 C   0  0  0  0  0  0  0  0  0  0  0  0
  -24.0071  -31.0476   13.7539 C   0  0  0  0  0  0  0  0  0  0  0  0
  -22.0726  -26.5435   18.2083 C   0  0  0  0  0  0  0  0  0  0  0  0
  -22.1163  -27.3286   15.8314 C   0  0  0  0  0  0  0  0  0  0  0  0
  -21.0481  -28.7394   17.5897 C   0  0  0  0  0  0  0  0  0  0  0  0
  -26.9100  -31.9245   16.0518 C   0  0  0  0  0  0  0  0  0  0  0  0
  -24.3967  -22.2048   20.9943 C   0  0  0  0  0  0  0  0  0  0  0  0
  -31.6283  -23.5734   19.5559 C   0  0  0  0  0  0  0  0  0  0  0  0
  -31.1739  -24.8940   20.1513 C   0  0  0  0  0  0  0  0  0  1  0  0
  -23.5673  -28.5350   17.5256 C   0  0  1  0  0  0  0  0  0  0  0  0
  -24.7244  -31.1962   15.0866 C   0  0  2  0  0  0  0  0  0  0  0  0
  -22.2253  -27.7820   17.3029 C   0  0  0  0  0  0  0  0  0  0  0  0
  -26.2682  -11.8002   21.0729 N   0  0  0  0  0  0  0  0  0  0  0  0
  -26.3883  -12.7114   20.0924 N   0  0  0  0  0  0  0  0  0  0  0  0
  -24.8618  -28.4753   19.6338 N   0  0  0  0  0  0  0  0  0  0  0  0
  -29.1785  -15.3002   20.4022 N   0  0  0  0  0  0  0  0  0  0  0  0
  -25.1796  -13.8119   18.3781 N   0  0  0  0  0  0  0  0  0  0  0  0
  -22.0978  -11.0864   20.2410 N   0  0  0  0  0  0  0  0  0  0  0  0
  -28.2581  -17.2797   19.5094 N   0  0  0  0  0  0  0  0  0  0  0  0
  -25.3972  -21.1451   18.7391 N   0  0  0  0  0  0  0  0  0  0  0  0
  -30.5227  -22.6818   19.3256 N   0  0  0  0  0  0  0  0  0  0  0  0
  -23.7887  -27.7793   22.9646 N   0  0  0  0  0  0  0  0  0  0  0  0
  -23.7273  -29.7276   16.7007 N   0  0  0  0  0  0  0  0  0  0  0  0
  -26.0991  -31.7093   14.8258 N   0  3  0  0  0  0  0  0  0  0  0  0
  -30.5688  -21.6448   21.3999 O   0  0  0  0  0  0  0  0  0  0  0  0
  -22.4542  -12.6454   18.5974 O   0  0  0  0  0  0  0  0  0  0  0  0
  -24.5282  -26.3981   21.2419 O   0  0  0  0  0  0  0  0  0  0  0  0
  -22.9264  -29.7626   19.4514 O   0  0  0  0  0  0  0  0  0  0  0  0
  -25.6838  -29.0528   15.6549 O   0  0  0  0  0  0  0  0  0  0  0  0
  -30.5560  -17.0103   19.6795 O   0  0  0  0  0  0  0  0  0  0  0  0
  -22.8515  -21.3105   19.1022 O   0  0  0  0  0  0  0  0  0  0  0  0
  -24.1457  -19.6502   20.4855 O   0  0  0  0  0  0  0  0  0  0  0  0
  -22.9328   -7.5991   24.5043 O   0  0  0  0  0  0  0  0  0  0  0  0
  -30.2705  -25.5340   19.2509 O   0  0  0  0  0  0  0  0  0  1  0  0
  -19.7627   -3.6142   22.3889 F   0  0  0  0  0  0  0  0  0  0  0  0
  -23.6479   -4.9395   24.7456 F   0  0  0  0  0  0  0  0  0  0  0  0
  -24.0625  -20.9264   19.8033 S   0  0  0  0  0  0  0  0  0  0  0  0
  1  2  1  0  0  0  0
  1  5  2  0  0  0  0
  2  6  2  0  0  0  0
  3  8  2  0  0  0  0
  3 17  1  0  0  0  0
  4  9  1  0  0  0  0
  4 17  2  0  0  0  0
  5 20  1  0  0  0  0
  6 22  1  0  0  0  0
  7 10  2  0  0  0  0
  7 21  1  0  0  0  0
  8 27  1  0  0  0  0
  9 27  2  0  0  0  0
 10 28  1  0  0  0  0
 11 12  2  0  0  0  0
 11 29  1  0  0  0  0
 12 30  1  0  0  0  0
 13 18  1  0  0  0  0
 13 25  2  0  0  0  0
 14 23  1  0  0  0  0
 14 28  2  0  0  0  0
 15 25  1  0  0  0  0
 15 26  2  0  0  0  0
 16 30  2  0  0  0  0
 16 31  1  0  0  0  0
 17 32  1  0  0  0  0
 18 24  2  0  0  0  0
 18 34  1  0  0  0  0
 19 32  1  0  0  0  0
 19 33  2  0  0  0  0
 19 35  1  0  0  0  0
 20 22  2  0  0  0  0
 20 40  1  0  0  0  0
 21 23  2  0  0  0  0
 21 41  1  0  0  0  0
 22 49  1  0  0  0  0
 23 42  1  0  0  0  0
 24 26  1  0  0  0  0
 24 52  1  0  0  0  0
 25 70  1  0  0  0  0
 26 71  1  0  0  0  0
 27 84  1  0  0  0  0
 28 85  1  0  0  0  0
 29 31  2  0  0  0  0
 29 84  1  0  0  0  0
 30 86  1  0  0  0  0
 31 87  1  0  0  0  0
 32 64  2  0  0  0  0
 33 65  1  0  0  0  0
 33 68  1  0  0  0  0
 34 72  1  0  0  0  0
 34 76  2  0  0  0  0
 35 69  1  0  0  0  0
 35 77  2  0  0  0  0
 36 50  1  0  0  0  0
 36 73  1  0  0  0  0
 36 78  2  0  0  0  0
 37 61  1  0  0  0  0
 37 66  1  0  0  0  0
 37 79  2  0  0  0  0
 38 62  1  0  0  0  0
 38 74  1  0  0  0  0
 38 80  2  0  0  0  0
 39 67  1  0  0  0  0
 39 70  1  0  0  0  0
 39 81  2  0  0  0  0
 40 43  1  0  0  0  0
 41 50  1  0  0  0  0
 42 66  1  0  0  0  0
 43 45  1  0  0  0  0
 44 46  1  0  0  0  0
 44 47  1  0  0  0  0
 45 49  1  0  0  0  0
 46 51  1  0  0  0  0
 47 67  1  0  0  0  0
 48 51  1  0  0  0  0
 48 67  1  0  0  0  0
 49 73  1  0  0  0  0
 50 66  1  0  0  0  0
 51 65  1  0  0  0  0
 53 62  1  0  0  0  0
 54 63  1  0  0  0  0
 55 63  1  0  0  0  0
 56 63  1  0  0  0  0
 57 75  1  0  0  0  0
 58 88  1  0  0  0  0
 59 60  1  0  0  0  0
 59 72  1  0  0  0  0
 60 85  1  0  0  0  0
 61 63  1  0  0  0  0
 61 74  1  0  0  0  0
 62 75  1  0  0  0  0
 64 65  1  0  0  0  0
 71 88  1  0  0  0  0
 82 88  2  0  0  0  0
 83 88  2  0  0  0  0
M  CHG  1  75   1
M  ISO  4  39 100  60 101  70 100  85 101
M  END
> <Batch ID>
0063

> <Smiles>
CNC(C)C(=O)NC(C(=O)N1Cc2cc([101O:1][101CH2:1]CNC(=O)c3cc([100NH:0][100C:0](=O)N4CCCC(n5nc(-c6ccc(Oc7ccc(F)cc7F)cc6)c(C(N)=O)c5N)C4)cc(NS(C)(=O)=O)c3C)ccc2CC1C(=O)NC1CCCc2ccccc21)C(C)(C)C

> <Shape>
0.259

> <Color>
0.085

> <Negative vol penalty>
0.000

$$$$

  -OEChem-04042323123D

 92101  0     1  0  0  0  0  0999 V2000
  -22.4145  -34.0508   22.1741 C   0  0  0  0  0  0  0  0  0  0  0  0
  -23.3849  -33.0544   22.2048 C   0  0  0  0  0  0  0  0  0  0  0  0
  -22.8700  -10.1206   20.2292 C   0  0  0  0  0  0  0  0  0  0  0  0
  -23.7618  -10.1530   22.4743 C   0  0  0  0  0  0  0  0  0  0  0  0
  -21.0893  -33.7412   22.4774 C   0  0  0  0  0  0  0  0  0  0  0  0
  -23.0308  -31.7479   22.5397 C   0  0  0  0  0  0  0  0  0  0  0  0
  -25.1243  -28.3171   19.4588 C   0  0  0  0  0  0  0  0  0  0  0  0
  -31.8933  -18.5844   19.9898 C   0  0  0  0  0  0  0  0  0  0  0  0
  -31.5906  -17.2259   20.0804 C   0  0  0  0  0  0  0  0  0  0  0  0
  -22.0499   -9.0452   20.5704 C   0  0  0  0  0  0  0  0  0  0  0  0
  -22.9416   -9.0777   22.8156 C   0  0  0  0  0  0  0  0  0  0  0  0
  -26.4650  -28.0015   19.6748 C   0  0  0  0  0  0  0  0  0  0  0  0
  -19.6999   -8.5801   23.6307 C   0  0  0  0  0  0  0  0  0  0  0  0
  -19.0125   -8.6502   24.8424 C   0  0  0  0  0  0  0  0  0  0  0  0
  -25.7990  -26.0001   20.8453 C   0  0  0  0  0  0  0  0  0  0  0  0
  -20.1317   -6.6450   25.5933 C   0  0  0  0  0  0  0  0  0  0  0  0
  -23.7260  -10.6745   21.1811 C   0  0  0  0  0  0  0  0  0  0  0  0
  -30.1000  -17.6811   21.9265 C   0  0  0  0  0  0  0  0  0  0  0  0
  -24.2667  -13.1550   20.9315 C   0  0  0  0  0  0  0  0  0  0  0  0
  -20.7171  -32.4283   22.8068 C   0  0  0  0  0  0  0  0  0  0  0  0
  -24.1089  -27.4808   19.9448 C   0  0  0  0  0  0  0  0  0  0  0  0
  -21.6997  -31.4207   22.8490 C   0  0  0  0  0  0  0  0  0  0  0  0
  -24.4462  -26.3060   20.6320 C   0  0  0  0  0  0  0  0  0  0  0  0
  -30.4028  -19.0397   21.8360 C   0  0  0  0  0  0  0  0  0  0  0  0
  -31.2995  -19.4914   20.8676 C   0  0  0  0  0  0  0  0  0  0  0  0
  -30.6939  -16.7742   21.0487 C   0  0  0  0  0  0  0  0  0  0  0  0
  -22.0856   -8.5237   21.8637 C   0  0  0  0  0  0  0  0  0  0  0  0
  -26.8025  -26.8443   20.3706 C   0  0  0  0  0  0  0  0  0  0  0  0
  -20.6031   -7.5423   23.4003 C   0  0  0  0  0  0  0  0  0  0  0  0
  -19.2284   -7.6827   25.8237 C   0  0  0  0  0  0  0  0  0  0  0  0
  -20.8190   -6.5748   24.3816 C   0  0  0  0  0  0  0  0  0  0  0  0
  -24.5739  -11.7850   20.8290 C   0  0  0  0  0  0  0  0  0  0  0  0
  -25.3934  -13.7946   20.4756 C   0  0  0  0  0  0  0  0  0  0  0  0
  -32.2113  -21.6822   21.7517 C   0  0  0  0  0  0  0  0  0  0  0  0
  -25.6226  -16.4633   23.6473 C   0  0  0  0  0  0  0  0  0  0  0  0
  -29.1602  -17.2113   22.9423 C   0  0  0  0  0  0  0  0  0  0  0  0
  -26.9434  -16.5985   23.8109 C   0  0  0  0  0  0  0  0  0  0  0  0
  -27.8284  -17.0767   22.7725 C   0  0  0  0  0  0  0  0  0  0  0  0
  -23.0698  -13.7925   21.3971 C   0  0  0  0  0  0  0  0  0  0  0  0
  -21.7233  -27.8205   22.0177 C   0  0  0  0  0  0  0  0  0  0  0  0
  -20.9304  -24.8452   20.9975 C   0  0  0  0  0  0  0  0  0  0  0  0
  -29.8653  -24.9095   20.2162 C   0  0  0  0  0  0  0  0  0  0  0  0
  -21.9323  -21.9027   19.5887 C   0  0  0  0  0  0  0  0  0  0  0  0
  -30.9279  -14.3800   20.3008 C   0  0  0  0  0  0  0  0  0  0  0  0
  -19.2806  -32.1513   23.1732 C   0  0  0  0  0  0  0  0  0  0  0  0
  -22.6680  -27.8216   19.6803 C   0  0  0  0  0  0  0  0  0  0  0  0
  -23.3943  -25.3644   21.1566 C   0  0  0  0  0  0  0  0  0  0  0  0
  -32.4556  -23.0453   21.1397 C   0  0  0  0  0  0  0  0  0  0  0  0
  -18.9221  -30.6676   23.1530 C   0  0  0  0  0  0  0  0  0  0  0  0
  -29.4811  -11.9782   18.1063 C   0  0  0  0  0  0  0  0  0  0  0  0
  -19.9887  -29.8508   23.8755 C   0  0  0  0  0  0  0  0  0  0  0  0
  -28.0502  -11.8265   18.6275 C   0  0  0  0  0  0  0  0  0  0  0  0
  -30.4812  -12.1757   19.2442 C   0  0  0  0  0  0  0  0  0  0  0  0
  -28.7250  -13.1124   20.6959 C   0  0  0  0  0  0  0  0  0  0  0  0
  -31.4544  -21.6154   19.5177 C   0  0  0  0  0  0  0  0  0  0  0  0
  -21.3504  -29.9868   23.1836 C   0  0  1  0  0  0  0  0  0  0  0  0
  -21.7077  -27.1637   20.6664 C   0  0  1  0  0  0  0  0  0  0  0  0
  -27.6735  -12.9761   19.5826 C   0  0  2  0  0  0  0  0  0  0  0  0
  -31.5204  -23.0733   19.9419 C   0  0  1  0  0  0  0  0  0  0  0  0
  -29.7722  -20.0236   22.7744 C   0  0  0  0  0  0  0  0  0  0  0  0
  -21.0669  -19.6450   18.9168 C   0  0  0  0  0  0  0  0  0  0  0  0
  -20.9250  -23.9793   23.9233 C   0  0  0  0  0  0  0  0  0  0  0  0
  -21.0046  -21.6004   23.1470 C   0  0  0  0  0  0  0  0  0  0  0  0
  -19.0553  -23.0395   22.5537 C   0  0  0  0  0  0  0  0  0  0  0  0
  -22.6148  -22.3588   16.7452 C   0  0  0  0  0  0  0  0  0  0  0  0
  -28.4428  -25.1495   20.6750 C   0  0  0  0  0  0  0  0  0  1  0  0
  -21.2812  -23.4401   21.4236 C   0  0  1  0  0  0  0  0  0  0  0  0
  -21.3407  -21.0710   18.4649 C   0  0  2  0  0  0  0  0  0  0  0  0
  -20.5866  -23.0333   22.7538 C   0  0  0  0  0  0  0  0  0  0  0  0
  -25.7997  -11.5662   20.3459 N   0  0  0  0  0  0  0  0  0  0  0  0
  -26.2727  -12.8073   20.1406 N   0  0  0  0  0  0  0  0  0  0  0  0
  -31.6256  -20.8757   20.7564 N   0  0  0  0  0  0  0  0  0  0  0  0
  -21.9995  -25.7445   20.8781 N   0  0  0  0  0  0  0  0  0  0  0  0
  -30.0615  -13.2837   20.1050 N   0  0  0  0  0  0  0  0  0  0  0  0
  -25.7079  -15.0996   20.3326 N   0  0  0  0  0  0  0  0  0  0  0  0
  -22.0082  -12.9861   21.8296 N   0  0  0  0  0  0  0  0  0  0  0  0
  -30.4081  -15.3878   21.1124 N   0  0  0  0  0  0  0  0  0  0  0  0
  -21.3976  -29.1632   21.9944 N   0  0  0  0  0  0  0  0  0  0  0  0
  -30.2167  -23.5724   20.3145 N   0  0  0  0  0  0  0  0  0  0  0  0
  -20.9573  -22.5776   20.2924 N   0  0  0  0  0  0  0  0  0  0  0  0
  -22.2768  -21.0253   17.3062 N   0  3  0  0  0  0  0  0  0  0  0  0
  -32.5506  -21.4037   22.8926 O   0  0  0  0  0  0  0  0  0  0  0  0
  -22.9393  -15.0400   21.4133 O   0  0  0  0  0  0  0  0  0  0  0  0
  -22.0082  -27.1579   23.0083 O   0  0  0  0  0  0  0  0  0  0  0  0
  -19.7522  -25.1323   20.7717 O   0  0  0  0  0  0  0  0  0  0  0  0
  -30.5943  -25.8116   19.8126 O   0  0  0  0  0  0  0  0  0  0  0  0
  -23.1383  -21.9461   19.8215 O   0  0  0  0  0  0  0  0  0  0  0  0
  -32.0375  -14.4341   19.7643 O   0  0  0  0  0  0  0  0  0  0  0  0
  -21.2853   -7.4745   22.1971 O   0  0  0  0  0  0  0  0  0  0  0  0
  -28.1103  -26.5342   20.5833 O   0  0  0  0  0  0  0  0  0  1  0  0
  -18.5694   -7.7511   26.9879 F   0  0  0  0  0  0  0  0  0  0  0  0
  -21.6863   -5.5762   24.1664 F   0  0  0  0  0  0  0  0  0  0  0  0
  1  2  1  0  0  0  0
  1  5  2  0  0  0  0
  2  6  2  0  0  0  0
  3 10  2  0  0  0  0
  3 17  1  0  0  0  0
  4 11  1  0  0  0  0
  4 17  2  0  0  0  0
  5 20  1  0  0  0  0
  6 22  1  0  0  0  0
  7 12  2  0  0  0  0
  7 21  1  0  0  0  0
  8  9  1  0  0  0  0
  8 25  2  0  0  0  0
  9 26  2  0  0  0  0
 10 27  1  0  0  0  0
 11 27  2  0  0  0  0
 12 28  1  0  0  0  0
 13 14  2  0  0  0  0
 13 29  1  0  0  0  0
 14 30  1  0  0  0  0
 15 23  1  0  0  0  0
 15 28  2  0  0  0  0
 16 30  2  0  0  0  0
 16 31  1  0  0  0  0
 17 32  1  0  0  0  0
 18 24  2  0  0  0  0
 18 26  1  0  0  0  0
 18 36  1  0  0  0  0
 19 32  1  0  0  0  0
 19 33  2  0  0  0  0
 19 39  1  0  0  0  0
 20 22  2  0  0  0  0
 20 45  1  0  0  0  0
 21 23  2  0  0  0  0
 21 46  1  0  0  0  0
 22 56  1  0  0  0  0
 23 47  1  0  0  0  0
 24 25  1  0  0  0  0
 24 60  1  0  0  0  0
 25 72  1  0  0  0  0
 26 77  1  0  0  0  0
 27 89  1  0  0  0  0
 28 90  1  0  0  0  0
 29 31  2  0  0  0  0
 29 89  1  0  0  0  0
 30 91  1  0  0  0  0
 31 92  1  0  0  0  0
 32 70  2  0  0  0  0
 33 71  1  0  0  0  0
 33 75  1  0  0  0  0
 34 48  1  0  0  0  0
 34 72  1  0  0  0  0
 34 82  2  0  0  0  0
 35 37  2  0  0  0  0
 36 38  2  0  0  0  0
 37 38  1  0  0  0  0
 39 76  1  0  0  0  0
 39 83  2  0  0  0  0
 40 57  1  0  0  0  0
 40 78  1  0  0  0  0
 40 84  2  0  0  0  0
 41 67  1  0  0  0  0
 41 73  1  0  0  0  0
 41 85  2  0  0  0  0
 42 66  1  0  0  0  0
 42 79  1  0  0  0  0
 42 86  2  0  0  0  0
 43 68  1  0  0  0  0
 43 80  1  0  0  0  0
 43 87  2  0  0  0  0
 44 74  1  0  0  0  0
 44 77  1  0  0  0  0
 44 88  2  0  0  0  0
 45 49  1  0  0  0  0
 46 57  1  0  0  0  0
 47 73  1  0  0  0  0
 48 59  1  0  0  0  0
 49 51  1  0  0  0  0
 50 52  1  0  0  0  0
 50 53  1  0  0  0  0
 51 56  1  0  0  0  0
 52 58  1  0  0  0  0
 53 74  1  0  0  0  0
 54 58  1  0  0  0  0
 54 74  1  0  0  0  0
 55 59  1  0  0  0  0
 55 72  1  0  0  0  0
 56 78  1  0  0  0  0
 57 73  1  0  0  0  0
 58 71  1  0  0  0  0
 59 79  1  0  0  0  0
 61 68  1  0  0  0  0
 62 69  1  0  0  0  0
 63 69  1  0  0  0  0
 64 69  1  0  0  0  0
 65 81  1  0  0  0  0
 66 90  1  0  0  0  0
 67 69  1  0  0  0  0
 67 80  1  0  0  0  0
 68 81  1  0  0  0  0
 70 71  1  0  0  0  0
M  CHG  1  81   1
M  ISO  4  44 100  66 101  77 100  90 101
M  END
> <Batch ID>
0063

> <Smiles>
C=CC=Cc1c([100NH:0][100C:0](=O)N2CCCC(n3nc(-c4ccc(Oc5ccc(F)cc5F)cc4)c(C(N)=O)c3N)C2)ccc(N2CC(NC(=O)[101CH2:1][101O:1]c3ccc4c(c3)CN(C(=O)C(NC(=O)C(C)NC)C(C)(C)C)C(C(=O)NC3CCCc5ccccc53)C4)CC2=O)c1C

> <Shape>
0.281

> <Color>
0.208

> <Negative vol penalty>
0.000

$$$$

  -OEChem-04042323123D

 85 93  0     1  0  0  0  0  0999 V2000
  -30.2354  -31.3463   25.9956 C   0  0  0  0  0  0  0  0  0  0  0  0
  -30.0210  -30.6966   24.7843 C   0  0  0  0  0  0  0  0  0  0  0  0
  -26.2167  -12.8662   21.3431 C   0  0  0  0  0  0  0  0  0  0  0  0
  -26.1884  -13.1458   18.9435 C   0  0  0  0  0  0  0  0  0  0  0  0
  -29.2343  -31.3577   26.9660 C   0  0  0  0  0  0  0  0  0  0  0  0
  -28.8056  -30.0570   24.5430 C   0  0  0  0  0  0  0  0  0  0  0  0
  -26.9804  -31.0334   19.9213 C   0  0  0  0  0  0  0  0  0  0  0  0
  -28.4602  -20.6828   14.2716 C   0  0  0  0  0  0  0  0  0  0  0  0
  -28.8358  -19.9800   15.4164 C   0  0  0  0  0  0  0  0  0  0  0  0
  -25.0101  -12.1698   21.2762 C   0  0  0  0  0  0  0  0  0  0  0  0
  -24.9817  -12.4493   18.8766 C   0  0  0  0  0  0  0  0  0  0  0  0
  -27.5487  -30.3410   18.8529 C   0  0  0  0  0  0  0  0  0  0  0  0
  -23.9742   -9.0526   20.4742 C   0  0  0  0  0  0  0  0  0  0  0  0
  -23.8624   -7.8769   21.2163 C   0  0  0  0  0  0  0  0  0  0  0  0
  -25.6848  -28.8096   18.8618 C   0  0  0  0  0  0  0  0  0  0  0  0
  -28.6810  -22.0119   16.7144 C   0  0  0  0  0  0  0  0  0  0  0  0
  -22.0087   -8.8262   22.4410 C   0  0  0  0  0  0  0  0  0  0  0  0
  -26.8059  -13.3543   20.1767 C   0  0  0  0  0  0  0  0  0  0  0  0
  -29.3504  -13.5358   20.1669 C   0  0  0  0  0  0  0  0  0  0  0  0
  -28.0025  -30.7261   26.7327 C   0  0  0  0  0  0  0  0  0  0  0  0
  -25.7634  -30.6119   20.4759 C   0  0  0  0  0  0  0  0  0  0  0  0
  -27.7876  -30.0588   25.5116 C   0  0  0  0  0  0  0  0  0  0  0  0
  -25.1019  -29.5000   19.9355 C   0  0  0  0  0  0  0  0  0  0  0  0
  -28.1951  -22.0501   14.3481 C   0  0  0  0  0  0  0  0  0  0  0  0
  -28.9461  -20.6445   16.6378 C   0  0  0  0  0  0  0  0  0  0  0  0
  -28.3055  -22.7146   15.5695 C   0  0  0  0  0  0  0  0  0  0  0  0
  -24.3925  -11.9613   20.0430 C   0  0  0  0  0  0  0  0  0  0  0  0
  -26.9023  -29.2272   18.3249 C   0  0  0  0  0  0  0  0  0  0  0  0
  -23.1034  -10.1152   20.7155 C   0  0  0  0  0  0  0  0  0  0  0  0
  -22.8796   -7.7637   22.1997 C   0  0  0  0  0  0  0  0  0  0  0  0
  -22.1206  -10.0020   21.6989 C   0  0  0  0  0  0  0  0  0  0  0  0
  -28.0521  -14.0743   20.2452 C   0  0  0  0  0  0  0  0  0  0  0  0
  -30.1809  -14.6236   20.2830 C   0  0  0  0  0  0  0  0  0  0  0  0
  -27.7550  -26.3102   16.4935 C   0  0  0  0  0  0  0  0  0  0  0  0
  -27.7628  -27.2300   17.4638 C   0  0  0  0  0  0  0  0  0  1  0  0
  -29.7683  -12.1740   20.0037 C   0  0  0  0  0  0  0  0  0  0  0  0
  -28.1086  -24.8947   16.8059 C   0  0  0  0  0  0  0  0  0  0  0  0
  -24.8418  -29.5721   23.3348 C   0  0  0  0  0  0  0  0  0  0  0  0
  -21.8886  -29.7054   21.9996 C   0  0  0  0  0  0  0  0  0  0  0  0
  -19.9855  -29.6723   19.1669 C   0  0  0  0  0  0  0  0  0  0  0  0
  -29.4842  -20.4371   19.0902 C   0  0  0  0  0  0  0  0  0  0  0  0
  -26.9680  -30.7248   27.8302 C   0  0  0  0  0  0  0  0  0  0  0  0
  -25.1503  -31.3856   21.6108 C   0  0  0  0  0  0  0  0  0  0  0  0
  -23.7833  -29.0189   20.4818 C   0  0  0  0  0  0  0  0  0  0  0  0
  -25.5702  -30.3437   27.3493 C   0  0  0  0  0  0  0  0  0  0  0  0
  -30.3735  -18.9978   22.2230 C   0  0  0  0  0  0  0  0  0  0  0  0
  -25.6312  -29.1085   26.4564 C   0  0  0  0  0  0  0  0  0  0  0  0
  -30.0029  -17.5217   22.0620 C   0  0  0  0  0  0  0  0  0  0  0  0
  -29.3751  -19.9134   21.5169 C   0  0  0  0  0  0  0  0  0  0  0  0
  -28.7631  -18.1200   19.9426 C   0  0  0  0  0  0  0  0  0  0  0  0
  -26.4734  -29.3748   25.2029 C   0  0  1  0  0  0  0  0  0  0  0  0
  -24.1625  -30.5615   22.4308 C   0  0  1  0  0  0  0  0  0  0  0  0
  -29.7756  -17.1558   20.5822 C   0  0  2  0  0  0  0  0  0  0  0  0
  -17.5990  -29.7591   18.3959 C   0  0  0  0  0  0  0  0  0  0  0  0
  -21.5125  -26.7975   22.8439 C   0  0  0  0  0  0  0  0  0  0  0  0
  -19.5794  -26.6601   21.2588 C   0  0  0  0  0  0  0  0  0  0  0  0
  -19.5042  -28.2495   23.1800 C   0  0  0  0  0  0  0  0  0  0  0  0
  -20.4460  -32.1693   17.6465 C   0  0  0  0  0  0  0  0  0  0  0  0
  -28.4015  -24.5318   11.6646 C   0  0  0  0  0  0  0  0  0  0  0  0
  -27.7949  -22.7773   13.1056 C   0  0  0  0  0  0  0  0  0  0  0  0
  -21.0232  -28.7447   21.2205 C   0  0  1  0  0  0  0  0  0  0  0  0
  -18.8493  -30.5674   18.7062 C   0  0  2  0  0  0  0  0  0  0  0  0
  -20.4306  -27.6206   22.1165 C   0  0  0  0  0  0  0  0  0  0  0  0
  -28.0526  -15.4011   20.3993 N   0  0  0  0  0  0  0  0  0  0  0  0
  -29.3614  -15.7054   20.4188 N   0  0  0  0  0  0  0  0  0  0  0  0
  -23.2275  -29.8049   21.5956 N   0  0  0  0  0  0  0  0  0  0  0  0
  -29.2139  -19.5095   20.1184 N   0  0  0  0  0  0  0  0  0  0  0  0
  -31.5248  -14.7507   20.2812 N   0  0  0  0  0  0  0  0  0  0  0  0
  -28.7847  -11.1811   19.9004 N   0  0  0  0  0  0  0  0  0  0  0  0
  -28.0406  -24.1028   15.6674 N   0  0  0  0  0  0  0  0  0  0  0  0
  -29.3277  -19.9302   17.8005 N   0  0  0  0  0  0  0  0  0  0  0  0
  -25.7160  -30.1443   24.2392 N   0  0  0  0  0  0  0  0  0  0  0  0
  -20.0206  -29.5577   20.5406 N   0  0  0  0  0  0  0  0  0  0  0  0
  -19.2432  -31.3138   17.4780 N   0  3  0  0  0  0  0  0  0  0  0  0
  -30.9784  -11.8456   19.9676 O   0  0  0  0  0  0  0  0  0  0  0  0
  -28.4093  -24.5513   17.9431 O   0  0  0  0  0  0  0  0  0  0  0  0
  -24.5903  -28.3782   23.2213 O   0  0  0  0  0  0  0  0  0  0  0  0
  -21.3930  -30.3494   22.9277 O   0  0  0  0  0  0  0  0  0  0  0  0
  -20.7618  -29.1262   18.3861 O   0  0  0  0  0  0  0  0  0  0  0  0
  -29.8553  -21.5878   19.3353 O   0  0  0  0  0  0  0  0  0  0  0  0
  -23.2152  -11.2816   19.9774 O   0  0  0  0  0  0  0  0  0  0  0  0
  -27.4551  -28.5491   17.2825 O   0  0  0  0  0  0  0  0  0  1  0  0
  -28.7376  -23.8074   12.8402 O   0  0  0  0  0  0  0  0  0  0  0  0
  -22.7713   -6.6340   22.9112 F   0  0  0  0  0  0  0  0  0  0  0  0
  -21.2803  -11.0190   21.9344 F   0  0  0  0  0  0  0  0  0  0  0  0
  1  2  1  0  0  0  0
  1  5  2  0  0  0  0
  2  6  2  0  0  0  0
  3 10  2  0  0  0  0
  3 18  1  0  0  0  0
  4 11  1  0  0  0  0
  4 18  2  0  0  0  0
  5 20  1  0  0  0  0
  6 22  1  0  0  0  0
  7 12  2  0  0  0  0
  7 21  1  0  0  0  0
  8  9  2  0  0  0  0
  8 24  1  0  0  0  0
  9 25  1  0  0  0  0
 10 27  1  0  0  0  0
 11 27  2  0  0  0  0
 12 28  1  0  0  0  0
 13 14  2  0  0  0  0
 13 29  1  0  0  0  0
 14 30  1  0  0  0  0
 15 23  1  0  0  0  0
 15 28  2  0  0  0  0
 16 25  2  0  0  0  0
 16 26  1  0  0  0  0
 17 30  2  0  0  0  0
 17 31  1  0  0  0  0
 18 32  1  0  0  0  0
 19 32  1  0  0  0  0
 19 33  2  0  0  0  0
 19 36  1  0  0  0  0
 20 22  2  0  0  0  0
 20 42  1  0  0  0  0
 21 23  2  0  0  0  0
 21 43  1  0  0  0  0
 22 51  1  0  0  0  0
 23 44  1  0  0  0  0
 24 26  2  0  0  0  0
 24 60  1  0  0  0  0
 25 71  1  0  0  0  0
 26 70  1  0  0  0  0
 27 81  1  0  0  0  0
 28 82  1  0  0  0  0
 29 31  2  0  0  0  0
 29 81  1  0  0  0  0
 30 84  1  0  0  0  0
 31 85  1  0  0  0  0
 32 64  2  0  0  0  0
 33 65  1  0  0  0  0
 33 68  1  0  0  0  0
 34 35  2  0  0  0  0
 34 37  1  0  0  0  0
 35 82  1  0  0  0  0
 36 69  1  0  0  0  0
 36 75  2  0  0  0  0
 37 70  1  0  0  0  0
 37 76  2  0  0  0  0
 38 52  1  0  0  0  0
 38 72  1  0  0  0  0
 38 77  2  0  0  0  0
 39 61  1  0  0  0  0
 39 66  1  0  0  0  0
 39 78  2  0  0  0  0
 40 62  1  0  0  0  0
 40 73  1  0  0  0  0
 40 79  2  0  0  0  0
 41 67  1  0  0  0  0
 41 71  1  0  0  0  0
 41 80  2  0  0  0  0
 42 45  1  0  0  0  0
 43 52  1  0  0  0  0
 44 66  1  0  0  0  0
 45 47  1  0  0  0  0
 46 48  1  0  0  0  0
 46 49  1  0  0  0  0
 47 51  1  0  0  0  0
 48 53  1  0  0  0  0
 49 67  1  0  0  0  0
 50 53  1  0  0  0  0
 50 67  1  0  0  0  0
 51 72  1  0  0  0  0
 52 66  1  0  0  0  0
 53 65  1  0  0  0  0
 54 62  1  0  0  0  0
 55 63  1  0  0  0  0
 56 63  1  0  0  0  0
 57 63  1  0  0  0  0
 58 74  1  0  0  0  0
 59 83  1  0  0  0  0
 60 83  1  0  0  0  0
 61 63  1  0  0  0  0
 61 73  1  0  0  0  0
 62 74  1  0  0  0  0
 64 65  1  0  0  0  0
M  CHG  1  74   1
M  ISO  4  35 101  41 100  71 100  82 101
M  END
> <Batch ID>
0063

> <Smiles>
CNC(C)C(=O)NC(C(=O)N1Cc2cc([101O:1][101CH:1]=CC(=O)Nc3cc([100NH:0][100C:0](=O)N4CCCC(n5nc(-c6ccc(Oc7ccc(F)cc7F)cc6)c(C(N)=O)c5N)C4)ccc3COC)ccc2CC1C(=O)NC1CCCc2ccccc21)C(C)(C)C

> <Shape>
0.283

> <Color>
0.072

> <Negative vol penalty>
0.000

$$$$

  -OEChem-04042323123D

 89 98  0     1  0  0  0  0  0999 V2000
  -27.1168  -24.1830   13.5268 C   0  0  0  0  0  0  0  0  0  0  0  0
  -27.1697  -23.7961   14.8620 C   0  0  0  0  0  0  0  0  0  0  0  0
  -23.1049   -9.8264   20.1216 C   0  0  0  0  0  0  0  0  0  0  0  0
  -23.7395  -10.1090   22.4356 C   0  0  0  0  0  0  0  0  0  0  0  0
  -26.8351  -25.5080   13.1967 C   0  0  0  0  0  0  0  0  0  0  0  0
  -26.9421  -24.7344   15.8681 C   0  0  0  0  0  0  0  0  0  0  0  0
  -23.8695  -22.9874   19.4947 C   0  0  0  0  0  0  0  0  0  0  0  0
  -22.3485   -8.7062   20.4658 C   0  0  0  0  0  0  0  0  0  0  0  0
  -22.9830   -8.9888   22.7799 C   0  0  0  0  0  0  0  0  0  0  0  0
  -24.4241  -22.1223   20.4369 C   0  0  0  0  0  0  0  0  0  0  0  0
  -19.7269   -8.2473   23.2980 C   0  0  0  0  0  0  0  0  0  0  0  0
  -18.9076   -8.3412   24.4229 C   0  0  0  0  0  0  0  0  0  0  0  0
  -24.6161  -23.9530   21.9960 C   0  0  0  0  0  0  0  0  0  0  0  0
  -29.6690  -18.0255   22.3356 C   0  0  0  0  0  0  0  0  0  0  0  0
  -31.7950  -17.4997   21.3156 C   0  0  0  0  0  0  0  0  0  0  0  0
  -20.1072   -6.5121   25.4491 C   0  0  0  0  0  0  0  0  0  0  0  0
  -23.8005  -10.5278   21.1065 C   0  0  0  0  0  0  0  0  0  0  0  0
  -24.1485  -13.0232   20.7072 C   0  0  0  0  0  0  0  0  0  0  0  0
  -26.5944  -26.4609   14.1991 C   0  0  0  0  0  0  0  0  0  0  0  0
  -23.6938  -24.3464   19.7927 C   0  0  0  0  0  0  0  0  0  0  0  0
  -26.6583  -26.0737   15.5512 C   0  0  0  0  0  0  0  0  0  0  0  0
  -24.0567  -24.8328   21.0567 C   0  0  0  0  0  0  0  0  0  0  0  0
  -31.4397  -19.6690   22.3181 C   0  0  0  0  0  0  0  0  0  0  0  0
  -30.1408  -19.2964   22.6640 C   0  0  0  0  0  0  0  0  0  0  0  0
  -30.4961  -17.1271   21.6615 C   0  0  0  0  0  0  0  0  0  0  0  0
  -22.2875   -8.2874   21.7949 C   0  0  0  0  0  0  0  0  0  0  0  0
  -24.8001  -22.6056   21.6868 C   0  0  0  0  0  0  0  0  0  0  0  0
  -20.7363   -7.2858   23.2485 C   0  0  0  0  0  0  0  0  0  0  0  0
  -19.0978   -7.4736   25.4985 C   0  0  0  0  0  0  0  0  0  0  0  0
  -32.2668  -18.7706   21.6439 C   0  0  0  0  0  0  0  0  0  0  0  0
  -20.9264   -6.4183   24.3240 C   0  0  0  0  0  0  0  0  0  0  0  0
  -24.5825  -11.6847   20.7515 C   0  0  0  0  0  0  0  0  0  0  0  0
  -25.2588  -13.7314   20.3172 C   0  0  0  0  0  0  0  0  0  0  0  0
  -29.5077  -20.7820   24.6181 C   0  0  0  0  0  0  0  0  0  0  0  0
  -22.8573  -13.5769   20.9932 C   0  0  0  0  0  0  0  0  0  0  0  0
  -24.8181  -27.0685   18.5971 C   0  0  0  0  0  0  0  0  0  0  0  0
  -22.7227  -28.3981   20.6860 C   0  0  0  0  0  0  0  0  0  0  0  0
  -20.9091  -28.0918   23.5607 C   0  0  0  0  0  0  0  0  0  0  0  0
  -30.7076  -14.8249   20.6608 C   0  0  0  0  0  0  0  0  0  0  0  0
  -26.3405  -27.8915   13.7947 C   0  0  0  0  0  0  0  0  0  0  0  0
  -23.0695  -25.2611   18.7749 C   0  0  0  0  0  0  0  0  0  0  0  0
  -23.8702  -26.2791   21.4334 C   0  0  0  0  0  0  0  0  0  0  0  0
  -25.7417  -28.7429   14.9113 C   0  0  0  0  0  0  0  0  0  0  0  0
  -29.7229  -12.1413   18.5382 C   0  0  0  0  0  0  0  0  0  0  0  0
  -26.4968  -28.5182   16.2175 C   0  0  0  0  0  0  0  0  0  0  0  0
  -28.2621  -11.8934   18.9211 C   0  0  0  0  0  0  0  0  0  0  0  0
  -30.5716  -12.5162   19.7518 C   0  0  0  0  0  0  0  0  0  0  0  0
  -28.0437  -20.6876   22.7681 C   0  0  0  0  0  0  0  0  0  0  0  0
  -28.5927  -13.3866   20.9330 C   0  0  0  0  0  0  0  0  0  0  0  0
  -26.3927  -27.0569   16.6705 C   0  0  1  0  0  0  0  0  0  0  0  0
  -28.3765  -21.7693   24.8660 C   0  0  1  0  0  0  0  0  0  0  0  0
  -23.4114  -26.7303   19.0027 C   0  0  1  0  0  0  0  0  0  0  0  0
  -27.2667  -21.2529   23.9493 C   0  0  1  0  0  0  0  0  0  0  0  0
  -27.6851  -13.0693   19.7334 C   0  0  2  0  0  0  0  0  0  0  0  0
  -31.9679  -21.0253   22.6573 C   0  0  0  0  0  0  0  0  0  0  0  0
  -19.3193  -29.3594   25.0314 C   0  0  0  0  0  0  0  0  0  0  0  0
  -27.9388  -20.4365   26.9486 C   0  0  0  0  0  0  0  0  0  0  0  0
  -28.9202  -22.7413   27.1164 C   0  0  0  0  0  0  0  0  0  0  0  0
  -25.0489  -30.0423   21.7794 C   0  0  0  0  0  0  0  0  0  0  0  0
  -23.6536  -30.5466   23.7960 C   0  0  0  0  0  0  0  0  0  0  0  0
  -22.9020  -31.3025   21.5408 C   0  0  0  0  0  0  0  0  0  0  0  0
  -18.7620  -26.0952   23.1579 C   0  0  0  0  0  0  0  0  0  0  0  0
  -26.2714  -22.3252   23.5341 C   0  0  0  0  0  0  0  0  0  1  0  0
  -22.7876  -28.8457   22.1263 C   0  0  1  0  0  0  0  0  0  0  0  0
  -19.4525  -28.3878   23.8691 C   0  0  2  0  0  0  0  0  0  0  0  0
  -27.9720  -21.8350   26.3290 C   0  0  0  0  0  0  0  0  0  0  0  0
  -23.6035  -30.1573   22.3031 C   0  0  0  0  0  0  0  0  0  0  0  0
  -25.8681  -11.5482   20.4161 N   0  0  0  0  0  0  0  0  0  0  0  0
  -26.2516  -12.8100   20.1574 N   0  0  0  0  0  0  0  0  0  0  0  0
  -29.2792  -20.2014   23.3540 N   0  0  0  0  0  0  0  0  0  0  0  0
  -23.2615  -27.1352   20.4019 N   0  0  0  0  0  0  0  0  0  0  0  0
  -29.9660  -13.6398   20.4697 N   0  0  0  0  0  0  0  0  0  0  0  0
  -25.4730  -15.0463   20.0986 N   0  0  0  0  0  0  0  0  0  0  0  0
  -21.8285  -12.7075   21.3807 N   0  0  0  0  0  0  0  0  0  0  0  0
  -30.0169  -15.8360   21.3280 N   0  0  0  0  0  0  0  0  0  0  0  0
  -25.0999  -26.8046   17.2702 N   0  0  0  0  0  0  0  0  0  0  0  0
  -21.4068  -28.9339   22.5889 N   0  0  0  0  0  0  0  0  0  0  0  0
  -18.7321  -27.1317   24.2217 N   0  3  0  0  0  0  0  0  0  0  0  0
  -30.4405  -20.6253   25.3928 O   0  0  0  0  0  0  0  0  0  0  0  0
  -22.6184  -14.8041   20.8918 O   0  0  0  0  0  0  0  0  0  0  0  0
  -25.5902  -27.5357   19.4261 O   0  0  0  0  0  0  0  0  0  0  0  0
  -22.2064  -29.1386   19.8453 O   0  0  0  0  0  0  0  0  0  0  0  0
  -21.5432  -27.2048   24.1280 O   0  0  0  0  0  0  0  0  0  0  0  0
  -31.8604  -14.9443   20.2379 O   0  0  0  0  0  0  0  0  0  0  0  0
  -21.5493   -7.1944   22.1312 O   0  0  0  0  0  0  0  0  0  0  0  0
  -25.3423  -21.7635   22.6080 O   0  0  0  0  0  0  0  0  0  1  0  0
  -18.3119   -7.5649   26.5794 F   0  0  0  0  0  0  0  0  0  0  0  0
  -33.5161  -19.1194   21.3055 F   0  0  0  0  0  0  0  0  0  0  0  0
  -21.8952   -5.4933   24.2828 F   0  0  0  0  0  0  0  0  0  0  0  0
  1  2  1  0  0  0  0
  1  5  2  0  0  0  0
  2  6  2  0  0  0  0
  3  8  2  0  0  0  0
  3 17  1  0  0  0  0
  4  9  1  0  0  0  0
  4 17  2  0  0  0  0
  5 19  1  0  0  0  0
  6 21  1  0  0  0  0
  7 10  2  0  0  0  0
  7 20  1  0  0  0  0
  8 26  1  0  0  0  0
  9 26  2  0  0  0  0
 10 27  1  0  0  0  0
 11 12  2  0  0  0  0
 11 28  1  0  0  0  0
 12 29  1  0  0  0  0
 13 22  1  0  0  0  0
 13 27  2  0  0  0  0
 14 24  1  0  0  0  0
 14 25  2  0  0  0  0
 15 25  1  0  0  0  0
 15 30  2  0  0  0  0
 16 29  2  0  0  0  0
 16 31  1  0  0  0  0
 17 32  1  0  0  0  0
 18 32  1  0  0  0  0
 18 33  2  0  0  0  0
 18 35  1  0  0  0  0
 19 21  2  0  0  0  0
 19 40  1  0  0  0  0
 20 22  2  0  0  0  0
 20 41  1  0  0  0  0
 21 50  1  0  0  0  0
 22 42  1  0  0  0  0
 23 24  2  0  0  0  0
 23 30  1  0  0  0  0
 23 55  1  0  0  0  0
 24 70  1  0  0  0  0
 25 75  1  0  0  0  0
 26 85  1  0  0  0  0
 27 86  1  0  0  0  0
 28 31  2  0  0  0  0
 28 85  1  0  0  0  0
 29 87  1  0  0  0  0
 30 88  1  0  0  0  0
 31 89  1  0  0  0  0
 32 68  2  0  0  0  0
 33 69  1  0  0  0  0
 33 73  1  0  0  0  0
 34 51  1  0  0  0  0
 34 70  1  0  0  0  0
 34 79  2  0  0  0  0
 35 74  1  0  0  0  0
 35 80  2  0  0  0  0
 36 52  1  0  0  0  0
 36 76  1  0  0  0  0
 36 81  2  0  0  0  0
 37 64  1  0  0  0  0
 37 71  1  0  0  0  0
 37 82  2  0  0  0  0
 38 65  1  0  0  0  0
 38 77  1  0  0  0  0
 38 83  2  0  0  0  0
 39 72  1  0  0  0  0
 39 75  1  0  0  0  0
 39 84  2  0  0  0  0
 40 43  1  0  0  0  0
 41 52  1  0  0  0  0
 42 71  1  0  0  0  0
 43 45  1  0  0  0  0
 44 46  1  0  0  0  0
 44 47  1  0  0  0  0
 45 50  1  0  0  0  0
 46 54  1  0  0  0  0
 47 72  1  0  0  0  0
 48 53  1  0  0  0  0
 48 70  1  0  0  0  0
 49 54  1  0  0  0  0
 49 72  1  0  0  0  0
 50 76  1  0  0  0  0
 51 53  1  0  0  0  0
 51 66  1  0  0  0  0
 52 71  1  0  0  0  0
 53 63  1  0  0  0  0
 54 69  1  0  0  0  0
 56 65  1  0  0  0  0
 57 66  1  0  0  0  0
 58 66  1  0  0  0  0
 59 67  1  0  0  0  0
 60 67  1  0  0  0  0
 61 67  1  0  0  0  0
 62 78  1  0  0  0  0
 63 86  1  0  0  0  0
 64 67  1  0  0  0  0
 64 77  1  0  0  0  0
 65 78  1  0  0  0  0
 68 69  1  0  0  0  0
M  CHG  1  78   1
M  ISO  4  39 100  63 101  75 100  86 101
M  END
> <Batch ID>
0063

> <Smiles>
CNC(C)C(=O)NC(C(=O)N1Cc2cc([101O:1][101CH2:1]C3CN(c4cc([100NH:0][100C:0](=O)N5CCCC(n6nc(-c7ccc(Oc8ccc(F)cc8F)cc7)c(C(N)=O)c6N)C5)cc(F)c4C)C(=O)C3C(C)C)ccc2CC1C(=O)NC1CCCc2ccccc21)C(C)(C)C

> <Shape>
0.254

> <Color>
0.195

> <Negative vol penalty>
0.000

$$$$

  -OEChem-04042323123D

 85 93  0     1  0  0  0  0  0999 V2000
  -26.2763  -38.5607   21.8769 C   0  0  0  0  0  0  0  0  0  0  0  0
  -26.7353  -37.2490   21.9401 C   0  0  0  0  0  0  0  0  0  0  0  0
  -31.2051  -18.8937   18.6487 C   0  0  0  0  0  0  0  0  0  0  0  0
  -23.1274   -9.8494   21.1302 C   0  0  0  0  0  0  0  0  0  0  0  0
  -23.9188  -10.5979   23.2867 C   0  0  0  0  0  0  0  0  0  0  0  0
  -24.9952  -38.8723   22.3304 C   0  0  0  0  0  0  0  0  0  0  0  0
  -25.9139  -36.2482   22.4578 C   0  0  0  0  0  0  0  0  0  0  0  0
  -25.6340  -30.4072   20.6384 C   0  0  0  0  0  0  0  0  0  0  0  0
  -30.4808  -19.9269   19.2432 C   0  0  0  0  0  0  0  0  0  0  0  0
  -31.0494  -17.5831   19.1003 C   0  0  0  0  0  0  0  0  0  0  0  0
  -22.4116   -8.8244   21.7487 C   0  0  0  0  0  0  0  0  0  0  0  0
  -23.2029   -9.5729   23.9052 C   0  0  0  0  0  0  0  0  0  0  0  0
  -26.2069  -29.2397   21.1409 C   0  0  0  0  0  0  0  0  0  0  0  0
  -20.0010   -8.9583   24.7943 C   0  0  0  0  0  0  0  0  0  0  0  0
  -19.2614   -9.2814   25.9319 C   0  0  0  0  0  0  0  0  0  0  0  0
  -24.1737  -28.7702   22.3513 C   0  0  0  0  0  0  0  0  0  0  0  0
  -20.5535   -7.6988   27.2215 C   0  0  0  0  0  0  0  0  0  0  0  0
  -23.8811  -10.7361   21.8993 C   0  0  0  0  0  0  0  0  0  0  0  0
  -24.1679  -13.0967   20.9756 C   0  0  0  0  0  0  0  0  0  0  0  0
  -24.1540  -37.8732   22.8450 C   0  0  0  0  0  0  0  0  0  0  0  0
  -24.3283  -30.7711   20.9978 C   0  0  0  0  0  0  0  0  0  0  0  0
  -24.6208  -36.5469   22.9198 C   0  0  0  0  0  0  0  0  0  0  0  0
  -23.5856  -29.9415   21.8499 C   0  0  0  0  0  0  0  0  0  0  0  0
  -29.4450  -18.3390   20.7409 C   0  0  0  0  0  0  0  0  0  0  0  0
  -29.6007  -19.6496   20.2892 C   0  0  0  0  0  0  0  0  0  0  0  0
  -30.1693  -17.3058   20.1464 C   0  0  0  0  0  0  0  0  0  0  0  0
  -22.4493   -8.6861   23.1362 C   0  0  0  0  0  0  0  0  0  0  0  0
  -25.4778  -28.4225   21.9998 C   0  0  0  0  0  0  0  0  0  0  0  0
  -21.0168   -8.0053   24.8702 C   0  0  0  0  0  0  0  0  0  0  0  0
  -19.5377   -8.6517   27.1455 C   0  0  0  0  0  0  0  0  0  0  0  0
  -21.2931   -7.3756   26.0838 C   0  0  0  0  0  0  0  0  0  0  0  0
  -24.6212  -11.7948   21.2609 C   0  0  0  0  0  0  0  0  0  0  0  0
  -25.2388  -13.7084   20.3712 C   0  0  0  0  0  0  0  0  0  0  0  0
  -22.8928  -13.6992   21.2339 C   0  0  0  0  0  0  0  0  0  0  0  0
  -23.0266  -33.2372   22.5234 C   0  0  0  0  0  0  0  0  0  0  0  0
  -20.2476  -31.7996   21.6672 C   0  0  0  0  0  0  0  0  0  0  0  0
  -28.9244  -22.0628   20.5384 C   0  0  0  0  0  0  0  0  0  0  0  0
  -18.6226  -28.9336   20.7774 C   0  0  0  0  0  0  0  0  0  0  0  0
  -30.6837  -14.8402   20.0955 C   0  0  0  0  0  0  0  0  0  0  0  0
  -22.7947  -38.2664   23.3668 C   0  0  0  0  0  0  0  0  0  0  0  0
  -23.7152  -32.0199   20.4258 C   0  0  0  0  0  0  0  0  0  0  0  0
  -22.1729  -30.2770   22.2503 C   0  0  0  0  0  0  0  0  0  0  0  0
  -21.8488  -37.0831   23.5548 C   0  0  0  0  0  0  0  0  0  0  0  0
  -29.5876  -11.7810   18.6405 C   0  0  0  0  0  0  0  0  0  0  0  0
  -22.5597  -35.9401   24.2724 C   0  0  0  0  0  0  0  0  0  0  0  0
  -28.1605  -11.6190   19.1691 C   0  0  0  0  0  0  0  0  0  0  0  0
  -30.5143  -12.3947   19.6886 C   0  0  0  0  0  0  0  0  0  0  0  0
  -28.6119  -13.4914   20.8053 C   0  0  0  0  0  0  0  0  0  0  0  0
  -23.7503  -35.4293   23.4519 C   0  0  1  0  0  0  0  0  0  0  0  0
  -22.5614  -32.5581   21.2664 C   0  0  1  0  0  0  0  0  0  0  0  0
  -27.6266  -12.9371   19.7634 C   0  0  2  0  0  0  0  0  0  0  0  0
  -28.5008  -18.0414   21.8646 C   0  0  0  0  0  0  0  0  0  0  0  0
  -16.3461  -28.0653   20.1763 C   0  0  0  0  0  0  0  0  0  0  0  0
  -19.4364  -31.8981   24.6070 C   0  0  0  0  0  0  0  0  0  0  0  0
  -17.6545  -30.2141   24.0996 C   0  0  0  0  0  0  0  0  0  0  0  0
  -17.6025  -32.4524   22.9996 C   0  0  0  0  0  0  0  0  0  0  0  0
  -19.5279  -28.0865   18.0901 C   0  0  0  0  0  0  0  0  0  0  0  0
  -27.9853  -22.8716   21.4248 C   0  0  0  0  0  0  0  0  0  0  0  0
  -27.9778  -24.3680   21.1151 C   0  0  0  0  0  0  0  0  0  0  0  0
  -26.9702  -25.1348   21.9725 C   0  0  0  0  0  0  0  0  0  0  0  0
  -27.0037  -26.6276   21.6749 C   0  0  0  0  0  0  0  0  0  1  0  0
  -19.3442  -30.7628   22.2899 C   0  0  1  0  0  0  0  0  0  0  0  0
  -17.6537  -28.6342   19.6477 C   0  0  2  0  0  0  0  0  0  0  0  0
  -18.5367  -31.3262   23.4932 C   0  0  0  0  0  0  0  0  0  0  0  0
  -25.8819  -11.5905   20.8697 N   0  0  0  0  0  0  0  0  0  0  0  0
  -26.2298  -12.7722   20.3324 N   0  0  0  0  0  0  0  0  0  0  0  0
  -21.6198  -31.5117   21.6698 N   0  0  0  0  0  0  0  0  0  0  0  0
  -29.9459  -13.6423   20.2035 N   0  0  0  0  0  0  0  0  0  0  0  0
  -25.4201  -14.9505   19.8743 N   0  0  0  0  0  0  0  0  0  0  0  0
  -21.9050  -12.9291   21.8629 N   0  0  0  0  0  0  0  0  0  0  0  0
  -28.8772  -20.7137   20.8785 N   0  0  0  0  0  0  0  0  0  0  0  0
  -30.0284  -15.9675   20.5899 N   0  0  0  0  0  0  0  0  0  0  0  0
  -23.2929  -34.5844   22.3696 N   0  0  0  0  0  0  0  0  0  0  0  0
  -18.5173  -30.2393   21.2080 N   0  0  0  0  0  0  0  0  0  0  0  0
  -18.2484  -27.6465   18.7035 N   0  3  0  0  0  0  0  0  0  0  0  0
  -22.6314  -14.8802   20.9016 O   0  0  0  0  0  0  0  0  0  0  0  0
  -23.1344  -32.5874   23.5568 O   0  0  0  0  0  0  0  0  0  0  0  0
  -19.7533  -32.8239   21.1895 O   0  0  0  0  0  0  0  0  0  0  0  0
  -29.5888  -22.5823   19.6478 O   0  0  0  0  0  0  0  0  0  0  0  0
  -19.3929  -28.0922   21.2348 O   0  0  0  0  0  0  0  0  0  0  0  0
  -31.8023  -14.8688   19.5761 O   0  0  0  0  0  0  0  0  0  0  0  0
  -21.7507   -7.6862   23.7401 O   0  0  0  0  0  0  0  0  0  0  0  0
  -26.0348  -27.2828   22.4923 O   0  0  0  0  0  0  0  0  0  1  0  0
  -18.8284   -8.9632   28.2382 F   0  0  0  0  0  0  0  0  0  0  0  0
  -22.2686   -6.4602   26.1632 F   0  0  0  0  0  0  0  0  0  0  0  0
  1  2  1  0  0  0  0
  1  6  2  0  0  0  0
  2  7  2  0  0  0  0
  3  9  2  0  0  0  0
  3 10  1  0  0  0  0
  4 11  2  0  0  0  0
  4 18  1  0  0  0  0
  5 12  1  0  0  0  0
  5 18  2  0  0  0  0
  6 20  1  0  0  0  0
  7 22  1  0  0  0  0
  8 13  2  0  0  0  0
  8 21  1  0  0  0  0
  9 25  1  0  0  0  0
 10 26  2  0  0  0  0
 11 27  1  0  0  0  0
 12 27  2  0  0  0  0
 13 28  1  0  0  0  0
 14 15  2  0  0  0  0
 14 29  1  0  0  0  0
 15 30  1  0  0  0  0
 16 23  1  0  0  0  0
 16 28  2  0  0  0  0
 17 30  2  0  0  0  0
 17 31  1  0  0  0  0
 18 32  1  0  0  0  0
 19 32  1  0  0  0  0
 19 33  2  0  0  0  0
 19 34  1  0  0  0  0
 20 22  2  0  0  0  0
 20 40  1  0  0  0  0
 21 23  2  0  0  0  0
 21 41  1  0  0  0  0
 22 49  1  0  0  0  0
 23 42  1  0  0  0  0
 24 25  2  0  0  0  0
 24 26  1  0  0  0  0
 24 52  1  0  0  0  0
 25 71  1  0  0  0  0
 26 72  1  0  0  0  0
 27 82  1  0  0  0  0
 28 83  1  0  0  0  0
 29 31  2  0  0  0  0
 29 82  1  0  0  0  0
 30 84  1  0  0  0  0
 31 85  1  0  0  0  0
 32 65  2  0  0  0  0
 33 66  1  0  0  0  0
 33 69  1  0  0  0  0
 34 70  1  0  0  0  0
 34 76  2  0  0  0  0
 35 50  1  0  0  0  0
 35 73  1  0  0  0  0
 35 77  2  0  0  0  0
 36 62  1  0  0  0  0
 36 67  1  0  0  0  0
 36 78  2  0  0  0  0
 37 58  1  0  0  0  0
 37 71  1  0  0  0  0
 37 79  2  0  0  0  0
 38 63  1  0  0  0  0
 38 74  1  0  0  0  0
 38 80  2  0  0  0  0
 39 68  1  0  0  0  0
 39 72  1  0  0  0  0
 39 81  2  0  0  0  0
 40 43  1  0  0  0  0
 41 50  1  0  0  0  0
 42 67  1  0  0  0  0
 43 45  1  0  0  0  0
 44 46  1  0  0  0  0
 44 47  1  0  0  0  0
 45 49  1  0  0  0  0
 46 51  1  0  0  0  0
 47 68  1  0  0  0  0
 48 51  1  0  0  0  0
 48 68  1  0  0  0  0
 49 73  1  0  0  0  0
 50 67  1  0  0  0  0
 51 66  1  0  0  0  0
 53 63  1  0  0  0  0
 54 64  1  0  0  0  0
 55 64  1  0  0  0  0
 56 64  1  0  0  0  0
 57 75  1  0  0  0  0
 58 59  1  0  0  0  0
 59 60  1  0  0  0  0
 60 61  1  0  0  0  0
 61 83  1  0  0  0  0
 62 64  1  0  0  0  0
 62 74  1  0  0  0  0
 63 75  1  0  0  0  0
 65 66  1  0  0  0  0
M  CHG  1  75   1
M  ISO  4  39 100  61 101  72 100  83 101
M  END
> <Batch ID>
0063

> <Smiles>
CNC(C)C(=O)NC(C(=O)N1Cc2cc([101O:1][101CH2:1]CCCC(=O)Nc3cccc([100NH:0][100C:0](=O)N4CCCC(n5nc(-c6ccc(Oc7ccc(F)cc7F)cc6)c(C(N)=O)c5N)C4)c3C)ccc2CC1C(=O)NC1CCCc2ccccc21)C(C)(C)C

> <Shape>
0.297

> <Color>
0.179

> <Negative vol penalty>
0.000

$$$$
