
  -OEChem-04042323153D

 90 99  0     1  0  0  0  0  0999 V2000
  -16.5558  -28.6084   23.3231 C   0  0  0  0  0  0  0  0  0  0  0  0
  -17.4177  -28.2418   22.2945 C   0  0  0  0  0  0  0  0  0  0  0  0
  -27.5328  -11.7226   17.8661 C   0  0  0  0  0  0  0  0  0  0  0  0
  -26.2919  -12.2785   19.8632 C   0  0  0  0  0  0  0  0  0  0  0  0
  -16.9846  -29.4991   24.3063 C   0  0  0  0  0  0  0  0  0  0  0  0
  -18.7087  -28.7667   22.2478 C   0  0  0  0  0  0  0  0  0  0  0  0
  -23.7685  -25.9275   20.2874 C   0  0  0  0  0  0  0  0  0  0  0  0
  -26.5293  -10.8293   17.4912 C   0  0  0  0  0  0  0  0  0  0  0  0
  -25.2884  -11.3852   19.4883 C   0  0  0  0  0  0  0  0  0  0  0  0
  -24.4526  -25.9619   19.0730 C   0  0  0  0  0  0  0  0  0  0  0  0
  -24.7736   -8.0444   19.5574 C   0  0  0  0  0  0  0  0  0  0  0  0
  -24.2683   -7.1892   20.5366 C   0  0  0  0  0  0  0  0  0  0  0  0
  -29.2969  -19.5849   15.0277 C   0  0  0  0  0  0  0  0  0  0  0  0
  -25.9526  -27.6235   19.9721 C   0  0  0  0  0  0  0  0  0  0  0  0
  -28.4559  -21.4807   16.2669 C   0  0  0  0  0  0  0  0  0  0  0  0
  -22.0648   -8.1276   20.2192 C   0  0  0  0  0  0  0  0  0  0  0  0
  -27.4142  -12.4472   19.0522 C   0  0  0  0  0  0  0  0  0  0  0  0
  -29.0910  -20.2746   13.8329 C   0  0  0  0  0  0  0  0  0  0  0  0
  -29.8046  -13.0727   19.6862 C   0  0  0  0  0  0  0  0  0  0  0  0
  -18.2847  -30.0277   24.2770 C   0  0  0  0  0  0  0  0  0  0  0  0
  -24.1652  -26.7502   21.3514 C   0  0  0  0  0  0  0  0  0  0  0  0
  -19.1549  -29.6664   23.2307 C   0  0  0  0  0  0  0  0  0  0  0  0
  -25.2734  -27.5958   21.1997 C   0  0  0  0  0  0  0  0  0  0  0  0
  -28.5675  -21.5673   13.8551 C   0  0  0  0  0  0  0  0  0  0  0  0
  -28.2500  -22.1704   15.0721 C   0  0  0  0  0  0  0  0  0  0  0  0
  -28.9794  -20.1880   16.2447 C   0  0  0  0  0  0  0  0  0  0  0  0
  -25.4071  -10.6606   18.3023 C   0  0  0  0  0  0  0  0  0  0  0  0
  -25.5430  -26.8121   18.9143 C   0  0  0  0  0  0  0  0  0  0  0  0
  -23.9245   -8.9413   18.9091 C   0  0  0  0  0  0  0  0  0  0  0  0
  -22.9139   -7.2307   20.8675 C   0  0  0  0  0  0  0  0  0  0  0  0
  -22.5701   -8.9829   19.2400 C   0  0  0  0  0  0  0  0  0  0  0  0
  -28.4507  -13.3697   19.4403 C   0  0  0  0  0  0  0  0  0  0  0  0
  -30.3662  -14.2811   20.0194 C   0  0  0  0  0  0  0  0  0  0  0  0
  -26.4909  -23.8171   14.4807 C   0  0  0  0  0  0  0  0  0  0  0  0
  -31.2122  -18.5664   11.2274 C   0  0  0  0  0  0  0  0  0  0  0  0
  -30.8511  -19.1881   12.3542 C   0  0  0  0  0  0  0  0  0  0  0  0
  -29.4327  -19.6187   12.5776 C   0  0  0  0  0  0  0  0  0  0  0  0
  -30.4932  -11.8169   19.6192 C   0  0  0  0  0  0  0  0  0  0  0  0
  -22.7987  -29.0982   23.0017 C   0  0  0  0  0  0  0  0  0  0  0  0
  -25.4921  -28.8788   24.7961 C   0  0  0  0  0  0  0  0  0  0  0  0
  -28.7723  -27.9588   24.9976 C   0  0  0  0  0  0  0  0  0  0  0  0
  -28.9264  -19.9400   18.7511 C   0  0  0  0  0  0  0  0  0  0  0  0
  -18.6874  -31.0238   25.3354 C   0  0  0  0  0  0  0  0  0  0  0  0
  -23.4333  -26.6818   22.6636 C   0  0  0  0  0  0  0  0  0  0  0  0
  -25.7520  -28.4842   22.3178 C   0  0  0  0  0  0  0  0  0  0  0  0
  -26.1737  -25.2917   14.3020 C   0  0  0  0  0  0  0  0  0  0  0  0
  -20.1954  -31.2443   25.4221 C   0  0  0  0  0  0  0  0  0  0  0  0
  -29.2671  -18.5045   21.9915 C   0  0  0  0  0  0  0  0  0  0  0  0
  -20.7874  -31.4390   24.0298 C   0  0  0  0  0  0  0  0  0  0  0  0
  -29.2258  -16.9977   21.7267 C   0  0  0  0  0  0  0  0  0  0  0  0
  -28.0876  -25.9362   15.7106 C   0  0  0  0  0  0  0  0  0  0  0  0
  -28.3222  -19.2691   21.0662 C   0  0  0  0  0  0  0  0  0  0  0  0
  -28.3610  -24.4730   16.0220 C   0  0  0  0  0  0  0  0  0  0  0  0
  -28.4571  -17.4879   19.3696 C   0  0  0  0  0  0  0  0  0  0  0  0
  -20.5711  -30.1951   23.1595 C   0  0  1  0  0  0  0  0  0  0  0  0
  -23.6070  -27.9384   23.5109 C   0  0  1  0  0  0  0  0  0  0  0  0
  -26.6110  -26.1877   15.4489 C   0  0  2  0  0  0  0  0  0  0  0  0
  -29.4408  -16.6819   20.2335 C   0  0  2  0  0  0  0  0  0  0  0  0
  -28.3479  -22.3069   12.5719 C   0  0  0  0  0  0  0  0  0  0  0  0
  -30.7186  -27.9378   26.5815 C   0  0  0  0  0  0  0  0  0  0  0  0
  -25.8774  -31.8738   24.3587 C   0  0  0  0  0  0  0  0  0  0  0  0
  -28.2482  -31.6091   25.1186 C   0  0  0  0  0  0  0  0  0  0  0  0
  -26.3742  -31.0861   26.6797 C   0  0  0  0  0  0  0  0  0  0  0  0
  -28.9714  -25.0077   24.8969 C   0  0  0  0  0  0  0  0  0  0  0  0
  -25.7428  -25.9880   16.6923 C   0  0  0  0  0  0  0  0  0  1  0  0
  -26.8587  -29.5189   24.7559 C   0  0  1  0  0  0  0  0  0  0  0  0
  -29.5315  -27.1571   26.0394 C   0  0  2  0  0  0  0  0  0  0  0  0
  -26.8296  -31.0068   25.2063 C   0  0  0  0  0  0  0  0  0  0  0  0
  -28.1691  -14.6651   19.6035 N   0  0  0  0  0  0  0  0  0  0  0  0
  -29.3538  -15.1928   19.9557 N   0  0  0  0  0  0  0  0  0  0  0  0
  -27.7052  -23.5114   15.1189 N   0  0  0  0  0  0  0  0  0  0  0  0
  -24.9996  -28.3859   23.5795 N   0  0  0  0  0  0  0  0  0  0  0  0
  -28.5870  -18.9228   19.6681 N   0  0  0  0  0  0  0  0  0  0  0  0
  -31.6222  -14.6420   20.3579 N   0  0  0  0  0  0  0  0  0  0  0  0
  -29.7653  -10.6741   19.2607 N   0  0  0  0  0  0  0  0  0  0  0  0
  -29.1880  -19.4872   17.4584 N   0  0  0  0  0  0  0  0  0  0  0  0
  -21.5171  -29.1591   23.5146 N   0  0  0  0  0  0  0  0  0  0  0  0
  -27.7315  -28.6687   25.5581 N   0  0  0  0  0  0  0  0  0  0  0  0
  -30.0357  -25.8854   25.4480 N   0  3  0  0  0  0  0  0  0  0  0  0
  -25.7021  -22.9938   14.0088 O   0  0  0  0  0  0  0  0  0  0  0  0
  -28.5654  -19.3966   11.7208 O   0  0  0  0  0  0  0  0  0  0  0  0
  -31.7141  -11.7085   19.8859 O   0  0  0  0  0  0  0  0  0  0  0  0
  -23.3012  -29.8807   22.2036 O   0  0  0  0  0  0  0  0  0  0  0  0
  -24.8870  -28.8120   25.8690 O   0  0  0  0  0  0  0  0  0  0  0  0
  -29.0748  -27.9586   23.8063 O   0  0  0  0  0  0  0  0  0  0  0  0
  -29.0075  -21.1223   19.0941 O   0  0  0  0  0  0  0  0  0  0  0  0
  -24.4275   -9.7892   17.9366 O   0  0  0  0  0  0  0  0  0  0  0  0
  -26.2122  -26.8481   17.7299 O   0  0  0  0  0  0  0  0  0  1  0  0
  -22.4285   -6.4083   21.8067 F   0  0  0  0  0  0  0  0  0  0  0  0
  -21.7492   -9.8416   18.6197 F   0  0  0  0  0  0  0  0  0  0  0  0
  1  2  1  0  0  0  0
  1  5  2  0  0  0  0
  2  6  2  0  0  0  0
  3  8  2  0  0  0  0
  3 17  1  0  0  0  0
  4  9  1  0  0  0  0
  4 17  2  0  0  0  0
  5 20  1  0  0  0  0
  6 22  1  0  0  0  0
  7 10  2  0  0  0  0
  7 21  1  0  0  0  0
  8 27  1  0  0  0  0
  9 27  2  0  0  0  0
 10 28  1  0  0  0  0
 11 12  2  0  0  0  0
 11 29  1  0  0  0  0
 12 30  1  0  0  0  0
 13 18  1  0  0  0  0
 13 26  2  0  0  0  0
 14 23  1  0  0  0  0
 14 28  2  0  0  0  0
 15 25  2  0  0  0  0
 15 26  1  0  0  0  0
 16 30  2  0  0  0  0
 16 31  1  0  0  0  0
 17 32  1  0  0  0  0
 18 24  2  0  0  0  0
 18 37  1  0  0  0  0
 19 32  1  0  0  0  0
 19 33  2  0  0  0  0
 19 38  1  0  0  0  0
 20 22  2  0  0  0  0
 20 43  1  0  0  0  0
 21 23  2  0  0  0  0
 21 44  1  0  0  0  0
 22 55  1  0  0  0  0
 23 45  1  0  0  0  0
 24 25  1  0  0  0  0
 24 59  1  0  0  0  0
 25 71  1  0  0  0  0
 26 76  1  0  0  0  0
 27 87  1  0  0  0  0
 28 88  1  0  0  0  0
 29 31  2  0  0  0  0
 29 87  1  0  0  0  0
 30 89  1  0  0  0  0
 31 90  1  0  0  0  0
 32 69  2  0  0  0  0
 33 70  1  0  0  0  0
 33 74  1  0  0  0  0
 34 46  1  0  0  0  0
 34 71  1  0  0  0  0
 34 80  2  0  0  0  0
 35 36  2  0  0  0  0
 36 37  1  0  0  0  0
 37 81  2  0  0  0  0
 38 75  1  0  0  0  0
 38 82  2  0  0  0  0
 39 56  1  0  0  0  0
 39 77  1  0  0  0  0
 39 83  2  0  0  0  0
 40 66  1  0  0  0  0
 40 72  1  0  0  0  0
 40 84  2  0  0  0  0
 41 67  1  0  0  0  0
 41 78  1  0  0  0  0
 41 85  2  0  0  0  0
 42 73  1  0  0  0  0
 42 76  1  0  0  0  0
 42 86  2  0  0  0  0
 43 47  1  0  0  0  0
 44 56  1  0  0  0  0
 45 72  1  0  0  0  0
 46 57  1  0  0  0  0
 47 49  1  0  0  0  0
 48 50  1  0  0  0  0
 48 52  1  0  0  0  0
 49 55  1  0  0  0  0
 50 58  1  0  0  0  0
 51 53  1  0  0  0  0
 51 57  1  0  0  0  0
 52 73  1  0  0  0  0
 53 71  1  0  0  0  0
 54 58  1  0  0  0  0
 54 73  1  0  0  0  0
 55 77  1  0  0  0  0
 56 72  1  0  0  0  0
 57 65  1  0  0  0  0
 58 70  1  0  0  0  0
 60 67  1  0  0  0  0
 61 68  1  0  0  0  0
 62 68  1  0  0  0  0
 63 68  1  0  0  0  0
 64 79  1  0  0  0  0
 65 88  1  0  0  0  0
 66 68  1  0  0  0  0
 66 78  1  0  0  0  0
 67 79  1  0  0  0  0
 69 70  1  0  0  0  0
M  CHG  1  79   1
M  ISO  4  42 100  65 101  76 100  88 101
M  END
> <Batch ID>
0064

> <Smiles>
C=CC(=O)c1cc([100NH:0][100C:0](=O)N2CCCC(n3nc(-c4ccc(Oc5ccc(F)cc5F)cc4)c(C(N)=O)c3N)C2)cc(N2CCC([101CH2:1][101O:1]c3ccc4c(c3)CN(C(=O)C(NC(=O)C(C)NC)C(C)(C)C)C(C(=O)NC3CCCc5ccccc53)C4)CC2=O)c1C

> <Shape>
0.243

> <Color>
0.067

> <Negative vol penalty>
0.000

$$$$

  -OEChem-04042323153D

 87 96  0     1  0  0  0  0  0999 V2000
  -27.0273  -37.7552   20.5280 C   0  0  0  0  0  0  0  0  0  0  0  0
  -27.6240  -36.5229   20.2809 C   0  0  0  0  0  0  0  0  0  0  0  0
  -23.0993  -12.1752   23.4089 C   0  0  0  0  0  0  0  0  0  0  0  0
  -22.0418  -13.4975   21.6853 C   0  0  0  0  0  0  0  0  0  0  0  0
  -25.8168  -20.3575   16.9418 C   0  0  0  0  0  0  0  0  0  0  0  0
  -26.0376  -37.8660   21.5037 C   0  0  0  0  0  0  0  0  0  0  0  0
  -27.2319  -35.4010   21.0103 C   0  0  0  0  0  0  0  0  0  0  0  0
  -26.9069  -29.6277   18.9930 C   0  0  0  0  0  0  0  0  0  0  0  0
  -26.1605  -19.1266   17.5007 C   0  0  0  0  0  0  0  0  0  0  0  0
  -21.9277  -12.2229   24.1643 C   0  0  0  0  0  0  0  0  0  0  0  0
  -20.8702  -13.5451   22.4407 C   0  0  0  0  0  0  0  0  0  0  0  0
  -27.7766  -28.5439   19.1069 C   0  0  0  0  0  0  0  0  0  0  0  0
  -18.2554  -11.5114   23.1096 C   0  0  0  0  0  0  0  0  0  0  0  0
  -17.0496  -11.2800   22.4478 C   0  0  0  0  0  0  0  0  0  0  0  0
  -26.5329  -27.7544   21.0172 C   0  0  0  0  0  0  0  0  0  0  0  0
  -28.0422  -20.1566   18.6121 C   0  0  0  0  0  0  0  0  0  0  0  0
  -16.2762  -13.4773   23.0886 C   0  0  0  0  0  0  0  0  0  0  0  0
  -23.1564  -12.8126   22.1694 C   0  0  0  0  0  0  0  0  0  0  0  0
  -26.5859  -21.4879   17.2180 C   0  0  0  0  0  0  0  0  0  0  0  0
  -24.7211  -11.7972   20.4292 C   0  0  0  0  0  0  0  0  0  0  0  0
  -25.6264  -36.7429   22.2386 C   0  0  0  0  0  0  0  0  0  0  0  0
  -25.8484  -29.7891   19.8986 C   0  0  0  0  0  0  0  0  0  0  0  0
  -26.2366  -35.4972   21.9976 C   0  0  0  0  0  0  0  0  0  0  0  0
  -25.6497  -28.8396   20.9111 C   0  0  0  0  0  0  0  0  0  0  0  0
  -27.6986  -21.3875   18.0531 C   0  0  0  0  0  0  0  0  0  0  0  0
  -27.2732  -19.0261   18.3358 C   0  0  0  0  0  0  0  0  0  0  0  0
  -20.8131  -12.9077   23.6802 C   0  0  0  0  0  0  0  0  0  0  0  0
  -27.5914  -27.6087   20.1208 C   0  0  0  0  0  0  0  0  0  0  0  0
  -18.4716  -12.7257   23.7610 C   0  0  0  0  0  0  0  0  0  0  0  0
  -16.0600  -12.2629   22.4373 C   0  0  0  0  0  0  0  0  0  0  0  0
  -17.4821  -13.7087   23.7505 C   0  0  0  0  0  0  0  0  0  0  0  0
  -24.3666  -12.7643   21.3888 C   0  0  0  0  0  0  0  0  0  0  0  0
  -25.9551  -12.1975   19.9780 C   0  0  0  0  0  0  0  0  0  0  0  0
  -28.0718  -23.7206   18.9729 C   0  0  0  0  0  0  0  0  0  0  0  0
  -26.2085  -22.7546   16.6252 C   0  0  0  0  0  0  0  0  0  0  0  0
  -23.9995  -10.6406   19.9852 C   0  0  0  0  0  0  0  0  0  0  0  0
  -25.0398  -32.0016   22.0327 C   0  0  0  0  0  0  0  0  0  0  0  0
  -22.3587  -30.1967   22.3097 C   0  0  0  0  0  0  0  0  0  0  0  0
  -20.8689  -27.1476   21.9497 C   0  0  0  0  0  0  0  0  0  0  0  0
  -28.6950  -17.5029   19.7517 C   0  0  0  0  0  0  0  0  0  0  0  0
  -24.5860  -36.9215   23.3159 C   0  0  0  0  0  0  0  0  0  0  0  0
  -24.9031  -30.9491   19.7459 C   0  0  0  0  0  0  0  0  0  0  0  0
  -24.5165  -28.9563   21.8963 C   0  0  0  0  0  0  0  0  0  0  0  0
  -23.9631  -35.6090   23.7846 C   0  0  0  0  0  0  0  0  0  0  0  0
  -29.8702  -14.5675   21.3885 C   0  0  0  0  0  0  0  0  0  0  0  0
  -25.0456  -34.5642   24.0364 C   0  0  0  0  0  0  0  0  0  0  0  0
  -28.6258  -13.6814   21.4816 C   0  0  0  0  0  0  0  0  0  0  0  0
  -30.2789  -24.0406   18.1418 C   0  0  0  0  0  0  0  0  0  0  0  0
  -29.5306  -16.0443   21.5818 C   0  0  0  0  0  0  0  0  0  0  0  0
  -29.9224  -22.5696   18.0651 C   0  0  0  0  0  0  0  0  0  0  0  0
  -27.2246  -15.6709   20.7993 C   0  0  0  0  0  0  0  0  0  0  0  0
  -25.8209  -34.2522   22.7508 C   0  0  1  0  0  0  0  0  0  0  0  0
  -29.3089  -24.5786   19.1837 C   0  0  1  0  0  0  0  0  0  0  0  0
  -24.1661  -31.2931   21.0365 C   0  0  1  0  0  0  0  0  0  0  0  0
  -27.5071  -14.1810   20.5464 C   0  0  2  0  0  0  0  0  0  0  0  0
  -18.6783  -25.9726   22.2933 C   0  0  0  0  0  0  0  0  0  0  0  0
  -22.8824  -30.1041   25.3143 C   0  0  0  0  0  0  0  0  0  0  0  0
  -21.2733  -28.1920   25.4653 C   0  0  0  0  0  0  0  0  0  0  0  0
  -20.4839  -30.4252   24.6827 C   0  0  0  0  0  0  0  0  0  0  0  0
  -20.6284  -26.5072   19.0703 C   0  0  0  0  0  0  0  0  0  0  0  0
  -29.0349  -26.0631   19.0329 C   0  0  0  0  0  0  0  0  0  1  0  0
  -21.9427  -29.0247   23.1654 C   0  0  1  0  0  0  0  0  0  0  0  0
  -19.5531  -26.7383   21.3129 C   0  0  2  0  0  0  0  0  0  0  0  0
  -21.6682  -29.4351   24.6397 C   0  0  0  0  0  0  0  0  0  0  0  0
  -25.2999  -13.7078   21.5393 N   0  0  0  0  0  0  0  0  0  0  0  0
  -26.2532  -13.3355   20.6682 N   0  0  0  0  0  0  0  0  0  0  0  0
  -28.4995  -22.5316   18.3470 N   0  0  0  0  0  0  0  0  0  0  0  0
  -23.6229  -30.1114   21.7094 N   0  0  0  0  0  0  0  0  0  0  0  0
  -28.4665  -16.4475   20.6598 N   0  0  0  0  0  0  0  0  0  0  0  0
  -26.8034  -11.6836   19.0622 N   0  0  0  0  0  0  0  0  0  0  0  0
  -26.6997  -23.1176   15.4298 N   0  0  0  0  0  0  0  0  0  0  0  0
  -22.7456  -10.3766   20.5531 N   0  0  0  0  0  0  0  0  0  0  0  0
  -27.6227  -17.7755   18.9029 N   0  0  0  0  0  0  0  0  0  0  0  0
  -25.0492  -33.3765   21.8951 N   0  0  0  0  0  0  0  0  0  0  0  0
  -20.8015  -28.4131   22.4930 N   0  0  0  0  0  0  0  0  0  0  0  0
  -25.3622  -23.5776   17.2644 N   0  3  0  0  0  0  0  0  0  0  0  0
  -19.7996  -25.8709   20.1263 N   0  3  0  0  0  0  0  0  0  0  0  0
  -26.9586  -24.0444   19.3606 O   0  0  0  0  0  0  0  0  0  0  0  0
  -24.4604   -9.8550   19.1226 O   0  0  0  0  0  0  0  0  0  0  0  0
  -25.6584  -31.3493   22.8655 O   0  0  0  0  0  0  0  0  0  0  0  0
  -21.5874  -31.1497   22.1731 O   0  0  0  0  0  0  0  0  0  0  0  0
  -21.8565  -26.4162   21.9671 O   0  0  0  0  0  0  0  0  0  0  0  0
  -29.7729  -18.1015   19.7103 O   0  0  0  0  0  0  0  0  0  0  0  0
  -19.6696  -12.9542   24.4170 O   0  0  0  0  0  0  0  0  0  0  0  0
  -28.4392  -26.5503   20.2346 O   0  0  0  0  0  0  0  0  0  1  0  0
  -14.9027  -12.0412   21.8004 F   0  0  0  0  0  0  0  0  0  0  0  0
  -17.6845  -14.8777   24.3735 F   0  0  0  0  0  0  0  0  0  0  0  0
  1  2  1  0  0  0  0
  1  6  2  0  0  0  0
  2  7  2  0  0  0  0
  3 10  2  0  0  0  0
  3 18  1  0  0  0  0
  4 11  1  0  0  0  0
  4 18  2  0  0  0  0
  5  9  2  0  0  0  0
  5 19  1  0  0  0  0
  6 21  1  0  0  0  0
  7 23  1  0  0  0  0
  8 12  2  0  0  0  0
  8 22  1  0  0  0  0
  9 26  1  0  0  0  0
 10 27  1  0  0  0  0
 11 27  2  0  0  0  0
 12 28  1  0  0  0  0
 13 14  2  0  0  0  0
 13 29  1  0  0  0  0
 14 30  1  0  0  0  0
 15 24  1  0  0  0  0
 15 28  2  0  0  0  0
 16 25  1  0  0  0  0
 16 26  2  0  0  0  0
 17 30  2  0  0  0  0
 17 31  1  0  0  0  0
 18 32  1  0  0  0  0
 19 25  2  0  0  0  0
 19 35  1  0  0  0  0
 20 32  1  0  0  0  0
 20 33  2  0  0  0  0
 20 36  1  0  0  0  0
 21 23  2  0  0  0  0
 21 41  1  0  0  0  0
 22 24  2  0  0  0  0
 22 42  1  0  0  0  0
 23 52  1  0  0  0  0
 24 43  1  0  0  0  0
 25 67  1  0  0  0  0
 26 73  1  0  0  0  0
 27 84  1  0  0  0  0
 28 85  1  0  0  0  0
 29 31  2  0  0  0  0
 29 84  1  0  0  0  0
 30 86  1  0  0  0  0
 31 87  1  0  0  0  0
 32 65  2  0  0  0  0
 33 66  1  0  0  0  0
 33 70  1  0  0  0  0
 34 53  1  0  0  0  0
 34 67  1  0  0  0  0
 34 78  2  0  0  0  0
 35 71  1  0  0  0  0
 35 76  2  0  0  0  0
 36 72  1  0  0  0  0
 36 79  2  0  0  0  0
 37 54  1  0  0  0  0
 37 74  1  0  0  0  0
 37 80  2  0  0  0  0
 38 62  1  0  0  0  0
 38 68  1  0  0  0  0
 38 81  2  0  0  0  0
 39 63  1  0  0  0  0
 39 75  1  0  0  0  0
 39 82  2  0  0  0  0
 40 69  1  0  0  0  0
 40 73  1  0  0  0  0
 40 83  2  0  0  0  0
 41 44  1  0  0  0  0
 42 54  1  0  0  0  0
 43 68  1  0  0  0  0
 44 46  1  0  0  0  0
 45 47  1  0  0  0  0
 45 49  1  0  0  0  0
 46 52  1  0  0  0  0
 47 55  1  0  0  0  0
 48 50  1  0  0  0  0
 48 53  1  0  0  0  0
 49 69  1  0  0  0  0
 50 67  1  0  0  0  0
 51 55  1  0  0  0  0
 51 69  1  0  0  0  0
 52 74  1  0  0  0  0
 53 61  1  0  0  0  0
 54 68  1  0  0  0  0
 55 66  1  0  0  0  0
 56 63  1  0  0  0  0
 57 64  1  0  0  0  0
 58 64  1  0  0  0  0
 59 64  1  0  0  0  0
 60 77  1  0  0  0  0
 61 85  1  0  0  0  0
 62 64  1  0  0  0  0
 62 75  1  0  0  0  0
 63 77  1  0  0  0  0
 65 66  1  0  0  0  0
M  CHG  2  76   1  77   1
M  ISO  4  40 100  61 101  73 100  85 101
M  END
> <Batch ID>
0064

> <Smiles>
CNC(C)C(=O)NC(C(=O)N1Cc2cc([101O:1][101CH2:1]C3CCN(c4cc([100NH:0][100C:0](=O)N5CCCC(n6nc(-c7ccc(Oc8ccc(F)cc8F)cc7)c(C(N)=O)c6N)C5)ccc4C(=N)N)C3=O)ccc2CC1C(=O)NC1CCCc2ccccc21)C(C)(C)C

> <Shape>
0.297

> <Color>
0.079

> <Negative vol penalty>
0.000

$$$$

  -OEChem-04042323153D

 88 97  0     1  0  0  0  0  0999 V2000
  -27.3204  -33.0718   26.9667 C   0  0  0  0  0  0  0  0  0  0  0  0
  -27.6399  -32.0208   26.1131 C   0  0  0  0  0  0  0  0  0  0  0  0
  -25.4027  -13.1719   22.4059 C   0  0  0  0  0  0  0  0  0  0  0  0
  -26.7538  -13.3013   20.4071 C   0  0  0  0  0  0  0  0  0  0  0  0
  -25.9954  -33.2822   27.3460 C   0  0  0  0  0  0  0  0  0  0  0  0
  -26.6346  -31.1788   25.6391 C   0  0  0  0  0  0  0  0  0  0  0  0
  -27.0636  -30.2404   20.6812 C   0  0  0  0  0  0  0  0  0  0  0  0
  -31.1823  -20.6628   17.2464 C   0  0  0  0  0  0  0  0  0  0  0  0
  -30.8427  -20.0561   18.4556 C   0  0  0  0  0  0  0  0  0  0  0  0
  -24.4642  -12.3997   21.7215 C   0  0  0  0  0  0  0  0  0  0  0  0
  -25.8152  -12.5290   19.7227 C   0  0  0  0  0  0  0  0  0  0  0  0
  -28.0210  -29.3051   20.2907 C   0  0  0  0  0  0  0  0  0  0  0  0
  -24.1246   -9.1812   20.7420 C   0  0  0  0  0  0  0  0  0  0  0  0
  -23.6247   -8.0486   21.3845 C   0  0  0  0  0  0  0  0  0  0  0  0
  -26.2942  -27.6338   20.0813 C   0  0  0  0  0  0  0  0  0  0  0  0
  -29.9395  -22.1504   19.2526 C   0  0  0  0  0  0  0  0  0  0  0  0
  -21.3897   -8.9553   21.2437 C   0  0  0  0  0  0  0  0  0  0  0  0
  -26.5475  -13.6228   21.7487 C   0  0  0  0  0  0  0  0  0  0  0  0
  -28.6328  -13.9598   23.1790 C   0  0  0  0  0  0  0  0  0  0  0  0
  -24.9720  -32.4482   26.8687 C   0  0  0  0  0  0  0  0  0  0  0  0
  -25.7136  -29.8758   20.7854 C   0  0  0  0  0  0  0  0  0  0  0  0
  -25.2947  -31.3774   26.0134 C   0  0  0  0  0  0  0  0  0  0  0  0
  -25.3213  -28.5669   20.4708 C   0  0  0  0  0  0  0  0  0  0  0  0
  -30.9006  -22.0133   17.0403 C   0  0  0  0  0  0  0  0  0  0  0  0
  -30.2792  -22.7571   18.0434 C   0  0  0  0  0  0  0  0  0  0  0  0
  -30.2212  -20.7999   19.4587 C   0  0  0  0  0  0  0  0  0  0  0  0
  -24.6704  -12.0782   20.3800 C   0  0  0  0  0  0  0  0  0  0  0  0
  -27.6368  -28.0009   19.9935 C   0  0  0  0  0  0  0  0  0  0  0  0
  -23.2571  -10.2010   20.3504 C   0  0  0  0  0  0  0  0  0  0  0  0
  -22.2572   -7.9357   21.6353 C   0  0  0  0  0  0  0  0  0  0  0  0
  -21.8897  -10.0880   20.6012 C   0  0  0  0  0  0  0  0  0  0  0  0
  -27.5171  -14.4211   22.4549 C   0  0  0  0  0  0  0  0  0  0  0  0
  -29.2292  -15.1017   23.6551 C   0  0  0  0  0  0  0  0  0  0  0  0
  -29.1968  -26.0805   16.9768 C   0  0  0  0  0  0  0  0  0  0  0  0
  -29.1660  -24.5873   16.8535 C   0  0  0  0  0  0  0  0  0  0  0  0
  -29.0892  -12.6189   23.4012 C   0  0  0  0  0  0  0  0  0  0  0  0
  -23.5938  -29.7738   23.1518 C   0  0  0  0  0  0  0  0  0  0  0  0
  -21.5361  -29.0358   20.7553 C   0  0  0  0  0  0  0  0  0  0  0  0
  -21.0745  -27.7679   17.6206 C   0  0  0  0  0  0  0  0  0  0  0  0
  -29.2559  -20.7770   21.7855 C   0  0  0  0  0  0  0  0  0  0  0  0
  -23.5606  -32.6861   27.3440 C   0  0  0  0  0  0  0  0  0  0  0  0
  -24.6893  -30.9035   21.1821 C   0  0  0  0  0  0  0  0  0  0  0  0
  -23.8818  -28.1304   20.5475 C   0  0  0  0  0  0  0  0  0  0  0  0
  -22.5055  -31.9766   26.4992 C   0  0  0  0  0  0  0  0  0  0  0  0
  -28.2059  -19.5903   24.9740 C   0  0  0  0  0  0  0  0  0  0  0  0
  -22.9126  -30.5293   26.2417 C   0  0  0  0  0  0  0  0  0  0  0  0
  -28.0175  -18.0871   24.7573 C   0  0  0  0  0  0  0  0  0  0  0  0
  -27.7806  -20.3976   23.7488 C   0  0  0  0  0  0  0  0  0  0  0  0
  -30.5197  -25.1741   18.6930 C   0  0  0  0  0  0  0  0  0  0  0  0
  -28.2113  -18.4766   22.2678 C   0  0  0  0  0  0  0  0  0  0  0  0
  -24.2290  -30.4575   25.4583 C   0  0  1  0  0  0  0  0  0  0  0  0
  -30.2241  -26.4986   17.9843 C   0  0  2  0  0  0  0  0  0  0  0  0
  -23.4148  -30.2879   21.7514 C   0  0  1  0  0  0  0  0  0  0  0  0
  -28.6872  -17.6178   23.4508 C   0  0  2  0  0  0  0  0  0  0  0  0
  -19.2754  -27.2586   15.9469 C   0  0  0  0  0  0  0  0  0  0  0  0
  -20.7312  -26.5767   22.3723 C   0  0  0  0  0  0  0  0  0  0  0  0
  -19.6900  -25.6392   20.2974 C   0  0  0  0  0  0  0  0  0  0  0  0
  -18.8291  -27.7688   21.2701 C   0  0  0  0  0  0  0  0  0  0  0  0
  -22.2393  -29.6233   15.6307 C   0  0  0  0  0  0  0  0  0  0  0  0
  -32.5734  -24.3336   14.7554 C   0  0  0  0  0  0  0  0  0  0  0  0
  -31.2758  -22.6368   15.7352 C   0  0  0  0  0  0  0  0  0  0  0  0
  -29.7145  -27.5766   18.9169 C   0  0  0  0  0  0  0  0  0  1  0  0
  -21.0709  -27.7571   20.1014 C   0  0  1  0  0  0  0  0  0  0  0  0
  -20.2873  -28.2858   16.4304 C   0  0  2  0  0  0  0  0  0  0  0  0
  -20.1078  -26.9429   21.0106 C   0  0  0  0  0  0  0  0  0  0  0  0
  -27.4088  -15.7523   22.4674 N   0  0  0  0  0  0  0  0  0  0  0  0
  -28.4641  -16.1372   23.2051 N   0  0  0  0  0  0  0  0  0  0  0  0
  -29.9905  -24.1040   17.8566 N   0  0  0  0  0  0  0  0  0  0  0  0
  -22.9186  -29.1699   20.9463 N   0  0  0  0  0  0  0  0  0  0  0  0
  -28.4581  -19.8994   22.5498 N   0  0  0  0  0  0  0  0  0  0  0  0
  -30.3282  -15.3110   24.4106 N   0  0  0  0  0  0  0  0  0  0  0  0
  -28.3587  -11.5627   22.8399 N   0  0  0  0  0  0  0  0  0  0  0  0
  -29.8764  -20.1832   20.6869 N   0  0  0  0  0  0  0  0  0  0  0  0
  -23.9990  -30.7361   24.0569 N   0  0  0  0  0  0  0  0  0  0  0  0
  -20.4975  -28.1411   18.8160 N   0  0  0  0  0  0  0  0  0  0  0  0
  -21.2061  -28.6076   15.3021 N   0  3  0  0  0  0  0  0  0  0  0  0
  -28.4798  -26.7853   16.2956 O   0  0  0  0  0  0  0  0  0  0  0  0
  -28.5072  -24.0233   16.0049 O   0  0  0  0  0  0  0  0  0  0  0  0
  -30.1053  -12.3640   24.0912 O   0  0  0  0  0  0  0  0  0  0  0  0
  -23.3788  -28.5918   23.3936 O   0  0  0  0  0  0  0  0  0  0  0  0
  -20.7041  -29.8874   21.0780 O   0  0  0  0  0  0  0  0  0  0  0  0
  -22.0968  -27.0961   17.5017 O   0  0  0  0  0  0  0  0  0  0  0  0
  -29.4014  -21.9613   22.0991 O   0  0  0  0  0  0  0  0  0  0  0  0
  -23.7550  -11.3244   19.7119 O   0  0  0  0  0  0  0  0  0  0  0  0
  -28.5694  -27.0859   19.6127 O   0  0  0  0  0  0  0  0  0  1  0  0
  -32.1841  -23.7048   15.9689 O   0  0  0  0  0  0  0  0  0  0  0  0
  -21.7770   -6.8473   22.2509 F   0  0  0  0  0  0  0  0  0  0  0  0
  -21.0512  -11.0638   20.2262 F   0  0  0  0  0  0  0  0  0  0  0  0
  1  2  1  0  0  0  0
  1  5  2  0  0  0  0
  2  6  2  0  0  0  0
  3 10  2  0  0  0  0
  3 18  1  0  0  0  0
  4 11  1  0  0  0  0
  4 18  2  0  0  0  0
  5 20  1  0  0  0  0
  6 22  1  0  0  0  0
  7 12  2  0  0  0  0
  7 21  1  0  0  0  0
  8  9  2  0  0  0  0
  8 24  1  0  0  0  0
  9 26  1  0  0  0  0
 10 27  1  0  0  0  0
 11 27  2  0  0  0  0
 12 28  1  0  0  0  0
 13 14  2  0  0  0  0
 13 29  1  0  0  0  0
 14 30  1  0  0  0  0
 15 23  1  0  0  0  0
 15 28  2  0  0  0  0
 16 25  1  0  0  0  0
 16 26  2  0  0  0  0
 17 30  2  0  0  0  0
 17 31  1  0  0  0  0
 18 32  1  0  0  0  0
 19 32  1  0  0  0  0
 19 33  2  0  0  0  0
 19 36  1  0  0  0  0
 20 22  2  0  0  0  0
 20 41  1  0  0  0  0
 21 23  2  0  0  0  0
 21 42  1  0  0  0  0
 22 51  1  0  0  0  0
 23 43  1  0  0  0  0
 24 25  2  0  0  0  0
 24 61  1  0  0  0  0
 25 68  1  0  0  0  0
 26 73  1  0  0  0  0
 27 84  1  0  0  0  0
 28 85  1  0  0  0  0
 29 31  2  0  0  0  0
 29 84  1  0  0  0  0
 30 87  1  0  0  0  0
 31 88  1  0  0  0  0
 32 66  2  0  0  0  0
 33 67  1  0  0  0  0
 33 71  1  0  0  0  0
 34 35  1  0  0  0  0
 34 52  1  0  0  0  0
 34 77  2  0  0  0  0
 35 68  1  0  0  0  0
 35 78  2  0  0  0  0
 36 72  1  0  0  0  0
 36 79  2  0  0  0  0
 37 53  1  0  0  0  0
 37 74  1  0  0  0  0
 37 80  2  0  0  0  0
 38 63  1  0  0  0  0
 38 69  1  0  0  0  0
 38 81  2  0  0  0  0
 39 64  1  0  0  0  0
 39 75  1  0  0  0  0
 39 82  2  0  0  0  0
 40 70  1  0  0  0  0
 40 73  1  0  0  0  0
 40 83  2  0  0  0  0
 41 44  1  0  0  0  0
 42 53  1  0  0  0  0
 43 69  1  0  0  0  0
 44 46  1  0  0  0  0
 45 47  1  0  0  0  0
 45 48  1  0  0  0  0
 46 51  1  0  0  0  0
 47 54  1  0  0  0  0
 48 70  1  0  0  0  0
 49 52  1  0  0  0  0
 49 68  1  0  0  0  0
 50 54  1  0  0  0  0
 50 70  1  0  0  0  0
 51 74  1  0  0  0  0
 52 62  1  0  0  0  0
 53 69  1  0  0  0  0
 54 67  1  0  0  0  0
 55 64  1  0  0  0  0
 56 65  1  0  0  0  0
 57 65  1  0  0  0  0
 58 65  1  0  0  0  0
 59 76  1  0  0  0  0
 60 86  1  0  0  0  0
 61 86  1  0  0  0  0
 62 85  1  0  0  0  0
 63 65  1  0  0  0  0
 63 75  1  0  0  0  0
 64 76  1  0  0  0  0
 66 67  1  0  0  0  0
M  CHG  1  76   1
M  ISO  4  40 100  62 101  73 100  85 101
M  END
> <Batch ID>
0064

> <Smiles>
CNC(C)C(=O)NC(C(=O)N1Cc2cc([101O:1][101CH2:1]C3CN(c4cc([100NH:0][100C:0](=O)N5CCCC(n6nc(-c7ccc(Oc8ccc(F)cc8F)cc7)c(C(N)=O)c6N)C5)ccc4COC)C(=O)C3=O)ccc2CC1C(=O)NC1CCCc2ccccc21)C(C)(C)C

> <Shape>
0.279

> <Color>
0.077

> <Negative vol penalty>
0.000

$$$$

  -OEChem-04042323153D

 83 91  0     1  0  0  0  0  0999 V2000
  -29.2125  -36.7050   20.1122 C   0  0  0  0  0  0  0  0  0  0  0  0
  -29.4058  -35.3490   19.8683 C   0  0  0  0  0  0  0  0  0  0  0  0
  -24.7935   -8.6728   21.6210 C   0  0  0  0  0  0  0  0  0  0  0  0
  -23.2442  -10.0124   20.3395 C   0  0  0  0  0  0  0  0  0  0  0  0
  -28.3896  -37.1131   21.1611 C   0  0  0  0  0  0  0  0  0  0  0  0
  -28.7771  -34.4004   20.6741 C   0  0  0  0  0  0  0  0  0  0  0  0
  -26.6281  -28.9358   18.9346 C   0  0  0  0  0  0  0  0  0  0  0  0
  -23.7439   -8.2275   22.4245 C   0  0  0  0  0  0  0  0  0  0  0  0
  -22.1946   -9.5671   21.1430 C   0  0  0  0  0  0  0  0  0  0  0  0
  -27.1573  -27.6488   19.0213 C   0  0  0  0  0  0  0  0  0  0  0  0
  -21.2456   -5.9575   22.2272 C   0  0  0  0  0  0  0  0  0  0  0  0
  -21.1856   -4.5949   22.5189 C   0  0  0  0  0  0  0  0  0  0  0  0
  -25.9198  -27.2837   21.0595 C   0  0  0  0  0  0  0  0  0  0  0  0
  -26.9783  -18.5687   18.7166 C   0  0  0  0  0  0  0  0  0  0  0  0
  -25.0817  -19.7332   17.7767 C   0  0  0  0  0  0  0  0  0  0  0  0
  -25.3001  -17.3452   17.4823 C   0  0  0  0  0  0  0  0  0  0  0  0
  -21.3566   -5.0922   24.8770 C   0  0  0  0  0  0  0  0  0  0  0  0
  -24.5437   -9.5653   20.5785 C   0  0  0  0  0  0  0  0  0  0  0  0
  -26.0992   -9.4356   18.5608 C   0  0  0  0  0  0  0  0  0  0  0  0
  -27.7429  -36.1690   21.9741 C   0  0  0  0  0  0  0  0  0  0  0  0
  -25.7477  -29.4110   19.9172 C   0  0  0  0  0  0  0  0  0  0  0  0
  -27.9459  -34.7963   21.7357 C   0  0  0  0  0  0  0  0  0  0  0  0
  -25.3788  -28.5761   20.9817 C   0  0  0  0  0  0  0  0  0  0  0  0
  -26.2734  -19.7529   18.5014 C   0  0  0  0  0  0  0  0  0  0  0  0
  -26.4918  -17.3648   18.2070 C   0  0  0  0  0  0  0  0  0  0  0  0
  -22.4444   -8.6746   22.1855 C   0  0  0  0  0  0  0  0  0  0  0  0
  -26.8055  -26.8236   20.0854 C   0  0  0  0  0  0  0  0  0  0  0  0
  -21.3612   -6.8876   23.2603 C   0  0  0  0  0  0  0  0  0  0  0  0
  -21.2411   -4.1622   23.8438 C   0  0  0  0  0  0  0  0  0  0  0  0
  -24.5950  -18.5293   17.2671 C   0  0  0  0  0  0  0  0  0  0  0  0
  -21.4167   -6.4549   24.5852 C   0  0  0  0  0  0  0  0  0  0  0  0
  -25.6276  -10.0261   19.7485 C   0  0  0  0  0  0  0  0  0  0  0  0
  -27.1317  -10.2479   18.1600 C   0  0  0  0  0  0  0  0  0  0  0  0
  -27.0229  -23.2679   19.5823 C   0  0  0  0  0  0  0  0  0  0  0  0
  -26.6348  -24.5472   19.5760 C   0  0  0  0  0  0  0  0  0  1  0  0
  -25.6445   -8.2582   17.8806 C   0  0  0  0  0  0  0  0  0  0  0  0
  -26.1937  -22.2344   18.8963 C   0  0  0  0  0  0  0  0  0  0  0  0
  -25.8059  -31.7972   22.0164 C   0  0  0  0  0  0  0  0  0  0  0  0
  -22.7572  -30.8494   22.5903 C   0  0  0  0  0  0  0  0  0  0  0  0
  -20.4296  -28.3559   22.4833 C   0  0  0  0  0  0  0  0  0  0  0  0
  -28.4057  -16.0061   19.1219 C   0  0  0  0  0  0  0  0  0  0  0  0
  -26.9005  -36.6582   23.1255 C   0  0  0  0  0  0  0  0  0  0  0  0
  -25.1647  -30.7921   19.7950 C   0  0  0  0  0  0  0  0  0  0  0  0
  -24.4216  -29.0315   22.0517 C   0  0  0  0  0  0  0  0  0  0  0  0
  -25.9732  -35.5897   23.6988 C   0  0  0  0  0  0  0  0  0  0  0  0
  -30.4631  -13.2094   19.9110 C   0  0  0  0  0  0  0  0  0  0  0  0
  -26.7292  -34.2808   23.9036 C   0  0  0  0  0  0  0  0  0  0  0  0
  -29.5008  -12.0212   19.8448 C   0  0  0  0  0  0  0  0  0  0  0  0
  -29.7884  -14.4544   20.4841 C   0  0  0  0  0  0  0  0  0  0  0  0
  -27.5751  -13.6554   19.7546 C   0  0  0  0  0  0  0  0  0  0  0  0
  -27.2615  -33.7370   22.5723 C   0  0  1  0  0  0  0  0  0  0  0  0
  -24.6785  -31.3555   21.1268 C   0  0  1  0  0  0  0  0  0  0  0  0
  -28.1913  -12.3961   19.1236 C   0  0  2  0  0  0  0  0  0  0  0  0
  -18.0352  -27.8703   23.0563 C   0  0  0  0  0  0  0  0  0  0  0  0
  -23.5049  -30.6581   25.5423 C   0  0  0  0  0  0  0  0  0  0  0  0
  -21.4363  -29.2956   25.9063 C   0  0  0  0  0  0  0  0  0  0  0  0
  -21.2518  -31.6487   25.0990 C   0  0  0  0  0  0  0  0  0  0  0  0
  -19.7532  -27.7658   19.6631 C   0  0  0  0  0  0  0  0  0  0  0  0
  -22.1028  -29.8617   23.5259 C   0  0  1  0  0  0  0  0  0  0  0  0
  -18.9992  -28.3343   21.9755 C   0  0  2  0  0  0  0  0  0  0  0  0
  -22.0935  -30.3578   24.9994 C   0  0  0  0  0  0  0  0  0  0  0  0
  -26.3051  -11.1283   20.0807 N   0  0  0  0  0  0  0  0  0  0  0  0
  -27.2129  -11.2367   19.0958 N   0  0  0  0  0  0  0  0  0  0  0  0
  -23.8834  -30.3924   21.8913 N   0  0  0  0  0  0  0  0  0  0  0  0
  -28.5571  -14.7511   19.7487 N   0  0  0  0  0  0  0  0  0  0  0  0
  -27.9691  -10.2054   17.1020 N   0  0  0  0  0  0  0  0  0  0  0  0
  -24.5722   -7.5417   18.4293 N   0  0  0  0  0  0  0  0  0  0  0  0
  -26.7672  -20.9758   19.0184 N   0  0  0  0  0  0  0  0  0  0  0  0
  -27.2078  -16.1617   18.4251 N   0  0  0  0  0  0  0  0  0  0  0  0
  -26.1963  -33.1082   21.8210 N   0  0  0  0  0  0  0  0  0  0  0  0
  -20.7777  -29.5954   22.9767 N   0  0  0  0  0  0  0  0  0  0  0  0
  -18.8771  -27.4136   20.8100 N   0  3  0  0  0  0  0  0  0  0  0  0
  -26.1841   -7.8444   16.8265 O   0  0  0  0  0  0  0  0  0  0  0  0
  -25.1538  -22.5335   18.3212 O   0  0  0  0  0  0  0  0  0  0  0  0
  -26.2851  -31.0074   22.8217 O   0  0  0  0  0  0  0  0  0  0  0  0
  -22.2822  -31.9823   22.4783 O   0  0  0  0  0  0  0  0  0  0  0  0
  -21.1634  -27.3705   22.4493 O   0  0  0  0  0  0  0  0  0  0  0  0
  -29.2863  -16.8684   19.1750 O   0  0  0  0  0  0  0  0  0  0  0  0
  -21.4199   -8.2401   22.9691 O   0  0  0  0  0  0  0  0  0  0  0  0
  -27.3211  -25.5673   20.1728 O   0  0  0  0  0  0  0  0  0  1  0  0
  -21.1818   -2.8536   24.1238 F   0  0  0  0  0  0  0  0  0  0  0  0
  -23.4511  -18.5103   16.5705 F   0  0  0  0  0  0  0  0  0  0  0  0
  -21.5265   -7.3437   25.5821 F   0  0  0  0  0  0  0  0  0  0  0  0
  1  2  1  0  0  0  0
  1  5  2  0  0  0  0
  2  6  2  0  0  0  0
  3  8  2  0  0  0  0
  3 18  1  0  0  0  0
  4  9  1  0  0  0  0
  4 18  2  0  0  0  0
  5 20  1  0  0  0  0
  6 22  1  0  0  0  0
  7 10  2  0  0  0  0
  7 21  1  0  0  0  0
  8 26  1  0  0  0  0
  9 26  2  0  0  0  0
 10 27  1  0  0  0  0
 11 12  2  0  0  0  0
 11 28  1  0  0  0  0
 12 29  1  0  0  0  0
 13 23  1  0  0  0  0
 13 27  2  0  0  0  0
 14 24  2  0  0  0  0
 14 25  1  0  0  0  0
 15 24  1  0  0  0  0
 15 30  2  0  0  0  0
 16 25  2  0  0  0  0
 16 30  1  0  0  0  0
 17 29  2  0  0  0  0
 17 31  1  0  0  0  0
 18 32  1  0  0  0  0
 19 32  1  0  0  0  0
 19 33  2  0  0  0  0
 19 36  1  0  0  0  0
 20 22  2  0  0  0  0
 20 42  1  0  0  0  0
 21 23  2  0  0  0  0
 21 43  1  0  0  0  0
 22 51  1  0  0  0  0
 23 44  1  0  0  0  0
 24 68  1  0  0  0  0
 25 69  1  0  0  0  0
 26 79  1  0  0  0  0
 27 80  1  0  0  0  0
 28 31  2  0  0  0  0
 28 79  1  0  0  0  0
 29 81  1  0  0  0  0
 30 82  1  0  0  0  0
 31 83  1  0  0  0  0
 32 62  2  0  0  0  0
 33 63  1  0  0  0  0
 33 66  1  0  0  0  0
 34 35  2  0  0  0  0
 34 37  1  0  0  0  0
 35 80  1  0  0  0  0
 36 67  1  0  0  0  0
 36 73  2  0  0  0  0
 37 68  1  0  0  0  0
 37 74  2  0  0  0  0
 38 52  1  0  0  0  0
 38 70  1  0  0  0  0
 38 75  2  0  0  0  0
 39 59  1  0  0  0  0
 39 64  1  0  0  0  0
 39 76  2  0  0  0  0
 40 60  1  0  0  0  0
 40 71  1  0  0  0  0
 40 77  2  0  0  0  0
 41 65  1  0  0  0  0
 41 69  1  0  0  0  0
 41 78  2  0  0  0  0
 42 45  1  0  0  0  0
 43 52  1  0  0  0  0
 44 64  1  0  0  0  0
 45 47  1  0  0  0  0
 46 48  1  0  0  0  0
 46 49  1  0  0  0  0
 47 51  1  0  0  0  0
 48 53  1  0  0  0  0
 49 65  1  0  0  0  0
 50 53  1  0  0  0  0
 50 65  1  0  0  0  0
 51 70  1  0  0  0  0
 52 64  1  0  0  0  0
 53 63  1  0  0  0  0
 54 60  1  0  0  0  0
 55 61  1  0  0  0  0
 56 61  1  0  0  0  0
 57 61  1  0  0  0  0
 58 72  1  0  0  0  0
 59 61  1  0  0  0  0
 59 71  1  0  0  0  0
 60 72  1  0  0  0  0
 62 63  1  0  0  0  0
M  CHG  1  72   1
M  ISO  4  35 101  41 100  69 100  80 101
M  END
> <Batch ID>
0064

> <Smiles>
CNC(C)C(=O)NC(C(=O)N1Cc2cc([101O:1][101CH:1]=CC(=O)Nc3cc(F)cc([100NH:0][100C:0](=O)N4CCCC(n5nc(-c6ccc(Oc7ccc(F)cc7F)cc6)c(C(N)=O)c5N)C4)c3)ccc2CC1C(=O)NC1CCCc2ccccc21)C(C)(C)C

> <Shape>
0.273

> <Color>
0.105

> <Negative vol penalty>
0.000

$$$$

  -OEChem-04042323153D

 86 95  0     1  0  0  0  0  0999 V2000
  -26.4713  -35.0866   23.6476 C   0  0  0  0  0  0  0  0  0  0  0  0
  -26.9337  -33.8051   23.3658 C   0  0  0  0  0  0  0  0  0  0  0  0
  -30.2435  -19.5518   20.2800 C   0  0  0  0  0  0  0  0  0  0  0  0
  -20.8715  -12.2423   21.6869 C   0  0  0  0  0  0  0  0  0  0  0  0
  -22.7709  -11.6102   20.3340 C   0  0  0  0  0  0  0  0  0  0  0  0
  -25.1646  -35.2718   24.0971 C   0  0  0  0  0  0  0  0  0  0  0  0
  -26.0898  -32.7079   23.5344 C   0  0  0  0  0  0  0  0  0  0  0  0
  -26.3194  -29.4656   19.6512 C   0  0  0  0  0  0  0  0  0  0  0  0
  -30.5667  -20.4526   19.2653 C   0  0  0  0  0  0  0  0  0  0  0  0
  -28.9178  -19.1618   20.4702 C   0  0  0  0  0  0  0  0  0  0  0  0
  -20.2632  -11.0193   21.4043 C   0  0  0  0  0  0  0  0  0  0  0  0
  -22.1626  -10.3872   20.0514 C   0  0  0  0  0  0  0  0  0  0  0  0
  -27.4159  -28.6058   19.6036 C   0  0  0  0  0  0  0  0  0  0  0  0
  -21.7086   -7.4168   21.5977 C   0  0  0  0  0  0  0  0  0  0  0  0
  -22.4962   -6.2686   21.6803 C   0  0  0  0  0  0  0  0  0  0  0  0
  -26.0595  -26.8348   20.5216 C   0  0  0  0  0  0  0  0  0  0  0  0
  -28.2386  -20.5736   18.6310 C   0  0  0  0  0  0  0  0  0  0  0  0
  -22.0600   -5.8017   19.3503 C   0  0  0  0  0  0  0  0  0  0  0  0
  -22.1254  -12.5378   21.1517 C   0  0  0  0  0  0  0  0  0  0  0  0
  -23.6164  -14.0942   22.5163 C   0  0  0  0  0  0  0  0  0  0  0  0
  -24.3012  -34.1773   24.2621 C   0  0  0  0  0  0  0  0  0  0  0  0
  -25.0855  -29.0187   20.1454 C   0  0  0  0  0  0  0  0  0  0  0  0
  -24.7707  -32.8785   23.9878 C   0  0  0  0  0  0  0  0  0  0  0  0
  -24.9482  -27.6901   20.5720 C   0  0  0  0  0  0  0  0  0  0  0  0
  -29.5643  -20.9636   18.4408 C   0  0  0  0  0  0  0  0  0  0  0  0
  -27.9153  -19.6727   19.6457 C   0  0  0  0  0  0  0  0  0  0  0  0
  -20.9087  -10.0918   20.5866 C   0  0  0  0  0  0  0  0  0  0  0  0
  -27.2868  -27.2910   20.0415 C   0  0  0  0  0  0  0  0  0  0  0  0
  -21.0966   -7.7575   20.3914 C   0  0  0  0  0  0  0  0  0  0  0  0
  -22.6719   -5.4610   20.5566 C   0  0  0  0  0  0  0  0  0  0  0  0
  -21.2723   -6.9500   19.2677 C   0  0  0  0  0  0  0  0  0  0  0  0
  -22.7540  -13.8012   21.4428 C   0  0  0  0  0  0  0  0  0  0  0  0
  -23.9375  -15.4189   22.3469 C   0  0  0  0  0  0  0  0  0  0  0  0
  -31.2788  -25.0780   18.6855 C   0  0  0  0  0  0  0  0  0  0  0  0
  -29.9845  -25.3993   18.6077 C   0  0  0  0  0  0  0  0  0  0  0  0
  -31.4415  -23.6951   18.2120 C   0  0  0  0  0  0  0  0  0  0  0  0
  -29.2520  -24.2318   18.0776 C   0  0  0  0  0  0  0  0  0  0  0  0
  -24.0852  -13.2450   23.5720 C   0  0  0  0  0  0  0  0  0  0  0  0
  -23.2211  -29.8299   22.5887 C   0  0  0  0  0  0  0  0  0  0  0  0
  -21.1810  -27.7034   21.2328 C   0  0  0  0  0  0  0  0  0  0  0  0
  -20.7502  -24.9763   19.2269 C   0  0  0  0  0  0  0  0  0  0  0  0
  -25.4539  -19.6878   19.1095 C   0  0  0  0  0  0  0  0  0  0  0  0
  -22.9120  -34.4225   24.7956 C   0  0  0  0  0  0  0  0  0  0  0  0
  -23.9053  -29.9510   20.1652 C   0  0  0  0  0  0  0  0  0  0  0  0
  -23.6398  -27.1556   21.0924 C   0  0  0  0  0  0  0  0  0  0  0  0
  -21.9638  -33.2440   24.5900 C   0  0  0  0  0  0  0  0  0  0  0  0
  -21.9817  -18.9126   19.2500 C   0  0  0  0  0  0  0  0  0  0  0  0
  -22.6392  -31.9381   24.9968 C   0  0  0  0  0  0  0  0  0  0  0  0
  -21.9440  -17.5378   19.9214 C   0  0  0  0  0  0  0  0  0  0  0  0
  -23.1842  -19.0563   18.3190 C   0  0  0  0  0  0  0  0  0  0  0  0
  -24.4456  -17.3734   19.6019 C   0  0  0  0  0  0  0  0  0  0  0  0
  -23.8777  -31.6656   24.1346 C   0  0  1  0  0  0  0  0  0  0  0  0
  -22.8326  -29.5357   21.1673 C   0  0  1  0  0  0  0  0  0  0  0  0
  -23.2876  -17.2045   20.5990 C   0  0  2  0  0  0  0  0  0  0  0  0
  -18.9710  -23.4457   18.3385 C   0  0  0  0  0  0  0  0  0  0  0  0
  -21.0270  -26.3126   23.9443 C   0  0  0  0  0  0  0  0  0  0  0  0
  -20.0443  -24.3208   22.7886 C   0  0  0  0  0  0  0  0  0  0  0  0
  -18.8409  -26.5054   22.7450 C   0  0  0  0  0  0  0  0  0  0  0  0
  -21.3509  -25.7150   16.4247 C   0  0  0  0  0  0  0  0  0  0  0  0
  -29.9128  -21.9332   17.3488 C   0  0  0  0  0  0  0  0  0  0  0  0
  -29.3180  -26.6768   18.9678 C   0  0  0  0  0  0  0  0  0  1  0  0
  -20.9402  -26.2190   21.3655 C   0  0  1  0  0  0  0  0  0  0  0  0
  -19.7838  -24.7063   18.0877 C   0  0  2  0  0  0  0  0  0  0  0  0
  -20.2384  -25.8498   22.7029 C   0  0  0  0  0  0  0  0  0  0  0  0
  -22.5407  -14.8549   20.6502 N   0  0  0  0  0  0  0  0  0  0  0  0
  -23.2736  -15.8230   21.2261 N   0  0  0  0  0  0  0  0  0  0  0  0
  -30.1910  -23.2577   17.8678 N   0  0  0  0  0  0  0  0  0  0  0  0
  -22.5168  -28.1076   21.0979 N   0  0  0  0  0  0  0  0  0  0  0  0
  -24.4217  -18.7290   19.0306 N   0  0  0  0  0  0  0  0  0  0  0  0
  -24.7202  -16.2657   23.0488 N   0  0  0  0  0  0  0  0  0  0  0  0
  -23.6573  -11.9106   23.5960 N   0  0  0  0  0  0  0  0  0  0  0  0
  -26.5689  -19.2758   19.8388 N   0  0  0  0  0  0  0  0  0  0  0  0
  -23.4879  -31.1633   22.8345 N   0  0  0  0  0  0  0  0  0  0  0  0
  -20.2026  -25.8169   20.1728 N   0  0  0  0  0  0  0  0  0  0  0  0
  -20.5268  -24.5394   16.8067 N   0  3  0  0  0  0  0  0  0  0  0  0
  -32.5114  -23.1124   18.1617 O   0  0  0  0  0  0  0  0  0  0  0  0
  -28.0478  -24.2030   17.8860 O   0  0  0  0  0  0  0  0  0  0  0  0
  -24.8476  -13.6616   24.4769 O   0  0  0  0  0  0  0  0  0  0  0  0
  -23.2734  -28.9152   23.4024 O   0  0  0  0  0  0  0  0  0  0  0  0
  -20.2188  -28.4753   21.2412 O   0  0  0  0  0  0  0  0  0  0  0  0
  -21.8766  -24.4871   19.2749 O   0  0  0  0  0  0  0  0  0  0  0  0
  -25.3448  -20.8028   18.5931 O   0  0  0  0  0  0  0  0  0  0  0  0
  -20.3156   -8.8982   20.3108 O   0  0  0  0  0  0  0  0  0  0  0  0
  -28.3556  -26.4499   19.9967 O   0  0  0  0  0  0  0  0  0  1  0  0
  -23.4295   -4.3593   20.6357 F   0  0  0  0  0  0  0  0  0  0  0  0
  -20.6879   -7.2727   18.1058 F   0  0  0  0  0  0  0  0  0  0  0  0
  1  2  1  0  0  0  0
  1  6  2  0  0  0  0
  2  7  2  0  0  0  0
  3  9  2  0  0  0  0
  3 10  1  0  0  0  0
  4 11  2  0  0  0  0
  4 19  1  0  0  0  0
  5 12  1  0  0  0  0
  5 19  2  0  0  0  0
  6 21  1  0  0  0  0
  7 23  1  0  0  0  0
  8 13  2  0  0  0  0
  8 22  1  0  0  0  0
  9 25  1  0  0  0  0
 10 26  2  0  0  0  0
 11 27  1  0  0  0  0
 12 27  2  0  0  0  0
 13 28  1  0  0  0  0
 14 15  2  0  0  0  0
 14 29  1  0  0  0  0
 15 30  1  0  0  0  0
 16 24  1  0  0  0  0
 16 28  2  0  0  0  0
 17 25  2  0  0  0  0
 17 26  1  0  0  0  0
 18 30  2  0  0  0  0
 18 31  1  0  0  0  0
 19 32  1  0  0  0  0
 20 32  1  0  0  0  0
 20 33  2  0  0  0  0
 20 38  1  0  0  0  0
 21 23  2  0  0  0  0
 21 43  1  0  0  0  0
 22 24  2  0  0  0  0
 22 44  1  0  0  0  0
 23 52  1  0  0  0  0
 24 45  1  0  0  0  0
 25 60  1  0  0  0  0
 26 72  1  0  0  0  0
 27 83  1  0  0  0  0
 28 84  1  0  0  0  0
 29 31  2  0  0  0  0
 29 83  1  0  0  0  0
 30 85  1  0  0  0  0
 31 86  1  0  0  0  0
 32 65  2  0  0  0  0
 33 66  1  0  0  0  0
 33 70  1  0  0  0  0
 34 35  2  0  0  0  0
 34 36  1  0  0  0  0
 35 37  1  0  0  0  0
 35 61  1  0  0  0  0
 36 67  1  0  0  0  0
 36 76  2  0  0  0  0
 37 67  1  0  0  0  0
 37 77  2  0  0  0  0
 38 71  1  0  0  0  0
 38 78  2  0  0  0  0
 39 53  1  0  0  0  0
 39 73  1  0  0  0  0
 39 79  2  0  0  0  0
 40 62  1  0  0  0  0
 40 68  1  0  0  0  0
 40 80  2  0  0  0  0
 41 63  1  0  0  0  0
 41 74  1  0  0  0  0
 41 81  2  0  0  0  0
 42 69  1  0  0  0  0
 42 72  1  0  0  0  0
 42 82  2  0  0  0  0
 43 46  1  0  0  0  0
 44 53  1  0  0  0  0
 45 68  1  0  0  0  0
 46 48  1  0  0  0  0
 47 49  1  0  0  0  0
 47 50  1  0  0  0  0
 48 52  1  0  0  0  0
 49 54  1  0  0  0  0
 50 69  1  0  0  0  0
 51 54  1  0  0  0  0
 51 69  1  0  0  0  0
 52 73  1  0  0  0  0
 53 68  1  0  0  0  0
 54 66  1  0  0  0  0
 55 63  1  0  0  0  0
 56 64  1  0  0  0  0
 57 64  1  0  0  0  0
 58 64  1  0  0  0  0
 59 75  1  0  0  0  0
 60 67  1  0  0  0  0
 61 84  1  0  0  0  0
 62 64  1  0  0  0  0
 62 74  1  0  0  0  0
 63 75  1  0  0  0  0
 65 66  1  0  0  0  0
M  CHG  1  75   1
M  ISO  4  42 100  61 101  72 100  84 101
M  END
> <Batch ID>
0064

> <Smiles>
CNC(C)C(=O)NC(C(=O)N1Cc2cc([101O:1][101CH2:1]C3=CC(=O)N(Cc4cccc([100NH:0][100C:0](=O)N5CCCC(n6nc(-c7ccc(Oc8ccc(F)cc8F)cc7)c(C(N)=O)c6N)C5)c4)C3=O)ccc2CC1C(=O)NC1CCCc2ccccc21)C(C)(C)C

> <Shape>
0.259

> <Color>
0.072

> <Negative vol penalty>
0.000

$$$$

  -OEChem-04042323153D

 87 96  0     1  0  0  0  0  0999 V2000
  -30.2671  -32.5044   25.2476 C   0  0  0  0  0  0  0  0  0  0  0  0
  -29.8118  -31.2849   24.7566 C   0  0  0  0  0  0  0  0  0  0  0  0
  -23.1956   -9.9208   21.5346 C   0  0  0  0  0  0  0  0  0  0  0  0
  -23.8937  -10.9542   23.6038 C   0  0  0  0  0  0  0  0  0  0  0  0
  -29.3532  -33.4808   25.6418 C   0  0  0  0  0  0  0  0  0  0  0  0
  -28.4423  -31.0407   24.6607 C   0  0  0  0  0  0  0  0  0  0  0  0
  -27.1541  -28.9040   20.2538 C   0  0  0  0  0  0  0  0  0  0  0  0
  -31.8937  -17.4784   21.0394 C   0  0  0  0  0  0  0  0  0  0  0  0
  -32.4289  -18.6904   21.4753 C   0  0  0  0  0  0  0  0  0  0  0  0
  -22.4820   -8.9623   22.2541 C   0  0  0  0  0  0  0  0  0  0  0  0
  -23.1801   -9.9957   24.3233 C   0  0  0  0  0  0  0  0  0  0  0  0
  -27.4001  -27.5390   20.1121 C   0  0  0  0  0  0  0  0  0  0  0  0
  -19.5228   -8.7588   23.8773 C   0  0  0  0  0  0  0  0  0  0  0  0
  -18.2314   -8.4541   23.4473 C   0  0  0  0  0  0  0  0  0  0  0  0
  -29.6691  -18.4107   21.1786 C   0  0  0  0  0  0  0  0  0  0  0  0
  -25.0812  -27.0775   20.5903 C   0  0  0  0  0  0  0  0  0  0  0  0
  -18.8869   -6.1535   23.1086 C   0  0  0  0  0  0  0  0  0  0  0  0
  -23.9015  -10.9168   22.2095 C   0  0  0  0  0  0  0  0  0  0  0  0
  -30.2044  -19.6227   21.6146 C   0  0  0  0  0  0  0  0  0  0  0  0
  -24.1667  -13.1501   21.0055 C   0  0  0  0  0  0  0  0  0  0  0  0
  -27.9718  -33.2521   25.5415 C   0  0  0  0  0  0  0  0  0  0  0  0
  -25.8700  -29.3661   20.5762 C   0  0  0  0  0  0  0  0  0  0  0  0
  -27.5091  -32.0144   25.0552 C   0  0  0  0  0  0  0  0  0  0  0  0
  -24.8209  -28.4490   20.7331 C   0  0  0  0  0  0  0  0  0  0  0  0
  -30.5138  -17.3385   20.8909 C   0  0  0  0  0  0  0  0  0  0  0  0
  -31.5843  -19.7626   21.7629 C   0  0  0  0  0  0  0  0  0  0  0  0
  -22.4742   -8.9997   23.6484 C   0  0  0  0  0  0  0  0  0  0  0  0
  -26.3643  -26.6254   20.2832 C   0  0  0  0  0  0  0  0  0  0  0  0
  -20.4963   -7.7608   23.9229 C   0  0  0  0  0  0  0  0  0  0  0  0
  -17.9134   -7.1515   23.0630 C   0  0  0  0  0  0  0  0  0  0  0  0
  -20.1784   -6.4582   23.5386 C   0  0  0  0  0  0  0  0  0  0  0  0
  -24.6393  -11.9068   21.4668 C   0  0  0  0  0  0  0  0  0  0  0  0
  -25.2440  -13.7101   20.3634 C   0  0  0  0  0  0  0  0  0  0  0  0
  -28.0953  -22.7243   21.0850 C   0  0  0  0  0  0  0  0  0  0  0  0
  -29.2911  -20.7402   21.9133 C   0  0  0  0  0  0  0  0  0  0  0  0
  -22.8700  -13.7456   21.1451 C   0  0  0  0  0  0  0  0  0  0  0  0
  -24.6119  -30.9806   23.0081 C   0  0  0  0  0  0  0  0  0  0  0  0
  -21.9544  -30.9469   21.1482 C   0  0  0  0  0  0  0  0  0  0  0  0
  -20.1942  -29.4487   18.6375 C   0  0  0  0  0  0  0  0  0  0  0  0
  -30.6680  -14.9448   20.1211 C   0  0  0  0  0  0  0  0  0  0  0  0
  -27.0223  -34.3198   26.0243 C   0  0  0  0  0  0  0  0  0  0  0  0
  -25.6152  -30.8433   20.6993 C   0  0  0  0  0  0  0  0  0  0  0  0
  -23.4199  -28.8951   21.0597 C   0  0  0  0  0  0  0  0  0  0  0  0
  -25.5880  -34.1239   25.5397 C   0  0  0  0  0  0  0  0  0  0  0  0
  -29.6934  -11.6992   19.0287 C   0  0  0  0  0  0  0  0  0  0  0  0
  -25.1529  -32.6746   25.7321 C   0  0  0  0  0  0  0  0  0  0  0  0
  -28.2527  -11.5662   19.5277 C   0  0  0  0  0  0  0  0  0  0  0  0
  -29.2678  -22.8831   19.0390 C   0  0  0  0  0  0  0  0  0  0  0  0
  -30.5686  -12.4639   20.0202 C   0  0  0  0  0  0  0  0  0  0  0  0
  -29.4779  -21.4733   19.5791 C   0  0  0  0  0  0  0  0  0  0  0  0
  -28.6038  -13.6400   20.9287 C   0  0  0  0  0  0  0  0  0  0  0  0
  -26.0313  -31.7214   24.9127 C   0  0  1  0  0  0  0  0  0  0  0  0
  -27.9970  -23.3885   19.7326 C   0  0  2  0  0  0  0  0  0  0  0  0
  -24.3814  -31.1692   21.5354 C   0  0  1  0  0  0  0  0  0  0  0  0
  -27.6685  -12.9334   19.9340 C   0  0  2  0  0  0  0  0  0  0  0  0
  -18.0385  -29.6265   17.3652 C   0  0  0  0  0  0  0  0  0  0  0  0
  -20.4540  -29.7712   23.5308 C   0  0  0  0  0  0  0  0  0  0  0  0
  -18.6251  -29.0993   21.9586 C   0  0  0  0  0  0  0  0  0  0  0  0
  -19.1882  -31.5112   22.2562 C   0  0  0  0  0  0  0  0  0  0  0  0
  -21.6086  -29.8553   16.0699 C   0  0  0  0  0  0  0  0  0  0  0  0
  -27.9359  -24.9000   19.8260 C   0  0  0  0  0  0  0  0  0  1  0  0
  -20.7783  -30.0154   20.9810 C   0  0  1  0  0  0  0  0  0  0  0  0
  -19.5071  -30.0189   17.4098 C   0  0  2  0  0  0  0  0  0  0  0  0
  -19.7881  -30.0904   22.1774 C   0  0  0  0  0  0  0  0  0  0  0  0
  -25.9172  -11.6893   21.1449 N   0  0  0  0  0  0  0  0  0  0  0  0
  -26.2567  -12.8033   20.4744 N   0  0  0  0  0  0  0  0  0  0  0  0
  -28.9690  -21.5894   20.9538 N   0  0  0  0  0  0  0  0  0  0  0  0
  -23.2225  -30.3494   21.1761 N   0  0  0  0  0  0  0  0  0  0  0  0
  -29.9544  -13.7504   20.3555 N   0  0  0  0  0  0  0  0  0  0  0  0
  -32.1446  -20.9816   22.2040 N   0  0  0  0  0  0  0  0  0  0  0  0
  -25.4142  -14.8847   19.7201 N   0  0  0  0  0  0  0  0  0  0  0  0
  -21.8786  -13.0338   21.8342 N   0  0  0  0  0  0  0  0  0  0  0  0
  -29.9703  -16.1070   20.4485 N   0  0  0  0  0  0  0  0  0  0  0  0
  -25.6417  -31.7473   23.5191 N   0  0  0  0  0  0  0  0  0  0  0  0
  -20.1812  -30.3395   19.6900 N   0  0  0  0  0  0  0  0  0  0  0  0
  -28.8041  -20.8752   23.1433 N   0  3  0  0  0  0  0  0  0  0  0  0
  -20.1649  -29.5196   16.1693 N   0  3  0  0  0  0  0  0  0  0  0  0
  -27.5311  -23.0240   22.1218 O   0  0  0  0  0  0  0  0  0  0  0  0
  -22.5936  -14.8683   20.6586 O   0  0  0  0  0  0  0  0  0  0  0  0
  -23.9066  -30.1986   23.6347 O   0  0  0  0  0  0  0  0  0  0  0  0
  -21.7558  -32.1606   21.2432 O   0  0  0  0  0  0  0  0  0  0  0  0
  -20.6893  -28.3241   18.6617 O   0  0  0  0  0  0  0  0  0  0  0  0
  -31.8032  -14.9384   19.6382 O   0  0  0  0  0  0  0  0  0  0  0  0
  -21.7778   -8.0647   24.3508 O   0  0  0  0  0  0  0  0  0  0  0  0
  -26.6018  -25.2925   20.1460 O   0  0  0  0  0  0  0  0  0  1  0  0
  -16.6727   -6.8588   22.6515 F   0  0  0  0  0  0  0  0  0  0  0  0
  -21.1091   -5.4950   23.5814 F   0  0  0  0  0  0  0  0  0  0  0  0
  1  2  1  0  0  0  0
  1  5  2  0  0  0  0
  2  6  2  0  0  0  0
  3 10  2  0  0  0  0
  3 18  1  0  0  0  0
  4 11  1  0  0  0  0
  4 18  2  0  0  0  0
  5 21  1  0  0  0  0
  6 23  1  0  0  0  0
  7 12  2  0  0  0  0
  7 22  1  0  0  0  0
  8  9  2  0  0  0  0
  8 25  1  0  0  0  0
  9 26  1  0  0  0  0
 10 27  1  0  0  0  0
 11 27  2  0  0  0  0
 12 28  1  0  0  0  0
 13 14  2  0  0  0  0
 13 29  1  0  0  0  0
 14 30  1  0  0  0  0
 15 19  1  0  0  0  0
 15 25  2  0  0  0  0
 16 24  1  0  0  0  0
 16 28  2  0  0  0  0
 17 30  2  0  0  0  0
 17 31  1  0  0  0  0
 18 32  1  0  0  0  0
 19 26  2  0  0  0  0
 19 35  1  0  0  0  0
 20 32  1  0  0  0  0
 20 33  2  0  0  0  0
 20 36  1  0  0  0  0
 21 23  2  0  0  0  0
 21 41  1  0  0  0  0
 22 24  2  0  0  0  0
 22 42  1  0  0  0  0
 23 52  1  0  0  0  0
 24 43  1  0  0  0  0
 25 73  1  0  0  0  0
 26 70  1  0  0  0  0
 27 84  1  0  0  0  0
 28 85  1  0  0  0  0
 29 31  2  0  0  0  0
 29 84  1  0  0  0  0
 30 86  1  0  0  0  0
 31 87  1  0  0  0  0
 32 65  2  0  0  0  0
 33 66  1  0  0  0  0
 33 71  1  0  0  0  0
 34 53  1  0  0  0  0
 34 67  1  0  0  0  0
 34 78  2  0  0  0  0
 35 67  1  0  0  0  0
 35 76  2  0  0  0  0
 36 72  1  0  0  0  0
 36 79  2  0  0  0  0
 37 54  1  0  0  0  0
 37 74  1  0  0  0  0
 37 80  2  0  0  0  0
 38 62  1  0  0  0  0
 38 68  1  0  0  0  0
 38 81  2  0  0  0  0
 39 63  1  0  0  0  0
 39 75  1  0  0  0  0
 39 82  2  0  0  0  0
 40 69  1  0  0  0  0
 40 73  1  0  0  0  0
 40 83  2  0  0  0  0
 41 44  1  0  0  0  0
 42 54  1  0  0  0  0
 43 68  1  0  0  0  0
 44 46  1  0  0  0  0
 45 47  1  0  0  0  0
 45 49  1  0  0  0  0
 46 52  1  0  0  0  0
 47 55  1  0  0  0  0
 48 50  1  0  0  0  0
 48 53  1  0  0  0  0
 49 69  1  0  0  0  0
 50 67  1  0  0  0  0
 51 55  1  0  0  0  0
 51 69  1  0  0  0  0
 52 74  1  0  0  0  0
 53 61  1  0  0  0  0
 54 68  1  0  0  0  0
 55 66  1  0  0  0  0
 56 63  1  0  0  0  0
 57 64  1  0  0  0  0
 58 64  1  0  0  0  0
 59 64  1  0  0  0  0
 60 77  1  0  0  0  0
 61 85  1  0  0  0  0
 62 64  1  0  0  0  0
 62 75  1  0  0  0  0
 63 77  1  0  0  0  0
 65 66  1  0  0  0  0
M  CHG  2  76   1  77   1
M  ISO  4  40 100  61 101  73 100  85 101
M  END
> <Batch ID>
0064

> <Smiles>
CNC(C)C(=O)NC(C(=O)N1Cc2cc([101O:1][101CH2:1]C3CCN(C(=N)c4cc([100NH:0][100C:0](=O)N5CCCC(n6nc(-c7ccc(Oc8ccc(F)cc8F)cc7)c(C(N)=O)c6N)C5)ccc4N)C3=O)ccc2CC1C(=O)NC1CCCc2ccccc21)C(C)(C)C

> <Shape>
0.332

> <Color>
0.160

> <Negative vol penalty>
0.000

$$$$

  -OEChem-04042323153D

 90 99  0     1  0  0  0  0  0999 V2000
  -16.2144  -29.4210   24.5343 C   0  0  0  0  0  0  0  0  0  0  0  0
  -17.1821  -28.4713   24.8457 C   0  0  0  0  0  0  0  0  0  0  0  0
  -33.1198  -17.7626   21.0038 C   0  0  0  0  0  0  0  0  0  0  0  0
  -23.0830   -9.9381   21.3164 C   0  0  0  0  0  0  0  0  0  0  0  0
  -23.6419  -11.2614   23.2590 C   0  0  0  0  0  0  0  0  0  0  0  0
  -16.5109  -30.4498   23.6412 C   0  0  0  0  0  0  0  0  0  0  0  0
  -18.4467  -28.5492   24.2633 C   0  0  0  0  0  0  0  0  0  0  0  0
  -25.3339  -27.1647   25.6657 C   0  0  0  0  0  0  0  0  0  0  0  0
  -32.3790  -18.9444   21.0054 C   0  0  0  0  0  0  0  0  0  0  0  0
  -32.4983  -16.5502   20.7045 C   0  0  0  0  0  0  0  0  0  0  0  0
  -22.1995   -9.1814   22.0861 C   0  0  0  0  0  0  0  0  0  0  0  0
  -22.7583  -10.5047   24.0286 C   0  0  0  0  0  0  0  0  0  0  0  0
  -26.4278  -26.4884   25.1275 C   0  0  0  0  0  0  0  0  0  0  0  0
  -20.0645   -6.6698   23.6214 C   0  0  0  0  0  0  0  0  0  0  0  0
  -20.0945   -5.2834   23.4709 C   0  0  0  0  0  0  0  0  0  0  0  0
  -26.8520  -28.3550   23.6596 C   0  0  0  0  0  0  0  0  0  0  0  0
  -22.4084   -5.2581   24.1652 C   0  0  0  0  0  0  0  0  0  0  0  0
  -23.8042  -10.9781   21.9029 C   0  0  0  0  0  0  0  0  0  0  0  0
  -24.4280  -12.9358   20.3909 C   0  0  0  0  0  0  0  0  0  0  0  0
  -17.7828  -30.5459   23.0550 C   0  0  0  0  0  0  0  0  0  0  0  0
  -24.9837  -28.4390   25.1965 C   0  0  0  0  0  0  0  0  0  0  0  0
  -18.7601  -29.5795   23.3605 C   0  0  0  0  0  0  0  0  0  0  0  0
  -25.7548  -29.0465   24.1952 C   0  0  0  0  0  0  0  0  0  0  0  0
  -30.3950  -17.7014   20.4087 C   0  0  0  0  0  0  0  0  0  0  0  0
  -31.0166  -18.9138   20.7079 C   0  0  0  0  0  0  0  0  0  0  0  0
  -31.1359  -16.5196   20.4070 C   0  0  0  0  0  0  0  0  0  0  0  0
  -22.0371   -9.4647   23.4422 C   0  0  0  0  0  0  0  0  0  0  0  0
  -27.1853  -27.0823   24.1223 C   0  0  0  0  0  0  0  0  0  0  0  0
  -21.2065   -7.3504   24.0437 C   0  0  0  0  0  0  0  0  0  0  0  0
  -21.2664   -4.5776   23.7428 C   0  0  0  0  0  0  0  0  0  0  0  0
  -22.3784   -6.6445   24.3157 C   0  0  0  0  0  0  0  0  0  0  0  0
  -24.7175  -11.7598   21.1085 C   0  0  0  0  0  0  0  0  0  0  0  0
  -25.6221  -13.2862   19.8097 C   0  0  0  0  0  0  0  0  0  0  0  0
  -29.5763  -20.7039   19.6309 C   0  0  0  0  0  0  0  0  0  0  0  0
  -23.1903  -13.6479   20.2614 C   0  0  0  0  0  0  0  0  0  0  0  0
  -22.4318  -29.6782   23.7626 C   0  0  0  0  0  0  0  0  0  0  0  0
  -24.0407  -32.4655   24.1691 C   0  0  0  0  0  0  0  0  0  0  0  0
  -29.0017  -24.4443   22.4223 C   0  0  0  0  0  0  0  0  0  0  0  0
  -27.0333  -34.0457   24.6096 C   0  0  0  0  0  0  0  0  0  0  0  0
  -31.1350  -14.0231   20.0698 C   0  0  0  0  0  0  0  0  0  0  0  0
  -18.0417  -31.6485   22.0591 C   0  0  0  0  0  0  0  0  0  0  0  0
  -23.8169  -29.1665   25.8061 C   0  0  0  0  0  0  0  0  0  0  0  0
  -25.4328  -30.4212   23.6709 C   0  0  0  0  0  0  0  0  0  0  0  0
  -19.5239  -31.8755   21.7732 C   0  0  0  0  0  0  0  0  0  0  0  0
  -29.9692  -10.7237   19.4122 C   0  0  0  0  0  0  0  0  0  0  0  0
  -20.2305  -30.5457   21.5302 C   0  0  0  0  0  0  0  0  0  0  0  0
  -28.4752  -10.7959   19.7359 C   0  0  0  0  0  0  0  0  0  0  0  0
  -30.7986  -11.5792   20.3683 C   0  0  0  0  0  0  0  0  0  0  0  0
  -28.8717  -13.0497   20.8083 C   0  0  0  0  0  0  0  0  0  0  0  0
  -30.1238  -20.9324   21.9221 C   0  0  0  0  0  0  0  0  0  0  0  0
  -20.1512  -29.6445   22.7683 C   0  0  1  0  0  0  0  0  0  0  0  0
  -23.2426  -30.2456   24.8933 C   0  0  1  0  0  0  0  0  0  0  0  0
  -27.9892  -12.2554   19.8316 C   0  0  2  0  0  0  0  0  0  0  0  0
  -29.6603  -22.2833   21.4027 C   0  0  1  0  0  0  0  0  0  0  0  0
  -28.8258  -21.9293   20.1609 C   0  0  0  0  0  0  0  0  0  0  0  0
  -28.9320  -17.6685   20.0901 C   0  0  0  0  0  0  0  0  0  0  0  0
  -28.8257  -23.0637   19.1361 C   0  0  0  0  0  0  0  0  0  0  0  0
  -27.3843  -21.5063   20.4812 C   0  0  0  0  0  0  0  0  0  0  0  0
  -28.0339  -36.3321   24.8712 C   0  0  0  0  0  0  0  0  0  0  0  0
  -23.6936  -32.9570   21.1778 C   0  0  0  0  0  0  0  0  0  0  0  0
  -25.4795  -34.7051   21.3286 C   0  0  0  0  0  0  0  0  0  0  0  0
  -23.3583  -34.9776   22.6128 C   0  0  0  0  0  0  0  0  0  0  0  0
  -28.0981  -33.3994   27.2942 C   0  0  0  0  0  0  0  0  0  0  0  0
  -28.1925  -24.9984   23.5754 C   0  0  0  0  0  0  0  0  0  1  0  0
  -25.0451  -33.2481   23.3583 C   0  0  1  0  0  0  0  0  0  0  0  0
  -27.4719  -35.1166   25.5920 C   0  0  2  0  0  0  0  0  0  0  0  0
  -24.3993  -33.9452   22.1277 C   0  0  0  0  0  0  0  0  0  0  0  0
  -25.9953  -11.3878   20.9949 N   0  0  0  0  0  0  0  0  0  0  0  0
  -26.5192  -12.3355   20.1990 N   0  0  0  0  0  0  0  0  0  0  0  0
  -30.2778  -20.1355   20.7170 N   0  0  0  0  0  0  0  0  0  0  0  0
  -24.2786  -31.0895   24.2944 N   0  0  0  0  0  0  0  0  0  0  0  0
  -30.2828  -12.9494   20.4042 N   0  0  0  0  0  0  0  0  0  0  0  0
  -25.9816  -14.3116   19.0086 N   0  0  0  0  0  0  0  0  0  0  0  0
  -22.0604  -13.1500   20.9246 N   0  0  0  0  0  0  0  0  0  0  0  0
  -30.5252  -15.2766   20.1077 N   0  0  0  0  0  0  0  0  0  0  0  0
  -21.1074  -30.0723   23.7669 N   0  0  0  0  0  0  0  0  0  0  0  0
  -28.9725  -23.0588   22.3950 N   0  0  0  0  0  0  0  0  0  0  0  0
  -25.6973  -34.1628   24.2891 N   0  0  0  0  0  0  0  0  0  0  0  0
  -28.5229  -34.5836   26.5042 N   0  3  0  0  0  0  0  0  0  0  0  0
  -29.4826  -20.3123   18.4758 O   0  0  0  0  0  0  0  0  0  0  0  0
  -23.0854  -14.6855   19.5644 O   0  0  0  0  0  0  0  0  0  0  0  0
  -22.9685  -28.9389   22.9459 O   0  0  0  0  0  0  0  0  0  0  0  0
  -23.0841  -33.0546   24.6787 O   0  0  0  0  0  0  0  0  0  0  0  0
  -29.6010  -25.1617   21.6260 O   0  0  0  0  0  0  0  0  0  0  0  0
  -27.8001  -33.1929   24.1676 O   0  0  0  0  0  0  0  0  0  0  0  0
  -32.3113  -13.8413   19.7455 O   0  0  0  0  0  0  0  0  0  0  0  0
  -21.1749   -8.7267   24.1934 O   0  0  0  0  0  0  0  0  0  0  0  0
  -28.2532  -26.4240   23.5948 O   0  0  0  0  0  0  0  0  0  1  0  0
  -21.2947   -3.2461   23.5997 F   0  0  0  0  0  0  0  0  0  0  0  0
  -23.4784   -7.2927   24.7229 F   0  0  0  0  0  0  0  0  0  0  0  0
  1  2  1  0  0  0  0
  1  6  2  0  0  0  0
  2  7  2  0  0  0  0
  3  9  2  0  0  0  0
  3 10  1  0  0  0  0
  4 11  2  0  0  0  0
  4 18  1  0  0  0  0
  5 12  1  0  0  0  0
  5 18  2  0  0  0  0
  6 20  1  0  0  0  0
  7 22  1  0  0  0  0
  8 13  2  0  0  0  0
  8 21  1  0  0  0  0
  9 25  1  0  0  0  0
 10 26  2  0  0  0  0
 11 27  1  0  0  0  0
 12 27  2  0  0  0  0
 13 28  1  0  0  0  0
 14 15  2  0  0  0  0
 14 29  1  0  0  0  0
 15 30  1  0  0  0  0
 16 23  1  0  0  0  0
 16 28  2  0  0  0  0
 17 30  2  0  0  0  0
 17 31  1  0  0  0  0
 18 32  1  0  0  0  0
 19 32  1  0  0  0  0
 19 33  2  0  0  0  0
 19 35  1  0  0  0  0
 20 22  2  0  0  0  0
 20 41  1  0  0  0  0
 21 23  2  0  0  0  0
 21 42  1  0  0  0  0
 22 51  1  0  0  0  0
 23 43  1  0  0  0  0
 24 25  2  0  0  0  0
 24 26  1  0  0  0  0
 24 56  1  0  0  0  0
 25 70  1  0  0  0  0
 26 75  1  0  0  0  0
 27 87  1  0  0  0  0
 28 88  1  0  0  0  0
 29 31  2  0  0  0  0
 29 87  1  0  0  0  0
 30 89  1  0  0  0  0
 31 90  1  0  0  0  0
 32 68  2  0  0  0  0
 33 69  1  0  0  0  0
 33 73  1  0  0  0  0
 34 55  1  0  0  0  0
 34 70  1  0  0  0  0
 34 80  2  0  0  0  0
 35 74  1  0  0  0  0
 35 81  2  0  0  0  0
 36 52  1  0  0  0  0
 36 76  1  0  0  0  0
 36 82  2  0  0  0  0
 37 65  1  0  0  0  0
 37 71  1  0  0  0  0
 37 83  2  0  0  0  0
 38 64  1  0  0  0  0
 38 77  1  0  0  0  0
 38 84  2  0  0  0  0
 39 66  1  0  0  0  0
 39 78  1  0  0  0  0
 39 85  2  0  0  0  0
 40 72  1  0  0  0  0
 40 75  1  0  0  0  0
 40 86  2  0  0  0  0
 41 44  1  0  0  0  0
 42 52  1  0  0  0  0
 43 71  1  0  0  0  0
 44 46  1  0  0  0  0
 45 47  1  0  0  0  0
 45 48  1  0  0  0  0
 46 51  1  0  0  0  0
 47 53  1  0  0  0  0
 48 72  1  0  0  0  0
 49 53  1  0  0  0  0
 49 72  1  0  0  0  0
 50 54  1  0  0  0  0
 50 70  1  0  0  0  0
 51 76  1  0  0  0  0
 52 71  1  0  0  0  0
 53 69  1  0  0  0  0
 54 55  1  0  0  0  0
 54 77  1  0  0  0  0
 55 57  1  0  0  0  0
 55 58  1  0  0  0  0
 59 66  1  0  0  0  0
 60 67  1  0  0  0  0
 61 67  1  0  0  0  0
 62 67  1  0  0  0  0
 63 79  1  0  0  0  0
 64 88  1  0  0  0  0
 65 67  1  0  0  0  0
 65 78  1  0  0  0  0
 66 79  1  0  0  0  0
 68 69  1  0  0  0  0
M  CHG  1  79   1
M  ISO  4  40 100  64 101  75 100  88 101
M  END
> <Batch ID>
0064

> <Smiles>
CNC(C)C(=O)NC(C(=O)N1Cc2cc([101O:1][101CH2:1]C(=O)NC3CN(c4cccc([100NH:0][100C:0](=O)N5CCCC(n6nc(-c7ccc(Oc8ccc(F)cc8F)cc7)c(C(N)=O)c6N)C5)c4C)C(=O)C3(C)C)ccc2CC1C(=O)NC1CCCc2ccccc21)C(C)(C)C

> <Shape>
0.305

> <Color>
0.113

> <Negative vol penalty>
0.000

$$$$

  -OEChem-04042323153D

 85 93  0     1  0  0  0  0  0999 V2000
  -30.9197  -23.9582   16.7993 C   0  0  0  0  0  0  0  0  0  0  0  0
  -29.6631  -23.8386   17.3841 C   0  0  0  0  0  0  0  0  0  0  0  0
  -24.6552   -9.0161   21.2652 C   0  0  0  0  0  0  0  0  0  0  0  0
  -22.8526  -10.3493   20.3650 C   0  0  0  0  0  0  0  0  0  0  0  0
  -31.8752  -24.7988   17.3688 C   0  0  0  0  0  0  0  0  0  0  0  0
  -29.3616  -24.5587   18.5395 C   0  0  0  0  0  0  0  0  0  0  0  0
  -24.7960  -26.7400   18.3334 C   0  0  0  0  0  0  0  0  0  0  0  0
  -22.4765  -18.3842   21.5752 C   0  0  0  0  0  0  0  0  0  0  0  0
  -23.7606   -7.9759   21.5161 C   0  0  0  0  0  0  0  0  0  0  0  0
  -21.9580   -9.3090   20.6158 C   0  0  0  0  0  0  0  0  0  0  0  0
  -23.6894  -25.9235   18.5622 C   0  0  0  0  0  0  0  0  0  0  0  0
  -21.4296   -7.2013   23.8380 C   0  0  0  0  0  0  0  0  0  0  0  0
  -21.5095   -6.5632   25.0757 C   0  0  0  0  0  0  0  0  0  0  0  0
  -21.4265  -19.2883   21.7354 C   0  0  0  0  0  0  0  0  0  0  0  0
  -23.5664  -26.7360   20.8302 C   0  0  0  0  0  0  0  0  0  0  0  0
  -23.5176  -19.2377   23.5814 C   0  0  0  0  0  0  0  0  0  0  0  0
  -21.9654   -4.4665   23.9652 C   0  0  0  0  0  0  0  0  0  0  0  0
  -24.2012  -10.2029   20.6897 C   0  0  0  0  0  0  0  0  0  0  0  0
  -25.8707  -11.4939   19.2566 C   0  0  0  0  0  0  0  0  0  0  0  0
  -31.5820  -25.5370   18.5263 C   0  0  0  0  0  0  0  0  0  0  0  0
  -25.3038  -27.5539   19.3562 C   0  0  0  0  0  0  0  0  0  0  0  0
  -30.3145  -25.4089   19.1258 C   0  0  0  0  0  0  0  0  0  0  0  0
  -24.6781  -27.5638   20.6111 C   0  0  0  0  0  0  0  0  0  0  0  0
  -23.5221  -18.3589   22.4982 C   0  0  0  0  0  0  0  0  0  0  0  0
  -22.4119   -8.1222   21.1914 C   0  0  0  0  0  0  0  0  0  0  0  0
  -23.0761  -25.9192   19.8116 C   0  0  0  0  0  0  0  0  0  0  0  0
  -21.6175   -6.4721   22.6638 C   0  0  0  0  0  0  0  0  0  0  0  0
  -21.7774   -5.1958   25.1393 C   0  0  0  0  0  0  0  0  0  0  0  0
  -22.4676  -20.1418   23.7417 C   0  0  0  0  0  0  0  0  0  0  0  0
  -21.8855   -5.1047   22.7275 C   0  0  0  0  0  0  0  0  0  0  0  0
  -21.4220  -20.1671   22.8187 C   0  0  0  0  0  0  0  0  0  0  0  0
  -25.1248  -11.2781   20.4309 C   0  0  0  0  0  0  0  0  0  0  0  0
  -26.5882  -12.6372   19.5108 C   0  0  0  0  0  0  0  0  0  0  0  0
  -25.9112  -10.7294   18.0443 C   0  0  0  0  0  0  0  0  0  0  0  0
  -28.0704  -27.7398   20.9102 C   0  0  0  0  0  0  0  0  0  0  0  0
  -26.7091  -30.3746   22.2244 C   0  0  0  0  0  0  0  0  0  0  0  0
  -21.0957  -23.3117   21.3575 C   0  0  0  0  0  0  0  0  0  0  0  0
  -23.8563  -32.0601   23.0413 C   0  0  0  0  0  0  0  0  0  0  0  0
  -25.7031  -17.2855   23.1597 C   0  0  0  0  0  0  0  0  0  0  0  0
  -32.6631  -26.3965   19.1324 C   0  0  0  0  0  0  0  0  0  0  0  0
  -26.4819  -28.4489   19.0854 C   0  0  0  0  0  0  0  0  0  0  0  0
  -25.1719  -28.4343   21.7366 C   0  0  0  0  0  0  0  0  0  0  0  0
  -32.1383  -27.4117   20.1444 C   0  0  0  0  0  0  0  0  0  0  0  0
  -28.5267  -15.1170   23.1201 C   0  0  0  0  0  0  0  0  0  0  0  0
  -31.1619  -26.7474   21.1098 C   0  0  0  0  0  0  0  0  0  0  0  0
  -28.0446  -13.9087   22.3139 C   0  0  0  0  0  0  0  0  0  0  0  0
  -27.4166  -15.6928   23.9975 C   0  0  0  0  0  0  0  0  0  0  0  0
  -25.6873  -14.8036   22.4850 C   0  0  0  0  0  0  0  0  0  0  0  0
  -29.9414  -26.1927   20.3654 C   0  0  1  0  0  0  0  0  0  0  0  0
  -27.2291  -28.8529   20.3526 C   0  0  1  0  0  0  0  0  0  0  0  0
  -26.7525  -14.2289   21.5370 C   0  0  2  0  0  0  0  0  0  0  0  0
  -23.0620  -34.1709   24.1417 C   0  0  0  0  0  0  0  0  0  0  0  0
  -27.3425  -29.1833   24.9611 C   0  0  0  0  0  0  0  0  0  0  0  0
  -25.7264  -30.8102   25.9660 C   0  0  0  0  0  0  0  0  0  0  0  0
  -27.7531  -31.6431   24.7737 C   0  0  0  0  0  0  0  0  0  0  0  0
  -22.5208  -32.9847   20.5673 C   0  0  0  0  0  0  0  0  0  0  0  0
  -21.8110  -24.6421   21.3686 C   0  0  0  0  0  0  0  0  0  1  0  0
  -25.8533  -30.6429   23.4387 C   0  0  1  0  0  0  0  0  0  0  0  0
  -23.4445  -33.5057   22.8287 C   0  0  2  0  0  0  0  0  0  0  0  0
  -26.6605  -30.5519   24.7645 C   0  0  0  0  0  0  0  0  0  0  0  0
  -25.3480  -12.2095   21.3619 N   0  0  0  0  0  0  0  0  0  0  0  0
  -26.2422  -13.0215   20.7728 N   0  0  0  0  0  0  0  0  0  0  0  0
  -26.3307  -29.2871   21.4244 N   0  0  0  0  0  0  0  0  0  0  0  0
  -26.2259  -15.9755   23.1930 N   0  0  0  0  0  0  0  0  0  0  0  0
  -27.4750  -13.3412   18.7756 N   0  0  0  0  0  0  0  0  0  0  0  0
  -25.1109   -9.5826   17.9506 N   0  0  0  0  0  0  0  0  0  0  0  0
  -24.5891  -17.4409   22.3353 N   0  0  0  0  0  0  0  0  0  0  0  0
  -29.0240  -27.2613   20.0321 N   0  0  0  0  0  0  0  0  0  0  0  0
  -25.2189  -31.9371   23.2131 N   0  0  0  0  0  0  0  0  0  0  0  0
  -20.8688  -22.7893   22.6711 N   0  0  0  0  0  0  0  0  0  0  0  0
  -22.2769  -33.5814   21.9058 N   0  3  0  0  0  0  0  0  0  0  0  0
  -26.6480  -11.0444   17.0793 O   0  0  0  0  0  0  0  0  0  0  0  0
  -27.8702  -27.3453   22.0530 O   0  0  0  0  0  0  0  0  0  0  0  0
  -27.6735  -31.1073   21.9903 O   0  0  0  0  0  0  0  0  0  0  0  0
  -20.7461  -22.7441   20.3290 O   0  0  0  0  0  0  0  0  0  0  0  0
  -23.0494  -31.1331   23.0573 O   0  0  0  0  0  0  0  0  0  0  0  0
  -26.2227  -18.2080   23.7930 O   0  0  0  0  0  0  0  0  0  0  0  0
  -19.6850  -21.2923   24.4120 O   0  0  0  0  0  0  0  0  0  0  0  0
  -19.1261  -21.0178   21.9724 O   0  0  0  0  0  0  0  0  0  0  0  0
  -21.5387   -7.1072   21.4358 O   0  0  0  0  0  0  0  0  0  0  0  0
  -21.9962  -25.1227   20.0378 O   0  0  0  0  0  0  0  0  0  1  0  0
  -21.8556   -4.5834   26.3280 F   0  0  0  0  0  0  0  0  0  0  0  0
  -22.4741  -20.9814   24.7864 F   0  0  0  0  0  0  0  0  0  0  0  0
  -22.0681   -4.3990   21.6030 F   0  0  0  0  0  0  0  0  0  0  0  0
  -20.0872  -21.3082   23.0188 S   0  0  0  0  0  0  0  0  0  0  0  0
  1  2  1  0  0  0  0
  1  5  2  0  0  0  0
  2  6  2  0  0  0  0
  3  9  2  0  0  0  0
  3 18  1  0  0  0  0
  4 10  1  0  0  0  0
  4 18  2  0  0  0  0
  5 20  1  0  0  0  0
  6 22  1  0  0  0  0
  7 11  2  0  0  0  0
  7 21  1  0  0  0  0
  8 14  2  0  0  0  0
  8 24  1  0  0  0  0
  9 25  1  0  0  0  0
 10 25  2  0  0  0  0
 11 26  1  0  0  0  0
 12 13  2  0  0  0  0
 12 27  1  0  0  0  0
 13 28  1  0  0  0  0
 14 31  1  0  0  0  0
 15 23  1  0  0  0  0
 15 26  2  0  0  0  0
 16 24  2  0  0  0  0
 16 29  1  0  0  0  0
 17 28  2  0  0  0  0
 17 30  1  0  0  0  0
 18 32  1  0  0  0  0
 19 32  1  0  0  0  0
 19 33  2  0  0  0  0
 19 34  1  0  0  0  0
 20 22  2  0  0  0  0
 20 40  1  0  0  0  0
 21 23  2  0  0  0  0
 21 41  1  0  0  0  0
 22 49  1  0  0  0  0
 23 42  1  0  0  0  0
 24 67  1  0  0  0  0
 25 80  1  0  0  0  0
 26 81  1  0  0  0  0
 27 30  2  0  0  0  0
 27 80  1  0  0  0  0
 28 82  1  0  0  0  0
 29 31  2  0  0  0  0
 29 83  1  0  0  0  0
 30 84  1  0  0  0  0
 31 85  1  0  0  0  0
 32 61  2  0  0  0  0
 33 62  1  0  0  0  0
 33 65  1  0  0  0  0
 34 66  1  0  0  0  0
 34 72  2  0  0  0  0
 35 50  1  0  0  0  0
 35 68  1  0  0  0  0
 35 73  2  0  0  0  0
 36 58  1  0  0  0  0
 36 63  1  0  0  0  0
 36 74  2  0  0  0  0
 37 57  1  0  0  0  0
 37 70  1  0  0  0  0
 37 75  2  0  0  0  0
 38 59  1  0  0  0  0
 38 69  1  0  0  0  0
 38 76  2  0  0  0  0
 39 64  1  0  0  0  0
 39 67  1  0  0  0  0
 39 77  2  0  0  0  0
 40 43  1  0  0  0  0
 41 50  1  0  0  0  0
 42 63  1  0  0  0  0
 43 45  1  0  0  0  0
 44 46  1  0  0  0  0
 44 47  1  0  0  0  0
 45 49  1  0  0  0  0
 46 51  1  0  0  0  0
 47 64  1  0  0  0  0
 48 51  1  0  0  0  0
 48 64  1  0  0  0  0
 49 68  1  0  0  0  0
 50 63  1  0  0  0  0
 51 62  1  0  0  0  0
 52 59  1  0  0  0  0
 53 60  1  0  0  0  0
 54 60  1  0  0  0  0
 55 60  1  0  0  0  0
 56 71  1  0  0  0  0
 57 81  1  0  0  0  0
 58 60  1  0  0  0  0
 58 69  1  0  0  0  0
 59 71  1  0  0  0  0
 61 62  1  0  0  0  0
 70 85  1  0  0  0  0
 78 85  2  0  0  0  0
 79 85  2  0  0  0  0
M  CHG  1  71   1
M  ISO  4  39 100  57 101  67 100  81 101
M  END
> <Batch ID>
0064

> <Smiles>
CNC(C)C(=O)NC(C(=O)N1Cc2cc([101O:1][101CH2:1]C(=O)NS(=O)(=O)c3ccc([100NH:0][100C:0](=O)N4CCCC(n5nc(-c6ccc(Oc7ccc(F)cc7F)cc6)c(C(N)=O)c5N)C4)cc3F)ccc2CC1C(=O)NC1CCCc2ccccc21)C(C)(C)C

> <Shape>
0.271

> <Color>
0.089

> <Negative vol penalty>
0.000

$$$$

  -OEChem-04042323153D

 85 93  0     1  0  0  0  0  0999 V2000
  -21.8495   -8.7212   21.2630 C   0  0  0  0  0  0  0  0  0  0  0  0
  -22.2948   -9.8234   21.9857 C   0  0  0  0  0  0  0  0  0  0  0  0
  -22.6237  -30.6905   20.4713 C   0  0  0  0  0  0  0  0  0  0  0  0
  -22.6376  -28.9846   22.1820 C   0  0  0  0  0  0  0  0  0  0  0  0
  -22.7446   -7.9965   20.4771 C   0  0  0  0  0  0  0  0  0  0  0  0
  -23.6357  -10.2009   21.9238 C   0  0  0  0  0  0  0  0  0  0  0  0
  -24.2225  -15.1982   21.3513 C   0  0  0  0  0  0  0  0  0  0  0  0
  -21.2387  -30.5682   20.3604 C   0  0  0  0  0  0  0  0  0  0  0  0
  -21.2525  -28.8622   22.0712 C   0  0  0  0  0  0  0  0  0  0  0  0
  -24.0586  -15.9926   22.4853 C   0  0  0  0  0  0  0  0  0  0  0  0
  -18.5133  -30.5339   23.1309 C   0  0  0  0  0  0  0  0  0  0  0  0
  -17.7730  -30.4752   24.3116 C   0  0  0  0  0  0  0  0  0  0  0  0
  -28.6494  -23.5310   22.7163 C   0  0  0  0  0  0  0  0  0  0  0  0
  -26.4545  -16.1137   22.7392 C   0  0  0  0  0  0  0  0  0  0  0  0
  -29.8111  -22.9812   20.6705 C   0  0  0  0  0  0  0  0  0  0  0  0
  -16.9366  -28.2987   23.6788 C   0  0  0  0  0  0  0  0  0  0  0  0
  -23.3232  -29.8986   21.3820 C   0  0  0  0  0  0  0  0  0  0  0  0
  -28.7073  -22.1937   23.1086 C   0  0  0  0  0  0  0  0  0  0  0  0
  -25.4660  -30.8868   22.3513 C   0  0  0  0  0  0  0  0  0  0  0  0
  -24.0952   -8.3711   20.3979 C   0  0  0  0  0  0  0  0  0  0  0  0
  -25.5055  -14.8460   20.9083 C   0  0  0  0  0  0  0  0  0  0  0  0
  -24.5499   -9.4798   21.1372 C   0  0  0  0  0  0  0  0  0  0  0  0
  -26.6319  -15.3169   21.5978 C   0  0  0  0  0  0  0  0  0  0  0  0
  -29.2012  -23.9248   21.4972 C   0  0  0  0  0  0  0  0  0  0  0  0
  -29.3172  -21.2502   22.2819 C   0  0  0  0  0  0  0  0  0  0  0  0
  -20.5531  -29.6541   21.1604 C   0  0  0  0  0  0  0  0  0  0  0  0
  -25.1746  -16.4481   23.1811 C   0  0  0  0  0  0  0  0  0  0  0  0
  -18.4653  -29.4751   22.2241 C   0  0  0  0  0  0  0  0  0  0  0  0
  -16.9846  -29.3576   24.5855 C   0  0  0  0  0  0  0  0  0  0  0  0
  -29.8691  -21.6439   21.0628 C   0  0  0  0  0  0  0  0  0  0  0  0
  -17.6769  -28.3575   22.4981 C   0  0  0  0  0  0  0  0  0  0  0  0
  -24.7540  -30.0241   21.4965 C   0  0  0  0  0  0  0  0  0  0  0  0
  -26.7869  -30.6250   22.0808 C   0  0  0  0  0  0  0  0  0  0  0  0
  -28.1158  -21.8021   24.4037 C   0  0  0  0  0  0  0  0  0  0  0  0
  -24.9771  -31.8396   23.3047 C   0  0  0  0  0  0  0  0  0  0  0  0
  -27.0758  -12.1080   20.5328 C   0  0  0  0  0  0  0  0  0  0  0  0
  -29.3265  -14.0314   19.2072 C   0  0  0  0  0  0  0  0  0  0  0  0
  -30.6868  -17.1510   18.9537 C   0  0  0  0  0  0  0  0  0  0  0  0
  -29.6410  -25.8402   19.9211 C   0  0  0  0  0  0  0  0  0  0  0  0
  -25.0350   -7.5287   19.5723 C   0  0  0  0  0  0  0  0  0  0  0  0
  -25.6658  -14.0105   19.6679 C   0  0  0  0  0  0  0  0  0  0  0  0
  -28.0314  -14.9838   21.1516 C   0  0  0  0  0  0  0  0  0  0  0  0
  -26.3618   -8.2187   19.2659 C   0  0  0  0  0  0  0  0  0  0  0  0
  -29.6621  -29.1283   18.5555 C   0  0  0  0  0  0  0  0  0  0  0  0
  -26.9346   -8.8580   20.5268 C   0  0  0  0  0  0  0  0  0  0  0  0
  -28.4744  -29.8116   19.2371 C   0  0  0  0  0  0  0  0  0  0  0  0
  -29.3728  -27.6597   18.2501 C   0  0  0  0  0  0  0  0  0  0  0  0
  -27.7253  -27.5492   20.0784 C   0  0  0  0  0  0  0  0  0  0  0  0
  -25.9918   -9.9354   21.0763 C   0  0  1  0  0  0  0  0  0  0  0  0
  -27.0074  -13.2871   19.6040 C   0  0  1  0  0  0  0  0  0  0  0  0
  -27.9932  -29.0131   20.4645 C   0  0  2  0  0  0  0  0  0  0  0  0
  -32.5418  -18.4050   17.8206 C   0  0  0  0  0  0  0  0  0  0  0  0
  -31.3371  -12.8060   21.1478 C   0  0  0  0  0  0  0  0  0  0  0  0
  -32.8799  -14.7123   20.6438 C   0  0  0  0  0  0  0  0  0  0  0  0
  -32.2017  -13.1448   18.8257 C   0  0  0  0  0  0  0  0  0  0  0  0
  -28.7838  -18.9410   17.5633 C   0  0  0  0  0  0  0  0  0  0  0  0
  -25.4311  -19.3758   25.2648 C   0  0  0  0  0  0  0  0  0  0  0  0
  -26.4605  -20.4347   25.6230 C   0  0  0  0  0  0  0  0  0  0  0  0
  -26.0488  -18.1678   24.5719 C   0  0  0  0  0  0  0  0  0  1  0  0
  -30.5169  -14.8001   19.7276 C   0  0  1  0  0  0  0  0  0  0  0  0
  -31.0829  -17.9822   17.7467 C   0  0  2  0  0  0  0  0  0  0  0  0
  -31.7076  -13.8707   20.0960 C   0  0  0  0  0  0  0  0  0  0  0  0
  -25.5561  -29.2708   20.7395 N   0  0  0  0  0  0  0  0  0  0  0  0
  -26.7858  -29.6593   21.1177 N   0  0  0  0  0  0  0  0  0  0  0  0
  -28.1360  -14.1588   19.9368 N   0  0  0  0  0  0  0  0  0  0  0  0
  -28.9262  -26.9659   19.4600 N   0  0  0  0  0  0  0  0  0  0  0  0
  -29.3843  -19.8922   22.6645 N   0  0  0  0  0  0  0  0  0  0  0  0
  -27.9376  -31.1291   22.5751 N   0  0  0  0  0  0  0  0  0  0  0  0
  -28.5978  -22.3669   25.5108 N   0  0  0  0  0  0  0  0  0  0  0  0
  -23.5911  -31.9817   23.4566 N   0  0  0  0  0  0  0  0  0  0  0  0
  -29.1425  -25.2831   21.0983 N   0  0  0  0  0  0  0  0  0  0  0  0
  -26.1065  -11.1512   20.2997 N   0  0  0  0  0  0  0  0  0  0  0  0
  -30.8316  -15.8009   18.7138 N   0  0  0  0  0  0  0  0  0  0  0  0
  -27.1271  -20.8985   24.4060 N   0  3  0  0  0  0  0  0  0  0  0  0
  -30.2414  -19.2094   17.6643 N   0  3  0  0  0  0  0  0  0  0  0  0
  -25.7464  -32.5556   23.9895 O   0  0  0  0  0  0  0  0  0  0  0  0
  -27.9447  -12.0684   21.3960 O   0  0  0  0  0  0  0  0  0  0  0  0
  -29.4465  -13.3489   18.1867 O   0  0  0  0  0  0  0  0  0  0  0  0
  -30.2924  -17.6497   20.0055 O   0  0  0  0  0  0  0  0  0  0  0  0
  -30.6392  -25.4190   19.3311 O   0  0  0  0  0  0  0  0  0  0  0  0
  -19.2015  -29.5346   21.0527 O   0  0  0  0  0  0  0  0  0  0  0  0
  -25.0176  -17.2230   24.2886 O   0  0  0  0  0  0  0  0  0  1  0  0
  -16.2749  -29.3006   25.7201 F   0  0  0  0  0  0  0  0  0  0  0  0
  -30.4578  -20.7460   20.2599 F   0  0  0  0  0  0  0  0  0  0  0  0
  -17.6277  -27.3367   21.6313 F   0  0  0  0  0  0  0  0  0  0  0  0
  1  2  1  0  0  0  0
  1  5  2  0  0  0  0
  2  6  2  0  0  0  0
  3  8  2  0  0  0  0
  3 17  1  0  0  0  0
  4  9  1  0  0  0  0
  4 17  2  0  0  0  0
  5 20  1  0  0  0  0
  6 22  1  0  0  0  0
  7 10  2  0  0  0  0
  7 21  1  0  0  0  0
  8 26  1  0  0  0  0
  9 26  2  0  0  0  0
 10 27  1  0  0  0  0
 11 12  2  0  0  0  0
 11 28  1  0  0  0  0
 12 29  1  0  0  0  0
 13 18  1  0  0  0  0
 13 24  2  0  0  0  0
 14 23  1  0  0  0  0
 14 27  2  0  0  0  0
 15 24  1  0  0  0  0
 15 30  2  0  0  0  0
 16 29  2  0  0  0  0
 16 31  1  0  0  0  0
 17 32  1  0  0  0  0
 18 25  2  0  0  0  0
 18 34  1  0  0  0  0
 19 32  1  0  0  0  0
 19 33  2  0  0  0  0
 19 35  1  0  0  0  0
 20 22  2  0  0  0  0
 20 40  1  0  0  0  0
 21 23  2  0  0  0  0
 21 41  1  0  0  0  0
 22 49  1  0  0  0  0
 23 42  1  0  0  0  0
 24 71  1  0  0  0  0
 25 30  1  0  0  0  0
 25 67  1  0  0  0  0
 26 81  1  0  0  0  0
 27 82  1  0  0  0  0
 28 31  2  0  0  0  0
 28 81  1  0  0  0  0
 29 83  1  0  0  0  0
 30 84  1  0  0  0  0
 31 85  1  0  0  0  0
 32 63  2  0  0  0  0
 33 64  1  0  0  0  0
 33 68  1  0  0  0  0
 34 69  1  0  0  0  0
 34 74  2  0  0  0  0
 35 70  1  0  0  0  0
 35 76  2  0  0  0  0
 36 50  1  0  0  0  0
 36 72  1  0  0  0  0
 36 77  2  0  0  0  0
 37 60  1  0  0  0  0
 37 65  1  0  0  0  0
 37 78  2  0  0  0  0
 38 61  1  0  0  0  0
 38 73  1  0  0  0  0
 38 79  2  0  0  0  0
 39 66  1  0  0  0  0
 39 71  1  0  0  0  0
 39 80  2  0  0  0  0
 40 43  1  0  0  0  0
 41 50  1  0  0  0  0
 42 65  1  0  0  0  0
 43 45  1  0  0  0  0
 44 46  1  0  0  0  0
 44 47  1  0  0  0  0
 45 49  1  0  0  0  0
 46 51  1  0  0  0  0
 47 66  1  0  0  0  0
 48 51  1  0  0  0  0
 48 66  1  0  0  0  0
 49 72  1  0  0  0  0
 50 65  1  0  0  0  0
 51 64  1  0  0  0  0
 52 61  1  0  0  0  0
 53 62  1  0  0  0  0
 54 62  1  0  0  0  0
 55 62  1  0  0  0  0
 56 75  1  0  0  0  0
 57 58  1  0  0  0  0
 57 59  1  0  0  0  0
 58 74  1  0  0  0  0
 59 82  1  0  0  0  0
 60 62  1  0  0  0  0
 60 73  1  0  0  0  0
 61 75  1  0  0  0  0
 63 64  1  0  0  0  0
M  CHG  2  74   1  75   1
M  ISO  4  39 100  59 101  71 100  82 101
M  END
> <Batch ID>
0064

> <Smiles>
CNC(C)C(=O)NC(C(=O)N1Cc2cc([101O:1][101CH2:1]CCNC(=N)c3cc([100NH:0][100C:0](=O)N4CCCC(n5nc(-c6ccc(Oc7ccc(F)cc7F)cc6)c(C(N)=O)c5N)C4)cc(F)c3N)ccc2CC1C(=O)NC1CCCc2ccccc21)C(C)(C)C

> <Shape>
0.298

> <Color>
0.076

> <Negative vol penalty>
0.000

$$$$

  -OEChem-04042323153D

 96105  0     1  0  0  0  0  0999 V2000
  -34.9244  -31.9880   20.5450 C   0  0  0  0  0  0  0  0  0  0  0  0
  -34.4313  -30.7441   20.1644 C   0  0  0  0  0  0  0  0  0  0  0  0
  -23.1076   -9.7194   19.9391 C   0  0  0  0  0  0  0  0  0  0  0  0
  -23.8348   -9.7945   22.2418 C   0  0  0  0  0  0  0  0  0  0  0  0
  -34.4369  -32.6078   21.6949 C   0  0  0  0  0  0  0  0  0  0  0  0
  -33.4511  -30.1186   20.9342 C   0  0  0  0  0  0  0  0  0  0  0  0
  -27.7737  -25.7957   20.3054 C   0  0  0  0  0  0  0  0  0  0  0  0
  -31.2323  -19.0465   20.4782 C   0  0  0  0  0  0  0  0  0  0  0  0
  -31.0804  -17.6602   20.5047 C   0  0  0  0  0  0  0  0  0  0  0  0
  -22.3739   -8.5642   20.2084 C   0  0  0  0  0  0  0  0  0  0  0  0
  -23.1010   -8.6393   22.5112 C   0  0  0  0  0  0  0  0  0  0  0  0
  -27.2623  -24.6069   20.8243 C   0  0  0  0  0  0  0  0  0  0  0  0
  -19.8742   -7.8184   23.0894 C   0  0  0  0  0  0  0  0  0  0  0  0
  -19.1012   -7.7994   24.2503 C   0  0  0  0  0  0  0  0  0  0  0  0
  -26.4381  -25.8079   22.7472 C   0  0  0  0  0  0  0  0  0  0  0  0
  -29.4223  -17.8752   22.2488 C   0  0  0  0  0  0  0  0  0  0  0  0
  -20.3546   -5.8967   25.0538 C   0  0  0  0  0  0  0  0  0  0  0  0
  -23.8382  -10.3346   20.9557 C   0  0  0  0  0  0  0  0  0  0  0  0
  -24.1522  -12.8597   20.7752 C   0  0  0  0  0  0  0  0  0  0  0  0
  -33.4433  -31.9940   22.4738 C   0  0  0  0  0  0  0  0  0  0  0  0
  -27.6303  -26.9996   21.0099 C   0  0  0  0  0  0  0  0  0  0  0  0
  -32.9508  -30.7302   22.0963 C   0  0  0  0  0  0  0  0  0  0  0  0
  -26.9462  -27.0110   22.2339 C   0  0  0  0  0  0  0  0  0  0  0  0
  -30.4794  -19.8471   21.3372 C   0  0  0  0  0  0  0  0  0  0  0  0
  -29.5744  -19.2615   22.2224 C   0  0  0  0  0  0  0  0  0  0  0  0
  -30.1754  -17.0745   21.3899 C   0  0  0  0  0  0  0  0  0  0  0  0
  -22.3705   -8.0241   21.4945 C   0  0  0  0  0  0  0  0  0  0  0  0
  -26.5970  -24.6124   22.0467 C   0  0  0  0  0  0  0  0  0  0  0  0
  -20.8873   -6.8764   22.9106 C   0  0  0  0  0  0  0  0  0  0  0  0
  -19.3415   -6.8386   25.2325 C   0  0  0  0  0  0  0  0  0  0  0  0
  -21.1276   -5.9156   23.8928 C   0  0  0  0  0  0  0  0  0  0  0  0
  -24.5969  -11.5276   20.6780 C   0  0  0  0  0  0  0  0  0  0  0  0
  -25.2405  -13.6127   20.4078 C   0  0  0  0  0  0  0  0  0  0  0  0
  -28.4583  -21.6765   24.9901 C   0  0  0  0  0  0  0  0  0  0  0  0
  -29.3815  -20.9114   24.0723 C   0  0  0  0  0  0  0  0  0  0  0  0
  -22.8699  -13.3708   21.1629 C   0  0  0  0  0  0  0  0  0  0  0  0
  -29.6408  -29.0999   22.2946 C   0  0  0  0  0  0  0  0  0  0  0  0
  -26.9231  -30.7897   22.8246 C   0  0  0  0  0  0  0  0  0  0  0  0
  -30.9846  -22.9926   19.3862 C   0  0  0  0  0  0  0  0  0  0  0  0
  -23.5359  -30.7730   23.2410 C   0  0  0  0  0  0  0  0  0  0  0  0
  -30.6911  -14.7283   20.6312 C   0  0  0  0  0  0  0  0  0  0  0  0
  -32.9813  -32.6812   23.7344 C   0  0  0  0  0  0  0  0  0  0  0  0
  -28.1642  -28.2779   20.4238 C   0  0  0  0  0  0  0  0  0  0  0  0
  -26.7479  -28.2804   23.0198 C   0  0  0  0  0  0  0  0  0  0  0  0
  -31.6740  -32.1215   24.2891 C   0  0  0  0  0  0  0  0  0  0  0  0
  -29.6386  -12.2411   18.3109 C   0  0  0  0  0  0  0  0  0  0  0  0
  -31.7115  -30.5967   24.3081 C   0  0  0  0  0  0  0  0  0  0  0  0
  -28.1966  -11.9434   18.7279 C   0  0  0  0  0  0  0  0  0  0  0  0
  -30.5339  -12.5118   19.5188 C   0  0  0  0  0  0  0  0  0  0  0  0
  -28.5992  -13.2485   20.8543 C   0  0  0  0  0  0  0  0  0  0  0  0
  -27.3275  -19.9267   23.0897 C   0  0  0  0  0  0  0  0  0  0  0  0
  -31.8696  -30.0311   22.8915 C   0  0  1  0  0  0  0  0  0  0  0  0
  -28.4104  -29.3587   21.4719 C   0  0  1  0  0  0  0  0  0  0  0  0
  -27.6453  -13.0333   19.6680 C   0  0  2  0  0  0  0  0  0  0  0  0
  -26.6315  -21.2530   23.3689 C   0  0  2  0  0  0  0  0  0  0  0  0
  -21.5996  -32.3031   23.6960 C   0  0  0  0  0  0  0  0  0  0  0  0
  -33.4911  -24.6331   18.3402 C   0  0  0  0  0  0  0  0  0  0  0  0
  -31.7453  -26.0772   19.4464 C   0  0  0  0  0  0  0  0  0  0  0  0
  -33.7989  -25.4074   20.6884 C   0  0  0  0  0  0  0  0  0  0  0  0
  -27.7491  -30.9592   25.7570 C   0  0  0  0  0  0  0  0  0  0  0  0
  -25.4005  -31.6292   26.3076 C   0  0  0  0  0  0  0  0  0  0  0  0
  -26.7904  -33.0702   24.8196 C   0  0  0  0  0  0  0  0  0  0  0  0
  -29.3166  -21.1776   19.2306 C   0  0  0  0  0  0  0  0  0  0  0  0
  -22.2355  -30.0800   20.6744 C   0  0  0  0  0  0  0  0  0  0  0  0
  -30.6629  -21.3292   21.2870 C   0  0  0  0  0  0  0  0  0  0  0  0
  -32.0680  -23.6663   20.2297 C   0  0  0  0  0  0  0  0  0  0  0  0
  -26.7833  -22.2479   22.2202 C   0  0  0  0  0  0  0  0  0  1  0  0
  -25.9132  -30.8666   23.9440 C   0  0  1  0  0  0  0  0  0  0  0  0
  -22.4412  -31.6258   22.6256 C   0  0  2  0  0  0  0  0  0  0  0  0
  -32.7525  -24.9338   19.6552 C   0  0  0  0  0  0  0  0  0  0  0  0
  -26.4686  -31.6069   25.1934 C   0  0  0  0  0  0  0  0  0  0  0  0
  -25.8686  -11.4363   20.2799 N   0  0  0  0  0  0  0  0  0  0  0  0
  -26.2322  -12.7206   20.1236 N   0  0  0  0  0  0  0  0  0  0  0  0
  -27.1483  -21.8053   24.5998 N   0  0  0  0  0  0  0  0  0  0  0  0
  -28.7870  -20.0719   23.1182 N   0  0  0  0  0  0  0  0  0  0  0  0
  -27.2936  -29.5033   22.4079 N   0  0  0  0  0  0  0  0  0  0  0  0
  -29.9505  -13.5580   20.3614 N   0  0  0  0  0  0  0  0  0  0  0  0
  -25.4363  -14.9443   20.3033 N   0  0  0  0  0  0  0  0  0  0  0  0
  -21.8640  -12.4585   21.5096 N   0  0  0  0  0  0  0  0  0  0  0  0
  -30.0214  -15.6662   21.4163 N   0  0  0  0  0  0  0  0  0  0  0  0
  -30.6082  -30.0805   22.1839 N   0  0  0  0  0  0  0  0  0  0  0  0
  -24.7160  -31.4739   23.3727 N   0  0  0  0  0  0  0  0  0  0  0  0
  -30.3654  -21.8715   19.9868 N   0  0  0  0  0  0  0  0  0  0  0  0
  -21.5432  -30.7867   21.7827 N   0  3  0  0  0  0  0  0  0  0  0  0
  -28.9309  -22.1378   26.0217 O   0  0  0  0  0  0  0  0  0  0  0  0
  -30.5765  -21.0777   24.2938 O   0  0  0  0  0  0  0  0  0  0  0  0
  -22.6185  -14.5995   21.1851 O   0  0  0  0  0  0  0  0  0  0  0  0
  -29.7071  -28.0864   22.9802 O   0  0  0  0  0  0  0  0  0  0  0  0
  -27.3616  -31.8326   22.3330 O   0  0  0  0  0  0  0  0  0  0  0  0
  -30.6896  -23.4138   18.2663 O   0  0  0  0  0  0  0  0  0  0  0  0
  -23.3606  -29.6034   23.5752 O   0  0  0  0  0  0  0  0  0  0  0  0
  -31.8246  -14.8985   20.1750 O   0  0  0  0  0  0  0  0  0  0  0  0
  -21.6544   -6.8970   21.7578 O   0  0  0  0  0  0  0  0  0  0  0  0
  -26.0975  -23.4534   22.5558 O   0  0  0  0  0  0  0  0  0  1  0  0
  -18.6001   -6.8215   26.3480 F   0  0  0  0  0  0  0  0  0  0  0  0
  -22.1003   -5.0088   23.7272 F   0  0  0  0  0  0  0  0  0  0  0  0
  1  2  1  0  0  0  0
  1  5  2  0  0  0  0
  2  6  2  0  0  0  0
  3 10  2  0  0  0  0
  3 18  1  0  0  0  0
  4 11  1  0  0  0  0
  4 18  2  0  0  0  0
  5 20  1  0  0  0  0
  6 22  1  0  0  0  0
  7 12  2  0  0  0  0
  7 21  1  0  0  0  0
  8  9  2  0  0  0  0
  8 24  1  0  0  0  0
  9 26  1  0  0  0  0
 10 27  1  0  0  0  0
 11 27  2  0  0  0  0
 12 28  1  0  0  0  0
 13 14  2  0  0  0  0
 13 29  1  0  0  0  0
 14 30  1  0  0  0  0
 15 23  1  0  0  0  0
 15 28  2  0  0  0  0
 16 25  1  0  0  0  0
 16 26  2  0  0  0  0
 17 30  2  0  0  0  0
 17 31  1  0  0  0  0
 18 32  1  0  0  0  0
 19 32  1  0  0  0  0
 19 33  2  0  0  0  0
 19 36  1  0  0  0  0
 20 22  2  0  0  0  0
 20 42  1  0  0  0  0
 21 23  2  0  0  0  0
 21 43  1  0  0  0  0
 22 52  1  0  0  0  0
 23 44  1  0  0  0  0
 24 25  2  0  0  0  0
 24 65  1  0  0  0  0
 25 75  1  0  0  0  0
 26 80  1  0  0  0  0
 27 93  1  0  0  0  0
 28 94  1  0  0  0  0
 29 31  2  0  0  0  0
 29 93  1  0  0  0  0
 30 95  1  0  0  0  0
 31 96  1  0  0  0  0
 32 72  2  0  0  0  0
 33 73  1  0  0  0  0
 33 78  1  0  0  0  0
 34 35  1  0  0  0  0
 34 74  1  0  0  0  0
 34 85  2  0  0  0  0
 35 75  1  0  0  0  0
 35 86  2  0  0  0  0
 36 79  1  0  0  0  0
 36 87  2  0  0  0  0
 37 53  1  0  0  0  0
 37 81  1  0  0  0  0
 37 88  2  0  0  0  0
 38 68  1  0  0  0  0
 38 76  1  0  0  0  0
 38 89  2  0  0  0  0
 39 66  1  0  0  0  0
 39 83  1  0  0  0  0
 39 90  2  0  0  0  0
 40 69  1  0  0  0  0
 40 82  1  0  0  0  0
 40 91  2  0  0  0  0
 41 77  1  0  0  0  0
 41 80  1  0  0  0  0
 41 92  2  0  0  0  0
 42 45  1  0  0  0  0
 43 53  1  0  0  0  0
 44 76  1  0  0  0  0
 45 47  1  0  0  0  0
 46 48  1  0  0  0  0
 46 49  1  0  0  0  0
 47 52  1  0  0  0  0
 48 54  1  0  0  0  0
 49 77  1  0  0  0  0
 50 54  1  0  0  0  0
 50 77  1  0  0  0  0
 51 55  1  0  0  0  0
 51 75  1  0  0  0  0
 52 81  1  0  0  0  0
 53 76  1  0  0  0  0
 54 73  1  0  0  0  0
 55 67  1  0  0  0  0
 55 74  1  0  0  0  0
 56 69  1  0  0  0  0
 57 70  1  0  0  0  0
 58 70  1  0  0  0  0
 59 70  1  0  0  0  0
 60 71  1  0  0  0  0
 61 71  1  0  0  0  0
 62 71  1  0  0  0  0
 63 83  1  0  0  0  0
 64 84  1  0  0  0  0
 65 83  1  0  0  0  0
 66 70  1  0  0  0  0
 67 94  1  0  0  0  0
 68 71  1  0  0  0  0
 68 82  1  0  0  0  0
 69 84  1  0  0  0  0
 72 73  1  0  0  0  0
M  CHG  1  84   1
M  ISO  4  41 100  67 101  80 100  94 101
M  END
> <Batch ID>
0064

> <Smiles>
CNC(C)C(=O)NC(C(=O)N1Cc2cc([101O:1][101CH2:1]C3CN(c4cc([100NH:0][100C:0](=O)N5CCCC(n6nc(-c7ccc(Oc8ccc(F)cc8F)cc7)c(C(N)=O)c6N)C5)ccc4CN(C)C(=O)CC(C)(C)C)C(=O)C(=O)N3)ccc2CC1C(=O)NC1CCCc2ccccc21)C(C)(C)C

> <Shape>
0.315

> <Color>
0.208

> <Negative vol penalty>
0.000

$$$$

  -OEChem-04042323153D

 85 93  0     1  0  0  0  0  0999 V2000
  -23.6839   -7.0257   23.6521 C   0  0  0  0  0  0  0  0  0  0  0  0
  -24.3389   -7.8335   22.7280 C   0  0  0  0  0  0  0  0  0  0  0  0
  -24.9103  -30.9273   21.0261 C   0  0  0  0  0  0  0  0  0  0  0  0
  -24.8815  -29.2375   22.7526 C   0  0  0  0  0  0  0  0  0  0  0  0
  -29.5258  -20.0393   19.1826 C   0  0  0  0  0  0  0  0  0  0  0  0
  -22.3003   -7.1162   23.7983 C   0  0  0  0  0  0  0  0  0  0  0  0
  -23.6104   -8.7315   21.9488 C   0  0  0  0  0  0  0  0  0  0  0  0
  -25.7939  -13.2932   21.6883 C   0  0  0  0  0  0  0  0  0  0  0  0
  -28.8946  -21.2487   18.8918 C   0  0  0  0  0  0  0  0  0  0  0  0
  -24.2727  -31.8192   21.8883 C   0  0  0  0  0  0  0  0  0  0  0  0
  -24.2440  -30.1295   23.6149 C   0  0  0  0  0  0  0  0  0  0  0  0
  -26.8776  -13.4319   20.8222 C   0  0  0  0  0  0  0  0  0  0  0  0
  -22.9769  -34.6573   23.7541 C   0  0  0  0  0  0  0  0  0  0  0  0
  -23.4664  -35.9619   23.8157 C   0  0  0  0  0  0  0  0  0  0  0  0
  -25.4278  -14.4411   19.1794 C   0  0  0  0  0  0  0  0  0  0  0  0
  -27.0683  -20.0480   17.8623 C   0  0  0  0  0  0  0  0  0  0  0  0
  -25.6121  -35.1225   24.5426 C   0  0  0  0  0  0  0  0  0  0  0  0
  -25.2147  -29.6364   21.4582 C   0  0  0  0  0  0  0  0  0  0  0  0
  -28.9283  -18.8342   18.8132 C   0  0  0  0  0  0  0  0  0  0  0  0
  -27.2592  -28.5286   20.4092 C   0  0  0  0  0  0  0  0  0  0  0  0
  -21.5557   -8.0227   23.0273 C   0  0  0  0  0  0  0  0  0  0  0  0
  -24.5148  -13.7182   21.3016 C   0  0  0  0  0  0  0  0  0  0  0  0
  -22.2154   -8.8333   22.0838 C   0  0  0  0  0  0  0  0  0  0  0  0
  -24.3300  -14.3091   20.0435 C   0  0  0  0  0  0  0  0  0  0  0  0
  -27.6659  -21.2530   18.2316 C   0  0  0  0  0  0  0  0  0  0  0  0
  -23.9396  -31.4203   23.1828 C   0  0  0  0  0  0  0  0  0  0  0  0
  -26.6941  -14.0033   19.5664 C   0  0  0  0  0  0  0  0  0  0  0  0
  -23.8049  -33.5852   24.0869 C   0  0  0  0  0  0  0  0  0  0  0  0
  -24.7840  -36.1945   24.2099 C   0  0  0  0  0  0  0  0  0  0  0  0
  -27.6995  -18.8386   18.1531 C   0  0  0  0  0  0  0  0  0  0  0  0
  -25.1225  -33.8178   24.4811 C   0  0  0  0  0  0  0  0  0  0  0  0
  -25.8728  -28.7144   20.5677 C   0  0  0  0  0  0  0  0  0  0  0  0
  -27.3672  -27.5486   19.4530 C   0  0  0  0  0  0  0  0  0  0  0  0
  -31.3559  -14.2885   16.5677 C   0  0  0  0  0  0  0  0  0  0  0  0
  -30.1487  -14.5899   17.0601 C   0  0  0  0  0  0  0  0  0  0  0  0
  -29.6056  -17.5487   19.1226 C   0  0  0  0  0  0  0  0  0  0  0  0
  -28.3517  -29.1833   21.0675 C   0  0  0  0  0  0  0  0  0  0  0  0
  -21.7116  -12.2847   20.8646 C   0  0  0  0  0  0  0  0  0  0  0  0
  -20.6638  -15.3248   20.4376 C   0  0  0  0  0  0  0  0  0  0  0  0
  -21.3960  -18.5507   19.5982 C   0  0  0  0  0  0  0  0  0  0  0  0
  -25.8039  -22.6629   17.2874 C   0  0  0  0  0  0  0  0  0  0  0  0
  -20.0563   -8.0512   23.1872 C   0  0  0  0  0  0  0  0  0  0  0  0
  -23.3613  -13.5860   22.2578 C   0  0  0  0  0  0  0  0  0  0  0  0
  -22.9808  -14.8000   19.5883 C   0  0  0  0  0  0  0  0  0  0  0  0
  -19.4034   -9.2945   22.5886 C   0  0  0  0  0  0  0  0  0  0  0  0
  -23.8712  -25.5202   16.4057 C   0  0  0  0  0  0  0  0  0  0  0  0
  -19.9542   -9.5670   21.1925 C   0  0  0  0  0  0  0  0  0  0  0  0
  -24.3337  -26.5907   17.3969 C   0  0  0  0  0  0  0  0  0  0  0  0
  -23.8169  -24.1362   17.0501 C   0  0  0  0  0  0  0  0  0  0  0  0
  -25.5159  -24.7851   18.7118 C   0  0  0  0  0  0  0  0  0  0  0  0
  -21.4630   -9.8373   21.2377 C   0  0  1  0  0  0  0  0  0  0  0  0
  -22.0044  -13.5838   21.5606 C   0  0  1  0  0  0  0  0  0  0  0  0
  -25.6487  -26.1854   18.0911 C   0  0  2  0  0  0  0  0  0  0  0  0
  -20.3253  -20.8009   19.3030 C   0  0  0  0  0  0  0  0  0  0  0  0
  -19.4826  -14.4110   17.7768 C   0  0  0  0  0  0  0  0  0  0  0  0
  -19.2845  -16.8182   17.1176 C   0  0  0  0  0  0  0  0  0  0  0  0
  -18.0218  -15.9590   19.0899 C   0  0  0  0  0  0  0  0  0  0  0  0
  -23.0774  -19.7572   21.7139 C   0  0  0  0  0  0  0  0  0  0  0  0
  -29.0370  -14.3199   19.3083 C   0  0  0  0  0  0  0  0  0  1  0  0
  -29.9259  -15.1910   18.4193 C   0  0  2  0  0  0  0  0  0  0  0  0
  -20.5276  -16.2524   19.2544 C   0  0  1  0  0  0  0  0  0  0  0  0
  -21.0463  -19.8691   20.2645 C   0  0  2  0  0  0  0  0  0  0  0  0
  -19.3543  -15.8492   18.3172 C   0  0  0  0  0  0  0  0  0  0  0  0
  -25.1517  -27.9166   19.7755 N   0  0  0  0  0  0  0  0  0  0  0  0
  -26.0886  -27.2200   19.1100 N   0  0  0  0  0  0  0  0  0  0  0  0
  -21.8830  -14.6429   20.5567 N   0  0  0  0  0  0  0  0  0  0  0  0
  -25.0983  -23.8186   17.6841 N   0  0  0  0  0  0  0  0  0  0  0  0
  -28.4300  -26.9445   18.8804 N   0  0  0  0  0  0  0  0  0  0  0  0
  -28.0632  -30.1664   22.0238 N   0  0  0  0  0  0  0  0  0  0  0  0
  -27.0248  -22.4817   17.9363 N   0  0  0  0  0  0  0  0  0  0  0  0
  -29.3607  -16.5065   18.2407 N   0  0  0  0  0  0  0  0  0  0  0  0
  -21.7215  -11.1841   21.7001 N   0  0  0  0  0  0  0  0  0  0  0  0
  -20.4184  -17.6000   19.8026 N   0  0  0  0  0  0  0  0  0  0  0  0
  -22.2818  -20.5515   20.7428 N   0  3  0  0  0  0  0  0  0  0  0  0
  -30.3111  -17.4682   20.1248 O   0  0  0  0  0  0  0  0  0  0  0  0
  -29.5486  -28.9164   20.8033 O   0  0  0  0  0  0  0  0  0  0  0  0
  -21.4915  -12.2814   19.6591 O   0  0  0  0  0  0  0  0  0  0  0  0
  -19.7257  -15.2150   21.2310 O   0  0  0  0  0  0  0  0  0  0  0  0
  -22.4311  -18.3822   18.9572 O   0  0  0  0  0  0  0  0  0  0  0  0
  -25.3706  -21.9054   16.4153 O   0  0  0  0  0  0  0  0  0  0  0  0
  -23.3176  -32.2905   24.0245 O   0  0  0  0  0  0  0  0  0  0  0  0
  -27.7500  -14.1392   18.7188 O   0  0  0  0  0  0  0  0  0  1  0  0
  -25.2545  -37.4474   24.2674 F   0  0  0  0  0  0  0  0  0  0  0  0
  -27.1161  -17.6864   17.7930 F   0  0  0  0  0  0  0  0  0  0  0  0
  -25.9231  -32.7918   24.8008 F   0  0  0  0  0  0  0  0  0  0  0  0
  1  2  1  0  0  0  0
  1  6  2  0  0  0  0
  2  7  2  0  0  0  0
  3 10  2  0  0  0  0
  3 18  1  0  0  0  0
  4 11  1  0  0  0  0
  4 18  2  0  0  0  0
  5  9  2  0  0  0  0
  5 19  1  0  0  0  0
  6 21  1  0  0  0  0
  7 23  1  0  0  0  0
  8 12  2  0  0  0  0
  8 22  1  0  0  0  0
  9 25  1  0  0  0  0
 10 26  1  0  0  0  0
 11 26  2  0  0  0  0
 12 27  1  0  0  0  0
 13 14  2  0  0  0  0
 13 28  1  0  0  0  0
 14 29  1  0  0  0  0
 15 24  1  0  0  0  0
 15 27  2  0  0  0  0
 16 25  2  0  0  0  0
 16 30  1  0  0  0  0
 17 29  2  0  0  0  0
 17 31  1  0  0  0  0
 18 32  1  0  0  0  0
 19 30  2  0  0  0  0
 19 36  1  0  0  0  0
 20 32  1  0  0  0  0
 20 33  2  0  0  0  0
 20 37  1  0  0  0  0
 21 23  2  0  0  0  0
 21 42  1  0  0  0  0
 22 24  2  0  0  0  0
 22 43  1  0  0  0  0
 23 51  1  0  0  0  0
 24 44  1  0  0  0  0
 25 70  1  0  0  0  0
 26 81  1  0  0  0  0
 27 82  1  0  0  0  0
 28 31  2  0  0  0  0
 28 81  1  0  0  0  0
 29 83  1  0  0  0  0
 30 84  1  0  0  0  0
 31 85  1  0  0  0  0
 32 64  2  0  0  0  0
 33 65  1  0  0  0  0
 33 68  1  0  0  0  0
 34 35  2  0  0  0  0
 35 60  1  0  0  0  0
 36 71  1  0  0  0  0
 36 75  2  0  0  0  0
 37 69  1  0  0  0  0
 37 76  2  0  0  0  0
 38 52  1  0  0  0  0
 38 72  1  0  0  0  0
 38 77  2  0  0  0  0
 39 61  1  0  0  0  0
 39 66  1  0  0  0  0
 39 78  2  0  0  0  0
 40 62  1  0  0  0  0
 40 73  1  0  0  0  0
 40 79  2  0  0  0  0
 41 67  1  0  0  0  0
 41 70  1  0  0  0  0
 41 80  2  0  0  0  0
 42 45  1  0  0  0  0
 43 52  1  0  0  0  0
 44 66  1  0  0  0  0
 45 47  1  0  0  0  0
 46 48  1  0  0  0  0
 46 49  1  0  0  0  0
 47 51  1  0  0  0  0
 48 53  1  0  0  0  0
 49 67  1  0  0  0  0
 50 53  1  0  0  0  0
 50 67  1  0  0  0  0
 51 72  1  0  0  0  0
 52 66  1  0  0  0  0
 53 65  1  0  0  0  0
 54 62  1  0  0  0  0
 55 63  1  0  0  0  0
 56 63  1  0  0  0  0
 57 63  1  0  0  0  0
 58 74  1  0  0  0  0
 59 60  1  0  0  0  0
 59 82  1  0  0  0  0
 60 71  1  0  0  0  0
 61 63  1  0  0  0  0
 61 73  1  0  0  0  0
 62 74  1  0  0  0  0
 64 65  1  0  0  0  0
M  CHG  1  74   1
M  ISO  4  41 100  59 101  70 100  82 101
M  END
> <Batch ID>
0064

> <Smiles>
C=CC(NC(=O)c1ccc([100NH:0][100C:0](=O)N2CCCC(n3nc(-c4ccc(Oc5ccc(F)cc5F)cc4)c(C(N)=O)c3N)C2)cc1F)[101CH2:1][101O:1]c1ccc2c(c1)CN(C(=O)C(NC(=O)C(C)NC)C(C)(C)C)C(C(=O)NC1CCCc3ccccc31)C2

> <Shape>
0.245

> <Color>
0.061

> <Negative vol penalty>
0.000

$$$$

  -OEChem-04042323153D

 83 91  0     1  0  0  0  0  0999 V2000
  -32.8500  -10.5844   23.3744 C   0  0  0  0  0  0  0  0  0  0  0  0
  -32.5185  -11.8728   23.7814 C   0  0  0  0  0  0  0  0  0  0  0  0
  -32.0574  -18.7691   21.5279 C   0  0  0  0  0  0  0  0  0  0  0  0
  -23.0002   -9.8942   19.9810 C   0  0  0  0  0  0  0  0  0  0  0  0
  -23.7253   -9.9446   22.2850 C   0  0  0  0  0  0  0  0  0  0  0  0
  -31.9600   -9.5341   23.5954 C   0  0  0  0  0  0  0  0  0  0  0  0
  -31.2963  -12.1118   24.4086 C   0  0  0  0  0  0  0  0  0  0  0  0
  -31.7491  -15.1021   28.4704 C   0  0  0  0  0  0  0  0  0  0  0  0
  -31.6455  -19.3363   22.7338 C   0  0  0  0  0  0  0  0  0  0  0  0
  -31.5326  -17.5433   21.1185 C   0  0  0  0  0  0  0  0  0  0  0  0
  -22.2335   -8.7599   20.2471 C   0  0  0  0  0  0  0  0  0  0  0  0
  -22.9585   -8.8103   22.5512 C   0  0  0  0  0  0  0  0  0  0  0  0
  -31.8908  -16.4700   28.2414 C   0  0  0  0  0  0  0  0  0  0  0  0
  -23.2021   -5.4714   22.0787 C   0  0  0  0  0  0  0  0  0  0  0  0
  -23.7894   -4.4539   22.8306 C   0  0  0  0  0  0  0  0  0  0  0  0
  -29.5496  -16.7880   28.7277 C   0  0  0  0  0  0  0  0  0  0  0  0
  -22.0655   -4.6969   24.5058 C   0  0  0  0  0  0  0  0  0  0  0  0
  -23.7462  -10.4866   20.9999 C   0  0  0  0  0  0  0  0  0  0  0  0
  -24.1321  -13.0021   20.8244 C   0  0  0  0  0  0  0  0  0  0  0  0
  -30.7304   -9.7587   24.2343 C   0  0  0  0  0  0  0  0  0  0  0  0
  -30.5019  -14.5644   28.8198 C   0  0  0  0  0  0  0  0  0  0  0  0
  -30.3884  -11.0638   24.6371 C   0  0  0  0  0  0  0  0  0  0  0  0
  -29.3951  -15.4133   28.9631 C   0  0  0  0  0  0  0  0  0  0  0  0
  -30.1840  -17.4518   23.1210 C   0  0  0  0  0  0  0  0  0  0  0  0
  -30.7088  -18.6777   23.5303 C   0  0  0  0  0  0  0  0  0  0  0  0
  -30.5959  -16.8846   21.9150 C   0  0  0  0  0  0  0  0  0  0  0  0
  -22.2126   -8.2179   21.5322 C   0  0  0  0  0  0  0  0  0  0  0  0
  -30.7904  -17.3128   28.3672 C   0  0  0  0  0  0  0  0  0  0  0  0
  -22.0466   -6.1017   22.5403 C   0  0  0  0  0  0  0  0  0  0  0  0
  -23.2211   -4.0666   24.0442 C   0  0  0  0  0  0  0  0  0  0  0  0
  -21.4783   -5.7144   23.7539 C   0  0  0  0  0  0  0  0  0  0  0  0
  -24.5390  -11.6581   20.7255 C   0  0  0  0  0  0  0  0  0  0  0  0
  -25.2420  -13.7246   20.4602 C   0  0  0  0  0  0  0  0  0  0  0  0
  -22.8642  -13.5488   21.2110 C   0  0  0  0  0  0  0  0  0  0  0  0
  -28.5177  -12.4600   27.5014 C   0  0  0  0  0  0  0  0  0  0  0  0
  -26.8879  -12.8426   30.2798 C   0  0  0  0  0  0  0  0  0  0  0  0
  -31.0564  -20.1026   25.5780 C   0  0  0  0  0  0  0  0  0  0  0  0
  -26.1899  -14.8060   32.9825 C   0  0  0  0  0  0  0  0  0  0  0  0
  -30.7217  -14.6844   20.6945 C   0  0  0  0  0  0  0  0  0  0  0  0
  -29.7807   -8.6002   24.4088 C   0  0  0  0  0  0  0  0  0  0  0  0
  -30.3714  -13.0904   29.0896 C   0  0  0  0  0  0  0  0  0  0  0  0
  -28.0390  -14.8887   29.3558 C   0  0  0  0  0  0  0  0  0  0  0  0
  -28.6667   -8.8722   25.4164 C   0  0  0  0  0  0  0  0  0  0  0  0
  -29.6030  -12.2322   18.3681 C   0  0  0  0  0  0  0  0  0  0  0  0
  -28.0453  -10.2430   25.1682 C   0  0  0  0  0  0  0  0  0  0  0  0
  -28.1523  -11.9748   18.7821 C   0  0  0  0  0  0  0  0  0  0  0  0
  -30.5035  -12.4752   19.5779 C   0  0  0  0  0  0  0  0  0  0  0  0
  -28.5883  -13.2642   20.9115 C   0  0  0  0  0  0  0  0  0  0  0  0
  -29.0827  -11.3587   25.3429 C   0  0  1  0  0  0  0  0  0  0  0  0
  -28.9420  -12.5795   28.9378 C   0  0  1  0  0  0  0  0  0  0  0  0
  -27.6306  -13.0783   19.7233 C   0  0  2  0  0  0  0  0  0  0  0  0
  -29.1790  -16.7442   23.9766 C   0  0  0  0  0  0  0  0  0  0  0  0
  -24.7903  -14.8665   35.0645 C   0  0  0  0  0  0  0  0  0  0  0  0
  -24.4202  -13.4735   28.5998 C   0  0  0  0  0  0  0  0  0  0  0  0
  -23.3538  -14.4321   30.6521 C   0  0  0  0  0  0  0  0  0  0  0  0
  -23.9851  -12.0196   30.5876 C   0  0  0  0  0  0  0  0  0  0  0  0
  -28.5784  -14.9646   34.7228 C   0  0  0  0  0  0  0  0  0  0  0  0
  -30.2399  -20.5205   26.7956 C   0  0  0  0  0  0  0  0  0  0  0  0
  -29.7840  -19.3420   27.6425 C   0  0  0  0  0  0  0  0  0  1  0  0
  -25.7997  -13.7714   30.7617 C   0  0  1  0  0  0  0  0  0  0  0  0
  -26.1386  -14.4947   34.4674 C   0  0  2  0  0  0  0  0  0  0  0  0
  -24.4147  -13.4341   30.1410 C   0  0  0  0  0  0  0  0  0  0  0  0
  -25.8082  -11.5314   20.3294 N   0  0  0  0  0  0  0  0  0  0  0  0
  -26.2085  -12.8051   20.1760 N   0  0  0  0  0  0  0  0  0  0  0  0
  -27.9608  -13.4394   29.6027 N   0  0  0  0  0  0  0  0  0  0  0  0
  -29.9486  -13.5361   20.4214 N   0  0  0  0  0  0  0  0  0  0  0  0
  -25.4758  -15.0502   20.3583 N   0  0  0  0  0  0  0  0  0  0  0  0
  -21.8322  -12.6648   21.5543 N   0  0  0  0  0  0  0  0  0  0  0  0
  -30.3065  -19.2710   24.7505 N   0  0  0  0  0  0  0  0  0  0  0  0
  -30.0776  -15.6396   21.4802 N   0  0  0  0  0  0  0  0  0  0  0  0
  -29.3137  -11.6186   26.7478 N   0  0  0  0  0  0  0  0  0  0  0  0
  -25.8310  -13.7152   32.2192 N   0  0  0  0  0  0  0  0  0  0  0  0
  -27.1984  -15.2513   35.1922 N   0  3  0  0  0  0  0  0  0  0  0  0
  -22.6478  -14.7841   21.2349 O   0  0  0  0  0  0  0  0  0  0  0  0
  -27.5397  -13.0838   27.1064 O   0  0  0  0  0  0  0  0  0  0  0  0
  -26.7929  -11.6330   30.5023 O   0  0  0  0  0  0  0  0  0  0  0  0
  -32.2110  -20.4787   25.4058 O   0  0  0  0  0  0  0  0  0  0  0  0
  -26.5122  -15.9079   32.5437 O   0  0  0  0  0  0  0  0  0  0  0  0
  -31.8604  -14.8232   20.2405 O   0  0  0  0  0  0  0  0  0  0  0  0
  -21.4643   -7.1111   21.7923 O   0  0  0  0  0  0  0  0  0  0  0  0
  -30.9259  -18.6483   28.1435 O   0  0  0  0  0  0  0  0  0  1  0  0
  -23.7844   -3.0885   24.7654 F   0  0  0  0  0  0  0  0  0  0  0  0
  -20.3675   -6.3154   24.2020 F   0  0  0  0  0  0  0  0  0  0  0  0
  1  2  1  0  0  0  0
  1  6  2  0  0  0  0
  2  7  2  0  0  0  0
  3  9  2  0  0  0  0
  3 10  1  0  0  0  0
  4 11  2  0  0  0  0
  4 18  1  0  0  0  0
  5 12  1  0  0  0  0
  5 18  2  0  0  0  0
  6 20  1  0  0  0  0
  7 22  1  0  0  0  0
  8 13  2  0  0  0  0
  8 21  1  0  0  0  0
  9 25  1  0  0  0  0
 10 26  2  0  0  0  0
 11 27  1  0  0  0  0
 12 27  2  0  0  0  0
 13 28  1  0  0  0  0
 14 15  2  0  0  0  0
 14 29  1  0  0  0  0
 15 30  1  0  0  0  0
 16 23  1  0  0  0  0
 16 28  2  0  0  0  0
 17 30  2  0  0  0  0
 17 31  1  0  0  0  0
 18 32  1  0  0  0  0
 19 32  1  0  0  0  0
 19 33  2  0  0  0  0
 19 34  1  0  0  0  0
 20 22  2  0  0  0  0
 20 40  1  0  0  0  0
 21 23  2  0  0  0  0
 21 41  1  0  0  0  0
 22 49  1  0  0  0  0
 23 42  1  0  0  0  0
 24 25  2  0  0  0  0
 24 26  1  0  0  0  0
 24 52  1  0  0  0  0
 25 69  1  0  0  0  0
 26 70  1  0  0  0  0
 27 80  1  0  0  0  0
 28 81  1  0  0  0  0
 29 31  2  0  0  0  0
 29 80  1  0  0  0  0
 30 82  1  0  0  0  0
 31 83  1  0  0  0  0
 32 63  2  0  0  0  0
 33 64  1  0  0  0  0
 33 67  1  0  0  0  0
 34 68  1  0  0  0  0
 34 74  2  0  0  0  0
 35 50  1  0  0  0  0
 35 71  1  0  0  0  0
 35 75  2  0  0  0  0
 36 60  1  0  0  0  0
 36 65  1  0  0  0  0
 36 76  2  0  0  0  0
 37 58  1  0  0  0  0
 37 69  1  0  0  0  0
 37 77  2  0  0  0  0
 38 61  1  0  0  0  0
 38 72  1  0  0  0  0
 38 78  2  0  0  0  0
 39 66  1  0  0  0  0
 39 70  1  0  0  0  0
 39 79  2  0  0  0  0
 40 43  1  0  0  0  0
 41 50  1  0  0  0  0
 42 65  1  0  0  0  0
 43 45  1  0  0  0  0
 44 46  1  0  0  0  0
 44 47  1  0  0  0  0
 45 49  1  0  0  0  0
 46 51  1  0  0  0  0
 47 66  1  0  0  0  0
 48 51  1  0  0  0  0
 48 66  1  0  0  0  0
 49 71  1  0  0  0  0
 50 65  1  0  0  0  0
 51 64  1  0  0  0  0
 53 61  1  0  0  0  0
 54 62  1  0  0  0  0
 55 62  1  0  0  0  0
 56 62  1  0  0  0  0
 57 73  1  0  0  0  0
 58 59  1  0  0  0  0
 59 81  1  0  0  0  0
 60 62  1  0  0  0  0
 60 72  1  0  0  0  0
 61 73  1  0  0  0  0
 63 64  1  0  0  0  0
M  CHG  1  73   1
M  ISO  4  39 100  59 101  70 100  81 101
M  END
> <Batch ID>
0064

> <Smiles>
CNC(C)C(=O)NC(C(=O)N1Cc2cc([101O:1][101CH2:1]CC(=O)Nc3cccc([100NH:0][100C:0](=O)N4CCCC(n5nc(-c6ccc(Oc7ccc(F)cc7F)cc6)c(C(N)=O)c5N)C4)c3C)ccc2CC1C(=O)NC1CCCc2ccccc21)C(C)(C)C

> <Shape>
0.176

> <Color>
0.198

> <Negative vol penalty>
0.000

$$$$

  -OEChem-04042323153D

 92101  0     1  0  0  0  0  0999 V2000
  -31.2750  -32.4244   19.3772 C   0  0  0  0  0  0  0  0  0  0  0  0
  -31.1752  -31.0487   19.1957 C   0  0  0  0  0  0  0  0  0  0  0  0
  -22.8117  -10.1029   20.2445 C   0  0  0  0  0  0  0  0  0  0  0  0
  -24.2623   -9.6538   22.1236 C   0  0  0  0  0  0  0  0  0  0  0  0
  -32.5294  -33.0311   19.4232 C   0  0  0  0  0  0  0  0  0  0  0  0
  -32.3299  -30.2791   19.0590 C   0  0  0  0  0  0  0  0  0  0  0  0
  -32.1728  -26.0338   21.8153 C   0  0  0  0  0  0  0  0  0  0  0  0
  -34.0330  -17.0652   20.9768 C   0  0  0  0  0  0  0  0  0  0  0  0
  -22.0908   -8.9419   20.5234 C   0  0  0  0  0  0  0  0  0  0  0  0
  -23.5414   -8.4927   22.4026 C   0  0  0  0  0  0  0  0  0  0  0  0
  -31.4168  -24.9757   21.3125 C   0  0  0  0  0  0  0  0  0  0  0  0
  -20.6192   -7.6741   23.8896 C   0  0  0  0  0  0  0  0  0  0  0  0
  -34.6439  -16.0138   21.6601 C   0  0  0  0  0  0  0  0  0  0  0  0
  -20.2757   -7.4301   25.2193 C   0  0  0  0  0  0  0  0  0  0  0  0
  -33.4323  -23.9315   20.4960 C   0  0  0  0  0  0  0  0  0  0  0  0
  -31.9646  -16.6221   22.1442 C   0  0  0  0  0  0  0  0  0  0  0  0
  -21.5166   -5.3580   25.1598 C   0  0  0  0  0  0  0  0  0  0  0  0
  -23.8975  -10.4589   21.0445 C   0  0  0  0  0  0  0  0  0  0  0  0
  -24.1531  -12.9774   20.7289 C   0  0  0  0  0  0  0  0  0  0  0  0
  -33.7004  -32.2673   19.2967 C   0  0  0  0  0  0  0  0  0  0  0  0
  -33.5654  -26.0540   21.6524 C   0  0  0  0  0  0  0  0  0  0  0  0
  -33.6012  -30.8764   19.1020 C   0  0  0  0  0  0  0  0  0  0  0  0
  -34.2039  -24.9897   21.0000 C   0  0  0  0  0  0  0  0  0  0  0  0
  -32.5756  -15.5706   22.8274 C   0  0  0  0  0  0  0  0  0  0  0  0
  -32.6933  -17.3694   21.2189 C   0  0  0  0  0  0  0  0  0  0  0  0
  -22.4556   -8.1368   21.6025 C   0  0  0  0  0  0  0  0  0  0  0  0
  -32.0462  -23.9258   20.6502 C   0  0  0  0  0  0  0  0  0  0  0  0
  -21.4114   -6.7599   23.1950 C   0  0  0  0  0  0  0  0  0  0  0  0
  -20.7244   -6.2721   25.8544 C   0  0  0  0  0  0  0  0  0  0  0  0
  -33.9152  -15.2665   22.5853 C   0  0  0  0  0  0  0  0  0  0  0  0
  -21.8601   -5.6019   23.8301 C   0  0  0  0  0  0  0  0  0  0  0  0
  -24.6429  -11.6578   20.7565 C   0  0  0  0  0  0  0  0  0  0  0  0
  -25.2474  -13.7432   20.4086 C   0  0  0  0  0  0  0  0  0  0  0  0
  -30.3122  -20.2186   20.2407 C   0  0  0  0  0  0  0  0  0  0  0  0
  -31.0177  -19.1933   21.0965 C   0  0  0  0  0  0  0  0  0  0  0  0
  -22.8275  -13.4671   20.9713 C   0  0  0  0  0  0  0  0  0  0  0  0
  -35.6246  -27.9809   20.1860 C   0  0  0  0  0  0  0  0  0  0  0  0
  -37.8263  -26.0620   21.5976 C   0  0  0  0  0  0  0  0  0  0  0  0
  -38.2420  -22.5286   22.1972 C   0  0  0  0  0  0  0  0  0  0  0  0
  -31.1390  -12.9242   21.0938 C   0  0  0  0  0  0  0  0  0  0  0  0
  -35.0327  -32.9741   19.3055 C   0  0  0  0  0  0  0  0  0  0  0  0
  -34.3694  -27.1894   22.2241 C   0  0  0  0  0  0  0  0  0  0  0  0
  -35.6985  -24.9538   20.8167 C   0  0  0  0  0  0  0  0  0  0  0  0
  -36.2175  -32.0376   19.5276 C   0  0  0  0  0  0  0  0  0  0  0  0
  -29.4024  -13.5334   18.0458 C   0  0  0  0  0  0  0  0  0  0  0  0
  -36.0965  -30.8035   18.6393 C   0  0  0  0  0  0  0  0  0  0  0  0
  -27.9415  -13.2409   18.3924 C   0  0  0  0  0  0  0  0  0  0  0  0
  -31.6911  -19.6092   18.3143 C   0  0  0  0  0  0  0  0  0  0  0  0
  -30.3550  -12.5837   18.7687 C   0  0  0  0  0  0  0  0  0  0  0  0
  -32.6488  -18.8592   19.2236 C   0  0  0  0  0  0  0  0  0  0  0  0
  -28.7193  -12.2339   20.5787 C   0  0  0  0  0  0  0  0  0  0  0  0
  -34.8314  -30.0043   18.9746 C   0  0  1  0  0  0  0  0  0  0  0  0
  -35.7274  -27.3589   21.5499 C   0  0  1  0  0  0  0  0  0  0  0  0
  -27.7238  -13.2021   19.9170 C   0  0  2  0  0  0  0  0  0  0  0  0
  -31.0213  -20.7814   19.0277 C   0  0  1  0  0  0  0  0  0  0  0  0
  -30.0027  -21.4274   18.0747 C   0  0  0  0  0  0  0  0  0  0  0  0
  -39.4997  -21.3163   23.9989 C   0  0  0  0  0  0  0  0  0  0  0  0
  -30.2998  -15.2096   24.0052 C   0  0  0  0  0  0  0  0  0  0  0  0
  -32.4287  -14.9004   25.2413 C   0  0  0  0  0  0  0  0  0  0  0  0
  -40.1067  -26.0133   19.5709 C   0  0  0  0  0  0  0  0  0  0  0  0
  -40.6635  -23.7026   20.3576 C   0  0  0  0  0  0  0  0  0  0  0  0
  -40.8080  -25.6256   21.9400 C   0  0  0  0  0  0  0  0  0  0  0  0
  -35.8418  -20.9957   23.0023 C   0  0  0  0  0  0  0  0  0  0  0  0
  -32.0206  -21.8498   19.4902 C   0  0  0  0  0  0  0  0  0  1  0  0
  -31.7706  -13.2409   23.4728 C   0  0  0  0  0  0  0  0  0  0  0  0
  -38.5365  -24.7866   21.2129 C   0  0  1  0  0  0  0  0  0  0  0  0
  -38.1406  -21.8154   23.5335 C   0  0  2  0  0  0  0  0  0  0  0  0
  -31.7948  -14.7736   23.8174 C   0  0  0  0  0  0  0  0  0  0  0  0
  -40.0027  -25.0381   20.7606 C   0  0  0  0  0  0  0  0  0  0  0  0
  -25.9468  -11.5859   20.4759 N   0  0  0  0  0  0  0  0  0  0  0  0
  -26.2856  -12.8698   20.2689 N   0  0  0  0  0  0  0  0  0  0  0  0
  -32.0598  -18.4616   20.5099 N   0  0  0  0  0  0  0  0  0  0  0  0
  -36.4403  -26.0901   21.3879 N   0  0  0  0  0  0  0  0  0  0  0  0
  -30.0974  -12.5951   20.2107 N   0  0  0  0  0  0  0  0  0  0  0  0
  -25.4131  -15.0717   20.2355 N   0  0  0  0  0  0  0  0  0  0  0  0
  -21.8218  -12.5439   21.2884 N   0  0  0  0  0  0  0  0  0  0  0  0
  -35.0288  -29.2277   20.1797 N   0  0  0  0  0  0  0  0  0  0  0  0
  -38.4094  -23.8881   22.3552 N   0  0  0  0  0  0  0  0  0  0  0  0
  -30.8082  -12.9175   22.4433 N   0  0  0  0  0  0  0  0  0  0  0  0
  -37.2215  -20.6470   23.4286 N   0  3  0  0  0  0  0  0  0  0  0  0
  -29.1990  -20.5740   20.6117 O   0  0  0  0  0  0  0  0  0  0  0  0
  -30.5931  -19.1114   22.2450 O   0  0  0  0  0  0  0  0  0  0  0  0
  -22.5398  -14.6855   20.8924 O   0  0  0  0  0  0  0  0  0  0  0  0
  -36.0553  -27.3752   19.2117 O   0  0  0  0  0  0  0  0  0  0  0  0
  -38.4762  -26.9962   22.0736 O   0  0  0  0  0  0  0  0  0  0  0  0
  -38.1826  -21.9382   21.1209 O   0  0  0  0  0  0  0  0  0  0  0  0
  -32.2779  -13.2086   20.7078 O   0  0  0  0  0  0  0  0  0  0  0  0
  -21.7522   -7.0039   21.8751 O   0  0  0  0  0  0  0  0  0  0  0  0
  -31.3106  -22.8922   20.1578 O   0  0  0  0  0  0  0  0  0  1  0  0
  -20.3957   -6.0388   27.1318 F   0  0  0  0  0  0  0  0  0  0  0  0
  -34.5106  -14.2573   23.2360 F   0  0  0  0  0  0  0  0  0  0  0  0
  -22.6223   -4.7206   23.1682 F   0  0  0  0  0  0  0  0  0  0  0  0
  1  2  1  0  0  0  0
  1  5  2  0  0  0  0
  2  6  2  0  0  0  0
  3  9  2  0  0  0  0
  3 18  1  0  0  0  0
  4 10  1  0  0  0  0
  4 18  2  0  0  0  0
  5 20  1  0  0  0  0
  6 22  1  0  0  0  0
  7 11  2  0  0  0  0
  7 21  1  0  0  0  0
  8 13  2  0  0  0  0
  8 25  1  0  0  0  0
  9 26  1  0  0  0  0
 10 26  2  0  0  0  0
 11 27  1  0  0  0  0
 12 14  2  0  0  0  0
 12 28  1  0  0  0  0
 13 30  1  0  0  0  0
 14 29  1  0  0  0  0
 15 23  1  0  0  0  0
 15 27  2  0  0  0  0
 16 24  1  0  0  0  0
 16 25  2  0  0  0  0
 17 29  2  0  0  0  0
 17 31  1  0  0  0  0
 18 32  1  0  0  0  0
 19 32  1  0  0  0  0
 19 33  2  0  0  0  0
 19 36  1  0  0  0  0
 20 22  2  0  0  0  0
 20 41  1  0  0  0  0
 21 23  2  0  0  0  0
 21 42  1  0  0  0  0
 22 52  1  0  0  0  0
 23 43  1  0  0  0  0
 24 30  2  0  0  0  0
 24 68  1  0  0  0  0
 25 72  1  0  0  0  0
 26 88  1  0  0  0  0
 27 89  1  0  0  0  0
 28 31  2  0  0  0  0
 28 88  1  0  0  0  0
 29 90  1  0  0  0  0
 30 91  1  0  0  0  0
 31 92  1  0  0  0  0
 32 70  2  0  0  0  0
 33 71  1  0  0  0  0
 33 75  1  0  0  0  0
 34 35  1  0  0  0  0
 34 55  1  0  0  0  0
 34 81  2  0  0  0  0
 35 72  1  0  0  0  0
 35 82  2  0  0  0  0
 36 76  1  0  0  0  0
 36 83  2  0  0  0  0
 37 53  1  0  0  0  0
 37 77  1  0  0  0  0
 37 84  2  0  0  0  0
 38 66  1  0  0  0  0
 38 73  1  0  0  0  0
 38 85  2  0  0  0  0
 39 67  1  0  0  0  0
 39 78  1  0  0  0  0
 39 86  2  0  0  0  0
 40 74  1  0  0  0  0
 40 79  1  0  0  0  0
 40 87  2  0  0  0  0
 41 44  1  0  0  0  0
 42 53  1  0  0  0  0
 43 73  1  0  0  0  0
 44 46  1  0  0  0  0
 45 47  1  0  0  0  0
 45 49  1  0  0  0  0
 46 52  1  0  0  0  0
 47 54  1  0  0  0  0
 48 50  1  0  0  0  0
 48 55  1  0  0  0  0
 49 74  1  0  0  0  0
 50 72  1  0  0  0  0
 51 54  1  0  0  0  0
 51 74  1  0  0  0  0
 52 77  1  0  0  0  0
 53 73  1  0  0  0  0
 54 71  1  0  0  0  0
 55 56  1  0  0  0  0
 55 64  1  0  0  0  0
 57 67  1  0  0  0  0
 58 68  1  0  0  0  0
 59 68  1  0  0  0  0
 60 69  1  0  0  0  0
 61 69  1  0  0  0  0
 62 69  1  0  0  0  0
 63 80  1  0  0  0  0
 64 89  1  0  0  0  0
 65 68  1  0  0  0  0
 65 79  1  0  0  0  0
 66 69  1  0  0  0  0
 66 78  1  0  0  0  0
 67 80  1  0  0  0  0
 70 71  1  0  0  0  0
M  CHG  1  80   1
M  ISO  4  40 100  64 101  79 100  89 101
M  END
> <Batch ID>
0064

> <Smiles>
CNC(C)C(=O)NC(C(=O)N1Cc2cc([101O:1][101CH2:1]C3(C)CCN(c4ccc(F)c(C(C)(C)C[100NH:0][100C:0](=O)N5CCCC(n6nc(-c7ccc(Oc8ccc(F)cc8F)cc7)c(C(N)=O)c6N)C5)c4)C(=O)C3=O)ccc2CC1C(=O)NC1CCCc2ccccc21)C(C)(C)C

> <Shape>
0.183

> <Color>
0.178

> <Negative vol penalty>
0.000

$$$$

  -OEChem-04042323153D

 82 90  0     1  0  0  0  0  0999 V2000
  -18.4661  -31.6189   22.9097 C   0  0  0  0  0  0  0  0  0  0  0  0
  -19.8544  -31.5393   22.8695 C   0  0  0  0  0  0  0  0  0  0  0  0
  -30.4729  -22.9162   17.1667 C   0  0  0  0  0  0  0  0  0  0  0  0
  -28.0160  -12.6991   22.4229 C   0  0  0  0  0  0  0  0  0  0  0  0
  -26.8072  -12.9677   20.3484 C   0  0  0  0  0  0  0  0  0  0  0  0
  -17.6998  -30.4567   22.8330 C   0  0  0  0  0  0  0  0  0  0  0  0
  -20.4773  -30.2971   22.7535 C   0  0  0  0  0  0  0  0  0  0  0  0
  -25.6617  -29.0451   19.7435 C   0  0  0  0  0  0  0  0  0  0  0  0
  -30.7116  -24.1213   17.8272 C   0  0  0  0  0  0  0  0  0  0  0  0
  -29.5335  -22.0177   17.6726 C   0  0  0  0  0  0  0  0  0  0  0  0
  -27.4894  -11.4151   22.5635 C   0  0  0  0  0  0  0  0  0  0  0  0
  -26.2806  -11.6837   20.4890 C   0  0  0  0  0  0  0  0  0  0  0  0
  -26.9808  -28.8957   20.1693 C   0  0  0  0  0  0  0  0  0  0  0  0
  -23.8173  -10.1804   22.2505 C   0  0  0  0  0  0  0  0  0  0  0  0
  -22.4548  -10.0084   22.0064 C   0  0  0  0  0  0  0  0  0  0  0  0
  -26.6729  -26.5050   20.2647 C   0  0  0  0  0  0  0  0  0  0  0  0
  -29.0716  -23.5294   19.4997 C   0  0  0  0  0  0  0  0  0  0  0  0
  -22.9688   -8.4421   20.2402 C   0  0  0  0  0  0  0  0  0  0  0  0
  -27.6748  -13.4754   21.3154 C   0  0  0  0  0  0  0  0  0  0  0  0
  -29.4131  -15.1647   20.5202 C   0  0  0  0  0  0  0  0  0  0  0  0
  -18.3134  -29.2004   22.7064 C   0  0  0  0  0  0  0  0  0  0  0  0
  -24.8336  -27.9246   19.5853 C   0  0  0  0  0  0  0  0  0  0  0  0
  -19.7185  -29.1169   22.6764 C   0  0  0  0  0  0  0  0  0  0  0  0
  -25.3444  -26.6427   19.8343 C   0  0  0  0  0  0  0  0  0  0  0  0
  -30.0109  -24.4279   18.9938 C   0  0  0  0  0  0  0  0  0  0  0  0
  -28.8329  -22.3243   18.8391 C   0  0  0  0  0  0  0  0  0  0  0  0
  -26.6218  -10.9074   21.5966 C   0  0  0  0  0  0  0  0  0  0  0  0
  -27.4858  -27.6257   20.4327 C   0  0  0  0  0  0  0  0  0  0  0  0
  -24.7556   -9.4833   21.4893 C   0  0  0  0  0  0  0  0  0  0  0  0
  -22.0305   -9.1393   21.0013 C   0  0  0  0  0  0  0  0  0  0  0  0
  -24.3313   -8.6142   20.4842 C   0  0  0  0  0  0  0  0  0  0  0  0
  -28.2180  -14.8020   21.1698 C   0  0  0  0  0  0  0  0  0  0  0  0
  -29.4782  -16.5297   20.6581 C   0  0  0  0  0  0  0  0  0  0  0  0
  -30.3781  -14.3414   19.8519 C   0  0  0  0  0  0  0  0  0  0  0  0
  -22.1242  -26.9316   20.9184 C   0  0  0  0  0  0  0  0  0  0  0  0
  -22.3259  -24.6036   18.6685 C   0  0  0  0  0  0  0  0  0  0  0  0
  -31.1474  -26.6547   19.3003 C   0  0  0  0  0  0  0  0  0  0  0  0
  -24.2899  -22.7721   16.5625 C   0  0  0  0  0  0  0  0  0  0  0  0
  -27.0974  -21.5606   20.4978 C   0  0  0  0  0  0  0  0  0  0  0  0
  -17.4445  -27.9681   22.6745 C   0  0  0  0  0  0  0  0  0  0  0  0
  -23.4209  -28.1005   19.0996 C   0  0  0  0  0  0  0  0  0  0  0  0
  -24.5025  -25.4060   19.6604 C   0  0  0  0  0  0  0  0  0  0  0  0
  -18.1724  -26.7224   22.1758 C   0  0  0  0  0  0  0  0  0  0  0  0
  -26.7303  -19.6878   23.5037 C   0  0  0  0  0  0  0  0  0  0  0  0
  -19.5322  -26.5911   22.8543 C   0  0  0  0  0  0  0  0  0  0  0  0
  -27.1830  -18.2796   23.1110 C   0  0  0  0  0  0  0  0  0  0  0  0
  -25.9720  -20.3765   22.3703 C   0  0  0  0  0  0  0  0  0  0  0  0
  -27.1264  -18.9957   20.6880 C   0  0  0  0  0  0  0  0  0  0  0  0
  -20.4304  -27.7899   22.5263 C   0  0  1  0  0  0  0  0  0  0  0  0
  -22.5127  -26.9311   19.4669 C   0  0  1  0  0  0  0  0  0  0  0  0
  -27.9509  -18.2866   21.7747 C   0  0  2  0  0  0  0  0  0  0  0  0
  -24.1749  -20.9175   14.8760 C   0  0  0  0  0  0  0  0  0  0  0  0
  -22.0473  -22.5707   20.9267 C   0  0  0  0  0  0  0  0  0  0  0  0
  -22.8794  -20.8114   19.3518 C   0  0  0  0  0  0  0  0  0  0  0  0
  -20.7523  -22.0180   18.8598 C   0  0  0  0  0  0  0  0  0  0  0  0
  -25.3048  -24.5192   14.4000 C   0  0  0  0  0  0  0  0  0  0  0  0
  -31.0931  -27.8045   20.2997 C   0  0  0  0  0  0  0  0  0  0  0  0
  -29.7175  -28.4466   20.3976 C   0  0  0  0  0  0  0  0  0  1  0  0
  -22.9545  -23.2328   18.6019 C   0  0  1  0  0  0  0  0  0  0  0  0
  -24.1383  -22.4222   15.0932 C   0  0  2  0  0  0  0  0  0  0  0  0
  -22.1739  -22.1815   19.4403 C   0  0  0  0  0  0  0  0  0  0  0  0
  -27.5706  -15.8518   21.6824 N   0  0  0  0  0  0  0  0  0  0  0  0
  -28.3618  -16.8877   21.3550 N   0  0  0  0  0  0  0  0  0  0  0  0
  -23.1258  -25.6305   19.1895 N   0  0  0  0  0  0  0  0  0  0  0  0
  -26.7622  -20.3485   21.1376 N   0  0  0  0  0  0  0  0  0  0  0  0
  -30.3809  -17.4468   20.2499 N   0  0  0  0  0  0  0  0  0  0  0  0
  -30.1567  -12.9584   19.8026 N   0  0  0  0  0  0  0  0  0  0  0  0
  -30.2532  -25.6510   19.6631 N   0  0  0  0  0  0  0  0  0  0  0  0
  -27.8787  -21.4111   19.3525 N   0  0  0  0  0  0  0  0  0  0  0  0
  -20.9821  -27.6587   21.1948 N   0  0  0  0  0  0  0  0  0  0  0  0
  -23.0666  -22.9034   17.1851 N   0  0  0  0  0  0  0  0  0  0  0  0
  -25.2376  -23.0387   14.2978 N   0  3  0  0  0  0  0  0  0  0  0  0
  -31.4144  -14.8163   19.3284 O   0  0  0  0  0  0  0  0  0  0  0  0
  -22.8090  -26.3166   21.7274 O   0  0  0  0  0  0  0  0  0  0  0  0
  -21.1702  -24.7591   18.2662 O   0  0  0  0  0  0  0  0  0  0  0  0
  -31.8968  -26.6684   18.3295 O   0  0  0  0  0  0  0  0  0  0  0  0
  -25.3841  -22.9112   17.1047 O   0  0  0  0  0  0  0  0  0  0  0  0
  -26.7421  -22.6524   20.9491 O   0  0  0  0  0  0  0  0  0  0  0  0
  -26.1079   -9.6545   21.7333 O   0  0  0  0  0  0  0  0  0  0  0  0
  -28.7728  -27.4771   20.8491 O   0  0  0  0  0  0  0  0  0  1  0  0
  -20.7220   -8.9731   20.7681 F   0  0  0  0  0  0  0  0  0  0  0  0
  -25.2280   -7.9408   19.7505 F   0  0  0  0  0  0  0  0  0  0  0  0
  1  2  1  0  0  0  0
  1  6  2  0  0  0  0
  2  7  2  0  0  0  0
  3  9  2  0  0  0  0
  3 10  1  0  0  0  0
  4 11  2  0  0  0  0
  4 19  1  0  0  0  0
  5 12  1  0  0  0  0
  5 19  2  0  0  0  0
  6 21  1  0  0  0  0
  7 23  1  0  0  0  0
  8 13  2  0  0  0  0
  8 22  1  0  0  0  0
  9 25  1  0  0  0  0
 10 26  2  0  0  0  0
 11 27  1  0  0  0  0
 12 27  2  0  0  0  0
 13 28  1  0  0  0  0
 14 15  2  0  0  0  0
 14 29  1  0  0  0  0
 15 30  1  0  0  0  0
 16 24  1  0  0  0  0
 16 28  2  0  0  0  0
 17 25  2  0  0  0  0
 17 26  1  0  0  0  0
 18 30  2  0  0  0  0
 18 31  1  0  0  0  0
 19 32  1  0  0  0  0
 20 32  1  0  0  0  0
 20 33  2  0  0  0  0
 20 34  1  0  0  0  0
 21 23  2  0  0  0  0
 21 40  1  0  0  0  0
 22 24  2  0  0  0  0
 22 41  1  0  0  0  0
 23 49  1  0  0  0  0
 24 42  1  0  0  0  0
 25 68  1  0  0  0  0
 26 69  1  0  0  0  0
 27 79  1  0  0  0  0
 28 80  1  0  0  0  0
 29 31  2  0  0  0  0
 29 79  1  0  0  0  0
 30 81  1  0  0  0  0
 31 82  1  0  0  0  0
 32 62  2  0  0  0  0
 33 63  1  0  0  0  0
 33 66  1  0  0  0  0
 34 67  1  0  0  0  0
 34 73  2  0  0  0  0
 35 50  1  0  0  0  0
 35 70  1  0  0  0  0
 35 74  2  0  0  0  0
 36 59  1  0  0  0  0
 36 64  1  0  0  0  0
 36 75  2  0  0  0  0
 37 57  1  0  0  0  0
 37 68  1  0  0  0  0
 37 76  2  0  0  0  0
 38 60  1  0  0  0  0
 38 71  1  0  0  0  0
 38 77  2  0  0  0  0
 39 65  1  0  0  0  0
 39 69  1  0  0  0  0
 39 78  2  0  0  0  0
 40 43  1  0  0  0  0
 41 50  1  0  0  0  0
 42 64  1  0  0  0  0
 43 45  1  0  0  0  0
 44 46  1  0  0  0  0
 44 47  1  0  0  0  0
 45 49  1  0  0  0  0
 46 51  1  0  0  0  0
 47 65  1  0  0  0  0
 48 51  1  0  0  0  0
 48 65  1  0  0  0  0
 49 70  1  0  0  0  0
 50 64  1  0  0  0  0
 51 63  1  0  0  0  0
 52 60  1  0  0  0  0
 53 61  1  0  0  0  0
 54 61  1  0  0  0  0
 55 61  1  0  0  0  0
 56 72  1  0  0  0  0
 57 58  1  0  0  0  0
 58 80  1  0  0  0  0
 59 61  1  0  0  0  0
 59 71  1  0  0  0  0
 60 72  1  0  0  0  0
 62 63  1  0  0  0  0
M  CHG  1  72   1
M  ISO  4  39 100  58 101  69 100  80 101
M  END
> <Batch ID>
0064

> <Smiles>
CNC(C)C(=O)NC(C(=O)N1Cc2cc([101O:1][101CH2:1]CC(=O)Nc3cccc([100NH:0][100C:0](=O)N4CCCC(n5nc(-c6ccc(Oc7ccc(F)cc7F)cc6)c(C(N)=O)c5N)C4)c3)ccc2CC1C(=O)NC1CCCc2ccccc21)C(C)(C)C

> <Shape>
0.268

> <Color>
0.082

> <Negative vol penalty>
0.000

$$$$

  -OEChem-04042323153D

 90 98  0     1  0  0  0  0  0999 V2000
  -18.1067  -25.3322   18.4630 C   0  0  0  0  0  0  0  0  0  0  0  0
  -18.8015  -24.6782   19.4754 C   0  0  0  0  0  0  0  0  0  0  0  0
  -23.0017   -9.8922   19.9803 C   0  0  0  0  0  0  0  0  0  0  0  0
  -23.7252   -9.9446   22.2849 C   0  0  0  0  0  0  0  0  0  0  0  0
  -18.8058  -25.9910   17.4525 C   0  0  0  0  0  0  0  0  0  0  0  0
  -20.1960  -24.6816   19.4771 C   0  0  0  0  0  0  0  0  0  0  0  0
  -23.8710  -24.8228   24.3741 C   0  0  0  0  0  0  0  0  0  0  0  0
  -32.3939  -18.4961   21.9837 C   0  0  0  0  0  0  0  0  0  0  0  0
  -31.8843  -17.2700   21.5563 C   0  0  0  0  0  0  0  0  0  0  0  0
  -22.2355   -8.7575   20.2466 C   0  0  0  0  0  0  0  0  0  0  0  0
  -22.9589   -8.8099   22.5512 C   0  0  0  0  0  0  0  0  0  0  0  0
  -24.5596  -23.8227   25.0592 C   0  0  0  0  0  0  0  0  0  0  0  0
  -23.2051   -5.4708   22.0811 C   0  0  0  0  0  0  0  0  0  0  0  0
  -23.7925   -4.4543   22.8342 C   0  0  0  0  0  0  0  0  0  0  0  0
  -26.5441  -24.3225   23.7820 C   0  0  0  0  0  0  0  0  0  0  0  0
  -29.8080  -17.7339   22.7014 C   0  0  0  0  0  0  0  0  0  0  0  0
  -22.0673   -4.6972   24.5080 C   0  0  0  0  0  0  0  0  0  0  0  0
  -23.7466  -10.4857   20.9994 C   0  0  0  0  0  0  0  0  0  0  0  0
  -24.1309  -13.0014   20.8225 C   0  0  0  0  0  0  0  0  0  0  0  0
  -20.2094  -26.0107   17.4471 C   0  0  0  0  0  0  0  0  0  0  0  0
  -24.5118  -25.5742   23.3785 C   0  0  0  0  0  0  0  0  0  0  0  0
  -20.9145  -25.3401   18.4648 C   0  0  0  0  0  0  0  0  0  0  0  0
  -25.8621  -25.3333   23.0875 C   0  0  0  0  0  0  0  0  0  0  0  0
  -31.6106  -19.3411   22.7700 C   0  0  0  0  0  0  0  0  0  0  0  0
  -30.5914  -16.8889   21.9151 C   0  0  0  0  0  0  0  0  0  0  0  0
  -30.3177  -18.9600   23.1288 C   0  0  0  0  0  0  0  0  0  0  0  0
  -22.2141   -8.2163   21.5321 C   0  0  0  0  0  0  0  0  0  0  0  0
  -25.8955  -23.5705   24.7612 C   0  0  0  0  0  0  0  0  0  0  0  0
  -22.0488   -6.1007   22.5415 C   0  0  0  0  0  0  0  0  0  0  0  0
  -23.2236   -4.0674   24.0476 C   0  0  0  0  0  0  0  0  0  0  0  0
  -21.4799   -5.7138   23.7549 C   0  0  0  0  0  0  0  0  0  0  0  0
  -24.5387  -11.6576   20.7248 C   0  0  0  0  0  0  0  0  0  0  0  0
  -25.2406  -13.7243   20.4586 C   0  0  0  0  0  0  0  0  0  0  0  0
  -32.0087  -23.4213   20.1419 C   0  0  0  0  0  0  0  0  0  0  0  0
  -32.0937  -22.2639   20.8059 C   0  0  0  0  0  0  0  0  0  0  0  0
  -22.8624  -13.5474   21.2078 C   0  0  0  0  0  0  0  0  0  0  0  0
  -27.6840  -20.6812   25.1823 C   0  0  0  0  0  0  0  0  0  0  0  0
  -33.4133  -21.7861   21.3086 C   0  0  0  0  0  0  0  0  0  0  0  0
  -28.2221  -19.5530   24.3532 C   0  0  0  0  0  0  0  0  0  0  0  0
  -24.0780  -25.9956   20.2579 C   0  0  0  0  0  0  0  0  0  0  0  0
  -26.4231  -28.2064   20.6260 C   0  0  0  0  0  0  0  0  0  0  0  0
  -29.1020  -29.3161   22.4255 C   0  0  0  0  0  0  0  0  0  0  0  0
  -30.7194  -14.6880   20.6961 C   0  0  0  0  0  0  0  0  0  0  0  0
  -20.9215  -26.6959   16.3078 C   0  0  0  0  0  0  0  0  0  0  0  0
  -23.7626  -26.6675   22.6672 C   0  0  0  0  0  0  0  0  0  0  0  0
  -26.6015  -26.1256   22.0416 C   0  0  0  0  0  0  0  0  0  0  0  0
  -22.3968  -26.9700   16.5884 C   0  0  0  0  0  0  0  0  0  0  0  0
  -29.6040  -12.2335   18.3706 C   0  0  0  0  0  0  0  0  0  0  0  0
  -23.0670  -25.7327   17.1772 C   0  0  0  0  0  0  0  0  0  0  0  0
  -28.1532  -11.9754   18.7838 C   0  0  0  0  0  0  0  0  0  0  0  0
  -30.5035  -12.4779   19.5809 C   0  0  0  0  0  0  0  0  0  0  0  0
  -28.5868  -13.2665   20.9126 C   0  0  0  0  0  0  0  0  0  0  0  0
  -22.4270  -25.3424   18.5149 C   0  0  1  0  0  0  0  0  0  0  0  0
  -24.3689  -27.0244   21.3136 C   0  0  1  0  0  0  0  0  0  0  0  0
  -27.6301  -13.0792   19.7238 C   0  0  2  0  0  0  0  0  0  0  0  0
  -27.9192  -20.6129   26.6634 C   0  0  0  0  0  0  0  0  0  0  0  0
  -30.8385  -31.1274   22.4592 C   0  0  0  0  0  0  0  0  0  0  0  0
  -27.9281  -26.8020   18.3737 C   0  0  0  0  0  0  0  0  0  0  0  0
  -29.9941  -28.0231   19.0869 C   0  0  0  0  0  0  0  0  0  0  0  0
  -28.0078  -29.3000   18.2827 C   0  0  0  0  0  0  0  0  0  0  0  0
  -34.6417  -20.5261   23.0348 C   0  0  0  0  0  0  0  0  0  0  0  0
  -28.1731  -30.3180   25.0508 C   0  0  0  0  0  0  0  0  0  0  0  0
  -32.1824  -20.6484   23.2134 C   0  0  0  0  0  0  0  0  0  0  0  0
  -27.9308  -28.1880   20.5520 C   0  0  1  0  0  0  0  0  0  0  0  0
  -29.4642  -30.6953   22.9462 C   0  0  2  0  0  0  0  0  0  0  0  0
  -28.4510  -28.0619   19.0922 C   0  0  0  0  0  0  0  0  0  0  0  0
  -25.8084  -11.5314   20.3297 N   0  0  0  0  0  0  0  0  0  0  0  0
  -27.0431  -21.6084   24.5456 N   0  0  0  0  0  0  0  0  0  1  0  0
  -26.2079  -12.8053   20.1757 N   0  0  0  0  0  0  0  0  0  0  0  0
  -25.8239  -27.1795   21.3692 N   0  0  0  0  0  0  0  0  0  0  0  0
  -29.9474  -13.5390   20.4233 N   0  0  0  0  0  0  0  0  0  0  0  0
  -25.4735  -15.0501   20.3560 N   0  0  0  0  0  0  0  0  0  0  0  0
  -21.8308  -12.6630   21.5510 N   0  0  0  0  0  0  0  0  0  0  0  0
  -29.5084  -19.8027   23.9253 N   0  0  0  0  0  0  0  0  0  0  0  0
  -30.0742  -15.6433   21.4808 N   0  0  0  0  0  0  0  0  0  0  0  0
  -22.8975  -26.2107   19.5727 N   0  0  0  0  0  0  0  0  0  0  0  0
  -28.3882  -29.3859   21.2479 N   0  0  0  0  0  0  0  0  0  0  0  0
  -33.3699  -21.0008   22.4793 N   0  0  0  0  0  0  0  0  0  0  0  0
  -29.4703  -30.7012   24.4364 N   0  3  0  0  0  0  0  0  0  0  0  0
  -22.6451  -14.7826   21.2308 O   0  0  0  0  0  0  0  0  0  0  0  0
  -34.4448  -22.1046   20.7149 O   0  0  0  0  0  0  0  0  0  0  0  0
  -27.4869  -18.5949   24.1837 O   0  0  0  0  0  0  0  0  0  0  0  0
  -24.8670  -25.0755   20.0773 O   0  0  0  0  0  0  0  0  0  0  0  0
  -25.8003  -29.1029   20.0515 O   0  0  0  0  0  0  0  0  0  0  0  0
  -29.4237  -28.2802   23.0035 O   0  0  0  0  0  0  0  0  0  0  0  0
  -31.8584  -14.8272   20.2429 O   0  0  0  0  0  0  0  0  0  0  0  0
  -21.4663   -7.1092   21.7924 O   0  0  0  0  0  0  0  0  0  0  0  0
  -26.5698  -22.5944   25.4280 O   0  0  0  0  0  0  0  0  0  1  0  0
  -23.7870   -3.0901   24.7699 F   0  0  0  0  0  0  0  0  0  0  0  0
  -20.3684   -6.3144   24.2018 F   0  0  0  0  0  0  0  0  0  0  0  0
  1  2  1  0  0  0  0
  1  5  2  0  0  0  0
  2  6  2  0  0  0  0
  3 10  2  0  0  0  0
  3 18  1  0  0  0  0
  4 11  1  0  0  0  0
  4 18  2  0  0  0  0
  5 20  1  0  0  0  0
  6 22  1  0  0  0  0
  7 12  2  0  0  0  0
  7 21  1  0  0  0  0
  8  9  2  0  0  0  0
  8 24  1  0  0  0  0
  9 25  1  0  0  0  0
 10 27  1  0  0  0  0
 11 27  2  0  0  0  0
 12 28  1  0  0  0  0
 13 14  2  0  0  0  0
 13 29  1  0  0  0  0
 14 30  1  0  0  0  0
 15 23  1  0  0  0  0
 15 28  2  0  0  0  0
 16 25  2  0  0  0  0
 16 26  1  0  0  0  0
 17 30  2  0  0  0  0
 17 31  1  0  0  0  0
 18 32  1  0  0  0  0
 19 32  1  0  0  0  0
 19 33  2  0  0  0  0
 19 36  1  0  0  0  0
 20 22  2  0  0  0  0
 20 44  1  0  0  0  0
 21 23  2  0  0  0  0
 21 45  1  0  0  0  0
 22 53  1  0  0  0  0
 23 46  1  0  0  0  0
 24 26  2  0  0  0  0
 24 63  1  0  0  0  0
 25 75  1  0  0  0  0
 26 74  1  0  0  0  0
 27 87  1  0  0  0  0
 28 88  1  0  0  0  0
 29 31  2  0  0  0  0
 29 87  1  0  0  0  0
 30 89  1  0  0  0  0
 31 90  1  0  0  0  0
 32 67  2  0  0  0  0
 33 69  1  0  0  0  0
 33 72  1  0  0  0  0
 34 35  2  0  0  0  0
 35 38  1  0  0  0  0
 36 73  1  0  0  0  0
 36 80  2  0  0  0  0
 37 39  1  0  0  0  0
 37 56  1  0  0  0  0
 37 68  2  0  0  0  0
 38 78  1  0  0  0  0
 38 81  2  0  0  0  0
 39 74  1  0  0  0  0
 39 82  2  0  0  0  0
 40 54  1  0  0  0  0
 40 76  1  0  0  0  0
 40 83  2  0  0  0  0
 41 64  1  0  0  0  0
 41 70  1  0  0  0  0
 41 84  2  0  0  0  0
 42 65  1  0  0  0  0
 42 77  1  0  0  0  0
 42 85  2  0  0  0  0
 43 71  1  0  0  0  0
 43 75  1  0  0  0  0
 43 86  2  0  0  0  0
 44 47  1  0  0  0  0
 45 54  1  0  0  0  0
 46 70  1  0  0  0  0
 47 49  1  0  0  0  0
 48 50  1  0  0  0  0
 48 51  1  0  0  0  0
 49 53  1  0  0  0  0
 50 55  1  0  0  0  0
 51 71  1  0  0  0  0
 52 55  1  0  0  0  0
 52 71  1  0  0  0  0
 53 76  1  0  0  0  0
 54 70  1  0  0  0  0
 55 69  1  0  0  0  0
 57 65  1  0  0  0  0
 58 66  1  0  0  0  0
 59 66  1  0  0  0  0
 60 66  1  0  0  0  0
 61 78  1  0  0  0  0
 62 79  1  0  0  0  0
 63 78  1  0  0  0  0
 64 66  1  0  0  0  0
 64 77  1  0  0  0  0
 65 79  1  0  0  0  0
 67 69  1  0  0  0  0
 68 88  1  0  0  0  0
M  CHG  1  79   1
M  ISO  4  43 100  68 101  75 100  88 101
M  END
> <Batch ID>
0064

> <Smiles>
C=CC(=O)N(C)Cc1ccc([100NH:0][100C:0](=O)N2CCCC(n3nc(-c4ccc(Oc5ccc(F)cc5F)cc4)c(C(N)=O)c3N)C2)cc1NC(=O)C(C)=[101N:1][101O:1]c1ccc2c(c1)CN(C(=O)C(NC(=O)C(C)NC)C(C)(C)C)C(C(=O)NC1CCCc3ccccc31)C2

> <Shape>
0.228

> <Color>
0.190

> <Negative vol penalty>
0.000

$$$$

  -OEChem-04042323153D

 90 99  0     1  0  0  0  0  0999 V2000
  -33.4960  -28.0967   20.1999 C   0  0  0  0  0  0  0  0  0  0  0  0
  -32.2718  -27.6018   19.7646 C   0  0  0  0  0  0  0  0  0  0  0  0
  -26.9464  -11.7272   20.3433 C   0  0  0  0  0  0  0  0  0  0  0  0
  -25.8202  -13.8613   20.4636 C   0  0  0  0  0  0  0  0  0  0  0  0
  -33.5713  -28.8038   21.3980 C   0  0  0  0  0  0  0  0  0  0  0  0
  -31.1207  -27.8240   20.5212 C   0  0  0  0  0  0  0  0  0  0  0  0
  -26.8381  -26.4421   18.5329 C   0  0  0  0  0  0  0  0  0  0  0  0
  -29.4952  -23.1687   24.0686 C   0  0  0  0  0  0  0  0  0  0  0  0
  -29.6489  -21.7935   24.2438 C   0  0  0  0  0  0  0  0  0  0  0  0
  -25.7208  -11.0917   20.1444 C   0  0  0  0  0  0  0  0  0  0  0  0
  -24.5946  -13.2257   20.2646 C   0  0  0  0  0  0  0  0  0  0  0  0
  -26.4665  -25.1052   18.3977 C   0  0  0  0  0  0  0  0  0  0  0  0
  -22.8495   -8.8676   19.9639 C   0  0  0  0  0  0  0  0  0  0  0  0
  -22.5954   -7.7038   20.6895 C   0  0  0  0  0  0  0  0  0  0  0  0
  -24.9815  -25.3333   20.2850 C   0  0  0  0  0  0  0  0  0  0  0  0
  -28.2591  -22.7712   22.0312 C   0  0  0  0  0  0  0  0  0  0  0  0
  -22.8373   -8.9375   22.7527 C   0  0  0  0  0  0  0  0  0  0  0  0
  -26.9961  -13.1121   20.5029 C   0  0  0  0  0  0  0  0  0  0  0  0
  -29.3710  -13.7685   19.8422 C   0  0  0  0  0  0  0  0  0  0  0  0
  -32.4221  -29.0236   22.1753 C   0  0  0  0  0  0  0  0  0  0  0  0
  -26.2915  -27.2330   19.5537 C   0  0  0  0  0  0  0  0  0  0  0  0
  -31.1721  -28.5559   21.7213 C   0  0  0  0  0  0  0  0  0  0  0  0
  -25.3459  -26.6807   20.4295 C   0  0  0  0  0  0  0  0  0  0  0  0
  -28.8002  -23.6576   22.9624 C   0  0  0  0  0  0  0  0  0  0  0  0
  -28.4128  -21.3959   22.2063 C   0  0  0  0  0  0  0  0  0  0  0  0
  -29.1078  -20.9071   23.3126 C   0  0  0  0  0  0  0  0  0  0  0  0
  -24.5449  -11.8409   20.1050 C   0  0  0  0  0  0  0  0  0  0  0  0
  -25.5402  -24.5498   19.2755 C   0  0  0  0  0  0  0  0  0  0  0  0
  -23.0975  -10.0663   20.6326 C   0  0  0  0  0  0  0  0  0  0  0  0
  -22.5893   -7.7387   22.0840 C   0  0  0  0  0  0  0  0  0  0  0  0
  -23.0914  -10.1013   22.0270 C   0  0  0  0  0  0  0  0  0  0  0  0
  -28.2618  -13.7691   20.7090 C   0  0  0  0  0  0  0  0  0  0  0  0
  -30.3132  -14.5297   20.4897 C   0  0  0  0  0  0  0  0  0  0  0  0
  -28.2153  -20.5231   19.8720 C   0  0  0  0  0  0  0  0  0  0  0  0
  -25.9783  -20.2955   18.7787 C   0  0  0  0  0  0  0  0  0  0  0  0
  -29.5350  -13.1363   18.5658 C   0  0  0  0  0  0  0  0  0  0  0  0
  -27.4718  -28.7890   22.0617 C   0  0  0  0  0  0  0  0  0  0  0  0
  -24.4242  -29.8658   22.3358 C   0  0  0  0  0  0  0  0  0  0  0  0
  -21.1055  -28.4835   22.0311 C   0  0  0  0  0  0  0  0  0  0  0  0
  -29.9449  -18.8864   24.5626 C   0  0  0  0  0  0  0  0  0  0  0  0
  -32.5595  -29.8022   23.4599 C   0  0  0  0  0  0  0  0  0  0  0  0
  -26.6827  -28.6808   19.6697 C   0  0  0  0  0  0  0  0  0  0  0  0
  -24.7144  -27.4928   21.5295 C   0  0  0  0  0  0  0  0  0  0  0  0
  -27.3379  -19.6693   18.9717 C   0  0  0  0  0  0  0  0  0  0  0  0
  -31.3783  -29.6042   24.4043 C   0  0  0  0  0  0  0  0  0  0  0  0
  -31.7140  -15.8134   24.8856 C   0  0  0  0  0  0  0  0  0  0  0  0
  -30.0716  -29.8067   23.6518 C   0  0  0  0  0  0  0  0  0  0  0  0
  -31.1347  -14.9425   23.7685 C   0  0  0  0  0  0  0  0  0  0  0  0
  -30.6479  -16.7041   25.5210 C   0  0  0  0  0  0  0  0  0  0  0  0
  -29.3015  -16.6543   23.4584 C   0  0  0  0  0  0  0  0  0  0  0  0
  -26.8539  -19.5131   21.6738 C   0  0  0  0  0  0  0  0  0  0  0  0
  -29.9119  -28.7590   22.5429 C   0  0  1  0  0  0  0  0  0  0  0  0
  -26.4484  -29.2532   21.0642 C   0  0  1  0  0  0  0  0  0  0  0  0
  -30.3511  -15.7869   22.7445 C   0  0  2  0  0  0  0  0  0  0  0  0
  -25.4064  -19.7936   21.2282 C   0  0  2  0  0  0  0  0  0  0  0  0
  -28.6344  -25.1279   22.7764 C   0  0  0  0  0  0  0  0  0  0  0  0
  -24.6074  -18.4856   21.2598 C   0  0  0  0  0  0  0  0  0  0  0  0
  -18.9314  -29.5790   21.4224 C   0  0  0  0  0  0  0  0  0  0  0  0
  -24.0570  -30.1515   25.3513 C   0  0  0  0  0  0  0  0  0  0  0  0
  -21.6266  -29.6414   25.0335 C   0  0  0  0  0  0  0  0  0  0  0  0
  -22.6220  -31.6702   23.9772 C   0  0  0  0  0  0  0  0  0  0  0  0
  -20.6274  -26.5724   19.8225 C   0  0  0  0  0  0  0  0  0  0  0  0
  -23.9823  -21.2665   19.8101 C   0  0  0  0  0  0  0  0  0  0  0  0
  -24.2221  -22.7411   20.0801 C   0  0  0  0  0  0  0  0  0  1  0  0
  -23.1810  -29.3872   23.0460 C   0  0  1  0  0  0  0  0  0  0  0  0
  -20.1066  -28.7545   20.9206 C   0  0  2  0  0  0  0  0  0  0  0  0
  -22.8916  -30.1944   24.3429 C   0  0  0  0  0  0  0  0  0  0  0  0
  -28.4778  -14.4747   21.8223 N   0  0  0  0  0  0  0  0  0  0  0  0
  -29.7337  -14.9244   21.6595 N   0  0  0  0  0  0  0  0  0  0  0  0
  -27.8433  -20.4997   21.2300 N   0  0  0  0  0  0  0  0  0  0  0  0
  -25.2112  -20.4852   19.9312 N   0  0  0  0  0  0  0  0  0  0  0  0
  -25.1341  -28.9019   21.6059 N   0  0  0  0  0  0  0  0  0  0  0  0
  -29.9499  -17.4773   24.4915 N   0  0  0  0  0  0  0  0  0  0  0  0
  -31.5726  -14.8932   20.1668 N   0  0  0  0  0  0  0  0  0  0  0  0
  -28.4670  -12.3918   18.0468 N   0  0  0  0  0  0  0  0  0  0  0  0
  -29.2778  -19.5145   23.5113 N   0  0  0  0  0  0  0  0  0  0  0  0
  -28.7728  -29.1090   21.7233 N   0  0  0  0  0  0  0  0  0  0  0  0
  -22.1054  -29.4325   22.0614 N   0  0  0  0  0  0  0  0  0  0  0  0
  -19.5811  -27.4722   20.3724 N   0  3  0  0  0  0  0  0  0  0  0  0
  -29.0865  -21.2234   19.3561 O   0  0  0  0  0  0  0  0  0  0  0  0
  -25.6316  -20.6478   17.6480 O   0  0  0  0  0  0  0  0  0  0  0  0
  -30.6030  -13.2153   17.9126 O   0  0  0  0  0  0  0  0  0  0  0  0
  -27.1079  -28.1864   23.0647 O   0  0  0  0  0  0  0  0  0  0  0  0
  -24.7494  -31.0528   22.4194 O   0  0  0  0  0  0  0  0  0  0  0  0
  -21.0065  -27.5279   22.7976 O   0  0  0  0  0  0  0  0  0  0  0  0
  -30.5155  -19.4922   25.4733 O   0  0  0  0  0  0  0  0  0  0  0  0
  -23.3488  -11.2211   19.9107 O   0  0  0  0  0  0  0  0  0  0  0  0
  -25.1762  -23.2450   19.1461 O   0  0  0  0  0  0  0  0  0  1  0  0
  -22.3438   -6.6214   22.7807 F   0  0  0  0  0  0  0  0  0  0  0  0
  -23.3278  -11.2502   22.6750 F   0  0  0  0  0  0  0  0  0  0  0  0
  1  2  1  0  0  0  0
  1  5  2  0  0  0  0
  2  6  2  0  0  0  0
  3 10  2  0  0  0  0
  3 18  1  0  0  0  0
  4 11  1  0  0  0  0
  4 18  2  0  0  0  0
  5 20  1  0  0  0  0
  6 22  1  0  0  0  0
  7 12  2  0  0  0  0
  7 21  1  0  0  0  0
  8  9  2  0  0  0  0
  8 24  1  0  0  0  0
  9 26  1  0  0  0  0
 10 27  1  0  0  0  0
 11 27  2  0  0  0  0
 12 28  1  0  0  0  0
 13 14  2  0  0  0  0
 13 29  1  0  0  0  0
 14 30  1  0  0  0  0
 15 23  1  0  0  0  0
 15 28  2  0  0  0  0
 16 24  2  0  0  0  0
 16 25  1  0  0  0  0
 17 30  2  0  0  0  0
 17 31  1  0  0  0  0
 18 32  1  0  0  0  0
 19 32  1  0  0  0  0
 19 33  2  0  0  0  0
 19 36  1  0  0  0  0
 20 22  2  0  0  0  0
 20 41  1  0  0  0  0
 21 23  2  0  0  0  0
 21 42  1  0  0  0  0
 22 52  1  0  0  0  0
 23 43  1  0  0  0  0
 24 56  1  0  0  0  0
 25 26  2  0  0  0  0
 25 70  1  0  0  0  0
 26 76  1  0  0  0  0
 27 87  1  0  0  0  0
 28 88  1  0  0  0  0
 29 31  2  0  0  0  0
 29 87  1  0  0  0  0
 30 89  1  0  0  0  0
 31 90  1  0  0  0  0
 32 68  2  0  0  0  0
 33 69  1  0  0  0  0
 33 74  1  0  0  0  0
 34 44  1  0  0  0  0
 34 70  1  0  0  0  0
 34 80  2  0  0  0  0
 35 44  1  0  0  0  0
 35 71  1  0  0  0  0
 35 81  2  0  0  0  0
 36 75  1  0  0  0  0
 36 82  2  0  0  0  0
 37 53  1  0  0  0  0
 37 77  1  0  0  0  0
 37 83  2  0  0  0  0
 38 65  1  0  0  0  0
 38 72  1  0  0  0  0
 38 84  2  0  0  0  0
 39 66  1  0  0  0  0
 39 78  1  0  0  0  0
 39 85  2  0  0  0  0
 40 73  1  0  0  0  0
 40 76  1  0  0  0  0
 40 86  2  0  0  0  0
 41 45  1  0  0  0  0
 42 53  1  0  0  0  0
 43 72  1  0  0  0  0
 45 47  1  0  0  0  0
 46 48  1  0  0  0  0
 46 49  1  0  0  0  0
 47 52  1  0  0  0  0
 48 54  1  0  0  0  0
 49 73  1  0  0  0  0
 50 54  1  0  0  0  0
 50 73  1  0  0  0  0
 51 55  1  0  0  0  0
 51 70  1  0  0  0  0
 52 77  1  0  0  0  0
 53 72  1  0  0  0  0
 54 69  1  0  0  0  0
 55 57  1  0  0  0  0
 55 71  1  0  0  0  0
 58 66  1  0  0  0  0
 59 67  1  0  0  0  0
 60 67  1  0  0  0  0
 61 67  1  0  0  0  0
 62 79  1  0  0  0  0
 63 64  1  0  0  0  0
 63 71  1  0  0  0  0
 64 88  1  0  0  0  0
 65 67  1  0  0  0  0
 65 78  1  0  0  0  0
 66 79  1  0  0  0  0
 68 69  1  0  0  0  0
M  CHG  1  79   1
M  ISO  4  40 100  64 101  76 100  88 101
M  END
> <Batch ID>
0064

> <Smiles>
CNC(C)C(=O)NC(C(=O)N1Cc2cc([101O:1][101CH2:1]CN3C(=O)CC(=O)N(c4cc(C)ccc4[100NH:0][100C:0](=O)N4CCCC(n5nc(-c6ccc(Oc7ccc(F)cc7F)cc6)c(C(N)=O)c5N)C4)CC3C)ccc2CC1C(=O)NC1CCCc2ccccc21)C(C)(C)C

> <Shape>
0.259

> <Color>
0.074

> <Negative vol penalty>
0.000

$$$$

  -OEChem-04042323153D

 85 93  0     1  0  0  0  0  0999 V2000
  -28.9209  -36.2578   23.6698 C   0  0  0  0  0  0  0  0  0  0  0  0
  -29.2206  -35.0618   23.0254 C   0  0  0  0  0  0  0  0  0  0  0  0
  -22.9491  -10.2485   22.9480 C   0  0  0  0  0  0  0  0  0  0  0  0
  -23.3793  -10.3109   20.5714 C   0  0  0  0  0  0  0  0  0  0  0  0
  -27.8812  -36.3069   24.5975 C   0  0  0  0  0  0  0  0  0  0  0  0
  -28.4814  -33.9140   23.3091 C   0  0  0  0  0  0  0  0  0  0  0  0
  -26.9847  -29.4403   19.4037 C   0  0  0  0  0  0  0  0  0  0  0  0
  -22.3007   -9.0226   22.7984 C   0  0  0  0  0  0  0  0  0  0  0  0
  -22.7310   -9.0849   20.4218 C   0  0  0  0  0  0  0  0  0  0  0  0
  -27.5411  -28.1862   19.1562 C   0  0  0  0  0  0  0  0  0  0  0  0
  -23.1674   -5.7769   22.4146 C   0  0  0  0  0  0  0  0  0  0  0  0
  -23.4697   -4.7680   23.3291 C   0  0  0  0  0  0  0  0  0  0  0  0
  -25.9256  -27.1831   20.6404 C   0  0  0  0  0  0  0  0  0  0  0  0
  -26.2525  -20.3199   18.3990 C   0  0  0  0  0  0  0  0  0  0  0  0
  -27.9978  -18.6987   18.8020 C   0  0  0  0  0  0  0  0  0  0  0  0
  -21.1529   -4.6915   24.0103 C   0  0  0  0  0  0  0  0  0  0  0  0
  -23.4883  -10.8927   21.8344 C   0  0  0  0  0  0  0  0  0  0  0  0
  -25.5259  -12.3726   22.2413 C   0  0  0  0  0  0  0  0  0  0  0  0
  -27.1226  -35.1614   24.8856 C   0  0  0  0  0  0  0  0  0  0  0  0
  -25.8995  -29.5769   20.2814 C   0  0  0  0  0  0  0  0  0  0  0  0
  -27.4314  -33.9476   24.2424 C   0  0  0  0  0  0  0  0  0  0  0  0
  -25.3555  -28.4397   20.8954 C   0  0  0  0  0  0  0  0  0  0  0  0
  -28.3727  -20.5185   17.2578 C   0  0  0  0  0  0  0  0  0  0  0  0
  -26.7092  -19.1729   19.0480 C   0  0  0  0  0  0  0  0  0  0  0  0
  -27.0841  -20.9927   17.5038 C   0  0  0  0  0  0  0  0  0  0  0  0
  -22.1917   -8.4408   21.5354 C   0  0  0  0  0  0  0  0  0  0  0  0
  -27.0134  -27.0577   19.7768 C   0  0  0  0  0  0  0  0  0  0  0  0
  -21.8580   -6.2432   22.2980 C   0  0  0  0  0  0  0  0  0  0  0  0
  -22.4624   -4.2252   24.1269 C   0  0  0  0  0  0  0  0  0  0  0  0
  -28.8295  -19.3715   17.9068 C   0  0  0  0  0  0  0  0  0  0  0  0
  -20.8507   -5.7005   23.0959 C   0  0  0  0  0  0  0  0  0  0  0  0
  -24.1576  -12.1594   21.9882 C   0  0  0  0  0  0  0  0  0  0  0  0
  -25.6555  -13.7387   22.2998 C   0  0  0  0  0  0  0  0  0  0  0  0
  -26.5852  -11.4209   22.4086 C   0  0  0  0  0  0  0  0  0  0  0  0
  -25.4153  -31.0984   23.0299 C   0  0  0  0  0  0  0  0  0  0  0  0
  -22.3590  -30.1028   22.5935 C   0  0  0  0  0  0  0  0  0  0  0  0
  -20.2174  -27.8667   21.1582 C   0  0  0  0  0  0  0  0  0  0  0  0
  -24.5603  -18.8247   20.3157 C   0  0  0  0  0  0  0  0  0  0  0  0
  -26.0390  -35.2522   25.9307 C   0  0  0  0  0  0  0  0  0  0  0  0
  -25.2937  -30.9333   20.5171 C   0  0  0  0  0  0  0  0  0  0  0  0
  -24.1781  -28.5300   21.8303 C   0  0  0  0  0  0  0  0  0  0  0  0
  -25.0615  -34.0802   25.8979 C   0  0  0  0  0  0  0  0  0  0  0  0
  -22.1400  -17.3757   22.4882 C   0  0  0  0  0  0  0  0  0  0  0  0
  -25.8161  -32.7582   25.7987 C   0  0  0  0  0  0  0  0  0  0  0  0
  -22.5617  -15.9070   22.5726 C   0  0  0  0  0  0  0  0  0  0  0  0
  -22.3670  -17.9516   21.0916 C   0  0  0  0  0  0  0  0  0  0  0  0
  -24.1466  -16.3076   20.6453 C   0  0  0  0  0  0  0  0  0  0  0  0
  -26.6364  -32.6870   24.5050 C   0  0  1  0  0  0  0  0  0  0  0  0
  -24.5175  -31.0214   21.8275 C   0  0  1  0  0  0  0  0  0  0  0  0
  -23.9973  -15.7020   22.0505 C   0  0  2  0  0  0  0  0  0  0  0  0
  -29.2808  -21.2226   16.3027 C   0  0  0  0  0  0  0  0  0  0  0  0
  -17.7802  -27.2860   21.0156 C   0  0  0  0  0  0  0  0  0  0  0  0
  -22.4866  -28.8913   25.3910 C   0  0  0  0  0  0  0  0  0  0  0  0
  -20.4500  -27.5488   24.8268 C   0  0  0  0  0  0  0  0  0  0  0  0
  -20.3325  -30.0405   24.8490 C   0  0  0  0  0  0  0  0  0  0  0  0
  -20.1670  -28.2971   18.2305 C   0  0  0  0  0  0  0  0  0  0  0  0
  -28.1496  -25.6241   18.2570 C   0  0  0  0  0  0  0  0  0  1  0  0
  -28.0703  -24.1541   17.8976 C   0  0  0  0  0  0  0  0  0  0  0  0
  -21.5696  -28.8747   22.9775 C   0  0  1  0  0  0  0  0  0  0  0  0
  -18.9256  -28.0627   20.3852 C   0  0  2  0  0  0  0  0  0  0  0  0
  -21.2331  -28.8370   24.4950 C   0  0  0  0  0  0  0  0  0  0  0  0
  -23.4673  -13.2988   21.8926 N   0  0  0  0  0  0  0  0  0  0  0  0
  -24.4055  -14.2411   22.0868 N   0  0  0  0  0  0  0  0  0  0  0  0
  -23.6248  -29.8791   22.0336 N   0  0  0  0  0  0  0  0  0  0  0  0
  -23.7494  -17.7241   20.6649 N   0  0  0  0  0  0  0  0  0  0  0  0
  -26.7155  -14.5472   22.5122 N   0  0  0  0  0  0  0  0  0  0  0  0
  -26.2780  -10.0565   22.3179 N   0  0  0  0  0  0  0  0  0  0  0  0
  -25.8654  -18.4886   19.9577 N   0  0  0  0  0  0  0  0  0  0  0  0
  -26.5949  -22.1748   16.8456 N   0  0  0  0  0  0  0  0  0  0  0  0
  -25.7790  -32.3850   23.3789 N   0  0  0  0  0  0  0  0  0  0  0  0
  -20.4002  -28.8519   22.1054 N   0  0  0  0  0  0  0  0  0  0  0  0
  -19.0888  -27.6001   18.9780 N   0  3  0  0  0  0  0  0  0  0  0  0
  -27.7661  -11.7697   22.6481 O   0  0  0  0  0  0  0  0  0  0  0  0
  -25.7518  -30.0670   23.5996 O   0  0  0  0  0  0  0  0  0  0  0  0
  -21.8676  -31.2193   22.7767 O   0  0  0  0  0  0  0  0  0  0  0  0
  -20.9854  -26.9310   20.9456 O   0  0  0  0  0  0  0  0  0  0  0  0
  -24.1367  -19.9825   20.3592 O   0  0  0  0  0  0  0  0  0  0  0  0
  -25.6659  -24.5659   16.9937 O   0  0  0  0  0  0  0  0  0  0  0  0
  -25.9416  -23.2652   19.1332 O   0  0  0  0  0  0  0  0  0  0  0  0
  -21.5594   -7.2444   21.3891 O   0  0  0  0  0  0  0  0  0  0  0  0
  -27.5551  -25.8325   19.5374 O   0  0  0  0  0  0  0  0  0  1  0  0
  -22.7525   -3.2553   25.0040 F   0  0  0  0  0  0  0  0  0  0  0  0
  -30.0658  -18.9072   17.6770 F   0  0  0  0  0  0  0  0  0  0  0  0
  -19.5907   -6.1436   22.9875 F   0  0  0  0  0  0  0  0  0  0  0  0
  -26.3975  -23.5956   17.7934 S   0  0  0  0  0  0  0  0  0  0  0  0
  1  2  1  0  0  0  0
  1  5  2  0  0  0  0
  2  6  2  0  0  0  0
  3  8  2  0  0  0  0
  3 17  1  0  0  0  0
  4  9  1  0  0  0  0
  4 17  2  0  0  0  0
  5 19  1  0  0  0  0
  6 21  1  0  0  0  0
  7 10  2  0  0  0  0
  7 20  1  0  0  0  0
  8 26  1  0  0  0  0
  9 26  2  0  0  0  0
 10 27  1  0  0  0  0
 11 12  2  0  0  0  0
 11 28  1  0  0  0  0
 12 29  1  0  0  0  0
 13 22  1  0  0  0  0
 13 27  2  0  0  0  0
 14 24  2  0  0  0  0
 14 25  1  0  0  0  0
 15 24  1  0  0  0  0
 15 30  2  0  0  0  0
 16 29  2  0  0  0  0
 16 31  1  0  0  0  0
 17 32  1  0  0  0  0
 18 32  1  0  0  0  0
 18 33  2  0  0  0  0
 18 34  1  0  0  0  0
 19 21  2  0  0  0  0
 19 39  1  0  0  0  0
 20 22  2  0  0  0  0
 20 40  1  0  0  0  0
 21 48  1  0  0  0  0
 22 41  1  0  0  0  0
 23 25  2  0  0  0  0
 23 30  1  0  0  0  0
 23 51  1  0  0  0  0
 24 68  1  0  0  0  0
 25 69  1  0  0  0  0
 26 80  1  0  0  0  0
 27 81  1  0  0  0  0
 28 31  2  0  0  0  0
 28 80  1  0  0  0  0
 29 82  1  0  0  0  0
 30 83  1  0  0  0  0
 31 84  1  0  0  0  0
 32 62  2  0  0  0  0
 33 63  1  0  0  0  0
 33 66  1  0  0  0  0
 34 67  1  0  0  0  0
 34 73  2  0  0  0  0
 35 49  1  0  0  0  0
 35 70  1  0  0  0  0
 35 74  2  0  0  0  0
 36 59  1  0  0  0  0
 36 64  1  0  0  0  0
 36 75  2  0  0  0  0
 37 60  1  0  0  0  0
 37 71  1  0  0  0  0
 37 76  2  0  0  0  0
 38 65  1  0  0  0  0
 38 68  1  0  0  0  0
 38 77  2  0  0  0  0
 39 42  1  0  0  0  0
 40 49  1  0  0  0  0
 41 64  1  0  0  0  0
 42 44  1  0  0  0  0
 43 45  1  0  0  0  0
 43 46  1  0  0  0  0
 44 48  1  0  0  0  0
 45 50  1  0  0  0  0
 46 65  1  0  0  0  0
 47 50  1  0  0  0  0
 47 65  1  0  0  0  0
 48 70  1  0  0  0  0
 49 64  1  0  0  0  0
 50 63  1  0  0  0  0
 52 60  1  0  0  0  0
 53 61  1  0  0  0  0
 54 61  1  0  0  0  0
 55 61  1  0  0  0  0
 56 72  1  0  0  0  0
 57 58  1  0  0  0  0
 57 81  1  0  0  0  0
 58 85  1  0  0  0  0
 59 61  1  0  0  0  0
 59 71  1  0  0  0  0
 60 72  1  0  0  0  0
 62 63  1  0  0  0  0
 69 85  1  0  0  0  0
 78 85  2  0  0  0  0
 79 85  2  0  0  0  0
M  CHG  1  72   1
M  ISO  4  38 100  57 101  68 100  81 101
M  END
> <Batch ID>
0064

> <Smiles>
CNC(C)C(=O)NC(C(=O)N1Cc2cc([101O:1][101CH2:1]CS(=O)(=O)Nc3cc([100NH:0][100C:0](=O)N4CCCC(n5nc(-c6ccc(Oc7ccc(F)cc7F)cc6)c(C(N)=O)c5N)C4)cc(F)c3C)ccc2CC1C(=O)NC1CCCc2ccccc21)C(C)(C)C

> <Shape>
0.258

> <Color>
0.082

> <Negative vol penalty>
0.000

$$$$

  -OEChem-04042323153D

 86 95  0     1  0  0  0  0  0999 V2000
  -18.0666  -29.2906   22.1016 C   0  0  0  0  0  0  0  0  0  0  0  0
  -19.3337  -29.7225   22.4802 C   0  0  0  0  0  0  0  0  0  0  0  0
  -23.0577  -10.0692   21.7529 C   0  0  0  0  0  0  0  0  0  0  0  0
  -24.7064  -10.6379   23.4248 C   0  0  0  0  0  0  0  0  0  0  0  0
  -17.7374  -27.9385   22.1883 C   0  0  0  0  0  0  0  0  0  0  0  0
  -20.2720  -28.8026   22.9468 C   0  0  0  0  0  0  0  0  0  0  0  0
  -27.4906  -27.2810   20.3771 C   0  0  0  0  0  0  0  0  0  0  0  0
  -31.7848  -19.2199   19.9233 C   0  0  0  0  0  0  0  0  0  0  0  0
  -31.3400  -17.9220   19.6722 C   0  0  0  0  0  0  0  0  0  0  0  0
  -22.4906   -9.1422   22.6273 C   0  0  0  0  0  0  0  0  0  0  0  0
  -24.1393   -9.7109   24.2993 C   0  0  0  0  0  0  0  0  0  0  0  0
  -28.7208  -26.8128   19.9151 C   0  0  0  0  0  0  0  0  0  0  0  0
  -23.1444   -6.0029   23.6958 C   0  0  0  0  0  0  0  0  0  0  0  0
  -22.8167   -4.7471   23.1847 C   0  0  0  0  0  0  0  0  0  0  0  0
  -28.2661  -24.6400   20.8743 C   0  0  0  0  0  0  0  0  0  0  0  0
  -29.4952  -19.9693   20.1057 C   0  0  0  0  0  0  0  0  0  0  0  0
  -20.5028   -5.1096   23.7776 C   0  0  0  0  0  0  0  0  0  0  0  0
  -24.1656  -10.8170   22.1516 C   0  0  0  0  0  0  0  0  0  0  0  0
  -24.1253  -12.8965   20.6746 C   0  0  0  0  0  0  0  0  0  0  0  0
  -18.6754  -27.0003   22.6470 C   0  0  0  0  0  0  0  0  0  0  0  0
  -26.6358  -26.4250   21.0771 C   0  0  0  0  0  0  0  0  0  0  0  0
  -19.9547  -27.4369   23.0410 C   0  0  0  0  0  0  0  0  0  0  0  0
  -27.0273  -25.0998   21.3288 C   0  0  0  0  0  0  0  0  0  0  0  0
  -29.0504  -18.6713   19.8545 C   0  0  0  0  0  0  0  0  0  0  0  0
  -30.8624  -20.2436   20.1401 C   0  0  0  0  0  0  0  0  0  0  0  0
  -29.9728  -17.6476   19.6378 C   0  0  0  0  0  0  0  0  0  0  0  0
  -23.0314   -8.9631   23.9006 C   0  0  0  0  0  0  0  0  0  0  0  0
  -29.1077  -25.4956   20.1633 C   0  0  0  0  0  0  0  0  0  0  0  0
  -22.1513   -6.8120   24.2479 C   0  0  0  0  0  0  0  0  0  0  0  0
  -21.4959   -4.3005   23.2255 C   0  0  0  0  0  0  0  0  0  0  0  0
  -20.8305   -6.3654   24.2888 C   0  0  0  0  0  0  0  0  0  0  0  0
  -24.7522  -11.7743   21.2485 C   0  0  0  0  0  0  0  0  0  0  0  0
  -25.1004  -13.4757   19.8997 C   0  0  0  0  0  0  0  0  0  0  0  0
  -32.5720  -21.7444   21.0574 C   0  0  0  0  0  0  0  0  0  0  0  0
  -30.4989  -22.6651   19.9778 C   0  0  0  0  0  0  0  0  0  0  0  0
  -22.7817  -13.3729   20.8282 C   0  0  0  0  0  0  0  0  0  0  0  0
  -23.3445  -25.9828   22.8228 C   0  0  0  0  0  0  0  0  0  0  0  0
  -23.8535  -23.4185   21.2179 C   0  0  0  0  0  0  0  0  0  0  0  0
  -24.5858  -20.9450   18.9858 C   0  0  0  0  0  0  0  0  0  0  0  0
  -30.3403  -15.2034   19.1508 C   0  0  0  0  0  0  0  0  0  0  0  0
  -18.2580  -25.5560   22.7679 C   0  0  0  0  0  0  0  0  0  0  0  0
  -25.3282  -26.9040   21.6467 C   0  0  0  0  0  0  0  0  0  0  0  0
  -26.0904  -24.2248   22.1159 C   0  0  0  0  0  0  0  0  0  0  0  0
  -33.1168  -23.1536   21.1786 C   0  0  0  0  0  0  0  0  0  0  0  0
  -19.4329  -24.5930   22.9187 C   0  0  0  0  0  0  0  0  0  0  0  0
  -32.4396  -24.1517   20.2722 C   0  0  0  0  0  0  0  0  0  0  0  0
  -29.6607  -11.7656   18.5213 C   0  0  0  0  0  0  0  0  0  0  0  0
  -20.4214  -25.1153   23.9564 C   0  0  0  0  0  0  0  0  0  0  0  0
  -28.2716  -11.5537   19.1275 C   0  0  0  0  0  0  0  0  0  0  0  0
  -30.5014  -12.7320   19.3537 C   0  0  0  0  0  0  0  0  0  0  0  0
  -28.4740  -13.8117   20.2442 C   0  0  0  0  0  0  0  0  0  0  0  0
  -21.0080  -26.4660   23.5287 C   0  0  1  0  0  0  0  0  0  0  0  0
  -30.9456  -24.0307   20.4623 C   0  0  1  0  0  0  0  0  0  1  0  0
  -24.2280  -25.8278   21.6200 C   0  0  1  0  0  0  0  0  0  0  0  0
  -27.5673  -12.8962   19.4056 C   0  0  2  0  0  0  0  0  0  0  0  0
  -27.5802  -18.4055   19.8255 C   0  0  0  0  0  0  0  0  0  0  0  0
  -23.7136  -18.7614   18.1090 C   0  0  0  0  0  0  0  0  0  0  0  0
  -24.7760  -22.0289   23.7717 C   0  0  0  0  0  0  0  0  0  0  0  0
  -24.7809  -19.8669   22.5090 C   0  0  0  0  0  0  0  0  0  0  0  0
  -22.6513  -21.1318   22.8046 C   0  0  0  0  0  0  0  0  0  0  0  0
  -24.3594  -22.0079   16.2330 C   0  0  0  0  0  0  0  0  0  0  0  0
  -24.4081  -22.0165   21.2162 C   0  0  1  0  0  0  0  0  0  0  0  0
  -23.7441  -20.2699   17.9180 C   0  0  2  0  0  0  0  0  0  0  0  0
  -24.1695  -21.2831   22.5663 C   0  0  0  0  0  0  0  0  0  0  0  0
  -26.0268  -11.6462   20.8704 N   0  0  0  0  0  0  0  0  0  0  0  0
  -26.2087  -12.6954   20.0505 N   0  0  0  0  0  0  0  0  0  0  0  0
  -31.3248  -21.5916   20.4037 N   0  0  0  0  0  0  0  0  0  0  0  0
  -24.7065  -24.4356   21.6632 N   0  0  0  0  0  0  0  0  0  0  0  0
  -29.7721  -13.9830   19.5732 N   0  0  0  0  0  0  0  0  0  0  0  0
  -25.1091  -14.5712   19.1109 N   0  0  0  0  0  0  0  0  0  0  0  0
  -22.5092  -14.2829   21.8587 N   0  0  0  0  0  0  0  0  0  0  0  0
  -29.5411  -16.3224   19.3828 N   0  0  0  0  0  0  0  0  0  0  0  0
  -22.0287  -26.2772   22.5203 N   0  0  0  0  0  0  0  0  0  0  0  0
  -23.8212  -21.3468   20.0606 N   0  0  0  0  0  0  0  0  0  0  0  0
  -24.2941  -20.5611   16.5639 N   0  3  0  0  0  0  0  0  0  0  0  0
  -33.2013  -20.8340   21.6062 O   0  0  0  0  0  0  0  0  0  0  0  0
  -29.5098  -22.5633   19.2491 O   0  0  0  0  0  0  0  0  0  0  0  0
  -21.8472  -12.9900   20.0841 O   0  0  0  0  0  0  0  0  0  0  0  0
  -23.8201  -25.8442   23.9437 O   0  0  0  0  0  0  0  0  0  0  0  0
  -22.6939  -23.6089   20.8406 O   0  0  0  0  0  0  0  0  0  0  0  0
  -25.8007  -21.0972   18.8789 O   0  0  0  0  0  0  0  0  0  0  0  0
  -31.4420  -15.2493   18.5976 O   0  0  0  0  0  0  0  0  0  0  0  0
  -22.4781   -8.0588   24.7542 O   0  0  0  0  0  0  0  0  0  0  0  0
  -30.3080  -25.0436   19.7054 O   0  0  0  0  0  0  0  0  0  1  0  0
  -21.1811   -3.0952   22.7333 F   0  0  0  0  0  0  0  0  0  0  0  0
  -19.8719   -7.1387   24.8169 F   0  0  0  0  0  0  0  0  0  0  0  0
  1  2  1  0  0  0  0
  1  5  2  0  0  0  0
  2  6  2  0  0  0  0
  3 10  2  0  0  0  0
  3 18  1  0  0  0  0
  4 11  1  0  0  0  0
  4 18  2  0  0  0  0
  5 20  1  0  0  0  0
  6 22  1  0  0  0  0
  7 12  2  0  0  0  0
  7 21  1  0  0  0  0
  8  9  2  0  0  0  0
  8 25  1  0  0  0  0
  9 26  1  0  0  0  0
 10 27  1  0  0  0  0
 11 27  2  0  0  0  0
 12 28  1  0  0  0  0
 13 14  2  0  0  0  0
 13 29  1  0  0  0  0
 14 30  1  0  0  0  0
 15 23  1  0  0  0  0
 15 28  2  0  0  0  0
 16 24  1  0  0  0  0
 16 25  2  0  0  0  0
 17 30  2  0  0  0  0
 17 31  1  0  0  0  0
 18 32  1  0  0  0  0
 19 32  1  0  0  0  0
 19 33  2  0  0  0  0
 19 36  1  0  0  0  0
 20 22  2  0  0  0  0
 20 41  1  0  0  0  0
 21 23  2  0  0  0  0
 21 42  1  0  0  0  0
 22 52  1  0  0  0  0
 23 43  1  0  0  0  0
 24 26  2  0  0  0  0
 24 56  1  0  0  0  0
 25 67  1  0  0  0  0
 26 72  1  0  0  0  0
 27 83  1  0  0  0  0
 28 84  1  0  0  0  0
 29 31  2  0  0  0  0
 29 83  1  0  0  0  0
 30 85  1  0  0  0  0
 31 86  1  0  0  0  0
 32 65  2  0  0  0  0
 33 66  1  0  0  0  0
 33 70  1  0  0  0  0
 34 44  1  0  0  0  0
 34 67  1  0  0  0  0
 34 76  2  0  0  0  0
 35 53  1  0  0  0  0
 35 67  1  0  0  0  0
 35 77  2  0  0  0  0
 36 71  1  0  0  0  0
 36 78  2  0  0  0  0
 37 54  1  0  0  0  0
 37 73  1  0  0  0  0
 37 79  2  0  0  0  0
 38 62  1  0  0  0  0
 38 68  1  0  0  0  0
 38 80  2  0  0  0  0
 39 63  1  0  0  0  0
 39 74  1  0  0  0  0
 39 81  2  0  0  0  0
 40 69  1  0  0  0  0
 40 72  1  0  0  0  0
 40 82  2  0  0  0  0
 41 45  1  0  0  0  0
 42 54  1  0  0  0  0
 43 68  1  0  0  0  0
 44 46  1  0  0  0  0
 45 48  1  0  0  0  0
 46 53  1  0  0  0  0
 47 49  1  0  0  0  0
 47 50  1  0  0  0  0
 48 52  1  0  0  0  0
 49 55  1  0  0  0  0
 50 69  1  0  0  0  0
 51 55  1  0  0  0  0
 51 69  1  0  0  0  0
 52 73  1  0  0  0  0
 53 84  1  0  0  0  0
 54 68  1  0  0  0  0
 55 66  1  0  0  0  0
 57 63  1  0  0  0  0
 58 64  1  0  0  0  0
 59 64  1  0  0  0  0
 60 64  1  0  0  0  0
 61 75  1  0  0  0  0
 62 64  1  0  0  0  0
 62 74  1  0  0  0  0
 63 75  1  0  0  0  0
 65 66  1  0  0  0  0
M  CHG  1  75   1
M  ISO  4  40 100  53 101  72 100  84 101
M  END
> <Batch ID>
0064

> <Smiles>
CNC(C)C(=O)NC(C(=O)N1Cc2cc([101O:1][101CH:1]3CCC(=O)N(c4ccc([100NH:0][100C:0](=O)N5CCCC(n6nc(-c7ccc(Oc8ccc(F)cc8F)cc7)c(C(N)=O)c6N)C5)c(C)c4)C3=O)ccc2CC1C(=O)NC1CCCc2ccccc21)C(C)(C)C

> <Shape>
0.252

> <Color>
0.117

> <Negative vol penalty>
0.000

$$$$

  -OEChem-04042323153D

 83 91  0     1  0  0  0  0  0999 V2000
  -25.0593   -9.9824   25.5744 C   0  0  0  0  0  0  0  0  0  0  0  0
  -25.3675  -11.3377   25.5140 C   0  0  0  0  0  0  0  0  0  0  0  0
  -22.6656  -10.1824   20.1258 C   0  0  0  0  0  0  0  0  0  0  0  0
  -24.2815   -9.4430   21.7627 C   0  0  0  0  0  0  0  0  0  0  0  0
  -23.7610   -9.5768   25.8805 C   0  0  0  0  0  0  0  0  0  0  0  0
  -24.3771  -12.2883   25.7587 C   0  0  0  0  0  0  0  0  0  0  0  0
  -25.9683  -16.0134   28.7978 C   0  0  0  0  0  0  0  0  0  0  0  0
  -31.2640  -19.0976   20.8794 C   0  0  0  0  0  0  0  0  0  0  0  0
  -31.1064  -17.7136   20.8074 C   0  0  0  0  0  0  0  0  0  0  0  0
  -21.9314   -9.0128   20.3222 C   0  0  0  0  0  0  0  0  0  0  0  0
  -23.5472   -8.2734   21.9592 C   0  0  0  0  0  0  0  0  0  0  0  0
  -26.7673  -17.0033   28.2271 C   0  0  0  0  0  0  0  0  0  0  0  0
  -20.7620   -7.3335   23.6263 C   0  0  0  0  0  0  0  0  0  0  0  0
  -20.5465   -6.9184   24.9404 C   0  0  0  0  0  0  0  0  0  0  0  0
  -24.8464  -18.4539   28.0687 C   0  0  0  0  0  0  0  0  0  0  0  0
  -29.4784  -17.8062   22.5902 C   0  0  0  0  0  0  0  0  0  0  0  0
  -21.6915   -4.8430   24.4726 C   0  0  0  0  0  0  0  0  0  0  0  0
  -23.8407  -10.3975   20.8459 C   0  0  0  0  0  0  0  0  0  0  0  0
  -24.1627  -12.9281   20.8444 C   0  0  0  0  0  0  0  0  0  0  0  0
  -22.7564  -10.5229   26.1386 C   0  0  0  0  0  0  0  0  0  0  0  0
  -24.5979  -16.2328   28.9985 C   0  0  0  0  0  0  0  0  0  0  0  0
  -23.0637  -11.8950   26.0673 C   0  0  0  0  0  0  0  0  0  0  0  0
  -24.0328  -17.4662   28.6444 C   0  0  0  0  0  0  0  0  0  0  0  0
  -30.5288  -19.8360   21.8069 C   0  0  0  0  0  0  0  0  0  0  0  0
  -30.2136  -17.0679   21.6628 C   0  0  0  0  0  0  0  0  0  0  0  0
  -29.6360  -19.1903   22.6622 C   0  0  0  0  0  0  0  0  0  0  0  0
  -22.3722   -8.0583   21.2390 C   0  0  0  0  0  0  0  0  0  0  0  0
  -26.2058  -18.2227   27.8598 C   0  0  0  0  0  0  0  0  0  0  0  0
  -21.4421   -6.5032   22.7352 C   0  0  0  0  0  0  0  0  0  0  0  0
  -21.0113   -5.6732   25.3635 C   0  0  0  0  0  0  0  0  0  0  0  0
  -21.9069   -5.2580   23.1584 C   0  0  0  0  0  0  0  0  0  0  0  0
  -24.5999  -11.6052   20.6430 C   0  0  0  0  0  0  0  0  0  0  0  0
  -25.2481  -13.7024   20.5145 C   0  0  0  0  0  0  0  0  0  0  0  0
  -22.8893  -13.4136   21.2898 C   0  0  0  0  0  0  0  0  0  0  0  0
  -21.9290  -14.8807   27.9249 C   0  0  0  0  0  0  0  0  0  0  0  0
  -20.5200  -16.8922   30.0442 C   0  0  0  0  0  0  0  0  0  0  0  0
  -27.9575  -19.4252   24.5254 C   0  0  0  0  0  0  0  0  0  0  0  0
  -20.6934  -19.7820   31.8512 C   0  0  0  0  0  0  0  0  0  0  0  0
  -30.7064  -14.7815   20.7268 C   0  0  0  0  0  0  0  0  0  0  0  0
  -21.3564  -10.0370   26.4189 C   0  0  0  0  0  0  0  0  0  0  0  0
  -23.7551  -15.1647   29.6398 C   0  0  0  0  0  0  0  0  0  0  0  0
  -22.5708  -17.7590   28.8576 C   0  0  0  0  0  0  0  0  0  0  0  0
  -20.4532  -11.1034   27.0332 C   0  0  0  0  0  0  0  0  0  0  0  0
  -29.6049  -12.4733   18.2497 C   0  0  0  0  0  0  0  0  0  0  0  0
  -20.5882  -12.4194   26.2738 C   0  0  0  0  0  0  0  0  0  0  0  0
  -28.1686  -12.1505   18.6681 C   0  0  0  0  0  0  0  0  0  0  0  0
  -30.5211  -12.6524   19.4588 C   0  0  0  0  0  0  0  0  0  0  0  0
  -28.6121  -13.2960   20.8768 C   0  0  0  0  0  0  0  0  0  0  0  0
  -22.0226  -12.9561   26.3508 C   0  0  1  0  0  0  0  0  0  0  0  0
  -22.2691  -15.3069   29.3251 C   0  0  1  0  0  0  0  0  0  0  0  0
  -27.6377  -13.1708   19.6941 C   0  0  2  0  0  0  0  0  0  0  0  0
  -30.7180  -21.3172   21.8617 C   0  0  0  0  0  0  0  0  0  0  0  0
  -19.3726  -21.1792   33.4639 C   0  0  0  0  0  0  0  0  0  0  0  0
  -18.7729  -17.8860   27.7485 C   0  0  0  0  0  0  0  0  0  0  0  0
  -18.1789  -19.8720   29.1525 C   0  0  0  0  0  0  0  0  0  0  0  0
  -17.5683  -17.5778   29.9184 C   0  0  0  0  0  0  0  0  0  0  0  0
  -22.7492  -19.4977   33.9612 C   0  0  0  0  0  0  0  0  0  0  0  0
  -27.3717  -20.5583   25.3603 C   0  0  0  0  0  0  0  0  0  0  0  0
  -26.3520  -20.0813   26.3833 C   0  0  0  0  0  0  0  0  0  1  0  0
  -19.9890  -18.3042   29.9873 C   0  0  1  0  0  0  0  0  0  0  0  0
  -20.4070  -20.0747   33.3130 C   0  0  2  0  0  0  0  0  0  0  0  0
  -18.6545  -18.4041   29.1958 C   0  0  0  0  0  0  0  0  0  0  0  0
  -25.8644  -11.5391   20.2180 N   0  0  0  0  0  0  0  0  0  0  0  0
  -26.2310  -12.8302   20.1495 N   0  0  0  0  0  0  0  0  0  0  0  0
  -21.7870  -16.6806   29.4822 N   0  0  0  0  0  0  0  0  0  0  0  0
  -29.9564  -13.6363   20.3850 N   0  0  0  0  0  0  0  0  0  0  0  0
  -25.4480  -15.0375   20.5039 N   0  0  0  0  0  0  0  0  0  0  0  0
  -22.6857  -13.5910   22.6651 N   0  0  0  0  0  0  0  0  0  0  0  0
  -28.8814  -19.9220   23.6098 N   0  0  0  0  0  0  0  0  0  0  0  0
  -30.0539  -15.6619   21.5892 N   0  0  0  0  0  0  0  0  0  0  0  0
  -22.2637  -13.5710   27.6386 N   0  0  0  0  0  0  0  0  0  0  0  0
  -19.8997  -18.7627   31.3694 N   0  0  0  0  0  0  0  0  0  0  0  0
  -21.6537  -20.5000   34.0100 N   0  3  0  0  0  0  0  0  0  0  0  0
  -21.9540  -13.6666   20.4931 O   0  0  0  0  0  0  0  0  0  0  0  0
  -21.4006  -15.6805   27.1615 O   0  0  0  0  0  0  0  0  0  0  0  0
  -19.8389  -16.0108   30.5742 O   0  0  0  0  0  0  0  0  0  0  0  0
  -27.6215  -18.2564   24.6839 O   0  0  0  0  0  0  0  0  0  0  0  0
  -21.5343  -20.3987   31.2007 O   0  0  0  0  0  0  0  0  0  0  0  0
  -31.8330  -14.9810   20.2652 O   0  0  0  0  0  0  0  0  0  0  0  0
  -21.6559   -6.9171   21.4311 O   0  0  0  0  0  0  0  0  0  0  0  0
  -26.9833  -19.1903   27.3020 O   0  0  0  0  0  0  0  0  0  1  0  0
  -20.8057   -5.2754   26.6259 F   0  0  0  0  0  0  0  0  0  0  0  0
  -22.5620   -4.4566   22.3073 F   0  0  0  0  0  0  0  0  0  0  0  0
  1  2  1  0  0  0  0
  1  5  2  0  0  0  0
  2  6  2  0  0  0  0
  3 10  2  0  0  0  0
  3 18  1  0  0  0  0
  4 11  1  0  0  0  0
  4 18  2  0  0  0  0
  5 20  1  0  0  0  0
  6 22  1  0  0  0  0
  7 12  2  0  0  0  0
  7 21  1  0  0  0  0
  8  9  2  0  0  0  0
  8 24  1  0  0  0  0
  9 25  1  0  0  0  0
 10 27  1  0  0  0  0
 11 27  2  0  0  0  0
 12 28  1  0  0  0  0
 13 14  2  0  0  0  0
 13 29  1  0  0  0  0
 14 30  1  0  0  0  0
 15 23  1  0  0  0  0
 15 28  2  0  0  0  0
 16 25  2  0  0  0  0
 16 26  1  0  0  0  0
 17 30  2  0  0  0  0
 17 31  1  0  0  0  0
 18 32  1  0  0  0  0
 19 32  1  0  0  0  0
 19 33  2  0  0  0  0
 19 34  1  0  0  0  0
 20 22  2  0  0  0  0
 20 40  1  0  0  0  0
 21 23  2  0  0  0  0
 21 41  1  0  0  0  0
 22 49  1  0  0  0  0
 23 42  1  0  0  0  0
 24 26  2  0  0  0  0
 24 52  1  0  0  0  0
 25 70  1  0  0  0  0
 26 69  1  0  0  0  0
 27 80  1  0  0  0  0
 28 81  1  0  0  0  0
 29 31  2  0  0  0  0
 29 80  1  0  0  0  0
 30 82  1  0  0  0  0
 31 83  1  0  0  0  0
 32 63  2  0  0  0  0
 33 64  1  0  0  0  0
 33 67  1  0  0  0  0
 34 68  1  0  0  0  0
 34 74  2  0  0  0  0
 35 50  1  0  0  0  0
 35 71  1  0  0  0  0
 35 75  2  0  0  0  0
 36 60  1  0  0  0  0
 36 65  1  0  0  0  0
 36 76  2  0  0  0  0
 37 58  1  0  0  0  0
 37 69  1  0  0  0  0
 37 77  2  0  0  0  0
 38 61  1  0  0  0  0
 38 72  1  0  0  0  0
 38 78  2  0  0  0  0
 39 66  1  0  0  0  0
 39 70  1  0  0  0  0
 39 79  2  0  0  0  0
 40 43  1  0  0  0  0
 41 50  1  0  0  0  0
 42 65  1  0  0  0  0
 43 45  1  0  0  0  0
 44 46  1  0  0  0  0
 44 47  1  0  0  0  0
 45 49  1  0  0  0  0
 46 51  1  0  0  0  0
 47 66  1  0  0  0  0
 48 51  1  0  0  0  0
 48 66  1  0  0  0  0
 49 71  1  0  0  0  0
 50 65  1  0  0  0  0
 51 64  1  0  0  0  0
 53 61  1  0  0  0  0
 54 62  1  0  0  0  0
 55 62  1  0  0  0  0
 56 62  1  0  0  0  0
 57 73  1  0  0  0  0
 58 59  1  0  0  0  0
 59 81  1  0  0  0  0
 60 62  1  0  0  0  0
 60 72  1  0  0  0  0
 61 73  1  0  0  0  0
 63 64  1  0  0  0  0
M  CHG  1  73   1
M  ISO  4  39 100  59 101  70 100  81 101
M  END
> <Batch ID>
0064

> <Smiles>
CNC(C)C(=O)NC(C(=O)N1Cc2cc([101O:1][101CH2:1]CC(=O)Nc3cc([100NH:0][100C:0](=O)N4CCCC(n5nc(-c6ccc(Oc7ccc(F)cc7F)cc6)c(C(N)=O)c5N)C4)ccc3C)ccc2CC1C(=O)NC1CCCc2ccccc21)C(C)(C)C

> <Shape>
0.192

> <Color>
0.178

> <Negative vol penalty>
0.000

$$$$

  -OEChem-04042323153D

 86 94  0     1  0  0  0  0  0999 V2000
  -29.4601  -18.1692   14.9613 C   0  0  0  0  0  0  0  0  0  0  0  0
  -29.6071  -18.4439   16.3172 C   0  0  0  0  0  0  0  0  0  0  0  0
  -23.0018   -9.8921   19.9810 C   0  0  0  0  0  0  0  0  0  0  0  0
  -23.7265   -9.9440   22.2851 C   0  0  0  0  0  0  0  0  0  0  0  0
  -32.6420  -17.4533   23.4552 C   0  0  0  0  0  0  0  0  0  0  0  0
  -30.3637  -18.6999   14.0417 C   0  0  0  0  0  0  0  0  0  0  0  0
  -30.6586  -19.2488   16.7543 C   0  0  0  0  0  0  0  0  0  0  0  0
  -30.5727  -23.1972   21.4350 C   0  0  0  0  0  0  0  0  0  0  0  0
  -32.0542  -16.5555   22.5642 C   0  0  0  0  0  0  0  0  0  0  0  0
  -22.2359   -8.7572   20.2474 C   0  0  0  0  0  0  0  0  0  0  0  0
  -22.9606   -8.8091   22.5516 C   0  0  0  0  0  0  0  0  0  0  0  0
  -31.0116  -23.0974   22.7545 C   0  0  0  0  0  0  0  0  0  0  0  0
  -23.2070   -5.4702   22.0805 C   0  0  0  0  0  0  0  0  0  0  0  0
  -23.7951   -4.4536   22.8329 C   0  0  0  0  0  0  0  0  0  0  0  0
  -33.0897  -24.1555   22.1370 C   0  0  0  0  0  0  0  0  0  0  0  0
  -29.8753  -17.4529   23.0972 C   0  0  0  0  0  0  0  0  0  0  0  0
  -22.0707   -4.6958   24.5078 C   0  0  0  0  0  0  0  0  0  0  0  0
  -23.7472  -10.4855   20.9998 C   0  0  0  0  0  0  0  0  0  0  0  0
  -31.8464  -18.3509   24.1674 C   0  0  0  0  0  0  0  0  0  0  0  0
  -24.1310  -13.0013   20.8233 C   0  0  0  0  0  0  0  0  0  0  0  0
  -31.4211  -19.5195   14.4668 C   0  0  0  0  0  0  0  0  0  0  0  0
  -31.3947  -23.7680   20.4527 C   0  0  0  0  0  0  0  0  0  0  0  0
  -31.5780  -19.7898   15.8396 C   0  0  0  0  0  0  0  0  0  0  0  0
  -32.6578  -24.2637   20.8062 C   0  0  0  0  0  0  0  0  0  0  0  0
  -30.4631  -18.3507   23.9883 C   0  0  0  0  0  0  0  0  0  0  0  0
  -30.6709  -16.5553   22.3851 C   0  0  0  0  0  0  0  0  0  0  0  0
  -22.2153   -8.2157   21.5327 C   0  0  0  0  0  0  0  0  0  0  0  0
  -32.2714  -23.5739   23.1051 C   0  0  0  0  0  0  0  0  0  0  0  0
  -22.0509   -6.0998   22.5417 C   0  0  0  0  0  0  0  0  0  0  0  0
  -23.2269   -4.0663   24.0466 C   0  0  0  0  0  0  0  0  0  0  0  0
  -21.4827   -5.7125   23.7554 C   0  0  0  0  0  0  0  0  0  0  0  0
  -24.5390  -11.6575   20.7251 C   0  0  0  0  0  0  0  0  0  0  0  0
  -25.2404  -13.7245   20.4590 C   0  0  0  0  0  0  0  0  0  0  0  0
  -32.4890  -19.2934   25.1051 C   0  0  0  0  0  0  0  0  0  0  0  0
  -22.8626  -13.5470   21.2095 C   0  0  0  0  0  0  0  0  0  0  0  0
  -32.7311  -22.7262   17.7634 C   0  0  0  0  0  0  0  0  0  0  0  0
  -33.5993  -25.8359   17.4491 C   0  0  0  0  0  0  0  0  0  0  0  0
  -34.2405  -28.8312   18.9537 C   0  0  0  0  0  0  0  0  0  0  0  0
  -30.7192  -14.6889   20.6937 C   0  0  0  0  0  0  0  0  0  0  0  0
  -32.4005  -20.0316   13.4405 C   0  0  0  0  0  0  0  0  0  0  0  0
  -30.8959  -23.8925   19.0392 C   0  0  0  0  0  0  0  0  0  0  0  0
  -33.5705  -24.9036   19.7933 C   0  0  0  0  0  0  0  0  0  0  0  0
  -33.2678  -21.1813   13.9467 C   0  0  0  0  0  0  0  0  0  0  0  0
  -29.6028  -12.2349   18.3681 C   0  0  0  0  0  0  0  0  0  0  0  0
  -33.8226  -20.8618   15.3313 C   0  0  0  0  0  0  0  0  0  0  0  0
  -28.1523  -11.9764   18.7821 C   0  0  0  0  0  0  0  0  0  0  0  0
  -30.5030  -12.4791   19.5780 C   0  0  0  0  0  0  0  0  0  0  0  0
  -28.5869  -13.2671   20.9110 C   0  0  0  0  0  0  0  0  0  0  0  0
  -32.6912  -20.6788   16.3501 C   0  0  1  0  0  0  0  0  0  0  0  0
  -32.0214  -24.0259   18.0179 C   0  0  1  0  0  0  0  0  0  0  0  0
  -27.6296  -13.0799   19.7227 C   0  0  2  0  0  0  0  0  0  0  0  0
  -29.5905  -19.3040   24.7372 C   0  0  0  0  0  0  0  0  0  0  0  0
  -34.9663  -31.1779   18.4407 C   0  0  0  0  0  0  0  0  0  0  0  0
  -34.6064  -24.1834   26.5924 C   0  0  0  0  0  0  0  0  0  0  0  0
  -36.3225  -22.8872   25.3140 C   0  0  0  0  0  0  0  0  0  0  0  0
  -36.4721  -24.8686   17.1007 C   0  0  0  0  0  0  0  0  0  0  0  0
  -37.2405  -27.2096   17.5452 C   0  0  0  0  0  0  0  0  0  0  0  0
  -35.8031  -26.7254   15.5648 C   0  0  0  0  0  0  0  0  0  0  0  0
  -31.7142  -29.9646   19.9988 C   0  0  0  0  0  0  0  0  0  0  0  0
  -33.5258  -21.5041   25.4718 C   0  0  0  0  0  0  0  0  0  0  0  0
  -34.7867  -26.6630   17.8790 C   0  0  1  0  0  0  0  0  0  0  0  0
  -33.7828  -30.2411   18.6266 C   0  0  2  0  0  0  0  0  0  0  0  0
  -34.9871  -23.6358   25.2159 C   0  0  0  0  0  0  0  0  0  0  0  0
  -33.8907  -22.7216   24.6241 C   0  0  2  0  0  0  0  0  0  1  0  0
  -36.0594  -26.3529   17.0414 C   0  0  0  0  0  0  0  0  0  0  0  0
  -25.8084  -11.5317   20.3292 N   0  0  0  0  0  0  0  0  0  0  0  0
  -26.2076  -12.8057   20.1753 N   0  0  0  0  0  0  0  0  0  0  0  0
  -33.0401  -24.9965   18.4231 N   0  0  0  0  0  0  0  0  0  0  0  0
  -29.9472  -13.5399   20.4210 N   0  0  0  0  0  0  0  0  0  0  0  0
  -25.4730  -15.0503   20.3567 N   0  0  0  0  0  0  0  0  0  0  0  0
  -32.6510  -18.9078   26.3708 N   0  0  0  0  0  0  0  0  0  0  0  0
  -21.8313  -12.6623   21.5531 N   0  0  0  0  0  0  0  0  0  0  0  0
  -30.0742  -15.6439   21.4790 N   0  0  0  0  0  0  0  0  0  0  0  0
  -32.1662  -21.9640   16.7587 N   0  0  0  0  0  0  0  0  0  0  0  0
  -34.3570  -28.0559   17.8194 N   0  0  0  0  0  0  0  0  0  0  0  0
  -32.8751  -20.4877   24.6408 N   0  3  0  0  0  0  0  0  0  0  0  0
  -32.9279  -30.7759   19.7239 N   0  3  0  0  0  0  0  0  0  0  0  0
  -22.6451  -14.7822   21.2330 O   0  0  0  0  0  0  0  0  0  0  0  0
  -33.7191  -22.4371   18.4282 O   0  0  0  0  0  0  0  0  0  0  0  0
  -33.1788  -25.9363   16.2938 O   0  0  0  0  0  0  0  0  0  0  0  0
  -34.4750  -28.4562   20.1004 O   0  0  0  0  0  0  0  0  0  0  0  0
  -31.8579  -14.8284   20.2399 O   0  0  0  0  0  0  0  0  0  0  0  0
  -21.4678   -7.1084   21.7932 O   0  0  0  0  0  0  0  0  0  0  0  0
  -32.7026  -23.4771   24.3922 O   0  0  0  0  0  0  0  0  0  1  0  0
  -23.7908   -3.0889   24.7683 F   0  0  0  0  0  0  0  0  0  0  0  0
  -20.3714   -6.3128   24.2030 F   0  0  0  0  0  0  0  0  0  0  0  0
  1  2  1  0  0  0  0
  1  6  2  0  0  0  0
  2  7  2  0  0  0  0
  3 10  2  0  0  0  0
  3 18  1  0  0  0  0
  4 11  1  0  0  0  0
  4 18  2  0  0  0  0
  5  9  2  0  0  0  0
  5 19  1  0  0  0  0
  6 21  1  0  0  0  0
  7 23  1  0  0  0  0
  8 12  2  0  0  0  0
  8 22  1  0  0  0  0
  9 26  1  0  0  0  0
 10 27  1  0  0  0  0
 11 27  2  0  0  0  0
 12 28  1  0  0  0  0
 13 14  2  0  0  0  0
 13 29  1  0  0  0  0
 14 30  1  0  0  0  0
 15 24  1  0  0  0  0
 15 28  2  0  0  0  0
 16 25  1  0  0  0  0
 16 26  2  0  0  0  0
 17 30  2  0  0  0  0
 17 31  1  0  0  0  0
 18 32  1  0  0  0  0
 19 25  2  0  0  0  0
 19 34  1  0  0  0  0
 20 32  1  0  0  0  0
 20 33  2  0  0  0  0
 20 35  1  0  0  0  0
 21 23  2  0  0  0  0
 21 40  1  0  0  0  0
 22 24  2  0  0  0  0
 22 41  1  0  0  0  0
 23 49  1  0  0  0  0
 24 42  1  0  0  0  0
 25 52  1  0  0  0  0
 26 73  1  0  0  0  0
 27 83  1  0  0  0  0
 28 84  1  0  0  0  0
 29 31  2  0  0  0  0
 29 83  1  0  0  0  0
 30 85  1  0  0  0  0
 31 86  1  0  0  0  0
 32 66  2  0  0  0  0
 33 67  1  0  0  0  0
 33 70  1  0  0  0  0
 34 71  1  0  0  0  0
 34 76  2  0  0  0  0
 35 72  1  0  0  0  0
 35 78  2  0  0  0  0
 36 50  1  0  0  0  0
 36 74  1  0  0  0  0
 36 79  2  0  0  0  0
 37 61  1  0  0  0  0
 37 68  1  0  0  0  0
 37 80  2  0  0  0  0
 38 62  1  0  0  0  0
 38 75  1  0  0  0  0
 38 81  2  0  0  0  0
 39 69  1  0  0  0  0
 39 73  1  0  0  0  0
 39 82  2  0  0  0  0
 40 43  1  0  0  0  0
 41 50  1  0  0  0  0
 42 68  1  0  0  0  0
 43 45  1  0  0  0  0
 44 46  1  0  0  0  0
 44 47  1  0  0  0  0
 45 49  1  0  0  0  0
 46 51  1  0  0  0  0
 47 69  1  0  0  0  0
 48 51  1  0  0  0  0
 48 69  1  0  0  0  0
 49 74  1  0  0  0  0
 50 68  1  0  0  0  0
 51 67  1  0  0  0  0
 53 62  1  0  0  0  0
 54 63  1  0  0  0  0
 55 63  1  0  0  0  0
 56 65  1  0  0  0  0
 57 65  1  0  0  0  0
 58 65  1  0  0  0  0
 59 77  1  0  0  0  0
 60 64  1  0  0  0  0
 60 76  1  0  0  0  0
 61 65  1  0  0  0  0
 61 75  1  0  0  0  0
 62 77  1  0  0  0  0
 63 64  1  0  0  0  0
 64 84  1  0  0  0  0
 66 67  1  0  0  0  0
M  CHG  2  76   1  77   1
M  ISO  4  39 100  64 101  73 100  84 101
M  END
> <Batch ID>
0064

> <Smiles>
CNC(C)C(=O)NC(C(=O)N1Cc2cc([101O:1][101CH:1](CNC(=N)c3ccc([100NH:0][100C:0](=O)N4CCCC(n5nc(-c6ccc(Oc7ccc(F)cc7F)cc6)c(C(N)=O)c5N)C4)cc3C)C(C)C)ccc2CC1C(=O)NC1CCCc2ccccc21)C(C)(C)C

> <Shape>
0.189

> <Color>
0.189

> <Negative vol penalty>
0.000

$$$$

  -OEChem-04042323153D

 84 92  0     1  0  0  0  0  0999 V2000
  -25.1218  -35.4038   22.9051 C   0  0  0  0  0  0  0  0  0  0  0  0
  -25.8275  -34.2206   22.7112 C   0  0  0  0  0  0  0  0  0  0  0  0
  -23.9886  -12.1999   21.1014 C   0  0  0  0  0  0  0  0  0  0  0  0
  -24.9321  -12.3114   18.8801 C   0  0  0  0  0  0  0  0  0  0  0  0
  -23.8269  -35.3653   23.4204 C   0  0  0  0  0  0  0  0  0  0  0  0
  -25.2389  -32.9983   23.0334 C   0  0  0  0  0  0  0  0  0  0  0  0
  -25.9622  -29.4900   19.4538 C   0  0  0  0  0  0  0  0  0  0  0  0
  -30.7692  -20.2607   16.8687 C   0  0  0  0  0  0  0  0  0  0  0  0
  -31.0997  -21.5597   17.2547 C   0  0  0  0  0  0  0  0  0  0  0  0
  -23.1314  -11.1810   20.6862 C   0  0  0  0  0  0  0  0  0  0  0  0
  -24.0749  -11.2924   18.4648 C   0  0  0  0  0  0  0  0  0  0  0  0
  -27.2102  -28.8700   19.4129 C   0  0  0  0  0  0  0  0  0  0  0  0
  -23.3123   -7.8543   20.1088 C   0  0  0  0  0  0  0  0  0  0  0  0
  -23.1730   -6.7445   20.9422 C   0  0  0  0  0  0  0  0  0  0  0  0
  -26.2949  -26.9642   20.5745 C   0  0  0  0  0  0  0  0  0  0  0  0
  -28.7548  -22.1380   17.3168 C   0  0  0  0  0  0  0  0  0  0  0  0
  -20.8065   -7.1892   21.1391 C   0  0  0  0  0  0  0  0  0  0  0  0
  -24.8890  -12.7652   20.1983 C   0  0  0  0  0  0  0  0  0  0  0  0
  -27.0660  -13.6753   21.1677 C   0  0  0  0  0  0  0  0  0  0  0  0
  -23.2185  -34.1413   23.7401 C   0  0  0  0  0  0  0  0  0  0  0  0
  -24.8719  -28.8553   20.0661 C   0  0  0  0  0  0  0  0  0  0  0  0
  -23.9350  -32.9435   23.5548 C   0  0  0  0  0  0  0  0  0  0  0  0
  -25.0335  -27.5772   20.6196 C   0  0  0  0  0  0  0  0  0  0  0  0
  -29.4314  -19.9004   16.7067 C   0  0  0  0  0  0  0  0  0  0  0  0
  -28.4242  -20.8390   16.9308 C   0  0  0  0  0  0  0  0  0  0  0  0
  -30.0926  -22.4983   17.4788 C   0  0  0  0  0  0  0  0  0  0  0  0
  -23.1745  -10.7272   19.3679 C   0  0  0  0  0  0  0  0  0  0  0  0
  -27.3775  -27.6082   19.9758 C   0  0  0  0  0  0  0  0  0  0  0  0
  -22.1986   -8.6317   19.7906 C   0  0  0  0  0  0  0  0  0  0  0  0
  -21.9202   -6.4119   21.4573 C   0  0  0  0  0  0  0  0  0  0  0  0
  -20.9457   -8.2991   20.3057 C   0  0  0  0  0  0  0  0  0  0  0  0
  -25.7743  -13.8183   20.6265 C   0  0  0  0  0  0  0  0  0  0  0  0
  -27.4819  -14.9621   21.4081 C   0  0  0  0  0  0  0  0  0  0  0  0
  -27.8223  -12.4858   21.4298 C   0  0  0  0  0  0  0  0  0  0  0  0
  -22.9920  -29.5174   22.5423 C   0  0  0  0  0  0  0  0  0  0  0  0
  -21.3798  -26.8943   21.5213 C   0  0  0  0  0  0  0  0  0  0  0  0
  -29.5570  -24.8701   18.1358 C   0  0  0  0  0  0  0  0  0  0  0  0
  -21.4355  -23.9458   19.8036 C   0  0  0  0  0  0  0  0  0  0  0  0
  -25.9805  -20.2450   19.0232 C   0  0  0  0  0  0  0  0  0  0  0  0
  -21.8343  -34.1531   24.3388 C   0  0  0  0  0  0  0  0  0  0  0  0
  -23.5257  -29.5261   20.0783 C   0  0  0  0  0  0  0  0  0  0  0  0
  -23.8898  -26.8446   21.2707 C   0  0  0  0  0  0  0  0  0  0  0  0
  -21.1437  -32.7921   24.3034 C   0  0  0  0  0  0  0  0  0  0  0  0
  -25.7857  -19.3119   22.4536 C   0  0  0  0  0  0  0  0  0  0  0  0
  -22.0937  -31.6988   24.7820 C   0  0  0  0  0  0  0  0  0  0  0  0
  -25.8773  -17.7852   22.4232 C   0  0  0  0  0  0  0  0  0  0  0  0
  -24.9976  -19.8538   21.2632 C   0  0  0  0  0  0  0  0  0  0  0  0
  -25.5678  -17.8717   19.9141 C   0  0  0  0  0  0  0  0  0  0  0  0
  -23.3215  -31.5963   23.8690 C   0  0  1  0  0  0  0  0  0  0  0  0
  -22.6093  -29.0068   21.1820 C   0  0  1  0  0  0  0  0  0  0  0  0
  -26.4012  -17.2819   21.0647 C   0  0  2  0  0  0  0  0  0  0  0  0
  -29.1021  -18.5039   16.2921 C   0  0  0  0  0  0  0  0  0  0  0  0
  -19.9754  -22.0038   19.1759 C   0  0  0  0  0  0  0  0  0  0  0  0
  -21.6414  -25.7858   24.3520 C   0  0  0  0  0  0  0  0  0  0  0  0
  -21.0435  -23.5287   23.4486 C   0  0  0  0  0  0  0  0  0  0  0  0
  -19.4110  -25.4079   23.2856 C   0  0  0  0  0  0  0  0  0  0  0  0
  -21.7420  -24.5004   16.9126 C   0  0  0  0  0  0  0  0  0  0  0  0
  -26.9851  -20.4753   16.7656 C   0  0  0  0  0  0  0  0  0  0  0  0
  -30.3365  -26.1196   18.5299 C   0  0  0  0  0  0  0  0  0  0  0  0
  -29.4413  -27.3118   18.8319 C   0  0  0  0  0  0  0  0  0  1  0  0
  -21.4594  -25.4134   21.8036 C   0  0  1  0  0  0  0  0  0  0  0  0
  -20.4959  -23.3706   18.7592 C   0  0  2  0  0  0  0  0  0  0  0  0
  -20.9110  -25.0483   23.2120 C   0  0  0  0  0  0  0  0  0  0  0  0
  -25.3946  -15.0951   20.5288 N   0  0  0  0  0  0  0  0  0  0  0  0
  -26.4540  -15.7662   21.0119 N   0  0  0  0  0  0  0  0  0  0  0  0
  -22.5947  -27.5448   21.2632 N   0  0  0  0  0  0  0  0  0  0  0  0
  -25.5462  -19.3400   20.0058 N   0  0  0  0  0  0  0  0  0  0  0  0
  -28.6229  -15.4729   21.9176 N   0  0  0  0  0  0  0  0  0  0  0  0
  -27.2451  -11.2460   21.1232 N   0  0  0  0  0  0  0  0  0  0  0  0
  -30.4274  -23.8158   17.8723 N   0  0  0  0  0  0  0  0  0  0  0  0
  -22.9864  -30.8951   22.6482 N   0  0  0  0  0  0  0  0  0  0  0  0
  -20.7684  -24.7503   20.7030 N   0  0  0  0  0  0  0  0  0  0  0  0
  -26.4927  -19.6746   17.8643 N   0  0  0  0  0  0  0  0  0  0  0  0
  -21.1987  -23.2276   17.4528 N   0  3  0  0  0  0  0  0  0  0  0  0
  -28.9693  -12.5205   21.9364 O   0  0  0  0  0  0  0  0  0  0  0  0
  -23.2703  -28.7203   23.4305 O   0  0  0  0  0  0  0  0  0  0  0  0
  -20.2795  -27.4519   21.5224 O   0  0  0  0  0  0  0  0  0  0  0  0
  -28.3321  -24.8567   18.0759 O   0  0  0  0  0  0  0  0  0  0  0  0
  -22.6401  -23.7026   19.8220 O   0  0  0  0  0  0  0  0  0  0  0  0
  -25.9214  -21.4705   19.1701 O   0  0  0  0  0  0  0  0  0  0  0  0
  -22.3383   -9.7327   18.9625 O   0  0  0  0  0  0  0  0  0  0  0  0
  -28.5948  -27.0011   19.9378 O   0  0  0  0  0  0  0  0  0  1  0  0
  -21.7863   -5.3452   22.2563 F   0  0  0  0  0  0  0  0  0  0  0  0
  -19.8720   -9.0414   20.0026 F   0  0  0  0  0  0  0  0  0  0  0  0
  1  2  1  0  0  0  0
  1  5  2  0  0  0  0
  2  6  2  0  0  0  0
  3 10  2  0  0  0  0
  3 18  1  0  0  0  0
  4 11  1  0  0  0  0
  4 18  2  0  0  0  0
  5 20  1  0  0  0  0
  6 22  1  0  0  0  0
  7 12  2  0  0  0  0
  7 21  1  0  0  0  0
  8  9  2  0  0  0  0
  8 24  1  0  0  0  0
  9 26  1  0  0  0  0
 10 27  1  0  0  0  0
 11 27  2  0  0  0  0
 12 28  1  0  0  0  0
 13 14  2  0  0  0  0
 13 29  1  0  0  0  0
 14 30  1  0  0  0  0
 15 23  1  0  0  0  0
 15 28  2  0  0  0  0
 16 25  1  0  0  0  0
 16 26  2  0  0  0  0
 17 30  2  0  0  0  0
 17 31  1  0  0  0  0
 18 32  1  0  0  0  0
 19 32  1  0  0  0  0
 19 33  2  0  0  0  0
 19 34  1  0  0  0  0
 20 22  2  0  0  0  0
 20 40  1  0  0  0  0
 21 23  2  0  0  0  0
 21 41  1  0  0  0  0
 22 49  1  0  0  0  0
 23 42  1  0  0  0  0
 24 25  2  0  0  0  0
 24 52  1  0  0  0  0
 25 58  1  0  0  0  0
 26 70  1  0  0  0  0
 27 81  1  0  0  0  0
 28 82  1  0  0  0  0
 29 31  2  0  0  0  0
 29 81  1  0  0  0  0
 30 83  1  0  0  0  0
 31 84  1  0  0  0  0
 32 64  2  0  0  0  0
 33 65  1  0  0  0  0
 33 68  1  0  0  0  0
 34 69  1  0  0  0  0
 34 75  2  0  0  0  0
 35 50  1  0  0  0  0
 35 71  1  0  0  0  0
 35 76  2  0  0  0  0
 36 61  1  0  0  0  0
 36 66  1  0  0  0  0
 36 77  2  0  0  0  0
 37 59  1  0  0  0  0
 37 70  1  0  0  0  0
 37 78  2  0  0  0  0
 38 62  1  0  0  0  0
 38 72  1  0  0  0  0
 38 79  2  0  0  0  0
 39 67  1  0  0  0  0
 39 73  1  0  0  0  0
 39 80  2  0  0  0  0
 40 43  1  0  0  0  0
 41 50  1  0  0  0  0
 42 66  1  0  0  0  0
 43 45  1  0  0  0  0
 44 46  1  0  0  0  0
 44 47  1  0  0  0  0
 45 49  1  0  0  0  0
 46 51  1  0  0  0  0
 47 67  1  0  0  0  0
 48 51  1  0  0  0  0
 48 67  1  0  0  0  0
 49 71  1  0  0  0  0
 50 66  1  0  0  0  0
 51 65  1  0  0  0  0
 53 62  1  0  0  0  0
 54 63  1  0  0  0  0
 55 63  1  0  0  0  0
 56 63  1  0  0  0  0
 57 74  1  0  0  0  0
 58 73  1  0  0  0  0
 59 60  1  0  0  0  0
 60 82  1  0  0  0  0
 61 63  1  0  0  0  0
 61 72  1  0  0  0  0
 62 74  1  0  0  0  0
 64 65  1  0  0  0  0
M  CHG  1  74   1
M  ISO  4  39 100  60 101  73 100  82 101
M  END
> <Batch ID>
0064

> <Smiles>
CNC(C)C(=O)NC(C(=O)N1Cc2cc([101O:1][101CH2:1]CC(=O)Nc3ccc(C)c(C[100NH:0][100C:0](=O)N4CCCC(n5nc(-c6ccc(Oc7ccc(F)cc7F)cc6)c(C(N)=O)c5N)C4)c3)ccc2CC1C(=O)NC1CCCc2ccccc21)C(C)(C)C

> <Shape>
0.244

> <Color>
0.075

> <Negative vol penalty>
0.000

$$$$

  -OEChem-04042323153D

 83 91  0     1  0  0  0  0  0999 V2000
  -20.7070  -33.9165   15.3762 C   0  0  0  0  0  0  0  0  0  0  0  0
  -21.5300  -32.7999   15.4822 C   0  0  0  0  0  0  0  0  0  0  0  0
  -32.2564  -18.5006   21.1899 C   0  0  0  0  0  0  0  0  0  0  0  0
  -22.9327  -11.5986   21.5332 C   0  0  0  0  0  0  0  0  0  0  0  0
  -22.9220  -13.9949   21.2250 C   0  0  0  0  0  0  0  0  0  0  0  0
  -20.9190  -35.0184   16.2037 C   0  0  0  0  0  0  0  0  0  0  0  0
  -22.5662  -32.7849   16.4151 C   0  0  0  0  0  0  0  0  0  0  0  0
  -24.6134  -27.9492   19.5664 C   0  0  0  0  0  0  0  0  0  0  0  0
  -31.4568  -19.6085   20.9094 C   0  0  0  0  0  0  0  0  0  0  0  0
  -31.8228  -17.2214   20.8414 C   0  0  0  0  0  0  0  0  0  0  0  0
  -21.9161  -11.7160   22.4810 C   0  0  0  0  0  0  0  0  0  0  0  0
  -21.9053  -14.1122   22.1727 C   0  0  0  0  0  0  0  0  0  0  0  0
  -25.6987  -27.0954   19.3741 C   0  0  0  0  0  0  0  0  0  0  0  0
  -18.5582  -13.6644   22.3011 C   0  0  0  0  0  0  0  0  0  0  0  0
  -17.4842  -14.5009   21.9971 C   0  0  0  0  0  0  0  0  0  0  0  0
  -27.0050  -28.4198   20.9098 C   0  0  0  0  0  0  0  0  0  0  0  0
  -29.7899  -18.1581   19.9321 C   0  0  0  0  0  0  0  0  0  0  0  0
  -17.9817  -15.8461   23.9414 C   0  0  0  0  0  0  0  0  0  0  0  0
  -23.4357  -12.7381   20.9052 C   0  0  0  0  0  0  0  0  0  0  0  0
  -24.3382  -12.4385   18.5380 C   0  0  0  0  0  0  0  0  0  0  0  0
  -21.9523  -35.0131   17.1539 C   0  0  0  0  0  0  0  0  0  0  0  0
  -24.7194  -29.0528   20.4249 C   0  0  0  0  0  0  0  0  0  0  0  0
  -22.7931  -33.8883   17.2552 C   0  0  0  0  0  0  0  0  0  0  0  0
  -25.9188  -29.2846   21.1133 C   0  0  0  0  0  0  0  0  0  0  0  0
  -30.2236  -19.4373   20.2805 C   0  0  0  0  0  0  0  0  0  0  0  0
  -30.5896  -17.0501   20.2126 C   0  0  0  0  0  0  0  0  0  0  0  0
  -21.4024  -12.9727   22.8007 C   0  0  0  0  0  0  0  0  0  0  0  0
  -26.8956  -27.3323   20.0436 C   0  0  0  0  0  0  0  0  0  0  0  0
  -19.3439  -13.9186   23.4253 C   0  0  0  0  0  0  0  0  0  0  0  0
  -17.1960  -15.5918   22.8172 C   0  0  0  0  0  0  0  0  0  0  0  0
  -19.0557  -15.0095   24.2454 C   0  0  0  0  0  0  0  0  0  0  0  0
  -24.4863  -12.6176   19.9265 C   0  0  0  0  0  0  0  0  0  0  0  0
  -25.6245  -12.3836   18.0598 C   0  0  0  0  0  0  0  0  0  0  0  0
  -23.1445  -12.3315   17.7510 C   0  0  0  0  0  0  0  0  0  0  0  0
  -24.5009  -32.2035   20.0655 C   0  0  0  0  0  0  0  0  0  0  0  0
  -24.7528  -32.1982   23.2995 C   0  0  0  0  0  0  0  0  0  0  0  0
  -29.6888  -21.8983   20.2713 C   0  0  0  0  0  0  0  0  0  0  0  0
  -25.8009  -30.5901   26.1213 C   0  0  0  0  0  0  0  0  0  0  0  0
  -30.8213  -14.5459   20.0656 C   0  0  0  0  0  0  0  0  0  0  0  0
  -22.1724  -36.2463   17.9938 C   0  0  0  0  0  0  0  0  0  0  0  0
  -23.5311  -29.9490   20.6421 C   0  0  0  0  0  0  0  0  0  0  0  0
  -26.0777  -30.4439   22.0615 C   0  0  0  0  0  0  0  0  0  0  0  0
  -23.0573  -36.0025   19.2136 C   0  0  0  0  0  0  0  0  0  0  0  0
  -30.0581  -11.1378   19.3733 C   0  0  0  0  0  0  0  0  0  0  0  0
  -24.2963  -35.2029   18.8230 C   0  0  0  0  0  0  0  0  0  0  0  0
  -28.5294  -11.1154   19.3042 C   0  0  0  0  0  0  0  0  0  0  0  0
  -30.5634  -12.1035   20.4438 C   0  0  0  0  0  0  0  0  0  0  0  0
  -28.5053  -13.4474   20.2779 C   0  0  0  0  0  0  0  0  0  0  0  0
  -23.9122  -33.8244   18.2719 C   0  0  1  0  0  0  0  0  0  0  0  0
  -23.9139  -31.3378   21.1442 C   0  0  1  0  0  0  0  0  0  0  0  0
  -27.9505  -12.5375   19.1698 C   0  0  2  0  0  0  0  0  0  0  0  0
  -25.9023  -30.8514   28.6150 C   0  0  0  0  0  0  0  0  0  0  0  0
  -27.0700  -34.1602   22.9972 C   0  0  0  0  0  0  0  0  0  0  0  0
  -27.7210  -33.6473   25.3597 C   0  0  0  0  0  0  0  0  0  0  0  0
  -25.5021  -34.6789   24.8753 C   0  0  0  0  0  0  0  0  0  0  0  0
  -24.1313  -28.1857   26.5575 C   0  0  0  0  0  0  0  0  0  0  0  0
  -28.5472  -22.7873   19.7981 C   0  0  0  0  0  0  0  0  0  0  0  0
  -28.7992  -24.2651   20.0766 C   0  0  0  0  0  0  0  0  0  0  0  0
  -27.6675  -25.1371   19.5526 C   0  0  0  0  0  0  0  0  0  1  0  0
  -25.8969  -32.2530   24.2828 C   0  0  1  0  0  0  0  0  0  0  0  0
  -25.1024  -30.3110   27.4399 C   0  0  2  0  0  0  0  0  0  0  0  0
  -26.5454  -33.6640   24.3595 C   0  0  0  0  0  0  0  0  0  0  0  0
  -25.7658  -12.6726   20.3057 N   0  0  0  0  0  0  0  0  0  0  0  0
  -26.4334  -12.5272   19.1485 N   0  0  0  0  0  0  0  0  0  0  0  0
  -24.8892  -31.2953   22.2356 N   0  0  0  0  0  0  0  0  0  0  0  0
  -29.9763  -13.4312   20.2504 N   0  0  0  0  0  0  0  0  0  0  0  0
  -26.1313  -12.2269   16.8184 N   0  0  0  0  0  0  0  0  0  0  0  0
  -21.9058  -12.4089   18.4020 N   0  0  0  0  0  0  0  0  0  0  0  0
  -29.4131  -20.5619   19.9958 N   0  0  0  0  0  0  0  0  0  0  0  0
  -30.1497  -15.7505   19.8588 N   0  0  0  0  0  0  0  0  0  0  0  0
  -23.5640  -32.9271   19.3527 N   0  0  0  0  0  0  0  0  0  0  0  0
  -25.3670  -31.7691   25.5531 N   0  0  0  0  0  0  0  0  0  0  0  0
  -24.9212  -28.8440   27.6297 N   0  3  0  0  0  0  0  0  0  0  0  0
  -23.1756  -12.1555   16.5094 O   0  0  0  0  0  0  0  0  0  0  0  0
  -25.7142  -32.2153   19.8936 O   0  0  0  0  0  0  0  0  0  0  0  0
  -23.7709  -32.9245   23.4731 O   0  0  0  0  0  0  0  0  0  0  0  0
  -30.6885  -22.3562   20.8147 O   0  0  0  0  0  0  0  0  0  0  0  0
  -26.6493  -29.8392   25.6449 O   0  0  0  0  0  0  0  0  0  0  0  0
  -32.0500  -14.4353   20.0618 O   0  0  0  0  0  0  0  0  0  0  0  0
  -20.4102  -13.0876   23.7254 O   0  0  0  0  0  0  0  0  0  0  0  0
  -27.9567  -26.5009   19.8572 O   0  0  0  0  0  0  0  0  0  1  0  0
  -16.1657  -16.3960   22.5243 F   0  0  0  0  0  0  0  0  0  0  0  0
  -19.8076  -15.2595   25.3261 F   0  0  0  0  0  0  0  0  0  0  0  0
  1  2  1  0  0  0  0
  1  6  2  0  0  0  0
  2  7  2  0  0  0  0
  3  9  2  0  0  0  0
  3 10  1  0  0  0  0
  4 11  2  0  0  0  0
  4 19  1  0  0  0  0
  5 12  1  0  0  0  0
  5 19  2  0  0  0  0
  6 21  1  0  0  0  0
  7 23  1  0  0  0  0
  8 13  2  0  0  0  0
  8 22  1  0  0  0  0
  9 25  1  0  0  0  0
 10 26  2  0  0  0  0
 11 27  1  0  0  0  0
 12 27  2  0  0  0  0
 13 28  1  0  0  0  0
 14 15  2  0  0  0  0
 14 29  1  0  0  0  0
 15 30  1  0  0  0  0
 16 24  1  0  0  0  0
 16 28  2  0  0  0  0
 17 25  2  0  0  0  0
 17 26  1  0  0  0  0
 18 30  2  0  0  0  0
 18 31  1  0  0  0  0
 19 32  1  0  0  0  0
 20 32  1  0  0  0  0
 20 33  2  0  0  0  0
 20 34  1  0  0  0  0
 21 23  2  0  0  0  0
 21 40  1  0  0  0  0
 22 24  2  0  0  0  0
 22 41  1  0  0  0  0
 23 49  1  0  0  0  0
 24 42  1  0  0  0  0
 25 69  1  0  0  0  0
 26 70  1  0  0  0  0
 27 80  1  0  0  0  0
 28 81  1  0  0  0  0
 29 31  2  0  0  0  0
 29 80  1  0  0  0  0
 30 82  1  0  0  0  0
 31 83  1  0  0  0  0
 32 63  2  0  0  0  0
 33 64  1  0  0  0  0
 33 67  1  0  0  0  0
 34 68  1  0  0  0  0
 34 74  2  0  0  0  0
 35 50  1  0  0  0  0
 35 71  1  0  0  0  0
 35 75  2  0  0  0  0
 36 60  1  0  0  0  0
 36 65  1  0  0  0  0
 36 76  2  0  0  0  0
 37 57  1  0  0  0  0
 37 69  1  0  0  0  0
 37 77  2  0  0  0  0
 38 61  1  0  0  0  0
 38 72  1  0  0  0  0
 38 78  2  0  0  0  0
 39 66  1  0  0  0  0
 39 70  1  0  0  0  0
 39 79  2  0  0  0  0
 40 43  1  0  0  0  0
 41 50  1  0  0  0  0
 42 65  1  0  0  0  0
 43 45  1  0  0  0  0
 44 46  1  0  0  0  0
 44 47  1  0  0  0  0
 45 49  1  0  0  0  0
 46 51  1  0  0  0  0
 47 66  1  0  0  0  0
 48 51  1  0  0  0  0
 48 66  1  0  0  0  0
 49 71  1  0  0  0  0
 50 65  1  0  0  0  0
 51 64  1  0  0  0  0
 52 61  1  0  0  0  0
 53 62  1  0  0  0  0
 54 62  1  0  0  0  0
 55 62  1  0  0  0  0
 56 73  1  0  0  0  0
 57 58  1  0  0  0  0
 58 59  1  0  0  0  0
 59 81  1  0  0  0  0
 60 62  1  0  0  0  0
 60 72  1  0  0  0  0
 61 73  1  0  0  0  0
 63 64  1  0  0  0  0
M  CHG  1  73   1
M  ISO  4  39 100  59 101  70 100  81 101
M  END
> <Batch ID>
0064

> <Smiles>
CNC(C)C(=O)NC(C(=O)N1Cc2cc([101O:1][101CH2:1]CCC(=O)Nc3cccc([100NH:0][100C:0](=O)N4CCCC(n5nc(-c6ccc(Oc7ccc(F)cc7F)cc6)c(C(N)=O)c5N)C4)c3)ccc2CC1C(=O)NC1CCCc2ccccc21)C(C)(C)C

> <Shape>
0.275

> <Color>
0.101

> <Negative vol penalty>
0.000

$$$$

  -OEChem-04042323153D

 84 93  0     1  0  0  0  0  0999 V2000
  -27.5734  -34.6436   23.9570 C   0  0  0  0  0  0  0  0  0  0  0  0
  -27.8765  -33.2989   24.1455 C   0  0  0  0  0  0  0  0  0  0  0  0
  -23.5185   -9.7038   21.6313 C   0  0  0  0  0  0  0  0  0  0  0  0
  -24.1218  -10.8688   23.6600 C   0  0  0  0  0  0  0  0  0  0  0  0
  -26.2592  -35.0312   23.6995 C   0  0  0  0  0  0  0  0  0  0  0  0
  -26.8653  -32.3413   24.0777 C   0  0  0  0  0  0  0  0  0  0  0  0
  -28.2126  -28.2819   21.3665 C   0  0  0  0  0  0  0  0  0  0  0  0
  -31.8247  -19.3474   21.2082 C   0  0  0  0  0  0  0  0  0  0  0  0
  -29.5184  -20.0556   21.3372 C   0  0  0  0  0  0  0  0  0  0  0  0
  -31.4118  -18.0740   20.8164 C   0  0  0  0  0  0  0  0  0  0  0  0
  -29.1055  -18.7822   20.9454 C   0  0  0  0  0  0  0  0  0  0  0  0
  -22.9089   -8.7027   22.3874 C   0  0  0  0  0  0  0  0  0  0  0  0
  -23.5121   -9.8677   24.4162 C   0  0  0  0  0  0  0  0  0  0  0  0
  -29.0438  -27.3497   21.9860 C   0  0  0  0  0  0  0  0  0  0  0  0
  -19.9947   -8.2573   24.0432 C   0  0  0  0  0  0  0  0  0  0  0  0
  -18.7378   -7.8111   23.6349 C   0  0  0  0  0  0  0  0  0  0  0  0
  -27.1300  -25.9527   22.4385 C   0  0  0  0  0  0  0  0  0  0  0  0
  -19.6187   -5.5778   23.3637 C   0  0  0  0  0  0  0  0  0  0  0  0
  -24.1250  -10.7869   22.2676 C   0  0  0  0  0  0  0  0  0  0  0  0
  -24.1579  -12.9951   20.9908 C   0  0  0  0  0  0  0  0  0  0  0  0
  -25.2329  -34.0769   23.6189 C   0  0  0  0  0  0  0  0  0  0  0  0
  -26.8300  -28.0612   21.2878 C   0  0  0  0  0  0  0  0  0  0  0  0
  -25.5358  -32.7167   23.8202 C   0  0  0  0  0  0  0  0  0  0  0  0
  -26.2837  -26.8824   21.8152 C   0  0  0  0  0  0  0  0  0  0  0  0
  -30.8780  -20.3382   21.4687 C   0  0  0  0  0  0  0  0  0  0  0  0
  -30.0522  -17.7914   20.6849 C   0  0  0  0  0  0  0  0  0  0  0  0
  -22.9057   -8.7846   23.7798 C   0  0  0  0  0  0  0  0  0  0  0  0
  -28.5022  -26.1862   22.5247 C   0  0  0  0  0  0  0  0  0  0  0  0
  -21.0637   -7.3637   24.1117 C   0  0  0  0  0  0  0  0  0  0  0  0
  -18.5498   -6.4714   23.2952 C   0  0  0  0  0  0  0  0  0  0  0  0
  -20.8756   -6.0240   23.7720 C   0  0  0  0  0  0  0  0  0  0  0  0
  -24.7554  -11.8210   21.4871 C   0  0  0  0  0  0  0  0  0  0  0  0
  -25.1698  -13.6388   20.3213 C   0  0  0  0  0  0  0  0  0  0  0  0
  -32.6273  -22.0757   22.0457 C   0  0  0  0  0  0  0  0  0  0  0  0
  -22.8088  -13.4621   21.1232 C   0  0  0  0  0  0  0  0  0  0  0  0
  -24.2528  -29.5609   22.3891 C   0  0  0  0  0  0  0  0  0  0  0  0
  -22.6839  -27.3484   20.6099 C   0  0  0  0  0  0  0  0  0  0  0  0
  -22.7100  -24.2749   19.1267 C   0  0  0  0  0  0  0  0  0  0  0  0
  -30.4411  -15.4013   19.9903 C   0  0  0  0  0  0  0  0  0  0  0  0
  -23.8196  -34.5487   23.3851 C   0  0  0  0  0  0  0  0  0  0  0  0
  -25.9504  -29.0639   20.5926 C   0  0  0  0  0  0  0  0  0  0  0  0
  -24.8084  -26.5886   21.7387 C   0  0  0  0  0  0  0  0  0  0  0  0
  -32.5794  -23.5502   22.3751 C   0  0  0  0  0  0  0  0  0  0  0  0
  -22.8682  -33.4340   22.9577 C   0  0  0  0  0  0  0  0  0  0  0  0
  -29.7904  -12.0406   19.0108 C   0  0  0  0  0  0  0  0  0  0  0  0
  -23.0486  -32.2079   23.8470 C   0  0  0  0  0  0  0  0  0  0  0  0
  -28.3733  -11.7805   19.5269 C   0  0  0  0  0  0  0  0  0  0  0  0
  -30.5904  -12.9209   19.9693 C   0  0  0  0  0  0  0  0  0  0  0  0
  -30.3611  -22.7274   22.0759 C   0  0  0  0  0  0  0  0  0  0  0  0
  -28.5230  -13.9236   20.8579 C   0  0  0  0  0  0  0  0  0  0  0  0
  -24.4705  -31.6457   23.7296 C   0  0  1  0  0  0  0  0  0  0  0  0
  -24.4897  -28.9783   21.0245 C   0  0  1  0  0  0  0  0  0  0  0  0
  -31.1528  -23.7612   22.8619 C   0  0  2  0  0  0  0  0  0  0  0  0
  -27.6574  -13.0949   19.8947 C   0  0  2  0  0  0  0  0  0  0  0  0
  -21.2689  -22.7275   17.7754 C   0  0  0  0  0  0  0  0  0  0  0  0
  -21.0983  -26.6384   23.1183 C   0  0  0  0  0  0  0  0  0  0  0  0
  -20.3934  -24.5184   21.9882 C   0  0  0  0  0  0  0  0  0  0  0  0
  -19.7444  -26.7227   21.0173 C   0  0  0  0  0  0  0  0  0  0  0  0
  -24.6121  -24.2959   16.8595 C   0  0  0  0  0  0  0  0  0  0  0  0
  -30.6534  -25.1806   22.6550 C   0  0  0  0  0  0  0  0  0  1  0  0
  -22.1493  -25.9589   20.8600 C   0  0  1  0  0  0  0  0  0  0  0  0
  -22.3184  -23.8271   17.7301 C   0  0  2  0  0  0  0  0  0  0  0  0
  -20.8740  -25.9657   21.7493 C   0  0  0  0  0  0  0  0  0  0  0  0
  -26.0468  -11.7220   21.1606 N   0  0  0  0  0  0  0  0  0  0  0  0
  -26.2690  -12.8420   20.4519 N   0  0  0  0  0  0  0  0  0  0  0  0
  -31.3002  -21.6409   21.8699 N   0  0  0  0  0  0  0  0  0  0  0  0
  -23.9890  -27.6026   21.0548 N   0  0  0  0  0  0  0  0  0  0  0  0
  -29.8523  -14.1498   20.2691 N   0  0  0  0  0  0  0  0  0  0  0  0
  -25.2176  -14.8029   19.6394 N   0  0  0  0  0  0  0  0  0  0  0  0
  -21.8979  -12.6777   21.8437 N   0  0  0  0  0  0  0  0  0  0  0  0
  -29.6324  -16.4979   20.2869 N   0  0  0  0  0  0  0  0  0  0  0  0
  -24.6154  -30.8893   22.5043 N   0  0  0  0  0  0  0  0  0  0  0  0
  -21.9590  -25.3523   19.5469 N   0  0  0  0  0  0  0  0  0  0  0  0
  -23.5096  -23.3100   16.9989 N   0  3  0  0  0  0  0  0  0  0  0  0
  -33.6793  -21.4665   21.9160 O   0  0  0  0  0  0  0  0  0  0  0  0
  -22.4184  -14.5351   20.6037 O   0  0  0  0  0  0  0  0  0  0  0  0
  -23.7751  -28.8577   23.2717 O   0  0  0  0  0  0  0  0  0  0  0  0
  -21.9723  -28.1756   20.0344 O   0  0  0  0  0  0  0  0  0  0  0  0
  -23.5911  -23.7218   19.7811 O   0  0  0  0  0  0  0  0  0  0  0  0
  -31.5684  -15.4927   19.4975 O   0  0  0  0  0  0  0  0  0  0  0  0
  -22.3107   -7.8081   24.5179 O   0  0  0  0  0  0  0  0  0  0  0  0
  -29.3113  -25.2750   23.1305 O   0  0  0  0  0  0  0  0  0  1  0  0
  -17.3423   -6.0428   22.9047 F   0  0  0  0  0  0  0  0  0  0  0  0
  -21.8984   -5.1606   23.8369 F   0  0  0  0  0  0  0  0  0  0  0  0
  1  2  1  0  0  0  0
  1  5  2  0  0  0  0
  2  6  2  0  0  0  0
  3 12  2  0  0  0  0
  3 19  1  0  0  0  0
  4 13  1  0  0  0  0
  4 19  2  0  0  0  0
  5 21  1  0  0  0  0
  6 23  1  0  0  0  0
  7 14  2  0  0  0  0
  7 22  1  0  0  0  0
  8 10  2  0  0  0  0
  8 25  1  0  0  0  0
  9 11  1  0  0  0  0
  9 25  2  0  0  0  0
 10 26  1  0  0  0  0
 11 26  2  0  0  0  0
 12 27  1  0  0  0  0
 13 27  2  0  0  0  0
 14 28  1  0  0  0  0
 15 16  2  0  0  0  0
 15 29  1  0  0  0  0
 16 30  1  0  0  0  0
 17 24  1  0  0  0  0
 17 28  2  0  0  0  0
 18 30  2  0  0  0  0
 18 31  1  0  0  0  0
 19 32  1  0  0  0  0
 20 32  1  0  0  0  0
 20 33  2  0  0  0  0
 20 35  1  0  0  0  0
 21 23  2  0  0  0  0
 21 40  1  0  0  0  0
 22 24  2  0  0  0  0
 22 41  1  0  0  0  0
 23 51  1  0  0  0  0
 24 42  1  0  0  0  0
 25 66  1  0  0  0  0
 26 71  1  0  0  0  0
 27 81  1  0  0  0  0
 28 82  1  0  0  0  0
 29 31  2  0  0  0  0
 29 81  1  0  0  0  0
 30 83  1  0  0  0  0
 31 84  1  0  0  0  0
 32 64  2  0  0  0  0
 33 65  1  0  0  0  0
 33 69  1  0  0  0  0
 34 43  1  0  0  0  0
 34 66  1  0  0  0  0
 34 75  2  0  0  0  0
 35 70  1  0  0  0  0
 35 76  2  0  0  0  0
 36 52  1  0  0  0  0
 36 72  1  0  0  0  0
 36 77  2  0  0  0  0
 37 61  1  0  0  0  0
 37 67  1  0  0  0  0
 37 78  2  0  0  0  0
 38 62  1  0  0  0  0
 38 73  1  0  0  0  0
 38 79  2  0  0  0  0
 39 68  1  0  0  0  0
 39 71  1  0  0  0  0
 39 80  2  0  0  0  0
 40 44  1  0  0  0  0
 41 52  1  0  0  0  0
 42 67  1  0  0  0  0
 43 53  1  0  0  0  0
 44 46  1  0  0  0  0
 45 47  1  0  0  0  0
 45 48  1  0  0  0  0
 46 51  1  0  0  0  0
 47 54  1  0  0  0  0
 48 68  1  0  0  0  0
 49 53  1  0  0  0  0
 49 66  1  0  0  0  0
 50 54  1  0  0  0  0
 50 68  1  0  0  0  0
 51 72  1  0  0  0  0
 52 67  1  0  0  0  0
 53 60  1  0  0  0  0
 54 65  1  0  0  0  0
 55 62  1  0  0  0  0
 56 63  1  0  0  0  0
 57 63  1  0  0  0  0
 58 63  1  0  0  0  0
 59 74  1  0  0  0  0
 60 82  1  0  0  0  0
 61 63  1  0  0  0  0
 61 73  1  0  0  0  0
 62 74  1  0  0  0  0
 64 65  1  0  0  0  0
M  CHG  1  74   1
M  ISO  4  39 100  60 101  71 100  82 101
M  END
> <Batch ID>
0064

> <Smiles>
CNC(C)C(=O)NC(C(=O)N1Cc2cc([101O:1][101CH2:1]C3CC(=O)N(c4ccc([100NH:0][100C:0](=O)N5CCCC(n6nc(-c7ccc(Oc8ccc(F)cc8F)cc7)c(C(N)=O)c6N)C5)cc4)C3)ccc2CC1C(=O)NC1CCCc2ccccc21)C(C)(C)C

> <Shape>
0.274

> <Color>
0.138

> <Negative vol penalty>
0.000

$$$$

  -OEChem-04042323153D

 85 93  0     1  0  0  0  0  0999 V2000
  -16.9371  -28.1770   28.3717 C   0  0  0  0  0  0  0  0  0  0  0  0
  -18.2151  -27.7859   27.9856 C   0  0  0  0  0  0  0  0  0  0  0  0
  -23.0748   -9.8687   19.9402 C   0  0  0  0  0  0  0  0  0  0  0  0
  -23.8344   -9.8746   22.2337 C   0  0  0  0  0  0  0  0  0  0  0  0
  -32.6520  -17.4887   23.4580 C   0  0  0  0  0  0  0  0  0  0  0  0
  -16.2336  -27.4255   29.3121 C   0  0  0  0  0  0  0  0  0  0  0  0
  -18.7909  -26.6435   28.5406 C   0  0  0  0  0  0  0  0  0  0  0  0
  -22.5423  -22.6862   25.7527 C   0  0  0  0  0  0  0  0  0  0  0  0
  -32.0644  -16.6055   22.5523 C   0  0  0  0  0  0  0  0  0  0  0  0
  -22.3304   -8.7157   20.1897 C   0  0  0  0  0  0  0  0  0  0  0  0
  -23.0899   -8.7216   22.4832 C   0  0  0  0  0  0  0  0  0  0  0  0
  -23.9296  -22.5480   25.7551 C   0  0  0  0  0  0  0  0  0  0  0  0
  -19.8614   -7.9250   23.0851 C   0  0  0  0  0  0  0  0  0  0  0  0
  -19.1043   -7.8850   24.2559 C   0  0  0  0  0  0  0  0  0  0  0  0
  -23.7544  -20.8801   27.4890 C   0  0  0  0  0  0  0  0  0  0  0  0
  -29.8805  -17.4540   23.1418 C   0  0  0  0  0  0  0  0  0  0  0  0
  -20.3447   -5.9468   24.9918 C   0  0  0  0  0  0  0  0  0  0  0  0
  -23.8268  -10.4480   20.9622 C   0  0  0  0  0  0  0  0  0  0  0  0
  -31.8538  -18.3545   24.2057 C   0  0  0  0  0  0  0  0  0  0  0  0
  -24.1698  -12.9731   20.8431 C   0  0  0  0  0  0  0  0  0  0  0  0
  -16.7972  -26.2680   29.8716 C   0  0  0  0  0  0  0  0  0  0  0  0
  -21.7501  -21.9290   26.6275 C   0  0  0  0  0  0  0  0  0  0  0  0
  -18.0949  -25.8766   29.4903 C   0  0  0  0  0  0  0  0  0  0  0  0
  -22.3571  -21.0087   27.4939 C   0  0  0  0  0  0  0  0  0  0  0  0
  -30.6787  -16.5882   22.3941 C   0  0  0  0  0  0  0  0  0  0  0  0
  -30.4681  -18.3371   24.0476 C   0  0  0  0  0  0  0  0  0  0  0  0
  -22.3379   -8.1422   21.4612 C   0  0  0  0  0  0  0  0  0  0  0  0
  -24.5361  -21.6470   26.6254 C   0  0  0  0  0  0  0  0  0  0  0  0
  -20.8601   -6.9759   22.8676 C   0  0  0  0  0  0  0  0  0  0  0  0
  -19.3459   -6.8960   25.2093 C   0  0  0  0  0  0  0  0  0  0  0  0
  -21.1018   -5.9868   23.8210 C   0  0  0  0  0  0  0  0  0  0  0  0
  -24.5965  -11.6387   20.7050 C   0  0  0  0  0  0  0  0  0  0  0  0
  -25.2623  -13.7222   20.4802 C   0  0  0  0  0  0  0  0  0  0  0  0
  -27.7577  -20.3415   25.6972 C   0  0  0  0  0  0  0  0  0  0  0  0
  -26.4462  -20.5818   25.7962 C   0  0  0  0  0  0  0  0  0  1  0  0
  -32.4880  -19.2620   25.1399 C   0  0  0  0  0  0  0  0  0  0  0  0
  -22.8994  -13.4893   21.2620 C   0  0  0  0  0  0  0  0  0  0  0  0
  -28.2552  -19.3015   24.7502 C   0  0  0  0  0  0  0  0  0  0  0  0
  -19.7537  -22.6107   29.0052 C   0  0  0  0  0  0  0  0  0  0  0  0
  -19.1878  -19.4176   28.9266 C   0  0  0  0  0  0  0  0  0  0  0  0
  -20.2971  -16.2982   28.0985 C   0  0  0  0  0  0  0  0  0  0  0  0
  -30.7289  -14.7654   20.6559 C   0  0  0  0  0  0  0  0  0  0  0  0
  -16.0172  -25.5144   30.9196 C   0  0  0  0  0  0  0  0  0  0  0  0
  -20.2530  -22.0703   26.5939 C   0  0  0  0  0  0  0  0  0  0  0  0
  -21.5500  -20.1574   28.4386 C   0  0  0  0  0  0  0  0  0  0  0  0
  -16.5499  -24.1079   31.1814 C   0  0  0  0  0  0  0  0  0  0  0  0
  -29.6138  -12.3528   18.2867 C   0  0  0  0  0  0  0  0  0  0  0  0
  -18.0674  -24.1318   31.3344 C   0  0  0  0  0  0  0  0  0  0  0  0
  -28.1739  -12.0617   18.7160 C   0  0  0  0  0  0  0  0  0  0  0  0
  -30.5288  -12.5809   19.4886 C   0  0  0  0  0  0  0  0  0  0  0  0
  -28.6220  -13.3057   20.8698 C   0  0  0  0  0  0  0  0  0  0  0  0
  -18.7435  -24.6297   30.0512 C   0  0  1  0  0  0  0  0  0  0  0  0
  -19.5811  -21.6212   27.8878 C   0  0  1  0  0  0  0  0  0  0  0  0
  -27.6493  -13.1332   19.6918 C   0  0  2  0  0  0  0  0  0  0  0  0
  -19.6290  -13.8811   28.1907 C   0  0  0  0  0  0  0  0  0  0  0  0
  -19.8239  -19.3581   31.9102 C   0  0  0  0  0  0  0  0  0  0  0  0
  -20.0741  -16.8730   31.7363 C   0  0  0  0  0  0  0  0  0  0  0  0
  -17.8779  -17.9421   31.2299 C   0  0  0  0  0  0  0  0  0  0  0  0
  -20.3897  -16.0403   25.1517 C   0  0  0  0  0  0  0  0  0  0  0  0
  -19.7912  -18.2081   29.5989 C   0  0  1  0  0  0  0  0  0  0  0  0
  -19.6270  -15.1543   27.3590 C   0  0  2  0  0  0  0  0  0  0  0  0
  -19.4074  -18.1126   31.1025 C   0  0  0  0  0  0  0  0  0  0  0  0
  -25.8613  -11.5424   20.2868 N   0  0  0  0  0  0  0  0  0  0  0  0
  -26.2388  -12.8259   20.1590 N   0  0  0  0  0  0  0  0  0  0  0  0
  -20.0902  -20.3366   28.3726 N   0  0  0  0  0  0  0  0  0  0  0  0
  -29.9702  -13.6116   20.3662 N   0  0  0  0  0  0  0  0  0  0  0  0
  -25.4733  -15.0536   20.4076 N   0  0  0  0  0  0  0  0  0  0  0  0
  -32.6998  -18.8880   26.4116 N   0  0  0  0  0  0  0  0  0  0  0  0
  -21.8871  -12.5805   21.5988 N   0  0  0  0  0  0  0  0  0  0  0  0
  -29.6397  -19.2071   24.7984 N   0  0  0  0  0  0  0  0  0  0  0  0
  -30.0818  -15.6905   21.4746 N   0  0  0  0  0  0  0  0  0  0  0  0
  -18.7708  -23.5807   29.0545 N   0  0  0  0  0  0  0  0  0  0  0  0
  -19.3849  -17.0541   28.8040 N   0  0  0  0  0  0  0  0  0  0  0  0
  -32.8719  -20.4855   24.7429 N   0  3  0  0  0  0  0  0  0  0  0  0
  -20.3366  -14.8797   26.0776 N   0  3  0  0  0  0  0  0  0  0  0  0
  -22.6637  -14.7200   21.3197 O   0  0  0  0  0  0  0  0  0  0  0  0
  -27.4819  -18.6550   24.0533 O   0  0  0  0  0  0  0  0  0  0  0  0
  -20.7072  -22.5014   29.7672 O   0  0  0  0  0  0  0  0  0  0  0  0
  -17.9609  -19.5389   28.8881 O   0  0  0  0  0  0  0  0  0  0  0  0
  -21.5089  -16.4987   28.0577 O   0  0  0  0  0  0  0  0  0  0  0  0
  -31.8581  -14.9338   20.1885 O   0  0  0  0  0  0  0  0  0  0  0  0
  -21.6115   -7.0174   21.7051 O   0  0  0  0  0  0  0  0  0  0  0  0
  -25.8901  -21.5107   26.6302 O   0  0  0  0  0  0  0  0  0  1  0  0
  -18.6198   -6.8586   26.3342 F   0  0  0  0  0  0  0  0  0  0  0  0
  -22.0608   -5.0730   23.6182 F   0  0  0  0  0  0  0  0  0  0  0  0
  1  2  1  0  0  0  0
  1  6  2  0  0  0  0
  2  7  2  0  0  0  0
  3 10  2  0  0  0  0
  3 18  1  0  0  0  0
  4 11  1  0  0  0  0
  4 18  2  0  0  0  0
  5  9  2  0  0  0  0
  5 19  1  0  0  0  0
  6 21  1  0  0  0  0
  7 23  1  0  0  0  0
  8 12  2  0  0  0  0
  8 22  1  0  0  0  0
  9 25  1  0  0  0  0
 10 27  1  0  0  0  0
 11 27  2  0  0  0  0
 12 28  1  0  0  0  0
 13 14  2  0  0  0  0
 13 29  1  0  0  0  0
 14 30  1  0  0  0  0
 15 24  1  0  0  0  0
 15 28  2  0  0  0  0
 16 25  2  0  0  0  0
 16 26  1  0  0  0  0
 17 30  2  0  0  0  0
 17 31  1  0  0  0  0
 18 32  1  0  0  0  0
 19 26  2  0  0  0  0
 19 36  1  0  0  0  0
 20 32  1  0  0  0  0
 20 33  2  0  0  0  0
 20 37  1  0  0  0  0
 21 23  2  0  0  0  0
 21 43  1  0  0  0  0
 22 24  2  0  0  0  0
 22 44  1  0  0  0  0
 23 52  1  0  0  0  0
 24 45  1  0  0  0  0
 25 71  1  0  0  0  0
 26 70  1  0  0  0  0
 27 82  1  0  0  0  0
 28 83  1  0  0  0  0
 29 31  2  0  0  0  0
 29 82  1  0  0  0  0
 30 84  1  0  0  0  0
 31 85  1  0  0  0  0
 32 63  2  0  0  0  0
 33 64  1  0  0  0  0
 33 67  1  0  0  0  0
 34 35  2  0  0  0  0
 34 38  1  0  0  0  0
 35 83  1  0  0  0  0
 36 68  1  0  0  0  0
 36 74  2  0  0  0  0
 37 69  1  0  0  0  0
 37 76  2  0  0  0  0
 38 70  1  0  0  0  0
 38 77  2  0  0  0  0
 39 53  1  0  0  0  0
 39 72  1  0  0  0  0
 39 78  2  0  0  0  0
 40 60  1  0  0  0  0
 40 65  1  0  0  0  0
 40 79  2  0  0  0  0
 41 61  1  0  0  0  0
 41 73  1  0  0  0  0
 41 80  2  0  0  0  0
 42 66  1  0  0  0  0
 42 71  1  0  0  0  0
 42 81  2  0  0  0  0
 43 46  1  0  0  0  0
 44 53  1  0  0  0  0
 45 65  1  0  0  0  0
 46 48  1  0  0  0  0
 47 49  1  0  0  0  0
 47 50  1  0  0  0  0
 48 52  1  0  0  0  0
 49 54  1  0  0  0  0
 50 66  1  0  0  0  0
 51 54  1  0  0  0  0
 51 66  1  0  0  0  0
 52 72  1  0  0  0  0
 53 65  1  0  0  0  0
 54 64  1  0  0  0  0
 55 61  1  0  0  0  0
 56 62  1  0  0  0  0
 57 62  1  0  0  0  0
 58 62  1  0  0  0  0
 59 75  1  0  0  0  0
 60 62  1  0  0  0  0
 60 73  1  0  0  0  0
 61 75  1  0  0  0  0
 63 64  1  0  0  0  0
M  CHG  2  74   1  75   1
M  ISO  4  35 101  42 100  71 100  83 101
M  END
> <Batch ID>
0064

> <Smiles>
CNC(C)C(=O)NC(C(=O)N1Cc2cc([101O:1][101CH:1]=CC(=O)Nc3cc([100NH:0][100C:0](=O)N4CCCC(n5nc(-c6ccc(Oc7ccc(F)cc7F)cc6)c(C(N)=O)c5N)C4)ccc3C(=N)N)ccc2CC1C(=O)NC1CCCc2ccccc21)C(C)(C)C

> <Shape>
0.165

> <Color>
0.180

> <Negative vol penalty>
0.000

$$$$

  -OEChem-04042323153D

 82 90  0     1  0  0  0  0  0999 V2000
  -24.5108  -17.9651   21.6187 C   0  0  0  0  0  0  0  0  0  0  0  0
  -25.1276  -19.0774   21.0550 C   0  0  0  0  0  0  0  0  0  0  0  0
  -26.3500  -12.9752   21.4231 C   0  0  0  0  0  0  0  0  0  0  0  0
  -26.2285  -13.4972   19.0673 C   0  0  0  0  0  0  0  0  0  0  0  0
  -23.1435  -17.9905   21.8903 C   0  0  0  0  0  0  0  0  0  0  0  0
  -24.3771  -20.2155   20.7617 C   0  0  0  0  0  0  0  0  0  0  0  0
  -26.6794  -24.4873   22.2095 C   0  0  0  0  0  0  0  0  0  0  0  0
  -28.6523  -21.3627   15.0591 C   0  0  0  0  0  0  0  0  0  0  0  0
  -29.0433  -20.5317   16.1089 C   0  0  0  0  0  0  0  0  0  0  0  0
  -25.1094  -12.3423   21.3469 C   0  0  0  0  0  0  0  0  0  0  0  0
  -24.9878  -12.8643   18.9911 C   0  0  0  0  0  0  0  0  0  0  0  0
  -27.7067  -24.9640   21.3965 C   0  0  0  0  0  0  0  0  0  0  0  0
  -23.8896   -9.3705   20.2918 C   0  0  0  0  0  0  0  0  0  0  0  0
  -23.7542   -8.1317   20.9183 C   0  0  0  0  0  0  0  0  0  0  0  0
  -26.1827  -26.5551   20.4140 C   0  0  0  0  0  0  0  0  0  0  0  0
  -29.0455  -22.4263   17.6080 C   0  0  0  0  0  0  0  0  0  0  0  0
  -22.0049   -9.0320   22.3206 C   0  0  0  0  0  0  0  0  0  0  0  0
  -26.9096  -13.5527   20.2833 C   0  0  0  0  0  0  0  0  0  0  0  0
  -29.4570  -13.6231   20.1666 C   0  0  0  0  0  0  0  0  0  0  0  0
  -22.3778  -19.1329   21.6091 C   0  0  0  0  0  0  0  0  0  0  0  0
  -25.3911  -25.0345   22.1231 C   0  0  0  0  0  0  0  0  0  0  0  0
  -22.9980  -20.2557   21.0286 C   0  0  0  0  0  0  0  0  0  0  0  0
  -25.1414  -26.0853   21.2289 C   0  0  0  0  0  0  0  0  0  0  0  0
  -28.4580  -22.7257   15.2838 C   0  0  0  0  0  0  0  0  0  0  0  0
  -29.2399  -21.0634   17.3833 C   0  0  0  0  0  0  0  0  0  0  0  0
  -24.4283  -12.2869   20.1309 C   0  0  0  0  0  0  0  0  0  0  0  0
  -27.4578  -25.9961   20.4965 C   0  0  0  0  0  0  0  0  0  0  0  0
  -23.0826  -10.4401   20.6797 C   0  0  0  0  0  0  0  0  0  0  0  0
  -28.6545  -23.2574   16.5582 C   0  0  0  0  0  0  0  0  0  0  0  0
  -22.8119   -7.9624   21.9327 C   0  0  0  0  0  0  0  0  0  0  0  0
  -22.1403  -10.2709   21.6940 C   0  0  0  0  0  0  0  0  0  0  0  0
  -28.1909  -14.2070   20.3615 C   0  0  0  0  0  0  0  0  0  0  0  0
  -30.3434  -14.6564   20.3490 C   0  0  0  0  0  0  0  0  0  0  0  0
  -29.8010  -12.2680   19.8490 C   0  0  0  0  0  0  0  0  0  0  0  0
  -22.5218  -23.9056   21.3509 C   0  0  0  0  0  0  0  0  0  0  0  0
  -21.5430  -26.8589   22.2688 C   0  0  0  0  0  0  0  0  0  0  0  0
  -22.3178  -30.1467   22.7552 C   0  0  0  0  0  0  0  0  0  0  0  0
  -29.8758  -20.5856   19.7736 C   0  0  0  0  0  0  0  0  0  0  0  0
  -20.8939  -19.0961   21.8766 C   0  0  0  0  0  0  0  0  0  0  0  0
  -24.3004  -24.5272   23.0261 C   0  0  0  0  0  0  0  0  0  0  0  0
  -23.7808  -26.7206   21.1120 C   0  0  0  0  0  0  0  0  0  0  0  0
  -20.2417  -20.4763   21.8821 C   0  0  0  0  0  0  0  0  0  0  0  0
  -30.8331  -18.7991   22.7010 C   0  0  0  0  0  0  0  0  0  0  0  0
  -20.7064  -21.2912   20.6793 C   0  0  0  0  0  0  0  0  0  0  0  0
  -30.3849  -17.3644   22.4130 C   0  0  0  0  0  0  0  0  0  0  0  0
  -29.8497  -19.8242   22.1389 C   0  0  0  0  0  0  0  0  0  0  0  0
  -29.0824  -18.2277   20.4267 C   0  0  0  0  0  0  0  0  0  0  0  0
  -22.2225  -21.5178   20.7190 C   0  0  1  0  0  0  0  0  0  0  0  0
  -22.9006  -24.8100   22.4894 C   0  0  1  0  0  0  0  0  0  0  0  0
  -30.0745  -17.1605   20.9171 C   0  0  2  0  0  0  0  0  0  0  0  0
  -28.0397  -23.6001   14.1483 C   0  0  0  0  0  0  0  0  0  0  0  0
  -21.3003  -32.3247   23.4754 C   0  0  0  0  0  0  0  0  0  0  0  0
  -20.1593  -27.1052   19.5606 C   0  0  0  0  0  0  0  0  0  0  0  0
  -19.9927  -29.5730   19.9483 C   0  0  0  0  0  0  0  0  0  0  0  0
  -18.8381  -27.9891   21.4913 C   0  0  0  0  0  0  0  0  0  0  0  0
  -24.1732  -30.3885   25.0482 C   0  0  0  0  0  0  0  0  0  0  0  0
  -29.2231  -26.7896   17.4362 C   0  0  0  0  0  0  0  0  0  0  0  0
  -28.0856  -26.9842   18.4264 C   0  0  0  0  0  0  0  0  0  1  0  0
  -29.5910  -25.3232   17.2734 C   0  0  0  0  0  0  0  0  0  0  0  0
  -21.3572  -28.1870   21.5757 C   0  0  1  0  0  0  0  0  0  0  0  0
  -22.0544  -31.0818   23.9217 C   0  0  2  0  0  0  0  0  0  0  0  0
  -20.1121  -28.2005   20.6446 C   0  0  0  0  0  0  0  0  0  0  0  0
  -28.2624  -15.5101   20.6461 N   0  0  0  0  0  0  0  0  0  0  0  0
  -29.5840  -15.7535   20.6314 N   0  0  0  0  0  0  0  0  0  0  0  0
  -22.7457  -26.1856   22.0118 N   0  0  0  0  0  0  0  0  0  0  0  0
  -29.6071  -19.5713   20.7169 N   0  0  0  0  0  0  0  0  0  0  0  0
  -31.6905  -14.7243   20.2938 N   0  0  0  0  0  0  0  0  0  0  0  0
  -28.7669  -11.3344   19.6962 N   0  0  0  0  0  0  0  0  0  0  0  0
  -29.6379  -20.2191   18.4494 N   0  0  0  0  0  0  0  0  0  0  0  0
  -22.5530  -22.5607   21.6664 N   0  0  0  0  0  0  0  0  0  0  0  0
  -21.3268  -29.1963   22.6287 N   0  0  0  0  0  0  0  0  0  0  0  0
  -23.3397  -31.5097   24.5430 N   0  3  0  0  0  0  0  0  0  0  0  0
  -30.9910  -11.8924   19.7211 O   0  0  0  0  0  0  0  0  0  0  0  0
  -22.2218  -24.3921   20.2669 O   0  0  0  0  0  0  0  0  0  0  0  0
  -20.6569  -26.4378   23.0166 O   0  0  0  0  0  0  0  0  0  0  0  0
  -23.3020  -30.2515   22.0266 O   0  0  0  0  0  0  0  0  0  0  0  0
  -30.3127  -21.6882   20.1131 O   0  0  0  0  0  0  0  0  0  0  0  0
  -23.2177  -11.6692   20.0561 O   0  0  0  0  0  0  0  0  0  0  0  0
  -28.4586  -26.4628   19.7013 O   0  0  0  0  0  0  0  0  0  1  0  0
  -28.4682  -24.5944   16.7958 O   0  0  0  0  0  0  0  0  0  0  0  0
  -22.6809   -6.7723   22.5332 F   0  0  0  0  0  0  0  0  0  0  0  0
  -21.3614  -11.2944   22.0701 F   0  0  0  0  0  0  0  0  0  0  0  0
  1  2  1  0  0  0  0
  1  5  2  0  0  0  0
  2  6  2  0  0  0  0
  3 10  2  0  0  0  0
  3 18  1  0  0  0  0
  4 11  1  0  0  0  0
  4 18  2  0  0  0  0
  5 20  1  0  0  0  0
  6 22  1  0  0  0  0
  7 12  2  0  0  0  0
  7 21  1  0  0  0  0
  8  9  2  0  0  0  0
  8 24  1  0  0  0  0
  9 25  1  0  0  0  0
 10 26  1  0  0  0  0
 11 26  2  0  0  0  0
 12 27  1  0  0  0  0
 13 14  2  0  0  0  0
 13 28  1  0  0  0  0
 14 30  1  0  0  0  0
 15 23  1  0  0  0  0
 15 27  2  0  0  0  0
 16 25  2  0  0  0  0
 16 29  1  0  0  0  0
 17 30  2  0  0  0  0
 17 31  1  0  0  0  0
 18 32  1  0  0  0  0
 19 32  1  0  0  0  0
 19 33  2  0  0  0  0
 19 34  1  0  0  0  0
 20 22  2  0  0  0  0
 20 39  1  0  0  0  0
 21 23  2  0  0  0  0
 21 40  1  0  0  0  0
 22 48  1  0  0  0  0
 23 41  1  0  0  0  0
 24 29  2  0  0  0  0
 24 51  1  0  0  0  0
 25 69  1  0  0  0  0
 26 78  1  0  0  0  0
 27 79  1  0  0  0  0
 28 31  2  0  0  0  0
 28 78  1  0  0  0  0
 29 80  1  0  0  0  0
 30 81  1  0  0  0  0
 31 82  1  0  0  0  0
 32 63  2  0  0  0  0
 33 64  1  0  0  0  0
 33 67  1  0  0  0  0
 34 68  1  0  0  0  0
 34 73  2  0  0  0  0
 35 49  1  0  0  0  0
 35 70  1  0  0  0  0
 35 74  2  0  0  0  0
 36 60  1  0  0  0  0
 36 65  1  0  0  0  0
 36 75  2  0  0  0  0
 37 61  1  0  0  0  0
 37 71  1  0  0  0  0
 37 76  2  0  0  0  0
 38 66  1  0  0  0  0
 38 69  1  0  0  0  0
 38 77  2  0  0  0  0
 39 42  1  0  0  0  0
 40 49  1  0  0  0  0
 41 65  1  0  0  0  0
 42 44  1  0  0  0  0
 43 45  1  0  0  0  0
 43 46  1  0  0  0  0
 44 48  1  0  0  0  0
 45 50  1  0  0  0  0
 46 66  1  0  0  0  0
 47 50  1  0  0  0  0
 47 66  1  0  0  0  0
 48 70  1  0  0  0  0
 49 65  1  0  0  0  0
 50 64  1  0  0  0  0
 52 61  1  0  0  0  0
 53 62  1  0  0  0  0
 54 62  1  0  0  0  0
 55 62  1  0  0  0  0
 56 72  1  0  0  0  0
 57 58  1  0  0  0  0
 57 59  1  0  0  0  0
 58 79  1  0  0  0  0
 59 80  1  0  0  0  0
 60 62  1  0  0  0  0
 60 71  1  0  0  0  0
 61 72  1  0  0  0  0
 63 64  1  0  0  0  0
M  CHG  1  72   1
M  ISO  4  38 100  58 101  69 100  79 101
M  END
> <Batch ID>
0064

> <Smiles>
CNC(C)C(=O)NC(C(=O)N1Cc2cc([101O:1][101CH2:1]CCOc3cc([100NH:0][100C:0](=O)N4CCCC(n5nc(-c6ccc(Oc7ccc(F)cc7F)cc6)c(C(N)=O)c5N)C4)ccc3C)ccc2CC1C(=O)NC1CCCc2ccccc21)C(C)(C)C

> <Shape>
0.236

> <Color>
0.086

> <Negative vol penalty>
0.000

$$$$

  -OEChem-04042323153D

 84 92  0     1  0  0  0  0  0999 V2000
  -18.4624  -31.6083   22.9150 C   0  0  0  0  0  0  0  0  0  0  0  0
  -19.8508  -31.5295   22.8757 C   0  0  0  0  0  0  0  0  0  0  0  0
  -28.0163  -12.7029   22.4214 C   0  0  0  0  0  0  0  0  0  0  0  0
  -26.8064  -12.9721   20.3476 C   0  0  0  0  0  0  0  0  0  0  0  0
  -17.6968  -30.4459   22.8353 C   0  0  0  0  0  0  0  0  0  0  0  0
  -20.4745  -30.2879   22.7579 C   0  0  0  0  0  0  0  0  0  0  0  0
  -25.6620  -29.0445   19.7498 C   0  0  0  0  0  0  0  0  0  0  0  0
  -27.4890  -11.4193   22.5625 C   0  0  0  0  0  0  0  0  0  0  0  0
  -26.2790  -11.6884   20.4887 C   0  0  0  0  0  0  0  0  0  0  0  0
  -26.9809  -28.8949   20.1764 C   0  0  0  0  0  0  0  0  0  0  0  0
  -23.8158  -10.1869   22.2519 C   0  0  0  0  0  0  0  0  0  0  0  0
  -22.4530  -10.0158   22.0087 C   0  0  0  0  0  0  0  0  0  0  0  0
  -26.6741  -26.5039   20.2668 C   0  0  0  0  0  0  0  0  0  0  0  0
  -30.7157  -24.1265   17.8279 C   0  0  0  0  0  0  0  0  0  0  0  0
  -29.0750  -23.5313   19.4985 C   0  0  0  0  0  0  0  0  0  0  0  0
  -22.9650   -8.4490   20.2423 C   0  0  0  0  0  0  0  0  0  0  0  0
  -27.6749  -13.4793   21.3140 C   0  0  0  0  0  0  0  0  0  0  0  0
  -29.4138  -15.1674   20.5176 C   0  0  0  0  0  0  0  0  0  0  0  0
  -18.3111  -29.1902   22.7067 C   0  0  0  0  0  0  0  0  0  0  0  0
  -24.8346  -27.9238   19.5887 C   0  0  0  0  0  0  0  0  0  0  0  0
  -19.7164  -29.1074   22.6777 C   0  0  0  0  0  0  0  0  0  0  0  0
  -25.3459  -26.6417   19.8355 C   0  0  0  0  0  0  0  0  0  0  0  0
  -30.4780  -22.9223   17.1654 C   0  0  0  0  0  0  0  0  0  0  0  0
  -30.0143  -24.4310   18.9946 C   0  0  0  0  0  0  0  0  0  0  0  0
  -28.8372  -22.3271   18.8359 C   0  0  0  0  0  0  0  0  0  0  0  0
  -26.6204  -10.9121   21.5962 C   0  0  0  0  0  0  0  0  0  0  0  0
  -27.4862  -27.6247   20.4377 C   0  0  0  0  0  0  0  0  0  0  0  0
  -24.7532   -9.4891   21.4902 C   0  0  0  0  0  0  0  0  0  0  0  0
  -22.0276   -9.1468   21.0039 C   0  0  0  0  0  0  0  0  0  0  0  0
  -24.3278   -8.6201   20.4855 C   0  0  0  0  0  0  0  0  0  0  0  0
  -29.5387  -22.0226   17.6693 C   0  0  0  0  0  0  0  0  0  0  0  0
  -28.2189  -14.8056   21.1680 C   0  0  0  0  0  0  0  0  0  0  0  0
  -29.4799  -16.5324   20.6552 C   0  0  0  0  0  0  0  0  0  0  0  0
  -30.3778  -14.3434   19.8487 C   0  0  0  0  0  0  0  0  0  0  0  0
  -22.1246  -26.9269   20.9175 C   0  0  0  0  0  0  0  0  0  0  0  0
  -22.3294  -24.6034   18.6631 C   0  0  0  0  0  0  0  0  0  0  0  0
  -31.1494  -26.6577   19.3064 C   0  0  0  0  0  0  0  0  0  0  0  0
  -24.2961  -22.7771   16.5552 C   0  0  0  0  0  0  0  0  0  0  0  0
  -27.1023  -21.5648   20.4958 C   0  0  0  0  0  0  0  0  0  0  0  0
  -17.4429  -27.9575   22.6717 C   0  0  0  0  0  0  0  0  0  0  0  0
  -23.4223  -28.1000   19.1021 C   0  0  0  0  0  0  0  0  0  0  0  0
  -24.5048  -25.4049   19.6585 C   0  0  0  0  0  0  0  0  0  0  0  0
  -18.1719  -26.7131   22.1711 C   0  0  0  0  0  0  0  0  0  0  0  0
  -26.7358  -19.6926   23.5021 C   0  0  0  0  0  0  0  0  0  0  0  0
  -19.5312  -26.5812   22.8505 C   0  0  0  0  0  0  0  0  0  0  0  0
  -27.1873  -18.2841   23.1093 C   0  0  0  0  0  0  0  0  0  0  0  0
  -25.9772  -20.3816   22.3691 C   0  0  0  0  0  0  0  0  0  0  0  0
  -27.1297  -18.9999   20.6863 C   0  0  0  0  0  0  0  0  0  0  0  0
  -20.4291  -27.7811   22.5256 C   0  0  1  0  0  0  0  0  0  0  0  0
  -22.5144  -26.9294   19.4663 C   0  0  1  0  0  0  0  0  0  0  0  0
  -27.9544  -18.2904   21.7725 C   0  0  2  0  0  0  0  0  0  0  0  0
  -31.2295  -22.6006   15.9176 C   0  0  0  0  0  0  0  0  0  0  0  0
  -24.1835  -20.9257   14.8649 C   0  0  0  0  0  0  0  0  0  0  0  0
  -22.0499  -22.5659   20.9171 C   0  0  0  0  0  0  0  0  0  0  0  0
  -22.8843  -20.8101   19.3393 C   0  0  0  0  0  0  0  0  0  0  0  0
  -20.7570  -22.0166   18.8480 C   0  0  0  0  0  0  0  0  0  0  0  0
  -25.3120  -24.5290   14.3970 C   0  0  0  0  0  0  0  0  0  0  0  0
  -31.0936  -27.8056   20.3081 C   0  0  0  0  0  0  0  0  0  0  0  0
  -29.7176  -28.4468   20.4061 C   0  0  0  0  0  0  0  0  0  1  0  0
  -22.9588  -23.2330   18.5944 C   0  0  1  0  0  0  0  0  0  0  0  0
  -24.1460  -22.4300   15.0850 C   0  0  2  0  0  0  0  0  0  0  0  0
  -22.1780  -22.1797   19.4300 C   0  0  0  0  0  0  0  0  0  0  0  0
  -27.5725  -15.8559   21.6808 N   0  0  0  0  0  0  0  0  0  0  0  0
  -28.3641  -16.8911   21.3528 N   0  0  0  0  0  0  0  0  0  0  0  0
  -23.1283  -25.6297   19.1869 N   0  0  0  0  0  0  0  0  0  0  0  0
  -26.7667  -20.3530   21.1359 N   0  0  0  0  0  0  0  0  0  0  0  0
  -30.3829  -17.4488   20.2464 N   0  0  0  0  0  0  0  0  0  0  0  0
  -30.1555  -12.9605   19.7998 N   0  0  0  0  0  0  0  0  0  0  0  0
  -30.2554  -25.6529   19.6666 N   0  0  0  0  0  0  0  0  0  0  0  0
  -27.8828  -21.4147   19.3500 N   0  0  0  0  0  0  0  0  0  0  0  0
  -20.9819  -27.6528   21.1943 N   0  0  0  0  0  0  0  0  0  0  0  0
  -23.0723  -22.9065   17.1770 N   0  0  0  0  0  0  0  0  0  0  0  0
  -25.2456  -23.0486   14.2918 N   0  3  0  0  0  0  0  0  0  0  0  0
  -31.4142  -14.8175   19.3246 O   0  0  0  0  0  0  0  0  0  0  0  0
  -22.8091  -26.3106   21.7258 O   0  0  0  0  0  0  0  0  0  0  0  0
  -21.1740  -24.7591   18.2601 O   0  0  0  0  0  0  0  0  0  0  0  0
  -31.8996  -26.6738   18.3363 O   0  0  0  0  0  0  0  0  0  0  0  0
  -25.3898  -22.9156   17.0986 O   0  0  0  0  0  0  0  0  0  0  0  0
  -26.7480  -22.6569   20.9470 O   0  0  0  0  0  0  0  0  0  0  0  0
  -26.1058   -9.6595   21.7334 O   0  0  0  0  0  0  0  0  0  0  0  0
  -28.7730  -27.4759   20.8549 O   0  0  0  0  0  0  0  0  0  1  0  0
  -20.7189   -8.9814   20.7716 F   0  0  0  0  0  0  0  0  0  0  0  0
  -25.2236   -7.9461   19.7513 F   0  0  0  0  0  0  0  0  0  0  0  0
  -29.3122  -20.8648   17.0306 F   0  0  0  0  0  0  0  0  0  0  0  0
  1  2  1  0  0  0  0
  1  5  2  0  0  0  0
  2  6  2  0  0  0  0
  3  8  2  0  0  0  0
  3 17  1  0  0  0  0
  4  9  1  0  0  0  0
  4 17  2  0  0  0  0
  5 19  1  0  0  0  0
  6 21  1  0  0  0  0
  7 10  2  0  0  0  0
  7 20  1  0  0  0  0
  8 26  1  0  0  0  0
  9 26  2  0  0  0  0
 10 27  1  0  0  0  0
 11 12  2  0  0  0  0
 11 28  1  0  0  0  0
 12 29  1  0  0  0  0
 13 22  1  0  0  0  0
 13 27  2  0  0  0  0
 14 23  2  0  0  0  0
 14 24  1  0  0  0  0
 15 24  2  0  0  0  0
 15 25  1  0  0  0  0
 16 29  2  0  0  0  0
 16 30  1  0  0  0  0
 17 32  1  0  0  0  0
 18 32  1  0  0  0  0
 18 33  2  0  0  0  0
 18 34  1  0  0  0  0
 19 21  2  0  0  0  0
 19 40  1  0  0  0  0
 20 22  2  0  0  0  0
 20 41  1  0  0  0  0
 21 49  1  0  0  0  0
 22 42  1  0  0  0  0
 23 31  1  0  0  0  0
 23 52  1  0  0  0  0
 24 69  1  0  0  0  0
 25 31  2  0  0  0  0
 25 70  1  0  0  0  0
 26 80  1  0  0  0  0
 27 81  1  0  0  0  0
 28 30  2  0  0  0  0
 28 80  1  0  0  0  0
 29 82  1  0  0  0  0
 30 83  1  0  0  0  0
 31 84  1  0  0  0  0
 32 63  2  0  0  0  0
 33 64  1  0  0  0  0
 33 67  1  0  0  0  0
 34 68  1  0  0  0  0
 34 74  2  0  0  0  0
 35 50  1  0  0  0  0
 35 71  1  0  0  0  0
 35 75  2  0  0  0  0
 36 60  1  0  0  0  0
 36 65  1  0  0  0  0
 36 76  2  0  0  0  0
 37 58  1  0  0  0  0
 37 69  1  0  0  0  0
 37 77  2  0  0  0  0
 38 61  1  0  0  0  0
 38 72  1  0  0  0  0
 38 78  2  0  0  0  0
 39 66  1  0  0  0  0
 39 70  1  0  0  0  0
 39 79  2  0  0  0  0
 40 43  1  0  0  0  0
 41 50  1  0  0  0  0
 42 65  1  0  0  0  0
 43 45  1  0  0  0  0
 44 46  1  0  0  0  0
 44 47  1  0  0  0  0
 45 49  1  0  0  0  0
 46 51  1  0  0  0  0
 47 66  1  0  0  0  0
 48 51  1  0  0  0  0
 48 66  1  0  0  0  0
 49 71  1  0  0  0  0
 50 65  1  0  0  0  0
 51 64  1  0  0  0  0
 53 61  1  0  0  0  0
 54 62  1  0  0  0  0
 55 62  1  0  0  0  0
 56 62  1  0  0  0  0
 57 73  1  0  0  0  0
 58 59  1  0  0  0  0
 59 81  1  0  0  0  0
 60 62  1  0  0  0  0
 60 72  1  0  0  0  0
 61 73  1  0  0  0  0
 63 64  1  0  0  0  0
M  CHG  1  73   1
M  ISO  4  39 100  59 101  70 100  81 101
M  END
> <Batch ID>
0064

> <Smiles>
CNC(C)C(=O)NC(C(=O)N1Cc2cc([101O:1][101CH2:1]CC(=O)Nc3cc(C)c(F)c([100NH:0][100C:0](=O)N4CCCC(n5nc(-c6ccc(Oc7ccc(F)cc7F)cc6)c(C(N)=O)c5N)C4)c3)ccc2CC1C(=O)NC1CCCc2ccccc21)C(C)(C)C

> <Shape>
0.268

> <Color>
0.082

> <Negative vol penalty>
0.000

$$$$

  -OEChem-04042323153D

 88 96  0     1  0  0  0  0  0999 V2000
  -26.9225  -35.4660   26.5500 C   0  0  0  0  0  0  0  0  0  0  0  0
  -27.3872  -34.2505   26.0581 C   0  0  0  0  0  0  0  0  0  0  0  0
  -23.1012   -9.8051   19.8995 C   0  0  0  0  0  0  0  0  0  0  0  0
  -23.9445   -9.7087   22.1615 C   0  0  0  0  0  0  0  0  0  0  0  0
  -29.5334  -19.2524   22.6252 C   0  0  0  0  0  0  0  0  0  0  0  0
  -25.5686  -35.7843   26.4528 C   0  0  0  0  0  0  0  0  0  0  0  0
  -26.4980  -33.3520   25.4696 C   0  0  0  0  0  0  0  0  0  0  0  0
  -27.6375  -29.5827   20.7792 C   0  0  0  0  0  0  0  0  0  0  0  0
  -29.4041  -17.8659   22.5455 C   0  0  0  0  0  0  0  0  0  0  0  0
  -22.3994   -8.6183   20.1105 C   0  0  0  0  0  0  0  0  0  0  0  0
  -23.2426   -8.5219   22.3726 C   0  0  0  0  0  0  0  0  0  0  0  0
  -27.9658  -28.2289   20.7222 C   0  0  0  0  0  0  0  0  0  0  0  0
  -20.0623   -7.5963   23.0427 C   0  0  0  0  0  0  0  0  0  0  0  0
  -19.3503   -7.4695   24.2354 C   0  0  0  0  0  0  0  0  0  0  0  0
  -25.6437  -27.6873   20.3568 C   0  0  0  0  0  0  0  0  0  0  0  0
  -30.9738  -17.8252   20.7093 C   0  0  0  0  0  0  0  0  0  0  0  0
  -20.6714   -5.5324   24.8181 C   0  0  0  0  0  0  0  0  0  0  0  0
  -23.8738  -10.3503   20.9250 C   0  0  0  0  0  0  0  0  0  0  0  0
  -30.3827  -19.9254   21.7469 C   0  0  0  0  0  0  0  0  0  0  0  0
  -24.1406  -12.8873   20.9345 C   0  0  0  0  0  0  0  0  0  0  0  0
  -24.6639  -34.8933   25.8542 C   0  0  0  0  0  0  0  0  0  0  0  0
  -26.3060  -29.9988   20.6361 C   0  0  0  0  0  0  0  0  0  0  0  0
  -25.1304  -33.6580   25.3655 C   0  0  0  0  0  0  0  0  0  0  0  0
  -25.3014  -29.0471   20.4098 C   0  0  0  0  0  0  0  0  0  0  0  0
  -30.1244  -17.1523   21.5876 C   0  0  0  0  0  0  0  0  0  0  0  0
  -22.4701   -7.9767   21.3470 C   0  0  0  0  0  0  0  0  0  0  0  0
  -26.9685  -27.2808   20.5139 C   0  0  0  0  0  0  0  0  0  0  0  0
  -21.0788   -6.6911   22.7376 C   0  0  0  0  0  0  0  0  0  0  0  0
  -19.6549   -6.4376   25.1232 C   0  0  0  0  0  0  0  0  0  0  0  0
  -31.1030  -19.2118   20.7890 C   0  0  0  0  0  0  0  0  0  0  0  0
  -21.3833   -5.6592   23.6253 C   0  0  0  0  0  0  0  0  0  0  0  0
  -24.5995  -11.5759   20.7074 C   0  0  0  0  0  0  0  0  0  0  0  0
  -25.1974  -13.6878   20.5756 C   0  0  0  0  0  0  0  0  0  0  0  0
  -30.5169  -21.3935   21.8335 C   0  0  0  0  0  0  0  0  0  0  0  0
  -22.8726  -13.3412   21.4261 C   0  0  0  0  0  0  0  0  0  0  0  0
  -24.2220  -31.5266   22.4872 C   0  0  0  0  0  0  0  0  0  0  0  0
  -28.8429  -24.1085   20.5642 C   0  0  0  0  0  0  0  0  0  0  0  0
  -22.3834  -31.4473   19.8160 C   0  0  0  0  0  0  0  0  0  0  0  0
  -21.6640  -29.9447   16.8375 C   0  0  0  0  0  0  0  0  0  0  0  0
  -30.6351  -14.8847   20.6161 C   0  0  0  0  0  0  0  0  0  0  0  0
  -23.2017  -35.2610   25.8145 C   0  0  0  0  0  0  0  0  0  0  0  0
  -25.9720  -31.4649   20.6734 C   0  0  0  0  0  0  0  0  0  0  0  0
  -23.8596  -29.4436   20.2298 C   0  0  0  0  0  0  0  0  0  0  0  0
  -22.3871  -34.4146   24.8397 C   0  0  0  0  0  0  0  0  0  0  0  0
  -29.5019  -12.5726   18.1570 C   0  0  0  0  0  0  0  0  0  0  0  0
  -22.7229  -32.9361   25.0068 C   0  0  0  0  0  0  0  0  0  0  0  0
  -28.0877  -12.2150   18.6200 C   0  0  0  0  0  0  0  0  0  0  0  0
  -30.4539  -12.7622   19.3367 C   0  0  0  0  0  0  0  0  0  0  0  0
  -28.5796  -13.3525   20.8226 C   0  0  0  0  0  0  0  0  0  0  0  0
  -24.2009  -32.6678   24.6981 C   0  0  1  0  0  0  0  0  0  0  0  0
  -24.5133  -31.7365   21.0282 C   0  0  1  0  0  0  0  0  0  0  0  0
  -27.5693  -13.2153   19.6719 C   0  0  2  0  0  0  0  0  0  0  0  0
  -20.0828  -30.0809   14.8936 C   0  0  0  0  0  0  0  0  0  0  0  0
  -30.7626  -23.6225   18.2229 C   0  0  0  0  0  0  0  0  0  0  0  0
  -32.6394  -23.5534   19.8838 C   0  0  0  0  0  0  0  0  0  0  0  0
  -20.1888  -30.1803   21.5156 C   0  0  0  0  0  0  0  0  0  0  0  0
  -19.0484  -29.4831   19.3986 C   0  0  0  0  0  0  0  0  0  0  0  0
  -19.3862  -31.9049   19.8920 C   0  0  0  0  0  0  0  0  0  0  0  0
  -23.8700  -30.4442   14.9288 C   0  0  0  0  0  0  0  0  0  0  0  0
  -28.6611  -25.6137   20.6218 C   0  0  0  0  0  0  0  0  0  1  0  0
  -30.2610  -23.5892   20.7334 C   0  0  2  0  0  0  0  0  0  0  0  0
  -21.3733  -30.4836   19.2416 C   0  0  1  0  0  0  0  0  0  0  0  0
  -21.4286  -30.5172   15.4514 C   0  0  2  0  0  0  0  0  0  0  0  0
  -31.2153  -24.0521   19.6217 C   0  0  0  0  0  0  0  0  0  0  0  0
  -20.0260  -30.5050   20.0172 C   0  0  0  0  0  0  0  0  0  0  0  0
  -25.8503  -11.5410   20.2401 N   0  0  0  0  0  0  0  0  0  0  0  0
  -26.1863  -12.8403   20.1707 N   0  0  0  0  0  0  0  0  0  0  0  0
  -23.5824  -30.8886   20.2807 N   0  0  0  0  0  0  0  0  0  0  0  0
  -29.8991  -13.7261   20.2895 N   0  0  0  0  0  0  0  0  0  0  0  0
  -25.3679  -15.0270   20.5699 N   0  0  0  0  0  0  0  0  0  0  0  0
  -21.8994  -12.3851   21.7474 N   0  0  0  0  0  0  0  0  0  0  0  0
  -29.9928  -15.7437   21.5073 N   0  0  0  0  0  0  0  0  0  0  0  0
  -30.1882  -22.1292   20.7629 N   0  0  0  0  0  0  0  0  0  0  0  0
  -24.4232  -32.6487   23.2682 N   0  0  0  0  0  0  0  0  0  0  0  0
  -21.2531  -30.8141   17.8257 N   0  0  0  0  0  0  0  0  0  0  0  0
  -30.9625  -21.9174   22.9755 N   0  3  0  0  0  0  0  0  0  0  0  0
  -22.4952  -30.0624   14.5151 N   0  3  0  0  0  0  0  0  0  0  0  0
  -22.6044  -14.5592   21.5606 O   0  0  0  0  0  0  0  0  0  0  0  0
  -23.8415  -30.4283   22.8755 O   0  0  0  0  0  0  0  0  0  0  0  0
  -27.8858  -23.3524   20.3947 O   0  0  0  0  0  0  0  0  0  0  0  0
  -22.1212  -32.6523   19.8446 O   0  0  0  0  0  0  0  0  0  0  0  0
  -22.1592  -28.8356   17.0248 O   0  0  0  0  0  0  0  0  0  0  0  0
  -31.7411  -15.1125   20.1192 O   0  0  0  0  0  0  0  0  0  0  0  0
  -21.7852   -6.8187   21.5534 O   0  0  0  0  0  0  0  0  0  0  0  0
  -27.2861  -25.9587   20.4584 O   0  0  0  0  0  0  0  0  0  1  0  0
  -18.9722   -6.3169   26.2692 F   0  0  0  0  0  0  0  0  0  0  0  0
  -31.9202  -19.8498   19.9394 F   0  0  0  0  0  0  0  0  0  0  0  0
  -22.3596   -4.7872   23.3382 F   0  0  0  0  0  0  0  0  0  0  0  0
  1  2  1  0  0  0  0
  1  6  2  0  0  0  0
  2  7  2  0  0  0  0
  3 10  2  0  0  0  0
  3 18  1  0  0  0  0
  4 11  1  0  0  0  0
  4 18  2  0  0  0  0
  5  9  2  0  0  0  0
  5 19  1  0  0  0  0
  6 21  1  0  0  0  0
  7 23  1  0  0  0  0
  8 12  2  0  0  0  0
  8 22  1  0  0  0  0
  9 25  1  0  0  0  0
 10 26  1  0  0  0  0
 11 26  2  0  0  0  0
 12 27  1  0  0  0  0
 13 14  2  0  0  0  0
 13 28  1  0  0  0  0
 14 29  1  0  0  0  0
 15 24  1  0  0  0  0
 15 27  2  0  0  0  0
 16 25  2  0  0  0  0
 16 30  1  0  0  0  0
 17 29  2  0  0  0  0
 17 31  1  0  0  0  0
 18 32  1  0  0  0  0
 19 30  2  0  0  0  0
 19 34  1  0  0  0  0
 20 32  1  0  0  0  0
 20 33  2  0  0  0  0
 20 35  1  0  0  0  0
 21 23  2  0  0  0  0
 21 41  1  0  0  0  0
 22 24  2  0  0  0  0
 22 42  1  0  0  0  0
 23 50  1  0  0  0  0
 24 43  1  0  0  0  0
 25 72  1  0  0  0  0
 26 84  1  0  0  0  0
 27 85  1  0  0  0  0
 28 31  2  0  0  0  0
 28 84  1  0  0  0  0
 29 86  1  0  0  0  0
 30 87  1  0  0  0  0
 31 88  1  0  0  0  0
 32 66  2  0  0  0  0
 33 67  1  0  0  0  0
 33 70  1  0  0  0  0
 34 73  1  0  0  0  0
 34 76  2  0  0  0  0
 35 71  1  0  0  0  0
 35 78  2  0  0  0  0
 36 51  1  0  0  0  0
 36 74  1  0  0  0  0
 36 79  2  0  0  0  0
 37 60  1  0  0  0  0
 37 61  1  0  0  0  0
 37 80  2  0  0  0  0
 38 62  1  0  0  0  0
 38 68  1  0  0  0  0
 38 81  2  0  0  0  0
 39 63  1  0  0  0  0
 39 75  1  0  0  0  0
 39 82  2  0  0  0  0
 40 69  1  0  0  0  0
 40 72  1  0  0  0  0
 40 83  2  0  0  0  0
 41 44  1  0  0  0  0
 42 51  1  0  0  0  0
 43 68  1  0  0  0  0
 44 46  1  0  0  0  0
 45 47  1  0  0  0  0
 45 48  1  0  0  0  0
 46 50  1  0  0  0  0
 47 52  1  0  0  0  0
 48 69  1  0  0  0  0
 49 52  1  0  0  0  0
 49 69  1  0  0  0  0
 50 74  1  0  0  0  0
 51 68  1  0  0  0  0
 52 67  1  0  0  0  0
 53 63  1  0  0  0  0
 54 64  1  0  0  0  0
 55 64  1  0  0  0  0
 56 65  1  0  0  0  0
 57 65  1  0  0  0  0
 58 65  1  0  0  0  0
 59 77  1  0  0  0  0
 60 85  1  0  0  0  0
 61 64  1  0  0  0  0
 61 73  1  0  0  0  0
 62 65  1  0  0  0  0
 62 75  1  0  0  0  0
 63 77  1  0  0  0  0
 66 67  1  0  0  0  0
M  CHG  2  76   1  77   1
M  ISO  4  40 100  60 101  72 100  85 101
M  END
> <Batch ID>
0064

> <Smiles>
CNC(C)C(=O)NC(C(=O)N1Cc2cc([101O:1][101CH2:1]C(=O)C(NC(=N)c3ccc([100NH:0][100C:0](=O)N4CCCC(n5nc(-c6ccc(Oc7ccc(F)cc7F)cc6)c(C(N)=O)c5N)C4)cc3F)C(C)C)ccc2CC1C(=O)NC1CCCc2ccccc21)C(C)(C)C

> <Shape>
0.348

> <Color>
0.207

> <Negative vol penalty>
0.000

$$$$

  -OEChem-04042323153D

 84 92  0     1  0  0  0  0  0999 V2000
  -16.3113  -20.6355   21.8396 C   0  0  0  0  0  0  0  0  0  0  0  0
  -17.0003  -19.4505   21.6017 C   0  0  0  0  0  0  0  0  0  0  0  0
  -29.1687  -11.6852   18.7771 C   0  0  0  0  0  0  0  0  0  0  0  0
  -28.3645  -24.1406   21.5187 C   0  0  0  0  0  0  0  0  0  0  0  0
  -28.4892  -23.3222   19.2490 C   0  0  0  0  0  0  0  0  0  0  0  0
  -27.8161  -11.4775   19.0472 C   0  0  0  0  0  0  0  0  0  0  0  0
  -16.3077  -21.6437   20.8766 C   0  0  0  0  0  0  0  0  0  0  0  0
  -17.6852  -19.2726   20.4002 C   0  0  0  0  0  0  0  0  0  0  0  0
  -22.3026  -17.3035   21.0689 C   0  0  0  0  0  0  0  0  0  0  0  0
  -29.7956  -12.8528   19.2123 C   0  0  0  0  0  0  0  0  0  0  0  0
  -28.2338  -25.4447   21.0414 C   0  0  0  0  0  0  0  0  0  0  0  0
  -28.3584  -24.6263   18.7716 C   0  0  0  0  0  0  0  0  0  0  0  0
  -22.3814  -15.9323   21.3085 C   0  0  0  0  0  0  0  0  0  0  0  0
  -25.7942  -27.3847   19.7309 C   0  0  0  0  0  0  0  0  0  0  0  0
  -24.8186  -28.1936   20.3136 C   0  0  0  0  0  0  0  0  0  0  0  0
  -22.9650  -15.5680   18.9964 C   0  0  0  0  0  0  0  0  0  0  0  0
  -26.5260  -29.7604   20.9971 C   0  0  0  0  0  0  0  0  0  0  0  0
  -28.4923  -23.0793   20.6225 C   0  0  0  0  0  0  0  0  0  0  0  0
  -27.0904  -12.4375   19.7525 C   0  0  0  0  0  0  0  0  0  0  0  0
  -27.7130  -21.0240   21.9171 C   0  0  0  0  0  0  0  0  0  0  0  0
  -17.0009  -21.4819   19.6666 C   0  0  0  0  0  0  0  0  0  0  0  0
  -22.5441  -17.8170   19.7866 C   0  0  0  0  0  0  0  0  0  0  0  0
  -17.6897  -20.2791   19.4195 C   0  0  0  0  0  0  0  0  0  0  0  0
  -22.8911  -16.9463   18.7437 C   0  0  0  0  0  0  0  0  0  0  0  0
  -29.0699  -13.8128   19.9176 C   0  0  0  0  0  0  0  0  0  0  0  0
  -28.2307  -25.6875   19.6678 C   0  0  0  0  0  0  0  0  0  0  0  0
  -22.7099  -15.0640   20.2715 C   0  0  0  0  0  0  0  0  0  0  0  0
  -27.1357  -27.7636   19.7813 C   0  0  0  0  0  0  0  0  0  0  0  0
  -25.1845  -29.3814   20.9467 C   0  0  0  0  0  0  0  0  0  0  0  0
  -27.5016  -28.9515   20.4144 C   0  0  0  0  0  0  0  0  0  0  0  0
  -27.7173  -13.6052   20.1877 C   0  0  0  0  0  0  0  0  0  0  0  0
  -28.6279  -21.7321   21.1151 C   0  0  0  0  0  0  0  0  0  0  0  0
  -28.3016  -19.7980   22.1089 C   0  0  0  0  0  0  0  0  0  0  0  0
  -25.6588  -12.2142   20.0374 C   0  0  0  0  0  0  0  0  0  0  0  0
  -26.4443  -21.4375   22.4417 C   0  0  0  0  0  0  0  0  0  0  0  0
  -20.8235  -19.4301   17.6556 C   0  0  0  0  0  0  0  0  0  0  0  0
  -23.6440  -19.5643   16.0590 C   0  0  0  0  0  0  0  0  0  0  0  0
  -26.7271  -18.2097   15.5054 C   0  0  0  0  0  0  0  0  0  0  0  0
  -31.0448  -15.3556   20.1740 C   0  0  0  0  0  0  0  0  0  0  0  0
  -16.9288  -22.5809   18.6362 C   0  0  0  0  0  0  0  0  0  0  0  0
  -22.4812  -19.3012   19.5507 C   0  0  0  0  0  0  0  0  0  0  0  0
  -23.1796  -17.4492   17.3536 C   0  0  0  0  0  0  0  0  0  0  0  0
  -17.9901  -22.4635   17.5452 C   0  0  0  0  0  0  0  0  0  0  0  0
  -32.9912  -18.1977   21.0749 C   0  0  0  0  0  0  0  0  0  0  0  0
  -18.0635  -21.0318   17.0238 C   0  0  0  0  0  0  0  0  0  0  0  0
  -31.9543  -19.3123   21.2316 C   0  0  0  0  0  0  0  0  0  0  0  0
  -32.6357  -17.2491   19.9314 C   0  0  0  0  0  0  0  0  0  0  0  0
  -30.2442  -17.7998   20.1476 C   0  0  0  0  0  0  0  0  0  0  0  0
  -18.4650  -20.0586   18.1387 C   0  0  1  0  0  0  0  0  0  0  0  0
  -22.2432  -19.6642   18.0881 C   0  0  1  0  0  0  0  0  0  0  0  0
  -30.5252  -18.7430   21.3287 C   0  0  2  0  0  0  0  0  0  0  0  0
  -29.0499  -18.0098   14.5771 C   0  0  0  0  0  0  0  0  0  0  0  0
  -23.8840  -11.2444   23.0628 C   0  0  0  0  0  0  0  0  0  0  0  0
  -22.1877  -18.4034   13.6420 C   0  0  0  0  0  0  0  0  0  0  0  0
  -24.4193  -17.8549   12.6485 C   0  0  0  0  0  0  0  0  0  0  0  0
  -23.8090  -20.2302   13.1047 C   0  0  0  0  0  0  0  0  0  0  0  0
  -27.8789  -19.7738   17.7383 C   0  0  0  0  0  0  0  0  0  0  0  0
  -23.1754  -13.3133   21.8124 C   0  0  0  0  0  0  0  0  0  1  0  0
  -24.3385  -18.6927   15.0406 C   0  0  1  0  0  0  0  0  0  0  0  0
  -28.1060  -18.8403   15.4327 C   0  0  2  0  0  0  0  0  0  0  0  0
  -23.8725  -11.9625   21.7234 C   0  0  1  0  0  0  0  0  0  0  0  0
  -23.6813  -18.7853   13.6346 C   0  0  0  0  0  0  0  0  0  0  0  0
  -29.7153  -21.0156   20.8179 N   0  0  0  0  0  0  0  0  0  0  0  0
  -29.4874  -19.8445   21.4366 N   0  0  0  0  0  0  0  0  0  0  0  0
  -23.0990  -18.9079   17.1717 N   0  0  0  0  0  0  0  0  0  0  0  0
  -31.2697  -16.7462   20.0923 N   0  0  0  0  0  0  0  0  0  0  0  0
  -27.9155  -18.6954   22.7855 N   0  0  0  0  0  0  0  0  0  0  0  0
  -24.8296  -12.0593   19.0052 N   0  0  0  0  0  0  0  0  0  0  0  0
  -25.2955  -21.2039   21.6737 N   0  0  0  0  0  0  0  0  0  0  0  0
  -29.7099  -14.9974   20.3591 N   0  0  0  0  0  0  0  0  0  0  0  0
  -19.8884  -20.1356   18.3886 N   0  0  0  0  0  0  0  0  0  0  0  0
  -25.7462  -19.0748   15.0686 N   0  0  0  0  0  0  0  0  0  0  0  0
  -25.2675  -12.1811   21.3139 N   0  3  0  0  0  0  0  0  0  0  0  0
  -28.6926  -18.9618   16.7973 N   0  3  0  0  0  0  0  0  0  0  0  0
  -26.3346  -22.0123   23.5513 O   0  0  0  0  0  0  0  0  0  0  0  0
  -20.5935  -18.6670   16.7247 O   0  0  0  0  0  0  0  0  0  0  0  0
  -23.5932  -20.7833   15.8775 O   0  0  0  0  0  0  0  0  0  0  0  0
  -26.5392  -17.0630   15.9058 O   0  0  0  0  0  0  0  0  0  0  0  0
  -31.9717  -14.5437   20.1135 O   0  0  0  0  0  0  0  0  0  0  0  0
  -28.1029  -26.9599   19.2016 O   0  0  0  0  0  0  0  0  0  0  0  0
  -22.7869  -13.7252   20.5025 O   0  0  0  0  0  0  0  0  0  1  0  0
  -24.2474  -30.1589   21.5049 F   0  0  0  0  0  0  0  0  0  0  0  0
  -28.7886  -29.3213   20.4650 F   0  0  0  0  0  0  0  0  0  0  0  0
  -27.0178  -14.5274   20.8662 F   0  0  0  0  0  0  0  0  0  0  0  0
  1  2  1  0  0  0  0
  1  7  2  0  0  0  0
  2  8  2  0  0  0  0
  3  6  2  0  0  0  0
  3 10  1  0  0  0  0
  4 11  2  0  0  0  0
  4 18  1  0  0  0  0
  5 12  1  0  0  0  0
  5 18  2  0  0  0  0
  6 19  1  0  0  0  0
  7 21  1  0  0  0  0
  8 23  1  0  0  0  0
  9 13  2  0  0  0  0
  9 22  1  0  0  0  0
 10 25  2  0  0  0  0
 11 26  1  0  0  0  0
 12 26  2  0  0  0  0
 13 27  1  0  0  0  0
 14 15  2  0  0  0  0
 14 28  1  0  0  0  0
 15 29  1  0  0  0  0
 16 24  1  0  0  0  0
 16 27  2  0  0  0  0
 17 29  2  0  0  0  0
 17 30  1  0  0  0  0
 18 32  1  0  0  0  0
 19 31  2  0  0  0  0
 19 34  1  0  0  0  0
 20 32  1  0  0  0  0
 20 33  2  0  0  0  0
 20 35  1  0  0  0  0
 21 23  2  0  0  0  0
 21 40  1  0  0  0  0
 22 24  2  0  0  0  0
 22 41  1  0  0  0  0
 23 49  1  0  0  0  0
 24 42  1  0  0  0  0
 25 31  1  0  0  0  0
 25 70  1  0  0  0  0
 26 80  1  0  0  0  0
 27 81  1  0  0  0  0
 28 30  2  0  0  0  0
 28 80  1  0  0  0  0
 29 82  1  0  0  0  0
 30 83  1  0  0  0  0
 31 84  1  0  0  0  0
 32 63  2  0  0  0  0
 33 64  1  0  0  0  0
 33 67  1  0  0  0  0
 34 68  1  0  0  0  0
 34 73  2  0  0  0  0
 35 69  1  0  0  0  0
 35 75  2  0  0  0  0
 36 50  1  0  0  0  0
 36 71  1  0  0  0  0
 36 76  2  0  0  0  0
 37 59  1  0  0  0  0
 37 65  1  0  0  0  0
 37 77  2  0  0  0  0
 38 60  1  0  0  0  0
 38 72  1  0  0  0  0
 38 78  2  0  0  0  0
 39 66  1  0  0  0  0
 39 70  1  0  0  0  0
 39 79  2  0  0  0  0
 40 43  1  0  0  0  0
 41 50  1  0  0  0  0
 42 65  1  0  0  0  0
 43 45  1  0  0  0  0
 44 46  1  0  0  0  0
 44 47  1  0  0  0  0
 45 49  1  0  0  0  0
 46 51  1  0  0  0  0
 47 66  1  0  0  0  0
 48 51  1  0  0  0  0
 48 66  1  0  0  0  0
 49 71  1  0  0  0  0
 50 65  1  0  0  0  0
 51 64  1  0  0  0  0
 52 60  1  0  0  0  0
 53 61  1  0  0  0  0
 54 62  1  0  0  0  0
 55 62  1  0  0  0  0
 56 62  1  0  0  0  0
 57 74  1  0  0  0  0
 58 61  1  0  0  0  0
 58 81  1  0  0  0  0
 59 62  1  0  0  0  0
 59 72  1  0  0  0  0
 60 74  1  0  0  0  0
 61 73  1  0  0  0  0
 63 64  1  0  0  0  0
M  CHG  2  73   1  74   1
M  ISO  4  39 100  58 101  70 100  81 101
M  END
> <Batch ID>
0064

> <Smiles>
CNC(C)C(=O)NC(C(=O)N1Cc2cc([101O:1][101CH2:1]C(C)NC(=N)c3cccc([100NH:0][100C:0](=O)N4CCCC(n5nc(-c6ccc(Oc7ccc(F)cc7F)cc6)c(C(N)=O)c5N)C4)c3F)ccc2CC1C(=O)NC1CCCc2ccccc21)C(C)(C)C

> <Shape>
0.187

> <Color>
0.068

> <Negative vol penalty>
0.000

$$$$

  -OEChem-04042323153D

 91100  0     1  0  0  0  0  0999 V2000
  -26.3354  -36.0751   16.1741 C   0  0  0  0  0  0  0  0  0  0  0  0
  -26.5067  -34.6960   16.1103 C   0  0  0  0  0  0  0  0  0  0  0  0
  -24.7851   -8.7026   21.6436 C   0  0  0  0  0  0  0  0  0  0  0  0
  -23.2355   -9.9019   20.2303 C   0  0  0  0  0  0  0  0  0  0  0  0
  -26.4449  -36.7342   17.3979 C   0  0  0  0  0  0  0  0  0  0  0  0
  -26.7886  -33.9752   17.2703 C   0  0  0  0  0  0  0  0  0  0  0  0
  -24.9220  -28.3017   18.6241 C   0  0  0  0  0  0  0  0  0  0  0  0
  -23.7285   -8.2995   22.4601 C   0  0  0  0  0  0  0  0  0  0  0  0
  -22.1789   -9.4987   21.0468 C   0  0  0  0  0  0  0  0  0  0  0  0
  -25.5481  -27.0598   18.5261 C   0  0  0  0  0  0  0  0  0  0  0  0
  -21.2818   -5.9666   22.3974 C   0  0  0  0  0  0  0  0  0  0  0  0
  -21.2437   -4.6304   22.7957 C   0  0  0  0  0  0  0  0  0  0  0  0
  -24.9257  -19.4268   16.9366 C   0  0  0  0  0  0  0  0  0  0  0  0
  -25.1993  -17.0284   16.8367 C   0  0  0  0  0  0  0  0  0  0  0  0
  -26.1898  -27.2070   20.8468 C   0  0  0  0  0  0  0  0  0  0  0  0
  -26.8265  -18.3823   18.0011 C   0  0  0  0  0  0  0  0  0  0  0  0
  -21.3559   -5.3169   25.1094 C   0  0  0  0  0  0  0  0  0  0  0  0
  -24.5387   -9.5039   20.5287 C   0  0  0  0  0  0  0  0  0  0  0  0
  -24.4745  -18.1760   16.5151 C   0  0  0  0  0  0  0  0  0  0  0  0
  -26.1377   -9.2487   18.5575 C   0  0  0  0  0  0  0  0  0  0  0  0
  -26.7187  -36.0198   18.5749 C   0  0  0  0  0  0  0  0  0  0  0  0
  -24.9346  -29.0117   19.8333 C   0  0  0  0  0  0  0  0  0  0  0  0
  -26.9032  -34.6255   18.5107 C   0  0  0  0  0  0  0  0  0  0  0  0
  -25.5610  -28.4565   20.9583 C   0  0  0  0  0  0  0  0  0  0  0  0
  -26.1018  -19.5299   17.6796 C   0  0  0  0  0  0  0  0  0  0  0  0
  -26.3753  -17.1316   17.5797 C   0  0  0  0  0  0  0  0  0  0  0  0
  -22.4254   -8.6975   22.1617 C   0  0  0  0  0  0  0  0  0  0  0  0
  -26.1846  -26.5136   19.6368 C   0  0  0  0  0  0  0  0  0  0  0  0
  -21.3571   -6.9780   23.3551 C   0  0  0  0  0  0  0  0  0  0  0  0
  -21.2806   -4.3055   24.1517 C   0  0  0  0  0  0  0  0  0  0  0  0
  -21.3941   -6.6531   24.7111 C   0  0  0  0  0  0  0  0  0  0  0  0
  -25.6298   -9.9211   19.6853 C   0  0  0  0  0  0  0  0  0  0  0  0
  -27.1615  -10.0491   18.1128 C   0  0  0  0  0  0  0  0  0  0  0  0
  -27.9074  -22.4998   18.8079 C   0  0  0  0  0  0  0  0  0  0  0  0
  -27.8869  -21.0951   18.2863 C   0  0  0  0  0  0  0  0  0  0  0  0
  -23.2483  -18.0685   15.7407 C   0  0  0  0  0  0  0  0  0  0  0  0
  -25.7213   -8.0114   17.9650 C   0  0  0  0  0  0  0  0  0  0  0  0
  -26.0881  -31.8204   20.7735 C   0  0  0  0  0  0  0  0  0  0  0  0
  -24.5347  -31.0970   23.5278 C   0  0  0  0  0  0  0  0  0  0  0  0
  -21.0411  -19.1404   15.3086 C   0  0  0  0  0  0  0  0  0  0  0  0
  -23.2377  -28.6968   25.5781 C   0  0  0  0  0  0  0  0  0  0  0  0
  -28.2973  -15.8922   18.6361 C   0  0  0  0  0  0  0  0  0  0  0  0
  -26.8746  -36.7820   19.8670 C   0  0  0  0  0  0  0  0  0  0  0  0
  -24.2316  -30.3379   19.9298 C   0  0  0  0  0  0  0  0  0  0  0  0
  -25.5853  -29.1691   22.2849 C   0  0  0  0  0  0  0  0  0  0  0  0
  -26.8046  -35.8967   21.1086 C   0  0  0  0  0  0  0  0  0  0  0  0
  -30.3948  -13.2129   19.6845 C   0  0  0  0  0  0  0  0  0  0  0  0
  -27.6742  -34.6563   20.9295 C   0  0  0  0  0  0  0  0  0  0  0  0
  -29.4586  -12.0023   19.6952 C   0  0  0  0  0  0  0  0  0  0  0  0
  -29.6832  -14.4843   20.1436 C   0  0  0  0  0  0  0  0  0  0  0  0
  -25.6738  -21.9018   18.3954 C   0  0  0  0  0  0  0  0  0  0  0  0
  -27.5022  -13.5814   19.4385 C   0  0  0  0  0  0  0  0  0  0  0  0
  -27.1855  -33.8055   19.7509 C   0  0  1  0  0  0  0  0  0  0  0  0
  -26.5148  -22.9640   19.1086 C   0  0  2  0  0  0  0  0  0  0  0  0
  -24.7493  -31.2068   21.0719 C   0  0  1  0  0  0  0  0  0  0  0  0
  -28.1568  -12.2899   18.9217 C   0  0  2  0  0  0  0  0  0  0  0  0
  -20.2654  -20.3623   15.7227 C   0  0  0  0  0  0  0  0  0  0  0  0
  -22.0640  -28.4088   27.7773 C   0  0  0  0  0  0  0  0  0  0  0  0
  -27.1661  -31.5850   24.9932 C   0  0  0  0  0  0  0  0  0  0  0  0
  -26.2055  -30.3890   26.9718 C   0  0  0  0  0  0  0  0  0  0  0  0
  -25.1433  -32.4916   26.1513 C   0  0  0  0  0  0  0  0  0  0  0  0
  -20.8698  -27.4785   24.2867 C   0  0  0  0  0  0  0  0  0  0  0  0
  -26.2532  -24.3693   18.6105 C   0  0  0  0  0  0  0  0  0  1  0  0
  -24.8966  -30.3692   24.7999 C   0  0  1  0  0  0  0  0  0  0  0  0
  -21.8944  -28.5872   26.2766 C   0  0  2  0  0  0  0  0  0  0  0  0
  -25.8543  -31.1959   25.7037 C   0  0  0  0  0  0  0  0  0  0  0  0
  -26.2776  -11.0608   19.9412 N   0  0  0  0  0  0  0  0  0  0  0  0
  -27.2031  -11.1107   18.9681 N   0  0  0  0  0  0  0  0  0  0  0  0
  -26.5516  -20.7764   18.0996 N   0  0  0  0  0  0  0  0  0  0  0  0
  -24.8895  -30.4659   22.3271 N   0  0  0  0  0  0  0  0  0  0  0  0
  -28.4615  -14.6945   19.3637 N   0  0  0  0  0  0  0  0  0  0  0  0
  -28.0211   -9.9413   17.0775 N   0  0  0  0  0  0  0  0  0  0  0  0
  -24.6528   -7.3172   18.5487 N   0  0  0  0  0  0  0  0  0  0  0  0
  -27.1112  -15.9656   17.9066 N   0  0  0  0  0  0  0  0  0  0  0  0
  -22.2869  -19.0785   15.9311 N   0  0  0  0  0  0  0  0  0  0  0  0
  -26.0166  -33.0411   20.1298 N   0  0  0  0  0  0  0  0  0  0  0  0
  -23.6347  -30.0098   25.4377 N   0  0  0  0  0  0  0  0  0  0  0  0
  -21.1294  -27.4224   25.7484 N   0  3  0  0  0  0  0  0  0  0  0  0
  -28.9516  -23.0992   18.9671 O   0  0  0  0  0  0  0  0  0  0  0  0
  -28.9045  -20.4613   18.0991 O   0  0  0  0  0  0  0  0  0  0  0  0
  -23.0708  -17.1054   14.9746 O   0  0  0  0  0  0  0  0  0  0  0  0
  -26.2908   -7.5271   16.9576 O   0  0  0  0  0  0  0  0  0  0  0  0
  -27.1101  -31.2308   21.1042 O   0  0  0  0  0  0  0  0  0  0  0  0
  -23.9520  -32.1821   23.5967 O   0  0  0  0  0  0  0  0  0  0  0  0
  -20.5937  -18.3283   14.5035 O   0  0  0  0  0  0  0  0  0  0  0  0
  -23.8731  -27.7157   25.1984 O   0  0  0  0  0  0  0  0  0  0  0  0
  -29.1589  -16.7752   18.6368 O   0  0  0  0  0  0  0  0  0  0  0  0
  -21.3941   -8.3041   22.9580 O   0  0  0  0  0  0  0  0  0  0  0  0
  -26.7970  -25.3019   19.5437 O   0  0  0  0  0  0  0  0  0  1  0  0
  -21.2424   -3.0224   24.5341 F   0  0  0  0  0  0  0  0  0  0  0  0
  -21.4651   -7.6205   25.6357 F   0  0  0  0  0  0  0  0  0  0  0  0
  1  2  1  0  0  0  0
  1  5  2  0  0  0  0
  2  6  2  0  0  0  0
  3  8  2  0  0  0  0
  3 18  1  0  0  0  0
  4  9  1  0  0  0  0
  4 18  2  0  0  0  0
  5 21  1  0  0  0  0
  6 23  1  0  0  0  0
  7 10  2  0  0  0  0
  7 22  1  0  0  0  0
  8 27  1  0  0  0  0
  9 27  2  0  0  0  0
 10 28  1  0  0  0  0
 11 12  2  0  0  0  0
 11 29  1  0  0  0  0
 12 30  1  0  0  0  0
 13 19  1  0  0  0  0
 13 25  2  0  0  0  0
 14 19  2  0  0  0  0
 14 26  1  0  0  0  0
 15 24  1  0  0  0  0
 15 28  2  0  0  0  0
 16 25  1  0  0  0  0
 16 26  2  0  0  0  0
 17 30  2  0  0  0  0
 17 31  1  0  0  0  0
 18 32  1  0  0  0  0
 19 36  1  0  0  0  0
 20 32  1  0  0  0  0
 20 33  2  0  0  0  0
 20 37  1  0  0  0  0
 21 23  2  0  0  0  0
 21 43  1  0  0  0  0
 22 24  2  0  0  0  0
 22 44  1  0  0  0  0
 23 53  1  0  0  0  0
 24 45  1  0  0  0  0
 25 69  1  0  0  0  0
 26 74  1  0  0  0  0
 27 88  1  0  0  0  0
 28 89  1  0  0  0  0
 29 31  2  0  0  0  0
 29 88  1  0  0  0  0
 30 90  1  0  0  0  0
 31 91  1  0  0  0  0
 32 67  2  0  0  0  0
 33 68  1  0  0  0  0
 33 72  1  0  0  0  0
 34 35  1  0  0  0  0
 34 54  1  0  0  0  0
 34 79  2  0  0  0  0
 35 69  1  0  0  0  0
 35 80  2  0  0  0  0
 36 75  1  0  0  0  0
 36 81  2  0  0  0  0
 37 73  1  0  0  0  0
 37 82  2  0  0  0  0
 38 55  1  0  0  0  0
 38 76  1  0  0  0  0
 38 83  2  0  0  0  0
 39 64  1  0  0  0  0
 39 70  1  0  0  0  0
 39 84  2  0  0  0  0
 40 57  1  0  0  0  0
 40 75  1  0  0  0  0
 40 85  2  0  0  0  0
 41 65  1  0  0  0  0
 41 77  1  0  0  0  0
 41 86  2  0  0  0  0
 42 71  1  0  0  0  0
 42 74  1  0  0  0  0
 42 87  2  0  0  0  0
 43 46  1  0  0  0  0
 44 55  1  0  0  0  0
 45 70  1  0  0  0  0
 46 48  1  0  0  0  0
 47 49  1  0  0  0  0
 47 50  1  0  0  0  0
 48 53  1  0  0  0  0
 49 56  1  0  0  0  0
 50 71  1  0  0  0  0
 51 54  1  0  0  0  0
 51 69  1  0  0  0  0
 52 56  1  0  0  0  0
 52 71  1  0  0  0  0
 53 76  1  0  0  0  0
 54 63  1  0  0  0  0
 55 70  1  0  0  0  0
 56 68  1  0  0  0  0
 58 65  1  0  0  0  0
 59 66  1  0  0  0  0
 60 66  1  0  0  0  0
 61 66  1  0  0  0  0
 62 78  1  0  0  0  0
 63 89  1  0  0  0  0
 64 66  1  0  0  0  0
 64 77  1  0  0  0  0
 65 78  1  0  0  0  0
 67 68  1  0  0  0  0
M  CHG  1  78   1
M  ISO  4  42 100  63 101  74 100  89 101
M  END
> <Batch ID>
0064

> <Smiles>
CNC(C)C(=O)NC(C(=O)N1Cc2cc([101O:1][101CH2:1]C3CN(c4cc([100NH:0][100C:0](=O)N5CCCC(n6nc(-c7ccc(Oc8ccc(F)cc8F)cc7)c(C(N)=O)c6N)C5)cc(C(=O)NC(C)=O)c4)C(=O)C3=O)ccc2CC1C(=O)NC1CCCc2ccccc21)C(C)(C)C

> <Shape>
0.234

> <Color>
0.121

> <Negative vol penalty>
0.000

$$$$

  -OEChem-04042323153D

 88 97  0     1  0  0  0  0  0999 V2000
  -19.7284  -34.3592   21.5543 C   0  0  0  0  0  0  0  0  0  0  0  0
  -21.0012  -33.9365   21.1847 C   0  0  0  0  0  0  0  0  0  0  0  0
  -26.4419  -12.2746   20.6879 C   0  0  0  0  0  0  0  0  0  0  0  0
  -24.7876  -13.8036   19.8145 C   0  0  0  0  0  0  0  0  0  0  0  0
  -19.0181  -33.6592   22.5287 C   0  0  0  0  0  0  0  0  0  0  0  0
  -21.5649  -32.8139   21.7902 C   0  0  0  0  0  0  0  0  0  0  0  0
  -25.2661  -28.6916   19.1798 C   0  0  0  0  0  0  0  0  0  0  0  0
  -25.4286  -11.5031   21.2566 C   0  0  0  0  0  0  0  0  0  0  0  0
  -23.7743  -13.0320   20.3832 C   0  0  0  0  0  0  0  0  0  0  0  0
  -26.6518  -28.5379   19.1867 C   0  0  0  0  0  0  0  0  0  0  0  0
  -23.2563   -8.9334   22.6326 C   0  0  0  0  0  0  0  0  0  0  0  0
  -23.3332   -7.5489   22.4818 C   0  0  0  0  0  0  0  0  0  0  0  0
  -26.4608  -26.9524   20.9948 C   0  0  0  0  0  0  0  0  0  0  0  0
  -28.8194  -22.6452   19.0408 C   0  0  0  0  0  0  0  0  0  0  0  0
  -26.5910  -21.7841   18.6809 C   0  0  0  0  0  0  0  0  0  0  0  0
  -23.2600   -7.8064   20.0806 C   0  0  0  0  0  0  0  0  0  0  0  0
  -26.1215  -13.4249   19.9669 C   0  0  0  0  0  0  0  0  0  0  0  0
  -27.7205  -14.0856   18.0922 C   0  0  0  0  0  0  0  0  0  0  0  0
  -19.5695  -32.5219   23.1395 C   0  0  0  0  0  0  0  0  0  0  0  0
  -24.4669  -27.9840   20.0891 C   0  0  0  0  0  0  0  0  0  0  0  0
  -20.8619  -32.0988   22.7746 C   0  0  0  0  0  0  0  0  0  0  0  0
  -25.0650  -27.0970   20.9956 C   0  0  0  0  0  0  0  0  0  0  0  0
  -27.2828  -23.8332   17.6041 C   0  0  0  0  0  0  0  0  0  0  0  0
  -28.5378  -23.7242   18.2030 C   0  0  0  0  0  0  0  0  0  0  0  0
  -27.8460  -21.6751   19.2798 C   0  0  0  0  0  0  0  0  0  0  0  0
  -24.0948  -11.8817   21.1042 C   0  0  0  0  0  0  0  0  0  0  0  0
  -27.2496  -27.6704   20.0962 C   0  0  0  0  0  0  0  0  0  0  0  0
  -23.1812   -9.7545   21.5075 C   0  0  0  0  0  0  0  0  0  0  0  0
  -23.3351   -6.9854   21.2058 C   0  0  0  0  0  0  0  0  0  0  0  0
  -26.3093  -22.8631   17.8431 C   0  0  0  0  0  0  0  0  0  0  0  0
  -23.1831   -9.1910   20.2315 C   0  0  0  0  0  0  0  0  0  0  0  0
  -27.1678  -14.2227   19.3797 C   0  0  0  0  0  0  0  0  0  0  0  0
  -28.6712  -15.0741   18.0196 C   0  0  0  0  0  0  0  0  0  0  0  0
  -31.0676  -26.0619   16.5791 C   0  0  0  0  0  0  0  0  0  0  0  0
  -31.3214  -26.9564   17.5522 C   0  0  0  0  0  0  0  0  0  0  0  0
  -30.0447  -24.9812   16.6823 C   0  0  0  0  0  0  0  0  0  0  0  0
  -27.4027  -13.1484   17.0547 C   0  0  0  0  0  0  0  0  0  0  0  0
  -22.4827  -28.7956   22.4360 C   0  0  0  0  0  0  0  0  0  0  0  0
  -21.8804  -25.6089   22.5031 C   0  0  0  0  0  0  0  0  0  0  0  0
  -22.9526  -22.4427   21.8159 C   0  0  0  0  0  0  0  0  0  0  0  0
  -29.3260  -20.3207   20.8035 C   0  0  0  0  0  0  0  0  0  0  0  0
  -18.7828  -31.8256   24.2215 C   0  0  0  0  0  0  0  0  0  0  0  0
  -22.9714  -28.1408   20.0510 C   0  0  0  0  0  0  0  0  0  0  0  0
  -24.2500  -26.2988   21.9790 C   0  0  0  0  0  0  0  0  0  0  0  0
  -19.3000  -30.4265   24.5461 C   0  0  0  0  0  0  0  0  0  0  0  0
  -31.6453  -17.6193   20.7785 C   0  0  0  0  0  0  0  0  0  0  0  0
  -20.8180  -30.4398   24.6959 C   0  0  0  0  0  0  0  0  0  0  0  0
  -30.8121  -16.4306   20.2939 C   0  0  0  0  0  0  0  0  0  0  0  0
  -30.8349  -18.5507   21.6782 C   0  0  0  0  0  0  0  0  0  0  0  0
  -30.2016  -25.3489   19.1234 C   0  0  0  0  0  0  0  0  0  0  0  0
  -28.7302  -17.8250   20.6234 C   0  0  0  0  0  0  0  0  0  0  0  0
  -21.4974  -30.8713   23.3907 C   0  0  1  0  0  0  0  0  0  0  0  0
  -30.5507  -26.8223   18.8615 C   0  0  2  0  0  0  0  0  0  0  0  0
  -22.2969  -27.7584   21.3649 C   0  0  1  0  0  0  0  0  0  0  0  0
  -29.4849  -16.8932   19.6612 C   0  0  2  0  0  0  0  0  0  0  0  0
  -26.9561  -24.9805   16.7038 C   0  0  0  0  0  0  0  0  0  0  0  0
  -22.8463  -19.9455   21.5919 C   0  0  0  0  0  0  0  0  0  0  0  0
  -22.5211  -25.6774   25.4855 C   0  0  0  0  0  0  0  0  0  0  0  0
  -22.7428  -23.1843   25.4241 C   0  0  0  0  0  0  0  0  0  0  0  0
  -20.5580  -24.2544   24.8726 C   0  0  0  0  0  0  0  0  0  0  0  0
  -21.8898  -22.6190   19.0594 C   0  0  0  0  0  0  0  0  0  0  0  0
  -29.2836  -27.6937   18.8641 C   0  0  0  0  0  0  0  0  0  1  0  0
  -22.4712  -24.4242   23.2287 C   0  0  1  0  0  0  0  0  0  0  0  0
  -22.2683  -21.2741   21.1298 C   0  0  2  0  0  0  0  0  0  0  0  0
  -22.0891  -24.4015   24.7356 C   0  0  0  0  0  0  0  0  0  0  0  0
  -27.7215  -15.2197   20.0750 N   0  0  0  0  0  0  0  0  0  0  0  0
  -28.6321  -15.7180   19.2213 N   0  0  0  0  0  0  0  0  0  0  0  0
  -29.5568  -24.7160   17.9686 N   0  0  0  0  0  0  0  0  0  0  0  0
  -22.7922  -26.4914   21.9067 N   0  0  0  0  0  0  0  0  0  0  0  0
  -29.5940  -18.9511   21.0115 N   0  0  0  0  0  0  0  0  0  0  0  0
  -29.5287  -15.4466   17.0457 N   0  0  0  0  0  0  0  0  0  0  0  0
  -26.3997  -12.1996   17.2955 N   0  0  0  0  0  0  0  0  0  0  0  0
  -28.1320  -20.5788   20.1308 N   0  0  0  0  0  0  0  0  0  0  0  0
  -21.5109  -29.7780   22.4426 N   0  0  0  0  0  0  0  0  0  0  0  0
  -22.0504  -23.2402   22.4875 N   0  0  0  0  0  0  0  0  0  0  0  0
  -22.4355  -21.3708   19.6521 N   0  3  0  0  0  0  0  0  0  0  0  0
  -32.1406  -27.9168   17.5740 O   0  5  0  0  0  0  0  0  0  0  0  0
  -29.7492  -24.3867   15.6460 O   0  0  0  0  0  0  0  0  0  0  0  0
  -28.0022  -13.1418   15.9528 O   0  0  0  0  0  0  0  0  0  0  0  0
  -23.4362  -28.7100   23.2010 O   0  0  0  0  0  0  0  0  0  0  0  0
  -20.6549  -25.7423   22.4606 O   0  0  0  0  0  0  0  0  0  0  0  0
  -24.1666  -22.6273   21.7644 O   0  0  0  0  0  0  0  0  0  0  0  0
  -30.1118  -21.1986   21.1692 O   0  0  0  0  0  0  0  0  0  0  0  0
  -23.1057  -11.1289   21.6588 O   0  0  0  0  0  0  0  0  0  0  0  0
  -28.6019  -27.5189   20.1055 O   0  0  0  0  0  0  0  0  0  1  0  0
  -23.4105   -5.6559   21.0611 F   0  0  0  0  0  0  0  0  0  0  0  0
  -25.0996  -22.9594   17.2738 F   0  0  0  0  0  0  0  0  0  0  0  0
  -23.1123   -9.9747   19.1468 F   0  0  0  0  0  0  0  0  0  0  0  0
  1  2  1  0  0  0  0
  1  5  2  0  0  0  0
  2  6  2  0  0  0  0
  3  8  2  0  0  0  0
  3 17  1  0  0  0  0
  4  9  1  0  0  0  0
  4 17  2  0  0  0  0
  5 19  1  0  0  0  0
  6 21  1  0  0  0  0
  7 10  2  0  0  0  0
  7 20  1  0  0  0  0
  8 26  1  0  0  0  0
  9 26  2  0  0  0  0
 10 27  1  0  0  0  0
 11 12  2  0  0  0  0
 11 28  1  0  0  0  0
 12 29  1  0  0  0  0
 13 22  1  0  0  0  0
 13 27  2  0  0  0  0
 14 24  1  0  0  0  0
 14 25  2  0  0  0  0
 15 25  1  0  0  0  0
 15 30  2  0  0  0  0
 16 29  2  0  0  0  0
 16 31  1  0  0  0  0
 17 32  1  0  0  0  0
 18 32  1  0  0  0  0
 18 33  2  0  0  0  0
 18 37  1  0  0  0  0
 19 21  2  0  0  0  0
 19 42  1  0  0  0  0
 20 22  2  0  0  0  0
 20 43  1  0  0  0  0
 21 52  1  0  0  0  0
 22 44  1  0  0  0  0
 23 24  2  0  0  0  0
 23 30  1  0  0  0  0
 23 56  1  0  0  0  0
 24 68  1  0  0  0  0
 25 73  1  0  0  0  0
 26 84  1  0  0  0  0
 27 85  1  0  0  0  0
 28 31  2  0  0  0  0
 28 84  1  0  0  0  0
 29 86  1  0  0  0  0
 30 87  1  0  0  0  0
 31 88  1  0  0  0  0
 32 66  2  0  0  0  0
 33 67  1  0  0  0  0
 33 71  1  0  0  0  0
 34 35  2  0  0  0  0
 34 36  1  0  0  0  0
 35 53  1  0  0  0  0
 35 77  1  0  0  0  0
 36 68  1  0  0  0  0
 36 78  2  0  0  0  0
 37 72  1  0  0  0  0
 37 79  2  0  0  0  0
 38 54  1  0  0  0  0
 38 74  1  0  0  0  0
 38 80  2  0  0  0  0
 39 63  1  0  0  0  0
 39 69  1  0  0  0  0
 39 81  2  0  0  0  0
 40 64  1  0  0  0  0
 40 75  1  0  0  0  0
 40 82  2  0  0  0  0
 41 70  1  0  0  0  0
 41 73  1  0  0  0  0
 41 83  2  0  0  0  0
 42 45  1  0  0  0  0
 43 54  1  0  0  0  0
 44 69  1  0  0  0  0
 45 47  1  0  0  0  0
 46 48  1  0  0  0  0
 46 49  1  0  0  0  0
 47 52  1  0  0  0  0
 48 55  1  0  0  0  0
 49 70  1  0  0  0  0
 50 53  1  0  0  0  0
 50 68  1  0  0  0  0
 51 55  1  0  0  0  0
 51 70  1  0  0  0  0
 52 74  1  0  0  0  0
 53 62  1  0  0  0  0
 54 69  1  0  0  0  0
 55 67  1  0  0  0  0
 57 64  1  0  0  0  0
 58 65  1  0  0  0  0
 59 65  1  0  0  0  0
 60 65  1  0  0  0  0
 61 76  1  0  0  0  0
 62 85  1  0  0  0  0
 63 65  1  0  0  0  0
 63 75  1  0  0  0  0
 64 76  1  0  0  0  0
 66 67  1  0  0  0  0
M  CHG  2  76   1  77  -1
M  ISO  4  41 100  62 101  73 100  85 101
M  END
> <Batch ID>
0064

> <Smiles>
CNC(C)C(=O)NC(C(=O)N1Cc2cc([101O:1][101CH2:1]C3CN(c4cc([100NH:0][100C:0](=O)N5CCCC(n6nc(-c7ccc(Oc8ccc(F)cc8F)cc7)c(C(N)=O)c6N)C5)cc(F)c4C)C(=O)CC3=O)ccc2CC1C(=O)NC1CCCc2ccccc21)C(C)(C)C

> <Shape>
0.246

> <Color>
0.090

> <Negative vol penalty>
0.000

$$$$

  -OEChem-04042323153D

 87 96  0     1  0  0  0  0  0999 V2000
  -19.1072  -26.1154   23.1935 C   0  0  0  0  0  0  0  0  0  0  0  0
  -20.2934  -26.0084   22.4746 C   0  0  0  0  0  0  0  0  0  0  0  0
  -23.7553   -8.8819   20.3593 C   0  0  0  0  0  0  0  0  0  0  0  0
  -22.8132  -10.6735   21.6782 C   0  0  0  0  0  0  0  0  0  0  0  0
  -18.3561  -27.2881   23.1263 C   0  0  0  0  0  0  0  0  0  0  0  0
  -20.7287  -27.0737   21.6871 C   0  0  0  0  0  0  0  0  0  0  0  0
  -25.6720  -28.0157   22.2538 C   0  0  0  0  0  0  0  0  0  0  0  0
  -29.7136  -20.1138   21.0043 C   0  0  0  0  0  0  0  0  0  0  0  0
  -29.7231  -18.7191   20.9855 C   0  0  0  0  0  0  0  0  0  0  0  0
  -22.8655   -7.9821   20.9459 C   0  0  0  0  0  0  0  0  0  0  0  0
  -21.9232   -9.7737   22.2648 C   0  0  0  0  0  0  0  0  0  0  0  0
  -26.5612  -27.1714   21.5903 C   0  0  0  0  0  0  0  0  0  0  0  0
  -21.0818   -5.1464   22.3604 C   0  0  0  0  0  0  0  0  0  0  0  0
  -21.5867   -3.9187   22.7887 C   0  0  0  0  0  0  0  0  0  0  0  0
  -26.8231  -28.8232   19.8519 C   0  0  0  0  0  0  0  0  0  0  0  0
  -27.8410  -20.1216   19.4777 C   0  0  0  0  0  0  0  0  0  0  0  0
  -23.0949   -5.0627   24.2899 C   0  0  0  0  0  0  0  0  0  0  0  0
  -23.7292  -10.2277   20.7255 C   0  0  0  0  0  0  0  0  0  0  0  0
  -24.4462  -11.9131   18.9499 C   0  0  0  0  0  0  0  0  0  0  0  0
  -18.7873  -28.3719   22.3452 C   0  0  0  0  0  0  0  0  0  0  0  0
  -25.3427  -29.2677   21.7148 C   0  0  0  0  0  0  0  0  0  0  0  0
  -19.9819  -28.2615   21.6083 C   0  0  0  0  0  0  0  0  0  0  0  0
  -25.9315  -29.6826   20.5118 C   0  0  0  0  0  0  0  0  0  0  0  0
  -27.8506  -18.7269   19.4588 C   0  0  0  0  0  0  0  0  0  0  0  0
  -28.7725  -20.8150   20.2505 C   0  0  0  0  0  0  0  0  0  0  0  0
  -28.7916  -18.0256   20.2128 C   0  0  0  0  0  0  0  0  0  0  0  0
  -21.9494   -8.4280   21.8986 C   0  0  0  0  0  0  0  0  0  0  0  0
  -27.1347  -27.5738   20.3877 C   0  0  0  0  0  0  0  0  0  0  0  0
  -21.5836   -6.3323   22.8967 C   0  0  0  0  0  0  0  0  0  0  0  0
  -22.5932   -3.8768   23.7535 C   0  0  0  0  0  0  0  0  0  0  0  0
  -22.5901   -6.2904   23.8615 C   0  0  0  0  0  0  0  0  0  0  0  0
  -24.6486  -11.1575   20.1204 C   0  0  0  0  0  0  0  0  0  0  0  0
  -25.6062  -12.6335   18.8014 C   0  0  0  0  0  0  0  0  0  0  0  0
  -29.2745  -24.4248   20.7331 C   0  0  0  0  0  0  0  0  0  0  0  0
  -28.1387  -24.4124   19.8018 C   0  0  0  0  0  0  0  0  0  0  0  0
  -29.6422  -22.9926   21.0082 C   0  0  0  0  0  0  0  0  0  0  0  0
  -23.3112  -11.9596   18.0751 C   0  0  0  0  0  0  0  0  0  0  0  0
  -27.5516  -25.5232   19.3428 C   0  0  0  0  0  0  0  0  0  1  0  0
  -22.6618  -30.6341   20.6905 C   0  0  0  0  0  0  0  0  0  0  0  0
  -24.5590  -33.2514   20.4211 C   0  0  0  0  0  0  0  0  0  0  0  0
  -27.7035  -34.5245   20.0494 C   0  0  0  0  0  0  0  0  0  0  0  0
  -29.6908  -15.7772   20.9074 C   0  0  0  0  0  0  0  0  0  0  0  0
  -17.9175  -29.6016   22.2666 C   0  0  0  0  0  0  0  0  0  0  0  0
  -24.4024  -30.1779   22.4563 C   0  0  0  0  0  0  0  0  0  0  0  0
  -25.6266  -31.0253   19.9014 C   0  0  0  0  0  0  0  0  0  0  0  0
  -27.8000  -22.9921   19.4975 C   0  0  0  0  0  0  0  0  0  0  0  0
  -18.6396  -30.8234   21.7045 C   0  0  0  0  0  0  0  0  0  0  0  0
  -30.0525  -12.2464   21.1892 C   0  0  0  0  0  0  0  0  0  0  0  0
  -19.4229  -30.4504   20.4499 C   0  0  0  0  0  0  0  0  0  0  0  0
  -28.6622  -11.7105   20.8400 C   0  0  0  0  0  0  0  0  0  0  0  0
  -29.9753  -13.5526   21.9776 C   0  0  0  0  0  0  0  0  0  0  0  0
  -27.7704  -14.0692   21.0077 C   0  0  0  0  0  0  0  0  0  0  0  0
  -20.4999  -29.4045   20.7625 C   0  0  1  0  0  0  0  0  0  0  0  0
  -23.7428  -31.2176   21.5556 C   0  0  1  0  0  0  0  0  0  0  0  0
  -27.7978  -12.7887   20.1574 C   0  0  2  0  0  0  0  0  0  0  0  0
  -26.8400  -18.0098   18.6238 C   0  0  0  0  0  0  0  0  0  0  0  0
  -26.3956  -25.5174   18.3951 C   0  0  0  0  0  0  0  0  0  0  0  0
  -28.9339  -36.6999   19.8235 C   0  0  0  0  0  0  0  0  0  0  0  0
  -23.6230  -33.4773   17.5258 C   0  0  0  0  0  0  0  0  0  0  0  0
  -25.5463  -35.0220   17.0977 C   0  0  0  0  0  0  0  0  0  0  0  0
  -23.7823  -35.6558   18.7437 C   0  0  0  0  0  0  0  0  0  0  0  0
  -29.2582  -34.0350   22.5196 C   0  0  0  0  0  0  0  0  0  0  0  0
  -25.4310  -33.8324   19.3344 C   0  0  1  0  0  0  0  0  0  0  0  0
  -28.4350  -35.6327   20.7852 C   0  0  2  0  0  0  0  0  0  0  0  0
  -24.6001  -34.4707   18.1856 C   0  0  0  0  0  0  0  0  0  0  0  0
  -25.8431  -11.3774   20.6759 N   0  0  0  0  0  0  0  0  0  0  0  0
  -26.4019  -12.2792   19.8509 N   0  0  0  0  0  0  0  0  0  0  0  0
  -28.7614  -22.2060   20.2715 N   0  0  0  0  0  0  0  0  0  0  0  0
  -24.6964  -31.8768   20.6610 N   0  0  0  0  0  0  0  0  0  0  0  0
  -29.1440  -14.5276   21.2683 N   0  0  0  0  0  0  0  0  0  0  0  0
  -26.0129  -13.5290   17.8768 N   0  0  0  0  0  0  0  0  0  0  0  0
  -22.2032  -11.1553   18.3748 N   0  0  0  0  0  0  0  0  0  0  0  0
  -28.8167  -16.6089   20.2083 N   0  0  0  0  0  0  0  0  0  0  0  0
  -21.6408  -30.0283   21.3977 N   0  0  0  0  0  0  0  0  0  0  0  0
  -26.3454  -34.7571   19.9955 N   0  0  0  0  0  0  0  0  0  0  0  0
  -29.6062  -35.0796   21.5224 N   0  3  0  0  0  0  0  0  0  0  0  0
  -29.8529  -25.3658   21.2270 O   0  0  0  0  0  0  0  0  0  0  0  0
  -30.5562  -22.6982   21.7511 O   0  0  0  0  0  0  0  0  0  0  0  0
  -23.2869  -12.6804   17.0487 O   0  0  0  0  0  0  0  0  0  0  0  0
  -22.7468  -30.7278   19.4716 O   0  0  0  0  0  0  0  0  0  0  0  0
  -23.7895  -33.9913   21.0393 O   0  0  0  0  0  0  0  0  0  0  0  0
  -28.2796  -33.5518   19.5673 O   0  0  0  0  0  0  0  0  0  0  0  0
  -30.8578  -16.0761   21.1734 O   0  0  0  0  0  0  0  0  0  0  0  0
  -21.0808   -7.5503   22.4710 O   0  0  0  0  0  0  0  0  0  0  0  0
  -28.0025  -26.7514   19.7378 O   0  0  0  0  0  0  0  0  0  1  0  0
  -23.0768   -2.6977   24.1659 F   0  0  0  0  0  0  0  0  0  0  0  0
  -23.0752   -7.4263   24.3814 F   0  0  0  0  0  0  0  0  0  0  0  0
  1  2  1  0  0  0  0
  1  5  2  0  0  0  0
  2  6  2  0  0  0  0
  3 10  2  0  0  0  0
  3 18  1  0  0  0  0
  4 11  1  0  0  0  0
  4 18  2  0  0  0  0
  5 20  1  0  0  0  0
  6 22  1  0  0  0  0
  7 12  2  0  0  0  0
  7 21  1  0  0  0  0
  8  9  2  0  0  0  0
  8 25  1  0  0  0  0
  9 26  1  0  0  0  0
 10 27  1  0  0  0  0
 11 27  2  0  0  0  0
 12 28  1  0  0  0  0
 13 14  2  0  0  0  0
 13 29  1  0  0  0  0
 14 30  1  0  0  0  0
 15 23  1  0  0  0  0
 15 28  2  0  0  0  0
 16 24  1  0  0  0  0
 16 25  2  0  0  0  0
 17 30  2  0  0  0  0
 17 31  1  0  0  0  0
 18 32  1  0  0  0  0
 19 32  1  0  0  0  0
 19 33  2  0  0  0  0
 19 37  1  0  0  0  0
 20 22  2  0  0  0  0
 20 43  1  0  0  0  0
 21 23  2  0  0  0  0
 21 44  1  0  0  0  0
 22 53  1  0  0  0  0
 23 45  1  0  0  0  0
 24 26  2  0  0  0  0
 24 56  1  0  0  0  0
 25 68  1  0  0  0  0
 26 73  1  0  0  0  0
 27 84  1  0  0  0  0
 28 85  1  0  0  0  0
 29 31  2  0  0  0  0
 29 84  1  0  0  0  0
 30 86  1  0  0  0  0
 31 87  1  0  0  0  0
 32 66  2  0  0  0  0
 33 67  1  0  0  0  0
 33 71  1  0  0  0  0
 34 35  1  0  0  0  0
 34 36  1  0  0  0  0
 34 77  2  0  0  0  0
 35 38  2  0  0  0  0
 35 46  1  0  0  0  0
 36 68  1  0  0  0  0
 36 78  2  0  0  0  0
 37 72  1  0  0  0  0
 37 79  2  0  0  0  0
 38 57  1  0  0  0  0
 38 85  1  0  0  0  0
 39 54  1  0  0  0  0
 39 74  1  0  0  0  0
 39 80  2  0  0  0  0
 40 63  1  0  0  0  0
 40 69  1  0  0  0  0
 40 81  2  0  0  0  0
 41 64  1  0  0  0  0
 41 75  1  0  0  0  0
 41 82  2  0  0  0  0
 42 70  1  0  0  0  0
 42 73  1  0  0  0  0
 42 83  2  0  0  0  0
 43 47  1  0  0  0  0
 44 54  1  0  0  0  0
 45 69  1  0  0  0  0
 46 68  1  0  0  0  0
 47 49  1  0  0  0  0
 48 50  1  0  0  0  0
 48 51  1  0  0  0  0
 49 53  1  0  0  0  0
 50 55  1  0  0  0  0
 51 70  1  0  0  0  0
 52 55  1  0  0  0  0
 52 70  1  0  0  0  0
 53 74  1  0  0  0  0
 54 69  1  0  0  0  0
 55 67  1  0  0  0  0
 58 64  1  0  0  0  0
 59 65  1  0  0  0  0
 60 65  1  0  0  0  0
 61 65  1  0  0  0  0
 62 76  1  0  0  0  0
 63 65  1  0  0  0  0
 63 75  1  0  0  0  0
 64 76  1  0  0  0  0
 66 67  1  0  0  0  0
M  CHG  1  76   1
M  ISO  4  38 101  42 100  73 100  85 101
M  END
> <Batch ID>
0064

> <Smiles>
CNC(C)C(=O)NC(C(=O)N1Cc2cc([101O:1][101C:1](C)=C3CN(c4ccc([100NH:0][100C:0](=O)N5CCCC(n6nc(-c7ccc(Oc8ccc(F)cc8F)cc7)c(C(N)=O)c6N)C5)c(C)c4)C(=O)C3=O)ccc2CC1C(=O)NC1CCCc2ccccc21)C(C)(C)C

> <Shape>
0.306

> <Color>
0.118

> <Negative vol penalty>
0.000

$$$$

  -OEChem-04042323153D

 86 94  0     1  0  0  0  0  0999 V2000
  -30.8296  -31.4224   13.7839 C   0  0  0  0  0  0  0  0  0  0  0  0
  -30.3535  -30.2122   14.2781 C   0  0  0  0  0  0  0  0  0  0  0  0
  -23.1786   -9.6866   19.9091 C   0  0  0  0  0  0  0  0  0  0  0  0
  -23.6649   -9.8773   22.2679 C   0  0  0  0  0  0  0  0  0  0  0  0
  -31.1184  -32.4670   14.6610 C   0  0  0  0  0  0  0  0  0  0  0  0
  -30.1669  -30.0455   15.6499 C   0  0  0  0  0  0  0  0  0  0  0  0
  -25.7901  -26.7594   18.3977 C   0  0  0  0  0  0  0  0  0  0  0  0
  -31.7737  -17.5113   22.4786 C   0  0  0  0  0  0  0  0  0  0  0  0
  -22.4386   -8.5301   20.1551 C   0  0  0  0  0  0  0  0  0  0  0  0
  -22.9248   -8.7209   22.5140 C   0  0  0  0  0  0  0  0  0  0  0  0
  -25.7821  -25.4745   18.9388 C   0  0  0  0  0  0  0  0  0  0  0  0
  -23.3586   -5.3793   22.2368 C   0  0  0  0  0  0  0  0  0  0  0  0
  -32.0010  -18.8871   22.5137 C   0  0  0  0  0  0  0  0  0  0  0  0
  -23.9105   -4.4268   23.0933 C   0  0  0  0  0  0  0  0  0  0  0  0
  -26.2072  -26.3994   21.1258 C   0  0  0  0  0  0  0  0  0  0  0  0
  -22.0176   -4.6634   24.5760 C   0  0  0  0  0  0  0  0  0  0  0  0
  -23.7919  -10.3601   20.9655 C   0  0  0  0  0  0  0  0  0  0  0  0
  -24.0846  -12.8806   20.7022 C   0  0  0  0  0  0  0  0  0  0  0  0
  -30.9262  -32.3163   16.0434 C   0  0  0  0  0  0  0  0  0  0  0  0
  -26.0180  -27.8750   19.2162 C   0  0  0  0  0  0  0  0  0  0  0  0
  -30.4547  -31.0886   16.5465 C   0  0  0  0  0  0  0  0  0  0  0  0
  -26.2151  -27.6976   20.5931 C   0  0  0  0  0  0  0  0  0  0  0  0
  -29.4232  -17.9097   22.0869 C   0  0  0  0  0  0  0  0  0  0  0  0
  -30.4848  -17.0226   22.2652 C   0  0  0  0  0  0  0  0  0  0  0  0
  -29.6505  -19.2854   22.1220 C   0  0  0  0  0  0  0  0  0  0  0  0
  -22.3116   -8.0473   21.4576 C   0  0  0  0  0  0  0  0  0  0  0  0
  -25.9935  -25.2941   20.3026 C   0  0  0  0  0  0  0  0  0  0  0  0
  -22.1363   -5.9740   22.5499 C   0  0  0  0  0  0  0  0  0  0  0  0
  -23.2400   -4.0688   24.2629 C   0  0  0  0  0  0  0  0  0  0  0  0
  -30.9394  -19.7741   22.3354 C   0  0  0  0  0  0  0  0  0  0  0  0
  -21.4658   -5.6160   23.7194 C   0  0  0  0  0  0  0  0  0  0  0  0
  -24.5569  -11.5545   20.7119 C   0  0  0  0  0  0  0  0  0  0  0  0
  -25.1934  -13.6379   20.4132 C   0  0  0  0  0  0  0  0  0  0  0  0
  -29.8564  -15.4264   24.5808 C   0  0  0  0  0  0  0  0  0  0  0  0
  -27.3106  -22.1250   21.3822 C   0  0  0  0  0  0  0  0  0  0  0  0
  -29.9719  -14.8660   23.3748 C   0  0  0  0  0  0  0  0  0  0  0  0
  -27.1700  -23.3594   20.8884 C   0  0  0  0  0  0  0  0  0  1  0  0
  -22.7618  -13.3829   20.9338 C   0  0  0  0  0  0  0  0  0  0  0  0
  -28.6537  -21.4752   21.3929 C   0  0  0  0  0  0  0  0  0  0  0  0
  -28.2422  -30.1419   19.3502 C   0  0  0  0  0  0  0  0  0  0  0  0
  -26.2885  -31.3798   21.6247 C   0  0  0  0  0  0  0  0  0  0  0  0
  -23.8552  -30.8458   23.9572 C   0  0  0  0  0  0  0  0  0  0  0  0
  -30.5333  -14.8876   21.0275 C   0  0  0  0  0  0  0  0  0  0  0  0
  -31.2972  -33.4578   16.9566 C   0  0  0  0  0  0  0  0  0  0  0  0
  -25.9970  -29.2564   18.6215 C   0  0  0  0  0  0  0  0  0  0  0  0
  -26.4441  -28.8639   21.5182 C   0  0  0  0  0  0  0  0  0  0  0  0
  -30.7168  -33.3266   18.3624 C   0  0  0  0  0  0  0  0  0  0  0  0
  -29.7908  -12.2874   18.8193 C   0  0  0  0  0  0  0  0  0  0  0  0
  -30.9319  -31.9150   18.8991 C   0  0  0  0  0  0  0  0  0  0  0  0
  -28.3262  -11.9623   19.1112 C   0  0  0  0  0  0  0  0  0  0  0  0
  -30.5524  -12.5833   20.1062 C   0  0  0  0  0  0  0  0  0  0  0  0
  -28.4892  -13.3738   21.2204 C   0  0  0  0  0  0  0  0  0  0  0  0
  -30.2159  -30.8777   18.0258 C   0  0  1  0  0  0  0  0  0  0  0  0
  -26.7504  -30.2811   19.4639 C   0  0  1  0  0  0  0  0  0  0  0  0
  -27.6701  -13.0739   19.9489 C   0  0  2  0  0  0  0  0  0  0  0  0
  -28.0391  -17.3852   21.8587 C   0  0  0  0  0  0  0  0  0  0  0  0
  -22.4871  -32.0439   25.6864 C   0  0  0  0  0  0  0  0  0  0  0  0
  -28.7058  -31.4495   23.4853 C   0  0  0  0  0  0  0  0  0  0  0  0
  -27.1291  -31.7326   25.4093 C   0  0  0  0  0  0  0  0  0  0  0  0
  -27.2299  -33.4642   23.6165 C   0  0  0  0  0  0  0  0  0  0  0  0
  -21.3197  -30.1642   22.5912 C   0  0  0  0  0  0  0  0  0  0  0  0
  -26.1594  -31.2280   23.1211 C   0  0  1  0  0  0  0  0  0  0  0  0
  -22.5546  -31.5754   24.2412 C   0  0  2  0  0  0  0  0  0  0  0  0
  -27.3037  -31.9462   23.8906 C   0  0  0  0  0  0  0  0  0  0  0  0
  -25.8640  -11.4707   20.4497 N   0  0  0  0  0  0  0  0  0  0  0  0
  -26.2223  -12.7538   20.2725 N   0  0  0  0  0  0  0  0  0  0  0  0
  -26.4207  -30.1942   20.8880 N   0  0  0  0  0  0  0  0  0  0  0  0
  -29.8953  -13.6405   20.8754 N   0  0  0  0  0  0  0  0  0  0  0  0
  -25.3788  -14.9672   20.2682 N   0  0  0  0  0  0  0  0  0  0  0  0
  -21.7396  -12.4671   21.2178 N   0  0  0  0  0  0  0  0  0  0  0  0
  -28.5856  -20.2025   21.9438 N   0  0  0  0  0  0  0  0  0  0  0  0
  -28.7976  -30.8673   18.3135 N   0  0  0  0  0  0  0  0  0  0  0  0
  -24.8215  -31.6974   23.4650 N   0  0  0  0  0  0  0  0  0  0  0  0
  -30.2723  -15.5902   22.2326 N   0  0  0  0  0  0  0  0  0  0  0  0
  -21.3914  -30.6804   23.9824 N   0  3  0  0  0  0  0  0  0  0  0  0
  -22.4910  -14.6063   20.8740 O   0  0  0  0  0  0  0  0  0  0  0  0
  -29.6419  -22.0523   20.9549 O   0  0  0  0  0  0  0  0  0  0  0  0
  -28.8449  -29.4302   20.1452 O   0  0  0  0  0  0  0  0  0  0  0  0
  -26.2655  -32.5083   21.1271 O   0  0  0  0  0  0  0  0  0  0  0  0
  -24.0005  -29.6417   24.1557 O   0  0  0  0  0  0  0  0  0  0  0  0
  -31.2982  -15.3372   20.1643 O   0  0  0  0  0  0  0  0  0  0  0  0
  -21.5894   -6.9190   21.6981 O   0  0  0  0  0  0  0  0  0  0  0  0
  -25.9868  -24.0411   20.8333 O   0  0  0  0  0  0  0  0  0  1  0  0
  -23.7693   -3.1529   25.0846 F   0  0  0  0  0  0  0  0  0  0  0  0
  -31.1705  -21.0943   22.3725 F   0  0  0  0  0  0  0  0  0  0  0  0
  -20.2906   -6.1830   24.0249 F   0  0  0  0  0  0  0  0  0  0  0  0
  1  2  1  0  0  0  0
  1  5  2  0  0  0  0
  2  6  2  0  0  0  0
  3  9  2  0  0  0  0
  3 17  1  0  0  0  0
  4 10  1  0  0  0  0
  4 17  2  0  0  0  0
  5 19  1  0  0  0  0
  6 21  1  0  0  0  0
  7 11  2  0  0  0  0
  7 20  1  0  0  0  0
  8 13  2  0  0  0  0
  8 24  1  0  0  0  0
  9 26  1  0  0  0  0
 10 26  2  0  0  0  0
 11 27  1  0  0  0  0
 12 14  2  0  0  0  0
 12 28  1  0  0  0  0
 13 30  1  0  0  0  0
 14 29  1  0  0  0  0
 15 22  1  0  0  0  0
 15 27  2  0  0  0  0
 16 29  2  0  0  0  0
 16 31  1  0  0  0  0
 17 32  1  0  0  0  0
 18 32  1  0  0  0  0
 18 33  2  0  0  0  0
 18 38  1  0  0  0  0
 19 21  2  0  0  0  0
 19 44  1  0  0  0  0
 20 22  2  0  0  0  0
 20 45  1  0  0  0  0
 21 53  1  0  0  0  0
 22 46  1  0  0  0  0
 23 24  2  0  0  0  0
 23 25  1  0  0  0  0
 23 56  1  0  0  0  0
 24 74  1  0  0  0  0
 25 30  2  0  0  0  0
 25 71  1  0  0  0  0
 26 82  1  0  0  0  0
 27 83  1  0  0  0  0
 28 31  2  0  0  0  0
 28 82  1  0  0  0  0
 29 84  1  0  0  0  0
 30 85  1  0  0  0  0
 31 86  1  0  0  0  0
 32 65  2  0  0  0  0
 33 66  1  0  0  0  0
 33 69  1  0  0  0  0
 34 36  2  0  0  0  0
 35 37  2  0  0  0  0
 35 39  1  0  0  0  0
 36 74  1  0  0  0  0
 37 83  1  0  0  0  0
 38 70  1  0  0  0  0
 38 76  2  0  0  0  0
 39 71  1  0  0  0  0
 39 77  2  0  0  0  0
 40 54  1  0  0  0  0
 40 72  1  0  0  0  0
 40 78  2  0  0  0  0
 41 62  1  0  0  0  0
 41 67  1  0  0  0  0
 41 79  2  0  0  0  0
 42 63  1  0  0  0  0
 42 73  1  0  0  0  0
 42 80  2  0  0  0  0
 43 68  1  0  0  0  0
 43 74  1  0  0  0  0
 43 81  2  0  0  0  0
 44 47  1  0  0  0  0
 45 54  1  0  0  0  0
 46 67  1  0  0  0  0
 47 49  1  0  0  0  0
 48 50  1  0  0  0  0
 48 51  1  0  0  0  0
 49 53  1  0  0  0  0
 50 55  1  0  0  0  0
 51 68  1  0  0  0  0
 52 55  1  0  0  0  0
 52 68  1  0  0  0  0
 53 72  1  0  0  0  0
 54 67  1  0  0  0  0
 55 66  1  0  0  0  0
 57 63  1  0  0  0  0
 58 64  1  0  0  0  0
 59 64  1  0  0  0  0
 60 64  1  0  0  0  0
 61 75  1  0  0  0  0
 62 64  1  0  0  0  0
 62 73  1  0  0  0  0
 63 75  1  0  0  0  0
 65 66  1  0  0  0  0
M  CHG  1  75   1
M  ISO  4  37 101  43 100  74 100  83 101
M  END
> <Batch ID>
0064

> <Smiles>
C=C[100N:0](c1ccc(F)c(NC(=O)C=[101CH:1][101O:1]c2ccc3c(c2)CN(C(=O)C(NC(=O)C(C)NC)C(C)(C)C)C(C(=O)NC2CCCc4ccccc42)C3)c1C)[100C:0](=O)N1CCCC(n2nc(-c3ccc(Oc4ccc(F)cc4F)cc3)c(C(N)=O)c2N)C1

> <Shape>
0.316

> <Color>
0.209

> <Negative vol penalty>
0.000

$$$$

  -OEChem-04042323153D

 84 92  0     1  0  0  0  0  0999 V2000
  -15.7993  -26.6627   25.6583 C   0  0  0  0  0  0  0  0  0  0  0  0
  -16.3493  -25.7820   24.7324 C   0  0  0  0  0  0  0  0  0  0  0  0
  -27.0899  -26.0065   16.2565 C   0  0  0  0  0  0  0  0  0  0  0  0
  -26.8233  -25.4364   15.0117 C   0  0  0  0  0  0  0  0  0  0  0  0
  -25.3213  -15.8832   21.6469 C   0  0  0  0  0  0  0  0  0  0  0  0
  -25.0456  -16.2994   19.2831 C   0  0  0  0  0  0  0  0  0  0  0  0
  -16.1245  -28.0176   25.6083 C   0  0  0  0  0  0  0  0  0  0  0  0
  -17.2239  -26.2559   23.7552 C   0  0  0  0  0  0  0  0  0  0  0  0
  -22.0586  -23.3213   21.4059 C   0  0  0  0  0  0  0  0  0  0  0  0
  -27.5631  -25.2119   17.3007 C   0  0  0  0  0  0  0  0  0  0  0  0
  -27.0298  -24.0716   14.8111 C   0  0  0  0  0  0  0  0  0  0  0  0
  -24.0937  -15.2216   21.6737 C   0  0  0  0  0  0  0  0  0  0  0  0
  -23.8179  -15.6378   19.3098 C   0  0  0  0  0  0  0  0  0  0  0  0
  -22.2336  -22.5939   20.2294 C   0  0  0  0  0  0  0  0  0  0  0  0
  -22.8833  -12.1815   20.8216 C   0  0  0  0  0  0  0  0  0  0  0  0
  -22.8154  -10.9686   21.5070 C   0  0  0  0  0  0  0  0  0  0  0  0
  -23.1336  -24.5579   19.1561 C   0  0  0  0  0  0  0  0  0  0  0  0
  -21.1329  -11.8920   22.9745 C   0  0  0  0  0  0  0  0  0  0  0  0
  -25.7973  -16.4222   20.4516 C   0  0  0  0  0  0  0  0  0  0  0  0
  -28.3306  -16.5413   20.1762 C   0  0  0  0  0  0  0  0  0  0  0  0
  -17.0111  -28.5068   24.6360 C   0  0  0  0  0  0  0  0  0  0  0  0
  -22.4103  -24.6776   21.4631 C   0  0  0  0  0  0  0  0  0  0  0  0
  -17.5601  -27.6188   23.6913 C   0  0  0  0  0  0  0  0  0  0  0  0
  -22.9645  -25.2996   20.3353 C   0  0  0  0  0  0  0  0  0  0  0  0
  -27.7695  -23.8470   17.1001 C   0  0  0  0  0  0  0  0  0  0  0  0
  -27.5029  -23.2769   15.8553 C   0  0  0  0  0  0  0  0  0  0  0  0
  -23.3420  -15.0988   20.5051 C   0  0  0  0  0  0  0  0  0  0  0  0
  -22.7685  -23.2129   19.1035 C   0  0  0  0  0  0  0  0  0  0  0  0
  -22.0761  -13.2497   21.2127 C   0  0  0  0  0  0  0  0  0  0  0  0
  -21.9402  -10.8238   22.5834 C   0  0  0  0  0  0  0  0  0  0  0  0
  -21.2009  -13.1050   22.2891 C   0  0  0  0  0  0  0  0  0  0  0  0
  -27.0651  -17.1062   20.4235 C   0  0  0  0  0  0  0  0  0  0  0  0
  -29.2016  -17.5999   20.2602 C   0  0  0  0  0  0  0  0  0  0  0  0
  -28.6869  -15.1811   19.8956 C   0  0  0  0  0  0  0  0  0  0  0  0
  -20.8283  -27.3851   21.9832 C   0  0  0  0  0  0  0  0  0  0  0  0
  -23.8019  -28.6794   21.9177 C   0  0  0  0  0  0  0  0  0  0  0  0
  -27.0423  -28.4428   20.8733 C   0  0  0  0  0  0  0  0  0  0  0  0
  -28.5596  -23.4872   19.4649 C   0  0  0  0  0  0  0  0  0  0  0  0
  -17.2956  -29.9872   24.5922 C   0  0  0  0  0  0  0  0  0  0  0  0
  -22.2401  -25.4413   22.7477 C   0  0  0  0  0  0  0  0  0  0  0  0
  -23.3771  -26.7481   20.3509 C   0  0  0  0  0  0  0  0  0  0  0  0
  -18.5225  -30.3472   23.7582 C   0  0  0  0  0  0  0  0  0  0  0  0
  -29.7338  -21.8506   22.4009 C   0  0  0  0  0  0  0  0  0  0  0  0
  -18.4958  -29.6095   22.4234 C   0  0  0  0  0  0  0  0  0  0  0  0
  -29.3032  -20.3956   22.2017 C   0  0  0  0  0  0  0  0  0  0  0  0
  -28.6943  -22.8292   21.8574 C   0  0  0  0  0  0  0  0  0  0  0  0
  -27.8632  -21.1438   20.2643 C   0  0  0  0  0  0  0  0  0  0  0  0
  -18.5321  -28.0906   22.6317 C   0  0  1  0  0  0  0  0  0  0  0  0
  -22.1548  -26.9501   22.5390 C   0  0  1  0  0  0  0  0  0  0  0  0
  -28.9081  -20.1202   20.7376 C   0  0  2  0  0  0  0  0  0  0  0  0
  -29.4717  -29.0371   20.6674 C   0  0  0  0  0  0  0  0  0  0  0  0
  -22.7740  -30.6216   19.8008 C   0  0  0  0  0  0  0  0  0  0  0  0
  -25.1537  -31.1574   19.2369 C   0  0  0  0  0  0  0  0  0  0  0  0
  -24.2735  -31.6487   21.5187 C   0  0  0  0  0  0  0  0  0  0  0  0
  -27.7552  -26.8434   23.2592 C   0  0  0  0  0  0  0  0  0  0  0  0
  -24.0372  -20.6510   16.9002 C   0  0  0  0  0  0  0  0  0  0  0  0
  -23.1975  -21.1079   18.0833 C   0  0  0  0  0  0  0  0  0  1  0  0
  -25.3575  -21.3980   16.8285 C   0  0  0  0  0  0  0  0  0  0  0  0
  -24.6964  -29.2493   20.8434 C   0  0  1  0  0  0  0  0  0  0  0  0
  -28.3551  -28.6242   21.6137 C   0  0  2  0  0  0  0  0  0  0  0  0
  -24.2149  -30.6425   20.3488 C   0  0  0  0  0  0  0  0  0  0  0  0
  -27.1226  -18.4217   20.6479 N   0  0  0  0  0  0  0  0  0  0  0  0
  -28.4348  -18.6920   20.5420 N   0  0  0  0  0  0  0  0  0  0  0  0
  -23.1851  -27.4540   21.6286 N   0  0  0  0  0  0  0  0  0  0  0  0
  -28.3724  -22.5096   20.4649 N   0  0  0  0  0  0  0  0  0  0  0  0
  -30.5409  -17.6938   20.1197 N   0  0  0  0  0  0  0  0  0  0  0  0
  -27.6679  -14.2201   19.8460 N   0  0  0  0  0  0  0  0  0  0  0  0
  -28.2510  -23.0585   18.1744 N   0  0  0  0  0  0  0  0  0  0  0  0
  -27.7077  -21.8718   15.6233 N   0  0  0  0  0  0  0  0  0  0  0  0
  -19.8759  -27.6557   22.9471 N   0  0  0  0  0  0  0  0  0  0  0  0
  -26.0480  -29.2446   21.3927 N   0  0  0  0  0  0  0  0  0  0  0  0
  -28.7522  -27.3533   22.2829 N   0  3  0  0  0  0  0  0  0  0  0  0
  -29.8756  -14.8256   19.7110 O   0  0  0  0  0  0  0  0  0  0  0  0
  -20.6803  -27.4703   20.7697 O   0  0  0  0  0  0  0  0  0  0  0  0
  -23.6616  -29.2952   22.9773 O   0  0  0  0  0  0  0  0  0  0  0  0
  -26.9129  -27.6701   19.9263 O   0  0  0  0  0  0  0  0  0  0  0  0
  -28.9899  -24.6127   19.7302 O   0  0  0  0  0  0  0  0  0  0  0  0
  -25.6149  -21.3131   14.2413 O   0  0  0  0  0  0  0  0  0  0  0  0
  -26.6546  -19.4760   15.6157 O   0  0  0  0  0  0  0  0  0  0  0  0
  -22.1441  -14.4531   20.5308 O   0  0  0  0  0  0  0  0  0  0  0  0
  -22.9397  -22.5054   17.9537 O   0  0  0  0  0  0  0  0  0  1  0  0
  -21.8740   -9.6584   23.2405 F   0  0  0  0  0  0  0  0  0  0  0  0
  -20.4220  -14.1273   22.6688 F   0  0  0  0  0  0  0  0  0  0  0  0
  -26.3155  -20.8790   15.4406 S   0  0  0  0  0  0  0  0  0  0  0  0
  1  2  1  0  0  0  0
  1  7  2  0  0  0  0
  2  8  2  0  0  0  0
  3  4  1  0  0  0  0
  3 10  2  0  0  0  0
  4 11  2  0  0  0  0
  5 12  2  0  0  0  0
  5 19  1  0  0  0  0
  6 13  1  0  0  0  0
  6 19  2  0  0  0  0
  7 21  1  0  0  0  0
  8 23  1  0  0  0  0
  9 14  2  0  0  0  0
  9 22  1  0  0  0  0
 10 25  1  0  0  0  0
 11 26  1  0  0  0  0
 12 27  1  0  0  0  0
 13 27  2  0  0  0  0
 14 28  1  0  0  0  0
 15 16  2  0  0  0  0
 15 29  1  0  0  0  0
 16 30  1  0  0  0  0
 17 24  1  0  0  0  0
 17 28  2  0  0  0  0
 18 30  2  0  0  0  0
 18 31  1  0  0  0  0
 19 32  1  0  0  0  0
 20 32  1  0  0  0  0
 20 33  2  0  0  0  0
 20 34  1  0  0  0  0
 21 23  2  0  0  0  0
 21 39  1  0  0  0  0
 22 24  2  0  0  0  0
 22 40  1  0  0  0  0
 23 48  1  0  0  0  0
 24 41  1  0  0  0  0
 25 26  2  0  0  0  0
 25 68  1  0  0  0  0
 26 69  1  0  0  0  0
 27 80  1  0  0  0  0
 28 81  1  0  0  0  0
 29 31  2  0  0  0  0
 29 80  1  0  0  0  0
 30 82  1  0  0  0  0
 31 83  1  0  0  0  0
 32 62  2  0  0  0  0
 33 63  1  0  0  0  0
 33 66  1  0  0  0  0
 34 67  1  0  0  0  0
 34 73  2  0  0  0  0
 35 49  1  0  0  0  0
 35 70  1  0  0  0  0
 35 74  2  0  0  0  0
 36 59  1  0  0  0  0
 36 64  1  0  0  0  0
 36 75  2  0  0  0  0
 37 60  1  0  0  0  0
 37 71  1  0  0  0  0
 37 76  2  0  0  0  0
 38 65  1  0  0  0  0
 38 68  1  0  0  0  0
 38 77  2  0  0  0  0
 39 42  1  0  0  0  0
 40 49  1  0  0  0  0
 41 64  1  0  0  0  0
 42 44  1  0  0  0  0
 43 45  1  0  0  0  0
 43 46  1  0  0  0  0
 44 48  1  0  0  0  0
 45 50  1  0  0  0  0
 46 65  1  0  0  0  0
 47 50  1  0  0  0  0
 47 65  1  0  0  0  0
 48 70  1  0  0  0  0
 49 64  1  0  0  0  0
 50 63  1  0  0  0  0
 51 60  1  0  0  0  0
 52 61  1  0  0  0  0
 53 61  1  0  0  0  0
 54 61  1  0  0  0  0
 55 72  1  0  0  0  0
 56 57  1  0  0  0  0
 56 58  1  0  0  0  0
 57 81  1  0  0  0  0
 58 84  1  0  0  0  0
 59 61  1  0  0  0  0
 59 71  1  0  0  0  0
 60 72  1  0  0  0  0
 62 63  1  0  0  0  0
 69 84  1  0  0  0  0
 78 84  2  0  0  0  0
 79 84  2  0  0  0  0
M  CHG  1  72   1
M  ISO  4  38 100  57 101  68 100  81 101
M  END
> <Batch ID>
0064

> <Smiles>
CNC(C)C(=O)NC(C(=O)N1Cc2cc([101O:1][101CH2:1]CCS(=O)(=O)Nc3ccccc3[100NH:0][100C:0](=O)N3CCCC(n4nc(-c5ccc(Oc6ccc(F)cc6F)cc5)c(C(N)=O)c4N)C3)ccc2CC1C(=O)NC1CCCc2ccccc21)C(C)(C)C

> <Shape>
0.235

> <Color>
0.066

> <Negative vol penalty>
0.000

$$$$

  -OEChem-04042323153D

 86 95  0     1  0  0  0  0  0999 V2000
  -17.6592  -26.1883   21.1041 C   0  0  0  0  0  0  0  0  0  0  0  0
  -18.8683  -25.6188   21.4902 C   0  0  0  0  0  0  0  0  0  0  0  0
  -24.0800   -9.8521   21.7484 C   0  0  0  0  0  0  0  0  0  0  0  0
  -24.6437  -11.0857   23.7477 C   0  0  0  0  0  0  0  0  0  0  0  0
  -17.6328  -27.4844   20.5910 C   0  0  0  0  0  0  0  0  0  0  0  0
  -20.0520  -26.3447   21.3623 C   0  0  0  0  0  0  0  0  0  0  0  0
  -24.9081  -26.1548   25.0890 C   0  0  0  0  0  0  0  0  0  0  0  0
  -30.9912  -20.5156   20.9159 C   0  0  0  0  0  0  0  0  0  0  0  0
  -30.7278  -19.1989   20.5383 C   0  0  0  0  0  0  0  0  0  0  0  0
  -23.6553   -8.7782   22.5307 C   0  0  0  0  0  0  0  0  0  0  0  0
  -24.2190  -10.0119   24.5301 C   0  0  0  0  0  0  0  0  0  0  0  0
  -26.1243  -25.4776   25.0111 C   0  0  0  0  0  0  0  0  0  0  0  0
  -20.9308   -7.9476   24.3528 C   0  0  0  0  0  0  0  0  0  0  0  0
  -19.7221   -7.3383   24.0160 C   0  0  0  0  0  0  0  0  0  0  0  0
  -27.1529  -27.4457   24.0688 C   0  0  0  0  0  0  0  0  0  0  0  0
  -28.3600  -19.5945   20.8105 C   0  0  0  0  0  0  0  0  0  0  0  0
  -20.8741   -5.2423   23.6737 C   0  0  0  0  0  0  0  0  0  0  0  0
  -24.5743  -11.0059   22.3569 C   0  0  0  0  0  0  0  0  0  0  0  0
  -24.2367  -13.1996   21.0995 C   0  0  0  0  0  0  0  0  0  0  0  0
  -18.8156  -28.2301   20.4657 C   0  0  0  0  0  0  0  0  0  0  0  0
  -24.8024  -27.4812   24.6464 C   0  0  0  0  0  0  0  0  0  0  0  0
  -20.0416  -27.6515   20.8457 C   0  0  0  0  0  0  0  0  0  0  0  0
  -25.9348  -28.1383   24.1445 C   0  0  0  0  0  0  0  0  0  0  0  0
  -29.9390  -21.3717   21.2408 C   0  0  0  0  0  0  0  0  0  0  0  0
  -29.4122  -18.7384   20.4856 C   0  0  0  0  0  0  0  0  0  0  0  0
  -23.7248   -8.8581   23.9215 C   0  0  0  0  0  0  0  0  0  0  0  0
  -27.2462  -26.1221   24.4983 C   0  0  0  0  0  0  0  0  0  0  0  0
  -22.1112   -7.2043   24.3499 C   0  0  0  0  0  0  0  0  0  0  0  0
  -19.6937   -5.9857   23.6765 C   0  0  0  0  0  0  0  0  0  0  0  0
  -28.6235  -20.9112   21.1881 C   0  0  0  0  0  0  0  0  0  0  0  0
  -22.0828   -5.8517   24.0104 C   0  0  0  0  0  0  0  0  0  0  0  0
  -25.0136  -12.1153   21.5493 C   0  0  0  0  0  0  0  0  0  0  0  0
  -25.1120  -13.9728   20.3767 C   0  0  0  0  0  0  0  0  0  0  0  0
  -31.2968  -23.5121   21.2029 C   0  0  0  0  0  0  0  0  0  0  0  0
  -22.8479  -13.4828   21.3159 C   0  0  0  0  0  0  0  0  0  0  0  0
  -23.1337  -28.9649   22.3842 C   0  0  0  0  0  0  0  0  0  0  0  0
  -24.4174  -31.6242   23.7269 C   0  0  0  0  0  0  0  0  0  0  0  0
  -26.9272  -33.0131   25.5758 C   0  0  0  0  0  0  0  0  0  0  0  0
  -30.0729  -16.4218   19.7485 C   0  0  0  0  0  0  0  0  0  0  0  0
  -18.7431  -29.6101   19.8615 C   0  0  0  0  0  0  0  0  0  0  0  0
  -23.4897  -28.2064   24.7620 C   0  0  0  0  0  0  0  0  0  0  0  0
  -25.8789  -29.5683   23.6750 C   0  0  0  0  0  0  0  0  0  0  0  0
  -19.9941  -30.4494   20.1079 C   0  0  0  0  0  0  0  0  0  0  0  0
  -29.8170  -13.0050   18.7803 C   0  0  0  0  0  0  0  0  0  0  0  0
  -21.2500  -29.6336   19.8177 C   0  0  0  0  0  0  0  0  0  0  0  0
  -28.4806  -12.5582   19.3774 C   0  0  0  0  0  0  0  0  0  0  0  0
  -30.5490  -13.9834   19.6972 C   0  0  0  0  0  0  0  0  0  0  0  0
  -29.3207  -23.4671   22.4943 C   0  0  0  0  0  0  0  0  0  0  0  0
  -28.4237  -14.7013   20.7156 C   0  0  0  0  0  0  0  0  0  0  0  0
  -21.3436  -28.4162   20.7454 C   0  0  1  0  0  0  0  0  0  0  0  0
  -31.0828  -24.9043   21.7789 C   0  0  1  0  0  0  0  0  0  0  0  0
  -23.3742  -29.3892   23.8054 C   0  0  1  0  0  0  0  0  0  0  0  0
  -30.1639  -24.6413   22.9727 C   0  0  1  0  0  0  0  0  0  0  0  0
  -27.6197  -13.7653   19.7985 C   0  0  2  0  0  0  0  0  0  0  0  0
  -32.3878  -25.5841   22.1574 C   0  0  0  0  0  0  0  0  0  0  0  0
  -27.7241  -35.2163   26.4749 C   0  0  0  0  0  0  0  0  0  0  0  0
  -25.4083  -32.3976   20.9466 C   0  0  0  0  0  0  0  0  0  0  0  0
  -26.9582  -34.0375   22.0313 C   0  0  0  0  0  0  0  0  0  0  0  0
  -24.4908  -34.2953   22.2924 C   0  0  0  0  0  0  0  0  0  0  0  0
  -26.7152  -32.0788   28.3760 C   0  0  0  0  0  0  0  0  0  0  0  0
  -29.3202  -25.8432   23.3683 C   0  0  0  0  0  0  0  0  0  1  0  0
  -25.6779  -32.4272   23.5141 C   0  0  1  0  0  0  0  0  0  0  0  0
  -26.8993  -33.9696   26.7543 C   0  0  2  0  0  0  0  0  0  0  0  0
  -25.6347  -33.2618   22.2031 C   0  0  0  0  0  0  0  0  0  0  0  0
  -26.2848  -12.1893   21.1458 N   0  0  0  0  0  0  0  0  0  0  0  0
  -26.3132  -13.3294   20.4349 N   0  0  0  0  0  0  0  0  0  0  0  0
  -30.2116  -22.7186   21.6270 N   0  0  0  0  0  0  0  0  0  0  0  0
  -24.5713  -30.2326   23.8024 N   0  0  0  0  0  0  0  0  0  0  0  0
  -29.6734  -15.1028   20.0509 N   0  0  0  0  0  0  0  0  0  0  0  0
  -24.9637  -15.1334   19.7033 N   0  0  0  0  0  0  0  0  0  0  0  0
  -22.0942  -12.5835   22.0824 N   0  0  0  0  0  0  0  0  0  0  0  0
  -29.1449  -17.4008   20.1020 N   0  0  0  0  0  0  0  0  0  0  0  0
  -21.7987  -28.8161   22.0597 N   0  0  0  0  0  0  0  0  0  0  0  0
  -25.8641  -33.2225   24.7229 N   0  0  0  0  0  0  0  0  0  0  0  0
  -27.4465  -33.3072   27.9720 N   0  3  0  0  0  0  0  0  0  0  0  0
  -32.2294  -23.2300   20.4643 O   0  0  0  0  0  0  0  0  0  0  0  0
  -22.2879  -14.4945   20.8297 O   0  0  0  0  0  0  0  0  0  0  0  0
  -24.0885  -28.7872   21.6368 O   0  0  0  0  0  0  0  0  0  0  0  0
  -23.3370  -32.2105   23.8296 O   0  0  0  0  0  0  0  0  0  0  0  0
  -27.8062  -32.1676   25.4248 O   0  0  0  0  0  0  0  0  0  0  0  0
  -31.1465  -16.6629   19.1904 O   0  0  0  0  0  0  0  0  0  0  0  0
  -23.3103   -7.8105   24.6852 O   0  0  0  0  0  0  0  0  0  0  0  0
  -28.4344  -25.4632   24.4206 O   0  0  0  0  0  0  0  0  0  1  0  0
  -18.5327   -5.4003   23.3547 F   0  0  0  0  0  0  0  0  0  0  0  0
  -27.6042  -21.7251   21.4989 F   0  0  0  0  0  0  0  0  0  0  0  0
  -23.2133   -5.1322   24.0071 F   0  0  0  0  0  0  0  0  0  0  0  0
  1  2  1  0  0  0  0
  1  5  2  0  0  0  0
  2  6  2  0  0  0  0
  3 10  2  0  0  0  0
  3 18  1  0  0  0  0
  4 11  1  0  0  0  0
  4 18  2  0  0  0  0
  5 20  1  0  0  0  0
  6 22  1  0  0  0  0
  7 12  2  0  0  0  0
  7 21  1  0  0  0  0
  8  9  2  0  0  0  0
  8 24  1  0  0  0  0
  9 25  1  0  0  0  0
 10 26  1  0  0  0  0
 11 26  2  0  0  0  0
 12 27  1  0  0  0  0
 13 14  2  0  0  0  0
 13 28  1  0  0  0  0
 14 29  1  0  0  0  0
 15 23  1  0  0  0  0
 15 27  2  0  0  0  0
 16 25  2  0  0  0  0
 16 30  1  0  0  0  0
 17 29  2  0  0  0  0
 17 31  1  0  0  0  0
 18 32  1  0  0  0  0
 19 32  1  0  0  0  0
 19 33  2  0  0  0  0
 19 35  1  0  0  0  0
 20 22  2  0  0  0  0
 20 40  1  0  0  0  0
 21 23  2  0  0  0  0
 21 41  1  0  0  0  0
 22 50  1  0  0  0  0
 23 42  1  0  0  0  0
 24 30  2  0  0  0  0
 24 67  1  0  0  0  0
 25 72  1  0  0  0  0
 26 82  1  0  0  0  0
 27 83  1  0  0  0  0
 28 31  2  0  0  0  0
 28 82  1  0  0  0  0
 29 84  1  0  0  0  0
 30 85  1  0  0  0  0
 31 86  1  0  0  0  0
 32 65  2  0  0  0  0
 33 66  1  0  0  0  0
 33 70  1  0  0  0  0
 34 51  1  0  0  0  0
 34 67  1  0  0  0  0
 34 76  2  0  0  0  0
 35 71  1  0  0  0  0
 35 77  2  0  0  0  0
 36 52  1  0  0  0  0
 36 73  1  0  0  0  0
 36 78  2  0  0  0  0
 37 62  1  0  0  0  0
 37 68  1  0  0  0  0
 37 79  2  0  0  0  0
 38 63  1  0  0  0  0
 38 74  1  0  0  0  0
 38 80  2  0  0  0  0
 39 69  1  0  0  0  0
 39 72  1  0  0  0  0
 39 81  2  0  0  0  0
 40 43  1  0  0  0  0
 41 52  1  0  0  0  0
 42 68  1  0  0  0  0
 43 45  1  0  0  0  0
 44 46  1  0  0  0  0
 44 47  1  0  0  0  0
 45 50  1  0  0  0  0
 46 54  1  0  0  0  0
 47 69  1  0  0  0  0
 48 53  1  0  0  0  0
 48 67  1  0  0  0  0
 49 54  1  0  0  0  0
 49 69  1  0  0  0  0
 50 73  1  0  0  0  0
 51 53  1  0  0  0  0
 51 55  1  0  0  0  0
 52 68  1  0  0  0  0
 53 61  1  0  0  0  0
 54 66  1  0  0  0  0
 56 63  1  0  0  0  0
 57 64  1  0  0  0  0
 58 64  1  0  0  0  0
 59 64  1  0  0  0  0
 60 75  1  0  0  0  0
 61 83  1  0  0  0  0
 62 64  1  0  0  0  0
 62 74  1  0  0  0  0
 63 75  1  0  0  0  0
 65 66  1  0  0  0  0
M  CHG  1  75   1
M  ISO  4  39 100  61 101  72 100  83 101
M  END
> <Batch ID>
0064

> <Smiles>
CNC(C)C(=O)NC(C(=O)N1Cc2cc([101O:1][101CH2:1]C3CN(c4ccc([100NH:0][100C:0](=O)N5CCCC(n6nc(-c7ccc(Oc8ccc(F)cc8F)cc7)c(C(N)=O)c6N)C5)cc4F)C(=O)C3C)ccc2CC1C(=O)NC1CCCc2ccccc21)C(C)(C)C

> <Shape>
0.288

> <Color>
0.138

> <Negative vol penalty>
0.000

$$$$

  -OEChem-04042323153D

 84 92  0     1  0  0  0  0  0999 V2000
  -19.9393  -33.6425   15.8106 C   0  0  0  0  0  0  0  0  0  0  0  0
  -20.7846  -32.5388   15.8632 C   0  0  0  0  0  0  0  0  0  0  0  0
  -32.3090  -18.6159   20.8413 C   0  0  0  0  0  0  0  0  0  0  0  0
  -23.2564   -9.6669   20.6876 C   0  0  0  0  0  0  0  0  0  0  0  0
  -23.3707  -11.2357   22.5213 C   0  0  0  0  0  0  0  0  0  0  0  0
  -20.2297  -34.7782   16.5655 C   0  0  0  0  0  0  0  0  0  0  0  0
  -21.9216  -32.5707   16.6699 C   0  0  0  0  0  0  0  0  0  0  0  0
  -24.3859  -27.8829   19.7452 C   0  0  0  0  0  0  0  0  0  0  0  0
  -31.4512  -19.6900   20.6046 C   0  0  0  0  0  0  0  0  0  0  0  0
  -31.8758  -17.3116   20.6028 C   0  0  0  0  0  0  0  0  0  0  0  0
  -22.3562   -8.8856   21.4120 C   0  0  0  0  0  0  0  0  0  0  0  0
  -22.4704  -10.4545   23.2458 C   0  0  0  0  0  0  0  0  0  0  0  0
  -25.4537  -27.0326   19.4613 C   0  0  0  0  0  0  0  0  0  0  0  0
  -22.4787   -6.6279   23.9244 C   0  0  0  0  0  0  0  0  0  0  0  0
  -22.6863   -5.2487   23.9413 C   0  0  0  0  0  0  0  0  0  0  0  0
  -26.9095  -28.4290   20.7841 C   0  0  0  0  0  0  0  0  0  0  0  0
  -20.5141   -4.9095   22.9395 C   0  0  0  0  0  0  0  0  0  0  0  0
  -23.7637  -10.8419   21.2422 C   0  0  0  0  0  0  0  0  0  0  0  0
  -24.3878  -12.7026   19.6125 C   0  0  0  0  0  0  0  0  0  0  0  0
  -21.3656  -34.8203   17.3893 C   0  0  0  0  0  0  0  0  0  0  0  0
  -24.5746  -29.0205   20.5431 C   0  0  0  0  0  0  0  0  0  0  0  0
  -22.2282  -33.7085   17.4355 C   0  0  0  0  0  0  0  0  0  0  0  0
  -25.8419  -29.2907   21.0788 C   0  0  0  0  0  0  0  0  0  0  0  0
  -29.7268  -18.1556   19.8910 C   0  0  0  0  0  0  0  0  0  0  0  0
  -30.1601  -19.4599   20.1295 C   0  0  0  0  0  0  0  0  0  0  0  0
  -30.5847  -17.0815   20.1277 C   0  0  0  0  0  0  0  0  0  0  0  0
  -21.9632   -9.2794   22.6911 C   0  0  0  0  0  0  0  0  0  0  0  0
  -26.7163  -27.3071   19.9784 C   0  0  0  0  0  0  0  0  0  0  0  0
  -21.2888   -7.1479   23.4151 C   0  0  0  0  0  0  0  0  0  0  0  0
  -21.7040   -4.3895   23.4489 C   0  0  0  0  0  0  0  0  0  0  0  0
  -20.3065   -6.2887   22.9227 C   0  0  0  0  0  0  0  0  0  0  0  0
  -24.6941  -11.6491   20.4946 C   0  0  0  0  0  0  0  0  0  0  0  0
  -25.6096  -13.1403   19.1630 C   0  0  0  0  0  0  0  0  0  0  0  0
  -23.1128  -13.2379   19.2335 C   0  0  0  0  0  0  0  0  0  0  0  0
  -24.2718  -32.1523   20.0916 C   0  0  0  0  0  0  0  0  0  0  0  0
  -24.8946  -32.2770   23.2726 C   0  0  0  0  0  0  0  0  0  0  0  0
  -29.5933  -21.9133   20.0884 C   0  0  0  0  0  0  0  0  0  0  0  0
  -26.2832  -30.7916   26.0134 C   0  0  0  0  0  0  0  0  0  0  0  0
  -30.9076  -14.5834   20.0858 C   0  0  0  0  0  0  0  0  0  0  0  0
  -21.6636  -36.0877   18.1506 C   0  0  0  0  0  0  0  0  0  0  0  0
  -23.4067  -29.9131   20.8620 C   0  0  0  0  0  0  0  0  0  0  0  0
  -26.0926  -30.4880   21.9574 C   0  0  0  0  0  0  0  0  0  0  0  0
  -22.6865  -35.9007   19.2682 C   0  0  0  0  0  0  0  0  0  0  0  0
  -30.2217  -11.1153   19.6629 C   0  0  0  0  0  0  0  0  0  0  0  0
  -23.8833  -35.0982   18.7677 C   0  0  0  0  0  0  0  0  0  0  0  0
  -28.6973  -11.0317   19.7690 C   0  0  0  0  0  0  0  0  0  0  0  0
  -30.8003  -12.1583   20.6174 C   0  0  0  0  0  0  0  0  0  0  0  0
  -28.6799  -13.4125   20.6165 C   0  0  0  0  0  0  0  0  0  0  0  0
  -23.4577  -33.6954   18.3177 C   0  0  1  0  0  0  0  0  0  0  0  0
  -23.8252  -31.3242   21.2631 C   0  0  1  0  0  0  0  0  0  0  0  0
  -28.0454  -12.4211   19.6274 C   0  0  2  0  0  0  0  0  0  0  0  0
  -28.3403  -17.9084   19.3818 C   0  0  0  0  0  0  0  0  0  0  0  0
  -26.6676  -31.1521   28.4669 C   0  0  0  0  0  0  0  0  0  0  0  0
  -27.1337  -34.2476   22.6299 C   0  0  0  0  0  0  0  0  0  0  0  0
  -28.0597  -33.8346   24.9190 C   0  0  0  0  0  0  0  0  0  0  0  0
  -25.7854  -34.8251   24.6555 C   0  0  0  0  0  0  0  0  0  0  0  0
  -24.7090  -28.3904   26.7310 C   0  0  0  0  0  0  0  0  0  0  0  0
  -28.3924  -22.7721   19.7169 C   0  0  0  0  0  0  0  0  0  0  0  0
  -28.6540  -24.2620   19.9078 C   0  0  0  0  0  0  0  0  0  0  0  0
  -27.4573  -25.1017   19.4854 C   0  0  0  0  0  0  0  0  0  1  0  0
  -26.1435  -32.3815   24.1142 C   0  0  1  0  0  0  0  0  0  0  0  0
  -25.7454  -30.5581   27.4136 C   0  0  2  0  0  0  0  0  0  0  0  0
  -26.7766  -33.8006   24.0615 C   0  0  0  0  0  0  0  0  0  0  0  0
  -26.0075  -11.4305   20.6004 N   0  0  0  0  0  0  0  0  0  0  0  0
  -26.5373  -12.3527   19.7789 N   0  0  0  0  0  0  0  0  0  0  0  0
  -24.9202  -31.3342   22.2352 N   0  0  0  0  0  0  0  0  0  0  0  0
  -30.1380  -13.4500   20.4231 N   0  0  0  0  0  0  0  0  0  0  0  0
  -25.9702  -14.1181   18.3049 N   0  0  0  0  0  0  0  0  0  0  0  0
  -21.9581  -12.6708   19.7896 N   0  0  0  0  0  0  0  0  0  0  0  0
  -29.3065  -20.5645   19.8978 N   0  0  0  0  0  0  0  0  0  0  0  0
  -30.1653  -15.7483   19.8943 N   0  0  0  0  0  0  0  0  0  0  0  0
  -23.2490  -32.8382   19.4649 N   0  0  0  0  0  0  0  0  0  0  0  0
  -25.7703  -31.9431   25.4547 N   0  0  0  0  0  0  0  0  0  0  0  0
  -25.6078  -29.0980   27.6788 N   0  3  0  0  0  0  0  0  0  0  0  0
  -23.0001  -14.1800   18.4130 O   0  0  0  0  0  0  0  0  0  0  0  0
  -25.4569  -32.1689   19.7802 O   0  0  0  0  0  0  0  0  0  0  0  0
  -23.9292  -33.0002   23.5308 O   0  0  0  0  0  0  0  0  0  0  0  0
  -30.6424  -22.4018   20.4947 O   0  0  0  0  0  0  0  0  0  0  0  0
  -27.0816  -30.0307   25.4710 O   0  0  0  0  0  0  0  0  0  0  0  0
  -32.1320  -14.5189   19.9484 O   0  0  0  0  0  0  0  0  0  0  0  0
  -21.0846   -8.5175   23.3982 O   0  0  0  0  0  0  0  0  0  0  0  0
  -27.7605  -26.4792   19.7024 O   0  0  0  0  0  0  0  0  0  1  0  0
  -21.9041   -3.0651   23.4638 F   0  0  0  0  0  0  0  0  0  0  0  0
  -19.1618   -6.7825   22.4310 F   0  0  0  0  0  0  0  0  0  0  0  0
  1  2  1  0  0  0  0
  1  6  2  0  0  0  0
  2  7  2  0  0  0  0
  3  9  2  0  0  0  0
  3 10  1  0  0  0  0
  4 11  2  0  0  0  0
  4 18  1  0  0  0  0
  5 12  1  0  0  0  0
  5 18  2  0  0  0  0
  6 20  1  0  0  0  0
  7 22  1  0  0  0  0
  8 13  2  0  0  0  0
  8 21  1  0  0  0  0
  9 25  1  0  0  0  0
 10 26  2  0  0  0  0
 11 27  1  0  0  0  0
 12 27  2  0  0  0  0
 13 28  1  0  0  0  0
 14 15  2  0  0  0  0
 14 29  1  0  0  0  0
 15 30  1  0  0  0  0
 16 23  1  0  0  0  0
 16 28  2  0  0  0  0
 17 30  2  0  0  0  0
 17 31  1  0  0  0  0
 18 32  1  0  0  0  0
 19 32  1  0  0  0  0
 19 33  2  0  0  0  0
 19 34  1  0  0  0  0
 20 22  2  0  0  0  0
 20 40  1  0  0  0  0
 21 23  2  0  0  0  0
 21 41  1  0  0  0  0
 22 49  1  0  0  0  0
 23 42  1  0  0  0  0
 24 25  2  0  0  0  0
 24 26  1  0  0  0  0
 24 52  1  0  0  0  0
 25 70  1  0  0  0  0
 26 71  1  0  0  0  0
 27 81  1  0  0  0  0
 28 82  1  0  0  0  0
 29 31  2  0  0  0  0
 29 81  1  0  0  0  0
 30 83  1  0  0  0  0
 31 84  1  0  0  0  0
 32 64  2  0  0  0  0
 33 65  1  0  0  0  0
 33 68  1  0  0  0  0
 34 69  1  0  0  0  0
 34 75  2  0  0  0  0
 35 50  1  0  0  0  0
 35 72  1  0  0  0  0
 35 76  2  0  0  0  0
 36 61  1  0  0  0  0
 36 66  1  0  0  0  0
 36 77  2  0  0  0  0
 37 58  1  0  0  0  0
 37 70  1  0  0  0  0
 37 78  2  0  0  0  0
 38 62  1  0  0  0  0
 38 73  1  0  0  0  0
 38 79  2  0  0  0  0
 39 67  1  0  0  0  0
 39 71  1  0  0  0  0
 39 80  2  0  0  0  0
 40 43  1  0  0  0  0
 41 50  1  0  0  0  0
 42 66  1  0  0  0  0
 43 45  1  0  0  0  0
 44 46  1  0  0  0  0
 44 47  1  0  0  0  0
 45 49  1  0  0  0  0
 46 51  1  0  0  0  0
 47 67  1  0  0  0  0
 48 51  1  0  0  0  0
 48 67  1  0  0  0  0
 49 72  1  0  0  0  0
 50 66  1  0  0  0  0
 51 65  1  0  0  0  0
 53 62  1  0  0  0  0
 54 63  1  0  0  0  0
 55 63  1  0  0  0  0
 56 63  1  0  0  0  0
 57 74  1  0  0  0  0
 58 59  1  0  0  0  0
 59 60  1  0  0  0  0
 60 82  1  0  0  0  0
 61 63  1  0  0  0  0
 61 73  1  0  0  0  0
 62 74  1  0  0  0  0
 64 65  1  0  0  0  0
M  CHG  1  74   1
M  ISO  4  39 100  60 101  71 100  82 101
M  END
> <Batch ID>
0064

> <Smiles>
CNC(C)C(=O)NC(C(=O)N1Cc2cc([101O:1][101CH2:1]CCC(=O)Nc3cccc([100NH:0][100C:0](=O)N4CCCC(n5nc(-c6ccc(Oc7ccc(F)cc7F)cc6)c(C(N)=O)c5N)C4)c3C)ccc2CC1C(=O)NC1CCCc2ccccc21)C(C)(C)C

> <Shape>
0.327

> <Color>
0.129

> <Negative vol penalty>
0.000

$$$$

  -OEChem-04042323153D

 84 92  0     1  0  0  0  0  0999 V2000
  -16.5569  -28.1039   23.2628 C   0  0  0  0  0  0  0  0  0  0  0  0
  -17.5379  -27.4728   22.5047 C   0  0  0  0  0  0  0  0  0  0  0  0
  -24.2170  -13.9345   22.7282 C   0  0  0  0  0  0  0  0  0  0  0  0
  -26.5441  -13.9937   22.0816 C   0  0  0  0  0  0  0  0  0  0  0  0
  -16.6590  -29.4670   23.5373 C   0  0  0  0  0  0  0  0  0  0  0  0
  -18.6211  -28.2048   22.0196 C   0  0  0  0  0  0  0  0  0  0  0  0
  -24.3783  -26.2364   21.3223 C   0  0  0  0  0  0  0  0  0  0  0  0
  -24.0061  -12.8552   21.8702 C   0  0  0  0  0  0  0  0  0  0  0  0
  -26.3332  -12.9143   21.2237 C   0  0  0  0  0  0  0  0  0  0  0  0
  -25.0819  -25.7689   20.2132 C   0  0  0  0  0  0  0  0  0  0  0  0
  -24.5591   -9.5194   21.8811 C   0  0  0  0  0  0  0  0  0  0  0  0
  -23.8157   -8.4428   22.3645 C   0  0  0  0  0  0  0  0  0  0  0  0
  -29.2545  -22.9617   20.6622 C   0  0  0  0  0  0  0  0  0  0  0  0
  -25.9874  -27.9774   19.8643 C   0  0  0  0  0  0  0  0  0  0  0  0
  -30.5612  -21.0175   21.2532 C   0  0  0  0  0  0  0  0  0  0  0  0
  -22.1925   -8.7739   20.6058 C   0  0  0  0  0  0  0  0  0  0  0  0
  -25.4860  -14.5038   22.8338 C   0  0  0  0  0  0  0  0  0  0  0  0
  -30.2784  -23.3938   19.8194 C   0  0  0  0  0  0  0  0  0  0  0  0
  -26.0824  -15.5674   25.0746 C   0  0  0  0  0  0  0  0  0  0  0  0
  -17.7490  -30.2141   23.0634 C   0  0  0  0  0  0  0  0  0  0  0  0
  -24.4655  -27.5827   21.7049 C   0  0  0  0  0  0  0  0  0  0  0  0
  -18.7372  -29.5795   22.2868 C   0  0  0  0  0  0  0  0  0  0  0  0
  -25.2859  -28.4590   20.9802 C   0  0  0  0  0  0  0  0  0  0  0  0
  -31.5853  -21.4496   20.4104 C   0  0  0  0  0  0  0  0  0  0  0  0
  -31.4438  -22.6377   19.6935 C   0  0  0  0  0  0  0  0  0  0  0  0
  -29.3959  -21.7736   21.3792 C   0  0  0  0  0  0  0  0  0  0  0  0
  -25.0642  -12.3450   21.1180 C   0  0  0  0  0  0  0  0  0  0  0  0
  -25.8843  -26.6401   19.4823 C   0  0  0  0  0  0  0  0  0  0  0  0
  -24.1192  -10.2234   20.7601 C   0  0  0  0  0  0  0  0  0  0  0  0
  -22.6324   -8.0700   21.7269 C   0  0  0  0  0  0  0  0  0  0  0  0
  -22.9359   -9.8506   20.1225 C   0  0  0  0  0  0  0  0  0  0  0  0
  -25.7044  -15.6192   23.7195 C   0  0  0  0  0  0  0  0  0  0  0  0
  -26.1571  -16.8833   25.4608 C   0  0  0  0  0  0  0  0  0  0  0  0
  -30.0991  -24.6633   19.0688 C   0  0  0  0  0  0  0  0  0  0  0  0
  -26.3428  -14.4313   25.9095 C   0  0  0  0  0  0  0  0  0  0  0  0
  -22.3954  -29.9816   21.9573 C   0  0  0  0  0  0  0  0  0  0  0  0
  -24.9441  -31.5325   23.2307 C   0  0  0  0  0  0  0  0  0  0  0  0
  -28.3359  -31.8013   23.4949 C   0  0  0  0  0  0  0  0  0  0  0  0
  -27.1348  -21.9652   22.4734 C   0  0  0  0  0  0  0  0  0  0  0  0
  -17.7917  -31.6950   23.3459 C   0  0  0  0  0  0  0  0  0  0  0  0
  -23.7213  -28.0653   22.9196 C   0  0  0  0  0  0  0  0  0  0  0  0
  -25.4296  -29.9089   21.3616 C   0  0  0  0  0  0  0  0  0  0  0  0
  -19.1642  -32.3205   23.1108 C   0  0  0  0  0  0  0  0  0  0  0  0
  -24.2975  -21.1857   24.4782 C   0  0  0  0  0  0  0  0  0  0  0  0
  -19.7419  -31.8549   21.7781 C   0  0  0  0  0  0  0  0  0  0  0  0
  -24.3741  -19.6658   24.6395 C   0  0  0  0  0  0  0  0  0  0  0  0
  -24.7505  -21.6321   23.0892 C   0  0  0  0  0  0  0  0  0  0  0  0
  -26.1477  -19.6185   22.8398 C   0  0  0  0  0  0  0  0  0  0  0  0
  -19.9400  -30.3343   21.7638 C   0  0  1  0  0  0  0  0  0  0  0  0
  -23.4799  -29.5717   22.9131 C   0  0  1  0  0  0  0  0  0  0  0  0
  -25.7629  -19.1264   24.2446 C   0  0  2  0  0  0  0  0  0  0  0  0
  -32.8232  -20.6217   20.2929 C   0  0  0  0  0  0  0  0  0  0  0  0
  -32.5445  -23.0993   18.7908 C   0  0  0  0  0  0  0  0  0  0  0  0
  -30.1235  -33.1903   24.5778 C   0  0  0  0  0  0  0  0  0  0  0  0
  -24.4626  -33.7435   21.1838 C   0  0  0  0  0  0  0  0  0  0  0  0
  -26.7674  -34.5949   21.6648 C   0  0  0  0  0  0  0  0  0  0  0  0
  -25.0518  -34.5536   23.4753 C   0  0  0  0  0  0  0  0  0  0  0  0
  -29.3895  -29.4809   24.9998 C   0  0  0  0  0  0  0  0  0  0  0  0
  -28.7264  -25.8600   17.3836 C   0  0  0  0  0  0  0  0  0  0  0  0
  -27.8053  -26.8357   18.0940 C   0  0  0  0  0  0  0  0  0  1  0  0
  -26.0656  -32.3788   22.6785 C   0  0  1  0  0  0  0  0  0  0  0  0
  -29.2431  -31.9566   24.7022 C   0  0  2  0  0  0  0  0  0  0  0  0
  -25.5828  -33.7909   22.2420 C   0  0  0  0  0  0  0  0  0  0  0  0
  -25.5496  -16.8691   23.2748 N   0  0  0  0  0  0  0  0  0  0  0  0
  -25.8317  -17.6149   24.3566 N   0  0  0  0  0  0  0  0  0  0  0  0
  -24.6770  -30.3344   22.5532 N   0  0  0  0  0  0  0  0  0  0  0  0
  -26.0755  -21.0870   22.7856 N   0  0  0  0  0  0  0  0  0  0  0  0
  -26.4687  -17.4745   26.6337 N   0  0  0  0  0  0  0  0  0  0  0  0
  -26.2200  -13.1509   25.3529 N   0  0  0  0  0  0  0  0  0  0  0  0
  -28.3554  -21.3343   22.2349 N   0  0  0  0  0  0  0  0  0  0  0  0
  -29.0178  -24.7099   18.1978 N   0  0  0  0  0  0  0  0  0  0  0  0
  -21.1277  -29.9723   22.5073 N   0  0  0  0  0  0  0  0  0  0  0  0
  -27.1073  -32.3927   23.6998 N   0  0  0  0  0  0  0  0  0  0  0  0
  -30.1239  -30.7630   24.8451 N   0  3  0  0  0  0  0  0  0  0  0  0
  -30.9035  -25.5766   19.2338 O   0  0  0  0  0  0  0  0  0  0  0  0
  -26.6586  -14.5477   27.1179 O   0  0  0  0  0  0  0  0  0  0  0  0
  -22.6873  -30.2853   20.8066 O   0  0  0  0  0  0  0  0  0  0  0  0
  -24.3324  -31.9167   24.2306 O   0  0  0  0  0  0  0  0  0  0  0  0
  -28.6838  -31.2172   22.4710 O   0  0  0  0  0  0  0  0  0  0  0  0
  -26.9777  -23.1885   22.4482 O   0  0  0  0  0  0  0  0  0  0  0  0
  -24.8588  -11.2916   20.2809 O   0  0  0  0  0  0  0  0  0  0  0  0
  -26.5717  -26.1865   18.3989 O   0  0  0  0  0  0  0  0  0  1  0  0
  -21.9194   -7.0351   22.1903 F   0  0  0  0  0  0  0  0  0  0  0  0
  -22.5089  -10.5224   19.0444 F   0  0  0  0  0  0  0  0  0  0  0  0
  1  2  1  0  0  0  0
  1  5  2  0  0  0  0
  2  6  2  0  0  0  0
  3  8  2  0  0  0  0
  3 17  1  0  0  0  0
  4  9  1  0  0  0  0
  4 17  2  0  0  0  0
  5 20  1  0  0  0  0
  6 22  1  0  0  0  0
  7 10  2  0  0  0  0
  7 21  1  0  0  0  0
  8 27  1  0  0  0  0
  9 27  2  0  0  0  0
 10 28  1  0  0  0  0
 11 12  2  0  0  0  0
 11 29  1  0  0  0  0
 12 30  1  0  0  0  0
 13 18  1  0  0  0  0
 13 26  2  0  0  0  0
 14 23  1  0  0  0  0
 14 28  2  0  0  0  0
 15 24  2  0  0  0  0
 15 26  1  0  0  0  0
 16 30  2  0  0  0  0
 16 31  1  0  0  0  0
 17 32  1  0  0  0  0
 18 25  2  0  0  0  0
 18 34  1  0  0  0  0
 19 32  1  0  0  0  0
 19 33  2  0  0  0  0
 19 35  1  0  0  0  0
 20 22  2  0  0  0  0
 20 40  1  0  0  0  0
 21 23  2  0  0  0  0
 21 41  1  0  0  0  0
 22 49  1  0  0  0  0
 23 42  1  0  0  0  0
 24 25  1  0  0  0  0
 24 52  1  0  0  0  0
 25 53  1  0  0  0  0
 26 70  1  0  0  0  0
 27 81  1  0  0  0  0
 28 82  1  0  0  0  0
 29 31  2  0  0  0  0
 29 81  1  0  0  0  0
 30 83  1  0  0  0  0
 31 84  1  0  0  0  0
 32 64  2  0  0  0  0
 33 65  1  0  0  0  0
 33 68  1  0  0  0  0
 34 71  1  0  0  0  0
 34 75  2  0  0  0  0
 35 69  1  0  0  0  0
 35 76  2  0  0  0  0
 36 50  1  0  0  0  0
 36 72  1  0  0  0  0
 36 77  2  0  0  0  0
 37 61  1  0  0  0  0
 37 66  1  0  0  0  0
 37 78  2  0  0  0  0
 38 62  1  0  0  0  0
 38 73  1  0  0  0  0
 38 79  2  0  0  0  0
 39 67  1  0  0  0  0
 39 70  1  0  0  0  0
 39 80  2  0  0  0  0
 40 43  1  0  0  0  0
 41 50  1  0  0  0  0
 42 66  1  0  0  0  0
 43 45  1  0  0  0  0
 44 46  1  0  0  0  0
 44 47  1  0  0  0  0
 45 49  1  0  0  0  0
 46 51  1  0  0  0  0
 47 67  1  0  0  0  0
 48 51  1  0  0  0  0
 48 67  1  0  0  0  0
 49 72  1  0  0  0  0
 50 66  1  0  0  0  0
 51 65  1  0  0  0  0
 54 62  1  0  0  0  0
 55 63  1  0  0  0  0
 56 63  1  0  0  0  0
 57 63  1  0  0  0  0
 58 74  1  0  0  0  0
 59 60  1  0  0  0  0
 59 71  1  0  0  0  0
 60 82  1  0  0  0  0
 61 63  1  0  0  0  0
 61 73  1  0  0  0  0
 62 74  1  0  0  0  0
 64 65  1  0  0  0  0
M  CHG  1  74   1
M  ISO  4  39 100  60 101  70 100  82 101
M  END
> <Batch ID>
0064

> <Smiles>
CNC(C)C(=O)NC(C(=O)N1Cc2cc([101O:1][101CH2:1]CNC(=O)c3cc([100NH:0][100C:0](=O)N4CCCC(n5nc(-c6ccc(Oc7ccc(F)cc7F)cc6)c(C(N)=O)c5N)C4)cc(C)c3C)ccc2CC1C(=O)NC1CCCc2ccccc21)C(C)(C)C

> <Shape>
0.258

> <Color>
0.074

> <Negative vol penalty>
0.000

$$$$

  -OEChem-04042323153D

 85 93  0     1  0  0  0  0  0999 V2000
  -20.2317  -10.1346   22.9507 C   0  0  0  0  0  0  0  0  0  0  0  0
  -21.0352  -11.0795   23.5808 C   0  0  0  0  0  0  0  0  0  0  0  0
  -24.2179  -32.1412   21.2435 C   0  0  0  0  0  0  0  0  0  0  0  0
  -23.9834  -30.4204   22.9231 C   0  0  0  0  0  0  0  0  0  0  0  0
  -20.7597   -9.3377   21.9358 C   0  0  0  0  0  0  0  0  0  0  0  0
  -22.3676  -11.2272   23.1971 C   0  0  0  0  0  0  0  0  0  0  0  0
  -23.7179  -16.0820   22.6947 C   0  0  0  0  0  0  0  0  0  0  0  0
  -22.8344  -32.3179   21.2313 C   0  0  0  0  0  0  0  0  0  0  0  0
  -22.5998  -30.5971   22.9110 C   0  0  0  0  0  0  0  0  0  0  0  0
  -23.9833  -16.7934   23.8641 C   0  0  0  0  0  0  0  0  0  0  0  0
  -19.9886  -29.6836   20.9673 C   0  0  0  0  0  0  0  0  0  0  0  0
  -19.1896  -28.5406   20.9393 C   0  0  0  0  0  0  0  0  0  0  0  0
  -28.7175  -23.8054   22.9398 C   0  0  0  0  0  0  0  0  0  0  0  0
  -26.3490  -16.4829   23.5087 C   0  0  0  0  0  0  0  0  0  0  0  0
  -29.5955  -23.0842   20.8076 C   0  0  0  0  0  0  0  0  0  0  0  0
  -18.1767  -29.1976   23.0321 C   0  0  0  0  0  0  0  0  0  0  0  0
  -24.7925  -31.1924   22.0894 C   0  0  0  0  0  0  0  0  0  0  0  0
  -28.5164  -22.4749   23.3070 C   0  0  0  0  0  0  0  0  0  0  0  0
  -27.1570  -31.6757   22.9159 C   0  0  0  0  0  0  0  0  0  0  0  0
  -22.0966   -9.4824   21.5328 C   0  0  0  0  0  0  0  0  0  0  0  0
  -24.7674  -15.5556   21.9281 C   0  0  0  0  0  0  0  0  0  0  0  0
  -22.9144  -10.4305   22.1767 C   0  0  0  0  0  0  0  0  0  0  0  0
  -26.0943  -15.7675   22.3287 C   0  0  0  0  0  0  0  0  0  0  0  0
  -29.2570  -24.1101   21.6900 C   0  0  0  0  0  0  0  0  0  0  0  0
  -22.0253  -31.5459   22.0651 C   0  0  0  0  0  0  0  0  0  0  0  0
  -25.2990  -16.9914   24.2727 C   0  0  0  0  0  0  0  0  0  0  0  0
  -19.8818  -30.5835   22.0277 C   0  0  0  0  0  0  0  0  0  0  0  0
  -18.2836  -28.2976   21.9717 C   0  0  0  0  0  0  0  0  0  0  0  0
  -29.3944  -21.7537   21.1749 C   0  0  0  0  0  0  0  0  0  0  0  0
  -18.9758  -30.3405   23.0600 C   0  0  0  0  0  0  0  0  0  0  0  0
  -28.8549  -21.4490   22.4246 C   0  0  0  0  0  0  0  0  0  0  0  0
  -26.2215  -31.0091   22.1020 C   0  0  0  0  0  0  0  0  0  0  0  0
  -28.3705  -31.1488   22.5467 C   0  0  0  0  0  0  0  0  0  0  0  0
  -27.9422  -22.1533   24.6389 C   0  0  0  0  0  0  0  0  0  0  0  0
  -26.9477  -32.6813   23.9163 C   0  0  0  0  0  0  0  0  0  0  0  0
  -25.6631  -12.6323   21.0588 C   0  0  0  0  0  0  0  0  0  0  0  0
  -27.8445  -14.2502   19.2851 C   0  0  0  0  0  0  0  0  0  0  0  0
  -29.6593  -17.1029   18.8207 C   0  0  0  0  0  0  0  0  0  0  0  0
  -29.9873  -25.9355   20.1150 C   0  0  0  0  0  0  0  0  0  0  0  0
  -22.6357   -8.5656   20.4634 C   0  0  0  0  0  0  0  0  0  0  0  0
  -24.4653  -14.8136   20.6551 C   0  0  0  0  0  0  0  0  0  0  0  0
  -27.2576  -15.2403   21.5303 C   0  0  0  0  0  0  0  0  0  0  0  0
  -23.9538   -9.0432   19.8594 C   0  0  0  0  0  0  0  0  0  0  0  0
  -30.6162  -29.1843   18.8008 C   0  0  0  0  0  0  0  0  0  0  0  0
  -24.9227   -9.4662   20.9591 C   0  0  0  0  0  0  0  0  0  0  0  0
  -29.6501  -30.0825   19.5766 C   0  0  0  0  0  0  0  0  0  0  0  0
  -30.0008  -27.8199   18.4951 C   0  0  0  0  0  0  0  0  0  0  0  0
  -28.4948  -28.0055   20.4359 C   0  0  0  0  0  0  0  0  0  0  0  0
  -24.3577  -10.6376   21.7715 C   0  0  1  0  0  0  0  0  0  0  0  0
  -25.5931  -13.8805   20.2253 C   0  0  1  0  0  0  0  0  0  0  0  0
  -29.0938  -29.3674   20.8235 C   0  0  2  0  0  0  0  0  0  0  0  0
  -31.3858  -18.1147   17.3065 C   0  0  0  0  0  0  0  0  0  0  0  0
  -30.0000  -12.5400   20.6040 C   0  0  0  0  0  0  0  0  0  0  0  0
  -31.7024  -14.1918   19.8029 C   0  0  0  0  0  0  0  0  0  0  0  0
  -30.3260  -12.9230   18.1542 C   0  0  0  0  0  0  0  0  0  0  0  0
  -27.8441  -19.3023   18.0291 C   0  0  0  0  0  0  0  0  0  0  0  0
  -26.5902  -19.6451   26.3393 C   0  0  0  0  0  0  0  0  0  0  0  0
  -27.8535  -20.4847   26.4730 C   0  0  0  0  0  0  0  0  0  0  0  0
  -26.7872  -18.4127   25.4648 C   0  0  0  0  0  0  0  0  0  1  0  0
  -29.2470  -14.7581   19.5180 C   0  0  1  0  0  0  0  0  0  0  0  0
  -29.8997  -17.9541   17.5870 C   0  0  2  0  0  0  0  0  0  0  0  0
  -30.2971  -13.6116   19.5360 C   0  0  0  0  0  0  0  0  0  0  0  0
  -26.7918  -30.1262   21.2778 N   0  0  0  0  0  0  0  0  0  0  0  0
  -28.0987  -30.2344   21.5718 N   0  0  0  0  0  0  0  0  0  0  0  0
  -26.9105  -14.5159   20.2965 N   0  0  0  0  0  0  0  0  0  0  0  0
  -29.4993  -27.2002   19.7237 N   0  0  0  0  0  0  0  0  0  0  0  0
  -29.6327  -31.3831   22.9640 N   0  0  0  0  0  0  0  0  0  0  0  0
  -25.6373  -33.1087   24.1701 N   0  0  0  0  0  0  0  0  0  0  0  0
  -29.4622  -25.4615   21.3167 N   0  0  0  0  0  0  0  0  0  0  0  0
  -28.3403  -20.9462   25.2024 N   0  0  0  0  0  0  0  0  0  0  0  0
  -24.5056  -11.8777   21.0404 N   0  0  0  0  0  0  0  0  0  0  0  0
  -29.4881  -15.7732   18.4983 N   0  0  0  0  0  0  0  0  0  0  0  0
  -29.3067  -19.3092   17.7690 N   0  3  0  0  0  0  0  0  0  0  0  0
  -27.1496  -22.9366   25.1556 O   0  0  0  0  0  0  0  0  0  0  0  0
  -27.8963  -33.1977   24.5542 O   0  0  0  0  0  0  0  0  0  0  0  0
  -26.6917  -12.3722   21.6721 O   0  0  0  0  0  0  0  0  0  0  0  0
  -27.5856  -13.6465   18.2411 O   0  0  0  0  0  0  0  0  0  0  0  0
  -29.6303  -17.5702   19.9571 O   0  0  0  0  0  0  0  0  0  0  0  0
  -30.8308  -25.3307   19.4481 O   0  0  0  0  0  0  0  0  0  0  0  0
  -20.6752  -31.7182   22.0536 O   0  0  0  0  0  0  0  0  0  0  0  0
  -25.5608  -17.6848   25.4140 O   0  0  0  0  0  0  0  0  0  1  0  0
  -17.5152  -27.2008   21.9439 F   0  0  0  0  0  0  0  0  0  0  0  0
  -29.7194  -20.7685   20.3276 F   0  0  0  0  0  0  0  0  0  0  0  0
  -18.8678  -31.2020   24.0808 F   0  0  0  0  0  0  0  0  0  0  0  0
  -28.6657  -20.1670   22.7669 F   0  0  0  0  0  0  0  0  0  0  0  0
  1  2  1  0  0  0  0
  1  5  2  0  0  0  0
  2  6  2  0  0  0  0
  3  8  2  0  0  0  0
  3 17  1  0  0  0  0
  4  9  1  0  0  0  0
  4 17  2  0  0  0  0
  5 20  1  0  0  0  0
  6 22  1  0  0  0  0
  7 10  2  0  0  0  0
  7 21  1  0  0  0  0
  8 25  1  0  0  0  0
  9 25  2  0  0  0  0
 10 26  1  0  0  0  0
 11 12  2  0  0  0  0
 11 27  1  0  0  0  0
 12 28  1  0  0  0  0
 13 18  1  0  0  0  0
 13 24  2  0  0  0  0
 14 23  1  0  0  0  0
 14 26  2  0  0  0  0
 15 24  1  0  0  0  0
 15 29  2  0  0  0  0
 16 28  2  0  0  0  0
 16 30  1  0  0  0  0
 17 32  1  0  0  0  0
 18 31  2  0  0  0  0
 18 34  1  0  0  0  0
 19 32  1  0  0  0  0
 19 33  2  0  0  0  0
 19 35  1  0  0  0  0
 20 22  2  0  0  0  0
 20 40  1  0  0  0  0
 21 23  2  0  0  0  0
 21 41  1  0  0  0  0
 22 49  1  0  0  0  0
 23 42  1  0  0  0  0
 24 69  1  0  0  0  0
 25 80  1  0  0  0  0
 26 81  1  0  0  0  0
 27 30  2  0  0  0  0
 27 80  1  0  0  0  0
 28 82  1  0  0  0  0
 29 31  1  0  0  0  0
 29 83  1  0  0  0  0
 30 84  1  0  0  0  0
 31 85  1  0  0  0  0
 32 63  2  0  0  0  0
 33 64  1  0  0  0  0
 33 67  1  0  0  0  0
 34 70  1  0  0  0  0
 34 74  2  0  0  0  0
 35 68  1  0  0  0  0
 35 75  2  0  0  0  0
 36 50  1  0  0  0  0
 36 71  1  0  0  0  0
 36 76  2  0  0  0  0
 37 60  1  0  0  0  0
 37 65  1  0  0  0  0
 37 77  2  0  0  0  0
 38 61  1  0  0  0  0
 38 72  1  0  0  0  0
 38 78  2  0  0  0  0
 39 66  1  0  0  0  0
 39 69  1  0  0  0  0
 39 79  2  0  0  0  0
 40 43  1  0  0  0  0
 41 50  1  0  0  0  0
 42 65  1  0  0  0  0
 43 45  1  0  0  0  0
 44 46  1  0  0  0  0
 44 47  1  0  0  0  0
 45 49  1  0  0  0  0
 46 51  1  0  0  0  0
 47 66  1  0  0  0  0
 48 51  1  0  0  0  0
 48 66  1  0  0  0  0
 49 71  1  0  0  0  0
 50 65  1  0  0  0  0
 51 64  1  0  0  0  0
 52 61  1  0  0  0  0
 53 62  1  0  0  0  0
 54 62  1  0  0  0  0
 55 62  1  0  0  0  0
 56 73  1  0  0  0  0
 57 58  1  0  0  0  0
 57 59  1  0  0  0  0
 58 70  1  0  0  0  0
 59 81  1  0  0  0  0
 60 62  1  0  0  0  0
 60 72  1  0  0  0  0
 61 73  1  0  0  0  0
 63 64  1  0  0  0  0
M  CHG  1  73   1
M  ISO  4  39 100  59 101  69 100  81 101
M  END
> <Batch ID>
0064

> <Smiles>
CNC(C)C(=O)NC(C(=O)N1Cc2cc([101O:1][101CH2:1]CCNC(=O)c3cc([100NH:0][100C:0](=O)N4CCCC(n5nc(-c6ccc(Oc7ccc(F)cc7F)cc6)c(C(N)=O)c5N)C4)cc(F)c3F)ccc2CC1C(=O)NC1CCCc2ccccc21)C(C)(C)C

> <Shape>
0.285

> <Color>
0.058

> <Negative vol penalty>
0.000

$$$$

  -OEChem-04042323153D

 84 93  0     1  0  0  0  0  0999 V2000
  -24.8578  -34.0805   27.9129 C   0  0  0  0  0  0  0  0  0  0  0  0
  -25.6372  -33.1090   27.2932 C   0  0  0  0  0  0  0  0  0  0  0  0
  -26.6698  -11.7840   21.0629 C   0  0  0  0  0  0  0  0  0  0  0  0
  -25.5775  -13.0783   19.3399 C   0  0  0  0  0  0  0  0  0  0  0  0
  -23.4858  -34.1312   27.6701 C   0  0  0  0  0  0  0  0  0  0  0  0
  -25.0449  -32.1868   26.4311 C   0  0  0  0  0  0  0  0  0  0  0  0
  -27.5149  -29.7521   21.3836 C   0  0  0  0  0  0  0  0  0  0  0  0
  -28.1249  -22.7379   17.1725 C   0  0  0  0  0  0  0  0  0  0  0  0
  -25.4270  -11.3550   21.5286 C   0  0  0  0  0  0  0  0  0  0  0  0
  -24.3346  -12.6492   19.8055 C   0  0  0  0  0  0  0  0  0  0  0  0
  -28.1465  -28.5328   21.1427 C   0  0  0  0  0  0  0  0  0  0  0  0
  -22.5568   -9.6324   22.9464 C   0  0  0  0  0  0  0  0  0  0  0  0
  -27.8077  -21.5189   16.5733 C   0  0  0  0  0  0  0  0  0  0  0  0
  -22.4096   -8.2788   23.2489 C   0  0  0  0  0  0  0  0  0  0  0  0
  -26.0621  -27.6177   20.3444 C   0  0  0  0  0  0  0  0  0  0  0  0
  -29.6502  -21.6068   18.6663 C   0  0  0  0  0  0  0  0  0  0  0  0
  -22.9488   -7.7095   20.9636 C   0  0  0  0  0  0  0  0  0  0  0  0
  -26.7451  -12.6457   19.9686 C   0  0  0  0  0  0  0  0  0  0  0  0
  -28.8318  -12.4692   18.5119 C   0  0  0  0  0  0  0  0  0  0  0  0
  -22.8779  -33.2152   26.7970 C   0  0  0  0  0  0  0  0  0  0  0  0
  -26.1474  -29.9104   21.1164 C   0  0  0  0  0  0  0  0  0  0  0  0
  -23.6633  -32.2245   26.1774 C   0  0  0  0  0  0  0  0  0  0  0  0
  -25.4161  -28.8409   20.5803 C   0  0  0  0  0  0  0  0  0  0  0  0
  -29.0462  -22.7818   18.2190 C   0  0  0  0  0  0  0  0  0  0  0  0
  -29.3329  -20.3877   18.0672 C   0  0  0  0  0  0  0  0  0  0  0  0
  -24.2594  -11.7875   20.8999 C   0  0  0  0  0  0  0  0  0  0  0  0
  -27.4194  -27.4645   20.6258 C   0  0  0  0  0  0  0  0  0  0  0  0
  -22.8999  -10.0246   21.6525 C   0  0  0  0  0  0  0  0  0  0  0  0
  -22.6056   -7.3173   22.2575 C   0  0  0  0  0  0  0  0  0  0  0  0
  -28.4117  -20.3438   17.0206 C   0  0  0  0  0  0  0  0  0  0  0  0
  -23.0959   -9.0632   20.6611 C   0  0  0  0  0  0  0  0  0  0  0  0
  -28.0286  -13.0897   19.4874 C   0  0  0  0  0  0  0  0  0  0  0  0
  -29.9391  -13.2761   18.4149 C   0  0  0  0  0  0  0  0  0  0  0  0
  -30.2748  -24.2323   19.8909 C   0  0  0  0  0  0  0  0  0  0  0  0
  -28.5979  -11.2707   17.7605 C   0  0  0  0  0  0  0  0  0  0  0  0
  -23.5820  -30.5792   22.8699 C   0  0  0  0  0  0  0  0  0  0  0  0
  -22.1115  -30.6706   19.9800 C   0  0  0  0  0  0  0  0  0  0  0  0
  -22.0811  -29.6864   16.7124 C   0  0  0  0  0  0  0  0  0  0  0  0
  -30.8827  -19.0663   19.5499 C   0  0  0  0  0  0  0  0  0  0  0  0
  -21.3837  -33.2798   26.6025 C   0  0  0  0  0  0  0  0  0  0  0  0
  -25.4869  -31.2403   21.3566 C   0  0  0  0  0  0  0  0  0  0  0  0
  -23.9503  -28.9655   20.2571 C   0  0  0  0  0  0  0  0  0  0  0  0
  -30.3660  -25.7229   20.1323 C   0  0  0  0  0  0  0  0  0  0  0  0
  -20.8938  -32.5007   25.3846 C   0  0  0  0  0  0  0  0  0  0  0  0
  -32.6032  -16.3050   20.9961 C   0  0  0  0  0  0  0  0  0  0  0  0
  -21.5366  -31.1180   25.3414 C   0  0  0  0  0  0  0  0  0  0  0  0
  -31.7015  -15.1097   20.6793 C   0  0  0  0  0  0  0  0  0  0  0  0
  -31.7915  -17.5614   21.3061 C   0  0  0  0  0  0  0  0  0  0  0  0
  -29.8949  -16.7293   19.9719 C   0  0  0  0  0  0  0  0  0  0  0  0
  -28.8264  -25.2884   18.3527 C   0  0  0  0  0  0  0  0  0  0  0  0
  -23.0614  -31.2222   25.2165 C   0  0  1  0  0  0  0  0  0  0  0  0
  -23.9750  -31.1339   21.5299 C   0  0  1  0  0  0  0  0  0  0  0  0
  -30.6681  -15.4566   19.5896 C   0  0  2  0  0  0  0  0  0  0  0  0
  -29.1177  -26.2738   19.4676 C   0  0  1  0  0  0  0  0  0  1  0  0
  -20.7317  -29.8894   14.6064 C   0  0  0  0  0  0  0  0  0  0  0  0
  -20.0906  -28.6693   21.0849 C   0  0  0  0  0  0  0  0  0  0  0  0
  -19.3759  -28.1979   18.7322 C   0  0  0  0  0  0  0  0  0  0  0  0
  -19.0988  -30.4874   19.6830 C   0  0  0  0  0  0  0  0  0  0  0  0
  -24.3103  -30.9966   15.2725 C   0  0  0  0  0  0  0  0  0  0  0  0
  -21.4156  -29.6586   19.1021 C   0  0  1  0  0  0  0  0  0  0  0  0
  -21.8742  -30.4672   15.4271 C   0  0  2  0  0  0  0  0  0  0  0  0
  -20.0224  -29.2501   19.6583 C   0  0  0  0  0  0  0  0  0  0  0  0
  -28.5788  -14.2047   19.9754 N   0  0  0  0  0  0  0  0  0  0  0  0
  -29.7397  -14.2911   19.3038 N   0  0  0  0  0  0  0  0  0  0  0  0
  -29.3706  -24.0296   18.8322 N   0  0  0  0  0  0  0  0  0  0  0  0
  -23.3483  -30.2839   20.5155 N   0  0  0  0  0  0  0  0  0  0  0  0
  -30.8368  -17.8302   20.2285 N   0  0  0  0  0  0  0  0  0  0  0  0
  -31.0541  -13.2093   17.6568 N   0  0  0  0  0  0  0  0  0  0  0  0
  -27.4088  -10.5633   17.9841 N   0  0  0  0  0  0  0  0  0  0  0  0
  -29.9480  -19.1955   18.5231 N   0  0  0  0  0  0  0  0  0  0  0  0
  -23.4366  -31.5375   23.8548 N   0  0  0  0  0  0  0  0  0  0  0  0
  -21.3783  -30.2369   17.7632 N   0  0  0  0  0  0  0  0  0  0  0  0
  -23.1116  -30.4361   14.5972 N   0  3  0  0  0  0  0  0  0  0  0  0
  -30.9507  -23.4261   20.5139 O   0  0  0  0  0  0  0  0  0  0  0  0
  -29.4266  -10.8310   16.9278 O   0  0  0  0  0  0  0  0  0  0  0  0
  -23.4210  -29.3714   23.0003 O   0  0  0  0  0  0  0  0  0  0  0  0
  -21.5808  -31.7665   20.1773 O   0  0  0  0  0  0  0  0  0  0  0  0
  -22.7920  -28.6859   16.7768 O   0  0  0  0  0  0  0  0  0  0  0  0
  -31.7095  -19.9351   19.8390 O   0  0  0  0  0  0  0  0  0  0  0  0
  -23.0465  -11.3689   21.3539 O   0  0  0  0  0  0  0  0  0  0  0  0
  -28.0333  -26.2730   20.3904 O   0  0  0  0  0  0  0  0  0  1  0  0
  -22.4658   -6.0173   22.5485 F   0  0  0  0  0  0  0  0  0  0  0  0
  -28.0988  -19.1782   16.4374 F   0  0  0  0  0  0  0  0  0  0  0  0
  -23.4268   -9.4338   19.4165 F   0  0  0  0  0  0  0  0  0  0  0  0
  1  2  1  0  0  0  0
  1  5  2  0  0  0  0
  2  6  2  0  0  0  0
  3  9  2  0  0  0  0
  3 18  1  0  0  0  0
  4 10  1  0  0  0  0
  4 18  2  0  0  0  0
  5 20  1  0  0  0  0
  6 22  1  0  0  0  0
  7 11  2  0  0  0  0
  7 21  1  0  0  0  0
  8 13  2  0  0  0  0
  8 24  1  0  0  0  0
  9 26  1  0  0  0  0
 10 26  2  0  0  0  0
 11 27  1  0  0  0  0
 12 14  2  0  0  0  0
 12 28  1  0  0  0  0
 13 30  1  0  0  0  0
 14 29  1  0  0  0  0
 15 23  1  0  0  0  0
 15 27  2  0  0  0  0
 16 24  2  0  0  0  0
 16 25  1  0  0  0  0
 17 29  2  0  0  0  0
 17 31  1  0  0  0  0
 18 32  1  0  0  0  0
 19 32  1  0  0  0  0
 19 33  2  0  0  0  0
 19 35  1  0  0  0  0
 20 22  2  0  0  0  0
 20 40  1  0  0  0  0
 21 23  2  0  0  0  0
 21 41  1  0  0  0  0
 22 51  1  0  0  0  0
 23 42  1  0  0  0  0
 24 65  1  0  0  0  0
 25 30  2  0  0  0  0
 25 70  1  0  0  0  0
 26 80  1  0  0  0  0
 27 81  1  0  0  0  0
 28 31  2  0  0  0  0
 28 80  1  0  0  0  0
 29 82  1  0  0  0  0
 30 83  1  0  0  0  0
 31 84  1  0  0  0  0
 32 63  2  0  0  0  0
 33 64  1  0  0  0  0
 33 68  1  0  0  0  0
 34 43  1  0  0  0  0
 34 65  1  0  0  0  0
 34 74  2  0  0  0  0
 35 69  1  0  0  0  0
 35 75  2  0  0  0  0
 36 52  1  0  0  0  0
 36 71  1  0  0  0  0
 36 76  2  0  0  0  0
 37 60  1  0  0  0  0
 37 66  1  0  0  0  0
 37 77  2  0  0  0  0
 38 61  1  0  0  0  0
 38 72  1  0  0  0  0
 38 78  2  0  0  0  0
 39 67  1  0  0  0  0
 39 70  1  0  0  0  0
 39 79  2  0  0  0  0
 40 44  1  0  0  0  0
 41 52  1  0  0  0  0
 42 66  1  0  0  0  0
 43 54  1  0  0  0  0
 44 46  1  0  0  0  0
 45 47  1  0  0  0  0
 45 48  1  0  0  0  0
 46 51  1  0  0  0  0
 47 53  1  0  0  0  0
 48 67  1  0  0  0  0
 49 53  1  0  0  0  0
 49 67  1  0  0  0  0
 50 54  1  0  0  0  0
 50 65  1  0  0  0  0
 51 71  1  0  0  0  0
 52 66  1  0  0  0  0
 53 64  1  0  0  0  0
 54 81  1  0  0  0  0
 55 61  1  0  0  0  0
 56 62  1  0  0  0  0
 57 62  1  0  0  0  0
 58 62  1  0  0  0  0
 59 73  1  0  0  0  0
 60 62  1  0  0  0  0
 60 72  1  0  0  0  0
 61 73  1  0  0  0  0
 63 64  1  0  0  0  0
M  CHG  1  73   1
M  ISO  4  39 100  54 101  70 100  81 101
M  END
> <Batch ID>
0064

> <Smiles>
CNC(C)C(=O)NC(C(=O)N1Cc2cc([101O:1][101CH:1]3CC(=O)N(c4ccc(F)c([100NH:0][100C:0](=O)N5CCCC(n6nc(-c7ccc(Oc8ccc(F)cc8F)cc7)c(C(N)=O)c6N)C5)c4)C3)ccc2CC1C(=O)NC1CCCc2ccccc21)C(C)(C)C

> <Shape>
0.286

> <Color>
0.080

> <Negative vol penalty>
0.000

$$$$

  -OEChem-04042323153D

 89 98  0     1  0  0  0  0  0999 V2000
  -21.5641  -35.9196   26.6576 C   0  0  0  0  0  0  0  0  0  0  0  0
  -21.7241  -35.9182   25.2756 C   0  0  0  0  0  0  0  0  0  0  0  0
  -26.6934  -12.4195   21.5428 C   0  0  0  0  0  0  0  0  0  0  0  0
  -25.7679  -13.9960   19.9632 C   0  0  0  0  0  0  0  0  0  0  0  0
  -22.6583  -35.6704   27.4851 C   0  0  0  0  0  0  0  0  0  0  0  0
  -22.9787  -35.6688   24.7203 C   0  0  0  0  0  0  0  0  0  0  0  0
  -23.9964  -30.1732   20.1757 C   0  0  0  0  0  0  0  0  0  0  0  0
  -29.9675  -25.4823   19.5515 C   0  0  0  0  0  0  0  0  0  0  0  0
  -29.2225  -25.5073   18.3725 C   0  0  0  0  0  0  0  0  0  0  0  0
  -25.4696  -11.7521   21.5937 C   0  0  0  0  0  0  0  0  0  0  0  0
  -24.5441  -13.3285   20.0140 C   0  0  0  0  0  0  0  0  0  0  0  0
  -24.2241  -29.2711   19.1362 C   0  0  0  0  0  0  0  0  0  0  0  0
  -23.1791  -10.5294   18.7019 C   0  0  0  0  0  0  0  0  0  0  0  0
  -22.5301  -10.2759   17.4935 C   0  0  0  0  0  0  0  0  0  0  0  0
  -26.5631  -29.8842   19.1023 C   0  0  0  0  0  0  0  0  0  0  0  0
  -28.7654  -23.1470   18.6113 C   0  0  0  0  0  0  0  0  0  0  0  0
  -20.6329  -11.5718   18.2406 C   0  0  0  0  0  0  0  0  0  0  0  0
  -26.8425  -13.5415   20.7276 C   0  0  0  0  0  0  0  0  0  0  0  0
  -29.3482  -13.7021   20.2766 C   0  0  0  0  0  0  0  0  0  0  0  0
  -23.9248  -35.4083   26.9394 C   0  0  0  0  0  0  0  0  0  0  0  0
  -25.0555  -30.9240   20.6934 C   0  0  0  0  0  0  0  0  0  0  0  0
  -24.0911  -35.4173   25.5413 C   0  0  0  0  0  0  0  0  0  0  0  0
  -26.3435  -30.7803   20.1518 C   0  0  0  0  0  0  0  0  0  0  0  0
  -30.1115  -24.2896   20.2603 C   0  0  0  0  0  0  0  0  0  0  0  0
  -28.6215  -24.3397   17.9024 C   0  0  0  0  0  0  0  0  0  0  0  0
  -29.5104  -23.1219   19.7902 C   0  0  0  0  0  0  0  0  0  0  0  0
  -24.3950  -12.2065   20.8293 C   0  0  0  0  0  0  0  0  0  0  0  0
  -25.5043  -29.1272   18.6007 C   0  0  0  0  0  0  0  0  0  0  0  0
  -22.5549  -11.3040   19.6797 C   0  0  0  0  0  0  0  0  0  0  0  0
  -21.2570  -10.7972   17.2628 C   0  0  0  0  0  0  0  0  0  0  0  0
  -21.2818  -11.8252   19.4490 C   0  0  0  0  0  0  0  0  0  0  0  0
  -28.1062  -14.2317   20.6750 C   0  0  0  0  0  0  0  0  0  0  0  0
  -30.2255  -14.7512   20.4035 C   0  0  0  0  0  0  0  0  0  0  0  0
  -26.7645  -23.5023   16.4577 C   0  0  0  0  0  0  0  0  0  0  0  0
  -27.3692  -26.5487   15.6121 C   0  0  0  0  0  0  0  0  0  0  0  0
  -29.6792  -12.3800   19.8314 C   0  0  0  0  0  0  0  0  0  0  0  0
  -26.1874  -33.4836   23.1920 C   0  0  0  0  0  0  0  0  0  0  0  0
  -28.3736  -31.3355   23.0643 C   0  0  0  0  0  0  0  0  0  0  0  0
  -30.9265  -29.1714   23.7250 C   0  0  0  0  0  0  0  0  0  0  0  0
  -29.1093  -20.6547   20.1593 C   0  0  0  0  0  0  0  0  0  0  0  0
  -25.0876  -35.1913   27.8752 C   0  0  0  0  0  0  0  0  0  0  0  0
  -24.8445  -31.9523   21.7712 C   0  0  0  0  0  0  0  0  0  0  0  0
  -27.4457  -31.6340   20.7169 C   0  0  0  0  0  0  0  0  0  0  0  0
  -25.9598  -23.8165   15.2136 C   0  0  0  0  0  0  0  0  0  0  0  0
  -28.2405  -25.3129   15.6347 C   0  0  0  0  0  0  0  0  0  0  0  0
  -26.3049  -34.5656   27.1992 C   0  0  0  0  0  0  0  0  0  0  0  0
  -30.1546  -18.6545   23.2626 C   0  0  0  0  0  0  0  0  0  0  0  0
  -26.6030  -35.2694   25.8791 C   0  0  0  0  0  0  0  0  0  0  0  0
  -30.5093  -17.3254   22.5999 C   0  0  0  0  0  0  0  0  0  0  0  0
  -25.2276  -25.1392   15.3705 C   0  0  0  0  0  0  0  0  0  0  0  0
  -30.2362  -19.8245   22.2903 C   0  0  0  0  0  0  0  0  0  0  0  0
  -28.9115  -18.2719   20.8445 C   0  0  0  0  0  0  0  0  0  0  0  0
  -25.4309  -35.1265   24.9007 C   0  0  1  0  0  0  0  0  0  0  0  0
  -26.0329  -32.0601   22.7434 C   0  0  1  0  0  0  0  0  0  0  0  0
  -29.9748  -17.2080   21.1588 C   0  0  2  0  0  0  0  0  0  0  0  0
  -30.9152  -24.2923   21.5201 C   0  0  0  0  0  0  0  0  0  0  0  0
  -33.2885  -29.1109   24.5705 C   0  0  0  0  0  0  0  0  0  0  0  0
  -29.3565  -32.4104   20.3844 C   0  0  0  0  0  0  0  0  0  0  0  0
  -31.6102  -31.4537   20.9077 C   0  0  0  0  0  0  0  0  0  0  0  0
  -30.6395  -33.2263   22.3699 C   0  0  0  0  0  0  0  0  0  0  0  0
  -30.1857  -27.4485   26.0145 C   0  0  0  0  0  0  0  0  0  0  0  0
  -25.1739  -27.5963   15.3384 C   0  0  0  0  0  0  0  0  0  0  0  0
  -24.6322  -27.9943   16.6998 C   0  0  0  0  0  0  0  0  0  1  0  0
  -29.6752  -30.8905   22.4470 C   0  0  1  0  0  0  0  0  0  0  0  0
  -31.8177  -29.0063   24.9428 C   0  0  2  0  0  0  0  0  0  0  0  0
  -30.2973  -31.9785   21.5269 C   0  0  0  0  0  0  0  0  0  0  0  0
  -28.1835  -15.5174   21.0288 N   0  0  0  0  0  0  0  0  0  0  0  0
  -29.4846  -15.8044   20.8532 N   0  0  0  0  0  0  0  0  0  0  0  0
  -27.8491  -24.3662   16.6798 N   0  0  0  0  0  0  0  0  0  0  0  0
  -25.9983  -26.3920   15.4127 N   0  0  0  0  0  0  0  0  0  0  0  0
  -27.3418  -31.6825   22.1837 N   0  0  0  0  0  0  0  0  0  0  0  0
  -29.4292  -19.6250   21.0778 N   0  0  0  0  0  0  0  0  0  0  0  0
  -31.5507  -14.8664   20.1734 N   0  0  0  0  0  0  0  0  0  0  0  0
  -29.6026  -12.0978   18.4607 N   0  0  0  0  0  0  0  0  0  0  0  0
  -29.6454  -21.9004   20.4962 N   0  0  0  0  0  0  0  0  0  0  0  0
  -25.4306  -33.8092   24.3014 N   0  0  0  0  0  0  0  0  0  0  0  0
  -30.5333  -30.4819   23.5538 N   0  0  0  0  0  0  0  0  0  0  0  0
  -31.5869  -27.6778   25.5773 N   0  3  0  0  0  0  0  0  0  0  0  0
  -26.3726  -22.6002   17.1984 O   0  0  0  0  0  0  0  0  0  0  0  0
  -27.9263  -27.6512   15.6686 O   0  0  0  0  0  0  0  0  0  0  0  0
  -30.0166  -11.4711   20.6274 O   0  0  0  0  0  0  0  0  0  0  0  0
  -26.9388  -34.2323   22.5784 O   0  0  0  0  0  0  0  0  0  0  0  0
  -28.2734  -31.3806   24.2937 O   0  0  0  0  0  0  0  0  0  0  0  0
  -30.6138  -28.2325   22.9963 O   0  0  0  0  0  0  0  0  0  0  0  0
  -28.4280  -20.4381   19.1548 O   0  0  0  0  0  0  0  0  0  0  0  0
  -23.2008  -11.5554   20.8785 O   0  0  0  0  0  0  0  0  0  0  0  0
  -25.7205  -28.2414   17.5891 O   0  0  0  0  0  0  0  0  0  1  0  0
  -20.6346  -10.5550   16.1018 F   0  0  0  0  0  0  0  0  0  0  0  0
  -20.6776  -12.5711   20.3841 F   0  0  0  0  0  0  0  0  0  0  0  0
  1  2  1  0  0  0  0
  1  5  2  0  0  0  0
  2  6  2  0  0  0  0
  3 10  2  0  0  0  0
  3 18  1  0  0  0  0
  4 11  1  0  0  0  0
  4 18  2  0  0  0  0
  5 20  1  0  0  0  0
  6 22  1  0  0  0  0
  7 12  2  0  0  0  0
  7 21  1  0  0  0  0
  8  9  2  0  0  0  0
  8 24  1  0  0  0  0
  9 25  1  0  0  0  0
 10 27  1  0  0  0  0
 11 27  2  0  0  0  0
 12 28  1  0  0  0  0
 13 14  2  0  0  0  0
 13 29  1  0  0  0  0
 14 30  1  0  0  0  0
 15 23  1  0  0  0  0
 15 28  2  0  0  0  0
 16 25  2  0  0  0  0
 16 26  1  0  0  0  0
 17 30  2  0  0  0  0
 17 31  1  0  0  0  0
 18 32  1  0  0  0  0
 19 32  1  0  0  0  0
 19 33  2  0  0  0  0
 19 36  1  0  0  0  0
 20 22  2  0  0  0  0
 20 41  1  0  0  0  0
 21 23  2  0  0  0  0
 21 42  1  0  0  0  0
 22 53  1  0  0  0  0
 23 43  1  0  0  0  0
 24 26  2  0  0  0  0
 24 56  1  0  0  0  0
 25 69  1  0  0  0  0
 26 75  1  0  0  0  0
 27 86  1  0  0  0  0
 28 87  1  0  0  0  0
 29 31  2  0  0  0  0
 29 86  1  0  0  0  0
 30 88  1  0  0  0  0
 31 89  1  0  0  0  0
 32 67  2  0  0  0  0
 33 68  1  0  0  0  0
 33 73  1  0  0  0  0
 34 44  1  0  0  0  0
 34 69  1  0  0  0  0
 34 79  2  0  0  0  0
 35 45  1  0  0  0  0
 35 70  1  0  0  0  0
 35 80  2  0  0  0  0
 36 74  1  0  0  0  0
 36 81  2  0  0  0  0
 37 54  1  0  0  0  0
 37 76  1  0  0  0  0
 37 82  2  0  0  0  0
 38 64  1  0  0  0  0
 38 71  1  0  0  0  0
 38 83  2  0  0  0  0
 39 65  1  0  0  0  0
 39 77  1  0  0  0  0
 39 84  2  0  0  0  0
 40 72  1  0  0  0  0
 40 75  1  0  0  0  0
 40 85  2  0  0  0  0
 41 46  1  0  0  0  0
 42 54  1  0  0  0  0
 43 71  1  0  0  0  0
 44 50  1  0  0  0  0
 45 69  1  0  0  0  0
 46 48  1  0  0  0  0
 47 49  1  0  0  0  0
 47 51  1  0  0  0  0
 48 53  1  0  0  0  0
 49 55  1  0  0  0  0
 50 70  1  0  0  0  0
 51 72  1  0  0  0  0
 52 55  1  0  0  0  0
 52 72  1  0  0  0  0
 53 76  1  0  0  0  0
 54 71  1  0  0  0  0
 55 68  1  0  0  0  0
 57 65  1  0  0  0  0
 58 66  1  0  0  0  0
 59 66  1  0  0  0  0
 60 66  1  0  0  0  0
 61 78  1  0  0  0  0
 62 63  1  0  0  0  0
 62 70  1  0  0  0  0
 63 87  1  0  0  0  0
 64 66  1  0  0  0  0
 64 77  1  0  0  0  0
 65 78  1  0  0  0  0
 67 68  1  0  0  0  0
M  CHG  1  78   1
M  ISO  4  40 100  63 101  75 100  87 101
M  END
> <Batch ID>
0064

> <Smiles>
CNC(C)C(=O)NC(C(=O)N1Cc2cc([101O:1][101CH2:1]CN3CCC(=O)N(c4ccc(C)c([100NH:0][100C:0](=O)N5CCCC(n6nc(-c7ccc(Oc8ccc(F)cc8F)cc7)c(C(N)=O)c6N)C5)c4)CC3=O)ccc2CC1C(=O)NC1CCCc2ccccc21)C(C)(C)C

> <Shape>
0.242

> <Color>
0.068

> <Negative vol penalty>
0.000

$$$$

  -OEChem-04042323153D

 86 95  0     1  0  0  0  0  0999 V2000
  -29.0898  -11.2414   20.1189 C   0  0  0  0  0  0  0  0  0  0  0  0
  -29.1739  -12.5872   19.7768 C   0  0  0  0  0  0  0  0  0  0  0  0
  -19.4368  -29.2071   22.8592 C   0  0  0  0  0  0  0  0  0  0  0  0
  -20.7377  -27.1908   22.5782 C   0  0  0  0  0  0  0  0  0  0  0  0
  -27.8488  -10.6702   20.3972 C   0  0  0  0  0  0  0  0  0  0  0  0
  -28.0166  -13.3625   19.7117 C   0  0  0  0  0  0  0  0  0  0  0  0
  -28.5728  -17.8743   21.9431 C   0  0  0  0  0  0  0  0  0  0  0  0
  -29.5423  -29.6155   19.1685 C   0  0  0  0  0  0  0  0  0  0  0  0
  -30.7845  -28.9907   19.2785 C   0  0  0  0  0  0  0  0  0  0  0  0
  -18.2652  -28.4810   22.6455 C   0  0  0  0  0  0  0  0  0  0  0  0
  -19.5661  -26.4646   22.3645 C   0  0  0  0  0  0  0  0  0  0  0  0
  -29.2617  -18.8558   21.2318 C   0  0  0  0  0  0  0  0  0  0  0  0
  -16.8934  -24.0139   22.1024 C   0  0  0  0  0  0  0  0  0  0  0  0
  -16.7598  -22.7896   22.7571 C   0  0  0  0  0  0  0  0  0  0  0  0
  -27.1620  -19.8497   20.5816 C   0  0  0  0  0  0  0  0  0  0  0  0
  -28.4441  -27.5124   19.6246 C   0  0  0  0  0  0  0  0  0  0  0  0
  -16.9496  -23.9092   24.8896 C   0  0  0  0  0  0  0  0  0  0  0  0
  -20.6731  -28.5620   22.8255 C   0  0  0  0  0  0  0  0  0  0  0  0
  -22.5227  -29.5522   24.2767 C   0  0  0  0  0  0  0  0  0  0  0  0
  -26.6768  -11.4412   20.3450 C   0  0  0  0  0  0  0  0  0  0  0  0
  -27.1708  -17.8668   21.9700 C   0  0  0  0  0  0  0  0  0  0  0  0
  -26.7586  -12.8008   19.9883 C   0  0  0  0  0  0  0  0  0  0  0  0
  -26.4578  -18.8685   21.2961 C   0  0  0  0  0  0  0  0  0  0  0  0
  -29.6863  -26.8876   19.7346 C   0  0  0  0  0  0  0  0  0  0  0  0
  -28.3720  -28.8763   19.3416 C   0  0  0  0  0  0  0  0  0  0  0  0
  -30.8565  -27.6267   19.5616 C   0  0  0  0  0  0  0  0  0  0  0  0
  -18.3298  -27.1098   22.3982 C   0  0  0  0  0  0  0  0  0  0  0  0
  -28.5562  -19.8420   20.5485 C   0  0  0  0  0  0  0  0  0  0  0  0
  -17.0551  -25.1860   22.8413 C   0  0  0  0  0  0  0  0  0  0  0  0
  -16.7879  -22.7372   24.1507 C   0  0  0  0  0  0  0  0  0  0  0  0
  -17.0832  -25.1336   24.2349 C   0  0  0  0  0  0  0  0  0  0  0  0
  -21.8837  -29.3117   23.0456 C   0  0  0  0  0  0  0  0  0  0  0  0
  -23.6232  -30.3066   23.9508 C   0  0  0  0  0  0  0  0  0  0  0  0
  -30.2272  -23.5032   21.0023 C   0  0  0  0  0  0  0  0  0  0  0  0
  -30.3503  -24.9907   21.1365 C   0  0  0  0  0  0  0  0  0  0  0  0
  -22.1545  -29.1311   25.5969 C   0  0  0  0  0  0  0  0  0  0  0  0
  -24.9197  -15.8386   21.0094 C   0  0  0  0  0  0  0  0  0  0  0  0
  -22.9414  -17.9448   22.4835 C   0  0  0  0  0  0  0  0  0  0  0  0
  -22.4043  -21.1283   23.5896 C   0  0  0  0  0  0  0  0  0  0  0  0
  -26.8627  -30.8569   18.9600 C   0  0  0  0  0  0  0  0  0  0  0  0
  -25.3529  -10.7683   20.6079 C   0  0  0  0  0  0  0  0  0  0  0  0
  -26.4431  -16.8167   22.7639 C   0  0  0  0  0  0  0  0  0  0  0  0
  -24.9525  -18.9167   21.3104 C   0  0  0  0  0  0  0  0  0  0  0  0
  -24.2153  -11.7485   20.8822 C   0  0  0  0  0  0  0  0  0  0  0  0
  -25.1698  -33.4628   20.6979 C   0  0  0  0  0  0  0  0  0  0  0  0
  -24.2243  -12.8774   19.8564 C   0  0  0  0  0  0  0  0  0  0  0  0
  -24.1974  -32.7157   21.6136 C   0  0  0  0  0  0  0  0  0  0  0  0
  -25.3225  -32.7684   19.3458 C   0  0  0  0  0  0  0  0  0  0  0  0
  -29.1406  -24.4983   19.1731 C   0  0  0  0  0  0  0  0  0  0  0  0
  -24.7021  -30.5974   20.3311 C   0  0  0  0  0  0  0  0  0  0  0  0
  -25.5285  -13.6805   19.9313 C   0  0  1  0  0  0  0  0  0  0  0  0
  -29.6700  -23.1460   19.6581 C   0  0  2  0  0  0  0  0  0  0  0  0
  -25.0057  -16.6053   22.2988 C   0  0  1  0  0  0  0  0  0  0  0  0
  -24.5653  -31.2234   21.7286 C   0  0  2  0  0  0  0  0  0  0  0  0
  -20.6778  -22.5558   24.7206 C   0  0  0  0  0  0  0  0  0  0  0  0
  -21.3560  -18.0857   19.8803 C   0  0  0  0  0  0  0  0  0  0  0  0
  -20.2690  -20.1722   20.7365 C   0  0  0  0  0  0  0  0  0  0  0  0
  -19.9564  -18.0161   21.9516 C   0  0  0  0  0  0  0  0  0  0  0  0
  -24.1971  -21.6876   25.8770 C   0  0  0  0  0  0  0  0  0  0  0  0
  -28.6002  -22.0783   19.7403 C   0  0  0  0  0  0  0  0  0  1  0  0
  -22.1948  -19.1866   22.0598 C   0  0  1  0  0  0  0  0  0  0  0  0
  -21.8919  -21.6609   24.9156 C   0  0  2  0  0  0  0  0  0  0  0  0
  -20.9724  -18.8634   21.1550 C   0  0  0  0  0  0  0  0  0  0  0  0
  -22.5248  -29.8684   22.0145 N   0  0  0  0  0  0  0  0  0  0  0  0
  -23.5780  -30.4663   22.5970 N   0  0  0  0  0  0  0  0  0  0  0  0
  -29.7337  -25.5275   20.0179 N   0  0  0  0  0  0  0  0  0  0  0  0
  -24.2863  -17.8645   22.0956 N   0  0  0  0  0  0  0  0  0  0  0  0
  -25.6755  -31.3595   19.5333 N   0  0  0  0  0  0  0  0  0  0  0  0
  -32.1255  -27.0140   19.6664 N   0  0  0  0  0  0  0  0  0  0  0  0
  -24.6154  -30.8425   24.6930 N   0  0  0  0  0  0  0  0  0  0  0  0
  -20.9938  -28.3613   25.7533 N   0  0  0  0  0  0  0  0  0  0  0  0
  -27.1103  -29.5120   19.2329 N   0  0  0  0  0  0  0  0  0  0  0  0
  -25.5004  -14.5858   21.0600 N   0  0  0  0  0  0  0  0  0  0  0  0
  -21.8577  -19.8990   23.2875 N   0  0  0  0  0  0  0  0  0  0  0  0
  -22.9531  -22.4514   25.6011 N   0  3  0  0  0  0  0  0  0  0  0  0
  -30.5823  -22.7572   21.8925 O   0  0  0  0  0  0  0  0  0  0  0  0
  -30.8995  -25.5097   22.0858 O   0  0  0  0  0  0  0  0  0  0  0  0
  -22.8257  -29.4426   26.6098 O   0  0  0  0  0  0  0  0  0  0  0  0
  -24.3660  -16.3456   20.0408 O   0  0  0  0  0  0  0  0  0  0  0  0
  -22.3549  -17.0812   23.1407 O   0  0  0  0  0  0  0  0  0  0  0  0
  -23.2061  -21.7431   22.8899 O   0  0  0  0  0  0  0  0  0  0  0  0
  -27.6188  -31.5742   18.2999 O   0  0  0  0  0  0  0  0  0  0  0  0
  -17.1868  -26.4008   22.1898 O   0  0  0  0  0  0  0  0  0  0  0  0
  -29.2261  -20.8008   19.8530 O   0  0  0  0  0  0  0  0  0  1  0  0
  -16.6581  -21.5615   24.7793 F   0  0  0  0  0  0  0  0  0  0  0  0
  -17.2370  -26.2563   24.9501 F   0  0  0  0  0  0  0  0  0  0  0  0
  1  2  1  0  0  0  0
  1  5  2  0  0  0  0
  2  6  2  0  0  0  0
  3 10  2  0  0  0  0
  3 18  1  0  0  0  0
  4 11  1  0  0  0  0
  4 18  2  0  0  0  0
  5 20  1  0  0  0  0
  6 22  1  0  0  0  0
  7 12  2  0  0  0  0
  7 21  1  0  0  0  0
  8  9  2  0  0  0  0
  8 25  1  0  0  0  0
  9 26  1  0  0  0  0
 10 27  1  0  0  0  0
 11 27  2  0  0  0  0
 12 28  1  0  0  0  0
 13 14  2  0  0  0  0
 13 29  1  0  0  0  0
 14 30  1  0  0  0  0
 15 23  1  0  0  0  0
 15 28  2  0  0  0  0
 16 24  1  0  0  0  0
 16 25  2  0  0  0  0
 17 30  2  0  0  0  0
 17 31  1  0  0  0  0
 18 32  1  0  0  0  0
 19 32  1  0  0  0  0
 19 33  2  0  0  0  0
 19 36  1  0  0  0  0
 20 22  2  0  0  0  0
 20 41  1  0  0  0  0
 21 23  2  0  0  0  0
 21 42  1  0  0  0  0
 22 51  1  0  0  0  0
 23 43  1  0  0  0  0
 24 26  2  0  0  0  0
 24 66  1  0  0  0  0
 25 72  1  0  0  0  0
 26 69  1  0  0  0  0
 27 83  1  0  0  0  0
 28 84  1  0  0  0  0
 29 31  2  0  0  0  0
 29 83  1  0  0  0  0
 30 85  1  0  0  0  0
 31 86  1  0  0  0  0
 32 64  2  0  0  0  0
 33 65  1  0  0  0  0
 33 70  1  0  0  0  0
 34 35  1  0  0  0  0
 34 52  1  0  0  0  0
 34 76  2  0  0  0  0
 35 66  1  0  0  0  0
 35 77  2  0  0  0  0
 36 71  1  0  0  0  0
 36 78  2  0  0  0  0
 37 53  1  0  0  0  0
 37 73  1  0  0  0  0
 37 79  2  0  0  0  0
 38 61  1  0  0  0  0
 38 67  1  0  0  0  0
 38 80  2  0  0  0  0
 39 62  1  0  0  0  0
 39 74  1  0  0  0  0
 39 81  2  0  0  0  0
 40 68  1  0  0  0  0
 40 72  1  0  0  0  0
 40 82  2  0  0  0  0
 41 44  1  0  0  0  0
 42 53  1  0  0  0  0
 43 67  1  0  0  0  0
 44 46  1  0  0  0  0
 45 47  1  0  0  0  0
 45 48  1  0  0  0  0
 46 51  1  0  0  0  0
 47 54  1  0  0  0  0
 48 68  1  0  0  0  0
 49 52  1  0  0  0  0
 49 66  1  0  0  0  0
 50 54  1  0  0  0  0
 50 68  1  0  0  0  0
 51 73  1  0  0  0  0
 52 60  1  0  0  0  0
 53 67  1  0  0  0  0
 54 65  1  0  0  0  0
 55 62  1  0  0  0  0
 56 63  1  0  0  0  0
 57 63  1  0  0  0  0
 58 63  1  0  0  0  0
 59 75  1  0  0  0  0
 60 84  1  0  0  0  0
 61 63  1  0  0  0  0
 61 74  1  0  0  0  0
 62 75  1  0  0  0  0
 64 65  1  0  0  0  0
M  CHG  1  75   1
M  ISO  4  40 100  60 101  72 100  84 101
M  END
> <Batch ID>
0064

> <Smiles>
CNC(C)C(=O)NC(C(=O)N1Cc2cc([101O:1][101CH2:1]C3CN(c4cc([100NH:0][100C:0](=O)N5CCCC(n6nc(-c7ccc(Oc8ccc(F)cc8F)cc7)c(C(N)=O)c6N)C5)ccc4N)C(=O)C3=O)ccc2CC1C(=O)NC1CCCc2ccccc21)C(C)(C)C

> <Shape>
0.241

> <Color>
0.058

> <Negative vol penalty>
0.000

$$$$

  -OEChem-04042323153D

 86 94  0     1  0  0  0  0  0999 V2000
  -20.5517  -25.3611   25.5656 C   0  0  0  0  0  0  0  0  0  0  0  0
  -21.6025  -25.1829   24.6714 C   0  0  0  0  0  0  0  0  0  0  0  0
  -23.3549  -10.4010   22.3114 C   0  0  0  0  0  0  0  0  0  0  0  0
  -23.5216  -10.0693   19.9241 C   0  0  0  0  0  0  0  0  0  0  0  0
  -19.4808  -26.1865   25.2255 C   0  0  0  0  0  0  0  0  0  0  0  0
  -21.5824  -25.8293   23.4360 C   0  0  0  0  0  0  0  0  0  0  0  0
  -26.0412  -27.9270   22.2682 C   0  0  0  0  0  0  0  0  0  0  0  0
  -22.5802   -9.2461   22.4178 C   0  0  0  0  0  0  0  0  0  0  0  0
  -22.7469   -8.9142   20.0305 C   0  0  0  0  0  0  0  0  0  0  0  0
  -27.0414  -27.0767   21.7990 C   0  0  0  0  0  0  0  0  0  0  0  0
  -23.0856   -5.9031   22.4643 C   0  0  0  0  0  0  0  0  0  0  0  0
  -23.3904   -5.0105   23.4919 C   0  0  0  0  0  0  0  0  0  0  0  0
  -30.2967  -18.3981   17.2119 C   0  0  0  0  0  0  0  0  0  0  0  0
  -26.5484  -27.7550   19.5371 C   0  0  0  0  0  0  0  0  0  0  0  0
  -28.0309  -19.7523   18.1149 C   0  0  0  0  0  0  0  0  0  0  0  0
  -21.1674   -5.2916   24.3954 C   0  0  0  0  0  0  0  0  0  0  0  0
  -23.8256  -10.8127   21.0645 C   0  0  0  0  0  0  0  0  0  0  0  0
  -30.3897  -19.7368   17.5925 C   0  0  0  0  0  0  0  0  0  0  0  0
  -26.0275  -12.1006   21.0383 C   0  0  0  0  0  0  0  0  0  0  0  0
  -19.4522  -26.8510   23.9893 C   0  0  0  0  0  0  0  0  0  0  0  0
  -25.2784  -28.6908   21.3731 C   0  0  0  0  0  0  0  0  0  0  0  0
  -20.5094  -26.6633   23.0785 C   0  0  0  0  0  0  0  0  0  0  0  0
  -25.5408  -28.6161   19.9977 C   0  0  0  0  0  0  0  0  0  0  0  0
  -29.2569  -20.4138   18.0441 C   0  0  0  0  0  0  0  0  0  0  0  0
  -27.9378  -18.4136   17.7341 C   0  0  0  0  0  0  0  0  0  0  0  0
  -22.2762   -8.5026   21.2774 C   0  0  0  0  0  0  0  0  0  0  0  0
  -27.2933  -26.9884   20.4330 C   0  0  0  0  0  0  0  0  0  0  0  0
  -21.8217   -6.4900   22.4022 C   0  0  0  0  0  0  0  0  0  0  0  0
  -22.4313   -4.7048   24.4574 C   0  0  0  0  0  0  0  0  0  0  0  0
  -29.0707  -17.7365   17.2826 C   0  0  0  0  0  0  0  0  0  0  0  0
  -20.8626   -6.1842   23.3678 C   0  0  0  0  0  0  0  0  0  0  0  0
  -24.6255  -12.0060   20.9538 C   0  0  0  0  0  0  0  0  0  0  0  0
  -26.2923  -13.4377   20.8701 C   0  0  0  0  0  0  0  0  0  0  0  0
  -28.7788  -23.9513   19.2030 C   0  0  0  0  0  0  0  0  0  0  0  0
  -27.9262  -24.8721   19.6640 C   0  0  0  0  0  0  0  0  0  1  0  0
  -31.6743  -20.4020   17.5092 C   0  0  0  0  0  0  0  0  0  0  0  0
  -27.0033  -11.0716   21.2499 C   0  0  0  0  0  0  0  0  0  0  0  0
  -28.2942  -22.5734   18.8984 C   0  0  0  0  0  0  0  0  0  0  0  0
  -22.1949  -28.8425   20.6161 C   0  0  0  0  0  0  0  0  0  0  0  0
  -23.1591  -31.3697   18.8256 C   0  0  0  0  0  0  0  0  0  0  0  0
  -25.6902  -32.9481   17.1676 C   0  0  0  0  0  0  0  0  0  0  0  0
  -25.4721  -18.2712   18.2303 C   0  0  0  0  0  0  0  0  0  0  0  0
  -18.2506  -27.6957   23.6468 C   0  0  0  0  0  0  0  0  0  0  0  0
  -24.2210  -29.6233   21.8973 C   0  0  0  0  0  0  0  0  0  0  0  0
  -24.7637  -29.4303   18.9968 C   0  0  0  0  0  0  0  0  0  0  0  0
  -18.4854  -28.6405   22.4710 C   0  0  0  0  0  0  0  0  0  0  0  0
  -23.1822  -17.4311   20.8241 C   0  0  0  0  0  0  0  0  0  0  0  0
  -19.1613  -27.9023   21.3198 C   0  0  0  0  0  0  0  0  0  0  0  0
  -23.4688  -15.9526   21.0960 C   0  0  0  0  0  0  0  0  0  0  0  0
  -23.3058  -17.7691   19.3394 C   0  0  0  0  0  0  0  0  0  0  0  0
  -24.8599  -15.8904   18.9870 C   0  0  0  0  0  0  0  0  0  0  0  0
  -20.5357  -27.3670   21.7390 C   0  0  1  0  0  0  0  0  0  0  0  0
  -23.1599  -29.9687   20.8570 C   0  0  1  0  0  0  0  0  0  0  0  0
  -24.8112  -15.5158   20.4773 C   0  0  2  0  0  0  0  0  0  0  0  0
  -26.1646  -34.9759   15.7675 C   0  0  0  0  0  0  0  0  0  0  0  0
  -21.8036  -30.0361   16.4393 C   0  0  0  0  0  0  0  0  0  0  0  0
  -23.0931  -31.5700   14.9384 C   0  0  0  0  0  0  0  0  0  0  0  0
  -21.4683  -32.5104   16.5810 C   0  0  0  0  0  0  0  0  0  0  0  0
  -27.6494  -33.9863   19.1279 C   0  0  0  0  0  0  0  0  0  0  0  0
  -23.6550  -31.5507   17.4112 C   0  0  1  0  0  0  0  0  0  0  0  0
  -26.1495  -34.3949   17.1728 C   0  0  2  0  0  0  0  0  0  0  0  0
  -22.5185  -31.3999   16.3609 C   0  0  0  0  0  0  0  0  0  0  0  0
  -24.0404  -13.1890   20.7480 N   0  0  0  0  0  0  0  0  0  0  0  0
  -25.0799  -14.0395   20.7019 N   0  0  0  0  0  0  0  0  0  0  0  0
  -23.7360  -30.3226   19.5581 N   0  0  0  0  0  0  0  0  0  0  0  0
  -24.6041  -17.3300   18.8231 N   0  0  0  0  0  0  0  0  0  0  0  0
  -27.4415  -14.1458   20.8512 N   0  0  0  0  0  0  0  0  0  0  0  0
  -32.5141  -20.3885   18.5561 N   0  0  0  0  0  0  0  0  0  0  0  0
  -26.5593   -9.7511   21.4032 N   0  0  0  0  0  0  0  0  0  0  0  0
  -29.3299  -21.7739   18.4334 N   0  0  0  0  0  0  0  0  0  0  0  0
  -26.6912  -17.7438   17.8059 N   0  0  0  0  0  0  0  0  0  0  0  0
  -21.5130  -28.4344   21.7466 N   0  0  0  0  0  0  0  0  0  0  0  0
  -24.3316  -32.8427   17.3781 N   0  0  0  0  0  0  0  0  0  0  0  0
  -32.0377  -21.0366   16.3837 N   0  3  0  0  0  0  0  0  0  0  0  0
  -27.5238  -34.5001   17.7396 N   0  3  0  0  0  0  0  0  0  0  0  0
  -28.2313  -11.3182   21.3178 O   0  0  0  0  0  0  0  0  0  0  0  0
  -27.1205  -22.2621   19.0627 O   0  0  0  0  0  0  0  0  0  0  0  0
  -22.0766  -28.3791   19.4879 O   0  0  0  0  0  0  0  0  0  0  0  0
  -22.2970  -32.1338   19.2666 O   0  0  0  0  0  0  0  0  0  0  0  0
  -26.4591  -32.0058   16.9905 O   0  0  0  0  0  0  0  0  0  0  0  0
  -25.1682  -19.4629   18.1328 O   0  0  0  0  0  0  0  0  0  0  0  0
  -21.5204   -7.3754   21.3809 O   0  0  0  0  0  0  0  0  0  0  0  0
  -28.2686  -26.1588   19.9722 O   0  0  0  0  0  0  0  0  0  1  0  0
  -22.7237   -3.8464   25.4433 F   0  0  0  0  0  0  0  0  0  0  0  0
  -28.9931  -16.4500   16.9138 F   0  0  0  0  0  0  0  0  0  0  0  0
  -19.6463   -6.7440   23.3127 F   0  0  0  0  0  0  0  0  0  0  0  0
  1  2  1  0  0  0  0
  1  5  2  0  0  0  0
  2  6  2  0  0  0  0
  3  8  2  0  0  0  0
  3 17  1  0  0  0  0
  4  9  1  0  0  0  0
  4 17  2  0  0  0  0
  5 20  1  0  0  0  0
  6 22  1  0  0  0  0
  7 10  2  0  0  0  0
  7 21  1  0  0  0  0
  8 26  1  0  0  0  0
  9 26  2  0  0  0  0
 10 27  1  0  0  0  0
 11 12  2  0  0  0  0
 11 28  1  0  0  0  0
 12 29  1  0  0  0  0
 13 18  1  0  0  0  0
 13 30  2  0  0  0  0
 14 23  1  0  0  0  0
 14 27  2  0  0  0  0
 15 24  1  0  0  0  0
 15 25  2  0  0  0  0
 16 29  2  0  0  0  0
 16 31  1  0  0  0  0
 17 32  1  0  0  0  0
 18 24  2  0  0  0  0
 18 36  1  0  0  0  0
 19 32  1  0  0  0  0
 19 33  2  0  0  0  0
 19 37  1  0  0  0  0
 20 22  2  0  0  0  0
 20 43  1  0  0  0  0
 21 23  2  0  0  0  0
 21 44  1  0  0  0  0
 22 52  1  0  0  0  0
 23 45  1  0  0  0  0
 24 70  1  0  0  0  0
 25 30  1  0  0  0  0
 25 71  1  0  0  0  0
 26 82  1  0  0  0  0
 27 83  1  0  0  0  0
 28 31  2  0  0  0  0
 28 82  1  0  0  0  0
 29 84  1  0  0  0  0
 30 85  1  0  0  0  0
 31 86  1  0  0  0  0
 32 63  2  0  0  0  0
 33 64  1  0  0  0  0
 33 67  1  0  0  0  0
 34 35  2  0  0  0  0
 34 38  1  0  0  0  0
 35 83  1  0  0  0  0
 36 68  1  0  0  0  0
 36 74  2  0  0  0  0
 37 69  1  0  0  0  0
 37 76  2  0  0  0  0
 38 70  1  0  0  0  0
 38 77  2  0  0  0  0
 39 53  1  0  0  0  0
 39 72  1  0  0  0  0
 39 78  2  0  0  0  0
 40 60  1  0  0  0  0
 40 65  1  0  0  0  0
 40 79  2  0  0  0  0
 41 61  1  0  0  0  0
 41 73  1  0  0  0  0
 41 80  2  0  0  0  0
 42 66  1  0  0  0  0
 42 71  1  0  0  0  0
 42 81  2  0  0  0  0
 43 46  1  0  0  0  0
 44 53  1  0  0  0  0
 45 65  1  0  0  0  0
 46 48  1  0  0  0  0
 47 49  1  0  0  0  0
 47 50  1  0  0  0  0
 48 52  1  0  0  0  0
 49 54  1  0  0  0  0
 50 66  1  0  0  0  0
 51 54  1  0  0  0  0
 51 66  1  0  0  0  0
 52 72  1  0  0  0  0
 53 65  1  0  0  0  0
 54 64  1  0  0  0  0
 55 61  1  0  0  0  0
 56 62  1  0  0  0  0
 57 62  1  0  0  0  0
 58 62  1  0  0  0  0
 59 75  1  0  0  0  0
 60 62  1  0  0  0  0
 60 73  1  0  0  0  0
 61 75  1  0  0  0  0
 63 64  1  0  0  0  0
M  CHG  2  74   1  75   1
M  ISO  4  35 101  42 100  71 100  83 101
M  END
> <Batch ID>
0064

> <Smiles>
CNC(C)C(=O)NC(C(=O)N1Cc2cc([101O:1][101CH:1]=CC(=O)Nc3cc([100NH:0][100C:0](=O)N4CCCC(n5nc(-c6ccc(Oc7ccc(F)cc7F)cc6)c(C(N)=O)c5N)C4)c(F)cc3C(=N)N)ccc2CC1C(=O)NC1CCCc2ccccc21)C(C)(C)C

> <Shape>
0.237

> <Color>
0.113

> <Negative vol penalty>
0.000

$$$$

  -OEChem-04042323153D

 86 95  0     1  0  0  0  0  0999 V2000
  -22.1135  -11.2752   19.5931 C   0  0  0  0  0  0  0  0  0  0  0  0
  -21.7027  -12.5474   19.9780 C   0  0  0  0  0  0  0  0  0  0  0  0
  -30.3089  -29.3199   20.2573 C   0  0  0  0  0  0  0  0  0  0  0  0
  -29.4066  -27.3359   21.2996 C   0  0  0  0  0  0  0  0  0  0  0  0
  -23.4482  -10.9003   19.7417 C   0  0  0  0  0  0  0  0  0  0  0  0
  -22.6261  -13.4451   20.5127 C   0  0  0  0  0  0  0  0  0  0  0  0
  -22.1669  -18.0963   18.5633 C   0  0  0  0  0  0  0  0  0  0  0  0
  -31.5860  -28.9692   20.6953 C   0  0  0  0  0  0  0  0  0  0  0  0
  -30.6836  -26.9851   21.7375 C   0  0  0  0  0  0  0  0  0  0  0  0
  -21.1270  -18.8894   19.0464 C   0  0  0  0  0  0  0  0  0  0  0  0
  -33.7605  -25.3804   22.8221 C   0  0  0  0  0  0  0  0  0  0  0  0
  -34.1588  -24.0529   22.6654 C   0  0  0  0  0  0  0  0  0  0  0  0
  -22.6836  -20.0456   20.4814 C   0  0  0  0  0  0  0  0  0  0  0  0
  -17.9994  -26.8729   22.6771 C   0  0  0  0  0  0  0  0  0  0  0  0
  -19.2505  -28.9218   22.9480 C   0  0  0  0  0  0  0  0  0  0  0  0
  -20.3431  -26.9433   22.0944 C   0  0  0  0  0  0  0  0  0  0  0  0
  -33.8641  -24.2468   20.2752 C   0  0  0  0  0  0  0  0  0  0  0  0
  -29.2192  -28.5033   20.5595 C   0  0  0  0  0  0  0  0  0  0  0  0
  -27.2885  -28.5044   18.8922 C   0  0  0  0  0  0  0  0  0  0  0  0
  -24.3904  -11.7972   20.2695 C   0  0  0  0  0  0  0  0  0  0  0  0
  -23.4732  -18.2649   19.0443 C   0  0  0  0  0  0  0  0  0  0  0  0
  -23.9743  -13.0813   20.6697 C   0  0  0  0  0  0  0  0  0  0  0  0
  -23.7388  -19.2551   20.0009 C   0  0  0  0  0  0  0  0  0  0  0  0
  -18.0523  -28.2153   23.0519 C   0  0  0  0  0  0  0  0  0  0  0  0
  -19.1448  -26.2368   22.1984 C   0  0  0  0  0  0  0  0  0  0  0  0
  -20.3959  -28.2858   22.4692 C   0  0  0  0  0  0  0  0  0  0  0  0
  -31.7733  -27.8019   21.4353 C   0  0  0  0  0  0  0  0  0  0  0  0
  -21.3848  -19.8623   20.0077 C   0  0  0  0  0  0  0  0  0  0  0  0
  -33.4139  -26.1411   21.7054 C   0  0  0  0  0  0  0  0  0  0  0  0
  -34.2107  -23.4861   21.3919 C   0  0  0  0  0  0  0  0  0  0  0  0
  -33.4657  -25.5743   20.4320 C   0  0  0  0  0  0  0  0  0  0  0  0
  -27.8997  -28.8653   20.1079 C   0  0  0  0  0  0  0  0  0  0  0  0
  -26.0489  -29.0937   18.9428 C   0  0  0  0  0  0  0  0  0  0  0  0
  -18.2770  -23.9334   22.3387 C   0  0  0  0  0  0  0  0  0  0  0  0
  -18.4552  -22.7515   21.7375 C   0  0  0  0  0  0  0  0  0  0  0  0
  -17.4189  -21.2172   23.2762 C   0  0  0  0  0  0  0  0  0  0  0  0
  -17.7337  -21.5484   22.0055 C   0  0  0  0  0  0  0  0  0  0  0  0
  -27.7959  -27.7075   17.8136 C   0  0  0  0  0  0  0  0  0  0  0  0
  -25.5439  -16.4257   20.6044 C   0  0  0  0  0  0  0  0  0  0  0  0
  -27.5480  -18.9263   20.1011 C   0  0  0  0  0  0  0  0  0  0  0  0
  -27.9207  -22.2644   19.4968 C   0  0  0  0  0  0  0  0  0  0  0  0
  -21.8361  -30.3407   22.6921 C   0  0  0  0  0  0  0  0  0  0  0  0
  -25.8125  -11.3303   20.4549 C   0  0  0  0  0  0  0  0  0  0  0  0
  -24.5886  -17.4194   18.4934 C   0  0  0  0  0  0  0  0  0  0  0  0
  -25.1273  -19.4897   20.5350 C   0  0  0  0  0  0  0  0  0  0  0  0
  -26.8028  -12.4696   20.6819 C   0  0  0  0  0  0  0  0  0  0  0  0
  -24.0736  -32.8408   21.5004 C   0  0  0  0  0  0  0  0  0  0  0  0
  -26.2586  -13.4524   21.7137 C   0  0  0  0  0  0  0  0  0  0  0  0
  -25.2293  -32.0367   20.9004 C   0  0  0  0  0  0  0  0  0  0  0  0
  -23.5109  -32.1753   22.7551 C   0  0  0  0  0  0  0  0  0  0  0  0
  -19.9292  -24.3682   20.7491 C   0  0  0  0  0  0  0  0  0  0  0  0
  -24.2821  -29.9635   21.9920 C   0  0  0  0  0  0  0  0  0  0  0  0
  -24.9512  -14.0918   21.2307 C   0  0  1  0  0  0  0  0  0  0  0  0
  -19.5197  -22.8674   20.6716 C   0  0  1  0  0  0  0  0  0  0  0  0
  -25.7895  -17.3303   19.4301 C   0  0  1  0  0  0  0  0  0  0  0  0
  -24.8391  -30.5607   20.6894 C   0  0  2  0  0  0  0  0  0  0  0  0
  -16.8276  -28.8952   23.5638 C   0  0  0  0  0  0  0  0  0  0  0  0
  -29.6812  -24.0230   19.1725 C   0  0  0  0  0  0  0  0  0  0  0  0
  -28.0877  -18.9365   23.1042 C   0  0  0  0  0  0  0  0  0  0  0  0
  -29.0568  -21.2311   22.8517 C   0  0  0  0  0  0  0  0  0  0  0  0
  -30.1110  -19.2980   21.6794 C   0  0  0  0  0  0  0  0  0  0  0  0
  -26.9680  -22.8787   16.7630 C   0  0  0  0  0  0  0  0  0  0  0  0
  -20.7073  -21.9581   20.9047 C   0  0  0  0  0  0  0  0  0  1  0  0
  -27.8931  -20.1882   20.8544 C   0  0  1  0  0  0  0  0  0  0  0  0
  -28.7693  -23.0168   18.4878 C   0  0  2  0  0  0  0  0  0  0  0  0
  -28.7605  -19.9079   22.1140 C   0  0  0  0  0  0  0  0  0  0  0  0
  -27.1133  -29.6252   20.8747 N   0  0  0  0  0  0  0  0  0  0  0  0
  -25.9952  -29.7467   20.1390 N   0  0  0  0  0  0  0  0  0  0  0  0
  -19.0925  -24.9162   21.8298 N   0  0  0  0  0  0  0  0  0  0  0  0
  -26.1831  -18.6334   19.9698 N   0  0  0  0  0  0  0  0  0  0  0  0
  -23.1595  -30.7807   22.4784 N   0  0  0  0  0  0  0  0  0  0  0  0
  -25.0106  -29.1120   18.0803 N   0  0  0  0  0  0  0  0  0  0  0  0
  -29.0890  -27.1786   17.9245 N   0  0  0  0  0  0  0  0  0  0  0  0
  -21.6127  -29.0040   22.3634 N   0  0  0  0  0  0  0  0  0  0  0  0
  -25.2244  -15.1270   20.2570 N   0  0  0  0  0  0  0  0  0  0  0  0
  -28.5171  -21.0837   19.8864 N   0  0  0  0  0  0  0  0  0  0  0  0
  -27.9003  -23.7496   17.5241 N   0  3  0  0  0  0  0  0  0  0  0  0
  -27.1286  -27.4852   16.7749 O   0  0  0  0  0  0  0  0  0  0  0  0
  -25.6388  -16.8726   21.7415 O   0  0  0  0  0  0  0  0  0  0  0  0
  -28.4557  -18.2300   19.6398 O   0  0  0  0  0  0  0  0  0  0  0  0
  -26.8388  -22.6839   19.9019 O   0  0  0  0  0  0  0  0  0  0  0  0
  -20.9585  -31.1013   23.1084 O   0  0  0  0  0  0  0  0  0  0  0  0
  -33.0194  -27.4592   21.8626 O   0  0  0  0  0  0  0  0  0  0  0  0
  -20.3715  -20.6373   20.4815 O   0  0  0  0  0  0  0  0  0  1  0  0
  -34.5947  -22.2117   21.2414 F   0  0  0  0  0  0  0  0  0  0  0  0
  -33.1351  -26.3005   19.3553 F   0  0  0  0  0  0  0  0  0  0  0  0
  1  2  1  0  0  0  0
  1  5  2  0  0  0  0
  2  6  2  0  0  0  0
  3  8  2  0  0  0  0
  3 18  1  0  0  0  0
  4  9  1  0  0  0  0
  4 18  2  0  0  0  0
  5 20  1  0  0  0  0
  6 22  1  0  0  0  0
  7 10  2  0  0  0  0
  7 21  1  0  0  0  0
  8 27  1  0  0  0  0
  9 27  2  0  0  0  0
 10 28  1  0  0  0  0
 11 12  2  0  0  0  0
 11 29  1  0  0  0  0
 12 30  1  0  0  0  0
 13 23  1  0  0  0  0
 13 28  2  0  0  0  0
 14 24  2  0  0  0  0
 14 25  1  0  0  0  0
 15 24  1  0  0  0  0
 15 26  2  0  0  0  0
 16 25  2  0  0  0  0
 16 26  1  0  0  0  0
 17 30  2  0  0  0  0
 17 31  1  0  0  0  0
 18 32  1  0  0  0  0
 19 32  1  0  0  0  0
 19 33  2  0  0  0  0
 19 38  1  0  0  0  0
 20 22  2  0  0  0  0
 20 43  1  0  0  0  0
 21 23  2  0  0  0  0
 21 44  1  0  0  0  0
 22 53  1  0  0  0  0
 23 45  1  0  0  0  0
 24 57  1  0  0  0  0
 25 69  1  0  0  0  0
 26 74  1  0  0  0  0
 27 83  1  0  0  0  0
 28 84  1  0  0  0  0
 29 31  2  0  0  0  0
 29 83  1  0  0  0  0
 30 85  1  0  0  0  0
 31 86  1  0  0  0  0
 32 67  2  0  0  0  0
 33 68  1  0  0  0  0
 33 72  1  0  0  0  0
 34 35  2  0  0  0  0
 34 69  1  0  0  0  0
 35 37  1  0  0  0  0
 35 54  1  0  0  0  0
 36 37  2  0  0  0  0
 38 73  1  0  0  0  0
 38 78  2  0  0  0  0
 39 55  1  0  0  0  0
 39 75  1  0  0  0  0
 39 79  2  0  0  0  0
 40 64  1  0  0  0  0
 40 70  1  0  0  0  0
 40 80  2  0  0  0  0
 41 65  1  0  0  0  0
 41 76  1  0  0  0  0
 41 81  2  0  0  0  0
 42 71  1  0  0  0  0
 42 74  1  0  0  0  0
 42 82  2  0  0  0  0
 43 46  1  0  0  0  0
 44 55  1  0  0  0  0
 45 70  1  0  0  0  0
 46 48  1  0  0  0  0
 47 49  1  0  0  0  0
 47 50  1  0  0  0  0
 48 53  1  0  0  0  0
 49 56  1  0  0  0  0
 50 71  1  0  0  0  0
 51 54  1  0  0  0  0
 51 69  1  0  0  0  0
 52 56  1  0  0  0  0
 52 71  1  0  0  0  0
 53 75  1  0  0  0  0
 54 63  1  0  0  0  0
 55 70  1  0  0  0  0
 56 68  1  0  0  0  0
 58 65  1  0  0  0  0
 59 66  1  0  0  0  0
 60 66  1  0  0  0  0
 61 66  1  0  0  0  0
 62 77  1  0  0  0  0
 63 84  1  0  0  0  0
 64 66  1  0  0  0  0
 64 76  1  0  0  0  0
 65 77  1  0  0  0  0
 67 68  1  0  0  0  0
M  CHG  1  77   1
M  ISO  4  42 100  63 101  74 100  84 101
M  END
> <Batch ID>
0064

> <Smiles>
C=CC1=CN(c2cc(C)cc([100NH:0][100C:0](=O)N3CCCC(n4nc(-c5ccc(Oc6ccc(F)cc6F)cc5)c(C(N)=O)c4N)C3)c2)CC1[101CH2:1][101O:1]c1ccc2c(c1)CN(C(=O)C(NC(=O)C(C)NC)C(C)(C)C)C(C(=O)NC1CCCc3ccccc31)C2

> <Shape>
0.235

> <Color>
0.078

> <Negative vol penalty>
0.000

$$$$

  -OEChem-04042323153D

 88 97  0     1  0  0  0  0  0999 V2000
  -28.3533  -11.5418   22.2780 C   0  0  0  0  0  0  0  0  0  0  0  0
  -28.8060  -12.7740   21.8174 C   0  0  0  0  0  0  0  0  0  0  0  0
  -19.9773  -28.1265   23.5959 C   0  0  0  0  0  0  0  0  0  0  0  0
  -21.1013  -26.8931   21.8487 C   0  0  0  0  0  0  0  0  0  0  0  0
  -27.0574  -11.1214   21.9818 C   0  0  0  0  0  0  0  0  0  0  0  0
  -27.9633  -13.5860   21.0592 C   0  0  0  0  0  0  0  0  0  0  0  0
  -27.7334  -19.7058   21.0983 C   0  0  0  0  0  0  0  0  0  0  0  0
  -31.3736  -28.4620   19.8601 C   0  0  0  0  0  0  0  0  0  0  0  0
  -18.7566  -27.9275   22.9510 C   0  0  0  0  0  0  0  0  0  0  0  0
  -19.8806  -26.6941   21.2039 C   0  0  0  0  0  0  0  0  0  0  0  0
  -28.2842  -20.6705   20.2559 C   0  0  0  0  0  0  0  0  0  0  0  0
  -17.1102  -26.1689   18.9106 C   0  0  0  0  0  0  0  0  0  0  0  0
  -31.3259  -29.1022   21.0984 C   0  0  0  0  0  0  0  0  0  0  0  0
  -17.0656  -26.3693   17.5309 C   0  0  0  0  0  0  0  0  0  0  0  0
  -26.2068  -20.7816   19.0347 C   0  0  0  0  0  0  0  0  0  0  0  0
  -17.7457  -28.6665   17.8425 C   0  0  0  0  0  0  0  0  0  0  0  0
  -21.1497  -27.6093   23.0447 C   0  0  0  0  0  0  0  0  0  0  0  0
  -23.0065  -26.9850   24.6788 C   0  0  0  0  0  0  0  0  0  0  0  0
  -26.1952  -11.9329   21.2277 C   0  0  0  0  0  0  0  0  0  0  0  0
  -26.4165  -19.2630   20.9081 C   0  0  0  0  0  0  0  0  0  0  0  0
  -26.6551  -13.1755   20.7514 C   0  0  0  0  0  0  0  0  0  0  0  0
  -25.6408  -19.8130   19.8776 C   0  0  0  0  0  0  0  0  0  0  0  0
  -30.2399  -28.4289   19.0480 C   0  0  0  0  0  0  0  0  0  0  0  0
  -29.0587  -29.0359   19.4743 C   0  0  0  0  0  0  0  0  0  0  0  0
  -29.0110  -29.6761   20.7126 C   0  0  0  0  0  0  0  0  0  0  0  0
  -18.7082  -27.2113   21.7551 C   0  0  0  0  0  0  0  0  0  0  0  0
  -27.5219  -21.2065   19.2221 C   0  0  0  0  0  0  0  0  0  0  0  0
  -17.4725  -27.2174   19.7562 C   0  0  0  0  0  0  0  0  0  0  0  0
  -17.3833  -27.6180   16.9968 C   0  0  0  0  0  0  0  0  0  0  0  0
  -30.1447  -29.7093   21.5247 C   0  0  0  0  0  0  0  0  0  0  0  0
  -17.7903  -28.4662   19.2221 C   0  0  0  0  0  0  0  0  0  0  0  0
  -22.4111  -27.8150   23.7101 C   0  0  0  0  0  0  0  0  0  0  0  0
  -24.1863  -27.6146   24.9921 C   0  0  0  0  0  0  0  0  0  0  0  0
  -28.2505  -24.7256   17.2565 C   0  0  0  0  0  0  0  0  0  0  0  0
  -29.0406  -24.3154   18.2524 C   0  0  0  0  0  0  0  0  0  0  0  0
  -28.6268  -26.1032   16.9048 C   0  0  0  0  0  0  0  0  0  0  0  0
  -29.9662  -25.4160   18.5882 C   0  0  0  0  0  0  0  0  0  0  0  0
  -22.5353  -25.7548   25.2447 C   0  0  0  0  0  0  0  0  0  0  0  0
  -25.0670  -16.4689   20.2186 C   0  0  0  0  0  0  0  0  0  0  0  0
  -22.3171  -18.1162   20.7155 C   0  0  0  0  0  0  0  0  0  0  0  0
  -20.7174  -21.1300   20.7851 C   0  0  0  0  0  0  0  0  0  0  0  0
  -27.7099  -31.4041   22.0039 C   0  0  0  0  0  0  0  0  0  0  0  0
  -24.8188  -11.4151   20.8928 C   0  0  0  0  0  0  0  0  0  0  0  0
  -25.8283  -18.2411   21.8420 C   0  0  0  0  0  0  0  0  0  0  0  0
  -24.2154  -19.3863   19.6438 C   0  0  0  0  0  0  0  0  0  0  0  0
  -23.8633  -12.4991   20.4007 C   0  0  0  0  0  0  0  0  0  0  0  0
  -26.1764  -31.9670   25.1676 C   0  0  0  0  0  0  0  0  0  0  0  0
  -24.5442  -13.3765   19.3551 C   0  0  0  0  0  0  0  0  0  0  0  0
  -25.0950  -30.8867   25.2437 C   0  0  0  0  0  0  0  0  0  0  0  0
  -26.3331  -32.5138   23.7498 C   0  0  0  0  0  0  0  0  0  0  0  0
  -25.4682  -30.4168   22.7887 C   0  0  0  0  0  0  0  0  0  0  0  0
  -25.7625  -14.0955   19.9470 C   0  0  1  0  0  0  0  0  0  0  0  0
  -24.6461  -17.4898   21.2376 C   0  0  1  0  0  0  0  0  0  0  0  0
  -25.3189  -29.7897   24.1844 C   0  0  2  0  0  0  0  0  0  0  0  0
  -27.8455  -28.9990   18.5985 C   0  0  0  0  0  0  0  0  0  0  0  0
  -18.8582  -22.7710   21.1698 C   0  0  0  0  0  0  0  0  0  0  0  0
  -21.3993  -17.1685   17.9642 C   0  0  0  0  0  0  0  0  0  0  0  0
  -19.6323  -18.9413   18.0200 C   0  0  0  0  0  0  0  0  0  0  0  0
  -19.6268  -17.1233   19.7280 C   0  0  0  0  0  0  0  0  0  0  0  0
  -21.5205  -21.5564   23.6015 C   0  0  0  0  0  0  0  0  0  0  0  0
  -30.3191  -27.7337   17.7195 C   0  0  0  0  0  0  0  0  0  0  0  0
  -29.0536  -23.0057   18.9528 C   0  0  0  0  0  0  0  0  0  1  0  0
  -21.3885  -18.9326   19.8493 C   0  0  1  0  0  0  0  0  0  0  0  0
  -19.7897  -21.7545   21.8116 C   0  0  2  0  0  0  0  0  0  0  0  0
  -20.5392  -18.0483   18.8933 C   0  0  0  0  0  0  0  0  0  0  0  0
  -23.1514  -28.8900   23.4268 N   0  0  0  0  0  0  0  0  0  0  0  0
  -24.2241  -28.7398   24.2223 N   0  0  0  0  0  0  0  0  0  0  0  0
  -29.6550  -26.4455   17.7410 N   0  0  0  0  0  0  0  0  0  0  0  0
  -23.6874  -18.3798   20.5796 N   0  0  0  0  0  0  0  0  0  0  0  0
  -26.5461  -31.4182   22.8016 N   0  0  0  0  0  0  0  0  0  0  0  0
  -25.1845  -27.3101   25.8483 N   0  0  0  0  0  0  0  0  0  0  0  0
  -21.3028  -25.2483   24.8103 N   0  0  0  0  0  0  0  0  0  0  0  0
  -27.8197  -30.2966   21.1638 N   0  0  0  0  0  0  0  0  0  0  0  0
  -25.3426  -15.2236   20.7503 N   0  0  0  0  0  0  0  0  0  0  0  0
  -20.6002  -19.7564   20.7595 N   0  0  0  0  0  0  0  0  0  0  0  0
  -20.5787  -22.4436   22.8715 N   0  3  0  0  0  0  0  0  0  0  0  0
  -28.0864  -26.7556   16.0278 O   0  0  0  0  0  0  0  0  0  0  0  0
  -30.8184  -25.3579   19.4588 O   0  0  0  0  0  0  0  0  0  0  0  0
  -23.1803  -25.1318   26.1219 O   0  0  0  0  0  0  0  0  0  0  0  0
  -25.1351  -16.7871   19.0371 O   0  0  0  0  0  0  0  0  0  0  0  0
  -21.8435  -17.2805   21.4894 O   0  0  0  0  0  0  0  0  0  0  0  0
  -21.4681  -21.7946   20.0742 O   0  0  0  0  0  0  0  0  0  0  0  0
  -28.5607  -32.2941   22.0816 O   0  0  0  0  0  0  0  0  0  0  0  0
  -17.5172  -27.0168   21.1257 O   0  0  0  0  0  0  0  0  0  0  0  0
  -28.0573  -22.1478   18.3980 O   0  0  0  0  0  0  0  0  0  1  0  0
  -17.3419  -27.8098   15.6718 F   0  0  0  0  0  0  0  0  0  0  0  0
  -30.1110  -30.3195   22.7181 F   0  0  0  0  0  0  0  0  0  0  0  0
  -18.1403  -29.4770   20.0294 F   0  0  0  0  0  0  0  0  0  0  0  0
  1  2  1  0  0  0  0
  1  5  2  0  0  0  0
  2  6  2  0  0  0  0
  3  9  2  0  0  0  0
  3 17  1  0  0  0  0
  4 10  1  0  0  0  0
  4 17  2  0  0  0  0
  5 19  1  0  0  0  0
  6 21  1  0  0  0  0
  7 11  2  0  0  0  0
  7 20  1  0  0  0  0
  8 13  2  0  0  0  0
  8 23  1  0  0  0  0
  9 26  1  0  0  0  0
 10 26  2  0  0  0  0
 11 27  1  0  0  0  0
 12 14  2  0  0  0  0
 12 28  1  0  0  0  0
 13 30  1  0  0  0  0
 14 29  1  0  0  0  0
 15 22  1  0  0  0  0
 15 27  2  0  0  0  0
 16 29  2  0  0  0  0
 16 31  1  0  0  0  0
 17 32  1  0  0  0  0
 18 32  1  0  0  0  0
 18 33  2  0  0  0  0
 18 38  1  0  0  0  0
 19 21  2  0  0  0  0
 19 43  1  0  0  0  0
 20 22  2  0  0  0  0
 20 44  1  0  0  0  0
 21 52  1  0  0  0  0
 22 45  1  0  0  0  0
 23 24  2  0  0  0  0
 23 61  1  0  0  0  0
 24 25  1  0  0  0  0
 24 55  1  0  0  0  0
 25 30  2  0  0  0  0
 25 73  1  0  0  0  0
 26 84  1  0  0  0  0
 27 85  1  0  0  0  0
 28 31  2  0  0  0  0
 28 84  1  0  0  0  0
 29 86  1  0  0  0  0
 30 87  1  0  0  0  0
 31 88  1  0  0  0  0
 32 66  2  0  0  0  0
 33 67  1  0  0  0  0
 33 71  1  0  0  0  0
 34 35  2  0  0  0  0
 34 36  1  0  0  0  0
 35 37  1  0  0  0  0
 35 62  1  0  0  0  0
 36 68  1  0  0  0  0
 36 77  2  0  0  0  0
 37 68  1  0  0  0  0
 37 78  2  0  0  0  0
 38 72  1  0  0  0  0
 38 79  2  0  0  0  0
 39 53  1  0  0  0  0
 39 74  1  0  0  0  0
 39 80  2  0  0  0  0
 40 63  1  0  0  0  0
 40 69  1  0  0  0  0
 40 81  2  0  0  0  0
 41 64  1  0  0  0  0
 41 75  1  0  0  0  0
 41 82  2  0  0  0  0
 42 70  1  0  0  0  0
 42 73  1  0  0  0  0
 42 83  2  0  0  0  0
 43 46  1  0  0  0  0
 44 53  1  0  0  0  0
 45 69  1  0  0  0  0
 46 48  1  0  0  0  0
 47 49  1  0  0  0  0
 47 50  1  0  0  0  0
 48 52  1  0  0  0  0
 49 54  1  0  0  0  0
 50 70  1  0  0  0  0
 51 54  1  0  0  0  0
 51 70  1  0  0  0  0
 52 74  1  0  0  0  0
 53 69  1  0  0  0  0
 54 67  1  0  0  0  0
 56 64  1  0  0  0  0
 57 65  1  0  0  0  0
 58 65  1  0  0  0  0
 59 65  1  0  0  0  0
 60 76  1  0  0  0  0
 61 68  1  0  0  0  0
 62 85  1  0  0  0  0
 63 65  1  0  0  0  0
 63 75  1  0  0  0  0
 64 76  1  0  0  0  0
 66 67  1  0  0  0  0
M  CHG  1  76   1
M  ISO  4  42 100  62 101  73 100  85 101
M  END
> <Batch ID>
0064

> <Smiles>
CNC(C)C(=O)NC(C(=O)N1Cc2cc([101O:1][101CH2:1]C3=CC(=O)N(Cc4ccc(F)c([100NH:0][100C:0](=O)N5CCCC(n6nc(-c7ccc(Oc8ccc(F)cc8F)cc7)c(C(N)=O)c6N)C5)c4C)C3=O)ccc2CC1C(=O)NC1CCCc2ccccc21)C(C)(C)C

> <Shape>
0.205

> <Color>
0.087

> <Negative vol penalty>
0.000

$$$$

  -OEChem-04042323153D

 86 94  0     1  0  0  0  0  0999 V2000
  -20.6847  -33.9022   15.3822 C   0  0  0  0  0  0  0  0  0  0  0  0
  -21.5091  -32.7865   15.4874 C   0  0  0  0  0  0  0  0  0  0  0  0
  -22.9401  -11.6058   21.5609 C   0  0  0  0  0  0  0  0  0  0  0  0
  -22.9297  -14.0015   21.2489 C   0  0  0  0  0  0  0  0  0  0  0  0
  -20.8977  -35.0053   16.2079 C   0  0  0  0  0  0  0  0  0  0  0  0
  -22.5478  -32.7738   16.4177 C   0  0  0  0  0  0  0  0  0  0  0  0
  -24.6081  -27.9439   19.5693 C   0  0  0  0  0  0  0  0  0  0  0  0
  -21.9259  -11.7251   22.5110 C   0  0  0  0  0  0  0  0  0  0  0  0
  -21.9154  -14.1208   22.1991 C   0  0  0  0  0  0  0  0  0  0  0  0
  -25.6938  -27.0910   19.3752 C   0  0  0  0  0  0  0  0  0  0  0  0
  -18.5684  -13.6747   22.3366 C   0  0  0  0  0  0  0  0  0  0  0  0
  -17.4941  -14.5113   22.0339 C   0  0  0  0  0  0  0  0  0  0  0  0
  -31.4639  -19.6112   20.9045 C   0  0  0  0  0  0  0  0  0  0  0  0
  -31.8309  -17.2242   20.8380 C   0  0  0  0  0  0  0  0  0  0  0  0
  -27.0027  -28.4186   20.9061 C   0  0  0  0  0  0  0  0  0  0  0  0
  -29.7952  -18.1590   19.9330 C   0  0  0  0  0  0  0  0  0  0  0  0
  -17.9971  -15.8593   23.9748 C   0  0  0  0  0  0  0  0  0  0  0  0
  -23.4420  -12.7440   20.9299 C   0  0  0  0  0  0  0  0  0  0  0  0
  -32.2648  -18.5039   21.1840 C   0  0  0  0  0  0  0  0  0  0  0  0
  -24.3384  -12.4403   18.5609 C   0  0  0  0  0  0  0  0  0  0  0  0
  -21.9334  -35.0022   17.1554 C   0  0  0  0  0  0  0  0  0  0  0  0
  -24.7152  -29.0487   20.4263 C   0  0  0  0  0  0  0  0  0  0  0  0
  -22.7757  -33.8784   17.2559 C   0  0  0  0  0  0  0  0  0  0  0  0
  -25.9161  -29.2826   21.1113 C   0  0  0  0  0  0  0  0  0  0  0  0
  -30.2290  -19.4388   20.2790 C   0  0  0  0  0  0  0  0  0  0  0  0
  -30.5961  -17.0517   20.2125 C   0  0  0  0  0  0  0  0  0  0  0  0
  -21.4136  -12.9826   22.8301 C   0  0  0  0  0  0  0  0  0  0  0  0
  -26.8922  -27.3300   20.0414 C   0  0  0  0  0  0  0  0  0  0  0  0
  -19.3571  -13.9304   23.4584 C   0  0  0  0  0  0  0  0  0  0  0  0
  -17.2085  -15.6036   22.8530 C   0  0  0  0  0  0  0  0  0  0  0  0
  -19.0714  -15.0227   24.2775 C   0  0  0  0  0  0  0  0  0  0  0  0
  -24.4901  -12.6215   19.9487 C   0  0  0  0  0  0  0  0  0  0  0  0
  -25.6235  -12.3841   18.0795 C   0  0  0  0  0  0  0  0  0  0  0  0
  -33.5451  -18.6826   21.8321 C   0  0  0  0  0  0  0  0  0  0  0  0
  -23.1427  -12.3326   17.7770 C   0  0  0  0  0  0  0  0  0  0  0  0
  -24.4924  -32.1987   20.0638 C   0  0  0  0  0  0  0  0  0  0  0  0
  -24.7526  -32.1975   23.2971 C   0  0  0  0  0  0  0  0  0  0  0  0
  -29.6917  -21.8992   20.2683 C   0  0  0  0  0  0  0  0  0  0  0  0
  -25.8097  -30.5937   26.1180 C   0  0  0  0  0  0  0  0  0  0  0  0
  -30.8263  -14.5472   20.0688 C   0  0  0  0  0  0  0  0  0  0  0  0
  -22.1544  -36.2366   17.9933 C   0  0  0  0  0  0  0  0  0  0  0  0
  -23.5265  -29.9439   20.6455 C   0  0  0  0  0  0  0  0  0  0  0  0
  -26.0762  -30.4431   22.0578 C   0  0  0  0  0  0  0  0  0  0  0  0
  -23.0427  -35.9952   19.2111 C   0  0  0  0  0  0  0  0  0  0  0  0
  -30.0599  -11.1383   19.3838 C   0  0  0  0  0  0  0  0  0  0  0  0
  -24.2815  -35.1964   18.8183 C   0  0  0  0  0  0  0  0  0  0  0  0
  -28.5310  -11.1165   19.3186 C   0  0  0  0  0  0  0  0  0  0  0  0
  -30.5682  -12.1055   20.4515 C   0  0  0  0  0  0  0  0  0  0  0  0
  -28.5103  -13.4501   20.2887 C   0  0  0  0  0  0  0  0  0  0  0  0
  -23.8974  -33.8169   18.2698 C   0  0  1  0  0  0  0  0  0  0  0  0
  -23.9091  -31.3337   21.1450 C   0  0  1  0  0  0  0  0  0  0  0  0
  -27.9523  -12.5386   19.1834 C   0  0  2  0  0  0  0  0  0  0  0  0
  -25.9172  -30.8581   28.6112 C   0  0  0  0  0  0  0  0  0  0  0  0
  -27.0670  -34.1615   22.9866 C   0  0  0  0  0  0  0  0  0  0  0  0
  -27.7246  -33.6521   25.3480 C   0  0  0  0  0  0  0  0  0  0  0  0
  -25.5034  -34.6808   24.8680 C   0  0  0  0  0  0  0  0  0  0  0  0
  -24.1437  -28.1881   26.5613 C   0  0  0  0  0  0  0  0  0  0  0  0
  -28.5479  -22.7865   19.7970 C   0  0  0  0  0  0  0  0  0  0  0  0
  -28.7991  -24.2648   20.0731 C   0  0  0  0  0  0  0  0  0  0  0  0
  -27.6651  -25.1350   19.5509 C   0  0  0  0  0  0  0  0  0  1  0  0
  -25.8993  -32.2546   24.2774 C   0  0  1  0  0  0  0  0  0  0  0  0
  -25.1149  -30.3155   27.4388 C   0  0  2  0  0  0  0  0  0  0  0  0
  -26.5465  -33.6664   24.3507 C   0  0  0  0  0  0  0  0  0  0  0  0
  -25.7706  -12.6765   20.3246 N   0  0  0  0  0  0  0  0  0  0  0  0
  -26.4352  -12.5290   19.1659 N   0  0  0  0  0  0  0  0  0  0  0  0
  -24.8873  -31.2934   22.2339 N   0  0  0  0  0  0  0  0  0  0  0  0
  -29.9812  -13.4332   20.2575 N   0  0  0  0  0  0  0  0  0  0  0  0
  -26.1271  -12.2252   16.8371 N   0  0  0  0  0  0  0  0  0  0  0  0
  -33.9722  -19.9112   22.1690 N   0  0  0  0  0  0  0  0  0  0  0  0
  -21.9057  -12.4116   18.4310 N   0  0  0  0  0  0  0  0  0  0  0  0
  -29.4166  -20.5622   19.9951 N   0  0  0  0  0  0  0  0  0  0  0  0
  -30.1548  -15.7517   19.8619 N   0  0  0  0  0  0  0  0  0  0  0  0
  -23.5530  -32.9205   19.3525 N   0  0  0  0  0  0  0  0  0  0  0  0
  -25.3731  -31.7717   25.5496 N   0  0  0  0  0  0  0  0  0  0  0  0
  -34.3231  -17.6223   22.1073 N   0  3  0  0  0  0  0  0  0  0  0  0
  -24.9357  -28.8485   27.6308 N   0  3  0  0  0  0  0  0  0  0  0  0
  -23.1706  -12.1546   16.5356 O   0  0  0  0  0  0  0  0  0  0  0  0
  -25.7052  -32.2116   19.8887 O   0  0  0  0  0  0  0  0  0  0  0  0
  -23.7705  -32.9229   23.4724 O   0  0  0  0  0  0  0  0  0  0  0  0
  -30.6923  -22.3587   20.8086 O   0  0  0  0  0  0  0  0  0  0  0  0
  -26.6577  -29.8432   25.6404 O   0  0  0  0  0  0  0  0  0  0  0  0
  -32.0549  -14.4360   20.0621 O   0  0  0  0  0  0  0  0  0  0  0  0
  -20.4237  -13.0993   23.7570 O   0  0  0  0  0  0  0  0  0  0  0  0
  -27.9537  -26.4994   19.8532 O   0  0  0  0  0  0  0  0  0  1  0  0
  -16.1777  -16.4078   22.5614 F   0  0  0  0  0  0  0  0  0  0  0  0
  -19.8262  -15.2740   25.3559 F   0  0  0  0  0  0  0  0  0  0  0  0
  1  2  1  0  0  0  0
  1  5  2  0  0  0  0
  2  6  2  0  0  0  0
  3  8  2  0  0  0  0
  3 18  1  0  0  0  0
  4  9  1  0  0  0  0
  4 18  2  0  0  0  0
  5 21  1  0  0  0  0
  6 23  1  0  0  0  0
  7 10  2  0  0  0  0
  7 22  1  0  0  0  0
  8 27  1  0  0  0  0
  9 27  2  0  0  0  0
 10 28  1  0  0  0  0
 11 12  2  0  0  0  0
 11 29  1  0  0  0  0
 12 30  1  0  0  0  0
 13 19  1  0  0  0  0
 13 25  2  0  0  0  0
 14 19  2  0  0  0  0
 14 26  1  0  0  0  0
 15 24  1  0  0  0  0
 15 28  2  0  0  0  0
 16 25  1  0  0  0  0
 16 26  2  0  0  0  0
 17 30  2  0  0  0  0
 17 31  1  0  0  0  0
 18 32  1  0  0  0  0
 19 34  1  0  0  0  0
 20 32  1  0  0  0  0
 20 33  2  0  0  0  0
 20 35  1  0  0  0  0
 21 23  2  0  0  0  0
 21 41  1  0  0  0  0
 22 24  2  0  0  0  0
 22 42  1  0  0  0  0
 23 50  1  0  0  0  0
 24 43  1  0  0  0  0
 25 71  1  0  0  0  0
 26 72  1  0  0  0  0
 27 83  1  0  0  0  0
 28 84  1  0  0  0  0
 29 31  2  0  0  0  0
 29 83  1  0  0  0  0
 30 85  1  0  0  0  0
 31 86  1  0  0  0  0
 32 64  2  0  0  0  0
 33 65  1  0  0  0  0
 33 68  1  0  0  0  0
 34 69  1  0  0  0  0
 34 75  2  0  0  0  0
 35 70  1  0  0  0  0
 35 77  2  0  0  0  0
 36 51  1  0  0  0  0
 36 73  1  0  0  0  0
 36 78  2  0  0  0  0
 37 61  1  0  0  0  0
 37 66  1  0  0  0  0
 37 79  2  0  0  0  0
 38 58  1  0  0  0  0
 38 71  1  0  0  0  0
 38 80  2  0  0  0  0
 39 62  1  0  0  0  0
 39 74  1  0  0  0  0
 39 81  2  0  0  0  0
 40 67  1  0  0  0  0
 40 72  1  0  0  0  0
 40 82  2  0  0  0  0
 41 44  1  0  0  0  0
 42 51  1  0  0  0  0
 43 66  1  0  0  0  0
 44 46  1  0  0  0  0
 45 47  1  0  0  0  0
 45 48  1  0  0  0  0
 46 50  1  0  0  0  0
 47 52  1  0  0  0  0
 48 67  1  0  0  0  0
 49 52  1  0  0  0  0
 49 67  1  0  0  0  0
 50 73  1  0  0  0  0
 51 66  1  0  0  0  0
 52 65  1  0  0  0  0
 53 62  1  0  0  0  0
 54 63  1  0  0  0  0
 55 63  1  0  0  0  0
 56 63  1  0  0  0  0
 57 76  1  0  0  0  0
 58 59  1  0  0  0  0
 59 60  1  0  0  0  0
 60 84  1  0  0  0  0
 61 63  1  0  0  0  0
 61 74  1  0  0  0  0
 62 76  1  0  0  0  0
 64 65  1  0  0  0  0
M  CHG  2  75   1  76   1
M  ISO  4  40 100  60 101  72 100  84 101
M  END
> <Batch ID>
0064

> <Smiles>
CNC(C)C(=O)NC(C(=O)N1Cc2cc([101O:1][101CH2:1]CCC(=O)Nc3cc([100NH:0][100C:0](=O)N4CCCC(n5nc(-c6ccc(Oc7ccc(F)cc7F)cc6)c(C(N)=O)c5N)C4)cc(C(=N)N)c3)ccc2CC1C(=O)NC1CCCc2ccccc21)C(C)(C)C

> <Shape>
0.271

> <Color>
0.095

> <Negative vol penalty>
0.000

$$$$

  -OEChem-04042323153D

 86 95  0     1  0  0  0  0  0999 V2000
  -19.0771  -30.5940   24.8532 C   0  0  0  0  0  0  0  0  0  0  0  0
  -20.4436  -30.3499   24.9452 C   0  0  0  0  0  0  0  0  0  0  0  0
  -24.8273  -13.8171   21.2618 C   0  0  0  0  0  0  0  0  0  0  0  0
  -26.3841  -13.4539   19.4503 C   0  0  0  0  0  0  0  0  0  0  0  0
  -18.2827  -29.8014   24.0258 C   0  0  0  0  0  0  0  0  0  0  0  0
  -21.0163  -29.3122   24.2106 C   0  0  0  0  0  0  0  0  0  0  0  0
  -26.5993  -29.2273   21.6948 C   0  0  0  0  0  0  0  0  0  0  0  0
  -24.1334  -12.6635   20.8969 C   0  0  0  0  0  0  0  0  0  0  0  0
  -25.6902  -12.3003   19.0853 C   0  0  0  0  0  0  0  0  0  0  0  0
  -27.8087  -28.6749   22.1141 C   0  0  0  0  0  0  0  0  0  0  0  0
  -24.4852   -9.3216   21.2717 C   0  0  0  0  0  0  0  0  0  0  0  0
  -24.1091   -8.4427   22.2874 C   0  0  0  0  0  0  0  0  0  0  0  0
  -27.3731  -26.7181   20.7724 C   0  0  0  0  0  0  0  0  0  0  0  0
  -31.1585  -23.1130   20.5899 C   0  0  0  0  0  0  0  0  0  0  0  0
  -32.4705  -21.0845   20.5631 C   0  0  0  0  0  0  0  0  0  0  0  0
  -21.7887   -8.7352   21.6814 C   0  0  0  0  0  0  0  0  0  0  0  0
  -25.9526  -14.2124   20.5385 C   0  0  0  0  0  0  0  0  0  0  0  0
  -27.7443  -15.5002   21.8188 C   0  0  0  0  0  0  0  0  0  0  0  0
  -18.8475  -28.7596   23.2733 C   0  0  0  0  0  0  0  0  0  0  0  0
  -25.7611  -28.5234   20.8182 C   0  0  0  0  0  0  0  0  0  0  0  0
  -20.2285  -28.5040   23.3734 C   0  0  0  0  0  0  0  0  0  0  0  0
  -26.1547  -27.2649   20.3415 C   0  0  0  0  0  0  0  0  0  0  0  0
  -33.3623  -23.0867   21.5795 C   0  0  0  0  0  0  0  0  0  0  0  0
  -32.1903  -23.7716   21.2586 C   0  0  0  0  0  0  0  0  0  0  0  0
  -31.2985  -21.7694   20.2422 C   0  0  0  0  0  0  0  0  0  0  0  0
  -24.5648  -11.9050   19.8086 C   0  0  0  0  0  0  0  0  0  0  0  0
  -28.1945  -27.4188   21.6552 C   0  0  0  0  0  0  0  0  0  0  0  0
  -23.5131   -9.9074   20.4608 C   0  0  0  0  0  0  0  0  0  0  0  0
  -22.7609   -8.1495   22.4922 C   0  0  0  0  0  0  0  0  0  0  0  0
  -22.1648   -9.6142   20.6657 C   0  0  0  0  0  0  0  0  0  0  0  0
  -33.5024  -21.7431   21.2317 C   0  0  0  0  0  0  0  0  0  0  0  0
  -26.6695  -15.4043   20.9147 C   0  0  0  0  0  0  0  0  0  0  0  0
  -28.0675  -16.8351   21.8277 C   0  0  0  0  0  0  0  0  0  0  0  0
  -31.8132  -26.2167   20.8320 C   0  0  0  0  0  0  0  0  0  0  0  0
  -31.9879  -25.7471   22.7947 C   0  0  0  0  0  0  0  0  0  0  0  0
  -28.3927  -14.4743   22.5822 C   0  0  0  0  0  0  0  0  0  0  0  0
  -22.8079  -27.3601   20.9878 C   0  0  0  0  0  0  0  0  0  0  0  0
  -23.3072  -26.6964   17.8521 C   0  0  0  0  0  0  0  0  0  0  0  0
  -25.5342  -26.1001   15.3358 C   0  0  0  0  0  0  0  0  0  0  0  0
  -29.0234  -21.6331   19.1691 C   0  0  0  0  0  0  0  0  0  0  0  0
  -17.9407  -27.8996   22.4291 C   0  0  0  0  0  0  0  0  0  0  0  0
  -24.4722  -29.1447   20.3544 C   0  0  0  0  0  0  0  0  0  0  0  0
  -25.3004  -26.4771   19.3834 C   0  0  0  0  0  0  0  0  0  0  0  0
  -18.6867  -27.0585   21.3964 C   0  0  0  0  0  0  0  0  0  0  0  0
  -25.6313  -20.8270   19.8907 C   0  0  0  0  0  0  0  0  0  0  0  0
  -19.8905  -26.3732   22.0351 C   0  0  0  0  0  0  0  0  0  0  0  0
  -25.6874  -19.3522   20.2958 C   0  0  0  0  0  0  0  0  0  0  0  0
  -26.6197  -21.1453   18.7703 C   0  0  0  0  0  0  0  0  0  0  0  0
  -28.0621  -19.2624   19.4358 C   0  0  0  0  0  0  0  0  0  0  0  0
  -20.8907  -27.4035   22.5732 C   0  0  1  0  0  0  0  0  0  0  0  0
  -31.7551  -27.0985   22.0935 C   0  0  0  0  0  0  0  0  0  0  0  0
  -23.4564  -28.1177   19.8639 C   0  0  1  0  0  0  0  0  0  0  0  0
  -27.1302  -18.9075   20.6059 C   0  0  2  0  0  0  0  0  0  0  0  0
  -34.4632  -23.8044   22.2982 C   0  0  0  0  0  0  0  0  0  0  0  0
  -25.6419  -25.5519   12.8894 C   0  0  0  0  0  0  0  0  0  0  0  0
  -22.5197  -23.8131   18.4660 C   0  0  0  0  0  0  0  0  0  0  0  0
  -23.5413  -23.1423   16.2810 C   0  0  0  0  0  0  0  0  0  0  0  0
  -21.6020  -24.7108   16.3197 C   0  0  0  0  0  0  0  0  0  0  0  0
  -27.0132  -28.5897   14.7245 C   0  0  0  0  0  0  0  0  0  0  0  0
  -30.4317  -27.7830   22.3750 C   0  0  0  0  0  0  0  0  0  1  0  0
  -23.8703  -25.5252   17.0837 C   0  0  1  0  0  0  0  0  0  0  0  0
  -25.6389  -26.6616   13.9293 C   0  0  2  0  0  0  0  0  0  0  0  0
  -22.8988  -24.3116   17.0572 C   0  0  0  0  0  0  0  0  0  0  0  0
  -26.3323  -16.5843   20.3876 N   0  0  0  0  0  0  0  0  0  0  0  0
  -27.2001  -17.4344   20.9624 N   0  0  0  0  0  0  0  0  0  0  0  0
  -32.0314  -25.0966   21.5899 N   0  0  0  0  0  0  0  0  0  0  0  0
  -24.0463  -27.1245   18.9640 N   0  0  0  0  0  0  0  0  0  0  0  0
  -27.9659  -20.6997   19.1362 N   0  0  0  0  0  0  0  0  0  0  0  0
  -29.0060  -17.5430   22.4913 N   0  0  0  0  0  0  0  0  0  0  0  0
  -27.9348  -13.1558   22.4541 N   0  0  0  0  0  0  0  0  0  0  0  0
  -30.2506  -21.1004   19.5624 N   0  0  0  0  0  0  0  0  0  0  0  0
  -21.6710  -27.9636   21.4906 N   0  0  0  0  0  0  0  0  0  0  0  0
  -24.2251  -26.0356   15.7639 N   0  0  0  0  0  0  0  0  0  0  0  0
  -26.8943  -27.4504   13.7785 N   0  3  0  0  0  0  0  0  0  0  0  0
  -31.7004  -26.3924   19.6397 O   0  0  0  0  0  0  0  0  0  0  0  0
  -32.0838  -25.3648   23.9391 O   0  0  0  0  0  0  0  0  0  0  0  0
  -29.3390  -14.7220   23.3675 O   0  0  0  0  0  0  0  0  0  0  0  0
  -23.3015  -26.3055   21.3695 O   0  0  0  0  0  0  0  0  0  0  0  0
  -22.2542  -27.2168   17.4754 O   0  0  0  0  0  0  0  0  0  0  0  0
  -26.5154  -25.7501   15.9881 O   0  0  0  0  0  0  0  0  0  0  0  0
  -28.8471  -22.8234   18.8967 O   0  0  0  0  0  0  0  0  0  0  0  0
  -23.8881  -10.7791   19.4524 O   0  0  0  0  0  0  0  0  0  0  0  0
  -29.3742  -26.8770   22.0633 O   0  0  0  0  0  0  0  0  0  1  0  0
  -22.4000   -7.3043   23.4667 F   0  0  0  0  0  0  0  0  0  0  0  0
  -21.2265  -10.1730   19.8891 F   0  0  0  0  0  0  0  0  0  0  0  0
  -34.9383  -20.8608   21.6073 Cl  0  0  0  0  0  0  0  0  0  0  0  0
  1  2  1  0  0  0  0
  1  5  2  0  0  0  0
  2  6  2  0  0  0  0
  3  8  2  0  0  0  0
  3 17  1  0  0  0  0
  4  9  1  0  0  0  0
  4 17  2  0  0  0  0
  5 19  1  0  0  0  0
  6 21  1  0  0  0  0
  7 10  2  0  0  0  0
  7 20  1  0  0  0  0
  8 26  1  0  0  0  0
  9 26  2  0  0  0  0
 10 27  1  0  0  0  0
 11 12  2  0  0  0  0
 11 28  1  0  0  0  0
 12 29  1  0  0  0  0
 13 22  1  0  0  0  0
 13 27  2  0  0  0  0
 14 24  1  0  0  0  0
 14 25  2  0  0  0  0
 15 25  1  0  0  0  0
 15 31  2  0  0  0  0
 16 29  2  0  0  0  0
 16 30  1  0  0  0  0
 17 32  1  0  0  0  0
 18 32  1  0  0  0  0
 18 33  2  0  0  0  0
 18 36  1  0  0  0  0
 19 21  2  0  0  0  0
 19 41  1  0  0  0  0
 20 22  2  0  0  0  0
 20 42  1  0  0  0  0
 21 50  1  0  0  0  0
 22 43  1  0  0  0  0
 23 24  2  0  0  0  0
 23 31  1  0  0  0  0
 23 54  1  0  0  0  0
 24 66  1  0  0  0  0
 25 71  1  0  0  0  0
 26 82  1  0  0  0  0
 27 83  1  0  0  0  0
 28 30  2  0  0  0  0
 28 82  1  0  0  0  0
 29 84  1  0  0  0  0
 30 85  1  0  0  0  0
 31 86  1  0  0  0  0
 32 64  2  0  0  0  0
 33 65  1  0  0  0  0
 33 69  1  0  0  0  0
 34 51  1  0  0  0  0
 34 66  1  0  0  0  0
 34 75  2  0  0  0  0
 35 51  1  0  0  0  0
 35 66  1  0  0  0  0
 35 76  2  0  0  0  0
 36 70  1  0  0  0  0
 36 77  2  0  0  0  0
 37 52  1  0  0  0  0
 37 72  1  0  0  0  0
 37 78  2  0  0  0  0
 38 61  1  0  0  0  0
 38 67  1  0  0  0  0
 38 79  2  0  0  0  0
 39 62  1  0  0  0  0
 39 73  1  0  0  0  0
 39 80  2  0  0  0  0
 40 68  1  0  0  0  0
 40 71  1  0  0  0  0
 40 81  2  0  0  0  0
 41 44  1  0  0  0  0
 42 52  1  0  0  0  0
 43 67  1  0  0  0  0
 44 46  1  0  0  0  0
 45 47  1  0  0  0  0
 45 48  1  0  0  0  0
 46 50  1  0  0  0  0
 47 53  1  0  0  0  0
 48 68  1  0  0  0  0
 49 53  1  0  0  0  0
 49 68  1  0  0  0  0
 50 72  1  0  0  0  0
 51 60  1  0  0  0  0
 52 67  1  0  0  0  0
 53 65  1  0  0  0  0
 55 62  1  0  0  0  0
 56 63  1  0  0  0  0
 57 63  1  0  0  0  0
 58 63  1  0  0  0  0
 59 74  1  0  0  0  0
 60 83  1  0  0  0  0
 61 63  1  0  0  0  0
 61 73  1  0  0  0  0
 62 74  1  0  0  0  0
 64 65  1  0  0  0  0
M  CHG  1  74   1
M  ISO  4  40 100  60 101  71 100  83 101
M  END
> <Batch ID>
0064

> <Smiles>
CNC(C)C(=O)NC(C(=O)N1Cc2cc([101O:1][101CH2:1]C3C(=O)N(c4cc([100NH:0][100C:0](=O)N5CCCC(n6nc(-c7ccc(Oc8ccc(F)cc8F)cc7)c(C(N)=O)c6N)C5)cc(Cl)c4C)C3=O)ccc2CC1C(=O)NC1CCCc2ccccc21)C(C)(C)C

> <Shape>
0.248

> <Color>
0.076

> <Negative vol penalty>
0.000

$$$$

  -OEChem-04042323153D

 86 95  0     1  0  0  0  0  0999 V2000
  -30.3168  -12.0500   19.1985 C   0  0  0  0  0  0  0  0  0  0  0  0
  -30.1903  -13.4267   19.3538 C   0  0  0  0  0  0  0  0  0  0  0  0
  -28.7779  -25.1892   18.7207 C   0  0  0  0  0  0  0  0  0  0  0  0
  -27.1429  -24.3242   20.2751 C   0  0  0  0  0  0  0  0  0  0  0  0
  -29.1904  -11.2332   19.2872 C   0  0  0  0  0  0  0  0  0  0  0  0
  -28.9370  -13.9875   19.5969 C   0  0  0  0  0  0  0  0  0  0  0  0
  -25.8339  -19.4228   23.0818 C   0  0  0  0  0  0  0  0  0  0  0  0
  -18.1490  -29.4468   22.4502 C   0  0  0  0  0  0  0  0  0  0  0  0
  -19.5314  -29.6164   22.5262 C   0  0  0  0  0  0  0  0  0  0  0  0
  -29.6478  -24.1526   19.0589 C   0  0  0  0  0  0  0  0  0  0  0  0
  -28.0128  -23.2876   20.6132 C   0  0  0  0  0  0  0  0  0  0  0  0
  -24.9527  -20.4804   22.8615 C   0  0  0  0  0  0  0  0  0  0  0  0
  -28.9896  -20.3301   19.3020 C   0  0  0  0  0  0  0  0  0  0  0  0
  -28.4596  -19.0425   19.3855 C   0  0  0  0  0  0  0  0  0  0  0  0
  -23.0888  -18.9638   23.0735 C   0  0  0  0  0  0  0  0  0  0  0  0
  -18.4515  -27.0558   22.2813 C   0  0  0  0  0  0  0  0  0  0  0  0
  -29.1279  -18.9177   21.7039 C   0  0  0  0  0  0  0  0  0  0  0  0
  -27.5254  -25.2750   19.3288 C   0  0  0  0  0  0  0  0  0  0  0  0
  -26.0955  -26.6298   17.7079 C   0  0  0  0  0  0  0  0  0  0  0  0
  -27.9241  -11.7833   19.5412 C   0  0  0  0  0  0  0  0  0  0  0  0
  -25.3487  -18.1235   23.2891 C   0  0  0  0  0  0  0  0  0  0  0  0
  -27.7924  -13.1774   19.6878 C   0  0  0  0  0  0  0  0  0  0  0  0
  -23.9658  -17.8918   23.2987 C   0  0  0  0  0  0  0  0  0  0  0  0
  -17.6090  -28.1665   22.3277 C   0  0  0  0  0  0  0  0  0  0  0  0
  -19.8340  -27.2253   22.3573 C   0  0  0  0  0  0  0  0  0  0  0  0
  -20.3739  -28.5057   22.4798 C   0  0  0  0  0  0  0  0  0  0  0  0
  -29.2653  -23.2018   20.0051 C   0  0  0  0  0  0  0  0  0  0  0  0
  -23.5800  -20.2506   22.8544 C   0  0  0  0  0  0  0  0  0  0  0  0
  -29.5888  -20.9114   20.4195 C   0  0  0  0  0  0  0  0  0  0  0  0
  -28.5287  -18.3364   20.5864 C   0  0  0  0  0  0  0  0  0  0  0  0
  -29.6580  -20.2053   21.6204 C   0  0  0  0  0  0  0  0  0  0  0  0
  -26.6266  -26.3459   18.9803 C   0  0  0  0  0  0  0  0  0  0  0  0
  -25.3051  -27.7357   17.9047 C   0  0  0  0  0  0  0  0  0  0  0  0
  -21.6456  -25.9083   21.2907 C   0  0  0  0  0  0  0  0  0  0  0  0
  -26.2983  -25.9541   16.4597 C   0  0  0  0  0  0  0  0  0  0  0  0
  -25.6433  -15.3494   21.7655 C   0  0  0  0  0  0  0  0  0  0  0  0
  -24.0246  -14.2108   24.3357 C   0  0  0  0  0  0  0  0  0  0  0  0
  -21.8939  -14.8359   26.9272 C   0  0  0  0  0  0  0  0  0  0  0  0
  -22.4514  -29.9163   22.6803 C   0  0  0  0  0  0  0  0  0  0  0  0
  -26.7284  -10.8650   19.5816 C   0  0  0  0  0  0  0  0  0  0  0  0
  -26.3115  -16.9981   23.5519 C   0  0  0  0  0  0  0  0  0  0  0  0
  -23.3934  -16.5191   23.5365 C   0  0  0  0  0  0  0  0  0  0  0  0
  -22.6906  -24.8273   21.5015 C   0  0  0  0  0  0  0  0  0  0  0  0
  -25.4931  -11.5008   20.2140 C   0  0  0  0  0  0  0  0  0  0  0  0
  -24.8965  -31.5951   20.7104 C   0  0  0  0  0  0  0  0  0  0  0  0
  -25.2687  -12.9023   19.6553 C   0  0  0  0  0  0  0  0  0  0  0  0
  -25.5652  -30.4661   19.9229 C   0  0  0  0  0  0  0  0  0  0  0  0
  -21.5240  -23.9999   23.5028 C   0  0  0  0  0  0  0  0  0  0  0  0
  -24.5315  -31.1588   22.1282 C   0  0  0  0  0  0  0  0  0  0  0  0
  -20.3698  -24.9507   23.2268 C   0  0  0  0  0  0  0  0  0  0  0  0
  -24.4002  -28.8012   21.4255 C   0  0  0  0  0  0  0  0  0  0  0  0
  -26.4536  -13.8209   19.9773 C   0  0  1  0  0  0  0  0  0  0  0  0
  -25.7247  -15.6248   23.2404 C   0  0  1  0  0  0  0  0  0  0  0  0
  -22.1656  -23.5787   22.1909 C   0  0  2  0  0  0  0  0  0  0  0  0
  -24.7275  -29.1731   19.9702 C   0  0  2  0  0  0  0  0  0  0  0  0
  -16.1309  -27.9854   22.2483 C   0  0  0  0  0  0  0  0  0  0  0  0
  -20.7246  -13.6986   28.8343 C   0  0  0  0  0  0  0  0  0  0  0  0
  -22.0277  -12.9884   22.3792 C   0  0  0  0  0  0  0  0  0  0  0  0
  -20.4330  -12.7100   24.2891 C   0  0  0  0  0  0  0  0  0  0  0  0
  -22.6253  -11.5201   24.3135 C   0  0  0  0  0  0  0  0  0  0  0  0
  -23.2567  -16.5368   28.9293 C   0  0  0  0  0  0  0  0  0  0  0  0
  -23.2881  -22.5718   22.4273 C   0  0  0  0  0  0  0  0  0  1  0  0
  -22.5679  -14.0205   24.6833 C   0  0  1  0  0  0  0  0  0  0  0  0
  -21.9619  -14.4679   28.3984 C   0  0  2  0  0  0  0  0  0  0  0  0
  -21.9240  -12.8354   23.9098 C   0  0  0  0  0  0  0  0  0  0  0  0
  -26.2090  -27.2025   19.9162 N   0  0  0  0  0  0  0  0  0  0  0  0
  -25.4072  -28.0355   19.2313 N   0  0  0  0  0  0  0  0  0  0  0  0
  -20.6870  -26.0570   22.3078 N   0  0  0  0  0  0  0  0  0  0  0  0
  -24.3757  -15.4504   23.7825 N   0  0  0  0  0  0  0  0  0  0  0  0
  -23.7348  -29.9303   22.0942 N   0  0  0  0  0  0  0  0  0  0  0  0
  -24.5398  -28.4713   17.0706 N   0  0  0  0  0  0  0  0  0  0  0  0
  -25.4299  -24.9088   16.1169 N   0  0  0  0  0  0  0  0  0  0  0  0
  -21.7748  -28.7032   22.5578 N   0  0  0  0  0  0  0  0  0  0  0  0
  -26.3910  -14.2626   21.3540 N   0  0  0  0  0  0  0  0  0  0  0  0
  -22.5084  -13.8893   26.1351 N   0  0  0  0  0  0  0  0  0  0  0  0
  -22.0705  -15.6964   29.2351 N   0  3  0  0  0  0  0  0  0  0  0  0
  -21.7381  -26.6161   20.2841 O   0  0  0  0  0  0  0  0  0  0  0  0
  -27.2323  -26.2573   15.6791 O   0  0  0  0  0  0  0  0  0  0  0  0
  -24.9520  -16.0687   21.0539 O   0  0  0  0  0  0  0  0  0  0  0  0
  -24.8229  -13.2960   24.5539 O   0  0  0  0  0  0  0  0  0  0  0  0
  -21.3467  -15.8587   26.5211 O   0  0  0  0  0  0  0  0  0  0  0  0
  -21.9759  -30.9158   23.2251 O   0  0  0  0  0  0  0  0  0  0  0  0
  -30.1138  -22.1901   20.3352 O   0  0  0  0  0  0  0  0  0  0  0  0
  -22.7177  -21.2810   22.6390 O   0  0  0  0  0  0  0  0  0  1  0  0
  -28.0184  -17.1006   20.6669 F   0  0  0  0  0  0  0  0  0  0  0  0
  -30.2314  -20.7590   22.6976 F   0  0  0  0  0  0  0  0  0  0  0  0
  1  2  1  0  0  0  0
  1  5  2  0  0  0  0
  2  6  2  0  0  0  0
  3 10  2  0  0  0  0
  3 18  1  0  0  0  0
  4 11  1  0  0  0  0
  4 18  2  0  0  0  0
  5 20  1  0  0  0  0
  6 22  1  0  0  0  0
  7 12  2  0  0  0  0
  7 21  1  0  0  0  0
  8  9  2  0  0  0  0
  8 24  1  0  0  0  0
  9 26  1  0  0  0  0
 10 27  1  0  0  0  0
 11 27  2  0  0  0  0
 12 28  1  0  0  0  0
 13 14  2  0  0  0  0
 13 29  1  0  0  0  0
 14 30  1  0  0  0  0
 15 23  1  0  0  0  0
 15 28  2  0  0  0  0
 16 24  2  0  0  0  0
 16 25  1  0  0  0  0
 17 30  2  0  0  0  0
 17 31  1  0  0  0  0
 18 32  1  0  0  0  0
 19 32  1  0  0  0  0
 19 33  2  0  0  0  0
 19 35  1  0  0  0  0
 20 22  2  0  0  0  0
 20 40  1  0  0  0  0
 21 23  2  0  0  0  0
 21 41  1  0  0  0  0
 22 52  1  0  0  0  0
 23 42  1  0  0  0  0
 24 56  1  0  0  0  0
 25 26  2  0  0  0  0
 25 68  1  0  0  0  0
 26 73  1  0  0  0  0
 27 83  1  0  0  0  0
 28 84  1  0  0  0  0
 29 31  2  0  0  0  0
 29 83  1  0  0  0  0
 30 85  1  0  0  0  0
 31 86  1  0  0  0  0
 32 66  2  0  0  0  0
 33 67  1  0  0  0  0
 33 71  1  0  0  0  0
 34 43  1  0  0  0  0
 34 68  1  0  0  0  0
 34 77  2  0  0  0  0
 35 72  1  0  0  0  0
 35 78  2  0  0  0  0
 36 53  1  0  0  0  0
 36 74  1  0  0  0  0
 36 79  2  0  0  0  0
 37 63  1  0  0  0  0
 37 69  1  0  0  0  0
 37 80  2  0  0  0  0
 38 64  1  0  0  0  0
 38 75  1  0  0  0  0
 38 81  2  0  0  0  0
 39 70  1  0  0  0  0
 39 73  1  0  0  0  0
 39 82  2  0  0  0  0
 40 44  1  0  0  0  0
 41 53  1  0  0  0  0
 42 69  1  0  0  0  0
 43 54  1  0  0  0  0
 44 46  1  0  0  0  0
 45 47  1  0  0  0  0
 45 49  1  0  0  0  0
 46 52  1  0  0  0  0
 47 55  1  0  0  0  0
 48 50  1  0  0  0  0
 48 54  1  0  0  0  0
 49 70  1  0  0  0  0
 50 68  1  0  0  0  0
 51 55  1  0  0  0  0
 51 70  1  0  0  0  0
 52 74  1  0  0  0  0
 53 69  1  0  0  0  0
 54 62  1  0  0  0  0
 55 67  1  0  0  0  0
 57 64  1  0  0  0  0
 58 65  1  0  0  0  0
 59 65  1  0  0  0  0
 60 65  1  0  0  0  0
 61 76  1  0  0  0  0
 62 84  1  0  0  0  0
 63 65  1  0  0  0  0
 63 75  1  0  0  0  0
 64 76  1  0  0  0  0
 66 67  1  0  0  0  0
M  CHG  1  76   1
M  ISO  4  39 100  62 101  73 100  84 101
M  END
> <Batch ID>
0064

> <Smiles>
CNC(C)C(=O)NC(C(=O)N1Cc2cc([101O:1][101CH2:1]C3CCN(c4cc(C)ccc4[100NH:0][100C:0](=O)N4CCCC(n5nc(-c6ccc(Oc7ccc(F)cc7F)cc6)c(C(N)=O)c5N)C4)C(=O)C3)ccc2CC1C(=O)NC1CCCc2ccccc21)C(C)(C)C

> <Shape>
0.253

> <Color>
0.067

> <Negative vol penalty>
0.000

$$$$

  -OEChem-04042323153D

 88 96  0     1  0  0  0  0  0999 V2000
  -17.2269  -26.5112   21.8745 C   0  0  0  0  0  0  0  0  0  0  0  0
  -18.4990  -26.0792   21.5131 C   0  0  0  0  0  0  0  0  0  0  0  0
  -25.9223   -8.4506   21.1041 C   0  0  0  0  0  0  0  0  0  0  0  0
  -26.4857   -9.1568   18.8633 C   0  0  0  0  0  0  0  0  0  0  0  0
  -16.9455  -27.8755   21.9325 C   0  0  0  0  0  0  0  0  0  0  0  0
  -19.4902  -27.0114   21.2083 C   0  0  0  0  0  0  0  0  0  0  0  0
  -25.4844  -26.5224   22.3641 C   0  0  0  0  0  0  0  0  0  0  0  0
  -25.5526   -7.1973   20.6161 C   0  0  0  0  0  0  0  0  0  0  0  0
  -26.1161   -7.9035   18.3754 C   0  0  0  0  0  0  0  0  0  0  0  0
  -26.5648  -26.1415   21.5696 C   0  0  0  0  0  0  0  0  0  0  0  0
  -24.1205   -3.9299   19.9110 C   0  0  0  0  0  0  0  0  0  0  0  0
  -22.9288   -3.3760   20.3785 C   0  0  0  0  0  0  0  0  0  0  0  0
  -30.1064  -19.4467   18.8899 C   0  0  0  0  0  0  0  0  0  0  0  0
  -27.0297  -28.4614   21.0998 C   0  0  0  0  0  0  0  0  0  0  0  0
  -27.3619  -19.7481   19.2894 C   0  0  0  0  0  0  0  0  0  0  0  0
  -21.7063   -5.2670   19.5030 C   0  0  0  0  0  0  0  0  0  0  0  0
  -26.3889   -9.4304   20.2277 C   0  0  0  0  0  0  0  0  0  0  0  0
  -29.4631  -20.6088   18.4640 C   0  0  0  0  0  0  0  0  0  0  0  0
  -28.0454  -11.1224   21.1766 C   0  0  0  0  0  0  0  0  0  0  0  0
  -17.9365  -28.8251   21.6376 C   0  0  0  0  0  0  0  0  0  0  0  0
  -25.1614  -27.8776   22.5239 C   0  0  0  0  0  0  0  0  0  0  0  0
  -19.2215  -28.3897   21.2610 C   0  0  0  0  0  0  0  0  0  0  0  0
  -25.9463  -28.8571   21.8989 C   0  0  0  0  0  0  0  0  0  0  0  0
  -28.0052  -18.5859   19.7152 C   0  0  0  0  0  0  0  0  0  0  0  0
  -25.6495   -6.9237   19.2518 C   0  0  0  0  0  0  0  0  0  0  0  0
  -27.3360  -27.1109   20.9349 C   0  0  0  0  0  0  0  0  0  0  0  0
  -24.1052   -5.1525   19.2395 C   0  0  0  0  0  0  0  0  0  0  0  0
  -21.7217   -4.0445   20.1745 C   0  0  0  0  0  0  0  0  0  0  0  0
  -29.3775  -18.4352   19.5154 C   0  0  0  0  0  0  0  0  0  0  0  0
  -28.0909  -20.7595   18.6638 C   0  0  0  0  0  0  0  0  0  0  0  0
  -22.8981   -5.8210   19.0355 C   0  0  0  0  0  0  0  0  0  0  0  0
  -26.7704  -10.7254   20.7310 C   0  0  0  0  0  0  0  0  0  0  0  0
  -27.8857  -12.4348   21.5491 C   0  0  0  0  0  0  0  0  0  0  0  0
  -30.2441  -21.6845   17.7982 C   0  0  0  0  0  0  0  0  0  0  0  0
  -29.2651  -10.3721   21.2472 C   0  0  0  0  0  0  0  0  0  0  0  0
  -30.2671  -23.6953   18.9325 C   0  0  0  0  0  0  0  0  0  0  0  0
  -29.8557  -25.1255   19.1625 C   0  0  0  0  0  0  0  0  0  0  0  0
  -22.6377  -29.6795   21.8252 C   0  0  0  0  0  0  0  0  0  0  0  0
  -24.3033  -31.9511   23.4340 C   0  0  0  0  0  0  0  0  0  0  0  0
  -27.3274  -33.1043   24.5165 C   0  0  0  0  0  0  0  0  0  0  0  0
  -25.8960  -17.5526   20.6261 C   0  0  0  0  0  0  0  0  0  0  0  0
  -17.5719  -30.2882   21.6680 C   0  0  0  0  0  0  0  0  0  0  0  0
  -24.0090  -28.2734   23.4058 C   0  0  0  0  0  0  0  0  0  0  0  0
  -25.6536  -30.3263   22.0548 C   0  0  0  0  0  0  0  0  0  0  0  0
  -18.7829  -31.2173   21.6938 C   0  0  0  0  0  0  0  0  0  0  0  0
  -23.6899  -15.2038   22.1404 C   0  0  0  0  0  0  0  0  0  0  0  0
  -19.8109  -30.7834   20.6537 C   0  0  0  0  0  0  0  0  0  0  0  0
  -24.3996  -13.8619   21.9454 C   0  0  0  0  0  0  0  0  0  0  0  0
  -23.8843  -16.1279   20.9397 C   0  0  0  0  0  0  0  0  0  0  0  0
  -25.9907  -14.9978   20.3438 C   0  0  0  0  0  0  0  0  0  0  0  0
  -20.3302  -29.3707   20.9473 C   0  0  1  0  0  0  0  0  0  0  0  0
  -23.4584  -29.6592   23.0837 C   0  0  1  0  0  0  0  0  0  0  0  0
  -25.8777  -14.0577   21.5550 C   0  0  2  0  0  0  0  0  0  0  0  0
  -32.6773  -23.3521   19.4613 C   0  0  0  0  0  0  0  0  0  0  0  0
  -28.3748  -35.0062   25.7747 C   0  0  0  0  0  0  0  0  0  0  0  0
  -23.9708  -33.7476   20.9902 C   0  0  0  0  0  0  0  0  0  0  0  0
  -25.7923  -35.2045   21.9000 C   0  0  0  0  0  0  0  0  0  0  0  0
  -23.6754  -34.9079   23.1859 C   0  0  0  0  0  0  0  0  0  0  0  0
  -28.3747  -31.2945   26.6110 C   0  0  0  0  0  0  0  0  0  0  0  0
  -31.2493  -23.1076   19.9136 C   0  0  0  0  0  0  0  0  0  0  0  0
  -28.6505  -25.3437   20.0376 C   0  0  0  0  0  0  0  0  0  1  0  0
  -25.3250  -32.9963   23.0561 C   0  0  1  0  0  0  0  0  0  0  0  0
  -27.7867  -33.6073   25.8732 C   0  0  2  0  0  0  0  0  0  0  0  0
  -24.6954  -34.1864   22.2784 C   0  0  0  0  0  0  0  0  0  0  0  0
  -25.8672  -11.7061   20.8125 N   0  0  0  0  0  0  0  0  0  0  0  0
  -29.8228  -22.9830   17.9426 N   0  0  0  0  0  0  0  0  0  0  0  0
  -26.5757  -12.7323   21.3136 N   0  0  0  0  0  0  0  0  0  0  0  0
  -24.5126  -30.6626   22.9222 N   0  0  0  0  0  0  0  0  0  0  0  0
  -25.3089  -16.2696   20.6309 N   0  0  0  0  0  0  0  0  0  0  0  0
  -28.7394  -13.3516   22.0520 N   0  0  0  0  0  0  0  0  0  0  0  0
  -29.2531   -9.0361   20.8239 N   0  0  0  0  0  0  0  0  0  0  0  0
  -27.2631  -17.5600   20.3512 N   0  0  0  0  0  0  0  0  0  0  0  0
  -21.2986  -29.4015   22.0223 N   0  0  0  0  0  0  0  0  0  0  0  0
  -25.9946  -33.3791   24.2944 N   0  0  0  0  0  0  0  0  0  0  0  0
  -31.2613  -21.4322   17.0527 N   0  3  0  0  0  0  0  0  0  0  0  0
  -28.8251  -32.6996   26.4377 N   0  3  0  0  0  0  0  0  0  0  0  0
  -30.3301  -10.8668   21.6885 O   0  0  0  0  0  0  0  0  0  0  0  0
  -30.5109  -26.0030   18.6212 O   0  0  0  0  0  0  0  0  0  0  0  0
  -23.1791  -29.9304   20.7549 O   0  0  0  0  0  0  0  0  0  0  0  0
  -23.3585  -32.2646   24.1624 O   0  0  0  0  0  0  0  0  0  0  0  0
  -28.0770  -32.5288   23.7308 O   0  0  0  0  0  0  0  0  0  0  0  0
  -25.2404  -18.5673   20.8762 O   0  0  0  0  0  0  0  0  0  0  0  0
  -25.2890   -5.7007   18.7753 O   0  0  0  0  0  0  0  0  0  0  0  0
  -28.3907  -26.7417   20.1583 O   0  0  0  0  0  0  0  0  0  1  0  0
  -20.5772   -3.5117   20.6222 F   0  0  0  0  0  0  0  0  0  0  0  0
  -30.0062  -17.3225   19.9204 F   0  0  0  0  0  0  0  0  0  0  0  0
  -27.4619  -21.8726   18.2598 F   0  0  0  0  0  0  0  0  0  0  0  0
  -22.8769   -6.9952   18.3901 F   0  0  0  0  0  0  0  0  0  0  0  0
  1  2  1  0  0  0  0
  1  5  2  0  0  0  0
  2  6  2  0  0  0  0
  3  8  2  0  0  0  0
  3 17  1  0  0  0  0
  4  9  1  0  0  0  0
  4 17  2  0  0  0  0
  5 20  1  0  0  0  0
  6 22  1  0  0  0  0
  7 10  2  0  0  0  0
  7 21  1  0  0  0  0
  8 25  1  0  0  0  0
  9 25  2  0  0  0  0
 10 26  1  0  0  0  0
 11 12  2  0  0  0  0
 11 27  1  0  0  0  0
 12 28  1  0  0  0  0
 13 18  1  0  0  0  0
 13 29  2  0  0  0  0
 14 23  1  0  0  0  0
 14 26  2  0  0  0  0
 15 24  2  0  0  0  0
 15 30  1  0  0  0  0
 16 28  2  0  0  0  0
 16 31  1  0  0  0  0
 17 32  1  0  0  0  0
 18 30  2  0  0  0  0
 18 34  1  0  0  0  0
 19 32  1  0  0  0  0
 19 33  2  0  0  0  0
 19 35  1  0  0  0  0
 20 22  2  0  0  0  0
 20 42  1  0  0  0  0
 21 23  2  0  0  0  0
 21 43  1  0  0  0  0
 22 51  1  0  0  0  0
 23 44  1  0  0  0  0
 24 29  1  0  0  0  0
 24 72  1  0  0  0  0
 25 83  1  0  0  0  0
 26 84  1  0  0  0  0
 27 31  2  0  0  0  0
 27 83  1  0  0  0  0
 28 85  1  0  0  0  0
 29 86  1  0  0  0  0
 30 87  1  0  0  0  0
 31 88  1  0  0  0  0
 32 65  2  0  0  0  0
 33 67  1  0  0  0  0
 33 70  1  0  0  0  0
 34 66  1  0  0  0  0
 34 75  2  0  0  0  0
 35 71  1  0  0  0  0
 35 77  2  0  0  0  0
 36 37  1  0  0  0  0
 36 60  1  0  0  0  0
 36 66  2  0  0  0  0
 37 61  1  0  0  0  0
 37 78  2  0  0  0  0
 38 52  1  0  0  0  0
 38 73  1  0  0  0  0
 38 79  2  0  0  0  0
 39 62  1  0  0  0  0
 39 68  1  0  0  0  0
 39 80  2  0  0  0  0
 40 63  1  0  0  0  0
 40 74  1  0  0  0  0
 40 81  2  0  0  0  0
 41 69  1  0  0  0  0
 41 72  1  0  0  0  0
 41 82  2  0  0  0  0
 42 45  1  0  0  0  0
 43 52  1  0  0  0  0
 44 68  1  0  0  0  0
 45 47  1  0  0  0  0
 46 48  1  0  0  0  0
 46 49  1  0  0  0  0
 47 51  1  0  0  0  0
 48 53  1  0  0  0  0
 49 69  1  0  0  0  0
 50 53  1  0  0  0  0
 50 69  1  0  0  0  0
 51 73  1  0  0  0  0
 52 68  1  0  0  0  0
 53 67  1  0  0  0  0
 54 60  1  0  0  0  0
 55 63  1  0  0  0  0
 56 64  1  0  0  0  0
 57 64  1  0  0  0  0
 58 64  1  0  0  0  0
 59 76  1  0  0  0  0
 61 84  1  0  0  0  0
 62 64  1  0  0  0  0
 62 74  1  0  0  0  0
 63 76  1  0  0  0  0
 65 67  1  0  0  0  0
M  CHG  2  75   1  76   1
M  ISO  4  41 100  61 101  72 100  84 101
M  END
> <Batch ID>
0064

> <Smiles>
C=CC(NC(=N)c1cc(F)c([100NH:0][100C:0](=O)N2CCCC(n3nc(-c4ccc(Oc5ccc(F)cc5F)cc4)c(C(N)=O)c3N)C2)cc1F)C(=O)[101CH2:1][101O:1]c1ccc2c(c1)CN(C(=O)C(NC(=O)C(C)NC)C(C)(C)C)C(C(=O)NC1CCCc3ccccc31)C2

> <Shape>
0.270

> <Color>
0.092

> <Negative vol penalty>
0.000

$$$$

  -OEChem-04042323153D

 86 95  0     1  0  0  0  0  0999 V2000
  -26.3453  -36.0766   16.1768 C   0  0  0  0  0  0  0  0  0  0  0  0
  -26.5157  -34.6974   16.1128 C   0  0  0  0  0  0  0  0  0  0  0  0
  -24.7856   -8.7037   21.6436 C   0  0  0  0  0  0  0  0  0  0  0  0
  -23.2358   -9.9009   20.2287 C   0  0  0  0  0  0  0  0  0  0  0  0
  -26.4543  -36.7353   17.4008 C   0  0  0  0  0  0  0  0  0  0  0  0
  -26.7962  -33.9761   17.2727 C   0  0  0  0  0  0  0  0  0  0  0  0
  -24.9246  -28.3035   18.6237 C   0  0  0  0  0  0  0  0  0  0  0  0
  -24.9234  -19.4294   16.9340 C   0  0  0  0  0  0  0  0  0  0  0  0
  -23.7288   -8.2998   22.4595 C   0  0  0  0  0  0  0  0  0  0  0  0
  -22.1790   -9.4970   21.0445 C   0  0  0  0  0  0  0  0  0  0  0  0
  -25.5498  -27.0613   18.5259 C   0  0  0  0  0  0  0  0  0  0  0  0
  -21.3955   -6.6552   24.7102 C   0  0  0  0  0  0  0  0  0  0  0  0
  -24.4713  -18.1792   16.5118 C   0  0  0  0  0  0  0  0  0  0  0  0
  -21.3601   -5.3200   25.1121 C   0  0  0  0  0  0  0  0  0  0  0  0
  -26.1898  -27.2074   20.8472 C   0  0  0  0  0  0  0  0  0  0  0  0
  -26.8224  -18.3828   17.9997 C   0  0  0  0  0  0  0  0  0  0  0  0
  -21.2500   -4.6269   22.8003 C   0  0  0  0  0  0  0  0  0  0  0  0
  -24.5391   -9.5042   20.5282 C   0  0  0  0  0  0  0  0  0  0  0  0
  -26.1398   -9.2499   18.5582 C   0  0  0  0  0  0  0  0  0  0  0  0
  -26.7267  -36.0205   18.5778 C   0  0  0  0  0  0  0  0  0  0  0  0
  -24.9366  -29.0132   19.8331 C   0  0  0  0  0  0  0  0  0  0  0  0
  -26.9102  -34.6260   18.5135 C   0  0  0  0  0  0  0  0  0  0  0  0
  -25.5617  -28.4573   20.9584 C   0  0  0  0  0  0  0  0  0  0  0  0
  -26.0990  -19.5312   17.6779 C   0  0  0  0  0  0  0  0  0  0  0  0
  -26.3703  -17.1326   17.5775 C   0  0  0  0  0  0  0  0  0  0  0  0
  -22.4255   -8.6964   22.1600 C   0  0  0  0  0  0  0  0  0  0  0  0
  -26.1851  -26.5143   19.6369 C   0  0  0  0  0  0  0  0  0  0  0  0
  -21.3581   -6.9763   23.3532 C   0  0  0  0  0  0  0  0  0  0  0  0
  -21.2874   -4.3059   24.1572 C   0  0  0  0  0  0  0  0  0  0  0  0
  -25.1947  -17.0308   16.8336 C   0  0  0  0  0  0  0  0  0  0  0  0
  -21.2854   -5.9622   22.3983 C   0  0  0  0  0  0  0  0  0  0  0  0
  -25.6304   -9.9222   19.6853 C   0  0  0  0  0  0  0  0  0  0  0  0
  -27.1631  -10.0512   18.1139 C   0  0  0  0  0  0  0  0  0  0  0  0
  -27.9057  -22.4996   18.8085 C   0  0  0  0  0  0  0  0  0  0  0  0
  -27.8846  -21.0950   18.2865 C   0  0  0  0  0  0  0  0  0  0  0  0
  -25.7250   -8.0119   17.9658 C   0  0  0  0  0  0  0  0  0  0  0  0
  -26.0913  -31.8209   20.7749 C   0  0  0  0  0  0  0  0  0  0  0  0
  -24.5352  -31.0980   23.5277 C   0  0  0  0  0  0  0  0  0  0  0  0
  -23.2349  -28.6981   25.5764 C   0  0  0  0  0  0  0  0  0  0  0  0
  -28.2928  -15.8955   18.6357 C   0  0  0  0  0  0  0  0  0  0  0  0
  -26.8820  -36.7822   19.8702 C   0  0  0  0  0  0  0  0  0  0  0  0
  -24.2345  -30.3399   19.9294 C   0  0  0  0  0  0  0  0  0  0  0  0
  -25.5855  -29.1696   22.2852 C   0  0  0  0  0  0  0  0  0  0  0  0
  -26.8104  -35.8966   21.1116 C   0  0  0  0  0  0  0  0  0  0  0  0
  -30.3922  -13.2187   19.6867 C   0  0  0  0  0  0  0  0  0  0  0  0
  -27.6792  -34.6557   20.9328 C   0  0  0  0  0  0  0  0  0  0  0  0
  -29.4571  -12.0072   19.6971 C   0  0  0  0  0  0  0  0  0  0  0  0
  -29.6790  -14.4896   20.1447 C   0  0  0  0  0  0  0  0  0  0  0  0
  -25.6720  -21.9032   18.3940 C   0  0  0  0  0  0  0  0  0  0  0  0
  -27.4993  -13.5843   19.4384 C   0  0  0  0  0  0  0  0  0  0  0  0
  -27.1910  -33.8055   19.7537 C   0  0  1  0  0  0  0  0  0  0  0  0
  -26.5132  -22.9646   19.1081 C   0  0  2  0  0  0  0  0  0  0  0  0
  -24.7519  -31.2082   21.0720 C   0  0  1  0  0  0  0  0  0  0  0  0
  -28.1556  -12.2932   18.9226 C   0  0  2  0  0  0  0  0  0  0  0  0
  -22.0592  -28.4104   27.7746 C   0  0  0  0  0  0  0  0  0  0  0  0
  -27.1657  -31.5838   24.9954 C   0  0  0  0  0  0  0  0  0  0  0  0
  -26.2027  -30.3879   26.9730 C   0  0  0  0  0  0  0  0  0  0  0  0
  -25.1427  -32.4915   26.1521 C   0  0  0  0  0  0  0  0  0  0  0  0
  -20.8672  -27.4818   24.2828 C   0  0  0  0  0  0  0  0  0  0  0  0
  -26.2530  -24.3702   18.6102 C   0  0  0  0  0  0  0  0  0  1  0  0
  -24.8956  -30.3695   24.7999 C   0  0  1  0  0  0  0  0  0  0  0  0
  -21.8910  -28.5892   26.2738 C   0  0  2  0  0  0  0  0  0  0  0  0
  -25.8531  -31.1954   25.7047 C   0  0  0  0  0  0  0  0  0  0  0  0
  -26.2769  -11.0626   19.9413 N   0  0  0  0  0  0  0  0  0  0  0  0
  -27.2031  -11.1131   18.9688 N   0  0  0  0  0  0  0  0  0  0  0  0
  -26.5492  -20.7773   18.0986 N   0  0  0  0  0  0  0  0  0  0  0  0
  -24.8905  -30.4669   22.3272 N   0  0  0  0  0  0  0  0  0  0  0  0
  -28.4576  -14.6983   19.3639 N   0  0  0  0  0  0  0  0  0  0  0  0
  -28.0236   -9.9438   17.0793 N   0  0  0  0  0  0  0  0  0  0  0  0
  -24.6568   -7.3169   18.5491 N   0  0  0  0  0  0  0  0  0  0  0  0
  -27.1071  -15.9675   17.9054 N   0  0  0  0  0  0  0  0  0  0  0  0
  -26.0212  -33.0418   20.1314 N   0  0  0  0  0  0  0  0  0  0  0  0
  -23.6329  -30.0109   25.4367 N   0  0  0  0  0  0  0  0  0  0  0  0
  -21.1256  -27.4251   25.7446 N   0  3  0  0  0  0  0  0  0  0  0  0
  -28.9502  -23.0982   18.9687 O   0  0  0  0  0  0  0  0  0  0  0  0
  -28.9019  -20.4605   18.0999 O   0  0  0  0  0  0  0  0  0  0  0  0
  -26.2957   -7.5279   16.9590 O   0  0  0  0  0  0  0  0  0  0  0  0
  -27.1127  -31.2305   21.1063 O   0  0  0  0  0  0  0  0  0  0  0  0
  -23.9532  -32.1834   23.5965 O   0  0  0  0  0  0  0  0  0  0  0  0
  -23.8700  -27.7166   25.1970 O   0  0  0  0  0  0  0  0  0  0  0  0
  -29.1535  -16.7794   18.6367 O   0  0  0  0  0  0  0  0  0  0  0  0
  -21.3940   -8.3023   22.9557 O   0  0  0  0  0  0  0  0  0  0  0  0
  -26.7967  -25.3022   19.5440 O   0  0  0  0  0  0  0  0  0  1  0  0
  -21.2550   -3.0237   24.5433 F   0  0  0  0  0  0  0  0  0  0  0  0
  -24.7503  -15.8347   16.4227 F   0  0  0  0  0  0  0  0  0  0  0  0
  -21.2504   -6.2644   21.0932 F   0  0  0  0  0  0  0  0  0  0  0  0
  1  2  1  0  0  0  0
  1  5  2  0  0  0  0
  2  6  2  0  0  0  0
  3  9  2  0  0  0  0
  3 18  1  0  0  0  0
  4 10  1  0  0  0  0
  4 18  2  0  0  0  0
  5 20  1  0  0  0  0
  6 22  1  0  0  0  0
  7 11  2  0  0  0  0
  7 21  1  0  0  0  0
  8 13  2  0  0  0  0
  8 24  1  0  0  0  0
  9 26  1  0  0  0  0
 10 26  2  0  0  0  0
 11 27  1  0  0  0  0
 12 14  2  0  0  0  0
 12 28  1  0  0  0  0
 13 30  1  0  0  0  0
 14 29  1  0  0  0  0
 15 23  1  0  0  0  0
 15 27  2  0  0  0  0
 16 24  2  0  0  0  0
 16 25  1  0  0  0  0
 17 29  2  0  0  0  0
 17 31  1  0  0  0  0
 18 32  1  0  0  0  0
 19 32  1  0  0  0  0
 19 33  2  0  0  0  0
 19 36  1  0  0  0  0
 20 22  2  0  0  0  0
 20 41  1  0  0  0  0
 21 23  2  0  0  0  0
 21 42  1  0  0  0  0
 22 51  1  0  0  0  0
 23 43  1  0  0  0  0
 24 66  1  0  0  0  0
 25 30  2  0  0  0  0
 25 71  1  0  0  0  0
 26 82  1  0  0  0  0
 27 83  1  0  0  0  0
 28 31  2  0  0  0  0
 28 82  1  0  0  0  0
 29 84  1  0  0  0  0
 30 85  1  0  0  0  0
 31 86  1  0  0  0  0
 32 64  2  0  0  0  0
 33 65  1  0  0  0  0
 33 69  1  0  0  0  0
 34 35  1  0  0  0  0
 34 52  1  0  0  0  0
 34 75  2  0  0  0  0
 35 66  1  0  0  0  0
 35 76  2  0  0  0  0
 36 70  1  0  0  0  0
 36 77  2  0  0  0  0
 37 53  1  0  0  0  0
 37 72  1  0  0  0  0
 37 78  2  0  0  0  0
 38 61  1  0  0  0  0
 38 67  1  0  0  0  0
 38 79  2  0  0  0  0
 39 62  1  0  0  0  0
 39 73  1  0  0  0  0
 39 80  2  0  0  0  0
 40 68  1  0  0  0  0
 40 71  1  0  0  0  0
 40 81  2  0  0  0  0
 41 44  1  0  0  0  0
 42 53  1  0  0  0  0
 43 67  1  0  0  0  0
 44 46  1  0  0  0  0
 45 47  1  0  0  0  0
 45 48  1  0  0  0  0
 46 51  1  0  0  0  0
 47 54  1  0  0  0  0
 48 68  1  0  0  0  0
 49 52  1  0  0  0  0
 49 66  1  0  0  0  0
 50 54  1  0  0  0  0
 50 68  1  0  0  0  0
 51 72  1  0  0  0  0
 52 60  1  0  0  0  0
 53 67  1  0  0  0  0
 54 65  1  0  0  0  0
 55 62  1  0  0  0  0
 56 63  1  0  0  0  0
 57 63  1  0  0  0  0
 58 63  1  0  0  0  0
 59 74  1  0  0  0  0
 60 83  1  0  0  0  0
 61 63  1  0  0  0  0
 61 73  1  0  0  0  0
 62 74  1  0  0  0  0
 64 65  1  0  0  0  0
M  CHG  1  74   1
M  ISO  4  40 100  60 101  71 100  83 101
M  END
> <Batch ID>
0064

> <Smiles>
CNC(C)C(=O)NC(C(=O)N1Cc2cc([101O:1][101CH2:1]C3CN(c4ccc(F)c([100NH:0][100C:0](=O)N5CCCC(n6nc(-c7ccc(Oc8ccc(F)cc8F)cc7)c(C(N)=O)c6N)C5)c4)C(=O)C3=O)ccc2CC1C(=O)NC1CCCc2ccccc21)C(C)(C)C

> <Shape>
0.241

> <Color>
0.128

> <Negative vol penalty>
0.000

$$$$

  -OEChem-04042323153D

 85 93  0     1  0  0  0  0  0999 V2000
  -28.0292  -33.0505   26.7275 C   0  0  0  0  0  0  0  0  0  0  0  0
  -28.1775  -31.9239   25.9249 C   0  0  0  0  0  0  0  0  0  0  0  0
  -23.3839  -11.8085   23.3186 C   0  0  0  0  0  0  0  0  0  0  0  0
  -23.3494  -14.2160   23.1187 C   0  0  0  0  0  0  0  0  0  0  0  0
  -26.7567  -33.4600   27.1238 C   0  0  0  0  0  0  0  0  0  0  0  0
  -27.0535  -31.2054   25.5191 C   0  0  0  0  0  0  0  0  0  0  0  0
  -27.2061  -29.9682   20.6109 C   0  0  0  0  0  0  0  0  0  0  0  0
  -22.6248  -11.8945   24.4856 C   0  0  0  0  0  0  0  0  0  0  0  0
  -22.5902  -14.3020   24.2857 C   0  0  0  0  0  0  0  0  0  0  0  0
  -28.0154  -28.8917   20.2505 C   0  0  0  0  0  0  0  0  0  0  0  0
  -19.3819  -12.3668   25.3186 C   0  0  0  0  0  0  0  0  0  0  0  0
  -18.3078  -11.4882   25.4594 C   0  0  0  0  0  0  0  0  0  0  0  0
  -31.6760  -19.7505   20.9987 C   0  0  0  0  0  0  0  0  0  0  0  0
  -31.9674  -17.3649   20.7520 C   0  0  0  0  0  0  0  0  0  0  0  0
  -26.0716  -27.4654   20.1694 C   0  0  0  0  0  0  0  0  0  0  0  0
  -29.7957  -18.3602   20.3912 C   0  0  0  0  0  0  0  0  0  0  0  0
  -19.3127  -10.5802   27.4601 C   0  0  0  0  0  0  0  0  0  0  0  0
  -23.7463  -12.9692   22.6352 C   0  0  0  0  0  0  0  0  0  0  0  0
  -32.4970  -18.6235   21.0367 C   0  0  0  0  0  0  0  0  0  0  0  0
  -24.0529  -12.7649   20.1109 C   0  0  0  0  0  0  0  0  0  0  0  0
  -25.6158  -32.7518   26.7147 C   0  0  0  0  0  0  0  0  0  0  0  0
  -25.8226  -29.7986   20.7641 C   0  0  0  0  0  0  0  0  0  0  0  0
  -25.7646  -31.6050   25.9115 C   0  0  0  0  0  0  0  0  0  0  0  0
  -25.2467  -28.5419   20.5293 C   0  0  0  0  0  0  0  0  0  0  0  0
  -30.3253  -19.6188   20.6760 C   0  0  0  0  0  0  0  0  0  0  0  0
  -30.6168  -17.2332   20.4292 C   0  0  0  0  0  0  0  0  0  0  0  0
  -22.2279  -13.1412   24.9692 C   0  0  0  0  0  0  0  0  0  0  0  0
  -27.4486  -27.6394   20.0325 C   0  0  0  0  0  0  0  0  0  0  0  0
  -20.4216  -12.3521   26.2485 C   0  0  0  0  0  0  0  0  0  0  0  0
  -18.2731  -10.5950   26.5301 C   0  0  0  0  0  0  0  0  0  0  0  0
  -20.3869  -11.4588   27.3192 C   0  0  0  0  0  0  0  0  0  0  0  0
  -24.5309  -12.8811   21.4299 C   0  0  0  0  0  0  0  0  0  0  0  0
  -25.1870  -12.7178   19.3376 C   0  0  0  0  0  0  0  0  0  0  0  0
  -34.8585  -17.9785   20.8868 C   0  0  0  0  0  0  0  0  0  0  0  0
  -33.9055  -18.7615   21.3732 C   0  0  0  0  0  0  0  0  0  0  0  0
  -22.7043  -12.7050   19.6279 C   0  0  0  0  0  0  0  0  0  0  0  0
  -23.7785  -30.1086   23.1786 C   0  0  0  0  0  0  0  0  0  0  0  0
  -21.5705  -29.5409   20.8710 C   0  0  0  0  0  0  0  0  0  0  0  0
  -29.8502  -22.0826   20.8912 C   0  0  0  0  0  0  0  0  0  0  0  0
  -20.8494  -28.1922   17.8201 C   0  0  0  0  0  0  0  0  0  0  0  0
  -30.7552  -14.7357   20.1303 C   0  0  0  0  0  0  0  0  0  0  0  0
  -24.2644  -33.2053   27.2074 C   0  0  0  0  0  0  0  0  0  0  0  0
  -24.9599  -30.9760   21.1273 C   0  0  0  0  0  0  0  0  0  0  0  0
  -23.7640  -28.3120   20.6609 C   0  0  0  0  0  0  0  0  0  0  0  0
  -23.0984  -32.6061   26.4254 C   0  0  0  0  0  0  0  0  0  0  0  0
  -29.7792  -11.3694   19.5034 C   0  0  0  0  0  0  0  0  0  0  0  0
  -23.2969  -31.1054   26.2374 C   0  0  0  0  0  0  0  0  0  0  0  0
  -28.2779  -11.3659   19.8004 C   0  0  0  0  0  0  0  0  0  0  0  0
  -30.5445  -12.2817   20.4604 C   0  0  0  0  0  0  0  0  0  0  0  0
  -28.5343  -13.6529   20.8449 C   0  0  0  0  0  0  0  0  0  0  0  0
  -24.5678  -30.8137   25.4304 C   0  0  1  0  0  0  0  0  0  0  0  0
  -23.6305  -30.5712   21.7567 C   0  0  1  0  0  0  0  0  0  0  0  0
  -27.7130  -12.7984   19.8656 C   0  0  2  0  0  0  0  0  0  0  0  0
  -18.9497  -27.8516   16.2162 C   0  0  0  0  0  0  0  0  0  0  0  0
  -20.4856  -27.3005   22.6355 C   0  0  0  0  0  0  0  0  0  0  0  0
  -19.2663  -26.4118   20.6375 C   0  0  0  0  0  0  0  0  0  0  0  0
  -18.7323  -28.6860   21.5126 C   0  0  0  0  0  0  0  0  0  0  0  0
  -22.1977  -29.7670   15.7080 C   0  0  0  0  0  0  0  0  0  0  0  0
  -28.6457  -23.0013   20.7391 C   0  0  0  0  0  0  0  0  0  0  0  0
  -29.0309  -24.4042   20.2828 C   0  0  0  0  0  0  0  0  0  0  0  0
  -27.8077  -25.2892   20.0923 C   0  0  0  0  0  0  0  0  0  1  0  0
  -20.9167  -28.3070   20.2974 C   0  0  1  0  0  0  0  0  0  0  0  0
  -20.1058  -28.7528   16.6213 C   0  0  2  0  0  0  0  0  0  0  0  0
  -19.8784  -27.6799   21.2701 C   0  0  0  0  0  0  0  0  0  0  0  0
  -25.8648  -12.9061   21.4946 N   0  0  0  0  0  0  0  0  0  0  0  0
  -26.2346  -12.8048   20.2066 N   0  0  0  0  0  0  0  0  0  0  0  0
  -22.9634  -29.4930   21.0241 N   0  0  0  0  0  0  0  0  0  0  0  0
  -29.9558  -13.6227   20.4664 N   0  0  0  0  0  0  0  0  0  0  0  0
  -25.3804  -12.6107   18.0058 N   0  0  0  0  0  0  0  0  0  0  0  0
  -21.6580  -12.7666   20.5584 N   0  0  0  0  0  0  0  0  0  0  0  0
  -29.4917  -20.7617   20.6372 N   0  0  0  0  0  0  0  0  0  0  0  0
  -30.0787  -15.9550   20.1386 N   0  0  0  0  0  0  0  0  0  0  0  0
  -24.3372  -31.0504   24.0214 N   0  0  0  0  0  0  0  0  0  0  0  0
  -20.3637  -28.7010   19.0061 N   0  0  0  0  0  0  0  0  0  0  0  0
  -21.0266  -28.8879   15.4574 N   0  3  0  0  0  0  0  0  0  0  0  0
  -22.4352  -12.5836   18.4088 O   0  0  0  0  0  0  0  0  0  0  0  0
  -23.4116  -28.9811   23.4884 O   0  0  0  0  0  0  0  0  0  0  0  0
  -20.8721  -30.5140   21.1655 O   0  0  0  0  0  0  0  0  0  0  0  0
  -30.9589  -22.5080   21.1981 O   0  0  0  0  0  0  0  0  0  0  0  0
  -21.7667  -27.3810   17.7152 O   0  0  0  0  0  0  0  0  0  0  0  0
  -31.9452  -14.6126   19.8289 O   0  0  0  0  0  0  0  0  0  0  0  0
  -21.4869  -13.2255   26.1078 O   0  0  0  0  0  0  0  0  0  0  0  0
  -28.2363  -26.5867   19.6813 O   0  0  0  0  0  0  0  0  0  1  0  0
  -17.2408   -9.7524   26.6661 F   0  0  0  0  0  0  0  0  0  0  0  0
  -21.3822  -11.4408   28.2164 F   0  0  0  0  0  0  0  0  0  0  0  0
  1  2  1  0  0  0  0
  1  5  2  0  0  0  0
  2  6  2  0  0  0  0
  3  8  2  0  0  0  0
  3 18  1  0  0  0  0
  4  9  1  0  0  0  0
  4 18  2  0  0  0  0
  5 21  1  0  0  0  0
  6 23  1  0  0  0  0
  7 10  2  0  0  0  0
  7 22  1  0  0  0  0
  8 27  1  0  0  0  0
  9 27  2  0  0  0  0
 10 28  1  0  0  0  0
 11 12  2  0  0  0  0
 11 29  1  0  0  0  0
 12 30  1  0  0  0  0
 13 19  1  0  0  0  0
 13 25  2  0  0  0  0
 14 19  2  0  0  0  0
 14 26  1  0  0  0  0
 15 24  1  0  0  0  0
 15 28  2  0  0  0  0
 16 25  1  0  0  0  0
 16 26  2  0  0  0  0
 17 30  2  0  0  0  0
 17 31  1  0  0  0  0
 18 32  1  0  0  0  0
 19 35  1  0  0  0  0
 20 32  1  0  0  0  0
 20 33  2  0  0  0  0
 20 36  1  0  0  0  0
 21 23  2  0  0  0  0
 21 42  1  0  0  0  0
 22 24  2  0  0  0  0
 22 43  1  0  0  0  0
 23 51  1  0  0  0  0
 24 44  1  0  0  0  0
 25 71  1  0  0  0  0
 26 72  1  0  0  0  0
 27 82  1  0  0  0  0
 28 83  1  0  0  0  0
 29 31  2  0  0  0  0
 29 82  1  0  0  0  0
 30 84  1  0  0  0  0
 31 85  1  0  0  0  0
 32 65  2  0  0  0  0
 33 66  1  0  0  0  0
 33 69  1  0  0  0  0
 34 35  2  0  0  0  0
 36 70  1  0  0  0  0
 36 76  2  0  0  0  0
 37 52  1  0  0  0  0
 37 73  1  0  0  0  0
 37 77  2  0  0  0  0
 38 62  1  0  0  0  0
 38 67  1  0  0  0  0
 38 78  2  0  0  0  0
 39 59  1  0  0  0  0
 39 71  1  0  0  0  0
 39 79  2  0  0  0  0
 40 63  1  0  0  0  0
 40 74  1  0  0  0  0
 40 80  2  0  0  0  0
 41 68  1  0  0  0  0
 41 72  1  0  0  0  0
 41 81  2  0  0  0  0
 42 45  1  0  0  0  0
 43 52  1  0  0  0  0
 44 67  1  0  0  0  0
 45 47  1  0  0  0  0
 46 48  1  0  0  0  0
 46 49  1  0  0  0  0
 47 51  1  0  0  0  0
 48 53  1  0  0  0  0
 49 68  1  0  0  0  0
 50 53  1  0  0  0  0
 50 68  1  0  0  0  0
 51 73  1  0  0  0  0
 52 67  1  0  0  0  0
 53 66  1  0  0  0  0
 54 63  1  0  0  0  0
 55 64  1  0  0  0  0
 56 64  1  0  0  0  0
 57 64  1  0  0  0  0
 58 75  1  0  0  0  0
 59 60  1  0  0  0  0
 60 61  1  0  0  0  0
 61 83  1  0  0  0  0
 62 64  1  0  0  0  0
 62 74  1  0  0  0  0
 63 75  1  0  0  0  0
 65 66  1  0  0  0  0
M  CHG  1  75   1
M  ISO  4  41 100  61 101  72 100  83 101
M  END
> <Batch ID>
0064

> <Smiles>
C=Cc1cc(NC(=O)CC[101CH2:1][101O:1]c2ccc3c(c2)CN(C(=O)C(NC(=O)C(C)NC)C(C)(C)C)C(C(=O)NC2CCCc4ccccc42)C3)cc([100NH:0][100C:0](=O)N2CCCC(n3nc(-c4ccc(Oc5ccc(F)cc5F)cc4)c(C(N)=O)c3N)C2)c1

> <Shape>
0.278

> <Color>
0.113

> <Negative vol penalty>
0.000

$$$$

  -OEChem-04042323153D

 85 93  0     1  0  0  0  0  0999 V2000
  -19.0456  -24.3604   23.2842 C   0  0  0  0  0  0  0  0  0  0  0  0
  -20.3606  -24.4727   22.8443 C   0  0  0  0  0  0  0  0  0  0  0  0
  -23.9383   -9.3375   21.7562 C   0  0  0  0  0  0  0  0  0  0  0  0
  -24.1286  -11.0398   23.4601 C   0  0  0  0  0  0  0  0  0  0  0  0
  -18.2231  -25.4858   23.3141 C   0  0  0  0  0  0  0  0  0  0  0  0
  -20.8536  -25.7104   22.4328 C   0  0  0  0  0  0  0  0  0  0  0  0
  -25.4645  -26.6793   24.2891 C   0  0  0  0  0  0  0  0  0  0  0  0
  -23.4227   -8.4499   22.7006 C   0  0  0  0  0  0  0  0  0  0  0  0
  -23.6130  -10.1522   24.4045 C   0  0  0  0  0  0  0  0  0  0  0  0
  -26.5448  -26.0515   23.6705 C   0  0  0  0  0  0  0  0  0  0  0  0
  -20.4614   -7.8845   24.2315 C   0  0  0  0  0  0  0  0  0  0  0  0
  -19.3432   -7.1325   23.8715 C   0  0  0  0  0  0  0  0  0  0  0  0
  -28.1867  -20.2443   19.2400 C   0  0  0  0  0  0  0  0  0  0  0  0
  -27.0153  -28.0779   22.4491 C   0  0  0  0  0  0  0  0  0  0  0  0
  -30.4159  -18.5707   19.3525 C   0  0  0  0  0  0  0  0  0  0  0  0
  -20.5973   -5.0981   24.2259 C   0  0  0  0  0  0  0  0  0  0  0  0
  -24.2913  -10.6325   22.1360 C   0  0  0  0  0  0  0  0  0  0  0  0
  -29.4625  -20.7905   19.3801 C   0  0  0  0  0  0  0  0  0  0  0  0
  -24.1004  -12.4433   20.3493 C   0  0  0  0  0  0  0  0  0  0  0  0
  -18.7093  -26.7399   22.9119 C   0  0  0  0  0  0  0  0  0  0  0  0
  -25.1444  -28.0100   23.9837 C   0  0  0  0  0  0  0  0  0  0  0  0
  -20.0365  -26.8535   22.4560 C   0  0  0  0  0  0  0  0  0  0  0  0
  -25.9321  -28.7211   23.0671 C   0  0  0  0  0  0  0  0  0  0  0  0
  -29.1401  -18.0245   19.2125 C   0  0  0  0  0  0  0  0  0  0  0  0
  -23.2600   -8.8572   24.0247 C   0  0  0  0  0  0  0  0  0  0  0  0
  -27.3186  -26.7498   22.7482 C   0  0  0  0  0  0  0  0  0  0  0  0
  -21.6476   -7.2434   24.5886 C   0  0  0  0  0  0  0  0  0  0  0  0
  -19.4111   -5.7393   23.8688 C   0  0  0  0  0  0  0  0  0  0  0  0
  -28.0255  -18.8613   19.1562 C   0  0  0  0  0  0  0  0  0  0  0  0
  -30.5771  -19.9538   19.4363 C   0  0  0  0  0  0  0  0  0  0  0  0
  -21.7156   -5.8502   24.5858 C   0  0  0  0  0  0  0  0  0  0  0  0
  -24.8246  -11.5497   21.1610 C   0  0  0  0  0  0  0  0  0  0  0  0
  -25.0595  -13.0839   19.6034 C   0  0  0  0  0  0  0  0  0  0  0  0
  -29.6303  -22.2556   19.4687 C   0  0  0  0  0  0  0  0  0  0  0  0
  -22.6872  -12.6738   20.2762 C   0  0  0  0  0  0  0  0  0  0  0  0
  -22.6255  -29.4770   22.7162 C   0  0  0  0  0  0  0  0  0  0  0  0
  -24.2948  -32.1540   23.4706 C   0  0  0  0  0  0  0  0  0  0  0  0
  -29.0637  -24.3230   20.7239 C   0  0  0  0  0  0  0  0  0  0  0  0
  -27.3206  -33.5984   24.1074 C   0  0  0  0  0  0  0  0  0  0  0  0
  -29.9814  -15.6504   19.1668 C   0  0  0  0  0  0  0  0  0  0  0  0
  -17.7686  -27.9188   22.9170 C   0  0  0  0  0  0  0  0  0  0  0  0
  -23.9922  -28.6812   24.6796 C   0  0  0  0  0  0  0  0  0  0  0  0
  -25.6426  -30.1577   22.7197 C   0  0  0  0  0  0  0  0  0  0  0  0
  -18.4798  -29.2659   22.8186 C   0  0  0  0  0  0  0  0  0  0  0  0
  -29.9896  -12.0927   19.0258 C   0  0  0  0  0  0  0  0  0  0  0  0
  -19.5382  -29.2319   21.7207 C   0  0  0  0  0  0  0  0  0  0  0  0
  -28.5870  -11.7078   19.5020 C   0  0  0  0  0  0  0  0  0  0  0  0
  -30.5314  -13.3059   19.7797 C   0  0  0  0  0  0  0  0  0  0  0  0
  -28.2472  -14.0954   20.2577 C   0  0  0  0  0  0  0  0  0  0  0  0
  -20.6153  -28.1837   22.0251 C   0  0  1  0  0  0  0  0  0  0  0  0
  -23.4450  -29.8792   23.9096 C   0  0  1  0  0  0  0  0  0  0  0  0
  -27.6332  -12.9184   19.4823 C   0  0  2  0  0  0  0  0  0  0  0  0
  -28.3712  -35.8106   24.6549 C   0  0  0  0  0  0  0  0  0  0  0  0
  -23.9684  -33.0254   20.5647 C   0  0  0  0  0  0  0  0  0  0  0  0
  -25.7924  -34.7000   20.9349 C   0  0  0  0  0  0  0  0  0  0  0  0
  -23.6738  -34.8566   22.2423 C   0  0  0  0  0  0  0  0  0  0  0  0
  -28.3620  -32.5958   26.6899 C   0  0  0  0  0  0  0  0  0  0  0  0
  -28.2808  -24.7291   21.9440 C   0  0  0  0  0  0  0  0  0  1  0  0
  -25.3191  -33.0095   22.7650 C   0  0  1  0  0  0  0  0  0  0  0  0
  -27.7798  -34.5271   25.2169 C   0  0  2  0  0  0  0  0  0  0  0  0
  -24.6930  -33.8702   21.6316 C   0  0  0  0  0  0  0  0  0  0  0  0
  -26.1420  -11.6138   20.9505 N   0  0  0  0  0  0  0  0  0  0  0  0
  -26.2532  -12.5553   19.9981 N   0  0  0  0  0  0  0  0  0  0  0  0
  -24.5016  -30.7681   23.4219 N   0  0  0  0  0  0  0  0  0  0  0  0
  -29.5768  -14.4146   19.7145 N   0  0  0  0  0  0  0  0  0  0  0  0
  -24.9897  -14.0420   18.6550 N   0  0  0  0  0  0  0  0  0  0  0  0
  -21.8446  -11.9294   21.1130 N   0  0  0  0  0  0  0  0  0  0  0  0
  -28.9793  -16.6193   19.1274 N   0  0  0  0  0  0  0  0  0  0  0  0
  -29.0274  -22.9009   20.4768 N   0  0  0  0  0  0  0  0  0  0  0  0
  -21.5377  -28.6819   23.0229 N   0  0  0  0  0  0  0  0  0  0  0  0
  -25.9886  -33.7850   23.8037 N   0  0  0  0  0  0  0  0  0  0  0  0
  -30.3763  -22.8517   18.5390 N   0  3  0  0  0  0  0  0  0  0  0  0
  -28.8157  -33.8600   26.0552 N   0  3  0  0  0  0  0  0  0  0  0  0
  -22.1851  -13.5033   19.4803 O   0  0  0  0  0  0  0  0  0  0  0  0
  -22.9547  -29.8609   21.6000 O   0  0  0  0  0  0  0  0  0  0  0  0
  -23.3500  -32.6958   24.0498 O   0  0  0  0  0  0  0  0  0  0  0  0
  -29.6787  -25.0886   19.9956 O   0  0  0  0  0  0  0  0  0  0  0  0
  -28.0695  -32.7909   23.5619 O   0  0  0  0  0  0  0  0  0  0  0  0
  -31.1245  -15.8269   18.7377 O   0  0  0  0  0  0  0  0  0  0  0  0
  -22.7567   -7.9914   24.9464 O   0  0  0  0  0  0  0  0  0  0  0  0
  -28.3732  -26.1392   22.1425 O   0  0  0  0  0  0  0  0  0  1  0  0
  -18.3367   -5.0172   23.5246 F   0  0  0  0  0  0  0  0  0  0  0  0
  -26.7944  -18.3472   19.0220 F   0  0  0  0  0  0  0  0  0  0  0  0
  -31.8071  -20.4692   19.5710 F   0  0  0  0  0  0  0  0  0  0  0  0
  -22.8520   -5.2286   24.9291 F   0  0  0  0  0  0  0  0  0  0  0  0
  1  2  1  0  0  0  0
  1  5  2  0  0  0  0
  2  6  2  0  0  0  0
  3  8  2  0  0  0  0
  3 17  1  0  0  0  0
  4  9  1  0  0  0  0
  4 17  2  0  0  0  0
  5 20  1  0  0  0  0
  6 22  1  0  0  0  0
  7 10  2  0  0  0  0
  7 21  1  0  0  0  0
  8 25  1  0  0  0  0
  9 25  2  0  0  0  0
 10 26  1  0  0  0  0
 11 12  2  0  0  0  0
 11 27  1  0  0  0  0
 12 28  1  0  0  0  0
 13 18  1  0  0  0  0
 13 29  2  0  0  0  0
 14 23  1  0  0  0  0
 14 26  2  0  0  0  0
 15 24  2  0  0  0  0
 15 30  1  0  0  0  0
 16 28  2  0  0  0  0
 16 31  1  0  0  0  0
 17 32  1  0  0  0  0
 18 30  2  0  0  0  0
 18 34  1  0  0  0  0
 19 32  1  0  0  0  0
 19 33  2  0  0  0  0
 19 35  1  0  0  0  0
 20 22  2  0  0  0  0
 20 41  1  0  0  0  0
 21 23  2  0  0  0  0
 21 42  1  0  0  0  0
 22 50  1  0  0  0  0
 23 43  1  0  0  0  0
 24 29  1  0  0  0  0
 24 68  1  0  0  0  0
 25 80  1  0  0  0  0
 26 81  1  0  0  0  0
 27 31  2  0  0  0  0
 27 80  1  0  0  0  0
 28 82  1  0  0  0  0
 29 83  1  0  0  0  0
 30 84  1  0  0  0  0
 31 85  1  0  0  0  0
 32 62  2  0  0  0  0
 33 63  1  0  0  0  0
 33 66  1  0  0  0  0
 34 69  1  0  0  0  0
 34 72  2  0  0  0  0
 35 67  1  0  0  0  0
 35 74  2  0  0  0  0
 36 51  1  0  0  0  0
 36 70  1  0  0  0  0
 36 75  2  0  0  0  0
 37 59  1  0  0  0  0
 37 64  1  0  0  0  0
 37 76  2  0  0  0  0
 38 58  1  0  0  0  0
 38 69  1  0  0  0  0
 38 77  2  0  0  0  0
 39 60  1  0  0  0  0
 39 71  1  0  0  0  0
 39 78  2  0  0  0  0
 40 65  1  0  0  0  0
 40 68  1  0  0  0  0
 40 79  2  0  0  0  0
 41 44  1  0  0  0  0
 42 51  1  0  0  0  0
 43 64  1  0  0  0  0
 44 46  1  0  0  0  0
 45 47  1  0  0  0  0
 45 48  1  0  0  0  0
 46 50  1  0  0  0  0
 47 52  1  0  0  0  0
 48 65  1  0  0  0  0
 49 52  1  0  0  0  0
 49 65  1  0  0  0  0
 50 70  1  0  0  0  0
 51 64  1  0  0  0  0
 52 63  1  0  0  0  0
 53 60  1  0  0  0  0
 54 61  1  0  0  0  0
 55 61  1  0  0  0  0
 56 61  1  0  0  0  0
 57 73  1  0  0  0  0
 58 81  1  0  0  0  0
 59 61  1  0  0  0  0
 59 71  1  0  0  0  0
 60 73  1  0  0  0  0
 62 63  1  0  0  0  0
M  CHG  2  72   1  73   1
M  ISO  4  40 100  58 101  68 100  81 101
M  END
> <Batch ID>
0064

> <Smiles>
CNC(C)C(=O)NC(C(=O)N1Cc2cc([101O:1][101CH2:1]C(=O)NC(=N)c3cc(F)c([100NH:0][100C:0](=O)N4CCCC(n5nc(-c6ccc(Oc7ccc(F)cc7F)cc6)c(C(N)=O)c5N)C4)cc3F)ccc2CC1C(=O)NC1CCCc2ccccc21)C(C)(C)C

> <Shape>
0.321

> <Color>
0.113

> <Negative vol penalty>
0.000

$$$$

  -OEChem-04042323153D

 84 92  0     1  0  0  0  0  0999 V2000
  -28.4299  -33.6513   22.8697 C   0  0  0  0  0  0  0  0  0  0  0  0
  -28.4186  -32.2849   22.6083 C   0  0  0  0  0  0  0  0  0  0  0  0
  -32.6761  -18.2537   22.0147 C   0  0  0  0  0  0  0  0  0  0  0  0
  -23.0750   -9.9234   21.3068 C   0  0  0  0  0  0  0  0  0  0  0  0
  -23.8591  -10.6795   23.4633 C   0  0  0  0  0  0  0  0  0  0  0  0
  -27.3216  -34.2559   23.4612 C   0  0  0  0  0  0  0  0  0  0  0  0
  -27.2992  -31.5221   22.9394 C   0  0  0  0  0  0  0  0  0  0  0  0
  -25.9699  -28.3195   19.2487 C   0  0  0  0  0  0  0  0  0  0  0  0
  -31.9011  -19.3275   22.4526 C   0  0  0  0  0  0  0  0  0  0  0  0
  -32.0622  -17.1314   21.4585 C   0  0  0  0  0  0  0  0  0  0  0  0
  -22.3387   -8.9147   21.9281 C   0  0  0  0  0  0  0  0  0  0  0  0
  -23.1228   -9.6708   24.0847 C   0  0  0  0  0  0  0  0  0  0  0  0
  -26.7191  -27.1508   19.1193 C   0  0  0  0  0  0  0  0  0  0  0  0
  -22.9282   -5.8736   23.2804 C   0  0  0  0  0  0  0  0  0  0  0  0
  -22.9895   -4.5940   22.7288 C   0  0  0  0  0  0  0  0  0  0  0  0
  -25.0028  -25.9279   20.2932 C   0  0  0  0  0  0  0  0  0  0  0  0
  -20.6007   -4.6344   22.3694 C   0  0  0  0  0  0  0  0  0  0  0  0
  -23.8352  -10.8058   22.0744 C   0  0  0  0  0  0  0  0  0  0  0  0
  -24.1650  -13.1534   21.1323 C   0  0  0  0  0  0  0  0  0  0  0  0
  -26.1843  -33.5019   23.7909 C   0  0  0  0  0  0  0  0  0  0  0  0
  -24.7345  -28.3033   19.9120 C   0  0  0  0  0  0  0  0  0  0  0  0
  -26.1752  -32.1170   23.5371 C   0  0  0  0  0  0  0  0  0  0  0  0
  -24.2387  -27.0972   20.4274 C   0  0  0  0  0  0  0  0  0  0  0  0
  -30.5121  -19.2790   22.3345 C   0  0  0  0  0  0  0  0  0  0  0  0
  -29.8981  -18.1568   21.7783 C   0  0  0  0  0  0  0  0  0  0  0  0
  -30.6732  -17.0830   21.3403 C   0  0  0  0  0  0  0  0  0  0  0  0
  -22.3626   -8.7885   23.3170 C   0  0  0  0  0  0  0  0  0  0  0  0
  -26.2369  -25.9554   19.6441 C   0  0  0  0  0  0  0  0  0  0  0  0
  -21.7031   -6.5337   23.3766 C   0  0  0  0  0  0  0  0  0  0  0  0
  -21.8258   -3.9744   22.2733 C   0  0  0  0  0  0  0  0  0  0  0  0
  -20.5394   -5.9141   22.9211 C   0  0  0  0  0  0  0  0  0  0  0  0
  -24.5965  -11.8476   21.4331 C   0  0  0  0  0  0  0  0  0  0  0  0
  -25.2501  -13.7437   20.5317 C   0  0  0  0  0  0  0  0  0  0  0  0
  -28.0771  -23.0479   20.6463 C   0  0  0  0  0  0  0  0  0  0  0  0
  -27.3595  -24.1735   20.6617 C   0  0  0  0  0  0  0  0  0  1  0  0
  -22.8969  -13.7770   21.3742 C   0  0  0  0  0  0  0  0  0  0  0  0
  -28.4713  -22.4025   21.9265 C   0  0  0  0  0  0  0  0  0  0  0  0
  -23.5650  -29.7115   22.5106 C   0  0  0  0  0  0  0  0  0  0  0  0
  -20.7939  -28.3377   21.5330 C   0  0  0  0  0  0  0  0  0  0  0  0
  -19.2562  -25.8653   19.7526 C   0  0  0  0  0  0  0  0  0  0  0  0
  -30.7133  -14.7921   20.2931 C   0  0  0  0  0  0  0  0  0  0  0  0
  -25.0287  -34.1912   24.4721 C   0  0  0  0  0  0  0  0  0  0  0  0
  -23.9262  -29.5672   20.0197 C   0  0  0  0  0  0  0  0  0  0  0  0
  -22.9089  -27.0224   21.1305 C   0  0  0  0  0  0  0  0  0  0  0  0
  -23.7361  -33.3794   24.4494 C   0  0  0  0  0  0  0  0  0  0  0  0
  -29.5842  -11.7365   18.8559 C   0  0  0  0  0  0  0  0  0  0  0  0
  -24.0078  -31.9318   24.8464 C   0  0  0  0  0  0  0  0  0  0  0  0
  -28.1504  -11.6004   19.3735 C   0  0  0  0  0  0  0  0  0  0  0  0
  -30.5110  -12.3458   19.9064 C   0  0  0  0  0  0  0  0  0  0  0  0
  -28.6157  -13.4806   20.9970 C   0  0  0  0  0  0  0  0  0  0  0  0
  -24.9699  -31.2603   23.8590 C   0  0  1  0  0  0  0  0  0  0  0  0
  -22.9192  -29.5366   21.1652 C   0  0  1  0  0  0  0  0  0  0  0  0
  -27.6312  -12.9316   19.9515 C   0  0  2  0  0  0  0  0  0  0  0  0
  -28.4074  -18.1094   21.6535 C   0  0  0  0  0  0  0  0  0  0  0  0
  -16.9815  -24.9784   19.1729 C   0  0  0  0  0  0  0  0  0  0  0  0
  -20.5639  -27.1137   24.3185 C   0  0  0  0  0  0  0  0  0  0  0  0
  -18.8547  -25.5287   23.4049 C   0  0  0  0  0  0  0  0  0  0  0  0
  -18.4150  -27.9841   23.3808 C   0  0  0  0  0  0  0  0  0  0  0  0
  -19.6858  -26.3265   16.8609 C   0  0  0  0  0  0  0  0  0  0  0  0
  -29.7017  -20.4485   22.8138 C   0  0  0  0  0  0  0  0  0  0  0  0
  -20.1125  -27.0131   21.7784 C   0  0  1  0  0  0  0  0  0  0  0  0
  -18.1129  -25.9045   18.7548 C   0  0  2  0  0  0  0  0  0  0  0  0
  -19.5125  -26.9114   23.2091 C   0  0  0  0  0  0  0  0  0  0  0  0
  -25.8572  -11.6211   21.0546 N   0  0  0  0  0  0  0  0  0  0  0  0
  -26.2273  -12.7925   20.5098 N   0  0  0  0  0  0  0  0  0  0  0  0
  -22.1587  -28.2863   21.2160 N   0  0  0  0  0  0  0  0  0  0  0  0
  -29.9570  -13.6063   20.4053 N   0  0  0  0  0  0  0  0  0  0  0  0
  -25.4540  -14.9784   20.0255 N   0  0  0  0  0  0  0  0  0  0  0  0
  -21.8925  -13.0273   22.0014 N   0  0  0  0  0  0  0  0  0  0  0  0
  -30.0707  -15.9334   20.7718 N   0  0  0  0  0  0  0  0  0  0  0  0
  -29.2088  -21.2497   21.7181 N   0  0  0  0  0  0  0  0  0  0  0  0
  -24.2726  -30.8907   22.6460 N   0  0  0  0  0  0  0  0  0  0  0  0
  -19.1348  -26.8525   20.7076 N   0  0  0  0  0  0  0  0  0  0  0  0
  -18.5883  -25.4864   17.4056 N   0  3  0  0  0  0  0  0  0  0  0  0
  -22.6560  -14.9588   21.0292 O   0  0  0  0  0  0  0  0  0  0  0  0
  -28.1616  -22.8614   23.0214 O   0  0  0  0  0  0  0  0  0  0  0  0
  -23.4301  -28.8417   23.3632 O   0  0  0  0  0  0  0  0  0  0  0  0
  -20.1376  -29.3792   21.6124 O   0  0  0  0  0  0  0  0  0  0  0  0
  -20.1642  -25.0391   19.6932 O   0  0  0  0  0  0  0  0  0  0  0  0
  -31.8367  -14.7995   19.7832 O   0  0  0  0  0  0  0  0  0  0  0  0
  -21.6441   -7.8045   23.9237 O   0  0  0  0  0  0  0  0  0  0  0  0
  -26.9664  -24.8133   19.5198 O   0  0  0  0  0  0  0  0  0  1  0  0
  -21.8850   -2.7461   21.7422 F   0  0  0  0  0  0  0  0  0  0  0  0
  -19.3598   -6.5437   23.0097 F   0  0  0  0  0  0  0  0  0  0  0  0
  1  2  1  0  0  0  0
  1  6  2  0  0  0  0
  2  7  2  0  0  0  0
  3  9  2  0  0  0  0
  3 10  1  0  0  0  0
  4 11  2  0  0  0  0
  4 18  1  0  0  0  0
  5 12  1  0  0  0  0
  5 18  2  0  0  0  0
  6 20  1  0  0  0  0
  7 22  1  0  0  0  0
  8 13  2  0  0  0  0
  8 21  1  0  0  0  0
  9 24  1  0  0  0  0
 10 26  2  0  0  0  0
 11 27  1  0  0  0  0
 12 27  2  0  0  0  0
 13 28  1  0  0  0  0
 14 15  2  0  0  0  0
 14 29  1  0  0  0  0
 15 30  1  0  0  0  0
 16 23  1  0  0  0  0
 16 28  2  0  0  0  0
 17 30  2  0  0  0  0
 17 31  1  0  0  0  0
 18 32  1  0  0  0  0
 19 32  1  0  0  0  0
 19 33  2  0  0  0  0
 19 36  1  0  0  0  0
 20 22  2  0  0  0  0
 20 42  1  0  0  0  0
 21 23  2  0  0  0  0
 21 43  1  0  0  0  0
 22 51  1  0  0  0  0
 23 44  1  0  0  0  0
 24 25  2  0  0  0  0
 24 60  1  0  0  0  0
 25 26  1  0  0  0  0
 25 54  1  0  0  0  0
 26 70  1  0  0  0  0
 27 81  1  0  0  0  0
 28 82  1  0  0  0  0
 29 31  2  0  0  0  0
 29 81  1  0  0  0  0
 30 83  1  0  0  0  0
 31 84  1  0  0  0  0
 32 64  2  0  0  0  0
 33 65  1  0  0  0  0
 33 68  1  0  0  0  0
 34 35  2  0  0  0  0
 34 37  1  0  0  0  0
 35 82  1  0  0  0  0
 36 69  1  0  0  0  0
 36 75  2  0  0  0  0
 37 71  1  0  0  0  0
 37 76  2  0  0  0  0
 38 52  1  0  0  0  0
 38 72  1  0  0  0  0
 38 77  2  0  0  0  0
 39 61  1  0  0  0  0
 39 66  1  0  0  0  0
 39 78  2  0  0  0  0
 40 62  1  0  0  0  0
 40 73  1  0  0  0  0
 40 79  2  0  0  0  0
 41 67  1  0  0  0  0
 41 70  1  0  0  0  0
 41 80  2  0  0  0  0
 42 45  1  0  0  0  0
 43 52  1  0  0  0  0
 44 66  1  0  0  0  0
 45 47  1  0  0  0  0
 46 48  1  0  0  0  0
 46 49  1  0  0  0  0
 47 51  1  0  0  0  0
 48 53  1  0  0  0  0
 49 67  1  0  0  0  0
 50 53  1  0  0  0  0
 50 67  1  0  0  0  0
 51 72  1  0  0  0  0
 52 66  1  0  0  0  0
 53 65  1  0  0  0  0
 55 62  1  0  0  0  0
 56 63  1  0  0  0  0
 57 63  1  0  0  0  0
 58 63  1  0  0  0  0
 59 74  1  0  0  0  0
 60 71  1  0  0  0  0
 61 63  1  0  0  0  0
 61 73  1  0  0  0  0
 62 74  1  0  0  0  0
 64 65  1  0  0  0  0
M  CHG  1  74   1
M  ISO  4  35 101  41 100  70 100  82 101
M  END
> <Batch ID>
0064

> <Smiles>
CNC(C)C(=O)NC(C(=O)N1Cc2cc([101O:1][101CH:1]=CC(=O)NCc3cccc([100NH:0][100C:0](=O)N4CCCC(n5nc(-c6ccc(Oc7ccc(F)cc7F)cc6)c(C(N)=O)c5N)C4)c3C)ccc2CC1C(=O)NC1CCCc2ccccc21)C(C)(C)C

> <Shape>
0.358

> <Color>
0.181

> <Negative vol penalty>
0.000

$$$$

  -OEChem-04042323153D

 87 96  0     1  0  0  0  0  0999 V2000
  -27.8160  -33.5931   26.5407 C   0  0  0  0  0  0  0  0  0  0  0  0
  -28.0203  -32.4282   25.8082 C   0  0  0  0  0  0  0  0  0  0  0  0
  -23.9606  -13.2607   23.6078 C   0  0  0  0  0  0  0  0  0  0  0  0
  -25.9806  -13.8646   22.4281 C   0  0  0  0  0  0  0  0  0  0  0  0
  -26.5212  -33.9853   26.8776 C   0  0  0  0  0  0  0  0  0  0  0  0
  -26.9299  -31.6540   25.4132 C   0  0  0  0  0  0  0  0  0  0  0  0
  -27.2621  -30.1479   20.5897 C   0  0  0  0  0  0  0  0  0  0  0  0
  -23.6142  -12.3941   22.5712 C   0  0  0  0  0  0  0  0  0  0  0  0
  -25.6343  -12.9980   21.3914 C   0  0  0  0  0  0  0  0  0  0  0  0
  -28.1123  -29.0780   20.3138 C   0  0  0  0  0  0  0  0  0  0  0  0
  -24.4671   -9.2934   21.5266 C   0  0  0  0  0  0  0  0  0  0  0  0
  -24.0051   -8.0231   21.8706 C   0  0  0  0  0  0  0  0  0  0  0  0
  -26.2138  -27.5908   20.2606 C   0  0  0  0  0  0  0  0  0  0  0  0
  -29.9913  -21.8864   21.6827 C   0  0  0  0  0  0  0  0  0  0  0  0
  -30.0138  -19.6460   20.7789 C   0  0  0  0  0  0  0  0  0  0  0  0
  -21.9154   -8.4787   20.7471 C   0  0  0  0  0  0  0  0  0  0  0  0
  -25.1438  -13.9960   23.5363 C   0  0  0  0  0  0  0  0  0  0  0  0
  -25.7194  -14.5587   25.9569 C   0  0  0  0  0  0  0  0  0  0  0  0
  -25.4137  -33.2207   26.4783 C   0  0  0  0  0  0  0  0  0  0  0  0
  -25.8801  -29.9451   20.7141 C   0  0  0  0  0  0  0  0  0  0  0  0
  -25.6191  -32.0356   25.7463 C   0  0  0  0  0  0  0  0  0  0  0  0
  -25.3479  -28.6602   20.5356 C   0  0  0  0  0  0  0  0  0  0  0  0
  -31.3591  -21.3739   19.7584 C   0  0  0  0  0  0  0  0  0  0  0  0
  -30.8957  -22.2916   20.7012 C   0  0  0  0  0  0  0  0  0  0  0  0
  -29.5504  -20.5636   21.7216 C   0  0  0  0  0  0  0  0  0  0  0  0
  -24.4511  -12.2627   21.4630 C   0  0  0  0  0  0  0  0  0  0  0  0
  -27.5886  -27.7987   20.1521 C   0  0  0  0  0  0  0  0  0  0  0  0
  -23.6531  -10.1565   20.7928 C   0  0  0  0  0  0  0  0  0  0  0  0
  -22.7293   -7.6157   21.4809 C   0  0  0  0  0  0  0  0  0  0  0  0
  -30.9182  -20.0511   19.7972 C   0  0  0  0  0  0  0  0  0  0  0  0
  -22.3773   -9.7491   20.4031 C   0  0  0  0  0  0  0  0  0  0  0  0
  -25.5019  -14.8918   24.6065 C   0  0  0  0  0  0  0  0  0  0  0  0
  -26.0315  -15.7530   26.5591 C   0  0  0  0  0  0  0  0  0  0  0  0
  -32.7069  -23.9771   20.8174 C   0  0  0  0  0  0  0  0  0  0  0  0
  -25.6459  -13.2838   26.6087 C   0  0  0  0  0  0  0  0  0  0  0  0
  -23.7580  -30.3279   23.0494 C   0  0  0  0  0  0  0  0  0  0  0  0
  -21.6360  -29.5642   20.7179 C   0  0  0  0  0  0  0  0  0  0  0  0
  -21.0439  -28.0246   17.7303 C   0  0  0  0  0  0  0  0  0  0  0  0
  -28.0678  -20.9295   23.7336 C   0  0  0  0  0  0  0  0  0  0  0  0
  -24.0359  -33.6598   26.9067 C   0  0  0  0  0  0  0  0  0  0  0  0
  -24.9735  -31.1142   20.9854 C   0  0  0  0  0  0  0  0  0  0  0  0
  -23.8692  -28.3930   20.6390 C   0  0  0  0  0  0  0  0  0  0  0  0
  -22.9112  -32.9822   26.1283 C   0  0  0  0  0  0  0  0  0  0  0  0
  -25.0771  -20.4517   25.8517 C   0  0  0  0  0  0  0  0  0  0  0  0
  -23.1583  -31.4800   26.0319 C   0  0  0  0  0  0  0  0  0  0  0  0
  -24.9811  -18.9484   26.1166 C   0  0  0  0  0  0  0  0  0  0  0  0
  -26.5106  -20.9303   25.6678 C   0  0  0  0  0  0  0  0  0  0  0  0
  -30.3343  -24.7382   20.6436 C   0  0  0  0  0  0  0  0  0  0  0  0
  -26.8906  -18.7789   24.4440 C   0  0  0  0  0  0  0  0  0  0  0  0
  -32.0410  -26.0144   19.1847 C   0  0  0  0  0  0  0  0  0  0  0  0
  -24.4602  -31.1824   25.2783 C   0  0  1  0  0  0  0  0  0  0  0  0
  -23.6385  -30.7051   21.5999 C   0  0  1  0  0  0  0  0  0  0  0  0
  -30.5662  -25.7358   19.4925 C   0  0  2  0  0  0  0  0  0  0  0  0
  -26.2490  -18.1811   25.7059 C   0  0  2  0  0  0  0  0  0  0  0  0
  -32.3270  -21.7837   18.6960 C   0  0  0  0  0  0  0  0  0  0  0  0
  -19.2027  -27.5366   16.0965 C   0  0  0  0  0  0  0  0  0  0  0  0
  -20.5649  -27.3946   22.5768 C   0  0  0  0  0  0  0  0  0  0  0  0
  -19.4310  -26.3582   20.5999 C   0  0  0  0  0  0  0  0  0  0  0  0
  -18.8060  -28.6606   21.3286 C   0  0  0  0  0  0  0  0  0  0  0  0
  -22.4074  -29.5185   15.5697 C   0  0  0  0  0  0  0  0  0  0  0  0
  -29.8108  -27.0374   19.7807 C   0  0  0  0  0  0  0  0  0  1  0  0
  -21.0351  -28.2807   20.1978 C   0  0  1  0  0  0  0  0  0  0  0  0
  -20.3198  -28.4940   16.4813 C   0  0  2  0  0  0  0  0  0  0  0  0
  -19.9874  -27.6779   21.1757 C   0  0  0  0  0  0  0  0  0  0  0  0
  -25.6621  -16.1955   24.3647 N   0  0  0  0  0  0  0  0  0  0  0  0
  -25.9836  -16.6923   25.5714 N   0  0  0  0  0  0  0  0  0  0  0  0
  -31.3392  -23.6621   20.6777 N   0  0  0  0  0  0  0  0  0  0  0  0
  -23.0246  -29.5675   20.9119 N   0  0  0  0  0  0  0  0  0  0  0  0
  -27.1792  -20.2173   24.5755 N   0  0  0  0  0  0  0  0  0  0  0  0
  -26.3396  -16.0809   27.8319 N   0  0  0  0  0  0  0  0  0  0  0  0
  -26.8050  -12.4985   26.6731 N   0  0  0  0  0  0  0  0  0  0  0  0
  -28.6316  -20.1519   22.7190 N   0  0  0  0  0  0  0  0  0  0  0  0
  -24.2643  -31.3322   23.8522 N   0  0  0  0  0  0  0  0  0  0  0  0
  -20.5091  -28.5843   18.8713 N   0  0  0  0  0  0  0  0  0  0  0  0
  -21.2701  -28.5914   15.3374 N   0  3  0  0  0  0  0  0  0  0  0  0
  -33.6160  -23.1998   21.0874 O   0  0  0  0  0  0  0  0  0  0  0  0
  -24.5798  -12.8465   27.1045 O   0  0  0  0  0  0  0  0  0  0  0  0
  -23.4149  -29.2090   23.4129 O   0  0  0  0  0  0  0  0  0  0  0  0
  -20.9013  -30.5306   20.9370 O   0  0  0  0  0  0  0  0  0  0  0  0
  -21.9869  -27.2372   17.6973 O   0  0  0  0  0  0  0  0  0  0  0  0
  -28.2917  -22.1309   23.8970 O   0  0  0  0  0  0  0  0  0  0  0  0
  -24.1135  -11.4171   20.4513 O   0  0  0  0  0  0  0  0  0  0  0  0
  -28.4163  -26.7525   19.8835 O   0  0  0  0  0  0  0  0  0  1  0  0
  -22.2864   -6.3951   21.8100 F   0  0  0  0  0  0  0  0  0  0  0  0
  -31.3562  -19.1618   18.8950 F   0  0  0  0  0  0  0  0  0  0  0  0
  -21.5912  -10.5733   19.6970 F   0  0  0  0  0  0  0  0  0  0  0  0
  -33.1054  -25.6929   20.6130 S   0  0  0  0  0  0  0  0  0  0  0  0
  1  2  1  0  0  0  0
  1  5  2  0  0  0  0
  2  6  2  0  0  0  0
  3  8  2  0  0  0  0
  3 17  1  0  0  0  0
  4  9  1  0  0  0  0
  4 17  2  0  0  0  0
  5 19  1  0  0  0  0
  6 21  1  0  0  0  0
  7 10  2  0  0  0  0
  7 20  1  0  0  0  0
  8 26  1  0  0  0  0
  9 26  2  0  0  0  0
 10 27  1  0  0  0  0
 11 12  2  0  0  0  0
 11 28  1  0  0  0  0
 12 29  1  0  0  0  0
 13 22  1  0  0  0  0
 13 27  2  0  0  0  0
 14 24  1  0  0  0  0
 14 25  2  0  0  0  0
 15 25  1  0  0  0  0
 15 30  2  0  0  0  0
 16 29  2  0  0  0  0
 16 31  1  0  0  0  0
 17 32  1  0  0  0  0
 18 32  1  0  0  0  0
 18 33  2  0  0  0  0
 18 35  1  0  0  0  0
 19 21  2  0  0  0  0
 19 40  1  0  0  0  0
 20 22  2  0  0  0  0
 20 41  1  0  0  0  0
 21 51  1  0  0  0  0
 22 42  1  0  0  0  0
 23 24  2  0  0  0  0
 23 30  1  0  0  0  0
 23 55  1  0  0  0  0
 24 67  1  0  0  0  0
 25 72  1  0  0  0  0
 26 82  1  0  0  0  0
 27 83  1  0  0  0  0
 28 31  2  0  0  0  0
 28 82  1  0  0  0  0
 29 84  1  0  0  0  0
 30 85  1  0  0  0  0
 31 86  1  0  0  0  0
 32 65  2  0  0  0  0
 33 66  1  0  0  0  0
 33 70  1  0  0  0  0
 34 67  1  0  0  0  0
 34 76  2  0  0  0  0
 34 87  1  0  0  0  0
 35 71  1  0  0  0  0
 35 77  2  0  0  0  0
 36 52  1  0  0  0  0
 36 73  1  0  0  0  0
 36 78  2  0  0  0  0
 37 62  1  0  0  0  0
 37 68  1  0  0  0  0
 37 79  2  0  0  0  0
 38 63  1  0  0  0  0
 38 74  1  0  0  0  0
 38 80  2  0  0  0  0
 39 69  1  0  0  0  0
 39 72  1  0  0  0  0
 39 81  2  0  0  0  0
 40 43  1  0  0  0  0
 41 52  1  0  0  0  0
 42 68  1  0  0  0  0
 43 45  1  0  0  0  0
 44 46  1  0  0  0  0
 44 47  1  0  0  0  0
 45 51  1  0  0  0  0
 46 54  1  0  0  0  0
 47 69  1  0  0  0  0
 48 53  1  0  0  0  0
 48 67  1  0  0  0  0
 49 54  1  0  0  0  0
 49 69  1  0  0  0  0
 50 53  1  0  0  0  0
 50 87  1  0  0  0  0
 51 73  1  0  0  0  0
 52 68  1  0  0  0  0
 53 61  1  0  0  0  0
 54 66  1  0  0  0  0
 56 63  1  0  0  0  0
 57 64  1  0  0  0  0
 58 64  1  0  0  0  0
 59 64  1  0  0  0  0
 60 75  1  0  0  0  0
 61 83  1  0  0  0  0
 62 64  1  0  0  0  0
 62 74  1  0  0  0  0
 63 75  1  0  0  0  0
 65 66  1  0  0  0  0
M  CHG  1  75   1
M  ISO  4  39 100  61 101  72 100  83 101
M  END
> <Batch ID>
0064

> <Smiles>
CNC(C)C(=O)NC(C(=O)N1Cc2cc([101O:1][101CH2:1]C3CSC(=O)N(c4cc([100NH:0][100C:0](=O)N5CCCC(n6nc(-c7ccc(Oc8ccc(F)cc8F)cc7)c(C(N)=O)c6N)C5)cc(F)c4C)C3)ccc2CC1C(=O)NC1CCCc2ccccc21)C(C)(C)C

> <Shape>
0.245

> <Color>
0.077

> <Negative vol penalty>
0.000

$$$$

  -OEChem-04042323153D

 90 99  0     1  0  0  0  0  0999 V2000
  -44.2446  -23.6785   20.1168 C   0  0  0  0  0  0  0  0  0  0  0  0
  -43.0078  -23.9151   20.7084 C   0  0  0  0  0  0  0  0  0  0  0  0
  -23.2424  -10.1673   22.1500 C   0  0  0  0  0  0  0  0  0  0  0  0
  -23.5328   -9.5451   19.8336 C   0  0  0  0  0  0  0  0  0  0  0  0
  -44.4972  -24.1373   18.8247 C   0  0  0  0  0  0  0  0  0  0  0  0
  -42.0233  -24.6116   20.0084 C   0  0  0  0  0  0  0  0  0  0  0  0
  -37.4631  -22.4436   20.3952 C   0  0  0  0  0  0  0  0  0  0  0  0
  -32.4181  -18.3933   22.1619 C   0  0  0  0  0  0  0  0  0  0  0  0
  -31.8890  -17.1926   21.6887 C   0  0  0  0  0  0  0  0  0  0  0  0
  -22.4828   -9.0171   22.3637 C   0  0  0  0  0  0  0  0  0  0  0  0
  -22.7732   -8.3949   20.0474 C   0  0  0  0  0  0  0  0  0  0  0  0
  -36.7578  -22.6513   21.5797 C   0  0  0  0  0  0  0  0  0  0  0  0
  -23.0412   -5.7183   22.8525 C   0  0  0  0  0  0  0  0  0  0  0  0
  -23.3095   -4.9677   23.9971 C   0  0  0  0  0  0  0  0  0  0  0  0
  -35.4450  -24.3577   20.4916 C   0  0  0  0  0  0  0  0  0  0  0  0
  -21.0401   -5.3082   24.7525 C   0  0  0  0  0  0  0  0  0  0  0  0
  -23.7674  -10.4313   20.8849 C   0  0  0  0  0  0  0  0  0  0  0  0
  -24.1402  -12.9545   20.8378 C   0  0  0  0  0  0  0  0  0  0  0  0
  -43.5119  -24.8313   18.1049 C   0  0  0  0  0  0  0  0  0  0  0  0
  -37.1716  -23.2002   19.2511 C   0  0  0  0  0  0  0  0  0  0  0  0
  -42.2634  -25.0812   18.7059 C   0  0  0  0  0  0  0  0  0  0  0  0
  -36.1464  -24.1559   19.2931 C   0  0  0  0  0  0  0  0  0  0  0  0
  -30.3689  -18.8209   23.3682 C   0  0  0  0  0  0  0  0  0  0  0  0
  -29.8398  -17.6202   22.8949 C   0  0  0  0  0  0  0  0  0  0  0  0
  -31.6581  -19.2075   23.0017 C   0  0  0  0  0  0  0  0  0  0  0  0
  -30.5999  -16.8060   22.0552 C   0  0  0  0  0  0  0  0  0  0  0  0
  -22.2482   -8.1309   21.3124 C   0  0  0  0  0  0  0  0  0  0  0  0
  -35.7505  -23.6105   21.6289 C   0  0  0  0  0  0  0  0  0  0  0  0
  -21.7723   -6.2640   22.6579 C   0  0  0  0  0  0  0  0  0  0  0  0
  -22.3090   -4.7625   24.9471 C   0  0  0  0  0  0  0  0  0  0  0  0
  -20.7717   -6.0589   23.6079 C   0  0  0  0  0  0  0  0  0  0  0  0
  -24.5517  -11.6195   20.6633 C   0  0  0  0  0  0  0  0  0  0  0  0
  -25.2425  -13.7006   20.4991 C   0  0  0  0  0  0  0  0  0  0  0  0
  -32.0655  -21.6417   22.7573 C   0  0  0  0  0  0  0  0  0  0  0  0
  -22.8748  -13.4737   21.2676 C   0  0  0  0  0  0  0  0  0  0  0  0
  -38.7944  -25.2515   17.4449 C   0  0  0  0  0  0  0  0  0  0  0  0
  -36.1344  -25.1235   15.5928 C   0  0  0  0  0  0  0  0  0  0  0  0
  -32.5643  -25.0742   16.1117 C   0  0  0  0  0  0  0  0  0  0  0  0
  -30.7204  -14.6739   20.7189 C   0  0  0  0  0  0  0  0  0  0  0  0
  -43.8476  -25.3489   16.7287 C   0  0  0  0  0  0  0  0  0  0  0  0
  -37.9236  -22.9454   17.9736 C   0  0  0  0  0  0  0  0  0  0  0  0
  -35.7810  -24.9804   18.0868 C   0  0  0  0  0  0  0  0  0  0  0  0
  -32.3953  -22.9302   23.4920 C   0  0  0  0  0  0  0  0  0  0  0  0
  -42.6215  -25.7522   15.9137 C   0  0  0  0  0  0  0  0  0  0  0  0
  -29.5843  -12.3422   18.2797 C   0  0  0  0  0  0  0  0  0  0  0  0
  -41.6743  -26.5991   16.7578 C   0  0  0  0  0  0  0  0  0  0  0  0
  -28.1399  -12.0561   18.6967 C   0  0  0  0  0  0  0  0  0  0  0  0
  -33.3470  -21.6742   25.3854 C   0  0  0  0  0  0  0  0  0  0  0  0
  -30.4983  -12.5255   19.4899 C   0  0  0  0  0  0  0  0  0  0  0  0
  -33.1458  -20.3691   24.6298 C   0  0  0  0  0  0  0  0  0  0  0  0
  -28.5959  -13.2337   20.8859 C   0  0  0  0  0  0  0  0  0  0  0  0
  -41.1613  -25.8114   17.9694 C   0  0  1  0  0  0  0  0  0  0  0  0
  -37.8906  -24.1311   17.0142 C   0  0  1  0  0  0  0  0  0  0  0  0
  -27.6248  -13.1059   19.7009 C   0  0  2  0  0  0  0  0  0  0  0  0
  -33.5905  -22.8531   24.4415 C   0  0  2  0  0  0  0  0  0  0  0  0
  -28.4561  -17.2071   23.2894 C   0  0  0  0  0  0  0  0  0  0  0  0
  -33.6736  -24.1507   25.2650 C   0  0  0  0  0  0  0  0  0  0  0  0
  -29.2641  -21.0693   23.6466 C   0  0  0  0  0  0  0  0  0  0  0  0
  -30.1973  -19.8660   25.6556 C   0  0  0  0  0  0  0  0  0  0  0  0
  -30.7231  -24.1214   14.6976 C   0  0  0  0  0  0  0  0  0  0  0  0
  -35.9545  -27.9427   14.4397 C   0  0  0  0  0  0  0  0  0  0  0  0
  -33.4651  -27.6832   14.3773 C   0  0  0  0  0  0  0  0  0  0  0  0
  -34.9097  -26.1670   13.0219 C   0  0  0  0  0  0  0  0  0  0  0  0
  -31.5393  -23.4300   18.3489 C   0  0  0  0  0  0  0  0  0  0  0  0
  -34.9038  -22.6959   23.6543 C   0  0  0  0  0  0  0  0  0  1  0  0
  -29.5520  -19.6927   24.2699 C   0  0  0  0  0  0  0  0  0  0  0  0
  -34.8349  -25.8895   15.5338 C   0  0  1  0  0  0  0  0  0  0  0  0
  -31.6309  -23.8964   15.8968 C   0  0  2  0  0  0  0  0  0  0  0  0
  -34.8053  -26.9174   14.3676 C   0  0  0  0  0  0  0  0  0  0  0  0
  -25.8166  -11.5202   20.2461 N   0  0  0  0  0  0  0  0  0  0  0  0
  -26.2094  -12.8022   20.1554 N   0  0  0  0  0  0  0  0  0  0  0  0
  -32.2282  -20.4491   23.4814 N   0  0  0  0  0  0  0  0  0  0  0  0
  -36.5493  -24.6986   16.8629 N   0  0  0  0  0  0  0  0  0  0  0  0
  -29.9491  -13.5377   20.3947 N   0  0  0  0  0  0  0  0  0  0  0  0
  -25.4693  -15.0309   20.4646 N   0  0  0  0  0  0  0  0  0  0  0  0
  -21.8508  -12.5677   21.5760 N   0  0  0  0  0  0  0  0  0  0  0  0
  -30.0817  -15.5831   21.5614 N   0  0  0  0  0  0  0  0  0  0  0  0
  -40.1218  -24.8878   17.5684 N   0  0  0  0  0  0  0  0  0  0  0  0
  -33.7739  -24.8897   15.4762 N   0  0  0  0  0  0  0  0  0  0  0  0
  -30.7768  -23.6861   17.0998 N   0  3  0  0  0  0  0  0  0  0  0  0
  -31.6252  -21.7269   21.6076 O   0  0  0  0  0  0  0  0  0  0  0  0
  -22.6533  -14.7050   21.3593 O   0  0  0  0  0  0  0  0  0  0  0  0
  -38.3227  -26.3640   17.6486 O   0  0  0  0  0  0  0  0  0  0  0  0
  -36.7547  -24.9037   14.5495 O   0  0  0  0  0  0  0  0  0  0  0  0
  -32.2502  -26.0609   16.7738 O   0  0  0  0  0  0  0  0  0  0  0  0
  -31.8529  -14.8420   20.2594 O   0  0  0  0  0  0  0  0  0  0  0  0
  -21.5072   -7.0084   21.5207 O   0  0  0  0  0  0  0  0  0  0  0  0
  -35.0609  -23.8157   22.7839 O   0  0  0  0  0  0  0  0  0  1  0  0
  -22.5664   -4.0403   26.0454 F   0  0  0  0  0  0  0  0  0  0  0  0
  -19.5504   -6.5796   23.4259 F   0  0  0  0  0  0  0  0  0  0  0  0
  1  2  1  0  0  0  0
  1  5  2  0  0  0  0
  2  6  2  0  0  0  0
  3 10  2  0  0  0  0
  3 17  1  0  0  0  0
  4 11  1  0  0  0  0
  4 17  2  0  0  0  0
  5 19  1  0  0  0  0
  6 21  1  0  0  0  0
  7 12  2  0  0  0  0
  7 20  1  0  0  0  0
  8  9  2  0  0  0  0
  8 25  1  0  0  0  0
  9 26  1  0  0  0  0
 10 27  1  0  0  0  0
 11 27  2  0  0  0  0
 12 28  1  0  0  0  0
 13 14  2  0  0  0  0
 13 29  1  0  0  0  0
 14 30  1  0  0  0  0
 15 22  1  0  0  0  0
 15 28  2  0  0  0  0
 16 30  2  0  0  0  0
 16 31  1  0  0  0  0
 17 32  1  0  0  0  0
 18 32  1  0  0  0  0
 18 33  2  0  0  0  0
 18 35  1  0  0  0  0
 19 21  2  0  0  0  0
 19 40  1  0  0  0  0
 20 22  2  0  0  0  0
 20 41  1  0  0  0  0
 21 52  1  0  0  0  0
 22 42  1  0  0  0  0
 23 24  1  0  0  0  0
 23 25  2  0  0  0  0
 23 66  1  0  0  0  0
 24 26  2  0  0  0  0
 24 56  1  0  0  0  0
 25 72  1  0  0  0  0
 26 77  1  0  0  0  0
 27 87  1  0  0  0  0
 28 88  1  0  0  0  0
 29 31  2  0  0  0  0
 29 87  1  0  0  0  0
 30 89  1  0  0  0  0
 31 90  1  0  0  0  0
 32 70  2  0  0  0  0
 33 71  1  0  0  0  0
 33 75  1  0  0  0  0
 34 43  1  0  0  0  0
 34 72  1  0  0  0  0
 34 81  2  0  0  0  0
 35 76  1  0  0  0  0
 35 82  2  0  0  0  0
 36 53  1  0  0  0  0
 36 78  1  0  0  0  0
 36 83  2  0  0  0  0
 37 67  1  0  0  0  0
 37 73  1  0  0  0  0
 37 84  2  0  0  0  0
 38 68  1  0  0  0  0
 38 79  1  0  0  0  0
 38 85  2  0  0  0  0
 39 74  1  0  0  0  0
 39 77  1  0  0  0  0
 39 86  2  0  0  0  0
 40 44  1  0  0  0  0
 41 53  1  0  0  0  0
 42 73  1  0  0  0  0
 43 55  1  0  0  0  0
 44 46  1  0  0  0  0
 45 47  1  0  0  0  0
 45 49  1  0  0  0  0
 46 52  1  0  0  0  0
 47 54  1  0  0  0  0
 48 50  1  0  0  0  0
 48 55  1  0  0  0  0
 49 74  1  0  0  0  0
 50 72  1  0  0  0  0
 51 54  1  0  0  0  0
 51 74  1  0  0  0  0
 52 78  1  0  0  0  0
 53 73  1  0  0  0  0
 54 71  1  0  0  0  0
 55 57  1  0  0  0  0
 55 65  1  0  0  0  0
 58 66  1  0  0  0  0
 59 66  1  0  0  0  0
 60 68  1  0  0  0  0
 61 69  1  0  0  0  0
 62 69  1  0  0  0  0
 63 69  1  0  0  0  0
 64 80  1  0  0  0  0
 65 88  1  0  0  0  0
 67 69  1  0  0  0  0
 67 79  1  0  0  0  0
 68 80  1  0  0  0  0
 70 71  1  0  0  0  0
M  CHG  1  80   1
M  ISO  4  39 100  65 101  77 100  88 101
M  END
> <Batch ID>
0064

> <Smiles>
CNC(C)C(=O)NC(C(=O)N1Cc2cc([101O:1][101CH2:1]C3(C)CCN(c4ccc([100NH:0][100C:0](=O)N5CCCC(n6nc(-c7ccc(Oc8ccc(F)cc8F)cc7)c(C(N)=O)c6N)C5)c(C)c4C(C)C)C(=O)C3)ccc2CC1C(=O)NC1CCCc2ccccc21)C(C)(C)C

> <Shape>
0.181

> <Color>
0.204

> <Negative vol penalty>
0.000

$$$$

  -OEChem-04042323153D

 86 95  0     1  0  0  0  0  0999 V2000
  -27.3400  -24.3102   16.9051 C   0  0  0  0  0  0  0  0  0  0  0  0
  -26.1868  -24.6308   17.6142 C   0  0  0  0  0  0  0  0  0  0  0  0
  -27.3336  -13.6182   18.7805 C   0  0  0  0  0  0  0  0  0  0  0  0
  -27.6148  -13.5697   21.1796 C   0  0  0  0  0  0  0  0  0  0  0  0
  -28.5853  -24.7201   17.3797 C   0  0  0  0  0  0  0  0  0  0  0  0
  -26.2784  -25.3606   18.7988 C   0  0  0  0  0  0  0  0  0  0  0  0
  -22.8314  -29.0604   19.0727 C   0  0  0  0  0  0  0  0  0  0  0  0
  -21.3012  -22.3675   24.5422 C   0  0  0  0  0  0  0  0  0  0  0  0
  -20.8245  -23.2765   23.5976 C   0  0  0  0  0  0  0  0  0  0  0  0
  -28.1310  -12.4798   18.6640 C   0  0  0  0  0  0  0  0  0  0  0  0
  -28.4122  -12.4312   21.0631 C   0  0  0  0  0  0  0  0  0  0  0  0
  -21.5288  -28.6935   19.4079 C   0  0  0  0  0  0  0  0  0  0  0  0
  -30.3886   -9.7949   17.7055 C   0  0  0  0  0  0  0  0  0  0  0  0
  -31.3666   -9.7853   16.7111 C   0  0  0  0  0  0  0  0  0  0  0  0
  -21.9224  -29.3962   21.6818 C   0  0  0  0  0  0  0  0  0  0  0  0
  -22.7927  -22.9046   22.2467 C   0  0  0  0  0  0  0  0  0  0  0  0
  -32.4069  -11.7207   17.7156 C   0  0  0  0  0  0  0  0  0  0  0  0
  -27.0755  -14.1633   20.0383 C   0  0  0  0  0  0  0  0  0  0  0  0
  -24.8550  -15.3861   20.3242 C   0  0  0  0  0  0  0  0  0  0  0  0
  -28.6914  -25.4636   18.5657 C   0  0  0  0  0  0  0  0  0  0  0  0
  -23.6942  -29.5887   20.0437 C   0  0  0  0  0  0  0  0  0  0  0  0
  -27.5264  -25.7797   19.2904 C   0  0  0  0  0  0  0  0  0  0  0  0
  -23.2346  -29.7714   21.3558 C   0  0  0  0  0  0  0  0  0  0  0  0
  -22.5237  -21.7272   24.3391 C   0  0  0  0  0  0  0  0  0  0  0  0
  -21.5703  -23.5450   22.4499 C   0  0  0  0  0  0  0  0  0  0  0  0
  -23.2694  -21.9957   23.1913 C   0  0  0  0  0  0  0  0  0  0  0  0
  -28.6703  -11.8862   19.8053 C   0  0  0  0  0  0  0  0  0  0  0  0
  -21.0750  -28.8586   20.7132 C   0  0  0  0  0  0  0  0  0  0  0  0
  -30.4196  -10.7675   18.7050 C   0  0  0  0  0  0  0  0  0  0  0  0
  -32.3758  -10.7482   16.7162 C   0  0  0  0  0  0  0  0  0  0  0  0
  -31.4288  -11.7303   18.7100 C   0  0  0  0  0  0  0  0  0  0  0  0
  -26.2523  -15.3396   20.1593 C   0  0  0  0  0  0  0  0  0  0  0  0
  -24.5611  -16.7263   20.3866 C   0  0  0  0  0  0  0  0  0  0  0  0
  -20.6767  -25.5267   19.5040 C   0  0  0  0  0  0  0  0  0  0  0  0
  -20.0493  -26.1968   20.4731 C   0  0  0  0  0  0  0  0  0  0  0  0
  -21.3673  -24.3854   20.1370 C   0  0  0  0  0  0  0  0  0  0  0  0
  -23.9075  -14.3137   20.4131 C   0  0  0  0  0  0  0  0  0  0  0  0
  -26.4676  -28.6879   21.3089 C   0  0  0  0  0  0  0  0  0  0  0  0
  -26.2940  -31.5780   22.7716 C   0  0  0  0  0  0  0  0  0  0  0  0
  -24.3458  -34.1490   23.8855 C   0  0  0  0  0  0  0  0  0  0  0  0
  -25.6097  -21.8605   22.2689 C   0  0  0  0  0  0  0  0  0  0  0  0
  -30.0632  -25.8437   19.0639 C   0  0  0  0  0  0  0  0  0  0  0  0
  -25.0879  -30.0045   19.6599 C   0  0  0  0  0  0  0  0  0  0  0  0
  -24.1149  -30.3531   22.4306 C   0  0  0  0  0  0  0  0  0  0  0  0
  -20.2522  -25.5874   21.8175 C   0  0  0  0  0  0  0  0  0  0  0  0
  -30.0429  -26.9356   20.1305 C   0  0  0  0  0  0  0  0  0  0  0  0
  -27.4338  -20.7777   19.4093 C   0  0  0  0  0  0  0  0  0  0  0  0
  -28.9848  -26.6310   21.1862 C   0  0  0  0  0  0  0  0  0  0  0  0
  -27.1741  -19.2702   19.3630 C   0  0  0  0  0  0  0  0  0  0  0  0
  -27.5630  -21.2872   20.8437 C   0  0  0  0  0  0  0  0  0  0  0  0
  -26.1893  -19.4235   21.6855 C   0  0  0  0  0  0  0  0  0  0  0  0
  -27.5827  -26.5911   20.5665 C   0  0  1  0  0  0  0  0  0  0  0  0
  -26.0449  -30.0538   20.8470 C   0  0  1  0  0  0  0  0  0  0  0  0
  -25.9873  -18.8750   20.2635 C   0  0  2  0  0  0  0  0  0  0  0  0
  -23.0095  -20.7583   25.3677 C   0  0  0  0  0  0  0  0  0  0  0  0
  -17.8009  -27.2227   20.8145 C   0  0  0  0  0  0  0  0  0  0  0  0
  -24.4854  -36.3545   25.0745 C   0  0  0  0  0  0  0  0  0  0  0  0
  -26.6972  -30.1208   25.4219 C   0  0  0  0  0  0  0  0  0  0  0  0
  -25.8899  -32.1792   26.5965 C   0  0  0  0  0  0  0  0  0  0  0  0
  -27.9612  -32.2683   25.2093 C   0  0  0  0  0  0  0  0  0  0  0  0
  -23.2192  -35.6021   21.5664 C   0  0  0  0  0  0  0  0  0  0  0  0
  -19.2200  -27.4269   20.3071 C   0  0  1  0  0  0  0  0  0  1  0  0
  -25.7123  -32.0866   24.0685 C   0  0  1  0  0  0  0  0  0  0  0  0
  -24.4745  -35.6530   23.7252 C   0  0  2  0  0  0  0  0  0  0  0  0
  -26.5489  -31.6509   25.3045 C   0  0  0  0  0  0  0  0  0  0  0  0
  -26.8075  -16.5538   20.1192 N   0  0  0  0  0  0  0  0  0  0  0  0
  -25.7536  -17.3758   20.2598 N   0  0  0  0  0  0  0  0  0  0  0  0
  -21.0950  -24.4506   21.5092 N   0  0  0  0  0  0  0  0  0  0  0  0
  -25.4713  -30.7384   22.0074 N   0  0  0  0  0  0  0  0  0  0  0  0
  -26.4012  -20.8786   21.6362 N   0  0  0  0  0  0  0  0  0  0  0  0
  -23.4013  -17.4008   20.5368 N   0  0  0  0  0  0  0  0  0  0  0  0
  -24.3795  -12.9966   20.3304 N   0  0  0  0  0  0  0  0  0  0  0  0
  -24.5134  -21.3555   22.9671 N   0  0  0  0  0  0  0  0  0  0  0  0
  -27.0940  -27.9336   20.3352 N   0  0  0  0  0  0  0  0  0  0  0  0
  -25.5782  -33.5314   23.9168 N   0  0  0  0  0  0  0  0  0  0  0  0
  -23.3358  -36.1882   22.9266 N   0  3  0  0  0  0  0  0  0  0  0  0
  -22.0367  -23.5703   19.5234 O   0  0  0  0  0  0  0  0  0  0  0  0
  -22.6769  -14.5177   20.5450 O   0  0  0  0  0  0  0  0  0  0  0  0
  -26.2434  -28.3444   22.4636 O   0  0  0  0  0  0  0  0  0  0  0  0
  -27.4337  -31.9190   22.4452 O   0  0  0  0  0  0  0  0  0  0  0  0
  -23.2606  -33.5794   23.9778 O   0  0  0  0  0  0  0  0  0  0  0  0
  -25.8688  -23.0630   22.1739 O   0  0  0  0  0  0  0  0  0  0  0  0
  -29.4483  -10.7752   19.6920 O   0  0  0  0  0  0  0  0  0  0  0  0
  -19.8042  -28.5007   21.0432 O   0  0  0  0  0  0  0  0  0  1  0  0
  -33.3159  -10.7379   15.7621 F   0  0  0  0  0  0  0  0  0  0  0  0
  -31.4645  -12.6665   19.6683 F   0  0  0  0  0  0  0  0  0  0  0  0
  1  2  1  0  0  0  0
  1  5  2  0  0  0  0
  2  6  2  0  0  0  0
  3 10  2  0  0  0  0
  3 18  1  0  0  0  0
  4 11  1  0  0  0  0
  4 18  2  0  0  0  0
  5 20  1  0  0  0  0
  6 22  1  0  0  0  0
  7 12  2  0  0  0  0
  7 21  1  0  0  0  0
  8  9  2  0  0  0  0
  8 24  1  0  0  0  0
  9 25  1  0  0  0  0
 10 27  1  0  0  0  0
 11 27  2  0  0  0  0
 12 28  1  0  0  0  0
 13 14  2  0  0  0  0
 13 29  1  0  0  0  0
 14 30  1  0  0  0  0
 15 23  1  0  0  0  0
 15 28  2  0  0  0  0
 16 25  2  0  0  0  0
 16 26  1  0  0  0  0
 17 30  2  0  0  0  0
 17 31  1  0  0  0  0
 18 32  1  0  0  0  0
 19 32  1  0  0  0  0
 19 33  2  0  0  0  0
 19 37  1  0  0  0  0
 20 22  2  0  0  0  0
 20 42  1  0  0  0  0
 21 23  2  0  0  0  0
 21 43  1  0  0  0  0
 22 52  1  0  0  0  0
 23 44  1  0  0  0  0
 24 26  2  0  0  0  0
 24 55  1  0  0  0  0
 25 68  1  0  0  0  0
 26 73  1  0  0  0  0
 27 83  1  0  0  0  0
 28 84  1  0  0  0  0
 29 31  2  0  0  0  0
 29 83  1  0  0  0  0
 30 85  1  0  0  0  0
 31 86  1  0  0  0  0
 32 66  2  0  0  0  0
 33 67  1  0  0  0  0
 33 71  1  0  0  0  0
 34 35  2  0  0  0  0
 34 36  1  0  0  0  0
 35 45  1  0  0  0  0
 35 62  1  0  0  0  0
 36 68  1  0  0  0  0
 36 77  2  0  0  0  0
 37 72  1  0  0  0  0
 37 78  2  0  0  0  0
 38 53  1  0  0  0  0
 38 74  1  0  0  0  0
 38 79  2  0  0  0  0
 39 63  1  0  0  0  0
 39 69  1  0  0  0  0
 39 80  2  0  0  0  0
 40 64  1  0  0  0  0
 40 75  1  0  0  0  0
 40 81  2  0  0  0  0
 41 70  1  0  0  0  0
 41 73  1  0  0  0  0
 41 82  2  0  0  0  0
 42 46  1  0  0  0  0
 43 53  1  0  0  0  0
 44 69  1  0  0  0  0
 45 68  1  0  0  0  0
 46 48  1  0  0  0  0
 47 49  1  0  0  0  0
 47 50  1  0  0  0  0
 48 52  1  0  0  0  0
 49 54  1  0  0  0  0
 50 70  1  0  0  0  0
 51 54  1  0  0  0  0
 51 70  1  0  0  0  0
 52 74  1  0  0  0  0
 53 69  1  0  0  0  0
 54 67  1  0  0  0  0
 56 62  1  0  0  0  0
 57 64  1  0  0  0  0
 58 65  1  0  0  0  0
 59 65  1  0  0  0  0
 60 65  1  0  0  0  0
 61 76  1  0  0  0  0
 62 84  1  0  0  0  0
 63 65  1  0  0  0  0
 63 75  1  0  0  0  0
 64 76  1  0  0  0  0
 66 67  1  0  0  0  0
M  CHG  1  76   1
M  ISO  4  41 100  62 101  73 100  84 101
M  END
> <Batch ID>
0064

> <Smiles>
CNC(C)C(=O)NC(C(=O)N1Cc2cc([101O:1][101C:1](C)=C3CC(=O)N(c4ccc(C)c([100NH:0][100C:0](=O)N5CCCC(n6nc(-c7ccc(Oc8ccc(F)cc8F)cc7)c(C(N)=O)c6N)C5)c4)C3)ccc2CC1C(=O)NC1CCCc2ccccc21)C(C)(C)C

> <Shape>
0.298

> <Color>
0.076

> <Negative vol penalty>
0.000

$$$$

  -OEChem-04042323153D

 95104  0     1  0  0  0  0  0999 V2000
  -24.3398  -28.6905   32.6741 C   0  0  0  0  0  0  0  0  0  0  0  0
  -24.3348  -27.7588   31.6409 C   0  0  0  0  0  0  0  0  0  0  0  0
  -23.1595   -9.7999   21.2706 C   0  0  0  0  0  0  0  0  0  0  0  0
  -23.8518  -10.6777   23.4124 C   0  0  0  0  0  0  0  0  0  0  0  0
  -23.7317  -29.9322   32.4944 C   0  0  0  0  0  0  0  0  0  0  0  0
  -23.7206  -28.0679   30.4278 C   0  0  0  0  0  0  0  0  0  0  0  0
  -26.5318  -26.7353   26.4320 C   0  0  0  0  0  0  0  0  0  0  0  0
  -22.4376   -8.7956   21.9156 C   0  0  0  0  0  0  0  0  0  0  0  0
  -23.1299   -9.6734   24.0574 C   0  0  0  0  0  0  0  0  0  0  0  0
  -26.5362  -25.3868   26.0779 C   0  0  0  0  0  0  0  0  0  0  0  0
  -19.4691   -8.4907   23.5056 C   0  0  0  0  0  0  0  0  0  0  0  0
  -18.1785   -8.2245   23.0485 C   0  0  0  0  0  0  0  0  0  0  0  0
  -24.9362  -25.8462   24.3320 C   0  0  0  0  0  0  0  0  0  0  0  0
  -29.3277  -18.3624   20.6805 C   0  0  0  0  0  0  0  0  0  0  0  0
  -31.0131  -17.5896   19.1316 C   0  0  0  0  0  0  0  0  0  0  0  0
  -18.8247   -5.9510   22.5478 C   0  0  0  0  0  0  0  0  0  0  0  0
  -23.8666  -10.7409   22.0191 C   0  0  0  0  0  0  0  0  0  0  0  0
  -24.1488  -13.0539   20.9808 C   0  0  0  0  0  0  0  0  0  0  0  0
  -23.1182  -30.2603   31.2751 C   0  0  0  0  0  0  0  0  0  0  0  0
  -25.7199  -27.6490   25.7447 C   0  0  0  0  0  0  0  0  0  0  0  0
  -23.1026  -29.3146   30.2321 C   0  0  0  0  0  0  0  0  0  0  0  0
  -24.9252  -27.2062   24.6777 C   0  0  0  0  0  0  0  0  0  0  0  0
  -30.3684  -19.9179   19.1526 C   0  0  0  0  0  0  0  0  0  0  0  0
  -30.1044  -17.3287   20.1572 C   0  0  0  0  0  0  0  0  0  0  0  0
  -29.4597  -19.6570   20.1782 C   0  0  0  0  0  0  0  0  0  0  0  0
  -22.4228   -8.7324   23.3089 C   0  0  0  0  0  0  0  0  0  0  0  0
  -25.7362  -24.9416   25.0296 C   0  0  0  0  0  0  0  0  0  0  0  0
  -20.4376   -7.4871   23.4837 C   0  0  0  0  0  0  0  0  0  0  0  0
  -31.1451  -18.8842   18.6293 C   0  0  0  0  0  0  0  0  0  0  0  0
  -17.8563   -6.9547   22.5696 C   0  0  0  0  0  0  0  0  0  0  0  0
  -20.1154   -6.2172   23.0048 C   0  0  0  0  0  0  0  0  0  0  0  0
  -24.6130  -11.7782   21.3534 C   0  0  0  0  0  0  0  0  0  0  0  0
  -25.2320  -13.6533   20.3860 C   0  0  0  0  0  0  0  0  0  0  0  0
  -28.6472  -22.8041   18.0411 C   0  0  0  0  0  0  0  0  0  0  0  0
  -27.0926  -21.9077   22.0284 C   0  0  0  0  0  0  0  0  0  0  0  0
  -26.1552  -22.0230   22.9793 C   0  0  0  0  0  0  0  0  0  0  0  0
  -22.8542  -13.6445   21.1568 C   0  0  0  0  0  0  0  0  0  0  0  0
  -27.7217  -20.5845   21.7405 C   0  0  0  0  0  0  0  0  0  0  0  0
  -23.3023  -29.5491   26.5500 C   0  0  0  0  0  0  0  0  0  0  0  0
  -23.6278  -30.6061   23.5005 C   0  0  0  0  0  0  0  0  0  0  0  0
  -24.6903  -29.9862   20.3172 C   0  0  0  0  0  0  0  0  0  0  0  0
  -30.6630  -14.8744   20.2596 C   0  0  0  0  0  0  0  0  0  0  0  0
  -22.4326  -31.5972   31.1441 C   0  0  0  0  0  0  0  0  0  0  0  0
  -25.7467  -29.1049   26.1216 C   0  0  0  0  0  0  0  0  0  0  0  0
  -24.0510  -28.1503   23.8949 C   0  0  0  0  0  0  0  0  0  0  0  0
  -22.1305  -31.9879   29.6997 C   0  0  0  0  0  0  0  0  0  0  0  0
  -29.6786  -11.7211   18.9310 C   0  0  0  0  0  0  0  0  0  0  0  0
  -28.0553  -21.1075   15.7110 C   0  0  0  0  0  0  0  0  0  0  0  0
  -21.5069  -30.8156   28.9489 C   0  0  0  0  0  0  0  0  0  0  0  0
  -28.2347  -11.5598   19.4122 C   0  0  0  0  0  0  0  0  0  0  0  0
  -27.5626  -22.5423   15.7392 C   0  0  0  0  0  0  0  0  0  0  0  0
  -29.3876  -21.0232   16.4266 C   0  0  0  0  0  0  0  0  0  0  0  0
  -30.5523  -12.4078   19.9793 C   0  0  0  0  0  0  0  0  0  0  0  0
  -28.5885  -13.5253   20.9610 C   0  0  0  0  0  0  0  0  0  0  0  0
  -22.4682  -29.6222   28.8930 C   0  0  1  0  0  0  0  0  0  0  0  0
  -24.4930  -29.8577   25.6871 C   0  0  1  0  0  0  0  0  0  0  0  0
  -27.6550  -12.8971   19.9133 C   0  0  2  0  0  0  0  0  0  0  0  0
  -27.3951  -23.0511   17.1790 C   0  0  0  0  0  0  0  0  0  0  0  0
  -27.0985  -24.5612   17.1279 C   0  0  0  0  0  0  0  0  0  0  0  0
  -26.2178  -22.3474   17.8805 C   0  0  0  0  0  0  0  0  0  0  0  0
  -24.7861  -31.0254   18.0350 C   0  0  0  0  0  0  0  0  0  0  0  0
  -20.6558  -30.0313   23.1167 C   0  0  0  0  0  0  0  0  0  0  0  0
  -21.0197  -30.1702   20.6435 C   0  0  0  0  0  0  0  0  0  0  0  0
  -21.4483  -32.1645   22.0794 C   0  0  0  0  0  0  0  0  0  0  0  0
  -27.6480  -29.8916   20.2712 C   0  0  0  0  0  0  0  0  0  0  0  0
  -32.7891  -18.0042   17.1533 C   0  0  0  0  0  0  0  0  0  0  0  0
  -30.5167  -21.3027   18.6055 C   0  0  0  0  0  0  0  0  0  0  0  0
  -25.4819  -23.3150   23.3134 C   0  0  0  0  0  0  0  0  0  1  0  0
  -23.0489  -30.2093   22.1640 C   0  0  1  0  0  0  0  0  0  0  0  0
  -25.5174  -30.8159   19.3519 C   0  0  2  0  0  0  0  0  0  0  0  0
  -21.5581  -30.6255   22.0167 C   0  0  0  0  0  0  0  0  0  0  0  0
  -25.8915  -11.5779   21.0228 N   0  0  0  0  0  0  0  0  0  0  0  0
  -26.2398  -12.7357   20.4361 N   0  0  0  0  0  0  0  0  0  0  0  0
  -29.4076  -21.6718   17.7356 N   0  0  0  0  0  0  0  0  0  0  0  0
  -24.1070  -29.5630   24.3056 N   0  0  0  0  0  0  0  0  0  0  0  0
  -29.9425  -13.6698   20.4037 N   0  0  0  0  0  0  0  0  0  0  0  0
  -25.4112  -14.8703   19.8300 N   0  0  0  0  0  0  0  0  0  0  0  0
  -21.8558  -12.8899   21.7880 N   0  0  0  0  0  0  0  0  0  0  0  0
  -28.6618  -20.6924   20.7240 N   0  0  0  0  0  0  0  0  0  0  0  0
  -29.9692  -16.0135   20.6667 N   0  0  0  0  0  0  0  0  0  0  0  0
  -23.4867  -29.8402   27.8882 N   0  0  0  0  0  0  0  0  0  0  0  0
  -23.9312  -30.7793   21.1516 N   0  0  0  0  0  0  0  0  0  0  0  0
  -26.8142  -30.1392   19.0668 N   0  3  0  0  0  0  0  0  0  0  0  0
  -28.8801  -23.5294   19.0135 O   0  0  0  0  0  0  0  0  0  0  0  0
  -22.5857  -14.8008   20.7513 O   0  0  0  0  0  0  0  0  0  0  0  0
  -27.3997  -19.5782   22.3611 O   0  0  0  0  0  0  0  0  0  0  0  0
  -22.2906  -29.0828   26.0393 O   0  0  0  0  0  0  0  0  0  0  0  0
  -23.6602  -31.7983   23.8155 O   0  0  0  0  0  0  0  0  0  0  0  0
  -24.7123  -28.7574   20.3274 O   0  0  0  0  0  0  0  0  0  0  0  0
  -31.8007  -14.8970   19.7830 O   0  0  0  0  0  0  0  0  0  0  0  0
  -21.7183   -7.7527   23.9386 O   0  0  0  0  0  0  0  0  0  0  0  0
  -32.0376  -19.1198   17.6271 O   0  0  0  0  0  0  0  0  0  0  0  0
  -25.7381  -23.6258   24.6824 O   0  0  0  0  0  0  0  0  0  1  0  0
  -16.6164   -6.6988   22.1321 F   0  0  0  0  0  0  0  0  0  0  0  0
  -21.0413   -5.2487   22.9825 F   0  0  0  0  0  0  0  0  0  0  0  0
  1  2  1  0  0  0  0
  1  5  2  0  0  0  0
  2  6  2  0  0  0  0
  3  8  2  0  0  0  0
  3 17  1  0  0  0  0
  4  9  1  0  0  0  0
  4 17  2  0  0  0  0
  5 19  1  0  0  0  0
  6 21  1  0  0  0  0
  7 10  2  0  0  0  0
  7 20  1  0  0  0  0
  8 26  1  0  0  0  0
  9 26  2  0  0  0  0
 10 27  1  0  0  0  0
 11 12  2  0  0  0  0
 11 28  1  0  0  0  0
 12 30  1  0  0  0  0
 13 22  1  0  0  0  0
 13 27  2  0  0  0  0
 14 24  2  0  0  0  0
 14 25  1  0  0  0  0
 15 24  1  0  0  0  0
 15 29  2  0  0  0  0
 16 30  2  0  0  0  0
 16 31  1  0  0  0  0
 17 32  1  0  0  0  0
 18 32  1  0  0  0  0
 18 33  2  0  0  0  0
 18 37  1  0  0  0  0
 19 21  2  0  0  0  0
 19 43  1  0  0  0  0
 20 22  2  0  0  0  0
 20 44  1  0  0  0  0
 21 55  1  0  0  0  0
 22 45  1  0  0  0  0
 23 25  2  0  0  0  0
 23 29  1  0  0  0  0
 23 67  1  0  0  0  0
 24 80  1  0  0  0  0
 25 79  1  0  0  0  0
 26 91  1  0  0  0  0
 27 93  1  0  0  0  0
 28 31  2  0  0  0  0
 28 91  1  0  0  0  0
 29 92  1  0  0  0  0
 30 94  1  0  0  0  0
 31 95  1  0  0  0  0
 32 72  2  0  0  0  0
 33 73  1  0  0  0  0
 33 77  1  0  0  0  0
 34 58  1  0  0  0  0
 34 74  1  0  0  0  0
 34 84  2  0  0  0  0
 35 36  2  0  0  0  0
 35 38  1  0  0  0  0
 36 68  1  0  0  0  0
 37 78  1  0  0  0  0
 37 85  2  0  0  0  0
 38 79  1  0  0  0  0
 38 86  2  0  0  0  0
 39 56  1  0  0  0  0
 39 81  1  0  0  0  0
 39 87  2  0  0  0  0
 40 69  1  0  0  0  0
 40 75  1  0  0  0  0
 40 88  2  0  0  0  0
 41 70  1  0  0  0  0
 41 82  1  0  0  0  0
 41 89  2  0  0  0  0
 42 76  1  0  0  0  0
 42 80  1  0  0  0  0
 42 90  2  0  0  0  0
 43 46  1  0  0  0  0
 44 56  1  0  0  0  0
 45 75  1  0  0  0  0
 46 49  1  0  0  0  0
 47 50  1  0  0  0  0
 47 53  1  0  0  0  0
 48 51  1  0  0  0  0
 48 52  1  0  0  0  0
 49 55  1  0  0  0  0
 50 57  1  0  0  0  0
 51 58  1  0  0  0  0
 52 74  1  0  0  0  0
 53 76  1  0  0  0  0
 54 57  1  0  0  0  0
 54 76  1  0  0  0  0
 55 81  1  0  0  0  0
 56 75  1  0  0  0  0
 57 73  1  0  0  0  0
 58 59  1  0  0  0  0
 58 60  1  0  0  0  0
 61 70  1  0  0  0  0
 62 71  1  0  0  0  0
 63 71  1  0  0  0  0
 64 71  1  0  0  0  0
 65 83  1  0  0  0  0
 66 92  1  0  0  0  0
 67 74  1  0  0  0  0
 68 93  1  0  0  0  0
 69 71  1  0  0  0  0
 69 82  1  0  0  0  0
 70 83  1  0  0  0  0
 72 73  1  0  0  0  0
M  CHG  1  83   1
M  ISO  4  42 100  68 101  80 100  93 101
M  END
> <Batch ID>
0064

> <Smiles>
CNC(C)C(=O)NC(C(=O)N1Cc2cc([101O:1][101CH2:1]C=CC(=O)Nc3cc([100NH:0][100C:0](=O)N4CCCC(n5nc(-c6ccc(Oc7ccc(F)cc7F)cc6)c(C(N)=O)c5N)C4)cc(OC)c3CN3CCCC(C)(C)C3=O)ccc2CC1C(=O)NC1CCCc2ccccc21)C(C)(C)C

> <Shape>
0.241

> <Color>
0.161

> <Negative vol penalty>
0.000

$$$$

  -OEChem-04042323153D

 85 93  0     1  0  0  0  0  0999 V2000
  -23.4676  -30.1754   21.3061 C   0  0  0  0  0  0  0  0  0  0  0  0
  -23.9186  -29.0852   20.5690 C   0  0  0  0  0  0  0  0  0  0  0  0
  -23.1680   -9.8739   19.8767 C   0  0  0  0  0  0  0  0  0  0  0  0
  -23.8715   -9.8475   22.1879 C   0  0  0  0  0  0  0  0  0  0  0  0
  -24.3561  -31.1879   21.6659 C   0  0  0  0  0  0  0  0  0  0  0  0
  -25.2583  -29.0073   20.1902 C   0  0  0  0  0  0  0  0  0  0  0  0
  -27.2248  -24.4013   20.9404 C   0  0  0  0  0  0  0  0  0  0  0  0
  -30.4098  -17.3144   15.7738 C   0  0  0  0  0  0  0  0  0  0  0  0
  -22.4529   -8.6939   20.0809 C   0  0  0  0  0  0  0  0  0  0  0  0
  -23.1564   -8.6674   22.3920 C   0  0  0  0  0  0  0  0  0  0  0  0
  -26.9109  -23.4151   20.0063 C   0  0  0  0  0  0  0  0  0  0  0  0
  -19.9398   -7.7614   22.8949 C   0  0  0  0  0  0  0  0  0  0  0  0
  -19.1562   -7.6710   24.0453 C   0  0  0  0  0  0  0  0  0  0  0  0
  -30.4067  -15.9855   15.3498 C   0  0  0  0  0  0  0  0  0  0  0  0
  -29.0500  -23.7501   18.9427 C   0  0  0  0  0  0  0  0  0  0  0  0
  -28.0656  -17.1416   16.3324 C   0  0  0  0  0  0  0  0  0  0  0  0
  -20.4365   -5.7533   24.7667 C   0  0  0  0  0  0  0  0  0  0  0  0
  -23.8773  -10.4507   20.9302 C   0  0  0  0  0  0  0  0  0  0  0  0
  -24.1467  -12.9869   20.8782 C   0  0  0  0  0  0  0  0  0  0  0  0
  -25.7094  -31.1176   21.2996 C   0  0  0  0  0  0  0  0  0  0  0  0
  -28.4513  -25.0781   20.8760 C   0  0  0  0  0  0  0  0  0  0  0  0
  -26.1655  -30.0205   20.5442 C   0  0  0  0  0  0  0  0  0  0  0  0
  -29.3781  -24.7427   19.8787 C   0  0  0  0  0  0  0  0  0  0  0  0
  -28.0625  -15.8127   15.9084 C   0  0  0  0  0  0  0  0  0  0  0  0
  -29.2392  -17.8924   16.2652 C   0  0  0  0  0  0  0  0  0  0  0  0
  -22.4471   -8.0906   21.3385 C   0  0  0  0  0  0  0  0  0  0  0  0
  -27.8223  -23.0914   19.0055 C   0  0  0  0  0  0  0  0  0  0  0  0
  -20.9717   -6.8477   22.6804 C   0  0  0  0  0  0  0  0  0  0  0  0
  -19.4045   -6.6670   24.9812 C   0  0  0  0  0  0  0  0  0  0  0  0
  -21.2200   -5.8437   23.6163 C   0  0  0  0  0  0  0  0  0  0  0  0
  -29.2331  -15.2347   15.4171 C   0  0  0  0  0  0  0  0  0  0  0  0
  -24.6167  -11.6694   20.7198 C   0  0  0  0  0  0  0  0  0  0  0  0
  -25.2245  -13.7765   20.5600 C   0  0  0  0  0  0  0  0  0  0  0  0
  -22.8516  -13.4552   21.2773 C   0  0  0  0  0  0  0  0  0  0  0  0
  -29.3235  -28.1045   20.4473 C   0  0  0  0  0  0  0  0  0  0  0  0
  -32.2845  -26.9302   21.0602 C   0  0  0  0  0  0  0  0  0  0  0  0
  -28.1753  -19.9692   17.2081 C   0  0  0  0  0  0  0  0  0  0  0  0
  -34.3875  -24.2426   21.0843 C   0  0  0  0  0  0  0  0  0  0  0  0
  -30.0584  -12.8213   17.1253 C   0  0  0  0  0  0  0  0  0  0  0  0
  -26.6222  -32.2594   21.6708 C   0  0  0  0  0  0  0  0  0  0  0  0
  -28.7858  -26.1207   21.9072 C   0  0  0  0  0  0  0  0  0  0  0  0
  -30.7168  -25.4255   19.7782 C   0  0  0  0  0  0  0  0  0  0  0  0
  -28.1051  -31.9174   21.5514 C   0  0  0  0  0  0  0  0  0  0  0  0
  -30.0045  -13.7879   20.5809 C   0  0  0  0  0  0  0  0  0  0  0  0
  -28.3852  -31.2116   20.2285 C   0  0  0  0  0  0  0  0  0  0  0  0
  -28.5809  -13.4558   21.0279 C   0  0  0  0  0  0  0  0  0  0  0  0
  -30.5277  -12.7675   19.5743 C   0  0  0  0  0  0  0  0  0  0  0  0
  -28.2250  -12.2522   18.8267 C   0  0  0  0  0  0  0  0  0  0  0  0
  -27.6166  -29.8879   20.1358 C   0  0  1  0  0  0  0  0  0  0  0  0
  -29.8521  -27.1054   21.4372 C   0  0  1  0  0  0  0  0  0  0  0  0
  -27.6468  -13.2776   19.8176 C   0  0  1  0  0  0  0  0  0  0  0  0
  -26.7892  -15.0361   15.9929 C   0  0  0  0  0  0  0  0  0  0  0  0
  -36.7582  -23.6009   21.5994 C   0  0  0  0  0  0  0  0  0  0  0  0
  -33.1963  -28.2079   18.4437 C   0  0  0  0  0  0  0  0  0  0  0  0
  -35.2434  -26.7695   18.5356 C   0  0  0  0  0  0  0  0  0  0  0  0
  -34.8134  -28.4404   20.3372 C   0  0  0  0  0  0  0  0  0  0  0  0
  -33.5391  -22.3521   23.1974 C   0  0  0  0  0  0  0  0  0  0  0  0
  -28.6060  -21.3841   17.5470 C   0  0  0  0  0  0  0  0  0  1  0  0
  -33.3982  -26.3484   20.2234 C   0  0  1  0  0  0  0  0  0  0  0  0
  -35.3427  -23.7205   22.1424 C   0  0  2  0  0  0  0  0  0  0  0  0
  -34.1369  -27.4298   19.3854 C   0  0  0  0  0  0  0  0  0  0  0  0
  -25.8936  -11.6207   20.3311 N   0  0  0  0  0  0  0  0  0  0  0  0
  -29.1125  -12.6592   16.1919 N   0  5  0  0  0  0  0  0  0  0  0  0
  -26.2351  -12.9174   20.2424 N   0  0  0  0  0  0  0  0  0  0  0  0
  -30.9949  -26.4424   20.8059 N   0  0  0  0  0  0  0  0  0  0  0  0
  -29.6017  -12.6210   18.4479 N   0  0  0  0  0  0  0  0  0  0  0  0
  -25.3969  -15.1150   20.5236 N   0  0  0  0  0  0  0  0  0  0  0  0
  -21.8593  -12.5089   21.5678 N   0  0  0  0  0  0  0  0  0  0  0  0
  -29.2430  -19.2406   16.6949 N   0  0  0  0  0  0  0  0  0  0  0  0
  -28.2731  -28.8661   20.9228 N   0  0  0  0  0  0  0  0  0  0  0  0
  -34.2596  -25.6142   21.1440 N   0  0  0  0  0  0  0  0  0  0  0  0
  -34.9062  -22.3768   22.6166 N   0  3  0  0  0  0  0  0  0  0  0  0
  -22.5775  -14.6766   21.3577 O   0  0  0  0  0  0  0  0  0  0  0  0
  -29.8319  -28.1799   19.3348 O   0  0  0  0  0  0  0  0  0  0  0  0
  -32.5500  -27.7809   21.9131 O   0  0  0  0  0  0  0  0  0  0  0  0
  -27.0236  -19.5875   17.3884 O   0  0  0  0  0  0  0  0  0  0  0  0
  -33.8152  -23.5076   20.2826 O   0  0  0  0  0  0  0  0  0  0  0  0
  -31.2361  -13.1203   16.9048 O   0  0  0  0  0  0  0  0  0  0  0  0
  -28.1276  -13.4596   13.9461 O   0  0  0  0  0  0  0  0  0  0  0  0
  -30.5681  -13.4280   14.2040 O   0  0  0  0  0  0  0  0  0  0  0  0
  -21.7492   -6.9392   21.5381 O   0  0  0  0  0  0  0  0  0  0  0  0
  -27.5181  -22.1296   18.0920 O   0  0  0  0  0  0  0  0  0  1  0  0
  -18.6530   -6.5813   26.0867 F   0  0  0  0  0  0  0  0  0  0  0  0
  -22.2107   -4.9637   23.4162 F   0  0  0  0  0  0  0  0  0  0  0  0
  -29.2658  -13.5212   14.8602 S   0  0  0  0  0  0  0  0  0  0  0  0
  1  2  1  0  0  0  0
  1  5  2  0  0  0  0
  2  6  2  0  0  0  0
  3  9  2  0  0  0  0
  3 18  1  0  0  0  0
  4 10  1  0  0  0  0
  4 18  2  0  0  0  0
  5 20  1  0  0  0  0
  6 22  1  0  0  0  0
  7 11  2  0  0  0  0
  7 21  1  0  0  0  0
  8 14  2  0  0  0  0
  8 25  1  0  0  0  0
  9 26  1  0  0  0  0
 10 26  2  0  0  0  0
 11 27  1  0  0  0  0
 12 13  2  0  0  0  0
 12 28  1  0  0  0  0
 13 29  1  0  0  0  0
 14 31  1  0  0  0  0
 15 23  1  0  0  0  0
 15 27  2  0  0  0  0
 16 24  1  0  0  0  0
 16 25  2  0  0  0  0
 17 29  2  0  0  0  0
 17 30  1  0  0  0  0
 18 32  1  0  0  0  0
 19 32  1  0  0  0  0
 19 33  2  0  0  0  0
 19 34  1  0  0  0  0
 20 22  2  0  0  0  0
 20 40  1  0  0  0  0
 21 23  2  0  0  0  0
 21 41  1  0  0  0  0
 22 49  1  0  0  0  0
 23 42  1  0  0  0  0
 24 31  2  0  0  0  0
 24 52  1  0  0  0  0
 25 69  1  0  0  0  0
 26 81  1  0  0  0  0
 27 82  1  0  0  0  0
 28 30  2  0  0  0  0
 28 81  1  0  0  0  0
 29 83  1  0  0  0  0
 30 84  1  0  0  0  0
 31 85  1  0  0  0  0
 32 62  2  0  0  0  0
 33 64  1  0  0  0  0
 33 67  1  0  0  0  0
 34 68  1  0  0  0  0
 34 73  2  0  0  0  0
 35 50  1  0  0  0  0
 35 70  1  0  0  0  0
 35 74  2  0  0  0  0
 36 59  1  0  0  0  0
 36 65  1  0  0  0  0
 36 75  2  0  0  0  0
 37 58  1  0  0  0  0
 37 69  1  0  0  0  0
 37 76  2  0  0  0  0
 38 60  1  0  0  0  0
 38 71  1  0  0  0  0
 38 77  2  0  0  0  0
 39 63  1  0  0  0  0
 39 66  1  0  0  0  0
 39 78  2  0  0  0  0
 40 43  1  0  0  0  0
 41 50  1  0  0  0  0
 42 65  1  0  0  0  0
 43 45  1  0  0  0  0
 44 46  1  0  0  0  0
 44 47  1  0  0  0  0
 45 49  1  0  0  0  0
 46 51  1  0  0  0  0
 47 66  1  0  0  0  0
 48 51  1  0  0  0  0
 48 66  1  0  0  0  0
 49 70  1  0  0  0  0
 50 65  1  0  0  0  0
 51 64  1  0  0  0  0
 53 60  1  0  0  0  0
 54 61  1  0  0  0  0
 55 61  1  0  0  0  0
 56 61  1  0  0  0  0
 57 72  1  0  0  0  0
 58 82  1  0  0  0  0
 59 61  1  0  0  0  0
 59 71  1  0  0  0  0
 60 72  1  0  0  0  0
 62 64  1  0  0  0  0
 63 85  1  0  0  0  0
 79 85  2  0  0  0  0
 80 85  2  0  0  0  0
M  CHG  2  63  -1  72   1
M  ISO  4  39 100  58 101  63 100  82 101
M  END
> <Batch ID>
0064

> <Smiles>
CNC(C)C(=O)NC(C(=O)N1Cc2cc([101O:1][101CH2:1]C(=O)Nc3ccc(S(=O)(=O)[100NH:0][100C:0](=O)N4CCCC(n5nc(-c6ccc(Oc7ccc(F)cc7F)cc6)c(C(N)=O)c5N)C4)c(C)c3)ccc2CC1C(=O)NC1CCCc2ccccc21)C(C)(C)C

> <Shape>
0.266

> <Color>
0.187

> <Negative vol penalty>
0.000

$$$$

  -OEChem-04042323153D

 86 95  0     1  0  0  0  0  0999 V2000
  -19.2255  -33.5840   23.3163 C   0  0  0  0  0  0  0  0  0  0  0  0
  -20.5590  -33.4791   22.9337 C   0  0  0  0  0  0  0  0  0  0  0  0
  -23.9068   -9.8249   21.9881 C   0  0  0  0  0  0  0  0  0  0  0  0
  -24.5305  -11.2328   23.8498 C   0  0  0  0  0  0  0  0  0  0  0  0
  -18.5630  -32.4753   23.8415 C   0  0  0  0  0  0  0  0  0  0  0  0
  -21.2310  -32.2658   23.0772 C   0  0  0  0  0  0  0  0  0  0  0  0
  -26.3450  -28.3165   19.9842 C   0  0  0  0  0  0  0  0  0  0  0  0
  -31.0560  -20.1793   20.0274 C   0  0  0  0  0  0  0  0  0  0  0  0
  -30.7552  -18.8392   19.7838 C   0  0  0  0  0  0  0  0  0  0  0  0
  -23.4689   -8.8433   22.8770 C   0  0  0  0  0  0  0  0  0  0  0  0
  -24.0926  -10.2511   24.7388 C   0  0  0  0  0  0  0  0  0  0  0  0
  -27.5325  -27.6561   20.2963 C   0  0  0  0  0  0  0  0  0  0  0  0
  -20.7540   -8.2627   24.8071 C   0  0  0  0  0  0  0  0  0  0  0  0
  -19.5262   -7.6541   24.5473 C   0  0  0  0  0  0  0  0  0  0  0  0
  -26.2637  -25.7868   21.1418 C   0  0  0  0  0  0  0  0  0  0  0  0
  -28.4021  -19.3195   20.0471 C   0  0  0  0  0  0  0  0  0  0  0  0
  -20.6226   -5.5065   24.3963 C   0  0  0  0  0  0  0  0  0  0  0  0
  -24.4377  -11.0197   22.4745 C   0  0  0  0  0  0  0  0  0  0  0  0
  -24.1328  -13.0884   21.0134 C   0  0  0  0  0  0  0  0  0  0  0  0
  -19.2244  -31.2452   23.9825 C   0  0  0  0  0  0  0  0  0  0  0  0
  -25.1057  -27.7205   20.2590 C   0  0  0  0  0  0  0  0  0  0  0  0
  -20.5770  -31.1400   23.6060 C   0  0  0  0  0  0  0  0  0  0  0  0
  -25.0619  -26.4406   20.8299 C   0  0  0  0  0  0  0  0  0  0  0  0
  -30.0298  -21.0895   20.2809 C   0  0  0  0  0  0  0  0  0  0  0  0
  -29.4283  -18.4093   19.7936 C   0  0  0  0  0  0  0  0  0  0  0  0
  -23.5618   -9.0564   24.2524 C   0  0  0  0  0  0  0  0  0  0  0  0
  -27.4920  -26.3923   20.8779 C   0  0  0  0  0  0  0  0  0  0  0  0
  -21.9162   -7.4932   24.8614 C   0  0  0  0  0  0  0  0  0  0  0  0
  -19.4604   -6.2760   24.3420 C   0  0  0  0  0  0  0  0  0  0  0  0
  -21.8505   -6.1151   24.6560 C   0  0  0  0  0  0  0  0  0  0  0  0
  -28.7029  -20.6596   20.2907 C   0  0  0  0  0  0  0  0  0  0  0  0
  -24.8907  -12.0338   21.5567 C   0  0  0  0  0  0  0  0  0  0  0  0
  -25.0150  -13.7653   20.2071 C   0  0  0  0  0  0  0  0  0  0  0  0
  -29.9583  -23.5735   19.7758 C   0  0  0  0  0  0  0  0  0  0  0  0
  -22.7547  -13.4261   21.2192 C   0  0  0  0  0  0  0  0  0  0  0  0
  -22.6230  -28.4553   22.1029 C   0  0  0  0  0  0  0  0  0  0  0  0
  -21.2825  -25.8810   20.6545 C   0  0  0  0  0  0  0  0  0  0  0  0
  -21.7275  -22.9239   19.0099 C   0  0  0  0  0  0  0  0  0  0  0  0
  -30.0223  -16.0161   19.2777 C   0  0  0  0  0  0  0  0  0  0  0  0
  -18.4803  -30.0874   24.5993 C   0  0  0  0  0  0  0  0  0  0  0  0
  -23.8339  -28.4347   19.8917 C   0  0  0  0  0  0  0  0  0  0  0  0
  -23.7574  -25.7487   21.1263 C   0  0  0  0  0  0  0  0  0  0  0  0
  -19.1557  -28.7377   24.3700 C   0  0  0  0  0  0  0  0  0  0  0  0
  -29.6704  -12.5289   18.6514 C   0  0  0  0  0  0  0  0  0  0  0  0
  -20.6500  -28.8321   24.6616 C   0  0  0  0  0  0  0  0  0  0  0  0
  -28.3332  -12.1760   19.3067 C   0  0  0  0  0  0  0  0  0  0  0  0
  -31.0648  -24.3334   21.7454 C   0  0  0  0  0  0  0  0  0  0  0  0
  -30.4395  -13.5731   19.4586 C   0  0  0  0  0  0  0  0  0  0  0  0
  -31.2698  -22.8377   21.5997 C   0  0  0  0  0  0  0  0  0  0  0  0
  -28.3479  -14.4399   20.4298 C   0  0  0  0  0  0  0  0  0  0  0  0
  -21.3330  -29.8342   23.7231 C   0  0  1  0  0  0  0  0  0  0  0  0
  -22.6257  -27.9508   20.6876 C   0  0  1  0  0  0  0  0  0  0  0  0
  -27.5078  -13.4396   19.6191 C   0  0  2  0  0  0  0  0  0  0  0  0
  -30.6888  -24.7935   20.3347 C   0  0  1  0  0  0  0  0  0  0  0  0
  -31.9317  -25.0647   19.4789 C   0  0  0  0  0  0  0  0  0  0  0  0
  -20.4432  -21.0272   17.9849 C   0  0  0  0  0  0  0  0  0  0  0  0
  -20.6938  -24.7785   23.4380 C   0  0  0  0  0  0  0  0  0  0  0  0
  -20.3038  -22.5375   22.3918 C   0  0  0  0  0  0  0  0  0  0  0  0
  -18.8467  -24.4679   21.7808 C   0  0  0  0  0  0  0  0  0  0  0  0
  -22.8596  -23.4541   16.3273 C   0  0  0  0  0  0  0  0  0  0  0  0
  -29.7849  -26.0236   20.3653 C   0  0  0  0  0  0  0  0  0  1  0  0
  -21.2304  -24.3997   20.9411 C   0  0  1  0  0  0  0  0  0  0  0  0
  -21.1047  -22.3744   17.7392 C   0  0  2  0  0  0  0  0  0  0  0  0
  -20.2934  -24.0595   22.1343 C   0  0  0  0  0  0  0  0  0  0  0  0
  -26.1568  -12.0363   21.1313 N   0  0  0  0  0  0  0  0  0  0  0  0
  -26.2013  -13.1007   20.3121 N   0  0  0  0  0  0  0  0  0  0  0  0
  -30.3727  -22.4536   20.5262 N   0  0  0  0  0  0  0  0  0  0  0  0
  -22.5411  -26.4904   20.7547 N   0  0  0  0  0  0  0  0  0  0  0  0
  -29.5963  -14.7433   19.7128 N   0  0  0  0  0  0  0  0  0  0  0  0
  -24.8838  -14.8582   19.4255 N   0  0  0  0  0  0  0  0  0  0  0  0
  -21.9918  -12.6249   22.0796 N   0  0  0  0  0  0  0  0  0  0  0  0
  -29.1234  -17.0479   19.5461 N   0  0  0  0  0  0  0  0  0  0  0  0
  -21.5342  -29.2464   22.4161 N   0  0  0  0  0  0  0  0  0  0  0  0
  -20.8590  -23.7540   19.6867 N   0  0  0  0  0  0  0  0  0  0  0  0
  -22.1443  -22.2022   16.6854 N   0  3  0  0  0  0  0  0  0  0  0  0
  -29.2120  -23.6295   18.8082 O   0  0  0  0  0  0  0  0  0  0  0  0
  -22.2114  -14.3995   20.6439 O   0  0  0  0  0  0  0  0  0  0  0  0
  -23.5401  -28.1484   22.8555 O   0  0  0  0  0  0  0  0  0  0  0  0
  -20.2458  -26.4739   20.3458 O   0  0  0  0  0  0  0  0  0  0  0  0
  -22.8687  -22.6418   19.3683 O   0  0  0  0  0  0  0  0  0  0  0  0
  -31.0925  -16.1747   18.6847 O   0  0  0  0  0  0  0  0  0  0  0  0
  -23.1344   -8.0989   25.1201 O   0  0  0  0  0  0  0  0  0  0  0  0
  -28.6497  -25.7458   21.1841 O   0  0  0  0  0  0  0  0  0  1  0  0
  -18.2810   -5.6914   24.0941 F   0  0  0  0  0  0  0  0  0  0  0  0
  -22.9635   -5.3705   24.7082 F   0  0  0  0  0  0  0  0  0  0  0  0
  -27.4017  -21.7534   20.6001 Cl  0  0  0  0  0  0  0  0  0  0  0  0
  1  2  1  0  0  0  0
  1  5  2  0  0  0  0
  2  6  2  0  0  0  0
  3 10  2  0  0  0  0
  3 18  1  0  0  0  0
  4 11  1  0  0  0  0
  4 18  2  0  0  0  0
  5 20  1  0  0  0  0
  6 22  1  0  0  0  0
  7 12  2  0  0  0  0
  7 21  1  0  0  0  0
  8  9  2  0  0  0  0
  8 24  1  0  0  0  0
  9 25  1  0  0  0  0
 10 26  1  0  0  0  0
 11 26  2  0  0  0  0
 12 27  1  0  0  0  0
 13 14  2  0  0  0  0
 13 28  1  0  0  0  0
 14 29  1  0  0  0  0
 15 23  1  0  0  0  0
 15 27  2  0  0  0  0
 16 25  2  0  0  0  0
 16 31  1  0  0  0  0
 17 29  2  0  0  0  0
 17 30  1  0  0  0  0
 18 32  1  0  0  0  0
 19 32  1  0  0  0  0
 19 33  2  0  0  0  0
 19 35  1  0  0  0  0
 20 22  2  0  0  0  0
 20 40  1  0  0  0  0
 21 23  2  0  0  0  0
 21 41  1  0  0  0  0
 22 51  1  0  0  0  0
 23 42  1  0  0  0  0
 24 31  2  0  0  0  0
 24 67  1  0  0  0  0
 25 72  1  0  0  0  0
 26 82  1  0  0  0  0
 27 83  1  0  0  0  0
 28 30  2  0  0  0  0
 28 82  1  0  0  0  0
 29 84  1  0  0  0  0
 30 85  1  0  0  0  0
 31 86  1  0  0  0  0
 32 65  2  0  0  0  0
 33 66  1  0  0  0  0
 33 70  1  0  0  0  0
 34 54  1  0  0  0  0
 34 67  1  0  0  0  0
 34 76  2  0  0  0  0
 35 71  1  0  0  0  0
 35 77  2  0  0  0  0
 36 52  1  0  0  0  0
 36 73  1  0  0  0  0
 36 78  2  0  0  0  0
 37 62  1  0  0  0  0
 37 68  1  0  0  0  0
 37 79  2  0  0  0  0
 38 63  1  0  0  0  0
 38 74  1  0  0  0  0
 38 80  2  0  0  0  0
 39 69  1  0  0  0  0
 39 72  1  0  0  0  0
 39 81  2  0  0  0  0
 40 43  1  0  0  0  0
 41 52  1  0  0  0  0
 42 68  1  0  0  0  0
 43 45  1  0  0  0  0
 44 46  1  0  0  0  0
 44 48  1  0  0  0  0
 45 51  1  0  0  0  0
 46 53  1  0  0  0  0
 47 49  1  0  0  0  0
 47 54  1  0  0  0  0
 48 69  1  0  0  0  0
 49 67  1  0  0  0  0
 50 53  1  0  0  0  0
 50 69  1  0  0  0  0
 51 73  1  0  0  0  0
 52 68  1  0  0  0  0
 53 66  1  0  0  0  0
 54 55  1  0  0  0  0
 54 61  1  0  0  0  0
 56 63  1  0  0  0  0
 57 64  1  0  0  0  0
 58 64  1  0  0  0  0
 59 64  1  0  0  0  0
 60 75  1  0  0  0  0
 61 83  1  0  0  0  0
 62 64  1  0  0  0  0
 62 74  1  0  0  0  0
 63 75  1  0  0  0  0
 65 66  1  0  0  0  0
M  CHG  1  75   1
M  ISO  4  39 100  61 101  72 100  83 101
M  END
> <Batch ID>
0064

> <Smiles>
CNC(C)C(=O)NC(C(=O)N1Cc2cc([101O:1][101CH2:1]C3(C)CCN(c4ccc([100NH:0][100C:0](=O)N5CCCC(n6nc(-c7ccc(Oc8ccc(F)cc8F)cc7)c(C(N)=O)c6N)C5)cc4Cl)C3=O)ccc2CC1C(=O)NC1CCCc2ccccc21)C(C)(C)C

> <Shape>
0.276

> <Color>
0.143

> <Negative vol penalty>
0.000

$$$$

  -OEChem-04042323153D

 88 97  0     1  0  0  0  0  0999 V2000
  -26.4625  -35.1199   23.9231 C   0  0  0  0  0  0  0  0  0  0  0  0
  -26.9273  -33.8529   23.5857 C   0  0  0  0  0  0  0  0  0  0  0  0
  -27.2033  -13.4613   22.1610 C   0  0  0  0  0  0  0  0  0  0  0  0
  -26.4698  -15.0065   23.8673 C   0  0  0  0  0  0  0  0  0  0  0  0
  -25.1600  -35.2809   24.3938 C   0  0  0  0  0  0  0  0  0  0  0  0
  -26.0902  -32.7458   23.7198 C   0  0  0  0  0  0  0  0  0  0  0  0
  -26.2911  -29.6609   19.7088 C   0  0  0  0  0  0  0  0  0  0  0  0
  -27.6502  -12.5832   23.1483 C   0  0  0  0  0  0  0  0  0  0  0  0
  -26.9166  -14.1283   24.8546 C   0  0  0  0  0  0  0  0  0  0  0  0
  -27.3908  -28.8090   19.6152 C   0  0  0  0  0  0  0  0  0  0  0  0
  -26.3003  -10.3123   25.2588 C   0  0  0  0  0  0  0  0  0  0  0  0
  -25.9876   -8.9607   25.1139 C   0  0  0  0  0  0  0  0  0  0  0  0
  -27.1420  -23.0553   22.9040 C   0  0  0  0  0  0  0  0  0  0  0  0
  -26.0524  -26.9965   20.4770 C   0  0  0  0  0  0  0  0  0  0  0  0
  -28.9177  -23.8397   21.4658 C   0  0  0  0  0  0  0  0  0  0  0  0
  -28.3421   -8.4198   25.0801 C   0  0  0  0  0  0  0  0  0  0  0  0
  -26.6131  -14.6730   22.5205 C   0  0  0  0  0  0  0  0  0  0  0  0
  -27.3820  -24.1152   23.7784 C   0  0  0  0  0  0  0  0  0  0  0  0
  -24.8727  -15.6214   20.9146 C   0  0  0  0  0  0  0  0  0  0  0  0
  -24.3033  -34.1765   24.5247 C   0  0  0  0  0  0  0  0  0  0  0  0
  -25.0647  -29.1889   20.1983 C   0  0  0  0  0  0  0  0  0  0  0  0
  -24.7755  -32.8919   24.1940 C   0  0  0  0  0  0  0  0  0  0  0  0
  -24.9380  -27.8438   20.5734 C   0  0  0  0  0  0  0  0  0  0  0  0
  -29.1577  -24.8997   22.3401 C   0  0  0  0  0  0  0  0  0  0  0  0
  -27.9099  -22.9175   21.7477 C   0  0  0  0  0  0  0  0  0  0  0  0
  -27.5068  -12.9166   24.4951 C   0  0  0  0  0  0  0  0  0  0  0  0
  -27.2723  -27.4773   20.0020 C   0  0  0  0  0  0  0  0  0  0  0  0
  -27.6338  -10.7177   25.3142 C   0  0  0  0  0  0  0  0  0  0  0  0
  -27.0085   -8.0144   25.0246 C   0  0  0  0  0  0  0  0  0  0  0  0
  -28.6547   -9.7714   25.2249 C   0  0  0  0  0  0  0  0  0  0  0  0
  -28.3898  -25.0374   23.4965 C   0  0  0  0  0  0  0  0  0  0  0  0
  -26.1518  -15.5808   21.5011 C   0  0  0  0  0  0  0  0  0  0  0  0
  -24.9420  -16.6535   20.0109 C   0  0  0  0  0  0  0  0  0  0  0  0
  -30.9552  -26.5643   22.9935 C   0  0  0  0  0  0  0  0  0  0  0  0
  -26.5792  -24.2555   24.9832 C   0  0  0  0  0  0  0  0  0  0  0  0
  -23.7245  -14.7998   21.1644 C   0  0  0  0  0  0  0  0  0  0  0  0
  -23.2239  -29.8937   22.6920 C   0  0  0  0  0  0  0  0  0  0  0  0
  -21.1783  -27.8127   21.2751 C   0  0  0  0  0  0  0  0  0  0  0  0
  -20.7373  -25.1651   19.1674 C   0  0  0  0  0  0  0  0  0  0  0  0
  -28.3363  -21.5593   19.6693 C   0  0  0  0  0  0  0  0  0  0  0  0
  -22.9190  -34.3936   25.0826 C   0  0  0  0  0  0  0  0  0  0  0  0
  -23.8807  -30.1139   20.2679 C   0  0  0  0  0  0  0  0  0  0  0  0
  -23.6378  -27.2827   21.0863 C   0  0  0  0  0  0  0  0  0  0  0  0
  -31.9364  -27.4219   22.2297 C   0  0  0  0  0  0  0  0  0  0  0  0
  -21.9738  -33.2196   24.8407 C   0  0  0  0  0  0  0  0  0  0  0  0
  -31.9823  -26.7715   20.8601 C   0  0  0  0  0  0  0  0  0  0  0  0
  -28.0592  -18.9870   17.2231 C   0  0  0  0  0  0  0  0  0  0  0  0
  -22.6594  -31.9020   25.1880 C   0  0  0  0  0  0  0  0  0  0  0  0
  -27.4166  -17.8274   17.9876 C   0  0  0  0  0  0  0  0  0  0  0  0
  -29.0392  -19.7683   18.0966 C   0  0  0  0  0  0  0  0  0  0  0  0
  -27.8498  -19.0780   20.1406 C   0  0  0  0  0  0  0  0  0  0  0  0
  -23.8895  -31.6698   24.3022 C   0  0  1  0  0  0  0  0  0  0  0  0
  -22.8210  -29.6541   21.2644 C   0  0  1  0  0  0  0  0  0  0  0  0
  -26.8063  -18.3011   19.3213 C   0  0  2  0  0  0  0  0  0  0  0  0
  -30.5811  -26.1965   20.6853 C   0  0  2  0  0  0  0  0  0  0  0  0
  -18.9552  -23.6623   18.2384 C   0  0  0  0  0  0  0  0  0  0  0  0
  -21.0604  -26.3148   23.9308 C   0  0  0  0  0  0  0  0  0  0  0  0
  -20.0738  -24.3656   22.7078 C   0  0  0  0  0  0  0  0  0  0  0  0
  -18.8603  -26.5444   22.7640 C   0  0  0  0  0  0  0  0  0  0  0  0
  -21.3038  -26.0171   16.3903 C   0  0  0  0  0  0  0  0  0  0  0  0
  -29.6367  -27.2291   20.0657 C   0  0  0  0  0  0  0  0  0  1  0  0
  -20.9455  -26.3231   21.3515 C   0  0  1  0  0  0  0  0  0  0  0  0
  -19.7596  -24.9358   18.0290 C   0  0  2  0  0  0  0  0  0  0  0  0
  -20.2602  -25.8977   22.6807 C   0  0  0  0  0  0  0  0  0  0  0  0
  -26.9736  -16.5127   21.0111 N   0  0  0  0  0  0  0  0  0  0  0  0
  -26.2091  -17.1487   20.1071 N   0  0  0  0  0  0  0  0  0  0  0  0
  -30.1934  -25.8447   22.0485 N   0  0  0  0  0  0  0  0  0  0  0  0
  -22.5107  -28.2283   21.1418 N   0  0  0  0  0  0  0  0  0  0  0  0
  -28.3902  -20.1882   19.3405 N   0  0  0  0  0  0  0  0  0  0  0  0
  -24.0420  -17.1765   19.1514 N   0  0  0  0  0  0  0  0  0  0  0  0
  -26.8563  -25.3291   25.8244 N   0  0  0  0  0  0  0  0  0  0  0  0
  -23.8255  -13.7850   22.1257 N   0  0  0  0  0  0  0  0  0  0  0  0
  -27.6661  -21.8409   20.8593 N   0  0  0  0  0  0  0  0  0  0  0  0
  -23.4875  -31.2175   22.9876 N   0  0  0  0  0  0  0  0  0  0  0  0
  -20.1966  -25.9650   20.1518 N   0  0  0  0  0  0  0  0  0  0  0  0
  -20.4892  -24.8233   16.7344 N   0  3  0  0  0  0  0  0  0  0  0  0
  -30.8880  -26.5826   24.2141 O   0  0  0  0  0  0  0  0  0  0  0  0
  -25.6859  -23.4379   25.2656 O   0  0  0  0  0  0  0  0  0  0  0  0
  -22.6462  -14.9503   20.5414 O   0  0  0  0  0  0  0  0  0  0  0  0
  -23.2893  -28.9476   23.4682 O   0  0  0  0  0  0  0  0  0  0  0  0
  -20.2129  -28.5790   21.3246 O   0  0  0  0  0  0  0  0  0  0  0  0
  -21.8664  -24.6798   19.1837 O   0  0  0  0  0  0  0  0  0  0  0  0
  -28.8233  -22.4224   18.9346 O   0  0  0  0  0  0  0  0  0  0  0  0
  -27.9425  -12.0599   25.4588 O   0  0  0  0  0  0  0  0  0  0  0  0
  -28.3443  -26.6438   19.9123 O   0  0  0  0  0  0  0  0  0  1  0  0
  -26.7082   -6.7164   24.8871 F   0  0  0  0  0  0  0  0  0  0  0  0
  -29.9377  -10.1547   25.2788 F   0  0  0  0  0  0  0  0  0  0  0  0
  -28.6206  -26.0569   24.3378 F   0  0  0  0  0  0  0  0  0  0  0  0
  1  2  1  0  0  0  0
  1  5  2  0  0  0  0
  2  6  2  0  0  0  0
  3  8  2  0  0  0  0
  3 17  1  0  0  0  0
  4  9  1  0  0  0  0
  4 17  2  0  0  0  0
  5 20  1  0  0  0  0
  6 22  1  0  0  0  0
  7 10  2  0  0  0  0
  7 21  1  0  0  0  0
  8 26  1  0  0  0  0
  9 26  2  0  0  0  0
 10 27  1  0  0  0  0
 11 12  2  0  0  0  0
 11 28  1  0  0  0  0
 12 29  1  0  0  0  0
 13 18  2  0  0  0  0
 13 25  1  0  0  0  0
 14 23  1  0  0  0  0
 14 27  2  0  0  0  0
 15 24  1  0  0  0  0
 15 25  2  0  0  0  0
 16 29  2  0  0  0  0
 16 30  1  0  0  0  0
 17 32  1  0  0  0  0
 18 31  1  0  0  0  0
 18 35  1  0  0  0  0
 19 32  1  0  0  0  0
 19 33  2  0  0  0  0
 19 36  1  0  0  0  0
 20 22  2  0  0  0  0
 20 41  1  0  0  0  0
 21 23  2  0  0  0  0
 21 42  1  0  0  0  0
 22 52  1  0  0  0  0
 23 43  1  0  0  0  0
 24 31  2  0  0  0  0
 24 67  1  0  0  0  0
 25 73  1  0  0  0  0
 26 84  1  0  0  0  0
 27 85  1  0  0  0  0
 28 30  2  0  0  0  0
 28 84  1  0  0  0  0
 29 86  1  0  0  0  0
 30 87  1  0  0  0  0
 31 88  1  0  0  0  0
 32 65  2  0  0  0  0
 33 66  1  0  0  0  0
 33 70  1  0  0  0  0
 34 44  1  0  0  0  0
 34 67  1  0  0  0  0
 34 77  2  0  0  0  0
 35 71  1  0  0  0  0
 35 78  2  0  0  0  0
 36 72  1  0  0  0  0
 36 79  2  0  0  0  0
 37 53  1  0  0  0  0
 37 74  1  0  0  0  0
 37 80  2  0  0  0  0
 38 62  1  0  0  0  0
 38 68  1  0  0  0  0
 38 81  2  0  0  0  0
 39 63  1  0  0  0  0
 39 75  1  0  0  0  0
 39 82  2  0  0  0  0
 40 69  1  0  0  0  0
 40 73  1  0  0  0  0
 40 83  2  0  0  0  0
 41 45  1  0  0  0  0
 42 53  1  0  0  0  0
 43 68  1  0  0  0  0
 44 46  1  0  0  0  0
 45 48  1  0  0  0  0
 46 55  1  0  0  0  0
 47 49  1  0  0  0  0
 47 50  1  0  0  0  0
 48 52  1  0  0  0  0
 49 54  1  0  0  0  0
 50 69  1  0  0  0  0
 51 54  1  0  0  0  0
 51 69  1  0  0  0  0
 52 74  1  0  0  0  0
 53 68  1  0  0  0  0
 54 66  1  0  0  0  0
 55 61  1  0  0  0  0
 55 67  1  0  0  0  0
 56 63  1  0  0  0  0
 57 64  1  0  0  0  0
 58 64  1  0  0  0  0
 59 64  1  0  0  0  0
 60 76  1  0  0  0  0
 61 85  1  0  0  0  0
 62 64  1  0  0  0  0
 62 75  1  0  0  0  0
 63 76  1  0  0  0  0
 65 66  1  0  0  0  0
M  CHG  1  76   1
M  ISO  4  40 100  61 101  73 100  85 101
M  END
> <Batch ID>
0064

> <Smiles>
CNC(C)C(=O)NC(C(=O)N1Cc2cc([101O:1][101CH2:1]C3CCC(=O)N3c3cc([100NH:0][100C:0](=O)N4CCCC(n5nc(-c6ccc(Oc7ccc(F)cc7F)cc6)c(C(N)=O)c5N)C4)cc(C(N)=O)c3F)ccc2CC1C(=O)NC1CCCc2ccccc21)C(C)(C)C

> <Shape>
0.220

> <Color>
0.084

> <Negative vol penalty>
0.000

$$$$

  -OEChem-04042323153D

 85 93  0     1  0  0  0  0  0999 V2000
  -31.2682  -31.8871   17.3586 C   0  0  0  0  0  0  0  0  0  0  0  0
  -30.9101  -30.5430   17.3803 C   0  0  0  0  0  0  0  0  0  0  0  0
  -22.8748  -10.2009   19.9571 C   0  0  0  0  0  0  0  0  0  0  0  0
  -23.8472   -9.8507   22.1409 C   0  0  0  0  0  0  0  0  0  0  0  0
  -30.8160  -32.7442   18.3610 C   0  0  0  0  0  0  0  0  0  0  0  0
  -30.1003  -30.0549   18.4052 C   0  0  0  0  0  0  0  0  0  0  0  0
  -25.8589  -25.6588   17.9690 C   0  0  0  0  0  0  0  0  0  0  0  0
  -30.1796  -16.9544   19.9114 C   0  0  0  0  0  0  0  0  0  0  0  0
  -29.5472  -18.0772   19.3776 C   0  0  0  0  0  0  0  0  0  0  0  0
  -22.0737   -9.0727   20.1329 C   0  0  0  0  0  0  0  0  0  0  0  0
  -23.0460   -8.7225   22.3167 C   0  0  0  0  0  0  0  0  0  0  0  0
  -25.8827  -24.2987   18.2748 C   0  0  0  0  0  0  0  0  0  0  0  0
  -23.0329   -5.4949   21.3103 C   0  0  0  0  0  0  0  0  0  0  0  0
  -23.6351   -4.3458   21.8228 C   0  0  0  0  0  0  0  0  0  0  0  0
  -24.9085  -24.7725   20.4302 C   0  0  0  0  0  0  0  0  0  0  0  0
  -28.1497  -18.2245   21.3429 C   0  0  0  0  0  0  0  0  0  0  0  0
  -22.1210   -4.3918   23.7050 C   0  0  0  0  0  0  0  0  0  0  0  0
  -23.7616  -10.5899   20.9611 C   0  0  0  0  0  0  0  0  0  0  0  0
  -24.2789  -13.0821   21.1314 C   0  0  0  0  0  0  0  0  0  0  0  0
  -29.9923  -32.2684   19.3933 C   0  0  0  0  0  0  0  0  0  0  0  0
  -25.3689  -26.5886   18.8974 C   0  0  0  0  0  0  0  0  0  0  0  0
  -29.6376  -30.9061   19.4231 C   0  0  0  0  0  0  0  0  0  0  0  0
  -24.8771  -26.1435   20.1327 C   0  0  0  0  0  0  0  0  0  0  0  0
  -29.7970  -16.4666   21.1609 C   0  0  0  0  0  0  0  0  0  0  0  0
  -28.7821  -17.1017   21.8767 C   0  0  0  0  0  0  0  0  0  0  0  0
  -28.5323  -18.7123   20.0933 C   0  0  0  0  0  0  0  0  0  0  0  0
  -22.1592   -8.3335   21.3127 C   0  0  0  0  0  0  0  0  0  0  0  0
  -25.4102  -23.8557   19.5067 C   0  0  0  0  0  0  0  0  0  0  0  0
  -21.9747   -6.0925   21.9952 C   0  0  0  0  0  0  0  0  0  0  0  0
  -23.1791   -3.7943   23.0201 C   0  0  0  0  0  0  0  0  0  0  0  0
  -21.5188   -5.5409   23.1925 C   0  0  0  0  0  0  0  0  0  0  0  0
  -24.5899  -11.7549   20.7799 C   0  0  0  0  0  0  0  0  0  0  0  0
  -25.3848  -13.8049   20.7558 C   0  0  0  0  0  0  0  0  0  0  0  0
  -23.0961  -13.6140   21.7428 C   0  0  0  0  0  0  0  0  0  0  0  0
  -26.6078  -29.0633   20.4609 C   0  0  0  0  0  0  0  0  0  0  0  0
  -23.5428  -29.4821   21.4371 C   0  0  0  0  0  0  0  0  0  0  0  0
  -30.9475  -14.3684   20.5875 C   0  0  0  0  0  0  0  0  0  0  0  0
  -26.8705  -20.6020   20.1269 C   0  0  0  0  0  0  0  0  0  0  0  0
  -20.4708  -28.1097   22.0078 C   0  0  0  0  0  0  0  0  0  0  0  0
  -29.5668  -33.2228   20.4809 C   0  0  0  0  0  0  0  0  0  0  0  0
  -25.3253  -28.0494   18.5417 C   0  0  0  0  0  0  0  0  0  0  0  0
  -24.3221  -27.0990   21.1561 C   0  0  0  0  0  0  0  0  0  0  0  0
  -28.4049  -32.7055   21.3250 C   0  0  0  0  0  0  0  0  0  0  0  0
  -29.3827  -12.5062   17.9561 C   0  0  0  0  0  0  0  0  0  0  0  0
  -28.6459  -31.2559   21.7339 C   0  0  0  0  0  0  0  0  0  0  0  0
  -27.9811  -12.2279   18.4977 C   0  0  0  0  0  0  0  0  0  0  0  0
  -30.4254  -12.4876   19.0695 C   0  0  0  0  0  0  0  0  0  0  0  0
  -28.7239  -13.1424   20.7421 C   0  0  0  0  0  0  0  0  0  0  0  0
  -28.7404  -30.3443   20.5045 C   0  0  1  0  0  0  0  0  0  0  0  0
  -25.2804  -28.9609   19.7642 C   0  0  1  0  0  0  0  0  0  0  0  0
  -27.6358  -13.1825   19.6544 C   0  0  2  0  0  0  0  0  0  0  0  0
  -28.3573  -16.5984   23.2172 C   0  0  0  0  0  0  0  0  0  0  0  0
  -32.4097  -14.3392   23.1326 C   0  0  0  0  0  0  0  0  0  0  0  0
  -18.1769  -28.6928   22.8417 C   0  0  0  0  0  0  0  0  0  0  0  0
  -24.5882  -29.4849   24.3037 C   0  0  0  0  0  0  0  0  0  0  0  0
  -22.2395  -29.1124   25.0867 C   0  0  0  0  0  0  0  0  0  0  0  0
  -22.8206  -31.1912   23.8363 C   0  0  0  0  0  0  0  0  0  0  0  0
  -19.2219  -27.3911   19.4227 C   0  0  0  0  0  0  0  0  0  0  0  0
  -26.4676  -21.7457   19.2145 C   0  0  0  0  0  0  0  0  0  1  0  0
  -31.7269  -15.5877   22.5860 C   0  0  0  0  0  0  0  0  0  0  0  0
  -22.7140  -28.9892   22.5986 C   0  0  1  0  0  0  0  0  0  0  0  0
  -19.0757  -28.5670   21.6215 C   0  0  2  0  0  0  0  0  0  0  0  0
  -30.4881  -15.2625   21.7115 C   0  0  1  0  0  0  0  0  0  0  0  0
  -23.1028  -29.6764   23.9380 C   0  0  0  0  0  0  0  0  0  0  0  0
  -25.7986  -11.6386   20.2236 N   0  0  0  0  0  0  0  0  0  0  0  0
  -26.2568  -12.9019   20.2226 N   0  0  0  0  0  0  0  0  0  0  0  0
  -24.3065  -28.5180   20.7640 N   0  0  0  0  0  0  0  0  0  0  0  0
  -30.0499  -13.3902   20.1592 N   0  0  0  0  0  0  0  0  0  0  0  0
  -25.6865  -15.1185   20.8329 N   0  0  0  0  0  0  0  0  0  0  0  0
  -22.0555  -12.7318   22.0639 N   0  0  0  0  0  0  0  0  0  0  0  0
  -27.8918  -19.8526   19.5530 N   0  0  0  0  0  0  0  0  0  0  0  0
  -27.4213  -30.0697   19.9763 N   0  0  0  0  0  0  0  0  0  0  0  0
  -21.3194  -29.1769   22.2135 N   0  0  0  0  0  0  0  0  0  0  0  0
  -18.4545  -27.5946   20.6784 N   0  3  0  0  0  0  0  0  0  0  0  0
  -22.9593  -14.8378   21.9819 O   0  0  0  0  0  0  0  0  0  0  0  0
  -26.8736  -28.2877   21.3716 O   0  0  0  0  0  0  0  0  0  0  0  0
  -23.5083  -30.6773   21.1337 O   0  0  0  0  0  0  0  0  0  0  0  0
  -32.0698  -14.5377   20.1038 O   0  0  0  0  0  0  0  0  0  0  0  0
  -26.3253  -20.4224   21.2109 O   0  0  0  0  0  0  0  0  0  0  0  0
  -20.7761  -26.9245   22.1198 O   0  0  0  0  0  0  0  0  0  0  0  0
  -21.3774   -7.2327   21.4847 O   0  0  0  0  0  0  0  0  0  0  0  0
  -25.4329  -22.5288   19.8080 O   0  0  0  0  0  0  0  0  0  1  0  0
  -23.7565   -2.6900   23.5114 F   0  0  0  0  0  0  0  0  0  0  0  0
  -20.5019   -6.1098   23.8543 F   0  0  0  0  0  0  0  0  0  0  0  0
  -29.6694  -14.4937   22.5143 F   0  0  0  0  0  0  0  0  0  0  0  0
  1  2  1  0  0  0  0
  1  5  2  0  0  0  0
  2  6  2  0  0  0  0
  3 10  2  0  0  0  0
  3 18  1  0  0  0  0
  4 11  1  0  0  0  0
  4 18  2  0  0  0  0
  5 20  1  0  0  0  0
  6 22  1  0  0  0  0
  7 12  2  0  0  0  0
  7 21  1  0  0  0  0
  8  9  2  0  0  0  0
  8 24  1  0  0  0  0
  9 26  1  0  0  0  0
 10 27  1  0  0  0  0
 11 27  2  0  0  0  0
 12 28  1  0  0  0  0
 13 14  2  0  0  0  0
 13 29  1  0  0  0  0
 14 30  1  0  0  0  0
 15 23  1  0  0  0  0
 15 28  2  0  0  0  0
 16 25  1  0  0  0  0
 16 26  2  0  0  0  0
 17 30  2  0  0  0  0
 17 31  1  0  0  0  0
 18 32  1  0  0  0  0
 19 32  1  0  0  0  0
 19 33  2  0  0  0  0
 19 34  1  0  0  0  0
 20 22  2  0  0  0  0
 20 40  1  0  0  0  0
 21 23  2  0  0  0  0
 21 41  1  0  0  0  0
 22 49  1  0  0  0  0
 23 42  1  0  0  0  0
 24 25  2  0  0  0  0
 24 63  1  0  0  0  0
 25 52  1  0  0  0  0
 26 71  1  0  0  0  0
 27 81  1  0  0  0  0
 28 82  1  0  0  0  0
 29 31  2  0  0  0  0
 29 81  1  0  0  0  0
 30 83  1  0  0  0  0
 31 84  1  0  0  0  0
 32 65  2  0  0  0  0
 33 66  1  0  0  0  0
 33 69  1  0  0  0  0
 34 70  1  0  0  0  0
 34 75  2  0  0  0  0
 35 50  1  0  0  0  0
 35 72  1  0  0  0  0
 35 76  2  0  0  0  0
 36 61  1  0  0  0  0
 36 67  1  0  0  0  0
 36 77  2  0  0  0  0
 37 63  1  0  0  0  0
 37 68  1  0  0  0  0
 37 78  2  0  0  0  0
 38 59  1  0  0  0  0
 38 71  1  0  0  0  0
 38 79  2  0  0  0  0
 39 62  1  0  0  0  0
 39 73  1  0  0  0  0
 39 80  2  0  0  0  0
 40 43  1  0  0  0  0
 41 50  1  0  0  0  0
 42 67  1  0  0  0  0
 43 45  1  0  0  0  0
 44 46  1  0  0  0  0
 44 47  1  0  0  0  0
 45 49  1  0  0  0  0
 46 51  1  0  0  0  0
 47 68  1  0  0  0  0
 48 51  1  0  0  0  0
 48 68  1  0  0  0  0
 49 72  1  0  0  0  0
 50 67  1  0  0  0  0
 51 66  1  0  0  0  0
 53 60  1  0  0  0  0
 54 62  1  0  0  0  0
 55 64  1  0  0  0  0
 56 64  1  0  0  0  0
 57 64  1  0  0  0  0
 58 74  1  0  0  0  0
 59 82  1  0  0  0  0
 60 63  1  0  0  0  0
 61 64  1  0  0  0  0
 61 73  1  0  0  0  0
 62 74  1  0  0  0  0
 63 85  1  0  0  0  0
 65 66  1  0  0  0  0
M  CHG  1  74   1
M  ISO  4  37 100  59 101  63 100  82 101
M  END
> <Batch ID>
0064

> <Smiles>
CC[100C:0](F)(c1ccc(NC(=O)[101CH2:1][101O:1]c2ccc3c(c2)CN(C(=O)C(NC(=O)C(C)NC)C(C)(C)C)C(C(=O)NC2CCCc4ccccc42)C3)cc1C)[100C:0](=O)N1CCCC(n2nc(-c3ccc(Oc4ccc(F)cc4F)cc3)c(C(N)=O)c2N)C1

> <Shape>
0.345

> <Color>
0.199

> <Negative vol penalty>
0.000

$$$$

  -OEChem-04042323153D

 89 98  0     1  0  0  0  0  0999 V2000
  -18.2655  -25.0639   14.3540 C   0  0  0  0  0  0  0  0  0  0  0  0
  -19.0784  -23.9372   14.4269 C   0  0  0  0  0  0  0  0  0  0  0  0
  -23.2164   -9.7245   20.0389 C   0  0  0  0  0  0  0  0  0  0  0  0
  -23.8791   -9.9516   22.3511 C   0  0  0  0  0  0  0  0  0  0  0  0
  -18.8380  -26.3350   14.3327 C   0  0  0  0  0  0  0  0  0  0  0  0
  -20.4645  -24.0810   14.4775 C   0  0  0  0  0  0  0  0  0  0  0  0
  -26.2986  -21.0006   17.2686 C   0  0  0  0  0  0  0  0  0  0  0  0
  -29.1855  -19.6589   21.9706 C   0  0  0  0  0  0  0  0  0  0  0  0
  -29.0961  -18.2702   22.0656 C   0  0  0  0  0  0  0  0  0  0  0  0
  -22.5284   -8.5521   20.3512 C   0  0  0  0  0  0  0  0  0  0  0  0
  -23.1910   -8.7792   22.6634 C   0  0  0  0  0  0  0  0  0  0  0  0
  -27.5489  -20.5170   16.8857 C   0  0  0  0  0  0  0  0  0  0  0  0
  -19.9903   -7.8411   23.2073 C   0  0  0  0  0  0  0  0  0  0  0  0
  -19.1889   -7.8463   24.3489 C   0  0  0  0  0  0  0  0  0  0  0  0
  -28.4231  -22.7650   16.9228 C   0  0  0  0  0  0  0  0  0  0  0  0
  -30.8072  -18.0443   20.3749 C   0  0  0  0  0  0  0  0  0  0  0  0
  -20.5050   -6.0473   25.2810 C   0  0  0  0  0  0  0  0  0  0  0  0
  -23.8918  -10.4243   21.0388 C   0  0  0  0  0  0  0  0  0  0  0  0
  -24.0968  -12.9486   20.7331 C   0  0  0  0  0  0  0  0  0  0  0  0
  -20.2314  -26.4948   14.3929 C   0  0  0  0  0  0  0  0  0  0  0  0
  -26.0981  -22.3737   17.4712 C   0  0  0  0  0  0  0  0  0  0  0  0
  -21.0562  -25.3554   14.4557 C   0  0  0  0  0  0  0  0  0  0  0  0
  -27.1700  -23.2632   17.3107 C   0  0  0  0  0  0  0  0  0  0  0  0
  -30.0858  -20.2404   21.0777 C   0  0  0  0  0  0  0  0  0  0  0  0
  -30.8966  -19.4331   20.2799 C   0  0  0  0  0  0  0  0  0  0  0  0
  -29.9069  -17.4629   21.2678 C   0  0  0  0  0  0  0  0  0  0  0  0
  -22.5156   -8.0794   21.6635 C   0  0  0  0  0  0  0  0  0  0  0  0
  -28.6107  -21.3995   16.7100 C   0  0  0  0  0  0  0  0  0  0  0  0
  -21.0490   -6.9389   23.1024 C   0  0  0  0  0  0  0  0  0  0  0  0
  -19.4463   -6.9495   25.3858 C   0  0  0  0  0  0  0  0  0  0  0  0
  -21.3064   -6.0421   24.1393 C   0  0  0  0  0  0  0  0  0  0  0  0
  -24.6032  -11.6352   20.7167 C   0  0  0  0  0  0  0  0  0  0  0  0
  -25.1595  -13.7311   20.3525 C   0  0  0  0  0  0  0  0  0  0  0  0
  -33.7187  -21.4598   18.7206 C   0  0  0  0  0  0  0  0  0  0  0  0
  -33.3808  -21.4185   17.4246 C   0  0  0  0  0  0  0  0  0  0  0  0
  -32.8646  -20.8615   19.7851 C   0  0  0  0  0  0  0  0  0  0  0  0
  -22.7833  -13.4192   21.0629 C   0  0  0  0  0  0  0  0  0  0  0  0
  -24.2606  -24.5940   16.1306 C   0  0  0  0  0  0  0  0  0  0  0  0
  -25.4345  -26.4508   18.5174 C   0  0  0  0  0  0  0  0  0  0  0  0
  -27.9256  -27.0340   20.7759 C   0  0  0  0  0  0  0  0  0  0  0  0
  -30.5469  -15.1070   20.6461 C   0  0  0  0  0  0  0  0  0  0  0  0
  -20.8062  -27.8872   14.3194 C   0  0  0  0  0  0  0  0  0  0  0  0
  -24.7501  -22.8764   17.9100 C   0  0  0  0  0  0  0  0  0  0  0  0
  -27.0120  -24.7441   17.5355 C   0  0  0  0  0  0  0  0  0  0  0  0
  -22.2673  -27.9667   14.7545 C   0  0  0  0  0  0  0  0  0  0  0  0
  -29.6680  -12.4577   18.4357 C   0  0  0  0  0  0  0  0  0  0  0  0
  -23.0789  -26.8496   14.1062 C   0  0  0  0  0  0  0  0  0  0  0  0
  -28.2303  -12.1156   18.8334 C   0  0  0  0  0  0  0  0  0  0  0  0
  -30.5184  -12.8312   19.6486 C   0  0  0  0  0  0  0  0  0  0  0  0
  -31.7988  -19.5715   17.9505 C   0  0  0  0  0  0  0  0  0  0  0  0
  -28.5184  -13.5457   20.8971 C   0  0  0  0  0  0  0  0  0  0  0  0
  -22.5629  -25.4714   14.5372 C   0  0  1  0  0  0  0  0  0  0  0  0
  -32.1458  -20.6928   16.9634 C   0  0  1  0  0  0  0  0  0  0  0  0
  -24.5290  -24.3514   17.5890 C   0  0  1  0  0  0  0  0  0  0  0  0
  -27.6064  -13.2259   19.7015 C   0  0  2  0  0  0  0  0  0  0  0  0
  -28.8137  -22.3921   21.2737 C   0  0  0  0  0  0  0  0  0  0  0  0
  -35.2571  -21.1067   15.8472 C   0  0  0  0  0  0  0  0  0  0  0  0
  -29.1230  -28.1270   22.6915 C   0  0  0  0  0  0  0  0  0  0  0  0
  -26.2725  -28.4561   16.3759 C   0  0  0  0  0  0  0  0  0  0  0  0
  -27.7626  -29.5388   18.0717 C   0  0  0  0  0  0  0  0  0  0  0  0
  -25.2958  -29.4794   18.4382 C   0  0  0  0  0  0  0  0  0  0  0  0
  -26.6282  -25.2550   22.7534 C   0  0  0  0  0  0  0  0  0  0  0  0
  -30.1601  -21.7306   20.9971 C   0  0  0  0  0  0  0  0  0  0  0  0
  -34.2217  -22.0765   16.3697 C   0  0  0  0  0  0  0  0  0  0  0  0
  -30.9734  -21.6609   16.7823 C   0  0  0  0  0  0  0  0  0  1  0  0
  -26.6365  -27.3496   18.6800 C   0  0  1  0  0  0  0  0  0  0  0  0
  -27.8857  -27.3556   22.2590 C   0  0  2  0  0  0  0  0  0  0  0  0
  -26.4947  -28.6784   17.8853 C   0  0  0  0  0  0  0  0  0  0  0  0
  -25.8877  -11.5823   20.3543 N   0  0  0  0  0  0  0  0  0  0  0  0
  -26.1973  -12.8722   20.1393 N   0  0  0  0  0  0  0  0  0  0  0  0
  -31.8332  -20.0149   19.3509 N   0  0  0  0  0  0  0  0  0  0  0  0
  -25.6731  -25.1877   17.9575 N   0  0  0  0  0  0  0  0  0  0  0  0
  -29.8669  -13.8914   20.4208 N   0  0  0  0  0  0  0  0  0  0  0  0
  -25.2981  -15.0631   20.1827 N   0  0  0  0  0  0  0  0  0  0  0  0
  -21.8106  -12.4805   21.4331 N   0  0  0  0  0  0  0  0  0  0  0  0
  -29.8156  -16.0522   21.3647 N   0  0  0  0  0  0  0  0  0  0  0  0
  -23.0240  -25.1537   15.8717 N   0  0  0  0  0  0  0  0  0  0  0  0
  -26.8207  -27.5290   20.1161 N   0  0  0  0  0  0  0  0  0  0  0  0
  -27.8106  -26.1007   23.0593 N   0  3  0  0  0  0  0  0  0  0  0  0
  -33.1525  -21.1293   20.9515 O   0  0  0  0  0  0  0  0  0  0  0  0
  -22.4765  -14.6346   21.0144 O   0  0  0  0  0  0  0  0  0  0  0  0
  -25.1129  -24.2970   15.3018 O   0  0  0  0  0  0  0  0  0  0  0  0
  -24.3260  -26.8518   18.8807 O   0  0  0  0  0  0  0  0  0  0  0  0
  -28.8468  -26.4097   20.2543 O   0  0  0  0  0  0  0  0  0  0  0  0
  -31.6832  -15.3056   20.2087 O   0  0  0  0  0  0  0  0  0  0  0  0
  -21.8441   -6.9355   21.9687 O   0  0  0  0  0  0  0  0  0  0  0  0
  -29.8319  -20.9301   16.3356 O   0  0  0  0  0  0  0  0  0  1  0  0
  -18.6776   -6.9557   26.4827 F   0  0  0  0  0  0  0  0  0  0  0  0
  -22.3227   -5.1739   24.0448 F   0  0  0  0  0  0  0  0  0  0  0  0
  1  2  1  0  0  0  0
  1  5  2  0  0  0  0
  2  6  2  0  0  0  0
  3 10  2  0  0  0  0
  3 18  1  0  0  0  0
  4 11  1  0  0  0  0
  4 18  2  0  0  0  0
  5 20  1  0  0  0  0
  6 22  1  0  0  0  0
  7 12  2  0  0  0  0
  7 21  1  0  0  0  0
  8  9  2  0  0  0  0
  8 24  1  0  0  0  0
  9 26  1  0  0  0  0
 10 27  1  0  0  0  0
 11 27  2  0  0  0  0
 12 28  1  0  0  0  0
 13 14  2  0  0  0  0
 13 29  1  0  0  0  0
 14 30  1  0  0  0  0
 15 23  1  0  0  0  0
 15 28  2  0  0  0  0
 16 25  1  0  0  0  0
 16 26  2  0  0  0  0
 17 30  2  0  0  0  0
 17 31  1  0  0  0  0
 18 32  1  0  0  0  0
 19 32  1  0  0  0  0
 19 33  2  0  0  0  0
 19 37  1  0  0  0  0
 20 22  2  0  0  0  0
 20 42  1  0  0  0  0
 21 23  2  0  0  0  0
 21 43  1  0  0  0  0
 22 52  1  0  0  0  0
 23 44  1  0  0  0  0
 24 25  2  0  0  0  0
 24 63  1  0  0  0  0
 25 71  1  0  0  0  0
 26 76  1  0  0  0  0
 27 86  1  0  0  0  0
 28 87  1  0  0  0  0
 29 31  2  0  0  0  0
 29 86  1  0  0  0  0
 30 88  1  0  0  0  0
 31 89  1  0  0  0  0
 32 69  2  0  0  0  0
 33 70  1  0  0  0  0
 33 74  1  0  0  0  0
 34 35  2  0  0  0  0
 34 36  1  0  0  0  0
 35 53  1  0  0  0  0
 35 64  1  0  0  0  0
 36 71  1  0  0  0  0
 36 80  2  0  0  0  0
 37 75  1  0  0  0  0
 37 81  2  0  0  0  0
 38 54  1  0  0  0  0
 38 77  1  0  0  0  0
 38 82  2  0  0  0  0
 39 66  1  0  0  0  0
 39 72  1  0  0  0  0
 39 83  2  0  0  0  0
 40 67  1  0  0  0  0
 40 78  1  0  0  0  0
 40 84  2  0  0  0  0
 41 73  1  0  0  0  0
 41 76  1  0  0  0  0
 41 85  2  0  0  0  0
 42 45  1  0  0  0  0
 43 54  1  0  0  0  0
 44 72  1  0  0  0  0
 45 47  1  0  0  0  0
 46 48  1  0  0  0  0
 46 49  1  0  0  0  0
 47 52  1  0  0  0  0
 48 55  1  0  0  0  0
 49 73  1  0  0  0  0
 50 53  1  0  0  0  0
 50 71  1  0  0  0  0
 51 55  1  0  0  0  0
 51 73  1  0  0  0  0
 52 77  1  0  0  0  0
 53 65  1  0  0  0  0
 54 72  1  0  0  0  0
 55 70  1  0  0  0  0
 56 63  1  0  0  0  0
 57 64  1  0  0  0  0
 58 67  1  0  0  0  0
 59 68  1  0  0  0  0
 60 68  1  0  0  0  0
 61 68  1  0  0  0  0
 62 79  1  0  0  0  0
 65 87  1  0  0  0  0
 66 68  1  0  0  0  0
 66 78  1  0  0  0  0
 67 79  1  0  0  0  0
 69 70  1  0  0  0  0
M  CHG  1  79   1
M  ISO  4  41 100  65 101  76 100  87 101
M  END
> <Batch ID>
0064

> <Smiles>
CC=C1CC(=O)N(c2cc([100NH:0][100C:0](=O)N3CCCC(n4nc(-c5ccc(Oc6ccc(F)cc6F)cc5)c(C(N)=O)c4N)C3)ccc2CC)CC1[101CH2:1][101O:1]c1ccc2c(c1)CN(C(=O)C(NC(=O)C(C)NC)C(C)(C)C)C(C(=O)NC1CCCc3ccccc31)C2

> <Shape>
0.229

> <Color>
0.189

> <Negative vol penalty>
0.000

$$$$

  -OEChem-04042323152D

  0  0  0     0  0  0  0  0  0999 V2000
M  END
$$$$

  -OEChem-04042323153D

 87 96  0     1  0  0  0  0  0999 V2000
  -29.5285  -34.2274   25.6166 C   0  0  0  0  0  0  0  0  0  0  0  0
  -29.6199  -33.0486   24.8834 C   0  0  0  0  0  0  0  0  0  0  0  0
  -24.6575   -8.9048   21.5684 C   0  0  0  0  0  0  0  0  0  0  0  0
  -23.1439  -10.3927   20.4143 C   0  0  0  0  0  0  0  0  0  0  0  0
  -28.3192  -34.5853   26.2111 C   0  0  0  0  0  0  0  0  0  0  0  0
  -28.5021  -32.2264   24.7452 C   0  0  0  0  0  0  0  0  0  0  0  0
  -26.9939  -28.8543   19.8606 C   0  0  0  0  0  0  0  0  0  0  0  0
  -23.6243   -8.5144   22.4203 C   0  0  0  0  0  0  0  0  0  0  0  0
  -22.1106  -10.0023   21.2661 C   0  0  0  0  0  0  0  0  0  0  0  0
  -27.1674  -27.5031   19.5638 C   0  0  0  0  0  0  0  0  0  0  0  0
  -20.9549   -6.4419   22.3114 C   0  0  0  0  0  0  0  0  0  0  0  0
  -20.8089   -5.0792   22.5712 C   0  0  0  0  0  0  0  0  0  0  0  0
  -25.5610  -20.0235   17.9989 C   0  0  0  0  0  0  0  0  0  0  0  0
  -25.5821  -17.6359   17.6302 C   0  0  0  0  0  0  0  0  0  0  0  0
  -24.9285  -27.0513   20.3399 C   0  0  0  0  0  0  0  0  0  0  0  0
  -27.4148  -18.6945   18.7953 C   0  0  0  0  0  0  0  0  0  0  0  0
  -21.1496   -5.4920   24.9272 C   0  0  0  0  0  0  0  0  0  0  0  0
  -24.4173   -9.8440   20.5655 C   0  0  0  0  0  0  0  0  0  0  0  0
  -24.9571  -18.8748   17.4876 C   0  0  0  0  0  0  0  0  0  0  0  0
  -25.8424   -9.6601   18.4576 C   0  0  0  0  0  0  0  0  0  0  0  0
  -27.1835  -33.7719   26.0720 C   0  0  0  0  0  0  0  0  0  0  0  0
  -25.7882  -29.3131   20.4104 C   0  0  0  0  0  0  0  0  0  0  0  0
  -27.2768  -32.5731   25.3395 C   0  0  0  0  0  0  0  0  0  0  0  0
  -24.7413  -28.4091   20.6405 C   0  0  0  0  0  0  0  0  0  0  0  0
  -26.7899  -19.9334   18.6527 C   0  0  0  0  0  0  0  0  0  0  0  0
  -26.8109  -17.5458   18.2840 C   0  0  0  0  0  0  0  0  0  0  0  0
  -22.3509   -9.0631   22.2691 C   0  0  0  0  0  0  0  0  0  0  0  0
  -26.1357  -26.6010   19.8061 C   0  0  0  0  0  0  0  0  0  0  0  0
  -21.1984   -7.3296   23.3595 C   0  0  0  0  0  0  0  0  0  0  0  0
  -20.9062   -4.6043   23.8791 C   0  0  0  0  0  0  0  0  0  0  0  0
  -21.2956   -6.8546   24.6674 C   0  0  0  0  0  0  0  0  0  0  0  0
  -25.4844  -10.2481   19.6856 C   0  0  0  0  0  0  0  0  0  0  0  0
  -26.9090  -10.4056   18.0180 C   0  0  0  0  0  0  0  0  0  0  0  0
  -28.6380  -21.1778   19.8557 C   0  0  0  0  0  0  0  0  0  0  0  0
  -23.6759  -18.9687   16.8062 C   0  0  0  0  0  0  0  0  0  0  0  0
  -25.2626   -8.5403   17.7753 C   0  0  0  0  0  0  0  0  0  0  0  0
  -24.9587  -30.7231   23.1357 C   0  0  0  0  0  0  0  0  0  0  0  0
  -22.0579  -30.9212   21.6975 C   0  0  0  0  0  0  0  0  0  0  0  0
  -19.8962  -29.7017   19.3551 C   0  0  0  0  0  0  0  0  0  0  0  0
  -28.6655  -16.0228   19.0505 C   0  0  0  0  0  0  0  0  0  0  0  0
  -25.9106  -34.1765   26.7724 C   0  0  0  0  0  0  0  0  0  0  0  0
  -25.6073  -30.7779   20.7001 C   0  0  0  0  0  0  0  0  0  0  0  0
  -23.4202  -28.8542   21.2105 C   0  0  0  0  0  0  0  0  0  0  0  0
  -28.9229  -22.6375   20.1261 C   0  0  0  0  0  0  0  0  0  0  0  0
  -24.6748  -33.4381   26.2646 C   0  0  0  0  0  0  0  0  0  0  0  0
  -30.5475  -13.0597   19.6463 C   0  0  0  0  0  0  0  0  0  0  0  0
  -24.9552  -31.9430   26.1514 C   0  0  0  0  0  0  0  0  0  0  0  0
  -29.4962  -11.9482   19.6062 C   0  0  0  0  0  0  0  0  0  0  0  0
  -30.0019  -14.3334   20.2894 C   0  0  0  0  0  0  0  0  0  0  0  0
  -26.8390  -22.4296   18.9853 C   0  0  0  0  0  0  0  0  0  0  0  0
  -27.6971  -13.7221   19.6704 C   0  0  0  0  0  0  0  0  0  0  0  0
  -26.0800  -31.6673   25.1462 C   0  0  1  0  0  0  0  0  0  0  0  0
  -24.5218  -31.0524   21.7363 C   0  0  1  0  0  0  0  0  0  0  0  0
  -27.5554  -23.2957   20.0100 C   0  0  2  0  0  0  0  0  0  0  0  0
  -28.1800  -12.4401   18.9725 C   0  0  2  0  0  0  0  0  0  0  0  0
  -22.7399  -20.0607   17.2365 C   0  0  0  0  0  0  0  0  0  0  0  0
  -17.5852  -30.0447   18.4393 C   0  0  0  0  0  0  0  0  0  0  0  0
  -20.8816  -29.5637   24.1640 C   0  0  0  0  0  0  0  0  0  0  0  0
  -18.8192  -29.0814   22.8291 C   0  0  0  0  0  0  0  0  0  0  0  0
  -19.5058  -31.4421   23.2511 C   0  0  0  0  0  0  0  0  0  0  0  0
  -20.9328  -30.3127   16.6512 C   0  0  0  0  0  0  0  0  0  0  0  0
  -27.6275  -24.7592   19.6101 C   0  0  0  0  0  0  0  0  0  1  0  0
  -20.8373  -30.0357   21.6260 C   0  0  1  0  0  0  0  0  0  0  0  0
  -19.0575  -30.3984   18.2988 C   0  0  2  0  0  0  0  0  0  0  0  0
  -20.0365  -30.0217   22.9586 C   0  0  0  0  0  0  0  0  0  0  0  0
  -26.2606  -11.2869   20.0056 N   0  0  0  0  0  0  0  0  0  0  0  0
  -27.1171  -11.3574   18.9724 N   0  0  0  0  0  0  0  0  0  0  0  0
  -27.4077  -21.1085   19.1757 N   0  0  0  0  0  0  0  0  0  0  0  0
  -23.2942  -30.2955   21.4830 N   0  0  0  0  0  0  0  0  0  0  0  0
  -28.7570  -14.7419   19.6351 N   0  0  0  0  0  0  0  0  0  0  0  0
  -27.6798  -10.3331   16.9121 N   0  0  0  0  0  0  0  0  0  0  0  0
  -24.1720   -7.8888   18.3672 N   0  0  0  0  0  0  0  0  0  0  0  0
  -27.4454  -16.2872   18.4291 N   0  0  0  0  0  0  0  0  0  0  0  0
  -25.5825  -31.7677   23.7909 N   0  0  0  0  0  0  0  0  0  0  0  0
  -20.0695  -30.4912   20.4722 N   0  0  0  0  0  0  0  0  0  0  0  0
  -19.5082  -30.0015   16.9348 N   0  3  0  0  0  0  0  0  0  0  0  0
  -29.4228  -20.2898   20.1563 O   0  0  0  0  0  0  0  0  0  0  0  0
  -23.2980  -18.2168   15.9052 O   0  0  0  0  0  0  0  0  0  0  0  0
  -25.7092   -8.1194   16.6812 O   0  0  0  0  0  0  0  0  0  0  0  0
  -24.7443  -29.6046   23.5882 O   0  0  0  0  0  0  0  0  0  0  0  0
  -21.9190  -32.1251   21.9278 O   0  0  0  0  0  0  0  0  0  0  0  0
  -20.3489  -28.5689   19.2058 O   0  0  0  0  0  0  0  0  0  0  0  0
  -29.6102  -16.8159   19.0740 O   0  0  0  0  0  0  0  0  0  0  0  0
  -21.3423   -8.6822   23.1000 O   0  0  0  0  0  0  0  0  0  0  0  0
  -26.3027  -25.2815   19.5179 O   0  0  0  0  0  0  0  0  0  1  0  0
  -20.7644   -3.2959   24.1287 F   0  0  0  0  0  0  0  0  0  0  0  0
  -21.5282   -7.7028   25.6785 F   0  0  0  0  0  0  0  0  0  0  0  0
  1  2  1  0  0  0  0
  1  5  2  0  0  0  0
  2  6  2  0  0  0  0
  3  8  2  0  0  0  0
  3 18  1  0  0  0  0
  4  9  1  0  0  0  0
  4 18  2  0  0  0  0
  5 21  1  0  0  0  0
  6 23  1  0  0  0  0
  7 10  2  0  0  0  0
  7 22  1  0  0  0  0
  8 27  1  0  0  0  0
  9 27  2  0  0  0  0
 10 28  1  0  0  0  0
 11 12  2  0  0  0  0
 11 29  1  0  0  0  0
 12 30  1  0  0  0  0
 13 19  1  0  0  0  0
 13 25  2  0  0  0  0
 14 19  2  0  0  0  0
 14 26  1  0  0  0  0
 15 24  1  0  0  0  0
 15 28  2  0  0  0  0
 16 25  1  0  0  0  0
 16 26  2  0  0  0  0
 17 30  2  0  0  0  0
 17 31  1  0  0  0  0
 18 32  1  0  0  0  0
 19 35  1  0  0  0  0
 20 32  1  0  0  0  0
 20 33  2  0  0  0  0
 20 36  1  0  0  0  0
 21 23  2  0  0  0  0
 21 41  1  0  0  0  0
 22 24  2  0  0  0  0
 22 42  1  0  0  0  0
 23 52  1  0  0  0  0
 24 43  1  0  0  0  0
 25 68  1  0  0  0  0
 26 73  1  0  0  0  0
 27 84  1  0  0  0  0
 28 85  1  0  0  0  0
 29 31  2  0  0  0  0
 29 84  1  0  0  0  0
 30 86  1  0  0  0  0
 31 87  1  0  0  0  0
 32 66  2  0  0  0  0
 33 67  1  0  0  0  0
 33 71  1  0  0  0  0
 34 44  1  0  0  0  0
 34 68  1  0  0  0  0
 34 77  2  0  0  0  0
 35 56  1  0  0  0  0
 35 78  2  0  0  0  0
 36 72  1  0  0  0  0
 36 79  2  0  0  0  0
 37 53  1  0  0  0  0
 37 74  1  0  0  0  0
 37 80  2  0  0  0  0
 38 63  1  0  0  0  0
 38 69  1  0  0  0  0
 38 81  2  0  0  0  0
 39 64  1  0  0  0  0
 39 75  1  0  0  0  0
 39 82  2  0  0  0  0
 40 70  1  0  0  0  0
 40 73  1  0  0  0  0
 40 83  2  0  0  0  0
 41 45  1  0  0  0  0
 42 53  1  0  0  0  0
 43 69  1  0  0  0  0
 44 54  1  0  0  0  0
 45 47  1  0  0  0  0
 46 48  1  0  0  0  0
 46 49  1  0  0  0  0
 47 52  1  0  0  0  0
 48 55  1  0  0  0  0
 49 70  1  0  0  0  0
 50 54  1  0  0  0  0
 50 68  1  0  0  0  0
 51 55  1  0  0  0  0
 51 70  1  0  0  0  0
 52 74  1  0  0  0  0
 53 69  1  0  0  0  0
 54 62  1  0  0  0  0
 55 67  1  0  0  0  0
 57 64  1  0  0  0  0
 58 65  1  0  0  0  0
 59 65  1  0  0  0  0
 60 65  1  0  0  0  0
 61 76  1  0  0  0  0
 62 85  1  0  0  0  0
 63 65  1  0  0  0  0
 63 75  1  0  0  0  0
 64 76  1  0  0  0  0
 66 67  1  0  0  0  0
M  CHG  1  76   1
M  ISO  4  40 100  62 101  73 100  85 101
M  END
> <Batch ID>
0064

> <Smiles>
CNC(C)C(=O)NC(C(=O)N1Cc2cc([101O:1][101CH2:1]C3CC(=O)N(c4cc([100NH:0][100C:0](=O)N5CCCC(n6nc(-c7ccc(Oc8ccc(F)cc8F)cc7)c(C(N)=O)c6N)C5)cc(C(C)=O)c4)C3)ccc2CC1C(=O)NC1CCCc2ccccc21)C(C)(C)C

> <Shape>
0.298

> <Color>
0.105

> <Negative vol penalty>
0.000

$$$$

  -OEChem-04042323153D

 85 94  0     1  0  0  0  0  0999 V2000
  -27.5847  -34.6548   23.9407 C   0  0  0  0  0  0  0  0  0  0  0  0
  -27.8872  -33.3102   24.1301 C   0  0  0  0  0  0  0  0  0  0  0  0
  -23.5246   -9.7005   21.6312 C   0  0  0  0  0  0  0  0  0  0  0  0
  -24.1272  -10.8667   23.6594 C   0  0  0  0  0  0  0  0  0  0  0  0
  -26.2703  -35.0432   23.6851 C   0  0  0  0  0  0  0  0  0  0  0  0
  -26.8751  -32.3532   24.0651 C   0  0  0  0  0  0  0  0  0  0  0  0
  -28.2145  -28.2899   21.3557 C   0  0  0  0  0  0  0  0  0  0  0  0
  -31.8198  -19.3527   21.2002 C   0  0  0  0  0  0  0  0  0  0  0  0
  -31.4052  -18.0795   20.8095 C   0  0  0  0  0  0  0  0  0  0  0  0
  -22.9170   -8.6986   22.3878 C   0  0  0  0  0  0  0  0  0  0  0  0
  -23.5196   -9.8648   24.4161 C   0  0  0  0  0  0  0  0  0  0  0  0
  -29.0462  -27.3578   21.9747 C   0  0  0  0  0  0  0  0  0  0  0  0
  -20.0044   -8.2489   24.0454 C   0  0  0  0  0  0  0  0  0  0  0  0
  -18.7479   -7.8008   23.6379 C   0  0  0  0  0  0  0  0  0  0  0  0
  -27.1322  -25.9627   22.4321 C   0  0  0  0  0  0  0  0  0  0  0  0
  -29.5143  -20.0630   21.3317 C   0  0  0  0  0  0  0  0  0  0  0  0
  -19.6321   -5.5687   23.3665 C   0  0  0  0  0  0  0  0  0  0  0  0
  -24.1298  -10.7846   22.2670 C   0  0  0  0  0  0  0  0  0  0  0  0
  -24.1585  -12.9927   20.9899 C   0  0  0  0  0  0  0  0  0  0  0  0
  -25.2431  -34.0895   23.6074 C   0  0  0  0  0  0  0  0  0  0  0  0
  -26.8316  -28.0702   21.2798 C   0  0  0  0  0  0  0  0  0  0  0  0
  -25.5454  -32.7293   23.8096 C   0  0  0  0  0  0  0  0  0  0  0  0
  -26.2854  -26.8923   21.8093 C   0  0  0  0  0  0  0  0  0  0  0  0
  -30.8743  -20.3444   21.4614 C   0  0  0  0  0  0  0  0  0  0  0  0
  -30.0452  -17.7980   20.6799 C   0  0  0  0  0  0  0  0  0  0  0  0
  -22.9144   -8.7807   23.7802 C   0  0  0  0  0  0  0  0  0  0  0  0
  -28.5048  -26.1953   22.5156 C   0  0  0  0  0  0  0  0  0  0  0  0
  -21.0748   -7.3570   24.1134 C   0  0  0  0  0  0  0  0  0  0  0  0
  -18.5618   -6.4607   23.2985 C   0  0  0  0  0  0  0  0  0  0  0  0
  -29.0997  -18.7898   20.9410 C   0  0  0  0  0  0  0  0  0  0  0  0
  -20.8886   -6.0169   23.7740 C   0  0  0  0  0  0  0  0  0  0  0  0
  -24.7581  -11.8196   21.4860 C   0  0  0  0  0  0  0  0  0  0  0  0
  -25.1690  -13.6378   20.3197 C   0  0  0  0  0  0  0  0  0  0  0  0
  -32.6259  -22.0812   22.0334 C   0  0  0  0  0  0  0  0  0  0  0  0
  -22.8088  -13.4577   21.1230 C   0  0  0  0  0  0  0  0  0  0  0  0
  -24.2576  -29.5730   22.3841 C   0  0  0  0  0  0  0  0  0  0  0  0
  -22.6838  -27.3598   20.6101 C   0  0  0  0  0  0  0  0  0  0  0  0
  -22.7049  -24.2847   19.1301 C   0  0  0  0  0  0  0  0  0  0  0  0
  -30.4374  -15.4084   19.9854 C   0  0  0  0  0  0  0  0  0  0  0  0
  -23.8298  -34.5621   23.3757 C   0  0  0  0  0  0  0  0  0  0  0  0
  -25.9515  -29.0728   20.5851 C   0  0  0  0  0  0  0  0  0  0  0  0
  -24.8098  -26.5995   21.7359 C   0  0  0  0  0  0  0  0  0  0  0  0
  -32.5797  -23.5561   22.3614 C   0  0  0  0  0  0  0  0  0  0  0  0
  -22.8768  -33.4477   22.9512 C   0  0  0  0  0  0  0  0  0  0  0  0
  -29.7913  -12.0466   19.0067 C   0  0  0  0  0  0  0  0  0  0  0  0
  -23.0579  -32.2224   23.8414 C   0  0  0  0  0  0  0  0  0  0  0  0
  -28.3749  -11.7843   19.5236 C   0  0  0  0  0  0  0  0  0  0  0  0
  -30.5905  -12.9283   19.9646 C   0  0  0  0  0  0  0  0  0  0  0  0
  -30.3602  -22.7346   22.0670 C   0  0  0  0  0  0  0  0  0  0  0  0
  -28.5221  -13.9279   20.8543 C   0  0  0  0  0  0  0  0  0  0  0  0
  -24.4792  -31.6590   23.7221 C   0  0  1  0  0  0  0  0  0  0  0  0
  -24.4916  -28.9887   21.0197 C   0  0  1  0  0  0  0  0  0  0  0  0
  -31.1542  -23.7687   22.8505 C   0  0  2  0  0  0  0  0  0  0  0  0
  -27.6572  -13.0977   19.8917 C   0  0  2  0  0  0  0  0  0  0  0  0
  -21.2603  -22.7369   17.7830 C   0  0  0  0  0  0  0  0  0  0  0  0
  -21.1023  -26.6535   23.1221 C   0  0  0  0  0  0  0  0  0  0  0  0
  -20.3938  -24.5329   21.9955 C   0  0  0  0  0  0  0  0  0  0  0  0
  -19.7446  -26.7366   21.0235 C   0  0  0  0  0  0  0  0  0  0  0  0
  -24.6030  -24.3020   16.8594 C   0  0  0  0  0  0  0  0  0  0  0  0
  -30.6554  -25.1882   22.6430 C   0  0  0  0  0  0  0  0  0  1  0  0
  -22.1487  -25.9709   20.8626 C   0  0  1  0  0  0  0  0  0  0  0  0
  -22.3106  -23.8357   17.7346 C   0  0  2  0  0  0  0  0  0  0  0  0
  -20.8749  -25.9796   21.7542 C   0  0  0  0  0  0  0  0  0  0  0  0
  -26.0494  -11.7225   21.1587 N   0  0  0  0  0  0  0  0  0  0  0  0
  -26.2695  -12.8428   20.4498 N   0  0  0  0  0  0  0  0  0  0  0  0
  -31.2982  -21.6472   21.8605 N   0  0  0  0  0  0  0  0  0  0  0  0
  -23.9899  -27.6134   21.0524 N   0  0  0  0  0  0  0  0  0  0  0  0
  -29.8506  -14.1560   20.2647 N   0  0  0  0  0  0  0  0  0  0  0  0
  -25.2146  -14.8019   19.6376 N   0  0  0  0  0  0  0  0  0  0  0  0
  -21.8995  -12.6719   21.8441 N   0  0  0  0  0  0  0  0  0  0  0  0
  -29.6272  -16.5038   20.2823 N   0  0  0  0  0  0  0  0  0  0  0  0
  -24.6213  -30.9012   22.4973 N   0  0  0  0  0  0  0  0  0  0  0  0
  -21.9555  -25.3631   19.5505 N   0  0  0  0  0  0  0  0  0  0  0  0
  -23.5001  -23.3170   17.0019 N   0  3  0  0  0  0  0  0  0  0  0  0
  -33.6773  -21.4711   21.9025 O   0  0  0  0  0  0  0  0  0  0  0  0
  -22.4164  -14.5300   20.6036 O   0  0  0  0  0  0  0  0  0  0  0  0
  -23.7809  -28.8710   23.2683 O   0  0  0  0  0  0  0  0  0  0  0  0
  -21.9718  -28.1868   20.0350 O   0  0  0  0  0  0  0  0  0  0  0  0
  -23.5869  -23.7316   19.7834 O   0  0  0  0  0  0  0  0  0  0  0  0
  -31.5643  -15.5015   19.4919 O   0  0  0  0  0  0  0  0  0  0  0  0
  -22.3214   -7.8033   24.5188 O   0  0  0  0  0  0  0  0  0  0  0  0
  -29.3142  -25.2842   23.1209 O   0  0  0  0  0  0  0  0  0  1  0  0
  -17.3547   -6.0301   22.9087 F   0  0  0  0  0  0  0  0  0  0  0  0
  -27.7899  -18.5311   20.8181 F   0  0  0  0  0  0  0  0  0  0  0  0
  -21.9128   -5.1551   23.8385 F   0  0  0  0  0  0  0  0  0  0  0  0
  1  2  1  0  0  0  0
  1  5  2  0  0  0  0
  2  6  2  0  0  0  0
  3 10  2  0  0  0  0
  3 18  1  0  0  0  0
  4 11  1  0  0  0  0
  4 18  2  0  0  0  0
  5 20  1  0  0  0  0
  6 22  1  0  0  0  0
  7 12  2  0  0  0  0
  7 21  1  0  0  0  0
  8  9  2  0  0  0  0
  8 24  1  0  0  0  0
  9 25  1  0  0  0  0
 10 26  1  0  0  0  0
 11 26  2  0  0  0  0
 12 27  1  0  0  0  0
 13 14  2  0  0  0  0
 13 28  1  0  0  0  0
 14 29  1  0  0  0  0
 15 23  1  0  0  0  0
 15 27  2  0  0  0  0
 16 24  2  0  0  0  0
 16 30  1  0  0  0  0
 17 29  2  0  0  0  0
 17 31  1  0  0  0  0
 18 32  1  0  0  0  0
 19 32  1  0  0  0  0
 19 33  2  0  0  0  0
 19 35  1  0  0  0  0
 20 22  2  0  0  0  0
 20 40  1  0  0  0  0
 21 23  2  0  0  0  0
 21 41  1  0  0  0  0
 22 51  1  0  0  0  0
 23 42  1  0  0  0  0
 24 66  1  0  0  0  0
 25 30  2  0  0  0  0
 25 71  1  0  0  0  0
 26 81  1  0  0  0  0
 27 82  1  0  0  0  0
 28 31  2  0  0  0  0
 28 81  1  0  0  0  0
 29 83  1  0  0  0  0
 30 84  1  0  0  0  0
 31 85  1  0  0  0  0
 32 64  2  0  0  0  0
 33 65  1  0  0  0  0
 33 69  1  0  0  0  0
 34 43  1  0  0  0  0
 34 66  1  0  0  0  0
 34 75  2  0  0  0  0
 35 70  1  0  0  0  0
 35 76  2  0  0  0  0
 36 52  1  0  0  0  0
 36 72  1  0  0  0  0
 36 77  2  0  0  0  0
 37 61  1  0  0  0  0
 37 67  1  0  0  0  0
 37 78  2  0  0  0  0
 38 62  1  0  0  0  0
 38 73  1  0  0  0  0
 38 79  2  0  0  0  0
 39 68  1  0  0  0  0
 39 71  1  0  0  0  0
 39 80  2  0  0  0  0
 40 44  1  0  0  0  0
 41 52  1  0  0  0  0
 42 67  1  0  0  0  0
 43 53  1  0  0  0  0
 44 46  1  0  0  0  0
 45 47  1  0  0  0  0
 45 48  1  0  0  0  0
 46 51  1  0  0  0  0
 47 54  1  0  0  0  0
 48 68  1  0  0  0  0
 49 53  1  0  0  0  0
 49 66  1  0  0  0  0
 50 54  1  0  0  0  0
 50 68  1  0  0  0  0
 51 72  1  0  0  0  0
 52 67  1  0  0  0  0
 53 60  1  0  0  0  0
 54 65  1  0  0  0  0
 55 62  1  0  0  0  0
 56 63  1  0  0  0  0
 57 63  1  0  0  0  0
 58 63  1  0  0  0  0
 59 74  1  0  0  0  0
 60 82  1  0  0  0  0
 61 63  1  0  0  0  0
 61 73  1  0  0  0  0
 62 74  1  0  0  0  0
 64 65  1  0  0  0  0
M  CHG  1  74   1
M  ISO  4  39 100  60 101  71 100  82 101
M  END
> <Batch ID>
0064

> <Smiles>
CNC(C)C(=O)NC(C(=O)N1Cc2cc([101O:1][101CH2:1]C3CC(=O)N(c4ccc([100NH:0][100C:0](=O)N5CCCC(n6nc(-c7ccc(Oc8ccc(F)cc8F)cc7)c(C(N)=O)c6N)C5)c(F)c4)C3)ccc2CC1C(=O)NC1CCCc2ccccc21)C(C)(C)C

> <Shape>
0.279

> <Color>
0.138

> <Negative vol penalty>
0.000

$$$$

  -OEChem-04042323153D

 88 97  0     1  0  0  0  0  0999 V2000
  -17.4553  -26.2878   22.5593 C   0  0  0  0  0  0  0  0  0  0  0  0
  -18.4126  -25.4610   23.1385 C   0  0  0  0  0  0  0  0  0  0  0  0
  -23.0226   -9.9661   19.9421 C   0  0  0  0  0  0  0  0  0  0  0  0
  -23.8429   -9.8820   22.2130 C   0  0  0  0  0  0  0  0  0  0  0  0
  -17.8424  -27.2660   21.6443 C   0  0  0  0  0  0  0  0  0  0  0  0
  -19.7575  -25.6111   22.8021 C   0  0  0  0  0  0  0  0  0  0  0  0
  -26.3176  -24.9958   25.6133 C   0  0  0  0  0  0  0  0  0  0  0  0
  -31.4497  -19.0030   20.6745 C   0  0  0  0  0  0  0  0  0  0  0  0
  -31.2441  -17.6238   20.6389 C   0  0  0  0  0  0  0  0  0  0  0  0
  -22.2667   -8.8167   20.1725 C   0  0  0  0  0  0  0  0  0  0  0  0
  -23.0870   -8.7326   22.4435 C   0  0  0  0  0  0  0  0  0  0  0  0
  -27.5449  -24.3848   25.3600 C   0  0  0  0  0  0  0  0  0  0  0  0
  -19.8632   -7.9647   23.1054 C   0  0  0  0  0  0  0  0  0  0  0  0
  -19.1370   -7.8961   24.2943 C   0  0  0  0  0  0  0  0  0  0  0  0
  -28.1060  -26.1611   23.8273 C   0  0  0  0  0  0  0  0  0  0  0  0
  -29.8757  -19.1907   22.4978 C   0  0  0  0  0  0  0  0  0  0  0  0
  -20.3654   -5.9153   24.9304 C   0  0  0  0  0  0  0  0  0  0  0  0
  -23.8108  -10.4987   20.9623 C   0  0  0  0  0  0  0  0  0  0  0  0
  -24.1908  -13.0209   20.9194 C   0  0  0  0  0  0  0  0  0  0  0  0
  -19.1939  -27.4347   21.3039 C   0  0  0  0  0  0  0  0  0  0  0  0
  -25.9701  -26.1903   24.9661 C   0  0  0  0  0  0  0  0  0  0  0  0
  -20.1629  -26.5916   21.8807 C   0  0  0  0  0  0  0  0  0  0  0  0
  -26.8747  -26.7865   24.0760 C   0  0  0  0  0  0  0  0  0  0  0  0
  -29.6701  -17.8115   22.4623 C   0  0  0  0  0  0  0  0  0  0  0  0
  -30.7656  -19.7864   21.6040 C   0  0  0  0  0  0  0  0  0  0  0  0
  -30.3542  -17.0281   21.5328 C   0  0  0  0  0  0  0  0  0  0  0  0
  -22.2989   -8.2000   21.4232 C   0  0  0  0  0  0  0  0  0  0  0  0
  -28.4381  -24.9659   24.4647 C   0  0  0  0  0  0  0  0  0  0  0  0
  -20.8405   -7.0086   22.8289 C   0  0  0  0  0  0  0  0  0  0  0  0
  -19.3881   -6.8714   25.2068 C   0  0  0  0  0  0  0  0  0  0  0  0
  -21.0916   -5.9839   23.7414 C   0  0  0  0  0  0  0  0  0  0  0  0
  -24.5923  -11.6857   20.7247 C   0  0  0  0  0  0  0  0  0  0  0  0
  -25.2852  -13.7654   20.5525 C   0  0  0  0  0  0  0  0  0  0  0  0
  -31.8413  -21.9407   20.8116 C   0  0  0  0  0  0  0  0  0  0  0  0
  -22.9406  -13.5416   21.3898 C   0  0  0  0  0  0  0  0  0  0  0  0
  -23.6642  -27.0667   22.9615 C   0  0  0  0  0  0  0  0  0  0  0  0
  -24.9419  -30.0163   23.3970 C   0  0  0  0  0  0  0  0  0  0  0  0
  -27.6581  -31.9008   24.2443 C   0  0  0  0  0  0  0  0  0  0  0  0
  -30.7706  -14.7192   20.6151 C   0  0  0  0  0  0  0  0  0  0  0  0
  -19.5588  -28.4745   20.2742 C   0  0  0  0  0  0  0  0  0  0  0  0
  -24.6535  -26.8508   25.2704 C   0  0  0  0  0  0  0  0  0  0  0  0
  -26.5580  -28.0791   23.3706 C   0  0  0  0  0  0  0  0  0  0  0  0
  -21.0464  -28.8165   20.2547 C   0  0  0  0  0  0  0  0  0  0  0  0
  -29.5543  -12.4063   18.1967 C   0  0  0  0  0  0  0  0  0  0  0  0
  -21.8871  -27.5440   20.2789 C   0  0  0  0  0  0  0  0  0  0  0  0
  -28.1219  -12.1225   18.6549 C   0  0  0  0  0  0  0  0  0  0  0  0
  -30.5045  -12.5792   19.3803 C   0  0  0  0  0  0  0  0  0  0  0  0
  -30.2452  -22.0632   22.5471 C   0  0  0  0  0  0  0  0  0  0  0  0
  -28.6470  -13.2851   20.8365 C   0  0  0  0  0  0  0  0  0  0  0  0
  -21.6344  -26.7401   21.5601 C   0  0  1  0  0  0  0  0  0  0  0  0
  -31.6246  -23.4097   21.1448 C   0  0  1  0  0  0  0  0  0  0  0  0
  -24.1895  -27.7955   24.1659 C   0  0  1  0  0  0  0  0  0  0  0  0
  -31.0490  -23.3564   22.5607 C   0  0  1  0  0  0  0  0  0  0  0  0
  -27.6406  -13.1678   19.6802 C   0  0  2  0  0  0  0  0  0  0  0  0
  -28.7128  -17.1996   23.4328 C   0  0  0  0  0  0  0  0  0  0  0  0
  -28.4086  -34.2847   24.4707 C   0  0  0  0  0  0  0  0  0  0  0  0
  -34.0881  -23.4561   21.6289 C   0  0  0  0  0  0  0  0  0  0  0  0
  -33.1879  -24.6080   19.5877 C   0  0  0  0  0  0  0  0  0  0  0  0
  -25.1558  -30.2348   20.3611 C   0  0  0  0  0  0  0  0  0  0  0  0
  -26.7370  -32.1496   20.6801 C   0  0  0  0  0  0  0  0  0  0  0  0
  -24.3894  -32.3221   21.5059 C   0  0  0  0  0  0  0  0  0  0  0  0
  -28.2181  -31.5719   27.1317 C   0  0  0  0  0  0  0  0  0  0  0  0
  -30.2014  -24.5670   22.9195 C   0  0  0  0  0  0  0  0  0  1  0  0
  -26.0236  -30.8234   22.7205 C   0  0  1  0  0  0  0  0  0  0  0  0
  -27.8104  -33.0826   25.1848 C   0  0  2  0  0  0  0  0  0  0  0  0
  -32.9027  -24.2243   21.0409 C   0  0  0  0  0  0  0  0  0  0  0  0
  -25.5819  -31.3571   21.3286 C   0  0  0  0  0  0  0  0  0  0  0  0
  -25.8439  -11.5847   20.2694 N   0  0  0  0  0  0  0  0  0  0  0  0
  -26.2383  -12.8660   20.1748 N   0  0  0  0  0  0  0  0  0  0  0  0
  -30.9782  -21.1974   21.6420 N   0  0  0  0  0  0  0  0  0  0  0  0
  -25.2555  -28.6830   23.6966 N   0  0  0  0  0  0  0  0  0  0  0  0
  -29.9860  -13.5877   20.3072 N   0  0  0  0  0  0  0  0  0  0  0  0
  -25.5155  -15.0952   20.5193 N   0  0  0  0  0  0  0  0  0  0  0  0
  -21.9231  -12.6372   21.7231 N   0  0  0  0  0  0  0  0  0  0  0  0
  -30.1604  -15.6254   21.4818 N   0  0  0  0  0  0  0  0  0  0  0  0
  -22.3387  -27.3337   22.6764 N   0  0  0  0  0  0  0  0  0  0  0  0
  -26.4068  -31.8661   23.6662 N   0  0  0  0  0  0  0  0  0  0  0  0
  -28.6983  -32.7246   26.3269 N   0  3  0  0  0  0  0  0  0  0  0  0
  -32.5960  -21.5595   19.9284 O   0  0  0  0  0  0  0  0  0  0  0  0
  -22.7262  -14.7730   21.4955 O   0  0  0  0  0  0  0  0  0  0  0  0
  -24.4068  -26.3189   22.3363 O   0  0  0  0  0  0  0  0  0  0  0  0
  -23.8612  -30.5513   23.6567 O   0  0  0  0  0  0  0  0  0  0  0  0
  -28.5603  -31.0916   24.0398 O   0  0  0  0  0  0  0  0  0  0  0  0
  -31.8895  -14.8864   20.1231 O   0  0  0  0  0  0  0  0  0  0  0  0
  -21.5612   -7.0785   21.6485 O   0  0  0  0  0  0  0  0  0  0  0  0
  -29.6365  -24.3713   24.2152 O   0  0  0  0  0  0  0  0  0  1  0  0
  -18.6916   -6.8066   26.3491 F   0  0  0  0  0  0  0  0  0  0  0  0
  -22.0300   -5.0632   23.4819 F   0  0  0  0  0  0  0  0  0  0  0  0
  1  2  1  0  0  0  0
  1  5  2  0  0  0  0
  2  6  2  0  0  0  0
  3 10  2  0  0  0  0
  3 18  1  0  0  0  0
  4 11  1  0  0  0  0
  4 18  2  0  0  0  0
  5 20  1  0  0  0  0
  6 22  1  0  0  0  0
  7 12  2  0  0  0  0
  7 21  1  0  0  0  0
  8  9  2  0  0  0  0
  8 25  1  0  0  0  0
  9 26  1  0  0  0  0
 10 27  1  0  0  0  0
 11 27  2  0  0  0  0
 12 28  1  0  0  0  0
 13 14  2  0  0  0  0
 13 29  1  0  0  0  0
 14 30  1  0  0  0  0
 15 23  1  0  0  0  0
 15 28  2  0  0  0  0
 16 24  1  0  0  0  0
 16 25  2  0  0  0  0
 17 30  2  0  0  0  0
 17 31  1  0  0  0  0
 18 32  1  0  0  0  0
 19 32  1  0  0  0  0
 19 33  2  0  0  0  0
 19 35  1  0  0  0  0
 20 22  2  0  0  0  0
 20 40  1  0  0  0  0
 21 23  2  0  0  0  0
 21 41  1  0  0  0  0
 22 50  1  0  0  0  0
 23 42  1  0  0  0  0
 24 26  2  0  0  0  0
 24 55  1  0  0  0  0
 25 70  1  0  0  0  0
 26 75  1  0  0  0  0
 27 85  1  0  0  0  0
 28 86  1  0  0  0  0
 29 31  2  0  0  0  0
 29 85  1  0  0  0  0
 30 87  1  0  0  0  0
 31 88  1  0  0  0  0
 32 68  2  0  0  0  0
 33 69  1  0  0  0  0
 33 73  1  0  0  0  0
 34 51  1  0  0  0  0
 34 70  1  0  0  0  0
 34 79  2  0  0  0  0
 35 74  1  0  0  0  0
 35 80  2  0  0  0  0
 36 52  1  0  0  0  0
 36 76  1  0  0  0  0
 36 81  2  0  0  0  0
 37 64  1  0  0  0  0
 37 71  1  0  0  0  0
 37 82  2  0  0  0  0
 38 65  1  0  0  0  0
 38 77  1  0  0  0  0
 38 83  2  0  0  0  0
 39 72  1  0  0  0  0
 39 75  1  0  0  0  0
 39 84  2  0  0  0  0
 40 43  1  0  0  0  0
 41 52  1  0  0  0  0
 42 71  1  0  0  0  0
 43 45  1  0  0  0  0
 44 46  1  0  0  0  0
 44 47  1  0  0  0  0
 45 50  1  0  0  0  0
 46 54  1  0  0  0  0
 47 72  1  0  0  0  0
 48 53  1  0  0  0  0
 48 70  1  0  0  0  0
 49 54  1  0  0  0  0
 49 72  1  0  0  0  0
 50 76  1  0  0  0  0
 51 53  1  0  0  0  0
 51 66  1  0  0  0  0
 52 71  1  0  0  0  0
 53 63  1  0  0  0  0
 54 69  1  0  0  0  0
 56 65  1  0  0  0  0
 57 66  1  0  0  0  0
 58 66  1  0  0  0  0
 59 67  1  0  0  0  0
 60 67  1  0  0  0  0
 61 67  1  0  0  0  0
 62 78  1  0  0  0  0
 63 86  1  0  0  0  0
 64 67  1  0  0  0  0
 64 77  1  0  0  0  0
 65 78  1  0  0  0  0
 68 69  1  0  0  0  0
M  CHG  1  78   1
M  ISO  4  39 100  63 101  75 100  86 101
M  END
> <Batch ID>
0064

> <Smiles>
CNC(C)C(=O)NC(C(=O)N1Cc2cc([101O:1][101CH2:1]C3CN(c4ccc([100NH:0][100C:0](=O)N5CCCC(n6nc(-c7ccc(Oc8ccc(F)cc8F)cc7)c(C(N)=O)c6N)C5)c(C)c4)C(=O)C3C(C)C)ccc2CC1C(=O)NC1CCCc2ccccc21)C(C)(C)C

> <Shape>
0.316

> <Color>
0.193

> <Negative vol penalty>
0.000

$$$$

  -OEChem-04042323153D

 87 96  0     1  0  0  0  0  0999 V2000
  -21.4218  -27.2035   21.6033 C   0  0  0  0  0  0  0  0  0  0  0  0
  -22.1221  -26.0672   21.9954 C   0  0  0  0  0  0  0  0  0  0  0  0
  -22.6677  -10.2004   20.1653 C   0  0  0  0  0  0  0  0  0  0  0  0
  -24.3242   -9.4078   21.7352 C   0  0  0  0  0  0  0  0  0  0  0  0
  -20.4619  -27.1163   20.5959 C   0  0  0  0  0  0  0  0  0  0  0  0
  -21.8622  -24.8428   21.3810 C   0  0  0  0  0  0  0  0  0  0  0  0
  -26.0942  -22.3281   20.1930 C   0  0  0  0  0  0  0  0  0  0  0  0
  -21.9321   -9.0299   20.3504 C   0  0  0  0  0  0  0  0  0  0  0  0
  -23.5887   -8.2372   21.9204 C   0  0  0  0  0  0  0  0  0  0  0  0
  -26.7504  -21.6618   21.2270 C   0  0  0  0  0  0  0  0  0  0  0  0
  -20.8455   -7.2667   23.6390 C   0  0  0  0  0  0  0  0  0  0  0  0
  -20.6645   -6.8169   24.9469 C   0  0  0  0  0  0  0  0  0  0  0  0
  -31.9269  -17.3369   21.7800 C   0  0  0  0  0  0  0  0  0  0  0  0
  -25.7557  -19.5839   20.5112 C   0  0  0  0  0  0  0  0  0  0  0  0
  -21.7832   -4.7490   24.3905 C   0  0  0  0  0  0  0  0  0  0  0  0
  -32.1769  -18.5199   22.4400 C   0  0  0  0  0  0  0  0  0  0  0  0
  -23.8638  -10.3894   20.8577 C   0  0  0  0  0  0  0  0  0  0  0  0
  -24.2010  -12.9174   20.9161 C   0  0  0  0  0  0  0  0  0  0  0  0
  -20.1968  -25.8921   19.9622 C   0  0  0  0  0  0  0  0  0  0  0  0
  -25.2538  -21.6280   19.3155 C   0  0  0  0  0  0  0  0  0  0  0  0
  -20.8969  -24.7388   20.3651 C   0  0  0  0  0  0  0  0  0  0  0  0
  -25.0920  -20.2433   19.4653 C   0  0  0  0  0  0  0  0  0  0  0  0
  -30.6450  -16.8049   22.1019 C   0  0  0  0  0  0  0  0  0  0  0  0
  -22.3926   -8.0483   21.2280 C   0  0  0  0  0  0  0  0  0  0  0  0
  -26.5790  -20.2900   21.3880 C   0  0  0  0  0  0  0  0  0  0  0  0
  -21.4953   -6.4576   22.7069 C   0  0  0  0  0  0  0  0  0  0  0  0
  -21.1333   -5.5581   25.3226 C   0  0  0  0  0  0  0  0  0  0  0  0
  -21.9642   -5.1988   23.0826 C   0  0  0  0  0  0  0  0  0  0  0  0
  -24.6243  -11.5982   20.6665 C   0  0  0  0  0  0  0  0  0  0  0  0
  -25.2814  -13.6947   20.5771 C   0  0  0  0  0  0  0  0  0  0  0  0
  -29.9640  -17.6016   22.9961 C   0  0  0  0  0  0  0  0  0  0  0  0
  -22.9436  -13.3972   21.4104 C   0  0  0  0  0  0  0  0  0  0  0  0
  -22.1605  -21.7520   18.5945 C   0  0  0  0  0  0  0  0  0  0  0  0
  -22.9999  -19.5843   16.3321 C   0  0  0  0  0  0  0  0  0  0  0  0
  -25.1846  -17.1757   15.2965 C   0  0  0  0  0  0  0  0  0  0  0  0
  -30.7500  -14.7386   20.6647 C   0  0  0  0  0  0  0  0  0  0  0  0
  -19.1167  -25.8376   18.9110 C   0  0  0  0  0  0  0  0  0  0  0  0
  -24.5741  -22.3568   18.1889 C   0  0  0  0  0  0  0  0  0  0  0  0
  -24.2167  -19.4422   18.5377 C   0  0  0  0  0  0  0  0  0  0  0  0
  -19.1665  -24.5773   18.0511 C   0  0  0  0  0  0  0  0  0  0  0  0
  -29.5655  -12.5049   18.1577 C   0  0  0  0  0  0  0  0  0  0  0  0
  -19.3411  -23.3404   18.9264 C   0  0  0  0  0  0  0  0  0  0  0  0
  -28.1396  -12.1784   18.6075 C   0  0  0  0  0  0  0  0  0  0  0  0
  -30.5164  -12.6460   19.3450 C   0  0  0  0  0  0  0  0  0  0  0  0
  -28.6517  -13.2606   20.8331 C   0  0  0  0  0  0  0  0  0  0  0  0
  -27.4724  -17.2722   22.6911 C   0  0  0  0  0  0  0  0  0  0  0  0
  -20.6608  -23.3975   19.7053 C   0  0  1  0  0  0  0  0  0  0  0  0
  -23.3373  -21.6314   17.6680 C   0  0  1  0  0  0  0  0  0  0  0  0
  -26.2959  -18.6908   24.4426 C   0  0  2  0  0  0  0  0  0  0  0  0
  -27.6438  -13.1730   19.6755 C   0  0  2  0  0  0  0  0  0  0  0  0
  -26.5712  -18.4839   22.9369 C   0  0  1  0  0  0  0  0  0  1  0  0
  -27.6289  -18.6105   25.2487 C   0  0  1  0  0  0  0  0  0  0  0  0
  -25.1775  -17.7576   24.9166 C   0  0  0  0  0  0  0  0  0  0  0  0
  -25.5870  -15.5548   13.4234 C   0  0  0  0  0  0  0  0  0  0  0  0
  -28.7493  -18.6616   27.4912 C   0  0  0  0  0  0  0  0  0  0  0  0
  -26.7596  -20.1268   27.0463 C   0  0  0  0  0  0  0  0  0  0  0  0
  -20.8019  -17.7746   17.4292 C   0  0  0  0  0  0  0  0  0  0  0  0
  -21.8552  -15.8659   16.1981 C   0  0  0  0  0  0  0  0  0  0  0  0
  -20.9645  -17.8233   14.9340 C   0  0  0  0  0  0  0  0  0  0  0  0
  -28.1853  -16.1678   25.4965 C   0  0  0  0  0  0  0  0  0  0  0  0
  -27.7762  -18.4306   14.6123 C   0  0  0  0  0  0  0  0  0  0  0  0
  -23.0919  -18.0785   16.2761 C   0  0  1  0  0  0  0  0  0  0  0  0
  -25.8743  -16.9471   13.9636 C   0  0  2  0  0  0  0  0  0  0  0  0
  -27.4197  -18.7846   26.7581 C   0  0  0  0  0  0  0  0  0  0  0  0
  -21.6934  -17.4007   16.2282 C   0  0  0  0  0  0  0  0  0  0  0  0
  -25.8760  -11.5371   20.2044 N   0  0  0  0  0  0  0  0  0  0  0  0
  -26.2484  -12.8276   20.1608 N   0  0  0  0  0  0  0  0  0  0  0  0
  -28.6763  -17.3770   23.5279 N   0  0  3  0  0  0  0  0  0  0  0  0
  -23.5685  -20.2012   17.4554 N   0  0  0  0  0  0  0  0  0  0  0  0
  -29.9837  -13.6072   20.3132 N   0  0  0  0  0  0  0  0  0  0  0  0
  -28.5050  -17.4689   24.9303 N   0  0  1  0  0  0  0  0  0  0  0  0
  -25.4891  -15.0284   20.5973 N   0  0  0  0  0  0  0  0  0  0  0  0
  -22.7797  -13.5379   22.7952 N   0  0  0  0  0  0  0  0  0  0  0  0
  -30.1273  -15.5985   21.5688 N   0  0  0  0  0  0  0  0  0  0  0  0
  -21.7716  -23.0544   18.8435 N   0  0  0  0  0  0  0  0  0  0  0  0
  -23.9477  -17.7638   15.1373 N   0  0  0  0  0  0  0  0  0  0  0  0
  -27.3495  -17.0988   14.1109 N   0  3  0  0  0  0  0  0  0  0  0  0
  -21.9879  -13.6770   20.6476 O   0  0  0  0  0  0  0  0  0  0  0  0
  -21.6427  -20.7384   19.0486 O   0  0  0  0  0  0  0  0  0  0  0  0
  -22.4503  -20.1912   15.4095 O   0  0  0  0  0  0  0  0  0  0  0  0
  -25.6909  -16.8604   16.3711 O   0  0  0  0  0  0  0  0  0  0  0  0
  -31.8644  -14.9446   20.1772 O   0  0  0  0  0  0  0  0  0  0  0  0
  -21.6750   -6.9060   21.4090 O   0  0  0  0  0  0  0  0  0  0  0  0
  -27.2178  -19.6372   22.3968 O   0  0  0  0  0  0  0  0  0  1  0  0
  -20.9608   -5.1269   26.5790 F   0  0  0  0  0  0  0  0  0  0  0  0
  -22.5903   -4.4176   22.1918 F   0  0  0  0  0  0  0  0  0  0  0  0
  -30.8693  -18.9845   23.4433 S   0  0  0  0  0  0  0  0  0  0  0  0
  1  2  1  0  0  0  0
  1  5  2  0  0  0  0
  2  6  2  0  0  0  0
  3  8  2  0  0  0  0
  3 17  1  0  0  0  0
  4  9  1  0  0  0  0
  4 17  2  0  0  0  0
  5 19  1  0  0  0  0
  6 21  1  0  0  0  0
  7 10  2  0  0  0  0
  7 20  1  0  0  0  0
  8 24  1  0  0  0  0
  9 24  2  0  0  0  0
 10 25  1  0  0  0  0
 11 12  2  0  0  0  0
 11 26  1  0  0  0  0
 12 27  1  0  0  0  0
 13 16  2  0  0  0  0
 13 23  1  0  0  0  0
 14 22  1  0  0  0  0
 14 25  2  0  0  0  0
 15 27  2  0  0  0  0
 15 28  1  0  0  0  0
 16 87  1  0  0  0  0
 17 29  1  0  0  0  0
 18 29  1  0  0  0  0
 18 30  2  0  0  0  0
 18 32  1  0  0  0  0
 19 21  2  0  0  0  0
 19 37  1  0  0  0  0
 20 22  2  0  0  0  0
 20 38  1  0  0  0  0
 21 47  1  0  0  0  0
 22 39  1  0  0  0  0
 23 31  2  0  0  0  0
 23 74  1  0  0  0  0
 24 83  1  0  0  0  0
 25 84  1  0  0  0  0
 26 28  2  0  0  0  0
 26 83  1  0  0  0  0
 27 85  1  0  0  0  0
 28 86  1  0  0  0  0
 29 66  2  0  0  0  0
 30 67  1  0  0  0  0
 30 72  1  0  0  0  0
 31 68  1  0  0  0  0
 31 87  1  0  0  0  0
 32 73  1  0  0  0  0
 32 78  2  0  0  0  0
 33 48  1  0  0  0  0
 33 75  1  0  0  0  0
 33 79  2  0  0  0  0
 34 62  1  0  0  0  0
 34 69  1  0  0  0  0
 34 80  2  0  0  0  0
 35 63  1  0  0  0  0
 35 76  1  0  0  0  0
 35 81  2  0  0  0  0
 36 70  1  0  0  0  0
 36 74  1  0  0  0  0
 36 82  2  0  0  0  0
 37 40  1  0  0  0  0
 38 48  1  0  0  0  0
 39 69  1  0  0  0  0
 40 42  1  0  0  0  0
 41 43  1  0  0  0  0
 41 44  1  0  0  0  0
 42 47  1  0  0  0  0
 43 50  1  0  0  0  0
 44 70  1  0  0  0  0
 45 50  1  0  0  0  0
 45 70  1  0  0  0  0
 46 51  1  0  0  0  0
 46 68  1  0  0  0  0
 47 75  1  0  0  0  0
 48 69  1  0  0  0  0
 49 51  1  0  0  0  0
 49 52  1  0  0  0  0
 49 53  1  0  0  0  0
 50 67  1  0  0  0  0
 51 84  1  0  0  0  0
 52 64  1  0  0  0  0
 52 71  1  0  0  0  0
 54 63  1  0  0  0  0
 55 64  1  0  0  0  0
 56 64  1  0  0  0  0
 57 65  1  0  0  0  0
 58 65  1  0  0  0  0
 59 65  1  0  0  0  0
 60 71  1  0  0  0  0
 61 77  1  0  0  0  0
 62 65  1  0  0  0  0
 62 76  1  0  0  0  0
 63 77  1  0  0  0  0
 66 67  1  0  0  0  0
 68 71  1  0  0  0  0
M  CHG  1  77   1
M  ISO  4  36 100  51 101  74 100  84 101
M  END
> <Batch ID>
0064

> <Smiles>
CNC(C)C(=O)NC(C(=O)N1Cc2cc([101O:1][101CH:1]3CN(c4sccc4[100NH:0][100C:0](=O)N4CCCC(n5nc(-c6ccc(Oc7ccc(F)cc7F)cc6)c(C(N)=O)c5N)C4)N(C)C(C(C)C)C3C)ccc2CC1C(=O)NC1CCCc2ccccc21)C(C)(C)C

> <Shape>
0.209

> <Color>
0.179

> <Negative vol penalty>
0.000

$$$$

  -OEChem-04042323153D

 88 97  0     1  0  0  0  0  0999 V2000
  -35.7521  -10.1809   23.7470 C   0  0  0  0  0  0  0  0  0  0  0  0
  -35.7021  -11.5709   23.7745 C   0  0  0  0  0  0  0  0  0  0  0  0
  -24.3784  -31.2787   25.2961 C   0  0  0  0  0  0  0  0  0  0  0  0
  -25.6645  -30.1566   23.5862 C   0  0  0  0  0  0  0  0  0  0  0  0
  -34.9983   -9.4758   22.8097 C   0  0  0  0  0  0  0  0  0  0  0  0
  -34.8991  -12.2568   22.8640 C   0  0  0  0  0  0  0  0  0  0  0  0
  -30.9102  -18.1796   22.2936 C   0  0  0  0  0  0  0  0  0  0  0  0
  -21.3443  -21.5693   19.7098 C   0  0  0  0  0  0  0  0  0  0  0  0
  -20.8065  -22.7266   20.2730 C   0  0  0  0  0  0  0  0  0  0  0  0
  -25.5247  -31.3944   26.0824 C   0  0  0  0  0  0  0  0  0  0  0  0
  -26.8108  -30.2724   24.3724 C   0  0  0  0  0  0  0  0  0  0  0  0
  -30.7470  -19.2931   21.4707 C   0  0  0  0  0  0  0  0  0  0  0  0
  -28.1861  -32.3067   28.3844 C   0  0  0  0  0  0  0  0  0  0  0  0
  -28.4307  -33.5355   28.9974 C   0  0  0  0  0  0  0  0  0  0  0  0
  -29.4270  -17.9670   19.9481 C   0  0  0  0  0  0  0  0  0  0  0  0
  -22.5402  -24.0426   19.2243 C   0  0  0  0  0  0  0  0  0  0  0  0
  -28.5097  -34.6008   26.8303 C   0  0  0  0  0  0  0  0  0  0  0  0
  -24.4483  -30.6597   24.0480 C   0  0  0  0  0  0  0  0  0  0  0  0
  -22.7933  -31.4577   22.2784 C   0  0  0  0  0  0  0  0  0  0  0  0
  -34.1781  -10.1530   21.8935 C   0  0  0  0  0  0  0  0  0  0  0  0
  -30.3412  -16.9466   21.9438 C   0  0  0  0  0  0  0  0  0  0  0  0
  -34.1346  -11.5601   21.9126 C   0  0  0  0  0  0  0  0  0  0  0  0
  -29.5823  -16.8400   20.7696 C   0  0  0  0  0  0  0  0  0  0  0  0
  -22.4801  -21.6487   18.9039 C   0  0  0  0  0  0  0  0  0  0  0  0
  -23.0780  -22.8853   18.6612 C   0  0  0  0  0  0  0  0  0  0  0  0
  -21.4044  -23.9632   20.0302 C   0  0  0  0  0  0  0  0  0  0  0  0
  -26.7409  -30.8913   25.6205 C   0  0  0  0  0  0  0  0  0  0  0  0
  -30.0078  -19.1862   20.2963 C   0  0  0  0  0  0  0  0  0  0  0  0
  -28.1034  -32.2249   26.9944 C   0  0  0  0  0  0  0  0  0  0  0  0
  -28.5925  -34.6826   28.2204 C   0  0  0  0  0  0  0  0  0  0  0  0
  -28.2651  -33.3719   26.2174 C   0  0  0  0  0  0  0  0  0  0  0  0
  -23.2644  -30.5393   23.2356 C   0  0  0  0  0  0  0  0  0  0  0  0
  -21.6447  -30.8850   21.7892 C   0  0  0  0  0  0  0  0  0  0  0  0
  -24.3478  -22.6067   16.4880 C   0  0  0  0  0  0  0  0  0  0  0  0
  -23.3446  -32.7160   21.8680 C   0  0  0  0  0  0  0  0  0  0  0  0
  -31.4849  -14.0563   21.2791 C   0  0  0  0  0  0  0  0  0  0  0  0
  -28.3430  -13.2511   21.2307 C   0  0  0  0  0  0  0  0  0  0  0  0
  -28.2611  -21.7827   18.4644 C   0  0  0  0  0  0  0  0  0  0  0  0
  -25.1033  -14.2451   20.8269 C   0  0  0  0  0  0  0  0  0  0  0  0
  -19.7358  -25.2345   21.4252 C   0  0  0  0  0  0  0  0  0  0  0  0
  -33.4179   -9.3497   20.8680 C   0  0  0  0  0  0  0  0  0  0  0  0
  -30.5040  -15.7615   22.8558 C   0  0  0  0  0  0  0  0  0  0  0  0
  -28.9339  -15.5439   20.3593 C   0  0  0  0  0  0  0  0  0  0  0  0
  -25.7348  -22.9945   16.0210 C   0  0  0  0  0  0  0  0  0  0  0  0
  -32.3036  -10.1360   20.1823 C   0  0  0  0  0  0  0  0  0  0  0  0
  -18.0942  -27.9353   23.0647 C   0  0  0  0  0  0  0  0  0  0  0  0
  -32.8078  -11.5088   19.7486 C   0  0  0  0  0  0  0  0  0  0  0  0
  -19.1893  -28.9955   23.2020 C   0  0  0  0  0  0  0  0  0  0  0  0
  -18.6460  -26.5228   23.2494 C   0  0  0  0  0  0  0  0  0  0  0  0
  -20.8889  -27.2485   22.5341 C   0  0  0  0  0  0  0  0  0  0  0  0
  -25.4711  -23.5981   18.3110 C   0  0  0  0  0  0  0  0  0  0  0  0
  -33.2564  -12.3389   20.9575 C   0  0  1  0  0  0  0  0  0  0  0  0
  -30.3119  -14.4272   22.1417 C   0  0  1  0  0  0  0  0  0  0  0  0
  -20.3931  -28.6834   22.2916 C   0  0  2  0  0  0  0  0  0  0  0  0
  -26.5213  -23.1375   17.3137 C   0  0  1  0  0  0  0  0  0  0  0  0
  -23.0343  -20.3927   18.3139 C   0  0  0  0  0  0  0  0  0  0  0  0
  -22.7574  -13.3543   20.8068 C   0  0  0  0  0  0  0  0  0  0  0  0
  -28.8157  -12.0755   18.4550 C   0  0  0  0  0  0  0  0  0  0  0  0
  -26.3362  -12.0759   18.1088 C   0  0  0  0  0  0  0  0  0  0  0  0
  -27.3388  -10.7007   19.9325 C   0  0  0  0  0  0  0  0  0  0  0  0
  -24.3106  -15.9558   23.1082 C   0  0  0  0  0  0  0  0  0  0  0  0
  -28.6436  -20.3419   18.7281 C   0  0  0  0  0  0  0  0  0  1  0  0
  -27.2645  -13.2162   20.1750 C   0  0  1  0  0  0  0  0  0  0  0  0
  -23.8574  -13.9778   21.6519 C   0  0  2  0  0  0  0  0  0  0  0  0
  -27.4525  -12.0411   19.1743 C   0  0  0  0  0  0  0  0  0  0  0  0
  -22.4792  -29.4648   23.3494 N   0  0  0  0  0  0  0  0  0  0  0  0
  -21.5030  -29.7045   22.4574 N   0  0  0  0  0  0  0  0  0  0  0  0
  -24.2401  -22.9870   17.8399 N   0  0  0  0  0  0  0  0  0  0  0  0
  -29.1273  -14.4122   21.2809 N   0  0  0  0  0  0  0  0  0  0  0  0
  -19.7811  -26.2976   22.3518 N   0  0  0  0  0  0  0  0  0  0  0  0
  -20.7522  -31.2811   20.8570 N   0  0  0  0  0  0  0  0  0  0  0  0
  -24.5303  -33.1551   22.4727 N   0  0  0  0  0  0  0  0  0  0  0  0
  -20.8577  -25.1385   20.6026 N   0  0  0  0  0  0  0  0  0  0  0  0
  -32.1084  -12.8809   21.6523 N   0  0  0  0  0  0  0  0  0  0  0  0
  -27.1034  -21.8752   17.7079 N   0  0  0  0  0  0  0  0  0  0  0  0
  -25.9933  -13.1939   20.8906 N   0  0  0  0  0  0  0  0  0  0  0  0
  -23.3396  -15.2479   22.2347 N   0  3  0  0  0  0  0  0  0  0  0  0
  -23.5164  -22.1135   15.7397 O   0  0  0  0  0  0  0  0  0  0  0  0
  -22.7931  -33.4376   21.0027 O   0  0  0  0  0  0  0  0  0  0  0  0
  -31.8001  -14.7819   20.3432 O   0  0  0  0  0  0  0  0  0  0  0  0
  -28.4798  -12.2867   21.9876 O   0  0  0  0  0  0  0  0  0  0  0  0
  -28.9186  -22.7318   18.8825 O   0  0  0  0  0  0  0  0  0  0  0  0
  -25.2687  -15.2812   20.1868 O   0  0  0  0  0  0  0  0  0  0  0  0
  -18.7609  -24.4824   21.3475 O   0  0  0  0  0  0  0  0  0  0  0  0
  -27.8597  -31.0043   26.3874 O   0  0  0  0  0  0  0  0  0  0  0  0
  -29.8475  -20.2714   19.4910 O   0  0  0  0  0  0  0  0  0  1  0  0
  -28.8258  -35.8628   28.8092 F   0  0  0  0  0  0  0  0  0  0  0  0
  -28.1855  -33.2998   24.8816 F   0  0  0  0  0  0  0  0  0  0  0  0
  1  2  1  0  0  0  0
  1  5  2  0  0  0  0
  2  6  2  0  0  0  0
  3 10  2  0  0  0  0
  3 18  1  0  0  0  0
  4 11  1  0  0  0  0
  4 18  2  0  0  0  0
  5 20  1  0  0  0  0
  6 22  1  0  0  0  0
  7 12  2  0  0  0  0
  7 21  1  0  0  0  0
  8  9  2  0  0  0  0
  8 24  1  0  0  0  0
  9 26  1  0  0  0  0
 10 27  1  0  0  0  0
 11 27  2  0  0  0  0
 12 28  1  0  0  0  0
 13 14  2  0  0  0  0
 13 29  1  0  0  0  0
 14 30  1  0  0  0  0
 15 23  1  0  0  0  0
 15 28  2  0  0  0  0
 16 25  1  0  0  0  0
 16 26  2  0  0  0  0
 17 30  2  0  0  0  0
 17 31  1  0  0  0  0
 18 32  1  0  0  0  0
 19 32  1  0  0  0  0
 19 33  2  0  0  0  0
 19 35  1  0  0  0  0
 20 22  2  0  0  0  0
 20 41  1  0  0  0  0
 21 23  2  0  0  0  0
 21 42  1  0  0  0  0
 22 52  1  0  0  0  0
 23 43  1  0  0  0  0
 24 25  2  0  0  0  0
 24 56  1  0  0  0  0
 25 68  1  0  0  0  0
 26 73  1  0  0  0  0
 27 85  1  0  0  0  0
 28 86  1  0  0  0  0
 29 31  2  0  0  0  0
 29 85  1  0  0  0  0
 30 87  1  0  0  0  0
 31 88  1  0  0  0  0
 32 66  2  0  0  0  0
 33 67  1  0  0  0  0
 33 71  1  0  0  0  0
 34 44  1  0  0  0  0
 34 68  1  0  0  0  0
 34 78  2  0  0  0  0
 35 72  1  0  0  0  0
 35 79  2  0  0  0  0
 36 53  1  0  0  0  0
 36 74  1  0  0  0  0
 36 80  2  0  0  0  0
 37 63  1  0  0  0  0
 37 69  1  0  0  0  0
 37 81  2  0  0  0  0
 38 62  1  0  0  0  0
 38 75  1  0  0  0  0
 38 82  2  0  0  0  0
 39 64  1  0  0  0  0
 39 76  1  0  0  0  0
 39 83  2  0  0  0  0
 40 70  1  0  0  0  0
 40 73  1  0  0  0  0
 40 84  2  0  0  0  0
 41 45  1  0  0  0  0
 42 53  1  0  0  0  0
 43 69  1  0  0  0  0
 44 55  1  0  0  0  0
 45 47  1  0  0  0  0
 46 48  1  0  0  0  0
 46 49  1  0  0  0  0
 47 52  1  0  0  0  0
 48 54  1  0  0  0  0
 49 70  1  0  0  0  0
 50 54  1  0  0  0  0
 50 70  1  0  0  0  0
 51 55  1  0  0  0  0
 51 68  1  0  0  0  0
 52 74  1  0  0  0  0
 53 69  1  0  0  0  0
 54 67  1  0  0  0  0
 55 75  1  0  0  0  0
 57 64  1  0  0  0  0
 58 65  1  0  0  0  0
 59 65  1  0  0  0  0
 60 65  1  0  0  0  0
 61 77  1  0  0  0  0
 62 86  1  0  0  0  0
 63 65  1  0  0  0  0
 63 76  1  0  0  0  0
 64 77  1  0  0  0  0
 66 67  1  0  0  0  0
M  CHG  1  77   1
M  ISO  4  40 100  62 101  73 100  86 101
M  END
> <Batch ID>
0064

> <Smiles>
CNC(C)C(=O)NC(C(=O)N1Cc2cc([101O:1][101CH2:1]C(=O)NC3CC(=O)N(c4cc([100NH:0][100C:0](=O)N5CCCC(n6nc(-c7ccc(Oc8ccc(F)cc8F)cc7)c(C(N)=O)c6N)C5)ccc4C)C3)ccc2CC1C(=O)NC1CCCc2ccccc21)C(C)(C)C

> <Shape>
0.263

> <Color>
0.087

> <Negative vol penalty>
0.000

$$$$

  -OEChem-04042323153D

 87 95  0     1  0  0  0  0  0999 V2000
  -18.5982  -33.7015   23.0397 C   0  0  0  0  0  0  0  0  0  0  0  0
  -19.7300  -33.5779   22.2402 C   0  0  0  0  0  0  0  0  0  0  0  0
  -24.2195  -14.3725   20.8993 C   0  0  0  0  0  0  0  0  0  0  0  0
  -26.4895  -14.2399   20.0827 C   0  0  0  0  0  0  0  0  0  0  0  0
  -18.3916  -32.8144   24.0953 C   0  0  0  0  0  0  0  0  0  0  0  0
  -20.6564  -32.5677   22.4966 C   0  0  0  0  0  0  0  0  0  0  0  0
  -25.2399  -28.2106   19.1316 C   0  0  0  0  0  0  0  0  0  0  0  0
  -27.8482  -22.7703   13.8758 C   0  0  0  0  0  0  0  0  0  0  0  0
  -24.2891  -13.0411   21.3091 C   0  0  0  0  0  0  0  0  0  0  0  0
  -26.5591  -12.9084   20.4925 C   0  0  0  0  0  0  0  0  0  0  0  0
  -26.5775  -27.8189   19.1677 C   0  0  0  0  0  0  0  0  0  0  0  0
  -24.0738   -9.9829   19.8859 C   0  0  0  0  0  0  0  0  0  0  0  0
  -28.8782  -23.6342   13.5041 C   0  0  0  0  0  0  0  0  0  0  0  0
  -22.9898   -9.1568   19.5894 C   0  0  0  0  0  0  0  0  0  0  0  0
  -28.5534  -22.9214   16.1817 C   0  0  0  0  0  0  0  0  0  0  0  0
  -26.0763  -26.2952   20.9695 C   0  0  0  0  0  0  0  0  0  0  0  0
  -22.6605   -8.7425   21.9467 C   0  0  0  0  0  0  0  0  0  0  0  0
  -25.3197  -14.9719   20.2860 C   0  0  0  0  0  0  0  0  0  0  0  0
  -29.5835  -23.7853   15.8100 C   0  0  0  0  0  0  0  0  0  0  0  0
  -25.5860  -17.4876   20.6149 C   0  0  0  0  0  0  0  0  0  0  0  0
  -19.3110  -31.7869   24.3588 C   0  0  0  0  0  0  0  0  0  0  0  0
  -24.3111  -27.6545   20.0229 C   0  0  0  0  0  0  0  0  0  0  0  0
  -20.4626  -31.6669   23.5576 C   0  0  0  0  0  0  0  0  0  0  0  0
  -24.7270  -26.6796   20.9409 C   0  0  0  0  0  0  0  0  0  0  0  0
  -27.6857  -22.4139   15.2146 C   0  0  0  0  0  0  0  0  0  0  0  0
  -25.4589  -12.3090   21.1057 C   0  0  0  0  0  0  0  0  0  0  0  0
  -26.9964  -26.8632   20.0887 C   0  0  0  0  0  0  0  0  0  0  0  0
  -24.4513  -10.1888   21.2129 C   0  0  0  0  0  0  0  0  0  0  0  0
  -22.2831   -8.5366   20.6198 C   0  0  0  0  0  0  0  0  0  0  0  0
  -29.7459  -24.1417   14.4712 C   0  0  0  0  0  0  0  0  0  0  0  0
  -23.7446   -9.5686   22.2433 C   0  0  0  0  0  0  0  0  0  0  0  0
  -25.2482  -16.3471   19.8619 C   0  0  0  0  0  0  0  0  0  0  0  0
  -25.3440  -18.5419   19.7686 C   0  0  0  0  0  0  0  0  0  0  0  0
  -30.3163  -24.2595   20.4559 C   0  0  0  0  0  0  0  0  0  0  0  0
  -30.5062  -24.3241   16.8422 C   0  0  0  0  0  0  0  0  0  0  0  0
  -26.0748  -17.5852   21.9593 C   0  0  0  0  0  0  0  0  0  0  0  0
  -22.4486  -28.8039   22.3280 C   0  0  0  0  0  0  0  0  0  0  0  0
  -21.3015  -25.7701   22.3785 C   0  0  0  0  0  0  0  0  0  0  0  0
  -21.8227  -22.4641   21.7106 C   0  0  0  0  0  0  0  0  0  0  0  0
  -25.6912  -20.9444   14.7575 C   0  0  0  0  0  0  0  0  0  0  0  0
  -19.0688  -30.8814   25.5403 C   0  0  0  0  0  0  0  0  0  0  0  0
  -22.8666  -28.0682   19.9532 C   0  0  0  0  0  0  0  0  0  0  0  0
  -23.7653  -26.0373   21.9058 C   0  0  0  0  0  0  0  0  0  0  0  0
  -19.9088  -29.6070   25.5134 C   0  0  0  0  0  0  0  0  0  0  0  0
  -22.9803  -18.6996   15.2953 C   0  0  0  0  0  0  0  0  0  0  0  0
  -21.3611  -29.9320   25.1788 C   0  0  0  0  0  0  0  0  0  0  0  0
  -23.3565  -17.9813   16.5933 C   0  0  0  0  0  0  0  0  0  0  0  0
  -24.2054  -18.9802   14.4269 C   0  0  0  0  0  0  0  0  0  0  0  0
  -25.6753  -18.9683   16.4039 C   0  0  0  0  0  0  0  0  0  0  0  0
  -21.4779  -30.5688   23.7887 C   0  0  1  0  0  0  0  0  0  0  0  0
  -22.1084  -27.8119   21.2519 C   0  0  1  0  0  0  0  0  0  0  0  0
  -24.4821  -18.7221   17.3415 C   0  0  2  0  0  0  0  0  0  0  0  0
  -20.7171  -20.2189   21.8955 C   0  0  0  0  0  0  0  0  0  0  0  0
  -31.5438  -27.2537   18.3574 C   0  0  0  0  0  0  0  0  0  0  0  0
  -21.8812  -25.7340   25.3740 C   0  0  0  0  0  0  0  0  0  0  0  0
  -21.6685  -23.2401   25.3145 C   0  0  0  0  0  0  0  0  0  0  0  0
  -19.7144  -24.6714   24.7179 C   0  0  0  0  0  0  0  0  0  0  0  0
  -21.8997  -22.0557   18.7804 C   0  0  0  0  0  0  0  0  0  0  0  0
  -29.1874  -27.0972   19.1938 C   0  0  0  0  0  0  0  0  0  1  0  0
  -30.7315  -25.0203   19.2130 C   0  0  2  0  0  0  0  0  0  0  0  0
  -21.6625  -24.5028   23.1152 C   0  0  1  0  0  0  0  0  0  0  0  0
  -20.9608  -21.4302   21.0088 C   0  0  2  0  0  0  0  0  0  0  0  0
  -30.6161  -26.5522   19.3553 C   0  0  1  0  0  0  0  0  0  0  0  0
  -21.2504  -24.5504   24.6136 C   0  0  0  0  0  0  0  0  0  0  0  0
  -24.8238  -16.6485   18.6318 N   0  0  0  0  0  0  0  0  0  0  0  0
  -24.8932  -17.9904   18.6055 N   0  0  0  0  0  0  0  0  0  0  0  0
  -22.3649  -26.4796   21.8028 N   0  0  0  0  0  0  0  0  0  0  0  0
  -25.2277  -19.6877   15.2010 N   0  0  0  0  0  0  0  0  0  0  0  0
  -25.4748  -19.8777   19.9133 N   0  0  0  0  0  0  0  0  0  0  0  0
  -26.2670  -16.4034   22.6878 N   0  0  0  0  0  0  0  0  0  0  0  0
  -26.6389  -21.5365   15.5917 N   0  0  0  0  0  0  0  0  0  0  0  0
  -29.9708  -24.4867   18.1134 N   0  0  0  0  0  0  0  0  0  0  0  0
  -21.3733  -29.5573   22.7590 N   0  0  0  0  0  0  0  0  0  0  0  0
  -21.0584  -23.4077   22.3639 N   0  0  0  0  0  0  0  0  0  0  0  0
  -21.6218  -20.9695   19.7551 N   0  3  0  0  0  0  0  0  0  0  0  0
  -30.4535  -24.6982   21.5950 O   0  0  0  0  0  0  0  0  0  0  0  0
  -31.6580  -24.6108   16.5266 O   0  0  0  0  0  0  0  0  0  0  0  0
  -26.3179  -18.6887   22.5041 O   0  0  0  0  0  0  0  0  0  0  0  0
  -23.6009  -28.8791   22.7381 O   0  0  0  0  0  0  0  0  0  0  0  0
  -20.1188  -26.1138   22.3102 O   0  0  0  0  0  0  0  0  0  0  0  0
  -23.0511  -22.4353   21.6852 O   0  0  0  0  0  0  0  0  0  0  0  0
  -25.2579  -21.4698   13.7289 O   0  0  0  0  0  0  0  0  0  0  0  0
  -25.5273  -11.0098   21.5057 O   0  0  0  0  0  0  0  0  0  0  0  0
  -28.3015  -26.4795   20.1266 O   0  0  0  0  0  0  0  0  0  1  0  0
  -21.2411   -7.7446   20.3349 F   0  0  0  0  0  0  0  0  0  0  0  0
  -30.7323  -24.9712   14.1029 F   0  0  0  0  0  0  0  0  0  0  0  0
  -24.1018   -9.7636   23.5201 F   0  0  0  0  0  0  0  0  0  0  0  0
  1  2  1  0  0  0  0
  1  5  2  0  0  0  0
  2  6  2  0  0  0  0
  3  9  2  0  0  0  0
  3 18  1  0  0  0  0
  4 10  1  0  0  0  0
  4 18  2  0  0  0  0
  5 21  1  0  0  0  0
  6 23  1  0  0  0  0
  7 11  2  0  0  0  0
  7 22  1  0  0  0  0
  8 13  2  0  0  0  0
  8 25  1  0  0  0  0
  9 26  1  0  0  0  0
 10 26  2  0  0  0  0
 11 27  1  0  0  0  0
 12 14  2  0  0  0  0
 12 28  1  0  0  0  0
 13 30  1  0  0  0  0
 14 29  1  0  0  0  0
 15 19  1  0  0  0  0
 15 25  2  0  0  0  0
 16 24  1  0  0  0  0
 16 27  2  0  0  0  0
 17 29  2  0  0  0  0
 17 31  1  0  0  0  0
 18 32  1  0  0  0  0
 19 30  2  0  0  0  0
 19 35  1  0  0  0  0
 20 32  1  0  0  0  0
 20 33  2  0  0  0  0
 20 36  1  0  0  0  0
 21 23  2  0  0  0  0
 21 41  1  0  0  0  0
 22 24  2  0  0  0  0
 22 42  1  0  0  0  0
 23 50  1  0  0  0  0
 24 43  1  0  0  0  0
 25 71  1  0  0  0  0
 26 83  1  0  0  0  0
 27 84  1  0  0  0  0
 28 31  2  0  0  0  0
 28 83  1  0  0  0  0
 29 85  1  0  0  0  0
 30 86  1  0  0  0  0
 31 87  1  0  0  0  0
 32 65  2  0  0  0  0
 33 66  1  0  0  0  0
 33 69  1  0  0  0  0
 34 60  1  0  0  0  0
 34 76  2  0  0  0  0
 35 72  1  0  0  0  0
 35 77  2  0  0  0  0
 36 70  1  0  0  0  0
 36 78  2  0  0  0  0
 37 51  1  0  0  0  0
 37 73  1  0  0  0  0
 37 79  2  0  0  0  0
 38 61  1  0  0  0  0
 38 67  1  0  0  0  0
 38 80  2  0  0  0  0
 39 62  1  0  0  0  0
 39 74  1  0  0  0  0
 39 81  2  0  0  0  0
 40 68  1  0  0  0  0
 40 71  1  0  0  0  0
 40 82  2  0  0  0  0
 41 44  1  0  0  0  0
 42 51  1  0  0  0  0
 43 67  1  0  0  0  0
 44 46  1  0  0  0  0
 45 47  1  0  0  0  0
 45 48  1  0  0  0  0
 46 50  1  0  0  0  0
 47 52  1  0  0  0  0
 48 68  1  0  0  0  0
 49 52  1  0  0  0  0
 49 68  1  0  0  0  0
 50 73  1  0  0  0  0
 51 67  1  0  0  0  0
 52 66  1  0  0  0  0
 53 62  1  0  0  0  0
 54 63  1  0  0  0  0
 55 64  1  0  0  0  0
 56 64  1  0  0  0  0
 57 64  1  0  0  0  0
 58 75  1  0  0  0  0
 59 63  1  0  0  0  0
 59 84  1  0  0  0  0
 60 63  1  0  0  0  0
 60 72  1  0  0  0  0
 61 64  1  0  0  0  0
 61 74  1  0  0  0  0
 62 75  1  0  0  0  0
 65 66  1  0  0  0  0
M  CHG  1  75   1
M  ISO  4  40 100  59 101  71 100  84 101
M  END
> <Batch ID>
0064

> <Smiles>
CNC(C)C(=O)NC(C(=O)N1Cc2cc([101O:1][101CH2:1]C(C)C(C=O)NC(=O)c3cc([100NH:0][100C:0](=O)N4CCCC(n5nc(-c6ccc(Oc7ccc(F)cc7F)cc6)c(C(N)=O)c5N)C4)ccc3F)ccc2CC1C(=O)NC1CCCc2ccccc21)C(C)(C)C

> <Shape>
0.186

> <Color>
0.079

> <Negative vol penalty>
0.000

$$$$

  -OEChem-04042323153D

 86 94  0     1  0  0  0  0  0999 V2000
  -19.5958  -34.1490   22.5435 C   0  0  0  0  0  0  0  0  0  0  0  0
  -20.8995  -33.8366   22.1716 C   0  0  0  0  0  0  0  0  0  0  0  0
  -26.3596  -12.7521   20.3175 C   0  0  0  0  0  0  0  0  0  0  0  0
  -24.6699  -14.4782   20.3708 C   0  0  0  0  0  0  0  0  0  0  0  0
  -18.8474  -33.2384   23.2882 C   0  0  0  0  0  0  0  0  0  0  0  0
  -21.4558  -32.6138   22.5452 C   0  0  0  0  0  0  0  0  0  0  0  0
  -25.4169  -29.2333   19.3220 C   0  0  0  0  0  0  0  0  0  0  0  0
  -25.5135  -11.9018   21.0293 C   0  0  0  0  0  0  0  0  0  0  0  0
  -23.8237  -13.6278   21.0825 C   0  0  0  0  0  0  0  0  0  0  0  0
  -26.8033  -29.0996   19.3838 C   0  0  0  0  0  0  0  0  0  0  0  0
  -22.8415   -9.9332   20.3824 C   0  0  0  0  0  0  0  0  0  0  0  0
  -22.7274   -8.6147   19.9418 C   0  0  0  0  0  0  0  0  0  0  0  0
  -28.4776  -22.2367   15.8829 C   0  0  0  0  0  0  0  0  0  0  0  0
  -26.5467  -27.1451   20.7742 C   0  0  0  0  0  0  0  0  0  0  0  0
  -29.6208  -23.4788   17.6113 C   0  0  0  0  0  0  0  0  0  0  0  0
  -23.5448   -7.8308   22.0759 C   0  0  0  0  0  0  0  0  0  0  0  0
  -25.9379  -14.0404   19.9884 C   0  0  0  0  0  0  0  0  0  0  0  0
  -28.1784  -23.4291   15.2239 C   0  0  0  0  0  0  0  0  0  0  0  0
  -26.9036  -15.0528   17.8553 C   0  0  0  0  0  0  0  0  0  0  0  0
  -19.3915  -31.9998   23.6629 C   0  0  0  0  0  0  0  0  0  0  0  0
  -24.5838  -28.3288   19.9960 C   0  0  0  0  0  0  0  0  0  0  0  0
  -20.7144  -31.6863   23.2967 C   0  0  0  0  0  0  0  0  0  0  0  0
  -25.1500  -27.2680   20.7173 C   0  0  0  0  0  0  0  0  0  0  0  0
  -28.6003  -24.6463   15.7586 C   0  0  0  0  0  0  0  0  0  0  0  0
  -29.1988  -22.2616   17.0767 C   0  0  0  0  0  0  0  0  0  0  0  0
  -29.3216  -24.6712   16.9523 C   0  0  0  0  0  0  0  0  0  0  0  0
  -24.2455  -12.3396   21.4117 C   0  0  0  0  0  0  0  0  0  0  0  0
  -27.3685  -28.0571   20.1124 C   0  0  0  0  0  0  0  0  0  0  0  0
  -23.3075  -10.2005   21.6698 C   0  0  0  0  0  0  0  0  0  0  0  0
  -23.0790   -7.5635   20.7885 C   0  0  0  0  0  0  0  0  0  0  0  0
  -23.6591   -9.1493   22.5165 C   0  0  0  0  0  0  0  0  0  0  0  0
  -26.8117  -14.9194   19.2537 C   0  0  0  0  0  0  0  0  0  0  0  0
  -27.8720  -16.0079   17.6643 C   0  0  0  0  0  0  0  0  0  0  0  0
  -27.4241  -23.3711   13.9788 C   0  0  0  0  0  0  0  0  0  0  0  0
  -26.1783  -14.3741   16.8213 C   0  0  0  0  0  0  0  0  0  0  0  0
  -22.4410  -28.5652   22.3318 C   0  0  0  0  0  0  0  0  0  0  0  0
  -21.9219  -25.4380   21.6438 C   0  0  0  0  0  0  0  0  0  0  0  0
  -30.4821  -26.0797   18.6882 C   0  0  0  0  0  0  0  0  0  0  0  0
  -23.1183  -22.5221   20.3352 C   0  0  0  0  0  0  0  0  0  0  0  0
  -30.2083  -20.8985   18.9393 C   0  0  0  0  0  0  0  0  0  0  0  0
  -18.5603  -31.0675   24.5082 C   0  0  0  0  0  0  0  0  0  0  0  0
  -23.0897  -28.4711   19.8974 C   0  0  0  0  0  0  0  0  0  0  0  0
  -24.2992  -26.2584   21.4420 C   0  0  0  0  0  0  0  0  0  0  0  0
  -19.0945  -29.6379   24.5436 C   0  0  0  0  0  0  0  0  0  0  0  0
  -31.1308  -18.0931   20.9282 C   0  0  0  0  0  0  0  0  0  0  0  0
  -20.5998  -29.6365   24.7904 C   0  0  0  0  0  0  0  0  0  0  0  0
  -30.0970  -17.0283   20.5548 C   0  0  0  0  0  0  0  0  0  0  0  0
  -30.5171  -19.4916   20.9642 C   0  0  0  0  0  0  0  0  0  0  0  0
  -28.7593  -18.8186   19.3747 C   0  0  0  0  0  0  0  0  0  0  0  0
  -21.3445  -30.3597   23.6617 C   0  0  1  0  0  0  0  0  0  0  0  0
  -22.3479  -27.7939   21.0457 C   0  0  1  0  0  0  0  0  0  0  0  0
  -29.3452  -17.4016   19.2621 C   0  0  2  0  0  0  0  0  0  0  0  0
  -28.2794  -25.9255   15.0498 C   0  0  0  0  0  0  0  0  0  0  0  0
  -22.4771  -20.1269   19.9487 C   0  0  0  0  0  0  0  0  0  0  0  0
  -22.3801  -24.8407   24.6007 C   0  0  0  0  0  0  0  0  0  0  0  0
  -22.6721  -22.4287   23.9966 C   0  0  0  0  0  0  0  0  0  0  0  0
  -20.4963  -23.5676   23.5590 C   0  0  0  0  0  0  0  0  0  0  0  0
  -23.3893  -22.8019   17.4014 C   0  0  0  0  0  0  0  0  0  0  0  0
  -30.7459  -27.5625   18.9247 C   0  0  0  0  0  0  0  0  0  0  0  0
  -29.4715  -28.3834   19.0509 C   0  0  0  0  0  0  0  0  0  1  0  0
  -22.4997  -24.1279   22.1221 C   0  0  1  0  0  0  0  0  0  0  0  0
  -22.5082  -21.5296   19.3620 C   0  0  2  0  0  0  0  0  0  0  0  0
  -22.0284  -23.7612   23.5576 C   0  0  0  0  0  0  0  0  0  0  0  0
  -27.6547  -15.7252   19.9050 N   0  0  0  0  0  0  0  0  0  0  0  0
  -28.2854  -16.3740   18.9113 N   0  0  0  0  0  0  0  0  0  0  0  0
  -22.8437  -26.4438   21.3207 N   0  0  0  0  0  0  0  0  0  0  0  0
  -29.8254  -19.7772   19.7053 N   0  0  0  0  0  0  0  0  0  0  0  0
  -28.4017  -16.5617   16.5530 N   0  0  0  0  0  0  0  0  0  0  0  0
  -26.0372  -23.4314   14.0615 N   0  0  0  0  0  0  0  0  0  0  0  0
  -25.2188  -13.4223   17.1927 N   0  0  0  0  0  0  0  0  0  0  0  0
  -29.7592  -25.8948   17.5127 N   0  0  0  0  0  0  0  0  0  0  0  0
  -29.5022  -21.0503   17.7464 N   0  0  0  0  0  0  0  0  0  0  0  0
  -21.4445  -29.5084   22.4956 N   0  0  0  0  0  0  0  0  0  0  0  0
  -22.1562  -23.1361   21.1088 N   0  0  0  0  0  0  0  0  0  0  0  0
  -23.2962  -21.4928   18.0976 N   0  3  0  0  0  0  0  0  0  0  0  0
  -27.9960  -23.2547   12.8823 O   0  0  0  0  0  0  0  0  0  0  0  0
  -26.3868  -14.5929   15.6039 O   0  0  0  0  0  0  0  0  0  0  0  0
  -23.3488  -28.3216   23.1181 O   0  0  0  0  0  0  0  0  0  0  0  0
  -20.6979  -25.5620   21.5533 O   0  0  0  0  0  0  0  0  0  0  0  0
  -30.8771  -25.2148   19.4629 O   0  0  0  0  0  0  0  0  0  0  0  0
  -24.3278  -22.7290   20.4050 O   0  0  0  0  0  0  0  0  0  0  0  0
  -31.1157  -21.6521   19.3008 O   0  0  0  0  0  0  0  0  0  0  0  0
  -23.4195  -11.5100   22.1060 O   0  0  0  0  0  0  0  0  0  0  0  0
  -28.7214  -27.9247   20.1749 O   0  0  0  0  0  0  0  0  0  1  0  0
  -22.9678   -6.2974   20.3658 F   0  0  0  0  0  0  0  0  0  0  0  0
  -24.1061   -9.3998   23.7547 F   0  0  0  0  0  0  0  0  0  0  0  0
  1  2  1  0  0  0  0
  1  5  2  0  0  0  0
  2  6  2  0  0  0  0
  3  8  2  0  0  0  0
  3 17  1  0  0  0  0
  4  9  1  0  0  0  0
  4 17  2  0  0  0  0
  5 20  1  0  0  0  0
  6 22  1  0  0  0  0
  7 10  2  0  0  0  0
  7 21  1  0  0  0  0
  8 27  1  0  0  0  0
  9 27  2  0  0  0  0
 10 28  1  0  0  0  0
 11 12  2  0  0  0  0
 11 29  1  0  0  0  0
 12 30  1  0  0  0  0
 13 18  2  0  0  0  0
 13 25  1  0  0  0  0
 14 23  1  0  0  0  0
 14 28  2  0  0  0  0
 15 25  2  0  0  0  0
 15 26  1  0  0  0  0
 16 30  2  0  0  0  0
 16 31  1  0  0  0  0
 17 32  1  0  0  0  0
 18 24  1  0  0  0  0
 18 34  1  0  0  0  0
 19 32  1  0  0  0  0
 19 33  2  0  0  0  0
 19 35  1  0  0  0  0
 20 22  2  0  0  0  0
 20 41  1  0  0  0  0
 21 23  2  0  0  0  0
 21 42  1  0  0  0  0
 22 50  1  0  0  0  0
 23 43  1  0  0  0  0
 24 26  2  0  0  0  0
 24 53  1  0  0  0  0
 25 72  1  0  0  0  0
 26 71  1  0  0  0  0
 27 83  1  0  0  0  0
 28 84  1  0  0  0  0
 29 31  2  0  0  0  0
 29 83  1  0  0  0  0
 30 85  1  0  0  0  0
 31 86  1  0  0  0  0
 32 64  2  0  0  0  0
 33 65  1  0  0  0  0
 33 68  1  0  0  0  0
 34 69  1  0  0  0  0
 34 76  2  0  0  0  0
 35 70  1  0  0  0  0
 35 77  2  0  0  0  0
 36 51  1  0  0  0  0
 36 73  1  0  0  0  0
 36 78  2  0  0  0  0
 37 61  1  0  0  0  0
 37 66  1  0  0  0  0
 37 79  2  0  0  0  0
 38 59  1  0  0  0  0
 38 71  1  0  0  0  0
 38 80  2  0  0  0  0
 39 62  1  0  0  0  0
 39 74  1  0  0  0  0
 39 81  2  0  0  0  0
 40 67  1  0  0  0  0
 40 72  1  0  0  0  0
 40 82  2  0  0  0  0
 41 44  1  0  0  0  0
 42 51  1  0  0  0  0
 43 66  1  0  0  0  0
 44 46  1  0  0  0  0
 45 47  1  0  0  0  0
 45 48  1  0  0  0  0
 46 50  1  0  0  0  0
 47 52  1  0  0  0  0
 48 67  1  0  0  0  0
 49 52  1  0  0  0  0
 49 67  1  0  0  0  0
 50 73  1  0  0  0  0
 51 66  1  0  0  0  0
 52 65  1  0  0  0  0
 54 62  1  0  0  0  0
 55 63  1  0  0  0  0
 56 63  1  0  0  0  0
 57 63  1  0  0  0  0
 58 75  1  0  0  0  0
 59 60  1  0  0  0  0
 60 84  1  0  0  0  0
 61 63  1  0  0  0  0
 61 74  1  0  0  0  0
 62 75  1  0  0  0  0
 64 65  1  0  0  0  0
M  CHG  1  75   1
M  ISO  4  40 100  60 101  72 100  84 101
M  END
> <Batch ID>
0064

> <Smiles>
CNC(C)C(=O)NC(C(=O)N1Cc2cc([101O:1][101CH2:1]CC(=O)Nc3cc([100NH:0][100C:0](=O)N4CCCC(n5nc(-c6ccc(Oc7ccc(F)cc7F)cc6)c(C(N)=O)c5N)C4)cc(C(N)=O)c3C)ccc2CC1C(=O)NC1CCCc2ccccc21)C(C)(C)C

> <Shape>
0.229

> <Color>
0.105

> <Negative vol penalty>
0.000

$$$$

  -OEChem-04042323153D

 87 96  0     1  0  0  0  0  0999 V2000
  -26.3539  -37.4729   22.0626 C   0  0  0  0  0  0  0  0  0  0  0  0
  -26.7403  -36.4343   21.2230 C   0  0  0  0  0  0  0  0  0  0  0  0
  -22.5252  -10.5296   21.0421 C   0  0  0  0  0  0  0  0  0  0  0  0
  -24.4681   -9.1716   21.5090 C   0  0  0  0  0  0  0  0  0  0  0  0
  -26.0460  -37.2088   23.3955 C   0  0  0  0  0  0  0  0  0  0  0  0
  -26.8075  -35.1296   21.7128 C   0  0  0  0  0  0  0  0  0  0  0  0
  -28.0892  -27.2833   21.5900 C   0  0  0  0  0  0  0  0  0  0  0  0
  -28.0214  -19.6199   23.1984 C   0  0  0  0  0  0  0  0  0  0  0  0
  -28.3065  -18.4824   22.4433 C   0  0  0  0  0  0  0  0  0  0  0  0
  -21.7799   -9.7746   21.9476 C   0  0  0  0  0  0  0  0  0  0  0  0
  -23.7228   -8.4166   22.4146 C   0  0  0  0  0  0  0  0  0  0  0  0
  -28.3273  -26.1818   22.4109 C   0  0  0  0  0  0  0  0  0  0  0  0
  -21.4484   -5.9177   22.2966 C   0  0  0  0  0  0  0  0  0  0  0  0
  -21.5758   -4.5298   22.2424 C   0  0  0  0  0  0  0  0  0  0  0  0
  -25.9763  -18.3055   21.8300 C   0  0  0  0  0  0  0  0  0  0  0  0
  -26.3114  -26.6714   23.6421 C   0  0  0  0  0  0  0  0  0  0  0  0
  -22.3650   -4.5131   24.5258 C   0  0  0  0  0  0  0  0  0  0  0  0
  -23.8694  -10.2281   20.8227 C   0  0  0  0  0  0  0  0  0  0  0  0
  -25.6912  -19.4430   22.5852 C   0  0  0  0  0  0  0  0  0  0  0  0
  -24.3901  -11.1745   18.5117 C   0  0  0  0  0  0  0  0  0  0  0  0
  -26.1219  -35.9017   23.9043 C   0  0  0  0  0  0  0  0  0  0  0  0
  -26.9644  -28.0948   21.7962 C   0  0  0  0  0  0  0  0  0  0  0  0
  -26.4776  -34.8391   23.0490 C   0  0  0  0  0  0  0  0  0  0  0  0
  -26.0600  -27.7810   22.8208 C   0  0  0  0  0  0  0  0  0  0  0  0
  -26.7137  -20.1003   23.2694 C   0  0  0  0  0  0  0  0  0  0  0  0
  -27.2840  -17.8251   21.7591 C   0  0  0  0  0  0  0  0  0  0  0  0
  -22.3786   -8.7181   22.6339 C   0  0  0  0  0  0  0  0  0  0  0  0
  -27.4399  -25.8774   23.4390 C   0  0  0  0  0  0  0  0  0  0  0  0
  -21.7794   -6.6034   23.4653 C   0  0  0  0  0  0  0  0  0  0  0  0
  -22.0341   -3.8275   23.3571 C   0  0  0  0  0  0  0  0  0  0  0  0
  -22.2377   -5.9011   24.5800 C   0  0  0  0  0  0  0  0  0  0  0  0
  -24.6397  -11.0073   19.8870 C   0  0  0  0  0  0  0  0  0  0  0  0
  -25.3997  -11.9980   18.0771 C   0  0  0  0  0  0  0  0  0  0  0  0
  -25.5476  -21.2347   25.1432 C   0  0  0  0  0  0  0  0  0  0  0  0
  -24.3145  -19.9192   22.6388 C   0  0  0  0  0  0  0  0  0  0  0  0
  -23.3394  -10.6338   17.6996 C   0  0  0  0  0  0  0  0  0  0  0  0
  -26.5097  -31.1501   22.5458 C   0  0  0  0  0  0  0  0  0  0  0  0
  -23.3936  -30.4079   22.0345 C   0  0  0  0  0  0  0  0  0  0  0  0
  -21.1835  -27.6577   22.7892 C   0  0  0  0  0  0  0  0  0  0  0  0
  -28.8173  -16.0623   20.8170 C   0  0  0  0  0  0  0  0  0  0  0  0
  -25.7701  -35.6712   25.3529 C   0  0  0  0  0  0  0  0  0  0  0  0
  -26.7076  -29.2637   20.8850 C   0  0  0  0  0  0  0  0  0  0  0  0
  -24.8268  -28.6087   23.0710 C   0  0  0  0  0  0  0  0  0  0  0  0
  -25.0923  -22.5706   25.7024 C   0  0  0  0  0  0  0  0  0  0  0  0
  -26.2958  -34.3432   25.8882 C   0  0  0  0  0  0  0  0  0  0  0  0
  -26.1530  -23.6461   25.6770 C   0  0  0  0  0  0  0  0  0  0  0  0
  -29.9376  -13.1878   19.0394 C   0  0  0  0  0  0  0  0  0  0  0  0
  -25.9250  -33.2158   24.9364 C   0  0  0  0  0  0  0  0  0  0  0  0
  -28.6820  -12.3204   18.9246 C   0  0  0  0  0  0  0  0  0  0  0  0
  -29.9998  -13.9212   20.3781 C   0  0  0  0  0  0  0  0  0  0  0  0
  -27.5476  -13.8361   20.5987 C   0  0  0  0  0  0  0  0  0  0  0  0
  -27.2846  -22.4653   23.8154 C   0  0  0  0  0  0  0  0  0  0  0  0
  -26.5874  -33.4166   23.5675 C   0  0  1  0  0  0  0  0  0  0  0  0
  -25.8034  -30.3214   21.5104 C   0  0  1  0  0  0  0  0  0  0  0  0
  -27.4081  -13.1282   19.2411 C   0  0  2  0  0  0  0  0  0  0  0  0
  -26.6757  -23.7857   24.2638 C   0  0  2  0  0  0  0  0  0  1  0  0
  -19.1158  -26.8566   21.6144 C   0  0  0  0  0  0  0  0  0  0  0  0
  -21.9206  -32.1760   24.0380 C   0  0  0  0  0  0  0  0  0  0  0  0
  -20.1437  -30.4177   24.1775 C   0  0  0  0  0  0  0  0  0  0  0  0
  -20.5911  -31.5670   22.0092 C   0  0  0  0  0  0  0  0  0  0  0  0
  -22.2709  -24.9210   22.4947 C   0  0  0  0  0  0  0  0  0  0  0  0
  -22.2638  -29.8886   22.8907 C   0  0  1  0  0  0  0  0  0  0  0  0
  -20.6112  -26.6549   21.8036 C   0  0  2  0  0  0  0  0  0  0  0  0
  -21.2569  -31.0060   23.2846 C   0  0  0  0  0  0  0  0  0  0  0  0
  -25.7231  -11.6711   20.2989 N   0  0  0  0  0  0  0  0  0  0  0  0
  -26.1632  -12.2634   19.1757 N   0  0  0  0  0  0  0  0  0  0  0  0
  -26.4422  -21.2825   24.0592 N   0  0  0  0  0  0  0  0  0  0  0  0
  -24.6229  -29.7450   22.1573 N   0  0  0  0  0  0  0  0  0  0  0  0
  -28.7611  -14.6680   20.6082 N   0  0  0  0  0  0  0  0  0  0  0  0
  -25.7001  -12.5136   16.8662 N   0  0  0  0  0  0  0  0  0  0  0  0
  -23.9123  -20.8369   21.6750 N   0  0  0  0  0  0  0  0  0  0  0  0
  -22.3846   -9.8063   18.3062 N   0  0  0  0  0  0  0  0  0  0  0  0
  -27.5743  -16.6696   20.9922 N   0  0  0  0  0  0  0  0  0  0  0  0
  -26.0491  -32.4498   22.6362 N   0  0  0  0  0  0  0  0  0  0  0  0
  -21.6680  -28.7805   22.1521 N   0  0  0  0  0  0  0  0  0  0  0  0
  -20.8404  -25.2642   22.2877 N   0  3  0  0  0  0  0  0  0  0  0  0
  -25.0655  -20.2082   25.6300 O   0  0  0  0  0  0  0  0  0  0  0  0
  -23.5326  -19.5332   23.5230 O   0  0  0  0  0  0  0  0  0  0  0  0
  -23.2593  -10.8640   16.4691 O   0  0  0  0  0  0  0  0  0  0  0  0
  -27.4051  -30.6471   23.2144 O   0  0  0  0  0  0  0  0  0  0  0  0
  -23.1908  -31.3618   21.2791 O   0  0  0  0  0  0  0  0  0  0  0  0
  -21.1959  -27.4659   24.0031 O   0  0  0  0  0  0  0  0  0  0  0  0
  -29.8871  -16.6767   20.8116 O   0  0  0  0  0  0  0  0  0  0  0  0
  -21.6517   -7.9813   23.5178 O   0  0  0  0  0  0  0  0  0  0  0  0
  -27.6702  -24.8033   24.2421 O   0  0  0  0  0  0  0  0  0  1  0  0
  -22.1548   -2.4945   23.3054 F   0  0  0  0  0  0  0  0  0  0  0  0
  -22.5561   -6.5543   25.7059 F   0  0  0  0  0  0  0  0  0  0  0  0
  1  2  1  0  0  0  0
  1  5  2  0  0  0  0
  2  6  2  0  0  0  0
  3 10  2  0  0  0  0
  3 18  1  0  0  0  0
  4 11  1  0  0  0  0
  4 18  2  0  0  0  0
  5 21  1  0  0  0  0
  6 23  1  0  0  0  0
  7 12  2  0  0  0  0
  7 22  1  0  0  0  0
  8  9  2  0  0  0  0
  8 25  1  0  0  0  0
  9 26  1  0  0  0  0
 10 27  1  0  0  0  0
 11 27  2  0  0  0  0
 12 28  1  0  0  0  0
 13 14  2  0  0  0  0
 13 29  1  0  0  0  0
 14 30  1  0  0  0  0
 15 19  1  0  0  0  0
 15 26  2  0  0  0  0
 16 24  1  0  0  0  0
 16 28  2  0  0  0  0
 17 30  2  0  0  0  0
 17 31  1  0  0  0  0
 18 32  1  0  0  0  0
 19 25  2  0  0  0  0
 19 35  1  0  0  0  0
 20 32  1  0  0  0  0
 20 33  2  0  0  0  0
 20 36  1  0  0  0  0
 21 23  2  0  0  0  0
 21 41  1  0  0  0  0
 22 24  2  0  0  0  0
 22 42  1  0  0  0  0
 23 53  1  0  0  0  0
 24 43  1  0  0  0  0
 25 67  1  0  0  0  0
 26 73  1  0  0  0  0
 27 84  1  0  0  0  0
 28 85  1  0  0  0  0
 29 31  2  0  0  0  0
 29 84  1  0  0  0  0
 30 86  1  0  0  0  0
 31 87  1  0  0  0  0
 32 65  2  0  0  0  0
 33 66  1  0  0  0  0
 33 70  1  0  0  0  0
 34 44  1  0  0  0  0
 34 67  1  0  0  0  0
 34 77  2  0  0  0  0
 35 71  1  0  0  0  0
 35 78  2  0  0  0  0
 36 72  1  0  0  0  0
 36 79  2  0  0  0  0
 37 54  1  0  0  0  0
 37 74  1  0  0  0  0
 37 80  2  0  0  0  0
 38 62  1  0  0  0  0
 38 68  1  0  0  0  0
 38 81  2  0  0  0  0
 39 63  1  0  0  0  0
 39 75  1  0  0  0  0
 39 82  2  0  0  0  0
 40 69  1  0  0  0  0
 40 73  1  0  0  0  0
 40 83  2  0  0  0  0
 41 45  1  0  0  0  0
 42 54  1  0  0  0  0
 43 68  1  0  0  0  0
 44 46  1  0  0  0  0
 45 48  1  0  0  0  0
 46 56  1  0  0  0  0
 47 49  1  0  0  0  0
 47 50  1  0  0  0  0
 48 53  1  0  0  0  0
 49 55  1  0  0  0  0
 50 69  1  0  0  0  0
 51 55  1  0  0  0  0
 51 69  1  0  0  0  0
 52 56  1  0  0  0  0
 52 67  1  0  0  0  0
 53 74  1  0  0  0  0
 54 68  1  0  0  0  0
 55 66  1  0  0  0  0
 56 85  1  0  0  0  0
 57 63  1  0  0  0  0
 58 64  1  0  0  0  0
 59 64  1  0  0  0  0
 60 64  1  0  0  0  0
 61 76  1  0  0  0  0
 62 64  1  0  0  0  0
 62 75  1  0  0  0  0
 63 76  1  0  0  0  0
 65 66  1  0  0  0  0
M  CHG  1  76   1
M  ISO  4  40 100  56 101  73 100  85 101
M  END
> <Batch ID>
0064

> <Smiles>
CNC(C)C(=O)NC(C(=O)N1Cc2cc([101O:1][101CH:1]3CCC(=O)N(c4ccc([100NH:0][100C:0](=O)N5CCCC(n6nc(-c7ccc(Oc8ccc(F)cc8F)cc7)c(C(N)=O)c6N)C5)cc4C(N)=O)C3)ccc2CC1C(=O)NC1CCCc2ccccc21)C(C)(C)C

> <Shape>
0.289

> <Color>
0.071

> <Negative vol penalty>
0.000

$$$$

  -OEChem-04042323153D

 84 92  0     1  0  0  0  0  0999 V2000
  -24.3103   -7.0289   23.6889 C   0  0  0  0  0  0  0  0  0  0  0  0
  -25.4923   -7.7620   23.6619 C   0  0  0  0  0  0  0  0  0  0  0  0
  -24.4940  -31.5222   22.9952 C   0  0  0  0  0  0  0  0  0  0  0  0
  -25.3737  -31.3995   20.7484 C   0  0  0  0  0  0  0  0  0  0  0  0
  -23.2492   -7.3884   22.8589 C   0  0  0  0  0  0  0  0  0  0  0  0
  -25.6143   -8.8546   22.8042 C   0  0  0  0  0  0  0  0  0  0  0  0
  -28.7341  -15.2883   22.3673 C   0  0  0  0  0  0  0  0  0  0  0  0
  -25.1660  -32.7285   23.1924 C   0  0  0  0  0  0  0  0  0  0  0  0
  -26.0457  -32.6059   20.9455 C   0  0  0  0  0  0  0  0  0  0  0  0
  -29.5490  -16.0347   21.5173 C   0  0  0  0  0  0  0  0  0  0  0  0
  -24.7418  -35.9799   22.3669 C   0  0  0  0  0  0  0  0  0  0  0  0
  -24.0393  -37.0218   22.9724 C   0  0  0  0  0  0  0  0  0  0  0  0
  -27.6218  -16.6113   20.1859 C   0  0  0  0  0  0  0  0  0  0  0  0
  -28.3067  -22.5754   18.9261 C   0  0  0  0  0  0  0  0  0  0  0  0
  -27.5815  -24.3160   17.4158 C   0  0  0  0  0  0  0  0  0  0  0  0
  -25.6544  -37.0668   24.7687 C   0  0  0  0  0  0  0  0  0  0  0  0
  -24.5980  -30.8576   21.7732 C   0  0  0  0  0  0  0  0  0  0  0  0
  -22.6008  -29.4359   21.0679 C   0  0  0  0  0  0  0  0  0  0  0  0
  -23.3548   -8.4918   21.9975 C   0  0  0  0  0  0  0  0  0  0  0  0
  -27.3563  -15.1888   22.1264 C   0  0  0  0  0  0  0  0  0  0  0  0
  -24.5541   -9.2285   21.9609 C   0  0  0  0  0  0  0  0  0  0  0  0
  -26.7912  -15.8652   21.0359 C   0  0  0  0  0  0  0  0  0  0  0  0
  -27.4474  -23.6317   18.6238 C   0  0  0  0  0  0  0  0  0  0  0  0
  -29.3003  -22.2035   18.0204 C   0  0  0  0  0  0  0  0  0  0  0  0
  -25.9417  -33.2704   22.1676 C   0  0  0  0  0  0  0  0  0  0  0  0
  -28.9934  -16.6939   20.4247 C   0  0  0  0  0  0  0  0  0  0  0  0
  -25.9006  -35.4815   22.9624 C   0  0  0  0  0  0  0  0  0  0  0  0
  -24.4956  -37.5652   24.1733 C   0  0  0  0  0  0  0  0  0  0  0  0
  -28.5750  -23.9441   16.5100 C   0  0  0  0  0  0  0  0  0  0  0  0
  -26.3569  -36.0249   24.1632 C   0  0  0  0  0  0  0  0  0  0  0  0
  -29.4344  -22.8878   16.8123 C   0  0  0  0  0  0  0  0  0  0  0  0
  -23.9046  -29.6112   21.5690 C   0  0  0  0  0  0  0  0  0  0  0  0
  -22.4130  -28.0753   21.0678 C   0  0  0  0  0  0  0  0  0  0  0  0
  -21.6449  -30.4153   20.6406 C   0  0  0  0  0  0  0  0  0  0  0  0
  -25.3590  -12.8023   21.4786 C   0  0  0  0  0  0  0  0  0  0  0  0
  -23.1109  -15.1230   21.7658 C   0  0  0  0  0  0  0  0  0  0  0  0
  -30.1758  -20.3466   19.4796 C   0  0  0  0  0  0  0  0  0  0  0  0
  -22.3434  -18.4457   21.6324 C   0  0  0  0  0  0  0  0  0  0  0  0
  -26.1687  -23.4362   20.7855 C   0  0  0  0  0  0  0  0  0  0  0  0
  -22.1981   -8.8135   21.0847 C   0  0  0  0  0  0  0  0  0  0  0  0
  -26.4868  -14.4016   23.0681 C   0  0  0  0  0  0  0  0  0  0  0  0
  -25.3146  -15.8067   20.7451 C   0  0  0  0  0  0  0  0  0  0  0  0
  -22.2729  -10.2114   20.4761 C   0  0  0  0  0  0  0  0  0  0  0  0
  -23.7985  -24.1037   23.3573 C   0  0  0  0  0  0  0  0  0  0  0  0
  -23.6738  -10.4852   19.9382 C   0  0  0  0  0  0  0  0  0  0  0  0
  -23.4335  -25.5742   23.1412 C   0  0  0  0  0  0  0  0  0  0  0  0
  -25.2750  -23.8376   23.0692 C   0  0  0  0  0  0  0  0  0  0  0  0
  -25.3783  -25.7651   21.5385 C   0  0  0  0  0  0  0  0  0  0  0  0
  -24.7159  -10.4351   21.0621 C   0  0  1  0  0  0  0  0  0  0  0  0
  -25.1758  -13.9482   22.4331 C   0  0  1  0  0  0  0  0  0  0  0  0
  -23.8867  -26.0692   21.7537 C   0  0  2  0  0  0  0  0  0  0  0  0
  -20.4152  -20.0333   21.8751 C   0  0  0  0  0  0  0  0  0  0  0  0
  -22.0906  -14.3014   19.0101 C   0  0  0  0  0  0  0  0  0  0  0  0
  -20.8413  -16.4684   18.9033 C   0  0  0  0  0  0  0  0  0  0  0  0
  -20.2973  -14.8034   20.6794 C   0  0  0  0  0  0  0  0  0  0  0  0
  -23.6279  -19.8411   23.9043 C   0  0  0  0  0  0  0  0  0  0  0  0
  -31.2815  -19.2996   19.4062 C   0  0  0  0  0  0  0  0  0  0  0  0
  -30.9477  -18.0239   20.1646 C   0  0  0  0  0  0  0  0  0  1  0  0
  -22.4606  -16.1043   20.8207 C   0  0  1  0  0  0  0  0  0  0  0  0
  -21.5682  -19.3394   22.5835 C   0  0  2  0  0  0  0  0  0  0  0  0
  -21.4506  -15.4191   19.8575 C   0  0  0  0  0  0  0  0  0  0  0  0
  -24.5028  -28.4544   21.8659 N   0  0  0  0  0  0  0  0  0  0  0  0
  -23.5706  -27.5392   21.5504 N   0  0  0  0  0  0  0  0  0  0  0  0
  -24.5071  -15.0191   21.6912 N   0  0  0  0  0  0  0  0  0  0  0  0
  -25.6309  -24.3292   21.7364 N   0  0  0  0  0  0  0  0  0  0  0  0
  -21.3724  -27.2970   20.7021 N   0  0  0  0  0  0  0  0  0  0  0  0
  -22.0006  -31.7694   20.7067 N   0  0  0  0  0  0  0  0  0  0  0  0
  -30.1705  -21.1311   18.3294 N   0  0  0  0  0  0  0  0  0  0  0  0
  -26.4380  -24.0100   19.5434 N   0  0  0  0  0  0  0  0  0  0  0  0
  -24.6791  -11.6549   21.8400 N   0  0  0  0  0  0  0  0  0  0  0  0
  -21.8761  -17.1486   21.6551 N   0  0  0  0  0  0  0  0  0  0  0  0
  -22.4629  -20.3832   23.1587 N   0  3  0  0  0  0  0  0  0  0  0  0
  -20.5029  -30.1000   20.2283 O   0  0  0  0  0  0  0  0  0  0  0  0
  -26.0638  -12.9488   20.4869 O   0  0  0  0  0  0  0  0  0  0  0  0
  -22.4066  -14.4779   22.5464 O   0  0  0  0  0  0  0  0  0  0  0  0
  -29.4257  -20.4372   20.4458 O   0  0  0  0  0  0  0  0  0  0  0  0
  -23.2683  -18.8578   20.9359 O   0  0  0  0  0  0  0  0  0  0  0  0
  -26.3498  -22.2438   21.0448 O   0  0  0  0  0  0  0  0  0  0  0  0
  -26.5973  -34.4476   22.3596 O   0  0  0  0  0  0  0  0  0  0  0  0
  -29.7866  -17.4226   19.5930 O   0  0  0  0  0  0  0  0  0  1  0  0
  -23.8217  -38.5668   24.7538 F   0  0  0  0  0  0  0  0  0  0  0  0
  -28.7040  -24.6014   15.3503 F   0  0  0  0  0  0  0  0  0  0  0  0
  -27.4701  -35.5510   24.7394 F   0  0  0  0  0  0  0  0  0  0  0  0
  -30.3857  -22.5393   15.9346 F   0  0  0  0  0  0  0  0  0  0  0  0
  1  2  1  0  0  0  0
  1  5  2  0  0  0  0
  2  6  2  0  0  0  0
  3  8  2  0  0  0  0
  3 17  1  0  0  0  0
  4  9  1  0  0  0  0
  4 17  2  0  0  0  0
  5 19  1  0  0  0  0
  6 21  1  0  0  0  0
  7 10  2  0  0  0  0
  7 20  1  0  0  0  0
  8 25  1  0  0  0  0
  9 25  2  0  0  0  0
 10 26  1  0  0  0  0
 11 12  2  0  0  0  0
 11 27  1  0  0  0  0
 12 28  1  0  0  0  0
 13 22  1  0  0  0  0
 13 26  2  0  0  0  0
 14 23  2  0  0  0  0
 14 24  1  0  0  0  0
 15 23  1  0  0  0  0
 15 29  2  0  0  0  0
 16 28  2  0  0  0  0
 16 30  1  0  0  0  0
 17 32  1  0  0  0  0
 18 32  1  0  0  0  0
 18 33  2  0  0  0  0
 18 34  1  0  0  0  0
 19 21  2  0  0  0  0
 19 40  1  0  0  0  0
 20 22  2  0  0  0  0
 20 41  1  0  0  0  0
 21 49  1  0  0  0  0
 22 42  1  0  0  0  0
 23 69  1  0  0  0  0
 24 31  2  0  0  0  0
 24 68  1  0  0  0  0
 25 79  1  0  0  0  0
 26 80  1  0  0  0  0
 27 30  2  0  0  0  0
 27 79  1  0  0  0  0
 28 81  1  0  0  0  0
 29 31  1  0  0  0  0
 29 82  1  0  0  0  0
 30 83  1  0  0  0  0
 31 84  1  0  0  0  0
 32 62  2  0  0  0  0
 33 63  1  0  0  0  0
 33 66  1  0  0  0  0
 34 67  1  0  0  0  0
 34 73  2  0  0  0  0
 35 50  1  0  0  0  0
 35 70  1  0  0  0  0
 35 74  2  0  0  0  0
 36 59  1  0  0  0  0
 36 64  1  0  0  0  0
 36 75  2  0  0  0  0
 37 57  1  0  0  0  0
 37 68  1  0  0  0  0
 37 76  2  0  0  0  0
 38 60  1  0  0  0  0
 38 71  1  0  0  0  0
 38 77  2  0  0  0  0
 39 65  1  0  0  0  0
 39 69  1  0  0  0  0
 39 78  2  0  0  0  0
 40 43  1  0  0  0  0
 41 50  1  0  0  0  0
 42 64  1  0  0  0  0
 43 45  1  0  0  0  0
 44 46  1  0  0  0  0
 44 47  1  0  0  0  0
 45 49  1  0  0  0  0
 46 51  1  0  0  0  0
 47 65  1  0  0  0  0
 48 51  1  0  0  0  0
 48 65  1  0  0  0  0
 49 70  1  0  0  0  0
 50 64  1  0  0  0  0
 51 63  1  0  0  0  0
 52 60  1  0  0  0  0
 53 61  1  0  0  0  0
 54 61  1  0  0  0  0
 55 61  1  0  0  0  0
 56 72  1  0  0  0  0
 57 58  1  0  0  0  0
 58 80  1  0  0  0  0
 59 61  1  0  0  0  0
 59 71  1  0  0  0  0
 60 72  1  0  0  0  0
 62 63  1  0  0  0  0
M  CHG  1  72   1
M  ISO  4  39 100  58 101  69 100  80 101
M  END
> <Batch ID>
0064

> <Smiles>
CNC(C)C(=O)NC(C(=O)N1Cc2cc([101O:1][101CH2:1]CC(=O)Nc3cc([100NH:0][100C:0](=O)N4CCCC(n5nc(-c6ccc(Oc7ccc(F)cc7F)cc6)c(C(N)=O)c5N)C4)cc(F)c3F)ccc2CC1C(=O)NC1CCCc2ccccc21)C(C)(C)C

> <Shape>
0.233

> <Color>
0.061

> <Negative vol penalty>
0.000

$$$$

  -OEChem-04042323153D

 84 92  0     1  0  0  0  0  0999 V2000
  -30.9720  -34.8882   26.4906 C   0  0  0  0  0  0  0  0  0  0  0  0
  -31.1215  -33.8568   25.5690 C   0  0  0  0  0  0  0  0  0  0  0  0
  -24.5804   -9.2483   21.6202 C   0  0  0  0  0  0  0  0  0  0  0  0
  -24.0459  -10.8560   23.3425 C   0  0  0  0  0  0  0  0  0  0  0  0
  -29.8618  -34.9128   27.3335 C   0  0  0  0  0  0  0  0  0  0  0  0
  -30.1612  -32.8487   25.4907 C   0  0  0  0  0  0  0  0  0  0  0  0
  -28.3272  -29.8951   20.4490 C   0  0  0  0  0  0  0  0  0  0  0  0
  -28.7928  -19.9187   20.4321 C   0  0  0  0  0  0  0  0  0  0  0  0
  -24.1595   -8.2135   22.4555 C   0  0  0  0  0  0  0  0  0  0  0  0
  -23.6249   -9.8213   24.1778 C   0  0  0  0  0  0  0  0  0  0  0  0
  -28.6732  -28.6571   19.9090 C   0  0  0  0  0  0  0  0  0  0  0  0
  -21.2293   -6.8491   23.4483 C   0  0  0  0  0  0  0  0  0  0  0  0
  -20.4153   -5.8604   22.8957 C   0  0  0  0  0  0  0  0  0  0  0  0
  -28.5777  -21.2917   20.5515 C   0  0  0  0  0  0  0  0  0  0  0  0
  -26.7492  -27.6628   20.9714 C   0  0  0  0  0  0  0  0  0  0  0  0
  -26.4743  -19.6080   19.8281 C   0  0  0  0  0  0  0  0  0  0  0  0
  -22.0704   -4.1892   23.4478 C   0  0  0  0  0  0  0  0  0  0  0  0
  -24.5237  -10.5695   22.0637 C   0  0  0  0  0  0  0  0  0  0  0  0
  -24.1753  -12.3626   20.2830 C   0  0  0  0  0  0  0  0  0  0  0  0
  -28.8825  -33.9098   27.2588 C   0  0  0  0  0  0  0  0  0  0  0  0
  -27.1938  -30.0242   21.2645 C   0  0  0  0  0  0  0  0  0  0  0  0
  -29.0374  -32.8593   26.3343 C   0  0  0  0  0  0  0  0  0  0  0  0
  -26.3896  -28.9040   21.5184 C   0  0  0  0  0  0  0  0  0  0  0  0
  -26.2591  -20.9810   19.9476 C   0  0  0  0  0  0  0  0  0  0  0  0
  -27.7411  -19.0769   20.0703 C   0  0  0  0  0  0  0  0  0  0  0  0
  -23.6817   -8.5000   23.7343 C   0  0  0  0  0  0  0  0  0  0  0  0
  -27.8858  -27.5402   20.1725 C   0  0  0  0  0  0  0  0  0  0  0  0
  -22.4640   -6.5079   24.0006 C   0  0  0  0  0  0  0  0  0  0  0  0
  -20.8358   -4.5304   22.8955 C   0  0  0  0  0  0  0  0  0  0  0  0
  -22.8845   -5.1779   24.0004 C   0  0  0  0  0  0  0  0  0  0  0  0
  -27.3109  -21.8228   20.3093 C   0  0  0  0  0  0  0  0  0  0  0  0
  -24.9589  -11.6388   21.2016 C   0  0  0  0  0  0  0  0  0  0  0  0
  -25.0489  -13.2594   19.7182 C   0  0  0  0  0  0  0  0  0  0  0  0
  -22.7822  -12.2358   19.9685 C   0  0  0  0  0  0  0  0  0  0  0  0
  -26.6891  -30.8741   24.2856 C   0  0  0  0  0  0  0  0  0  0  0  0
  -23.5713  -30.6598   23.4165 C   0  0  0  0  0  0  0  0  0  0  0  0
  -21.2352  -29.3363   21.3099 C   0  0  0  0  0  0  0  0  0  0  0  0
  -29.1556  -16.9940   20.1549 C   0  0  0  0  0  0  0  0  0  0  0  0
  -27.7237  -33.9534   28.2232 C   0  0  0  0  0  0  0  0  0  0  0  0
  -26.8193  -31.3719   21.8175 C   0  0  0  0  0  0  0  0  0  0  0  0
  -25.1513  -28.9937   22.3711 C   0  0  0  0  0  0  0  0  0  0  0  0
  -26.5612  -33.0500   27.8198 C   0  0  0  0  0  0  0  0  0  0  0  0
  -30.0940  -13.5632   19.9938 C   0  0  0  0  0  0  0  0  0  0  0  0
  -27.0722  -31.6706   27.4162 C   0  0  0  0  0  0  0  0  0  0  0  0
  -28.7773  -12.8162   20.2181 C   0  0  0  0  0  0  0  0  0  0  0  0
  -30.1763  -14.8337   20.8380 C   0  0  0  0  0  0  0  0  0  0  0  0
  -27.7198  -15.0018   20.9197 C   0  0  0  0  0  0  0  0  0  0  0  0
  -28.0046  -31.7611   26.2022 C   0  0  1  0  0  0  0  0  0  0  0  0
  -25.9311  -31.2843   23.0548 C   0  0  1  0  0  0  0  0  0  0  0  0
  -27.5631  -13.7492   20.0421 C   0  0  2  0  0  0  0  0  0  0  0  0
  -24.8908  -21.5180   19.6820 C   0  0  0  0  0  0  0  0  0  0  0  0
  -18.7644  -29.3158   20.8714 C   0  0  0  0  0  0  0  0  0  0  0  0
  -27.5287  -26.2192   17.3761 C   0  0  0  0  0  0  0  0  0  0  0  0
  -23.1679  -28.7862   25.7907 C   0  0  0  0  0  0  0  0  0  0  0  0
  -20.9986  -28.0691   24.7670 C   0  0  0  0  0  0  0  0  0  0  0  0
  -21.3290  -30.4461   25.4475 C   0  0  0  0  0  0  0  0  0  0  0  0
  -21.5880  -30.4874   18.6063 C   0  0  0  0  0  0  0  0  0  0  0  0
  -27.4202  -24.1948   18.8548 C   0  0  0  0  0  0  0  0  0  0  0  0
  -22.5363  -29.5609   23.4101 C   0  0  1  0  0  0  0  0  0  0  0  0
  -20.0936  -29.9771   20.5414 C   0  0  2  0  0  0  0  0  0  0  0  0
  -27.2682  -25.7091   18.7863 C   0  0  1  0  0  0  0  0  0  1  0  0
  -22.0323  -29.2132   24.8393 C   0  0  0  0  0  0  0  0  0  0  0  0
  -26.2325  -12.0409   21.2222 N   0  0  0  0  0  0  0  0  0  0  0  0
  -26.2558  -13.0271   20.3095 N   0  0  0  0  0  0  0  0  0  0  0  0
  -24.8304  -30.3320   22.8941 N   0  0  0  0  0  0  0  0  0  0  0  0
  -28.9948  -15.6703   20.6163 N   0  0  0  0  0  0  0  0  0  0  0  0
  -24.8948  -14.2161   18.7783 N   0  0  0  0  0  0  0  0  0  0  0  0
  -22.0310  -11.2631   20.6423 N   0  0  0  0  0  0  0  0  0  0  0  0
  -27.9603  -17.6822   19.9495 N   0  0  0  0  0  0  0  0  0  0  0  0
  -27.2372  -31.9310   24.9870 N   0  0  0  0  0  0  0  0  0  0  0  0
  -21.4860  -29.9946   22.4952 N   0  0  0  0  0  0  0  0  0  0  0  0
  -20.3260  -29.8587   19.0741 N   0  3  0  0  0  0  0  0  0  0  0  0
  -22.2239  -12.9524   19.1035 O   0  0  0  0  0  0  0  0  0  0  0  0
  -26.7695  -29.6868   24.5780 O   0  0  0  0  0  0  0  0  0  0  0  0
  -23.2713  -31.7704   23.8617 O   0  0  0  0  0  0  0  0  0  0  0  0
  -21.8413  -28.3482   20.9013 O   0  0  0  0  0  0  0  0  0  0  0  0
  -30.2706  -17.4721   19.9307 O   0  0  0  0  0  0  0  0  0  0  0  0
  -25.6673  -23.7798   20.7600 O   0  0  0  0  0  0  0  0  0  0  0  0
  -28.0932  -24.0768   21.3701 O   0  0  0  0  0  0  0  0  0  0  0  0
  -23.2707   -7.4906   24.5495 O   0  0  0  0  0  0  0  0  0  0  0  0
  -28.2215  -26.3306   19.6473 O   0  0  0  0  0  0  0  0  0  1  0  0
  -20.0533   -3.5809   22.3662 F   0  0  0  0  0  0  0  0  0  0  0  0
  -24.0690   -4.8439   24.5306 F   0  0  0  0  0  0  0  0  0  0  0  0
  -27.0740  -23.5670   20.4703 S   0  0  0  0  0  0  0  0  0  0  0  0
  1  2  1  0  0  0  0
  1  5  2  0  0  0  0
  2  6  2  0  0  0  0
  3  9  2  0  0  0  0
  3 18  1  0  0  0  0
  4 10  1  0  0  0  0
  4 18  2  0  0  0  0
  5 20  1  0  0  0  0
  6 22  1  0  0  0  0
  7 11  2  0  0  0  0
  7 21  1  0  0  0  0
  8 14  2  0  0  0  0
  8 25  1  0  0  0  0
  9 26  1  0  0  0  0
 10 26  2  0  0  0  0
 11 27  1  0  0  0  0
 12 13  2  0  0  0  0
 12 28  1  0  0  0  0
 13 29  1  0  0  0  0
 14 31  1  0  0  0  0
 15 23  1  0  0  0  0
 15 27  2  0  0  0  0
 16 24  1  0  0  0  0
 16 25  2  0  0  0  0
 17 29  2  0  0  0  0
 17 30  1  0  0  0  0
 18 32  1  0  0  0  0
 19 32  1  0  0  0  0
 19 33  2  0  0  0  0
 19 34  1  0  0  0  0
 20 22  2  0  0  0  0
 20 39  1  0  0  0  0
 21 23  2  0  0  0  0
 21 40  1  0  0  0  0
 22 48  1  0  0  0  0
 23 41  1  0  0  0  0
 24 31  2  0  0  0  0
 24 51  1  0  0  0  0
 25 69  1  0  0  0  0
 26 80  1  0  0  0  0
 27 81  1  0  0  0  0
 28 30  2  0  0  0  0
 28 80  1  0  0  0  0
 29 82  1  0  0  0  0
 30 83  1  0  0  0  0
 31 84  1  0  0  0  0
 32 63  2  0  0  0  0
 33 64  1  0  0  0  0
 33 67  1  0  0  0  0
 34 68  1  0  0  0  0
 34 73  2  0  0  0  0
 35 49  1  0  0  0  0
 35 70  1  0  0  0  0
 35 74  2  0  0  0  0
 36 59  1  0  0  0  0
 36 65  1  0  0  0  0
 36 75  2  0  0  0  0
 37 60  1  0  0  0  0
 37 71  1  0  0  0  0
 37 76  2  0  0  0  0
 38 66  1  0  0  0  0
 38 69  1  0  0  0  0
 38 77  2  0  0  0  0
 39 42  1  0  0  0  0
 40 49  1  0  0  0  0
 41 65  1  0  0  0  0
 42 44  1  0  0  0  0
 43 45  1  0  0  0  0
 43 46  1  0  0  0  0
 44 48  1  0  0  0  0
 45 50  1  0  0  0  0
 46 66  1  0  0  0  0
 47 50  1  0  0  0  0
 47 66  1  0  0  0  0
 48 70  1  0  0  0  0
 49 65  1  0  0  0  0
 50 64  1  0  0  0  0
 52 60  1  0  0  0  0
 53 61  1  0  0  0  0
 54 62  1  0  0  0  0
 55 62  1  0  0  0  0
 56 62  1  0  0  0  0
 57 72  1  0  0  0  0
 58 61  1  0  0  0  0
 58 84  1  0  0  0  0
 59 62  1  0  0  0  0
 59 71  1  0  0  0  0
 60 72  1  0  0  0  0
 61 81  1  0  0  0  0
 63 64  1  0  0  0  0
 78 84  2  0  0  0  0
 79 84  2  0  0  0  0
M  CHG  1  72   1
M  ISO  4  38 100  61 101  69 100  81 101
M  END
> <Batch ID>
0064

> <Smiles>
CNC(C)C(=O)NC(C(=O)N1Cc2cc([101O:1][101CH:1](C)CS(=O)(=O)c3ccc([100NH:0][100C:0](=O)N4CCCC(n5nc(-c6ccc(Oc7ccc(F)cc7F)cc6)c(C(N)=O)c5N)C4)cc3C)ccc2CC1C(=O)NC1CCCc2ccccc21)C(C)(C)C

> <Shape>
0.295

> <Color>
0.114

> <Negative vol penalty>
0.000

$$$$

  -OEChem-04042323153D

 86 95  0     1  0  0  0  0  0999 V2000
  -19.3244  -20.6285   21.2538 C   0  0  0  0  0  0  0  0  0  0  0  0
  -20.5387  -20.6765   21.9311 C   0  0  0  0  0  0  0  0  0  0  0  0
  -23.0764   -9.8678   19.9431 C   0  0  0  0  0  0  0  0  0  0  0  0
  -23.8328   -9.8790   22.2377 C   0  0  0  0  0  0  0  0  0  0  0  0
  -18.5426  -21.7777   21.1445 C   0  0  0  0  0  0  0  0  0  0  0  0
  -20.9723  -21.8742   22.4985 C   0  0  0  0  0  0  0  0  0  0  0  0
  -22.7946  -21.2571   27.1829 C   0  0  0  0  0  0  0  0  0  0  0  0
  -32.6484  -17.4968   23.4561 C   0  0  0  0  0  0  0  0  0  0  0  0
  -32.0617  -16.6112   22.5522 C   0  0  0  0  0  0  0  0  0  0  0  0
  -22.3318   -8.7153   20.1942 C   0  0  0  0  0  0  0  0  0  0  0  0
  -23.0881   -8.7265   22.4887 C   0  0  0  0  0  0  0  0  0  0  0  0
  -24.0847  -20.7421   27.3015 C   0  0  0  0  0  0  0  0  0  0  0  0
  -19.8588   -7.9309   23.0878 C   0  0  0  0  0  0  0  0  0  0  0  0
  -19.1001   -7.8935   24.2576 C   0  0  0  0  0  0  0  0  0  0  0  0
  -24.9346  -22.9707   27.6628 C   0  0  0  0  0  0  0  0  0  0  0  0
  -29.8772  -17.4618   23.1367 C   0  0  0  0  0  0  0  0  0  0  0  0
  -20.3397   -5.9571   24.9998 C   0  0  0  0  0  0  0  0  0  0  0  0
  -23.8270  -10.4496   20.9649 C   0  0  0  0  0  0  0  0  0  0  0  0
  -24.1698  -12.9744   20.8405 C   0  0  0  0  0  0  0  0  0  0  0  0
  -18.9623  -22.9877   21.7191 C   0  0  0  0  0  0  0  0  0  0  0  0
  -22.5658  -22.6362   27.2927 C   0  0  0  0  0  0  0  0  0  0  0  0
  -20.1960  -23.0410   22.3955 C   0  0  0  0  0  0  0  0  0  0  0  0
  -23.6402  -23.5004   27.5477 C   0  0  0  0  0  0  0  0  0  0  0  0
  -31.8495  -18.3649   24.2004 C   0  0  0  0  0  0  0  0  0  0  0  0
  -30.4639  -18.3474   24.0407 C   0  0  0  0  0  0  0  0  0  0  0  0
  -30.6761  -16.5937   22.3925 C   0  0  0  0  0  0  0  0  0  0  0  0
  -22.3376   -8.1447   21.4670 C   0  0  0  0  0  0  0  0  0  0  0  0
  -25.1554  -21.5992   27.5386 C   0  0  0  0  0  0  0  0  0  0  0  0
  -20.8580   -6.9814   22.8739 C   0  0  0  0  0  0  0  0  0  0  0  0
  -19.3405   -6.9066   25.2136 C   0  0  0  0  0  0  0  0  0  0  0  0
  -21.0985   -5.9945   23.8299 C   0  0  0  0  0  0  0  0  0  0  0  0
  -24.5968  -11.6397   20.7060 C   0  0  0  0  0  0  0  0  0  0  0  0
  -25.2628  -13.7228   20.4774 C   0  0  0  0  0  0  0  0  0  0  0  0
  -29.6700  -20.6335   24.7804 C   0  0  0  0  0  0  0  0  0  0  0  0
  -22.8988  -13.4914   21.2564 C   0  0  0  0  0  0  0  0  0  0  0  0
  -21.4252  -24.8821   25.3539 C   0  0  0  0  0  0  0  0  0  0  0  0
  -21.6555  -26.7377   28.0046 C   0  0  0  0  0  0  0  0  0  0  0  0
  -23.1225  -27.2900   31.0361 C   0  0  0  0  0  0  0  0  0  0  0  0
  -30.7290  -14.7670   20.6585 C   0  0  0  0  0  0  0  0  0  0  0  0
  -18.1055  -24.2150   21.5340 C   0  0  0  0  0  0  0  0  0  0  0  0
  -21.1646  -23.1731   27.1889 C   0  0  0  0  0  0  0  0  0  0  0  0
  -23.4451  -24.9866   27.6940 C   0  0  0  0  0  0  0  0  0  0  0  0
  -28.5413  -21.1275   25.6582 C   0  0  0  0  0  0  0  0  0  0  0  0
  -18.4599  -25.3545   22.4860 C   0  0  0  0  0  0  0  0  0  0  0  0
  -29.6175  -12.3490   18.2932 C   0  0  0  0  0  0  0  0  0  0  0  0
  -19.9699  -25.5664   22.5262 C   0  0  0  0  0  0  0  0  0  0  0  0
  -28.1771  -12.0587   18.7211 C   0  0  0  0  0  0  0  0  0  0  0  0
  -30.5308  -12.5798   19.4958 C   0  0  0  0  0  0  0  0  0  0  0  0
  -28.6220  -13.3075   20.8727 C   0  0  0  0  0  0  0  0  0  0  0  0
  -28.5487  -18.7393   25.6309 C   0  0  0  0  0  0  0  0  0  0  0  0
  -20.6889  -24.3155   23.0458 C   0  0  1  0  0  0  0  0  0  0  0  0
  -21.1170  -24.6490   26.8059 C   0  0  1  0  0  0  0  0  0  0  0  0
  -27.6509  -13.1323   19.6937 C   0  0  2  0  0  0  0  0  0  0  0  0
  -28.1934  -19.9217   26.5360 C   0  0  1  0  0  0  0  0  0  0  0  0
  -32.5052  -19.3028   25.1613 C   0  0  0  0  0  0  0  0  0  0  0  0
  -29.0553  -19.9133   27.8101 C   0  0  0  0  0  0  0  0  0  0  0  0
  -23.1329  -28.9084   32.9539 C   0  0  0  0  0  0  0  0  0  0  0  0
  -23.2887  -28.7015   26.3355 C   0  0  0  0  0  0  0  0  0  0  0  0
  -24.0538  -29.7691   28.4669 C   0  0  0  0  0  0  0  0  0  0  0  0
  -21.6306  -29.7677   27.8744 C   0  0  0  0  0  0  0  0  0  0  0  0
  -22.2384  -25.2103   32.9471 C   0  0  0  0  0  0  0  0  0  0  0  0
  -26.7132  -19.9119   26.9207 C   0  0  0  0  0  0  0  0  0  1  0  0
  -22.7285  -27.6116   28.6080 C   0  0  1  0  0  0  0  0  0  0  0  0
  -22.5333  -27.6280   32.3936 C   0  0  2  0  0  0  0  0  0  0  0  0
  -22.9297  -28.9347   27.8166 C   0  0  0  0  0  0  0  0  0  0  0  0
  -25.8623  -11.5426   20.2898 N   0  0  0  0  0  0  0  0  0  0  0  0
  -26.2398  -12.8258   20.1596 N   0  0  0  0  0  0  0  0  0  0  0  0
  -29.6296  -19.2276   24.7931 N   0  0  0  0  0  0  0  0  0  0  0  0
  -22.0572  -25.4639   27.5782 N   0  0  0  0  0  0  0  0  0  0  0  0
  -29.9708  -13.6125   20.3703 N   0  0  0  0  0  0  0  0  0  0  0  0
  -25.4737  -15.0540   20.4021 N   0  0  0  0  0  0  0  0  0  0  0  0
  -21.8861  -12.5832   21.5939 N   0  0  0  0  0  0  0  0  0  0  0  0
  -30.0807  -15.6938   21.4741 N   0  0  0  0  0  0  0  0  0  0  0  0
  -20.5728  -24.2273   24.4856 N   0  0  0  0  0  0  0  0  0  0  0  0
  -22.3610  -27.8021   30.0069 N   0  0  0  0  0  0  0  0  0  0  0  0
  -22.7939  -26.5245   33.3607 N   0  3  0  0  0  0  0  0  0  0  0  0
  -30.4000  -21.3947   24.1620 O   0  0  0  0  0  0  0  0  0  0  0  0
  -22.6629  -14.7222   21.3110 O   0  0  0  0  0  0  0  0  0  0  0  0
  -22.3659  -25.6040   25.0443 O   0  0  0  0  0  0  0  0  0  0  0  0
  -20.5020  -27.1668   27.9215 O   0  0  0  0  0  0  0  0  0  0  0  0
  -24.1570  -26.6401   30.9021 O   0  0  0  0  0  0  0  0  0  0  0  0
  -31.8589  -14.9345   20.1923 O   0  0  0  0  0  0  0  0  0  0  0  0
  -21.6110   -7.0203   21.7124 O   0  0  0  0  0  0  0  0  0  0  0  0
  -26.4157  -21.0993   27.6541 O   0  0  0  0  0  0  0  0  0  1  0  0
  -18.6128   -6.8717   26.3377 F   0  0  0  0  0  0  0  0  0  0  0  0
  -22.0578   -5.0803   23.6305 F   0  0  0  0  0  0  0  0  0  0  0  0
  1  2  1  0  0  0  0
  1  5  2  0  0  0  0
  2  6  2  0  0  0  0
  3 10  2  0  0  0  0
  3 18  1  0  0  0  0
  4 11  1  0  0  0  0
  4 18  2  0  0  0  0
  5 20  1  0  0  0  0
  6 22  1  0  0  0  0
  7 12  2  0  0  0  0
  7 21  1  0  0  0  0
  8  9  2  0  0  0  0
  8 24  1  0  0  0  0
  9 26  1  0  0  0  0
 10 27  1  0  0  0  0
 11 27  2  0  0  0  0
 12 28  1  0  0  0  0
 13 14  2  0  0  0  0
 13 29  1  0  0  0  0
 14 30  1  0  0  0  0
 15 23  1  0  0  0  0
 15 28  2  0  0  0  0
 16 25  1  0  0  0  0
 16 26  2  0  0  0  0
 17 30  2  0  0  0  0
 17 31  1  0  0  0  0
 18 32  1  0  0  0  0
 19 32  1  0  0  0  0
 19 33  2  0  0  0  0
 19 35  1  0  0  0  0
 20 22  2  0  0  0  0
 20 40  1  0  0  0  0
 21 23  2  0  0  0  0
 21 41  1  0  0  0  0
 22 51  1  0  0  0  0
 23 42  1  0  0  0  0
 24 25  2  0  0  0  0
 24 55  1  0  0  0  0
 25 68  1  0  0  0  0
 26 73  1  0  0  0  0
 27 83  1  0  0  0  0
 28 84  1  0  0  0  0
 29 31  2  0  0  0  0
 29 83  1  0  0  0  0
 30 85  1  0  0  0  0
 31 86  1  0  0  0  0
 32 66  2  0  0  0  0
 33 67  1  0  0  0  0
 33 71  1  0  0  0  0
 34 43  1  0  0  0  0
 34 68  1  0  0  0  0
 34 77  2  0  0  0  0
 35 72  1  0  0  0  0
 35 78  2  0  0  0  0
 36 52  1  0  0  0  0
 36 74  1  0  0  0  0
 36 79  2  0  0  0  0
 37 63  1  0  0  0  0
 37 69  1  0  0  0  0
 37 80  2  0  0  0  0
 38 64  1  0  0  0  0
 38 75  1  0  0  0  0
 38 81  2  0  0  0  0
 39 70  1  0  0  0  0
 39 73  1  0  0  0  0
 39 82  2  0  0  0  0
 40 44  1  0  0  0  0
 41 52  1  0  0  0  0
 42 69  1  0  0  0  0
 43 54  1  0  0  0  0
 44 46  1  0  0  0  0
 45 47  1  0  0  0  0
 45 48  1  0  0  0  0
 46 51  1  0  0  0  0
 47 53  1  0  0  0  0
 48 70  1  0  0  0  0
 49 53  1  0  0  0  0
 49 70  1  0  0  0  0
 50 54  1  0  0  0  0
 50 68  1  0  0  0  0
 51 74  1  0  0  0  0
 52 69  1  0  0  0  0
 53 67  1  0  0  0  0
 54 56  1  0  0  0  0
 54 62  1  0  0  0  0
 57 64  1  0  0  0  0
 58 65  1  0  0  0  0
 59 65  1  0  0  0  0
 60 65  1  0  0  0  0
 61 76  1  0  0  0  0
 62 84  1  0  0  0  0
 63 65  1  0  0  0  0
 63 75  1  0  0  0  0
 64 76  1  0  0  0  0
 66 67  1  0  0  0  0
M  CHG  1  76   1
M  ISO  4  39 100  62 101  73 100  84 101
M  END
> <Batch ID>
0064

> <Smiles>
CNC(C)C(=O)NC(C(=O)N1Cc2cc([101O:1][101CH2:1]C3(C)CC(=O)N(c4cc([100NH:0][100C:0](=O)N5CCCC(n6nc(-c7ccc(Oc8ccc(F)cc8F)cc7)c(C(N)=O)c6N)C5)ccc4C)C3)ccc2CC1C(=O)NC1CCCc2ccccc21)C(C)(C)C

> <Shape>
0.176

> <Color>
0.192

> <Negative vol penalty>
0.000

$$$$

  -OEChem-04042323153D

 89 97  0     1  0  0  0  0  0999 V2000
  -23.7152  -23.9842   19.7496 C   0  0  0  0  0  0  0  0  0  0  0  0
  -24.8123  -23.1677   20.0045 C   0  0  0  0  0  0  0  0  0  0  0  0
  -21.3860  -28.8210   20.4860 C   0  0  0  0  0  0  0  0  0  0  0  0
  -22.4170  -27.4577   22.1935 C   0  0  0  0  0  0  0  0  0  0  0  0
  -22.4421  -23.5859   20.1552 C   0  0  0  0  0  0  0  0  0  0  0  0
  -24.6372  -21.9529   20.6663 C   0  0  0  0  0  0  0  0  0  0  0  0
  -27.2072  -18.1688   18.4938 C   0  0  0  0  0  0  0  0  0  0  0  0
  -30.3659  -25.7376   22.0530 C   0  0  0  0  0  0  0  0  0  0  0  0
  -31.4393  -25.7051   19.8888 C   0  0  0  0  0  0  0  0  0  0  0  0
  -20.2433  -28.0229   20.5388 C   0  0  0  0  0  0  0  0  0  0  0  0
  -21.2742  -26.6597   22.2464 C   0  0  0  0  0  0  0  0  0  0  0  0
  -28.5765  -18.1011   18.7472 C   0  0  0  0  0  0  0  0  0  0  0  0
  -16.9151  -26.5618   20.4815 C   0  0  0  0  0  0  0  0  0  0  0  0
  -15.6767  -27.2032   20.5042 C   0  0  0  0  0  0  0  0  0  0  0  0
  -31.1209  -24.6320   22.4442 C   0  0  0  0  0  0  0  0  0  0  0  0
  -32.1945  -24.5995   20.2800 C   0  0  0  0  0  0  0  0  0  0  0  0
  -28.1799  -16.3896   20.4003 C   0  0  0  0  0  0  0  0  0  0  0  0
  -16.2939  -28.3222   22.5546 C   0  0  0  0  0  0  0  0  0  0  0  0
  -22.4729  -28.5383   21.3133 C   0  0  0  0  0  0  0  0  0  0  0  0
  -23.9212  -30.5161   22.0192 C   0  0  0  0  0  0  0  0  0  0  0  0
  -22.2499  -22.3611   20.8138 C   0  0  0  0  0  0  0  0  0  0  0  0
  -26.3114  -17.3537   19.2006 C   0  0  0  0  0  0  0  0  0  0  0  0
  -23.3605  -21.5385   21.0824 C   0  0  0  0  0  0  0  0  0  0  0  0
  -26.8000  -16.4470   20.1521 C   0  0  0  0  0  0  0  0  0  0  0  0
  -30.5250  -26.2742   20.7753 C   0  0  0  0  0  0  0  0  0  0  0  0
  -20.1873  -26.9423   21.4190 C   0  0  0  0  0  0  0  0  0  0  0  0
  -29.0628  -17.2135   19.7026 C   0  0  0  0  0  0  0  0  0  0  0  0
  -17.8429  -26.8005   21.4954 C   0  0  0  0  0  0  0  0  0  0  0  0
  -15.3661  -28.0834   21.5407 C   0  0  0  0  0  0  0  0  0  0  0  0
  -17.5323  -27.6807   22.5319 C   0  0  0  0  0  0  0  0  0  0  0  0
  -32.0353  -24.0630   21.5577 C   0  0  0  0  0  0  0  0  0  0  0  0
  -23.6539  -29.3619   21.2588 C   0  0  0  0  0  0  0  0  0  0  0  0
  -25.1627  -30.9253   21.5974 C   0  0  0  0  0  0  0  0  0  0  0  0
  -23.1191  -31.1608   23.0175 C   0  0  0  0  0  0  0  0  0  0  0  0
  -23.8834  -17.8821   21.1828 C   0  0  0  0  0  0  0  0  0  0  0  0
  -23.5137  -14.6668   20.9644 C   0  0  0  0  0  0  0  0  0  0  0  0
  -32.3610  -18.3609   20.6789 C   0  0  0  0  0  0  0  0  0  0  0  0
  -24.9208  -11.6262   20.3152 C   0  0  0  0  0  0  0  0  0  0  0  0
  -29.7935  -28.0519   19.1471 C   0  0  0  0  0  0  0  0  0  0  0  0
  -20.8614  -21.9951   21.2752 C   0  0  0  0  0  0  0  0  0  0  0  0
  -24.8398  -17.4196   18.8965 C   0  0  0  0  0  0  0  0  0  0  0  0
  -25.8820  -15.5358   20.9238 C   0  0  0  0  0  0  0  0  0  0  0  0
  -20.7093  -20.5202   21.6381 C   0  0  0  0  0  0  0  0  0  0  0  0
  -28.0378  -30.8259   17.7689 C   0  0  0  0  0  0  0  0  0  0  0  0
  -21.8711  -20.0635   22.5148 C   0  0  0  0  0  0  0  0  0  0  0  0
  -26.7414  -30.8741   18.5807 C   0  0  0  0  0  0  0  0  0  0  0  0
  -28.4907  -29.3904   17.5081 C   0  0  0  0  0  0  0  0  0  0  0  0
  -27.3071  -28.5960   19.5174 C   0  0  0  0  0  0  0  0  0  0  0  0
  -23.2075  -20.2021   21.7757 C   0  0  1  0  0  0  0  0  0  0  0  0
  -23.9697  -16.9092   20.0409 C   0  0  1  0  0  0  0  0  0  0  0  0
  -26.8460  -30.0219   19.8607 C   0  0  2  0  0  0  0  0  0  0  0  0
  -24.3782   -9.1768   20.2554 C   0  0  0  0  0  0  0  0  0  0  0  0
  -23.6006  -14.5755   24.0130 C   0  0  0  0  0  0  0  0  0  0  0  0
  -24.0115  -12.1107   23.8581 C   0  0  0  0  0  0  0  0  0  0  0  0
  -21.8892  -13.0776   22.9729 C   0  0  0  0  0  0  0  0  0  0  0  0
  -35.8060  -20.9330   19.5634 C   0  0  0  0  0  0  0  0  0  0  0  0
  -36.0177  -21.4657   21.9873 C   0  0  0  0  0  0  0  0  0  0  0  0
  -25.5599  -11.4366   17.4317 C   0  0  0  0  0  0  0  0  0  0  0  0
  -31.1562  -18.3404   19.7627 C   0  0  0  0  0  0  0  0  0  1  0  0
  -34.3287  -19.7718   21.2474 C   0  0  0  0  0  0  0  0  0  0  0  0
  -34.0054  -22.2614   20.6639 C   0  0  0  0  0  0  0  0  0  0  0  0
  -24.0494  -13.4752   21.7209 C   0  0  1  0  0  0  0  0  0  0  0  0
  -24.4585  -10.4659   19.4524 C   0  0  2  0  0  0  0  0  0  0  0  0
  -23.4051  -13.3282   23.1282 C   0  0  0  0  0  0  0  0  0  0  0  0
  -35.0108  -21.1088   20.8760 C   0  0  0  0  0  0  0  0  0  0  0  0
  -24.6458  -29.0575   20.4176 N   0  0  0  0  0  0  0  0  0  0  0  0
  -31.9736  -21.5091   22.2340 N   0  0  0  0  0  0  0  0  0  0  0  0
  -25.5483  -30.0265   20.6469 N   0  0  0  0  0  0  0  0  0  0  0  0
  -24.4508  -15.6421   20.5950 N   0  0  0  0  0  0  0  0  0  0  0  0
  -28.5712  -28.6449   18.7662 N   0  0  0  0  0  0  0  0  0  0  0  0
  -25.9511  -31.9626   21.9506 N   0  0  0  0  0  0  0  0  0  0  0  0
  -21.8695  -30.6082   23.3298 N   0  0  0  0  0  0  0  0  0  0  0  0
  -29.7579  -27.3973   20.3779 N   0  0  0  0  0  0  0  0  0  0  0  0
  -23.3774  -19.1189   20.8311 N   0  0  0  0  0  0  0  0  0  0  0  0
  -33.1227  -19.5047   20.4982 N   0  0  0  0  0  0  0  0  0  0  0  0
  -23.8566  -12.3195   20.8517 N   0  0  0  0  0  0  0  0  0  0  0  0
  -25.4024  -10.2552   18.3186 N   0  3  0  0  0  0  0  0  0  0  0  0
  -23.4921  -32.2054   23.6033 O   0  0  0  0  0  0  0  0  0  0  0  0
  -24.2474  -17.5357   22.3005 O   0  0  0  0  0  0  0  0  0  0  0  0
  -22.3094  -14.7264   20.7044 O   0  0  0  0  0  0  0  0  0  0  0  0
  -32.6067  -17.4576   21.4737 O   0  0  0  0  0  0  0  0  0  0  0  0
  -26.1075  -11.8888   20.4982 O   0  0  0  0  0  0  0  0  0  0  0  0
  -30.8051  -28.1430   18.4468 O   0  0  0  0  0  0  0  0  0  0  0  0
  -33.9129  -23.1287   23.0824 O   0  0  0  0  0  0  0  0  0  0  0  0
  -19.0722  -26.1635   21.4710 O   0  0  0  0  0  0  0  0  0  0  0  0
  -30.3988  -17.1460   19.9525 O   0  0  0  0  0  0  0  0  0  1  0  0
  -14.1774  -28.7004   21.5616 F   0  0  0  0  0  0  0  0  0  0  0  0
  -18.4200  -27.9150   23.5080 F   0  0  0  0  0  0  0  0  0  0  0  0
  -32.9958  -22.6560   22.0554 S   0  0  2  0  0  0  0  0  0  0  0  0
  1  2  1  0  0  0  0
  1  5  2  0  0  0  0
  2  6  2  0  0  0  0
  3 10  2  0  0  0  0
  3 19  1  0  0  0  0
  4 11  1  0  0  0  0
  4 19  2  0  0  0  0
  5 21  1  0  0  0  0
  6 23  1  0  0  0  0
  7 12  2  0  0  0  0
  7 22  1  0  0  0  0
  8 15  2  0  0  0  0
  8 25  1  0  0  0  0
  9 16  1  0  0  0  0
  9 25  2  0  0  0  0
 10 26  1  0  0  0  0
 11 26  2  0  0  0  0
 12 27  1  0  0  0  0
 13 14  2  0  0  0  0
 13 28  1  0  0  0  0
 14 29  1  0  0  0  0
 15 31  1  0  0  0  0
 16 31  2  0  0  0  0
 17 24  1  0  0  0  0
 17 27  2  0  0  0  0
 18 29  2  0  0  0  0
 18 30  1  0  0  0  0
 19 32  1  0  0  0  0
 20 32  1  0  0  0  0
 20 33  2  0  0  0  0
 20 34  1  0  0  0  0
 21 23  2  0  0  0  0
 21 40  1  0  0  0  0
 22 24  2  0  0  0  0
 22 41  1  0  0  0  0
 23 49  1  0  0  0  0
 24 42  1  0  0  0  0
 25 73  1  0  0  0  0
 26 85  1  0  0  0  0
 27 86  1  0  0  0  0
 28 30  2  0  0  0  0
 28 85  1  0  0  0  0
 29 87  1  0  0  0  0
 30 88  1  0  0  0  0
 31 89  1  0  0  0  0
 32 66  2  0  0  0  0
 33 68  1  0  0  0  0
 33 71  1  0  0  0  0
 34 72  1  0  0  0  0
 34 78  2  0  0  0  0
 35 50  1  0  0  0  0
 35 74  1  0  0  0  0
 35 79  2  0  0  0  0
 36 62  1  0  0  0  0
 36 69  1  0  0  0  0
 36 80  2  0  0  0  0
 37 59  1  0  0  0  0
 37 75  1  0  0  0  0
 37 81  2  0  0  0  0
 38 63  1  0  0  0  0
 38 76  1  0  0  0  0
 38 82  2  0  0  0  0
 39 70  1  0  0  0  0
 39 73  1  0  0  0  0
 39 83  2  0  0  0  0
 40 43  1  0  0  0  0
 41 50  1  0  0  0  0
 42 69  1  0  0  0  0
 43 45  1  0  0  0  0
 44 46  1  0  0  0  0
 44 47  1  0  0  0  0
 45 49  1  0  0  0  0
 46 51  1  0  0  0  0
 47 70  1  0  0  0  0
 48 51  1  0  0  0  0
 48 70  1  0  0  0  0
 49 74  1  0  0  0  0
 50 69  1  0  0  0  0
 51 68  1  0  0  0  0
 52 63  1  0  0  0  0
 53 64  1  0  0  0  0
 54 64  1  0  0  0  0
 55 64  1  0  0  0  0
 56 65  1  0  0  0  0
 57 65  1  0  0  0  0
 58 77  1  0  0  0  0
 59 86  1  0  0  0  0
 60 65  1  0  0  0  0
 60 75  1  0  0  0  0
 61 65  1  0  0  0  0
 61 89  1  0  0  0  0
 62 64  1  0  0  0  0
 62 76  1  0  0  0  0
 63 77  1  0  0  0  0
 66 68  1  0  0  0  0
 67 89  2  0  0  0  0
 84 89  2  0  0  0  0
M  CHG  1  77   1
M  ISO  4  39 100  59 101  73 100  86 101
M  END
> <Batch ID>
0064

> <Smiles>
CNC(C)C(=O)NC(C(=O)N1Cc2cc([101O:1][101CH2:1]C(=O)NCC(C)(C)CS(=N)(=O)c3ccc([100NH:0][100C:0](=O)N4CCCC(n5nc(-c6ccc(Oc7ccc(F)cc7F)cc6)c(C(N)=O)c5N)C4)cc3)ccc2CC1C(=O)NC1CCCc2ccccc21)C(C)(C)C

> <Shape>
0.215

> <Color>
0.086

> <Negative vol penalty>
0.000

$$$$

  -OEChem-04042323153D

 85 93  0     1  0  0  0  0  0999 V2000
  -19.6870  -27.8845   26.7621 C   0  0  0  0  0  0  0  0  0  0  0  0
  -20.9069  -27.4147   26.2860 C   0  0  0  0  0  0  0  0  0  0  0  0
  -22.8669  -11.9133   21.9806 C   0  0  0  0  0  0  0  0  0  0  0  0
  -22.8775  -14.3150   22.2424 C   0  0  0  0  0  0  0  0  0  0  0  0
  -18.7168  -28.3333   25.8669 C   0  0  0  0  0  0  0  0  0  0  0  0
  -21.1568  -27.3924   24.9143 C   0  0  0  0  0  0  0  0  0  0  0  0
  -26.5270  -28.3623   22.1347 C   0  0  0  0  0  0  0  0  0  0  0  0
  -21.9710  -11.8013   23.0438 C   0  0  0  0  0  0  0  0  0  0  0  0
  -21.9816  -14.2031   23.3056 C   0  0  0  0  0  0  0  0  0  0  0  0
  -27.4905  -27.4924   21.6260 C   0  0  0  0  0  0  0  0  0  0  0  0
  -18.6546  -12.2104   23.5602 C   0  0  0  0  0  0  0  0  0  0  0  0
  -17.5639  -11.3556   23.4015 C   0  0  0  0  0  0  0  0  0  0  0  0
  -31.6466  -20.2140   20.5439 C   0  0  0  0  0  0  0  0  0  0  0  0
  -29.7008  -18.7872   20.6662 C   0  0  0  0  0  0  0  0  0  0  0  0
  -26.5199  -27.7121   19.4285 C   0  0  0  0  0  0  0  0  0  0  0  0
  -31.8910  -17.8185   20.3475 C   0  0  0  0  0  0  0  0  0  0  0  0
  -18.3079  -10.0546   25.2965 C   0  0  0  0  0  0  0  0  0  0  0  0
  -23.3202  -13.1701   21.5799 C   0  0  0  0  0  0  0  0  0  0  0  0
  -30.2680  -20.0613   20.6909 C   0  0  0  0  0  0  0  0  0  0  0  0
  -23.9327  -13.4367   19.1179 C   0  0  0  0  0  0  0  0  0  0  0  0
  -18.9587  -28.3255   24.4842 C   0  0  0  0  0  0  0  0  0  0  0  0
  -25.5445  -28.9060   21.2948 C   0  0  0  0  0  0  0  0  0  0  0  0
  -20.1885  -27.8403   23.9998 C   0  0  0  0  0  0  0  0  0  0  0  0
  -25.5467  -28.5907   19.9285 C   0  0  0  0  0  0  0  0  0  0  0  0
  -32.4582  -19.0926   20.3722 C   0  0  0  0  0  0  0  0  0  0  0  0
  -30.5124  -17.6657   20.4945 C   0  0  0  0  0  0  0  0  0  0  0  0
  -21.5283  -12.9462   23.7063 C   0  0  0  0  0  0  0  0  0  0  0  0
  -27.4853  -27.1649   20.2733 C   0  0  0  0  0  0  0  0  0  0  0  0
  -19.5720  -11.9873   24.5870 C   0  0  0  0  0  0  0  0  0  0  0  0
  -17.3905  -10.2777   24.2697 C   0  0  0  0  0  0  0  0  0  0  0  0
  -19.3987  -10.9094   25.4551 C   0  0  0  0  0  0  0  0  0  0  0  0
  -24.2461  -13.2864   20.4820 C   0  0  0  0  0  0  0  0  0  0  0  0
  -25.1527  -13.5006   18.4902 C   0  0  0  0  0  0  0  0  0  0  0  0
  -29.4089  -21.2493   20.8732 C   0  0  0  0  0  0  0  0  0  0  0  0
  -22.6531  -13.5119   18.4755 C   0  0  0  0  0  0  0  0  0  0  0  0
  -22.3722  -28.7550   21.1629 C   0  0  0  0  0  0  0  0  0  0  0  0
  -22.7545  -30.9517   18.8070 C   0  0  0  0  0  0  0  0  0  0  0  0
  -28.6325  -23.4012   19.9018 C   0  0  0  0  0  0  0  0  0  0  0  0
  -24.7773  -32.3231   16.4249 C   0  0  0  0  0  0  0  0  0  0  0  0
  -30.5983  -15.1547   20.3107 C   0  0  0  0  0  0  0  0  0  0  0  0
  -17.8615  -28.7764   23.5528 C   0  0  0  0  0  0  0  0  0  0  0  0
  -24.5284  -29.8638   21.8538 C   0  0  0  0  0  0  0  0  0  0  0  0
  -24.5257  -29.1634   18.9808 C   0  0  0  0  0  0  0  0  0  0  0  0
  -18.3477  -29.0699   22.1358 C   0  0  0  0  0  0  0  0  0  0  0  0
  -29.6783  -12.0002   18.9398 C   0  0  0  0  0  0  0  0  0  0  0  0
  -19.2568  -27.9496   21.6406 C   0  0  0  0  0  0  0  0  0  0  0  0
  -28.1519  -11.9882   19.0500 C   0  0  0  0  0  0  0  0  0  0  0  0
  -30.3280  -12.6906   20.1376 C   0  0  0  0  0  0  0  0  0  0  0  0
  -28.2974  -14.0275   20.5357 C   0  0  0  0  0  0  0  0  0  0  0  0
  -20.5065  -27.8236   22.5204 C   0  0  1  0  0  0  0  0  0  0  0  0
  -23.2632  -29.9547   21.0062 C   0  0  1  0  0  0  0  0  0  0  0  0
  -27.5954  -13.3999   19.3204 C   0  0  2  0  0  0  0  0  0  0  0  0
  -33.9325  -19.2559   20.2159 C   0  0  0  0  0  0  0  0  0  0  0  0
  -24.7984  -34.0771   14.6304 C   0  0  0  0  0  0  0  0  0  0  0  0
  -21.0927  -29.1298   17.0101 C   0  0  0  0  0  0  0  0  0  0  0  0
  -21.9350  -30.4225   15.0383 C   0  0  0  0  0  0  0  0  0  0  0  0
  -20.5754  -31.5666   16.7891 C   0  0  0  0  0  0  0  0  0  0  0  0
  -26.9745  -33.8073   17.7397 C   0  0  0  0  0  0  0  0  0  0  0  0
  -28.8572  -24.2290   18.6569 C   0  0  0  0  0  0  0  0  0  0  0  0
  -28.0466  -25.5152   18.6548 C   0  0  0  0  0  0  0  0  0  1  0  0
  -22.9553  -30.8921   17.3120 C   0  0  1  0  0  0  0  0  0  0  0  0
  -25.1010  -33.7675   16.0882 C   0  0  2  0  0  0  0  0  0  0  0  0
  -21.6578  -30.4903   16.5554 C   0  0  0  0  0  0  0  0  0  0  0  0
  -25.5621  -13.2564   20.7084 N   0  0  0  0  0  0  0  0  0  0  0  0
  -26.0864  -13.3886   19.4781 N   0  0  0  0  0  0  0  0  0  0  0  0
  -23.5492  -30.0903   19.5765 N   0  0  0  0  0  0  0  0  0  0  0  0
  -29.7543  -14.0242   20.3302 N   0  0  0  0  0  0  0  0  0  0  0  0
  -25.5071  -13.6409   17.1952 N   0  0  0  0  0  0  0  0  0  0  0  0
  -21.5010  -13.4297   19.2694 N   0  0  0  0  0  0  0  0  0  0  0  0
  -29.9362  -16.3714   20.4717 N   0  0  0  0  0  0  0  0  0  0  0  0
  -29.4017  -22.1779   19.9068 N   0  0  0  0  0  0  0  0  0  0  0  0
  -21.4601  -28.8626   22.1955 N   0  0  0  0  0  0  0  0  0  0  0  0
  -23.4978  -32.1887   16.9209 N   0  0  0  0  0  0  0  0  0  0  0  0
  -28.6907  -21.3294   21.9929 N   0  3  0  0  0  0  0  0  0  0  0  0
  -26.5433  -34.0469   16.3384 N   0  3  0  0  0  0  0  0  0  0  0  0
  -22.5347  -13.6315   17.2324 O   0  0  0  0  0  0  0  0  0  0  0  0
  -22.5015  -27.8029   20.4024 O   0  0  0  0  0  0  0  0  0  0  0  0
  -21.9283  -31.7389   19.2753 O   0  0  0  0  0  0  0  0  0  0  0  0
  -27.8918  -23.6954   20.8284 O   0  0  0  0  0  0  0  0  0  0  0  0
  -25.5780  -31.4052   16.2605 O   0  0  0  0  0  0  0  0  0  0  0  0
  -31.8152  -15.0531   20.1349 O   0  0  0  0  0  0  0  0  0  0  0  0
  -20.6539  -12.8374   24.7436 O   0  0  0  0  0  0  0  0  0  0  0  0
  -28.4242  -26.3156   19.7743 O   0  0  0  0  0  0  0  0  0  1  0  0
  -16.3422   -9.4577   24.1182 F   0  0  0  0  0  0  0  0  0  0  0  0
  -20.2761  -10.6907   26.4441 F   0  0  0  0  0  0  0  0  0  0  0  0
  1  2  1  0  0  0  0
  1  5  2  0  0  0  0
  2  6  2  0  0  0  0
  3  8  2  0  0  0  0
  3 18  1  0  0  0  0
  4  9  1  0  0  0  0
  4 18  2  0  0  0  0
  5 21  1  0  0  0  0
  6 23  1  0  0  0  0
  7 10  2  0  0  0  0
  7 22  1  0  0  0  0
  8 27  1  0  0  0  0
  9 27  2  0  0  0  0
 10 28  1  0  0  0  0
 11 12  2  0  0  0  0
 11 29  1  0  0  0  0
 12 30  1  0  0  0  0
 13 19  1  0  0  0  0
 13 25  2  0  0  0  0
 14 19  2  0  0  0  0
 14 26  1  0  0  0  0
 15 24  1  0  0  0  0
 15 28  2  0  0  0  0
 16 25  1  0  0  0  0
 16 26  2  0  0  0  0
 17 30  2  0  0  0  0
 17 31  1  0  0  0  0
 18 32  1  0  0  0  0
 19 34  1  0  0  0  0
 20 32  1  0  0  0  0
 20 33  2  0  0  0  0
 20 35  1  0  0  0  0
 21 23  2  0  0  0  0
 21 41  1  0  0  0  0
 22 24  2  0  0  0  0
 22 42  1  0  0  0  0
 23 50  1  0  0  0  0
 24 43  1  0  0  0  0
 25 53  1  0  0  0  0
 26 70  1  0  0  0  0
 27 82  1  0  0  0  0
 28 83  1  0  0  0  0
 29 31  2  0  0  0  0
 29 82  1  0  0  0  0
 30 84  1  0  0  0  0
 31 85  1  0  0  0  0
 32 64  2  0  0  0  0
 33 65  1  0  0  0  0
 33 68  1  0  0  0  0
 34 71  1  0  0  0  0
 34 74  2  0  0  0  0
 35 69  1  0  0  0  0
 35 76  2  0  0  0  0
 36 51  1  0  0  0  0
 36 72  1  0  0  0  0
 36 77  2  0  0  0  0
 37 61  1  0  0  0  0
 37 66  1  0  0  0  0
 37 78  2  0  0  0  0
 38 59  1  0  0  0  0
 38 71  1  0  0  0  0
 38 79  2  0  0  0  0
 39 62  1  0  0  0  0
 39 73  1  0  0  0  0
 39 80  2  0  0  0  0
 40 67  1  0  0  0  0
 40 70  1  0  0  0  0
 40 81  2  0  0  0  0
 41 44  1  0  0  0  0
 42 51  1  0  0  0  0
 43 66  1  0  0  0  0
 44 46  1  0  0  0  0
 45 47  1  0  0  0  0
 45 48  1  0  0  0  0
 46 50  1  0  0  0  0
 47 52  1  0  0  0  0
 48 67  1  0  0  0  0
 49 52  1  0  0  0  0
 49 67  1  0  0  0  0
 50 72  1  0  0  0  0
 51 66  1  0  0  0  0
 52 65  1  0  0  0  0
 54 62  1  0  0  0  0
 55 63  1  0  0  0  0
 56 63  1  0  0  0  0
 57 63  1  0  0  0  0
 58 75  1  0  0  0  0
 59 60  1  0  0  0  0
 60 83  1  0  0  0  0
 61 63  1  0  0  0  0
 61 73  1  0  0  0  0
 62 75  1  0  0  0  0
 64 65  1  0  0  0  0
M  CHG  2  74   1  75   1
M  ISO  4  40 100  60 101  70 100  83 101
M  END
> <Batch ID>
0064

> <Smiles>
CNC(C)C(=O)NC(C(=O)N1Cc2cc([101O:1][101CH2:1]CC(=O)NC(=N)c3cc(C)cc([100NH:0][100C:0](=O)N4CCCC(n5nc(-c6ccc(Oc7ccc(F)cc7F)cc6)c(C(N)=O)c5N)C4)c3)ccc2CC1C(=O)NC1CCCc2ccccc21)C(C)(C)C

> <Shape>
0.242

> <Color>
0.099

> <Negative vol penalty>
0.000

$$$$

  -OEChem-04042323153D

 87 96  0     1  0  0  0  0  0999 V2000
  -24.5220  -35.3748   23.5777 C   0  0  0  0  0  0  0  0  0  0  0  0
  -25.3091  -34.2595   23.3092 C   0  0  0  0  0  0  0  0  0  0  0  0
  -27.5554  -13.0595   22.6073 C   0  0  0  0  0  0  0  0  0  0  0  0
  -26.8861  -12.7607   20.3052 C   0  0  0  0  0  0  0  0  0  0  0  0
  -23.2092  -35.2105   24.0176 C   0  0  0  0  0  0  0  0  0  0  0  0
  -24.7841  -32.9792   23.4815 C   0  0  0  0  0  0  0  0  0  0  0  0
  -25.8947  -29.8891   19.6263 C   0  0  0  0  0  0  0  0  0  0  0  0
  -26.9682  -11.8379   22.9366 C   0  0  0  0  0  0  0  0  0  0  0  0
  -26.2989  -11.5391   20.6345 C   0  0  0  0  0  0  0  0  0  0  0  0
  -27.1799  -29.3498   19.5925 C   0  0  0  0  0  0  0  0  0  0  0  0
  -24.3098   -8.5121   20.9365 C   0  0  0  0  0  0  0  0  0  0  0  0
  -23.0415   -8.2429   20.4223 C   0  0  0  0  0  0  0  0  0  0  0  0
  -26.3328  -27.2888   20.5165 C   0  0  0  0  0  0  0  0  0  0  0  0
  -31.6450  -23.0303   16.0695 C   0  0  0  0  0  0  0  0  0  0  0  0
  -29.6338  -22.8271   17.3927 C   0  0  0  0  0  0  0  0  0  0  0  0
  -22.1678  -10.1875   21.5590 C   0  0  0  0  0  0  0  0  0  0  0  0
  -27.5143  -13.5210   21.2916 C   0  0  0  0  0  0  0  0  0  0  0  0
  -29.4471  -15.0046   20.5362 C   0  0  0  0  0  0  0  0  0  0  0  0
  -22.6647  -33.9276   24.1862 C   0  0  0  0  0  0  0  0  0  0  0  0
  -24.8190  -29.1349   20.1165 C   0  0  0  0  0  0  0  0  0  0  0  0
  -23.4632  -32.7976   23.9254 C   0  0  0  0  0  0  0  0  0  0  0  0
  -25.0345  -27.8200   20.5531 C   0  0  0  0  0  0  0  0  0  0  0  0
  -31.5337  -21.6914   15.6946 C   0  0  0  0  0  0  0  0  0  0  0  0
  -30.6951  -23.5982   16.9186 C   0  0  0  0  0  0  0  0  0  0  0  0
  -29.5225  -21.4882   17.0178 C   0  0  0  0  0  0  0  0  0  0  0  0
  -26.3400  -11.0777   21.9502 C   0  0  0  0  0  0  0  0  0  0  0  0
  -27.3996  -28.0504   20.0403 C   0  0  0  0  0  0  0  0  0  0  0  0
  -24.5072   -9.6190   21.7621 C   0  0  0  0  0  0  0  0  0  0  0  0
  -21.9705   -9.0805   20.7335 C   0  0  0  0  0  0  0  0  0  0  0  0
  -23.4362  -10.4567   22.0733 C   0  0  0  0  0  0  0  0  0  0  0  0
  -30.4724  -20.9204   16.1687 C   0  0  0  0  0  0  0  0  0  0  0  0
  -28.1202  -14.7831   20.9509 C   0  0  0  0  0  0  0  0  0  0  0  0
  -29.5226  -16.3615   20.3372 C   0  0  0  0  0  0  0  0  0  0  0  0
  -31.8176  -25.8711   16.9082 C   0  0  0  0  0  0  0  0  0  0  0  0
  -30.5158  -14.0676   20.3475 C   0  0  0  0  0  0  0  0  0  0  0  0
  -22.7866  -29.4391   22.5415 C   0  0  0  0  0  0  0  0  0  0  0  0
  -21.3927  -26.8403   21.1904 C   0  0  0  0  0  0  0  0  0  0  0  0
  -21.7148  -24.0839   19.2040 C   0  0  0  0  0  0  0  0  0  0  0  0
  -27.4170  -21.1179   18.3506 C   0  0  0  0  0  0  0  0  0  0  0  0
  -21.2559  -33.7998   24.7090 C   0  0  0  0  0  0  0  0  0  0  0  0
  -23.4341  -29.7218   20.1214 C   0  0  0  0  0  0  0  0  0  0  0  0
  -23.9099  -26.9615   21.0696 C   0  0  0  0  0  0  0  0  0  0  0  0
  -20.6548  -32.4112   24.5071 C   0  0  0  0  0  0  0  0  0  0  0  0
  -26.2814  -20.0545   21.5532 C   0  0  0  0  0  0  0  0  0  0  0  0
  -21.6482  -31.3331   24.9287 C   0  0  0  0  0  0  0  0  0  0  0  0
  -26.7677  -18.6065   21.6479 C   0  0  0  0  0  0  0  0  0  0  0  0
  -25.8387  -20.4125   20.1356 C   0  0  0  0  0  0  0  0  0  0  0  0
  -29.8138  -25.6220   18.1317 C   0  0  0  0  0  0  0  0  0  0  0  0
  -27.3147  -18.6860   19.1818 C   0  0  0  0  0  0  0  0  0  0  0  0
  -22.9216  -31.3926   24.0765 C   0  0  1  0  0  0  0  0  0  0  0  0
  -31.4366  -27.2354   17.4643 C   0  0  1  0  0  0  0  0  0  0  0  0
  -22.5013  -29.0438   21.1202 C   0  0  1  0  0  0  0  0  0  0  0  0
  -30.5098  -26.8819   18.6284 C   0  0  1  0  0  0  0  0  0  0  0  0
  -27.8322  -18.2983   20.5766 C   0  0  2  0  0  0  0  0  0  0  0  0
  -32.5510  -21.0880   14.7857 C   0  0  0  0  0  0  0  0  0  0  0  0
  -32.6477  -28.0525   17.8812 C   0  0  0  0  0  0  0  0  0  0  0  0
  -20.4111  -22.1317   18.3171 C   0  0  0  0  0  0  0  0  0  0  0  0
  -21.5900  -25.4751   23.9120 C   0  0  0  0  0  0  0  0  0  0  0  0
  -21.1786  -23.2872   22.7665 C   0  0  0  0  0  0  0  0  0  0  0  0
  -19.4405  -25.0752   22.6977 C   0  0  0  0  0  0  0  0  0  0  0  0
  -22.1216  -24.9378   16.3997 C   0  0  0  0  0  0  0  0  0  0  0  0
  -29.5296  -27.9888   18.9843 C   0  0  0  0  0  0  0  0  0  1  0  0
  -21.5520  -25.3459   21.3336 C   0  0  1  0  0  0  0  0  0  0  0  0
  -20.8636  -23.5609   18.0611 C   0  0  2  0  0  0  0  0  0  0  0  0
  -20.9620  -24.8124   22.6696 C   0  0  0  0  0  0  0  0  0  0  0  0
  -27.4043  -15.9091   21.0124 N   0  0  0  0  0  0  0  0  0  0  0  0
  -28.2847  -16.8512   20.6337 N   0  0  0  0  0  0  0  0  0  0  0  0
  -30.8090  -24.9684   17.3019 N   0  0  0  0  0  0  0  0  0  0  0  0
  -22.5750  -27.5826   21.0604 N   0  0  0  0  0  0  0  0  0  0  0  0
  -26.8988  -20.0973   19.1756 N   0  0  0  0  0  0  0  0  0  0  0  0
  -30.5266  -17.1717   19.9394 N   0  0  0  0  0  0  0  0  0  0  0  0
  -30.2668  -12.7111   20.5968 N   0  0  0  0  0  0  0  0  0  0  0  0
  -28.4436  -20.7069   17.5010 N   0  0  0  0  0  0  0  0  0  0  0  0
  -22.6892  -30.7970   22.7781 N   0  0  0  0  0  0  0  0  0  0  0  0
  -20.9568  -24.7556   20.1396 N   0  0  0  0  0  0  0  0  0  0  0  0
  -21.6347  -23.5885   16.7861 N   0  3  0  0  0  0  0  0  0  0  0  0
  -32.8002  -25.6864   16.2044 O   0  0  0  0  0  0  0  0  0  0  0  0
  -31.6623  -14.4249   19.9850 O   0  0  0  0  0  0  0  0  0  0  0  0
  -23.0724  -28.5758   23.3629 O   0  0  0  0  0  0  0  0  0  0  0  0
  -20.2606  -27.3301   21.1865 O   0  0  0  0  0  0  0  0  0  0  0  0
  -22.9302  -23.9105   19.2630 O   0  0  0  0  0  0  0  0  0  0  0  0
  -27.0007  -22.2775   18.4137 O   0  0  0  0  0  0  0  0  0  0  0  0
  -25.7671   -9.8854   22.2712 O   0  0  0  0  0  0  0  0  0  0  0  0
  -28.6532  -27.5218   20.0090 O   0  0  0  0  0  0  0  0  0  1  0  0
  -20.7529   -8.8227   20.2383 F   0  0  0  0  0  0  0  0  0  0  0  0
  -23.6198  -11.5223   22.8649 F   0  0  0  0  0  0  0  0  0  0  0  0
  -30.3677  -19.6327   15.8072 F   0  0  0  0  0  0  0  0  0  0  0  0
  1  2  1  0  0  0  0
  1  5  2  0  0  0  0
  2  6  2  0  0  0  0
  3  8  2  0  0  0  0
  3 17  1  0  0  0  0
  4  9  1  0  0  0  0
  4 17  2  0  0  0  0
  5 19  1  0  0  0  0
  6 21  1  0  0  0  0
  7 10  2  0  0  0  0
  7 20  1  0  0  0  0
  8 26  1  0  0  0  0
  9 26  2  0  0  0  0
 10 27  1  0  0  0  0
 11 12  2  0  0  0  0
 11 28  1  0  0  0  0
 12 29  1  0  0  0  0
 13 22  1  0  0  0  0
 13 27  2  0  0  0  0
 14 23  2  0  0  0  0
 14 24  1  0  0  0  0
 15 24  2  0  0  0  0
 15 25  1  0  0  0  0
 16 29  2  0  0  0  0
 16 30  1  0  0  0  0
 17 32  1  0  0  0  0
 18 32  1  0  0  0  0
 18 33  2  0  0  0  0
 18 35  1  0  0  0  0
 19 21  2  0  0  0  0
 19 40  1  0  0  0  0
 20 22  2  0  0  0  0
 20 41  1  0  0  0  0
 21 50  1  0  0  0  0
 22 42  1  0  0  0  0
 23 31  1  0  0  0  0
 23 55  1  0  0  0  0
 24 68  1  0  0  0  0
 25 31  2  0  0  0  0
 25 73  1  0  0  0  0
 26 83  1  0  0  0  0
 27 84  1  0  0  0  0
 28 30  2  0  0  0  0
 28 83  1  0  0  0  0
 29 85  1  0  0  0  0
 30 86  1  0  0  0  0
 31 87  1  0  0  0  0
 32 66  2  0  0  0  0
 33 67  1  0  0  0  0
 33 71  1  0  0  0  0
 34 51  1  0  0  0  0
 34 68  1  0  0  0  0
 34 77  2  0  0  0  0
 35 72  1  0  0  0  0
 35 78  2  0  0  0  0
 36 52  1  0  0  0  0
 36 74  1  0  0  0  0
 36 79  2  0  0  0  0
 37 63  1  0  0  0  0
 37 69  1  0  0  0  0
 37 80  2  0  0  0  0
 38 64  1  0  0  0  0
 38 75  1  0  0  0  0
 38 81  2  0  0  0  0
 39 70  1  0  0  0  0
 39 73  1  0  0  0  0
 39 82  2  0  0  0  0
 40 43  1  0  0  0  0
 41 52  1  0  0  0  0
 42 69  1  0  0  0  0
 43 45  1  0  0  0  0
 44 46  1  0  0  0  0
 44 47  1  0  0  0  0
 45 50  1  0  0  0  0
 46 54  1  0  0  0  0
 47 70  1  0  0  0  0
 48 53  1  0  0  0  0
 48 68  1  0  0  0  0
 49 54  1  0  0  0  0
 49 70  1  0  0  0  0
 50 74  1  0  0  0  0
 51 53  1  0  0  0  0
 51 56  1  0  0  0  0
 52 69  1  0  0  0  0
 53 62  1  0  0  0  0
 54 67  1  0  0  0  0
 57 64  1  0  0  0  0
 58 65  1  0  0  0  0
 59 65  1  0  0  0  0
 60 65  1  0  0  0  0
 61 76  1  0  0  0  0
 62 84  1  0  0  0  0
 63 65  1  0  0  0  0
 63 75  1  0  0  0  0
 64 76  1  0  0  0  0
 66 67  1  0  0  0  0
M  CHG  1  76   1
M  ISO  4  39 100  62 101  73 100  84 101
M  END
> <Batch ID>
0064

> <Smiles>
CNC(C)C(=O)NC(C(=O)N1Cc2cc([101O:1][101CH2:1]C3CN(c4cc(C)c(F)c([100NH:0][100C:0](=O)N5CCCC(n6nc(-c7ccc(Oc8ccc(F)cc8F)cc7)c(C(N)=O)c6N)C5)c4)C(=O)C3C)ccc2CC1C(=O)NC1CCCc2ccccc21)C(C)(C)C

> <Shape>
0.253

> <Color>
0.097

> <Negative vol penalty>
0.000

$$$$

  -OEChem-04042323153D

 86 95  0     1  0  0  0  0  0999 V2000
  -27.0823  -37.8233   24.4877 C   0  0  0  0  0  0  0  0  0  0  0  0
  -27.7219  -37.0343   23.5370 C   0  0  0  0  0  0  0  0  0  0  0  0
  -22.3757  -11.8247   21.9568 C   0  0  0  0  0  0  0  0  0  0  0  0
  -22.1249  -13.8808   20.7133 C   0  0  0  0  0  0  0  0  0  0  0  0
  -26.3168  -37.2250   25.4876 C   0  0  0  0  0  0  0  0  0  0  0  0
  -27.5972  -35.6464   23.5863 C   0  0  0  0  0  0  0  0  0  0  0  0
  -27.3152  -29.9106   19.3041 C   0  0  0  0  0  0  0  0  0  0  0  0
  -26.9165  -20.0863   16.3945 C   0  0  0  0  0  0  0  0  0  0  0  0
  -27.0962  -18.9149   17.1300 C   0  0  0  0  0  0  0  0  0  0  0  0
  -21.0278  -11.8753   22.3123 C   0  0  0  0  0  0  0  0  0  0  0  0
  -20.7771  -13.9314   21.0687 C   0  0  0  0  0  0  0  0  0  0  0  0
  -27.9183  -28.6657   19.1301 C   0  0  0  0  0  0  0  0  0  0  0  0
  -19.1030  -13.5197   24.5517 C   0  0  0  0  0  0  0  0  0  0  0  0
  -18.7740  -13.2583   25.8818 C   0  0  0  0  0  0  0  0  0  0  0  0
  -26.5054  -27.7467   20.8559 C   0  0  0  0  0  0  0  0  0  0  0  0
  -28.5233  -20.1038   18.6749 C   0  0  0  0  0  0  0  0  0  0  0  0
  -17.4094  -11.3931   25.1777 C   0  0  0  0  0  0  0  0  0  0  0  0
  -22.9243  -12.8275   21.1573 C   0  0  0  0  0  0  0  0  0  0  0  0
  -24.9681  -11.7591   20.0670 C   0  0  0  0  0  0  0  0  0  0  0  0
  -26.1748  -35.8296   25.5436 C   0  0  0  0  0  0  0  0  0  0  0  0
  -26.3086  -30.0858   20.2645 C   0  0  0  0  0  0  0  0  0  0  0  0
  -26.8301  -35.0288   24.5888 C   0  0  0  0  0  0  0  0  0  0  0  0
  -25.8893  -28.9942   21.0384 C   0  0  0  0  0  0  0  0  0  0  0  0
  -27.5403  -21.2665   16.7991 C   0  0  0  0  0  0  0  0  0  0  0  0
  -28.3437  -21.2752   17.9394 C   0  0  0  0  0  0  0  0  0  0  0  0
  -27.8996  -18.9236   18.2702 C   0  0  0  0  0  0  0  0  0  0  0  0
  -20.2285  -12.9286   21.8682 C   0  0  0  0  0  0  0  0  0  0  0  0
  -27.5154  -27.5842   19.9081 C   0  0  0  0  0  0  0  0  0  0  0  0
  -18.5851  -12.7179   23.5346 C   0  0  0  0  0  0  0  0  0  0  0  0
  -17.9272  -12.1950   26.1948 C   0  0  0  0  0  0  0  0  0  0  0  0
  -17.7383  -11.6545   23.8476 C   0  0  0  0  0  0  0  0  0  0  0  0
  -24.3166  -12.7761   20.7903 C   0  0  0  0  0  0  0  0  0  0  0  0
  -26.2730  -12.1794   19.9830 C   0  0  0  0  0  0  0  0  0  0  0  0
  -30.3974  -22.5796   18.4811 C   0  0  0  0  0  0  0  0  0  0  0  0
  -24.4408  -10.5433   19.5198 C   0  0  0  0  0  0  0  0  0  0  0  0
  -25.9898  -31.8614   22.8816 C   0  0  0  0  0  0  0  0  0  0  0  0
  -22.9691  -30.6797   22.8438 C   0  0  0  0  0  0  0  0  0  0  0  0
  -20.8382  -28.2054   21.8519 C   0  0  0  0  0  0  0  0  0  0  0  0
  -28.8458  -17.5692   20.1720 C   0  0  0  0  0  0  0  0  0  0  0  0
  -25.3756  -35.2259   26.6712 C   0  0  0  0  0  0  0  0  0  0  0  0
  -25.6494  -31.4287   20.4214 C   0  0  0  0  0  0  0  0  0  0  0  0
  -24.7988  -29.1250   22.0689 C   0  0  0  0  0  0  0  0  0  0  0  0
  -30.8930  -23.9258   18.9657 C   0  0  0  0  0  0  0  0  0  0  0  0
  -24.9880  -33.7690   26.4312 C   0  0  0  0  0  0  0  0  0  0  0  0
  -29.5169  -14.8127   22.3234 C   0  0  0  0  0  0  0  0  0  0  0  0
  -26.1894  -32.9722   25.9326 C   0  0  0  0  0  0  0  0  0  0  0  0
  -28.3218  -13.8823   22.1040 C   0  0  0  0  0  0  0  0  0  0  0  0
  -29.1056  -16.2834   22.2825 C   0  0  0  0  0  0  0  0  0  0  0  0
  -27.1603  -15.7548   20.8664 C   0  0  0  0  0  0  0  0  0  0  0  0
  -28.1814  -23.6432   18.7594 C   0  0  0  0  0  0  0  0  0  0  0  0
  -26.6986  -33.5212   24.5944 C   0  0  1  0  0  0  0  0  0  0  0  0
  -24.9920  -31.6160   21.7853 C   0  0  1  0  0  0  0  0  0  0  0  0
  -27.5358  -14.2643   20.8344 C   0  0  2  0  0  0  0  0  0  0  0  0
  -28.4073  -24.0319   20.2217 C   0  0  2  0  0  0  0  0  0  0  0  0
  -27.3300  -22.5063   15.9919 C   0  0  0  0  0  0  0  0  0  0  0  0
  -18.4358  -27.4964   22.0039 C   0  0  0  0  0  0  0  0  0  0  0  0
  -23.4208  -29.7750   25.7226 C   0  0  0  0  0  0  0  0  0  0  0  0
  -21.4222  -28.2844   25.4942 C   0  0  0  0  0  0  0  0  0  0  0  0
  -21.1635  -30.7562   25.2794 C   0  0  0  0  0  0  0  0  0  0  0  0
  -20.4965  -28.3243   18.9145 C   0  0  0  0  0  0  0  0  0  0  0  0
  -27.6411  -25.3039   20.5717 C   0  0  0  0  0  0  0  0  0  1  0  0
  -22.2901  -29.4620   23.4227 C   0  0  1  0  0  0  0  0  0  0  0  0
  -19.4722  -28.2571   21.1916 C   0  0  2  0  0  0  0  0  0  0  0  0
  -22.0961  -29.5671   24.9617 C   0  0  0  0  0  0  0  0  0  0  0  0
  -25.1398  -13.7677   21.1410 N   0  0  0  0  0  0  0  0  0  0  0  0
  -26.3220  -13.3758   20.6360 N   0  0  0  0  0  0  0  0  0  0  0  0
  -28.9957  -22.4823   18.3729 N   0  0  0  0  0  0  0  0  0  0  0  0
  -24.1894  -30.4598   22.1894 N   0  0  0  0  0  0  0  0  0  0  0  0
  -28.3694  -16.5727   21.0499 N   0  0  0  0  0  0  0  0  0  0  0  0
  -27.3718  -11.6386   19.4152 N   0  0  0  0  0  0  0  0  0  0  0  0
  -23.9390  -10.5618   18.2114 N   0  0  0  0  0  0  0  0  0  0  0  0
  -28.0818  -17.7333   19.0170 N   0  0  0  0  0  0  0  0  0  0  0  0
  -25.8451  -33.0832   23.5108 N   0  0  0  0  0  0  0  0  0  0  0  0
  -21.0495  -29.2919   22.6742 N   0  0  0  0  0  0  0  0  0  0  0  0
  -19.5329  -27.6583   19.8283 N   0  3  0  0  0  0  0  0  0  0  0  0
  -31.2138  -21.6874   18.2497 O   0  0  0  0  0  0  0  0  0  0  0  0
  -24.4005   -9.4760   20.1777 O   0  0  0  0  0  0  0  0  0  0  0  0
  -26.8278  -31.0051   23.1388 O   0  0  0  0  0  0  0  0  0  0  0  0
  -22.4328  -31.7844   22.9615 O   0  0  0  0  0  0  0  0  0  0  0  0
  -21.6364  -27.2906   21.6604 O   0  0  0  0  0  0  0  0  0  0  0  0
  -29.8723  -18.2097   20.4130 O   0  0  0  0  0  0  0  0  0  0  0  0
  -18.9132  -12.9782   22.2147 O   0  0  0  0  0  0  0  0  0  0  0  0
  -28.1029  -26.3682   19.7407 O   0  0  0  0  0  0  0  0  0  1  0  0
  -17.6127  -11.9431   27.4722 F   0  0  0  0  0  0  0  0  0  0  0  0
  -17.2386  -10.8800   22.8748 F   0  0  0  0  0  0  0  0  0  0  0  0
  -30.1849  -24.2869   20.5943 S   0  0  0  0  0  0  0  0  0  0  0  0
  1  2  1  0  0  0  0
  1  5  2  0  0  0  0
  2  6  2  0  0  0  0
  3 10  2  0  0  0  0
  3 18  1  0  0  0  0
  4 11  1  0  0  0  0
  4 18  2  0  0  0  0
  5 20  1  0  0  0  0
  6 22  1  0  0  0  0
  7 12  2  0  0  0  0
  7 21  1  0  0  0  0
  8  9  2  0  0  0  0
  8 24  1  0  0  0  0
  9 26  1  0  0  0  0
 10 27  1  0  0  0  0
 11 27  2  0  0  0  0
 12 28  1  0  0  0  0
 13 14  2  0  0  0  0
 13 29  1  0  0  0  0
 14 30  1  0  0  0  0
 15 23  1  0  0  0  0
 15 28  2  0  0  0  0
 16 25  1  0  0  0  0
 16 26  2  0  0  0  0
 17 30  2  0  0  0  0
 17 31  1  0  0  0  0
 18 32  1  0  0  0  0
 19 32  1  0  0  0  0
 19 33  2  0  0  0  0
 19 35  1  0  0  0  0
 20 22  2  0  0  0  0
 20 40  1  0  0  0  0
 21 23  2  0  0  0  0
 21 41  1  0  0  0  0
 22 51  1  0  0  0  0
 23 42  1  0  0  0  0
 24 25  2  0  0  0  0
 24 55  1  0  0  0  0
 25 67  1  0  0  0  0
 26 72  1  0  0  0  0
 27 82  1  0  0  0  0
 28 83  1  0  0  0  0
 29 31  2  0  0  0  0
 29 82  1  0  0  0  0
 30 84  1  0  0  0  0
 31 85  1  0  0  0  0
 32 65  2  0  0  0  0
 33 66  1  0  0  0  0
 33 70  1  0  0  0  0
 34 43  1  0  0  0  0
 34 67  1  0  0  0  0
 34 76  2  0  0  0  0
 35 71  1  0  0  0  0
 35 77  2  0  0  0  0
 36 52  1  0  0  0  0
 36 73  1  0  0  0  0
 36 78  2  0  0  0  0
 37 62  1  0  0  0  0
 37 68  1  0  0  0  0
 37 79  2  0  0  0  0
 38 63  1  0  0  0  0
 38 74  1  0  0  0  0
 38 80  2  0  0  0  0
 39 69  1  0  0  0  0
 39 72  1  0  0  0  0
 39 81  2  0  0  0  0
 40 44  1  0  0  0  0
 41 52  1  0  0  0  0
 42 68  1  0  0  0  0
 43 86  1  0  0  0  0
 44 46  1  0  0  0  0
 45 47  1  0  0  0  0
 45 48  1  0  0  0  0
 46 51  1  0  0  0  0
 47 53  1  0  0  0  0
 48 69  1  0  0  0  0
 49 53  1  0  0  0  0
 49 69  1  0  0  0  0
 50 54  1  0  0  0  0
 50 67  1  0  0  0  0
 51 73  1  0  0  0  0
 52 68  1  0  0  0  0
 53 66  1  0  0  0  0
 54 61  1  0  0  0  0
 54 86  1  0  0  0  0
 56 63  1  0  0  0  0
 57 64  1  0  0  0  0
 58 64  1  0  0  0  0
 59 64  1  0  0  0  0
 60 75  1  0  0  0  0
 61 83  1  0  0  0  0
 62 64  1  0  0  0  0
 62 74  1  0  0  0  0
 63 75  1  0  0  0  0
 65 66  1  0  0  0  0
M  CHG  1  75   1
M  ISO  4  39 100  61 101  72 100  83 101
M  END
> <Batch ID>
0064

> <Smiles>
CNC(C)C(=O)NC(C(=O)N1Cc2cc([101O:1][101CH2:1]C3CN(c4cc([100NH:0][100C:0](=O)N5CCCC(n6nc(-c7ccc(Oc8ccc(F)cc8F)cc7)c(C(N)=O)c6N)C5)ccc4C)C(=O)CS3)ccc2CC1C(=O)NC1CCCc2ccccc21)C(C)(C)C

> <Shape>
0.307

> <Color>
0.087

> <Negative vol penalty>
0.000

$$$$

  -OEChem-04042323153D

 86 95  0     1  0  0  0  0  0999 V2000
  -26.6016  -31.1172   28.8920 C   0  0  0  0  0  0  0  0  0  0  0  0
  -27.1463  -30.5282   27.7554 C   0  0  0  0  0  0  0  0  0  0  0  0
  -26.3990  -12.6485   21.4692 C   0  0  0  0  0  0  0  0  0  0  0  0
  -26.3424  -13.0694   19.0908 C   0  0  0  0  0  0  0  0  0  0  0  0
  -25.2203  -31.1186   29.0812 C   0  0  0  0  0  0  0  0  0  0  0  0
  -26.3099  -29.9392   26.8078 C   0  0  0  0  0  0  0  0  0  0  0  0
  -27.1340  -29.8138   20.7406 C   0  0  0  0  0  0  0  0  0  0  0  0
  -25.1166  -12.1039   21.4034 C   0  0  0  0  0  0  0  0  0  0  0  0
  -25.0600  -12.5247   19.0250 C   0  0  0  0  0  0  0  0  0  0  0  0
  -27.6453  -28.8404   19.8834 C   0  0  0  0  0  0  0  0  0  0  0  0
  -23.6962   -9.1824   20.4651 C   0  0  0  0  0  0  0  0  0  0  0  0
  -23.4641   -7.9866   21.1446 C   0  0  0  0  0  0  0  0  0  0  0  0
  -25.4029  -28.0866   19.4116 C   0  0  0  0  0  0  0  0  0  0  0  0
  -29.2766  -21.9298   14.9303 C   0  0  0  0  0  0  0  0  0  0  0  0
  -29.6941  -19.7398   15.8609 C   0  0  0  0  0  0  0  0  0  0  0  0
  -29.4562  -26.0679   15.9136 C   0  0  0  0  0  0  0  0  0  0  0  0
  -29.8158  -21.6958   17.2737 C   0  0  0  0  0  0  0  0  0  0  0  0
  -21.7690   -9.0740   22.4792 C   0  0  0  0  0  0  0  0  0  0  0  0
  -27.0119  -13.1313   20.3130 C   0  0  0  0  0  0  0  0  0  0  0  0
  -29.5588  -13.0126   20.2305 C   0  0  0  0  0  0  0  0  0  0  0  0
  -24.3659  -30.5378   28.1308 C   0  0  0  0  0  0  0  0  0  0  0  0
  -25.7516  -29.9240   20.9485 C   0  0  0  0  0  0  0  0  0  0  0  0
  -24.9159  -29.9315   26.9852 C   0  0  0  0  0  0  0  0  0  0  0  0
  -24.8764  -29.0639   20.2700 C   0  0  0  0  0  0  0  0  0  0  0  0
  -29.3753  -20.5478   14.7695 C   0  0  0  0  0  0  0  0  0  0  0  0
  -29.0397  -25.8830   17.2550 C   0  0  0  0  0  0  0  0  0  0  0  0
  -29.4969  -22.5039   16.1824 C   0  0  0  0  0  0  0  0  0  0  0  0
  -29.9143  -20.3138   17.1130 C   0  0  0  0  0  0  0  0  0  0  0  0
  -24.4471  -12.0419   20.1813 C   0  0  0  0  0  0  0  0  0  0  0  0
  -26.7800  -27.9748   19.2209 C   0  0  0  0  0  0  0  0  0  0  0  0
  -22.9647  -10.3240   20.7927 C   0  0  0  0  0  0  0  0  0  0  0  0
  -22.5005   -7.9323   22.1516 C   0  0  0  0  0  0  0  0  0  0  0  0
  -22.0011  -10.2698   21.7997 C   0  0  0  0  0  0  0  0  0  0  0  0
  -28.3364  -13.6946   20.3804 C   0  0  0  0  0  0  0  0  0  0  0  0
  -30.5158  -13.9866   20.3792 C   0  0  0  0  0  0  0  0  0  0  0  0
  -29.6708  -24.8191   15.3736 C   0  0  0  0  0  0  0  0  0  0  0  0
  -29.0126  -24.5266   17.4939 C   0  0  0  0  0  0  0  0  0  0  0  0
  -29.8071  -11.6231   19.9792 C   0  0  0  0  0  0  0  0  0  0  0  0
  -23.8317  -29.6352   23.4653 C   0  0  0  0  0  0  0  0  0  0  0  0
  -21.5736  -30.6489   21.3687 C   0  0  0  0  0  0  0  0  0  0  0  0
  -20.5609  -30.9529   18.1239 C   0  0  0  0  0  0  0  0  0  0  0  0
  -30.4867  -19.9014   19.5314 C   0  0  0  0  0  0  0  0  0  0  0  0
  -22.8824  -30.5219   28.4019 C   0  0  0  0  0  0  0  0  0  0  0  0
  -25.2143  -30.9967   21.8558 C   0  0  0  0  0  0  0  0  0  0  0  0
  -23.3830  -29.1540   20.4431 C   0  0  0  0  0  0  0  0  0  0  0  0
  -22.0409  -30.2073   27.1677 C   0  0  0  0  0  0  0  0  0  0  0  0
  -31.2785  -18.1868   22.5497 C   0  0  0  0  0  0  0  0  0  0  0  0
  -22.6187  -29.0108   26.4185 C   0  0  0  0  0  0  0  0  0  0  0  0
  -30.7305  -16.7764   22.3199 C   0  0  0  0  0  0  0  0  0  0  0  0
  -30.3786  -19.2532   21.9279 C   0  0  0  0  0  0  0  0  0  0  0  0
  -29.5168  -17.6393   20.2780 C   0  0  0  0  0  0  0  0  0  0  0  0
  -24.0398  -29.3043   25.9226 C   0  0  1  0  0  0  0  0  0  0  0  0
  -23.8198  -30.6844   22.3898 C   0  0  1  0  0  0  0  0  0  0  0  0
  -30.4232  -16.5270   20.8303 C   0  0  2  0  0  0  0  0  0  0  0  0
  -29.1391  -19.9340   13.4311 C   0  0  0  0  0  0  0  0  0  0  0  0
  -18.6523  -31.7901   16.7261 C   0  0  0  0  0  0  0  0  0  0  0  0
  -19.9367  -28.1909   22.1360 C   0  0  0  0  0  0  0  0  0  0  0  0
  -18.5499  -28.5601   20.0845 C   0  0  0  0  0  0  0  0  0  0  0  0
  -18.6053  -30.2922   21.8788 C   0  0  0  0  0  0  0  0  0  0  0  0
  -22.2859  -32.9183   16.7380 C   0  0  0  0  0  0  0  0  0  0  0  0
  -28.6942  -26.9684   18.2316 C   0  0  0  0  0  0  0  0  0  1  0  0
  -20.6321  -29.9726   20.4017 C   0  0  1  0  0  0  0  0  0  0  0  0
  -19.9961  -32.1312   17.3511 C   0  0  2  0  0  0  0  0  0  0  0  0
  -19.4592  -29.2507   21.1233 C   0  0  0  0  0  0  0  0  0  0  0  0
  -28.4991  -15.0007   20.6072 N   0  0  0  0  0  0  0  0  0  0  0  0
  -29.3984  -23.8899   16.3434 N   0  0  0  0  0  0  0  0  0  0  0  0
  -29.8350  -15.1474   20.6009 N   0  0  0  0  0  0  0  0  0  0  0  0
  -22.9067  -30.2152   21.3456 N   0  0  0  0  0  0  0  0  0  0  0  0
  -30.1343  -18.9535   20.5153 N   0  0  0  0  0  0  0  0  0  0  0  0
  -31.8649  -13.9547   20.3408 N   0  0  0  0  0  0  0  0  0  0  0  0
  -28.7097  -10.7604   19.8534 N   0  0  0  0  0  0  0  0  0  0  0  0
  -30.2378  -19.4927   18.2216 N   0  0  0  0  0  0  0  0  0  0  0  0
  -24.0005  -30.1390   24.7409 N   0  0  0  0  0  0  0  0  0  0  0  0
  -20.2099  -31.0006   19.4565 N   0  0  0  0  0  0  0  0  0  0  0  0
  -20.9317  -32.5336   16.2633 N   0  3  0  0  0  0  0  0  0  0  0  0
  -30.9681  -11.1573   19.8857 O   0  0  0  0  0  0  0  0  0  0  0  0
  -23.6961  -28.4560   23.1606 O   0  0  0  0  0  0  0  0  0  0  0  0
  -21.1436  -31.5345   22.1120 O   0  0  0  0  0  0  0  0  0  0  0  0
  -21.2420  -30.0758   17.5972 O   0  0  0  0  0  0  0  0  0  0  0  0
  -30.9987  -20.9842   19.8273 O   0  0  0  0  0  0  0  0  0  0  0  0
  -30.0671  -24.4638   14.1573 O   0  0  0  0  0  0  0  0  0  0  0  0
  -28.6933  -23.8479   18.5900 O   0  0  0  0  0  0  0  0  0  0  0  0
  -23.1958  -11.5103   20.1166 O   0  0  0  0  0  0  0  0  0  0  0  0
  -27.2764  -27.0234   18.3842 O   0  0  0  0  0  0  0  0  0  1  0  0
  -22.2766   -6.7835   22.8030 F   0  0  0  0  0  0  0  0  0  0  0  0
  -21.2944  -11.3630   22.1180 F   0  0  0  0  0  0  0  0  0  0  0  0
  1  2  1  0  0  0  0
  1  5  2  0  0  0  0
  2  6  2  0  0  0  0
  3  8  2  0  0  0  0
  3 19  1  0  0  0  0
  4  9  1  0  0  0  0
  4 19  2  0  0  0  0
  5 21  1  0  0  0  0
  6 23  1  0  0  0  0
  7 10  2  0  0  0  0
  7 22  1  0  0  0  0
  8 29  1  0  0  0  0
  9 29  2  0  0  0  0
 10 30  1  0  0  0  0
 11 12  2  0  0  0  0
 11 31  1  0  0  0  0
 12 32  1  0  0  0  0
 13 24  1  0  0  0  0
 13 30  2  0  0  0  0
 14 25  2  0  0  0  0
 14 27  1  0  0  0  0
 15 25  1  0  0  0  0
 15 28  2  0  0  0  0
 16 26  1  0  0  0  0
 16 36  2  0  0  0  0
 17 27  2  0  0  0  0
 17 28  1  0  0  0  0
 18 32  2  0  0  0  0
 18 33  1  0  0  0  0
 19 34  1  0  0  0  0
 20 34  1  0  0  0  0
 20 35  2  0  0  0  0
 20 38  1  0  0  0  0
 21 23  2  0  0  0  0
 21 43  1  0  0  0  0
 22 24  2  0  0  0  0
 22 44  1  0  0  0  0
 23 52  1  0  0  0  0
 24 45  1  0  0  0  0
 25 55  1  0  0  0  0
 26 37  2  0  0  0  0
 26 61  1  0  0  0  0
 27 66  1  0  0  0  0
 28 72  1  0  0  0  0
 29 83  1  0  0  0  0
 30 84  1  0  0  0  0
 31 33  2  0  0  0  0
 31 83  1  0  0  0  0
 32 85  1  0  0  0  0
 33 86  1  0  0  0  0
 34 65  2  0  0  0  0
 35 67  1  0  0  0  0
 35 70  1  0  0  0  0
 36 66  1  0  0  0  0
 36 81  1  0  0  0  0
 37 66  1  0  0  0  0
 37 82  1  0  0  0  0
 38 71  1  0  0  0  0
 38 76  2  0  0  0  0
 39 53  1  0  0  0  0
 39 73  1  0  0  0  0
 39 77  2  0  0  0  0
 40 62  1  0  0  0  0
 40 68  1  0  0  0  0
 40 78  2  0  0  0  0
 41 63  1  0  0  0  0
 41 74  1  0  0  0  0
 41 79  2  0  0  0  0
 42 69  1  0  0  0  0
 42 72  1  0  0  0  0
 42 80  2  0  0  0  0
 43 46  1  0  0  0  0
 44 53  1  0  0  0  0
 45 68  1  0  0  0  0
 46 48  1  0  0  0  0
 47 49  1  0  0  0  0
 47 50  1  0  0  0  0
 48 52  1  0  0  0  0
 49 54  1  0  0  0  0
 50 69  1  0  0  0  0
 51 54  1  0  0  0  0
 51 69  1  0  0  0  0
 52 73  1  0  0  0  0
 53 68  1  0  0  0  0
 54 67  1  0  0  0  0
 56 63  1  0  0  0  0
 57 64  1  0  0  0  0
 58 64  1  0  0  0  0
 59 64  1  0  0  0  0
 60 75  1  0  0  0  0
 61 84  1  0  0  0  0
 62 64  1  0  0  0  0
 62 74  1  0  0  0  0
 63 75  1  0  0  0  0
 65 67  1  0  0  0  0
M  CHG  1  75   1
M  ISO  4  42 100  61 101  72 100  84 101
M  END
> <Batch ID>
0064

> <Smiles>
CNC(C)C(=O)NC(C(=O)N1Cc2cc([101O:1][101CH2:1]C3CC(=O)N(c4cc(C)cc([100NH:0][100C:0](=O)N5CCCC(n6nc(-c7ccc(Oc8ccc(F)cc8F)cc7)c(C(N)=O)c6N)C5)c4)C3=O)ccc2CC1C(=O)NC1CCCc2ccccc21)C(C)(C)C

> <Shape>
0.268

> <Color>
0.086

> <Negative vol penalty>
0.000

$$$$

  -OEChem-04042323153D

 85 93  0     1  0  0  0  0  0999 V2000
  -21.2077  -20.8552   21.0079 C   0  0  0  0  0  0  0  0  0  0  0  0
  -22.3038  -21.5888   20.5654 C   0  0  0  0  0  0  0  0  0  0  0  0
  -27.8365  -21.6031   14.9337 C   0  0  0  0  0  0  0  0  0  0  0  0
  -25.8996  -12.9377   21.5666 C   0  0  0  0  0  0  0  0  0  0  0  0
  -25.6512  -13.4195   19.2122 C   0  0  0  0  0  0  0  0  0  0  0  0
  -28.0992  -22.9689   15.0400 C   0  0  0  0  0  0  0  0  0  0  0  0
  -19.9571  -21.4635   21.1066 C   0  0  0  0  0  0  0  0  0  0  0  0
  -22.1496  -22.9310   20.2203 C   0  0  0  0  0  0  0  0  0  0  0  0
  -25.8355  -25.8546   22.0942 C   0  0  0  0  0  0  0  0  0  0  0  0
  -27.8064  -20.8075   16.0790 C   0  0  0  0  0  0  0  0  0  0  0  0
  -24.7656  -12.1269   21.5204 C   0  0  0  0  0  0  0  0  0  0  0  0
  -24.5171  -12.6087   19.1659 C   0  0  0  0  0  0  0  0  0  0  0  0
  -27.0631  -25.8333   21.4337 C   0  0  0  0  0  0  0  0  0  0  0  0
  -23.9793   -8.9995   20.5036 C   0  0  0  0  0  0  0  0  0  0  0  0
  -24.0433   -7.7587   21.1375 C   0  0  0  0  0  0  0  0  0  0  0  0
  -28.3017  -22.7434   17.4369 C   0  0  0  0  0  0  0  0  0  0  0  0
  -26.4952  -27.8986   20.3242 C   0  0  0  0  0  0  0  0  0  0  0  0
  -22.2099   -8.3985   22.5750 C   0  0  0  0  0  0  0  0  0  0  0  0
  -26.3424  -13.5841   20.4125 C   0  0  0  0  0  0  0  0  0  0  0  0
  -28.3318  -23.5390   16.2916 C   0  0  0  0  0  0  0  0  0  0  0  0
  -28.8478  -14.0318   20.2389 C   0  0  0  0  0  0  0  0  0  0  0  0
  -19.7895  -22.8165   20.7717 C   0  0  0  0  0  0  0  0  0  0  0  0
  -24.9225  -26.8942   21.8661 C   0  0  0  0  0  0  0  0  0  0  0  0
  -20.8953  -23.5577   20.3133 C   0  0  0  0  0  0  0  0  0  0  0  0
  -25.2578  -27.9322   20.9850 C   0  0  0  0  0  0  0  0  0  0  0  0
  -28.0390  -21.3776   17.3306 C   0  0  0  0  0  0  0  0  0  0  0  0
  -24.0744  -11.9623   20.3201 C   0  0  0  0  0  0  0  0  0  0  0  0
  -27.3919  -26.8538   20.5463 C   0  0  0  0  0  0  0  0  0  0  0  0
  -23.0307   -9.9399   20.9054 C   0  0  0  0  0  0  0  0  0  0  0  0
  -23.1586   -7.4582   22.1732 C   0  0  0  0  0  0  0  0  0  0  0  0
  -22.1460   -9.6394   21.9411 C   0  0  0  0  0  0  0  0  0  0  0  0
  -27.5134  -14.4223   20.4598 C   0  0  0  0  0  0  0  0  0  0  0  0
  -29.5743  -15.1866   20.3977 C   0  0  0  0  0  0  0  0  0  0  0  0
  -28.6114  -24.9938   16.4033 C   0  0  0  0  0  0  0  0  0  0  0  0
  -29.3828  -12.7407   19.9186 C   0  0  0  0  0  0  0  0  0  0  0  0
  -21.9704  -27.0715   20.7009 C   0  0  0  0  0  0  0  0  0  0  0  0
  -31.0925  -26.8970   18.3866 C   0  0  0  0  0  0  0  0  0  0  0  0
  -22.2236  -30.1803   21.5918 C   0  0  0  0  0  0  0  0  0  0  0  0
  -24.2466  -32.8395   22.2864 C   0  0  0  0  0  0  0  0  0  0  0  0
  -28.2172  -20.9762   19.8112 C   0  0  0  0  0  0  0  0  0  0  0  0
  -18.4086  -23.4179   20.8496 C   0  0  0  0  0  0  0  0  0  0  0  0
  -23.6135  -26.9167   22.6068 C   0  0  0  0  0  0  0  0  0  0  0  0
  -24.3210  -29.0816   20.7206 C   0  0  0  0  0  0  0  0  0  0  0  0
  -18.4065  -24.9441   20.8215 C   0  0  0  0  0  0  0  0  0  0  0  0
  -29.4924  -19.3723   22.7230 C   0  0  0  0  0  0  0  0  0  0  0  0
  -19.3225  -25.4590   19.7158 C   0  0  0  0  0  0  0  0  0  0  0  0
  -29.2566  -17.8850   22.4503 C   0  0  0  0  0  0  0  0  0  0  0  0
  -28.3555  -20.2358   22.1793 C   0  0  0  0  0  0  0  0  0  0  0  0
  -27.7978  -18.5311   20.4904 C   0  0  0  0  0  0  0  0  0  0  0  0
  -20.7732  -25.0225   19.9533 C   0  0  1  0  0  0  0  0  0  0  0  0
  -22.5465  -27.7545   21.9090 C   0  0  1  0  0  0  0  0  0  0  0  0
  -28.9480  -17.6268   20.9625 C   0  0  2  0  0  0  0  0  0  0  0  0
  -31.9480  -28.0909   18.0446 C   0  0  0  0  0  0  0  0  0  0  0  0
  -24.1626  -35.2585   22.9491 C   0  0  0  0  0  0  0  0  0  0  0  0
  -21.4343  -30.9312   18.7416 C   0  0  0  0  0  0  0  0  0  0  0  0
  -22.2789  -33.2448   19.1916 C   0  0  0  0  0  0  0  0  0  0  0  0
  -20.3751  -32.3333   20.5212 C   0  0  0  0  0  0  0  0  0  0  0  0
  -25.7187  -32.3217   24.8011 C   0  0  0  0  0  0  0  0  0  0  0  0
  -28.6388  -27.4377   18.6072 C   0  0  0  0  0  0  0  0  0  1  0  0
  -29.7081  -26.7622   17.7545 C   0  0  2  0  0  0  0  0  0  0  0  0
  -22.7076  -31.4467   20.9277 C   0  0  1  0  0  0  0  0  0  0  0  0
  -24.2560  -33.8231   23.4427 C   0  0  2  0  0  0  0  0  0  0  0  0
  -21.7161  -31.9664   19.8488 C   0  0  0  0  0  0  0  0  0  0  0  0
  -27.3962  -15.7234   20.7379 N   0  0  0  0  0  0  0  0  0  0  0  0
  -28.6663  -16.1605   20.6929 N   0  0  0  0  0  0  0  0  0  0  0  0
  -23.0506  -29.0553   21.4642 N   0  0  0  0  0  0  0  0  0  0  0  0
  -28.1227  -19.9398   20.7640 N   0  0  0  0  0  0  0  0  0  0  0  0
  -30.8948  -15.4537   20.3122 N   0  0  0  0  0  0  0  0  0  0  0  0
  -28.4961  -11.6626   19.7923 N   0  0  0  0  0  0  0  0  0  0  0  0
  -28.0081  -20.5692   18.4940 N   0  0  0  0  0  0  0  0  0  0  0  0
  -29.3741  -25.3867   17.4959 N   0  0  0  0  0  0  0  0  0  0  0  0
  -21.3891  -25.8472   20.9706 N   0  0  0  0  0  0  0  0  0  0  0  0
  -22.9720  -32.3962   22.0033 N   0  0  0  0  0  0  0  0  0  0  0  0
  -25.5101  -33.6792   24.2349 N   0  3  0  0  0  0  0  0  0  0  0  0
  -28.1512  -25.7597   15.5605 O   0  0  0  0  0  0  0  0  0  0  0  0
  -30.6124  -12.5454   19.7657 O   0  0  0  0  0  0  0  0  0  0  0  0
  -22.0463  -27.6157   19.6056 O   0  0  0  0  0  0  0  0  0  0  0  0
  -31.4998  -26.0539   19.1903 O   0  0  0  0  0  0  0  0  0  0  0  0
  -21.1546  -30.1908   22.2072 O   0  0  0  0  0  0  0  0  0  0  0  0
  -25.2674  -32.5014   21.6912 O   0  0  0  0  0  0  0  0  0  0  0  0
  -28.4923  -22.1339   20.1368 O   0  0  0  0  0  0  0  0  0  0  0  0
  -22.9679  -11.1710   20.2745 O   0  0  0  0  0  0  0  0  0  0  0  0
  -28.5892  -26.8351   19.8997 O   0  0  0  0  0  0  0  0  0  1  0  0
  -23.2192   -6.2660   22.7808 F   0  0  0  0  0  0  0  0  0  0  0  0
  -21.2317  -10.5383   22.3307 F   0  0  0  0  0  0  0  0  0  0  0  0
  1  2  1  0  0  0  0
  1  7  2  0  0  0  0
  2  8  2  0  0  0  0
  3  6  2  0  0  0  0
  3 10  1  0  0  0  0
  4 11  2  0  0  0  0
  4 19  1  0  0  0  0
  5 12  1  0  0  0  0
  5 19  2  0  0  0  0
  6 20  1  0  0  0  0
  7 22  1  0  0  0  0
  8 24  1  0  0  0  0
  9 13  2  0  0  0  0
  9 23  1  0  0  0  0
 10 26  2  0  0  0  0
 11 27  1  0  0  0  0
 12 27  2  0  0  0  0
 13 28  1  0  0  0  0
 14 15  2  0  0  0  0
 14 29  1  0  0  0  0
 15 30  1  0  0  0  0
 16 20  2  0  0  0  0
 16 26  1  0  0  0  0
 17 25  1  0  0  0  0
 17 28  2  0  0  0  0
 18 30  2  0  0  0  0
 18 31  1  0  0  0  0
 19 32  1  0  0  0  0
 20 34  1  0  0  0  0
 21 32  1  0  0  0  0
 21 33  2  0  0  0  0
 21 35  1  0  0  0  0
 22 24  2  0  0  0  0
 22 41  1  0  0  0  0
 23 25  2  0  0  0  0
 23 42  1  0  0  0  0
 24 50  1  0  0  0  0
 25 43  1  0  0  0  0
 26 70  1  0  0  0  0
 27 82  1  0  0  0  0
 28 83  1  0  0  0  0
 29 31  2  0  0  0  0
 29 82  1  0  0  0  0
 30 84  1  0  0  0  0
 31 85  1  0  0  0  0
 32 64  2  0  0  0  0
 33 65  1  0  0  0  0
 33 68  1  0  0  0  0
 34 71  1  0  0  0  0
 34 75  2  0  0  0  0
 35 69  1  0  0  0  0
 35 76  2  0  0  0  0
 36 51  1  0  0  0  0
 36 72  1  0  0  0  0
 36 77  2  0  0  0  0
 37 53  1  0  0  0  0
 37 60  1  0  0  0  0
 37 78  2  0  0  0  0
 38 61  1  0  0  0  0
 38 66  1  0  0  0  0
 38 79  2  0  0  0  0
 39 62  1  0  0  0  0
 39 73  1  0  0  0  0
 39 80  2  0  0  0  0
 40 67  1  0  0  0  0
 40 70  1  0  0  0  0
 40 81  2  0  0  0  0
 41 44  1  0  0  0  0
 42 51  1  0  0  0  0
 43 66  1  0  0  0  0
 44 46  1  0  0  0  0
 45 47  1  0  0  0  0
 45 48  1  0  0  0  0
 46 50  1  0  0  0  0
 47 52  1  0  0  0  0
 48 67  1  0  0  0  0
 49 52  1  0  0  0  0
 49 67  1  0  0  0  0
 50 72  1  0  0  0  0
 51 66  1  0  0  0  0
 52 65  1  0  0  0  0
 54 62  1  0  0  0  0
 55 63  1  0  0  0  0
 56 63  1  0  0  0  0
 57 63  1  0  0  0  0
 58 74  1  0  0  0  0
 59 60  1  0  0  0  0
 59 83  1  0  0  0  0
 60 71  1  0  0  0  0
 61 63  1  0  0  0  0
 61 73  1  0  0  0  0
 62 74  1  0  0  0  0
 64 65  1  0  0  0  0
M  CHG  1  74   1
M  ISO  4  40 100  59 101  70 100  83 101
M  END
> <Batch ID>
0064

> <Smiles>
CNC(C)C(=O)NC(C(=O)N1Cc2cc([101O:1][101CH2:1]C(NC(=O)c3cccc([100NH:0][100C:0](=O)N4CCCC(n5nc(-c6ccc(Oc7ccc(F)cc7F)cc6)c(C(N)=O)c5N)C4)c3)C(C)=O)ccc2CC1C(=O)NC1CCCc2ccccc21)C(C)(C)C

> <Shape>
0.268

> <Color>
0.079

> <Negative vol penalty>
0.000

$$$$

  -OEChem-04042323153D

 84 92  0     1  0  0  0  0  0999 V2000
  -30.9720  -34.8882   26.4906 C   0  0  0  0  0  0  0  0  0  0  0  0
  -31.1215  -33.8568   25.5690 C   0  0  0  0  0  0  0  0  0  0  0  0
  -24.5804   -9.2483   21.6202 C   0  0  0  0  0  0  0  0  0  0  0  0
  -24.0459  -10.8560   23.3425 C   0  0  0  0  0  0  0  0  0  0  0  0
  -29.8618  -34.9128   27.3335 C   0  0  0  0  0  0  0  0  0  0  0  0
  -30.1612  -32.8487   25.4907 C   0  0  0  0  0  0  0  0  0  0  0  0
  -28.3272  -29.8951   20.4490 C   0  0  0  0  0  0  0  0  0  0  0  0
  -28.7928  -19.9187   20.4321 C   0  0  0  0  0  0  0  0  0  0  0  0
  -24.1595   -8.2135   22.4555 C   0  0  0  0  0  0  0  0  0  0  0  0
  -23.6249   -9.8213   24.1778 C   0  0  0  0  0  0  0  0  0  0  0  0
  -28.6732  -28.6571   19.9090 C   0  0  0  0  0  0  0  0  0  0  0  0
  -21.2293   -6.8491   23.4483 C   0  0  0  0  0  0  0  0  0  0  0  0
  -20.4153   -5.8604   22.8957 C   0  0  0  0  0  0  0  0  0  0  0  0
  -28.5777  -21.2917   20.5515 C   0  0  0  0  0  0  0  0  0  0  0  0
  -26.7492  -27.6628   20.9714 C   0  0  0  0  0  0  0  0  0  0  0  0
  -26.4743  -19.6080   19.8281 C   0  0  0  0  0  0  0  0  0  0  0  0
  -22.0704   -4.1892   23.4478 C   0  0  0  0  0  0  0  0  0  0  0  0
  -24.5237  -10.5695   22.0637 C   0  0  0  0  0  0  0  0  0  0  0  0
  -24.1753  -12.3626   20.2830 C   0  0  0  0  0  0  0  0  0  0  0  0
  -28.8825  -33.9098   27.2588 C   0  0  0  0  0  0  0  0  0  0  0  0
  -27.1938  -30.0242   21.2645 C   0  0  0  0  0  0  0  0  0  0  0  0
  -29.0374  -32.8593   26.3343 C   0  0  0  0  0  0  0  0  0  0  0  0
  -26.3896  -28.9040   21.5184 C   0  0  0  0  0  0  0  0  0  0  0  0
  -26.2591  -20.9810   19.9476 C   0  0  0  0  0  0  0  0  0  0  0  0
  -27.7411  -19.0769   20.0703 C   0  0  0  0  0  0  0  0  0  0  0  0
  -23.6817   -8.5000   23.7343 C   0  0  0  0  0  0  0  0  0  0  0  0
  -27.8858  -27.5402   20.1725 C   0  0  0  0  0  0  0  0  0  0  0  0
  -22.4640   -6.5079   24.0006 C   0  0  0  0  0  0  0  0  0  0  0  0
  -20.8358   -4.5304   22.8955 C   0  0  0  0  0  0  0  0  0  0  0  0
  -22.8845   -5.1779   24.0004 C   0  0  0  0  0  0  0  0  0  0  0  0
  -27.3109  -21.8228   20.3093 C   0  0  0  0  0  0  0  0  0  0  0  0
  -24.9589  -11.6388   21.2016 C   0  0  0  0  0  0  0  0  0  0  0  0
  -25.0489  -13.2594   19.7182 C   0  0  0  0  0  0  0  0  0  0  0  0
  -22.7822  -12.2358   19.9685 C   0  0  0  0  0  0  0  0  0  0  0  0
  -26.6891  -30.8741   24.2856 C   0  0  0  0  0  0  0  0  0  0  0  0
  -23.5713  -30.6598   23.4165 C   0  0  0  0  0  0  0  0  0  0  0  0
  -21.2352  -29.3363   21.3099 C   0  0  0  0  0  0  0  0  0  0  0  0
  -29.1556  -16.9940   20.1549 C   0  0  0  0  0  0  0  0  0  0  0  0
  -27.7237  -33.9534   28.2232 C   0  0  0  0  0  0  0  0  0  0  0  0
  -26.8193  -31.3719   21.8175 C   0  0  0  0  0  0  0  0  0  0  0  0
  -25.1513  -28.9937   22.3711 C   0  0  0  0  0  0  0  0  0  0  0  0
  -26.5612  -33.0500   27.8198 C   0  0  0  0  0  0  0  0  0  0  0  0
  -30.0940  -13.5632   19.9938 C   0  0  0  0  0  0  0  0  0  0  0  0
  -27.0722  -31.6706   27.4162 C   0  0  0  0  0  0  0  0  0  0  0  0
  -28.7773  -12.8162   20.2181 C   0  0  0  0  0  0  0  0  0  0  0  0
  -30.1763  -14.8337   20.8380 C   0  0  0  0  0  0  0  0  0  0  0  0
  -27.7198  -15.0018   20.9197 C   0  0  0  0  0  0  0  0  0  0  0  0
  -28.0046  -31.7611   26.2022 C   0  0  1  0  0  0  0  0  0  0  0  0
  -25.9311  -31.2843   23.0548 C   0  0  1  0  0  0  0  0  0  0  0  0
  -27.5631  -13.7492   20.0421 C   0  0  2  0  0  0  0  0  0  0  0  0
  -24.8908  -21.5180   19.6820 C   0  0  0  0  0  0  0  0  0  0  0  0
  -18.7644  -29.3158   20.8714 C   0  0  0  0  0  0  0  0  0  0  0  0
  -27.5287  -26.2192   17.3761 C   0  0  0  0  0  0  0  0  0  0  0  0
  -23.1679  -28.7862   25.7907 C   0  0  0  0  0  0  0  0  0  0  0  0
  -20.9986  -28.0691   24.7670 C   0  0  0  0  0  0  0  0  0  0  0  0
  -21.3290  -30.4461   25.4475 C   0  0  0  0  0  0  0  0  0  0  0  0
  -21.5880  -30.4874   18.6063 C   0  0  0  0  0  0  0  0  0  0  0  0
  -27.4202  -24.1948   18.8548 C   0  0  0  0  0  0  0  0  0  0  0  0
  -22.5363  -29.5609   23.4101 C   0  0  1  0  0  0  0  0  0  0  0  0
  -20.0936  -29.9771   20.5414 C   0  0  2  0  0  0  0  0  0  0  0  0
  -27.2682  -25.7091   18.7863 C   0  0  1  0  0  0  0  0  0  1  0  0
  -22.0323  -29.2132   24.8393 C   0  0  0  0  0  0  0  0  0  0  0  0
  -26.2325  -12.0409   21.2222 N   0  0  0  0  0  0  0  0  0  0  0  0
  -26.2558  -13.0271   20.3095 N   0  0  0  0  0  0  0  0  0  0  0  0
  -24.8304  -30.3320   22.8941 N   0  0  0  0  0  0  0  0  0  0  0  0
  -28.9948  -15.6703   20.6163 N   0  0  0  0  0  0  0  0  0  0  0  0
  -24.8948  -14.2161   18.7783 N   0  0  0  0  0  0  0  0  0  0  0  0
  -22.0310  -11.2631   20.6423 N   0  0  0  0  0  0  0  0  0  0  0  0
  -27.9603  -17.6822   19.9495 N   0  0  0  0  0  0  0  0  0  0  0  0
  -27.2372  -31.9310   24.9870 N   0  0  0  0  0  0  0  0  0  0  0  0
  -21.4860  -29.9946   22.4952 N   0  0  0  0  0  0  0  0  0  0  0  0
  -20.3260  -29.8587   19.0741 N   0  3  0  0  0  0  0  0  0  0  0  0
  -22.2239  -12.9524   19.1035 O   0  0  0  0  0  0  0  0  0  0  0  0
  -26.7695  -29.6868   24.5780 O   0  0  0  0  0  0  0  0  0  0  0  0
  -23.2713  -31.7704   23.8617 O   0  0  0  0  0  0  0  0  0  0  0  0
  -21.8413  -28.3482   20.9013 O   0  0  0  0  0  0  0  0  0  0  0  0
  -30.2706  -17.4721   19.9307 O   0  0  0  0  0  0  0  0  0  0  0  0
  -25.6673  -23.7798   20.7600 O   0  0  0  0  0  0  0  0  0  0  0  0
  -28.0932  -24.0768   21.3701 O   0  0  0  0  0  0  0  0  0  0  0  0
  -23.2707   -7.4906   24.5495 O   0  0  0  0  0  0  0  0  0  0  0  0
  -28.2215  -26.3306   19.6473 O   0  0  0  0  0  0  0  0  0  1  0  0
  -20.0533   -3.5809   22.3662 F   0  0  0  0  0  0  0  0  0  0  0  0
  -24.0690   -4.8439   24.5306 F   0  0  0  0  0  0  0  0  0  0  0  0
  -27.0740  -23.5670   20.4703 S   0  0  0  0  0  0  0  0  0  0  0  0
  1  2  1  0  0  0  0
  1  5  2  0  0  0  0
  2  6  2  0  0  0  0
  3  9  2  0  0  0  0
  3 18  1  0  0  0  0
  4 10  1  0  0  0  0
  4 18  2  0  0  0  0
  5 20  1  0  0  0  0
  6 22  1  0  0  0  0
  7 11  2  0  0  0  0
  7 21  1  0  0  0  0
  8 14  2  0  0  0  0
  8 25  1  0  0  0  0
  9 26  1  0  0  0  0
 10 26  2  0  0  0  0
 11 27  1  0  0  0  0
 12 13  2  0  0  0  0
 12 28  1  0  0  0  0
 13 29  1  0  0  0  0
 14 31  1  0  0  0  0
 15 23  1  0  0  0  0
 15 27  2  0  0  0  0
 16 24  1  0  0  0  0
 16 25  2  0  0  0  0
 17 29  2  0  0  0  0
 17 30  1  0  0  0  0
 18 32  1  0  0  0  0
 19 32  1  0  0  0  0
 19 33  2  0  0  0  0
 19 34  1  0  0  0  0
 20 22  2  0  0  0  0
 20 39  1  0  0  0  0
 21 23  2  0  0  0  0
 21 40  1  0  0  0  0
 22 48  1  0  0  0  0
 23 41  1  0  0  0  0
 24 31  2  0  0  0  0
 24 51  1  0  0  0  0
 25 69  1  0  0  0  0
 26 80  1  0  0  0  0
 27 81  1  0  0  0  0
 28 30  2  0  0  0  0
 28 80  1  0  0  0  0
 29 82  1  0  0  0  0
 30 83  1  0  0  0  0
 31 84  1  0  0  0  0
 32 63  2  0  0  0  0
 33 64  1  0  0  0  0
 33 67  1  0  0  0  0
 34 68  1  0  0  0  0
 34 73  2  0  0  0  0
 35 49  1  0  0  0  0
 35 70  1  0  0  0  0
 35 74  2  0  0  0  0
 36 59  1  0  0  0  0
 36 65  1  0  0  0  0
 36 75  2  0  0  0  0
 37 60  1  0  0  0  0
 37 71  1  0  0  0  0
 37 76  2  0  0  0  0
 38 66  1  0  0  0  0
 38 69  1  0  0  0  0
 38 77  2  0  0  0  0
 39 42  1  0  0  0  0
 40 49  1  0  0  0  0
 41 65  1  0  0  0  0
 42 44  1  0  0  0  0
 43 45  1  0  0  0  0
 43 46  1  0  0  0  0
 44 48  1  0  0  0  0
 45 50  1  0  0  0  0
 46 66  1  0  0  0  0
 47 50  1  0  0  0  0
 47 66  1  0  0  0  0
 48 70  1  0  0  0  0
 49 65  1  0  0  0  0
 50 64  1  0  0  0  0
 52 60  1  0  0  0  0
 53 61  1  0  0  0  0
 54 62  1  0  0  0  0
 55 62  1  0  0  0  0
 56 62  1  0  0  0  0
 57 72  1  0  0  0  0
 58 61  1  0  0  0  0
 58 84  1  0  0  0  0
 59 62  1  0  0  0  0
 59 71  1  0  0  0  0
 60 72  1  0  0  0  0
 61 81  1  0  0  0  0
 63 64  1  0  0  0  0
 78 84  2  0  0  0  0
 79 84  2  0  0  0  0
M  CHG  1  72   1
M  ISO  4  38 100  61 101  69 100  81 101
M  END
> <Batch ID>
0064

> <Smiles>
CNC(C)C(=O)NC(C(=O)N1Cc2cc([101O:1][101CH:1](C)CS(=O)(=O)c3ccc([100NH:0][100C:0](=O)N4CCCC(n5nc(-c6ccc(Oc7ccc(F)cc7F)cc6)c(C(N)=O)c5N)C4)cc3C)ccc2CC1C(=O)NC1CCCc2ccccc21)C(C)(C)C

> <Shape>
0.295

> <Color>
0.114

> <Negative vol penalty>
0.000

$$$$

  -OEChem-04042323153D

 86 95  0     1  0  0  0  0  0999 V2000
  -29.1089  -35.9373   22.7231 C   0  0  0  0  0  0  0  0  0  0  0  0
  -29.2292  -34.5697   22.4982 C   0  0  0  0  0  0  0  0  0  0  0  0
  -26.5195  -12.1985   21.7476 C   0  0  0  0  0  0  0  0  0  0  0  0
  -26.4992  -13.0047   19.4702 C   0  0  0  0  0  0  0  0  0  0  0  0
  -28.0179  -36.4319   23.4366 C   0  0  0  0  0  0  0  0  0  0  0  0
  -28.2591  -33.6957   22.9876 C   0  0  0  0  0  0  0  0  0  0  0  0
  -26.8767  -30.2194   19.5744 C   0  0  0  0  0  0  0  0  0  0  0  0
  -30.3652  -20.6871   16.3358 C   0  0  0  0  0  0  0  0  0  0  0  0
  -30.5928  -19.6813   17.2749 C   0  0  0  0  0  0  0  0  0  0  0  0
  -25.1816  -11.8230   21.6267 C   0  0  0  0  0  0  0  0  0  0  0  0
  -25.1613  -12.6291   19.3492 C   0  0  0  0  0  0  0  0  0  0  0  0
  -27.7388  -29.1413   19.3786 C   0  0  0  0  0  0  0  0  0  0  0  0
  -23.4226   -9.2762   20.2655 C   0  0  0  0  0  0  0  0  0  0  0  0
  -23.0555   -8.0204   20.7491 C   0  0  0  0  0  0  0  0  0  0  0  0
  -26.3402  -27.7742   20.7908 C   0  0  0  0  0  0  0  0  0  0  0  0
  -31.5768  -25.6150   19.2484 C   0  0  0  0  0  0  0  0  0  0  0  0
  -30.9517  -21.3547   18.9802 C   0  0  0  0  0  0  0  0  0  0  0  0
  -21.5075   -9.0636   22.2829 C   0  0  0  0  0  0  0  0  0  0  0  0
  -27.1783  -12.7894   20.6694 C   0  0  0  0  0  0  0  0  0  0  0  0
  -29.6931  -12.3937   20.5060 C   0  0  0  0  0  0  0  0  0  0  0  0
  -27.0288  -35.5645   23.9266 C   0  0  0  0  0  0  0  0  0  0  0  0
  -25.7439  -30.0859   20.3901 C   0  0  0  0  0  0  0  0  0  0  0  0
  -27.1545  -34.1791   23.7094 C   0  0  0  0  0  0  0  0  0  0  0  0
  -25.4640  -28.8514   20.9933 C   0  0  0  0  0  0  0  0  0  0  0  0
  -30.4309  -22.0268   16.7188 C   0  0  0  0  0  0  0  0  0  0  0  0
  -30.2284  -25.8052   18.8574 C   0  0  0  0  0  0  0  0  0  0  0  0
  -30.7241  -22.3606   18.0410 C   0  0  0  0  0  0  0  0  0  0  0  0
  -30.8860  -20.0150   18.5971 C   0  0  0  0  0  0  0  0  0  0  0  0
  -24.5025  -12.0382   20.4274 C   0  0  0  0  0  0  0  0  0  0  0  0
  -27.4722  -27.9193   19.9891 C   0  0  0  0  0  0  0  0  0  0  0  0
  -22.8322  -10.4257   20.7907 C   0  0  0  0  0  0  0  0  0  0  0  0
  -22.0979   -7.9141   21.7578 C   0  0  0  0  0  0  0  0  0  0  0  0
  -21.8746  -10.3194   21.7993 C   0  0  0  0  0  0  0  0  0  0  0  0
  -28.5602  -13.1781   20.7940 C   0  0  0  0  0  0  0  0  0  0  0  0
  -30.7587  -13.2139   20.7860 C   0  0  0  0  0  0  0  0  0  0  0  0
  -31.9010  -24.3030   18.9824 C   0  0  0  0  0  0  0  0  0  0  0  0
  -29.7697  -24.6035   18.3647 C   0  0  0  0  0  0  0  0  0  0  0  0
  -29.7750  -11.0444   20.0281 C   0  0  0  0  0  0  0  0  0  0  0  0
  -24.7448  -31.4490   23.0821 C   0  0  0  0  0  0  0  0  0  0  0  0
  -22.0588  -29.7263   22.4992 C   0  0  0  0  0  0  0  0  0  0  0  0
  -20.6203  -27.0249   20.9893 C   0  0  0  0  0  0  0  0  0  0  0  0
  -31.4198  -19.1514   20.9027 C   0  0  0  0  0  0  0  0  0  0  0  0
  -25.8922  -36.1412   24.7329 C   0  0  0  0  0  0  0  0  0  0  0  0
  -24.8094  -31.2508   20.5697 C   0  0  0  0  0  0  0  0  0  0  0  0
  -24.2501  -28.6504   21.8619 C   0  0  0  0  0  0  0  0  0  0  0  0
  -24.7135  -35.1847   24.8948 C   0  0  0  0  0  0  0  0  0  0  0  0
  -32.0218  -16.8887   23.5850 C   0  0  0  0  0  0  0  0  0  0  0  0
  -25.2039  -33.7950   25.2885 C   0  0  0  0  0  0  0  0  0  0  0  0
  -31.3107  -15.6071   23.1447 C   0  0  0  0  0  0  0  0  0  0  0  0
  -31.2499  -18.1384   23.1654 C   0  0  0  0  0  0  0  0  0  0  0  0
  -30.1951  -16.9246   21.2990 C   0  0  0  0  0  0  0  0  0  0  0  0
  -26.1099  -33.2016   24.2028 C   0  0  1  0  0  0  0  0  0  0  0  0
  -23.9630  -31.1482   21.8348 C   0  0  1  0  0  0  0  0  0  0  0  0
  -30.9677  -15.6405   21.6424 C   0  0  2  0  0  0  0  0  0  0  0  0
  -30.1817  -23.0800   15.6876 C   0  0  0  0  0  0  0  0  0  0  0  0
  -18.4141  -25.8583   20.7260 C   0  0  0  0  0  0  0  0  0  0  0  0
  -22.3240  -28.5932   25.3198 C   0  0  0  0  0  0  0  0  0  0  0  0
  -20.7173  -26.7864   24.6700 C   0  0  0  0  0  0  0  0  0  0  0  0
  -19.9868  -29.1714   24.6433 C   0  0  0  0  0  0  0  0  0  0  0  0
  -20.6301  -27.4198   18.0563 C   0  0  0  0  0  0  0  0  0  0  0  0
  -29.4483  -27.0824   18.9641 C   0  0  0  0  0  0  0  0  0  1  0  0
  -21.5769  -28.3422   22.8612 C   0  0  1  0  0  0  0  0  0  0  0  0
  -19.3658  -26.8924   20.1448 C   0  0  2  0  0  0  0  0  0  0  0  0
  -21.1753  -28.2273   24.3589 C   0  0  0  0  0  0  0  0  0  0  0  0
  -28.8764  -14.4024   21.2240 N   0  0  0  0  0  0  0  0  0  0  0  0
  -30.7948  -23.6976   18.4458 N   0  0  0  0  0  0  0  0  0  0  0  0
  -30.2202  -14.3936   21.2085 N   0  0  0  0  0  0  0  0  0  0  0  0
  -23.3701  -29.8211   22.0121 N   0  0  0  0  0  0  0  0  0  0  0  0
  -30.9641  -18.1028   21.7295 N   0  0  0  0  0  0  0  0  0  0  0  0
  -32.0944  -13.0338   20.7095 N   0  0  0  0  0  0  0  0  0  0  0  0
  -28.5832  -10.3457   19.7922 N   0  0  0  0  0  0  0  0  0  0  0  0
  -31.1171  -18.9928   19.5507 N   0  0  0  0  0  0  0  0  0  0  0  0
  -25.3171  -32.7067   23.0978 N   0  0  0  0  0  0  0  0  0  0  0  0
  -20.5005  -28.0277   21.9281 N   0  0  0  0  0  0  0  0  0  0  0  0
  -19.7171  -26.4800   18.7565 N   0  3  0  0  0  0  0  0  0  0  0  0
  -30.8727  -10.4697   19.8322 O   0  0  0  0  0  0  0  0  0  0  0  0
  -24.8218  -30.6033   23.9656 O   0  0  0  0  0  0  0  0  0  0  0  0
  -21.2973  -30.6869   22.6367 O   0  0  0  0  0  0  0  0  0  0  0  0
  -21.6063  -26.3078   20.8344 O   0  0  0  0  0  0  0  0  0  0  0  0
  -32.0570  -20.1054   21.3564 O   0  0  0  0  0  0  0  0  0  0  0  0
  -33.0372  -23.6422   19.1697 O   0  0  0  0  0  0  0  0  0  0  0  0
  -28.5807  -24.2654   17.8786 O   0  0  0  0  0  0  0  0  0  0  0  0
  -23.1971  -11.6717   20.3090 O   0  0  0  0  0  0  0  0  0  0  0  0
  -28.3124  -26.8656   19.8002 O   0  0  0  0  0  0  0  0  0  1  0  0
  -21.7444   -6.7081   22.2210 F   0  0  0  0  0  0  0  0  0  0  0  0
  -21.3030  -11.4201   22.3069 F   0  0  0  0  0  0  0  0  0  0  0  0
  1  2  1  0  0  0  0
  1  5  2  0  0  0  0
  2  6  2  0  0  0  0
  3 10  2  0  0  0  0
  3 19  1  0  0  0  0
  4 11  1  0  0  0  0
  4 19  2  0  0  0  0
  5 21  1  0  0  0  0
  6 23  1  0  0  0  0
  7 12  2  0  0  0  0
  7 22  1  0  0  0  0
  8  9  2  0  0  0  0
  8 25  1  0  0  0  0
  9 28  1  0  0  0  0
 10 29  1  0  0  0  0
 11 29  2  0  0  0  0
 12 30  1  0  0  0  0
 13 14  2  0  0  0  0
 13 31  1  0  0  0  0
 14 32  1  0  0  0  0
 15 24  1  0  0  0  0
 15 30  2  0  0  0  0
 16 26  1  0  0  0  0
 16 36  2  0  0  0  0
 17 27  1  0  0  0  0
 17 28  2  0  0  0  0
 18 32  2  0  0  0  0
 18 33  1  0  0  0  0
 19 34  1  0  0  0  0
 20 34  1  0  0  0  0
 20 35  2  0  0  0  0
 20 38  1  0  0  0  0
 21 23  2  0  0  0  0
 21 43  1  0  0  0  0
 22 24  2  0  0  0  0
 22 44  1  0  0  0  0
 23 52  1  0  0  0  0
 24 45  1  0  0  0  0
 25 27  2  0  0  0  0
 25 55  1  0  0  0  0
 26 37  2  0  0  0  0
 26 61  1  0  0  0  0
 27 66  1  0  0  0  0
 28 72  1  0  0  0  0
 29 83  1  0  0  0  0
 30 84  1  0  0  0  0
 31 33  2  0  0  0  0
 31 83  1  0  0  0  0
 32 85  1  0  0  0  0
 33 86  1  0  0  0  0
 34 65  2  0  0  0  0
 35 67  1  0  0  0  0
 35 70  1  0  0  0  0
 36 66  1  0  0  0  0
 36 81  1  0  0  0  0
 37 66  1  0  0  0  0
 37 82  1  0  0  0  0
 38 71  1  0  0  0  0
 38 76  2  0  0  0  0
 39 53  1  0  0  0  0
 39 73  1  0  0  0  0
 39 77  2  0  0  0  0
 40 62  1  0  0  0  0
 40 68  1  0  0  0  0
 40 78  2  0  0  0  0
 41 63  1  0  0  0  0
 41 74  1  0  0  0  0
 41 79  2  0  0  0  0
 42 69  1  0  0  0  0
 42 72  1  0  0  0  0
 42 80  2  0  0  0  0
 43 46  1  0  0  0  0
 44 53  1  0  0  0  0
 45 68  1  0  0  0  0
 46 48  1  0  0  0  0
 47 49  1  0  0  0  0
 47 50  1  0  0  0  0
 48 52  1  0  0  0  0
 49 54  1  0  0  0  0
 50 69  1  0  0  0  0
 51 54  1  0  0  0  0
 51 69  1  0  0  0  0
 52 73  1  0  0  0  0
 53 68  1  0  0  0  0
 54 67  1  0  0  0  0
 56 63  1  0  0  0  0
 57 64  1  0  0  0  0
 58 64  1  0  0  0  0
 59 64  1  0  0  0  0
 60 75  1  0  0  0  0
 61 84  1  0  0  0  0
 62 64  1  0  0  0  0
 62 74  1  0  0  0  0
 63 75  1  0  0  0  0
 65 67  1  0  0  0  0
M  CHG  1  75   1
M  ISO  4  42 100  61 101  72 100  84 101
M  END
> <Batch ID>
0064

> <Smiles>
CNC(C)C(=O)NC(C(=O)N1Cc2cc([101O:1][101CH2:1]C3CC(=O)N(c4cc([100NH:0][100C:0](=O)N5CCCC(n6nc(-c7ccc(Oc8ccc(F)cc8F)cc7)c(C(N)=O)c6N)C5)ccc4C)C3=O)ccc2CC1C(=O)NC1CCCc2ccccc21)C(C)(C)C

> <Shape>
0.357

> <Color>
0.070

> <Negative vol penalty>
0.000

$$$$

  -OEChem-04042323153D

 88 97  0     1  0  0  0  0  0999 V2000
  -17.1338  -29.8571   24.6122 C   0  0  0  0  0  0  0  0  0  0  0  0
  -17.3259  -28.5516   24.1714 C   0  0  0  0  0  0  0  0  0  0  0  0
  -23.8499  -13.9108   20.2854 C   0  0  0  0  0  0  0  0  0  0  0  0
  -26.2114  -14.0748   20.7690 C   0  0  0  0  0  0  0  0  0  0  0  0
  -17.7987  -30.9089   23.9833 C   0  0  0  0  0  0  0  0  0  0  0  0
  -18.1821  -28.2973   23.1006 C   0  0  0  0  0  0  0  0  0  0  0  0
  -23.8676  -23.9383   23.8532 C   0  0  0  0  0  0  0  0  0  0  0  0
  -31.1694  -23.5645   18.3122 C   0  0  0  0  0  0  0  0  0  0  0  0
  -29.8970  -23.0039   18.2019 C   0  0  0  0  0  0  0  0  0  0  0  0
  -23.9776  -12.5306   20.1299 C   0  0  0  0  0  0  0  0  0  0  0  0
  -26.3390  -12.6945   20.6135 C   0  0  0  0  0  0  0  0  0  0  0  0
  -24.8540  -22.9518   23.8603 C   0  0  0  0  0  0  0  0  0  0  0  0
  -23.6122   -8.9177   19.9603 C   0  0  0  0  0  0  0  0  0  0  0  0
  -22.6509   -8.1057   20.5619 C   0  0  0  0  0  0  0  0  0  0  0  0
  -25.4199  -23.4862   21.5708 C   0  0  0  0  0  0  0  0  0  0  0  0
  -31.3597  -22.6911   20.5568 C   0  0  0  0  0  0  0  0  0  0  0  0
  -23.2520   -8.9970   22.7255 C   0  0  0  0  0  0  0  0  0  0  0  0
  -24.9668  -14.6830   20.6050 C   0  0  0  0  0  0  0  0  0  0  0  0
  -24.5444  -16.8077   21.9520 C   0  0  0  0  0  0  0  0  0  0  0  0
  -18.6710  -30.6664   22.9105 C   0  0  0  0  0  0  0  0  0  0  0  0
  -23.6638  -24.7139   22.7085 C   0  0  0  0  0  0  0  0  0  0  0  0
  -18.8583  -29.3470   22.4559 C   0  0  0  0  0  0  0  0  0  0  0  0
  -24.4418  -24.4842   21.5619 C   0  0  0  0  0  0  0  0  0  0  0  0
  -31.9008  -23.4081   19.4897 C   0  0  0  0  0  0  0  0  0  0  0  0
  -30.0873  -22.1304   20.4465 C   0  0  0  0  0  0  0  0  0  0  0  0
  -29.3559  -22.2868   19.2691 C   0  0  0  0  0  0  0  0  0  0  0  0
  -25.2221  -11.9224   20.2939 C   0  0  0  0  0  0  0  0  0  0  0  0
  -25.6280  -22.7262   22.7218 C   0  0  0  0  0  0  0  0  0  0  0  0
  -24.3935   -9.7694   20.7413 C   0  0  0  0  0  0  0  0  0  0  0  0
  -22.4707   -8.1453   21.9445 C   0  0  0  0  0  0  0  0  0  0  0  0
  -24.2134   -9.8090   22.1239 C   0  0  0  0  0  0  0  0  0  0  0  0
  -24.8357  -16.1089   20.7652 C   0  0  0  0  0  0  0  0  0  0  0  0
  -24.5301  -18.1292   21.5777 C   0  0  0  0  0  0  0  0  0  0  0  0
  -28.6813  -19.7617   22.9229 C   0  0  0  0  0  0  0  0  0  0  0  0
  -29.1674  -20.0536   21.5474 C   0  0  0  0  0  0  0  0  0  0  0  0
  -24.3078  -16.3072   23.2746 C   0  0  0  0  0  0  0  0  0  0  0  0
  -28.3624  -18.5260   23.3186 C   0  0  0  0  0  0  0  0  0  0  0  0
  -21.7401  -27.4909   21.0765 C   0  0  0  0  0  0  0  0  0  0  0  0
  -24.6669  -27.8075   20.2138 C   0  0  0  0  0  0  0  0  0  0  0  0
  -28.0488  -28.0534   19.8404 C   0  0  0  0  0  0  0  0  0  0  0  0
  -27.2197  -21.8034   18.0243 C   0  0  0  0  0  0  0  0  0  0  0  0
  -19.3310  -31.8405   22.2318 C   0  0  0  0  0  0  0  0  0  0  0  0
  -22.5712  -25.7457   22.6355 C   0  0  0  0  0  0  0  0  0  0  0  0
  -24.1640  -25.3193   20.3419 C   0  0  0  0  0  0  0  0  0  0  0  0
  -20.5103  -31.4478   21.3456 C   0  0  0  0  0  0  0  0  0  0  0  0
  -23.9777  -20.5298   17.2864 C   0  0  0  0  0  0  0  0  0  0  0  0
  -20.1429  -30.2580   20.4645 C   0  0  0  0  0  0  0  0  0  0  0  0
  -23.8383  -19.3281   18.2237 C   0  0  0  0  0  0  0  0  0  0  0  0
  -25.4038  -20.6746   16.7581 C   0  0  0  0  0  0  0  0  0  0  0  0
  -29.4324  -21.9986   22.8747 C   0  0  0  0  0  0  0  0  0  0  0  0
  -26.3087  -19.5031   18.7273 C   0  0  0  0  0  0  0  0  0  0  0  0
  -19.7982  -29.0284   21.3135 C   0  0  1  0  0  0  0  0  0  0  0  0
  -28.6459  -21.0147   23.7400 C   0  0  1  0  0  0  0  0  0  0  0  0
  -22.9550  -26.9720   21.7880 C   0  0  1  0  0  0  0  0  0  0  0  0
  -24.9048  -19.3543   19.3361 C   0  0  2  0  0  0  0  0  0  0  0  0
  -33.2619  -24.0061   19.6066 C   0  0  0  0  0  0  0  0  0  0  0  0
  -27.8754  -18.3370   24.7466 C   0  0  0  0  0  0  0  0  0  0  0  0
  -29.8109  -29.4479   18.7234 C   0  0  0  0  0  0  0  0  0  0  0  0
  -23.9969  -26.5045   17.5385 C   0  0  0  0  0  0  0  0  0  0  0  0
  -26.2763  -27.1540   16.7319 C   0  0  0  0  0  0  0  0  0  0  0  0
  -24.6396  -28.9169   17.3924 C   0  0  0  0  0  0  0  0  0  0  0  0
  -29.2717  -28.7923   22.4322 C   0  0  0  0  0  0  0  0  0  0  0  0
  -27.2183  -21.4938   23.9905 C   0  0  0  0  0  0  0  0  0  1  0  0
  -25.7223  -27.4974   19.1826 C   0  0  1  0  0  0  0  0  0  0  0  0
  -28.9958  -29.2305   19.9887 C   0  0  2  0  0  0  0  0  0  0  0  0
  -25.1557  -27.5023   17.7347 C   0  0  0  0  0  0  0  0  0  0  0  0
  -24.9949  -16.9193   19.7155 N   0  0  0  0  0  0  0  0  0  0  0  0
  -24.8029  -18.1410   20.2414 N   0  0  0  0  0  0  0  0  0  0  0  0
  -29.5548  -21.3992   21.5539 N   0  0  0  0  0  0  0  0  0  0  0  0
  -23.9498  -26.7219   20.7312 N   0  0  0  0  0  0  0  0  0  0  0  0
  -26.3588  -20.6965   17.8682 N   0  0  0  0  0  0  0  0  0  0  0  0
  -24.3110  -19.2705   22.2645 N   0  0  0  0  0  0  0  0  0  0  0  0
  -24.3603  -14.9224   23.4842 N   0  0  0  0  0  0  0  0  0  0  0  0
  -28.0611  -21.7274   19.1338 N   0  0  0  0  0  0  0  0  0  0  0  0
  -21.0050  -28.4025   21.8100 N   0  0  0  0  0  0  0  0  0  0  0  0
  -26.8028  -28.4522   19.4046 N   0  0  0  0  0  0  0  0  0  0  0  0
  -29.9375  -28.9983   21.1203 N   0  3  0  0  0  0  0  0  0  0  0  0
  -28.3904  -17.4222   22.6956 O   0  5  0  0  0  0  0  0  0  0  0  0
  -29.1962  -19.2206   20.6567 O   0  0  0  0  0  0  0  0  0  0  0  0
  -24.0412  -17.0643   24.2385 O   0  0  0  0  0  0  0  0  0  0  0  0
  -21.4878  -27.0952   19.9445 O   0  0  0  0  0  0  0  0  0  0  0  0
  -24.4773  -28.9801   20.5491 O   0  0  0  0  0  0  0  0  0  0  0  0
  -28.3821  -26.8956   20.0830 O   0  0  0  0  0  0  0  0  0  0  0  0
  -27.1923  -22.7615   17.2476 O   0  0  0  0  0  0  0  0  0  0  0  0
  -25.3470  -10.5756   20.1425 O   0  0  0  0  0  0  0  0  0  0  0  0
  -26.5923  -21.7646   22.7371 O   0  0  0  0  0  0  0  0  0  1  0  0
  -21.5464   -7.3665   22.5219 F   0  0  0  0  0  0  0  0  0  0  0  0
  -24.9601  -10.6260   22.8793 F   0  0  0  0  0  0  0  0  0  0  0  0
  1  2  1  0  0  0  0
  1  5  2  0  0  0  0
  2  6  2  0  0  0  0
  3 10  2  0  0  0  0
  3 18  1  0  0  0  0
  4 11  1  0  0  0  0
  4 18  2  0  0  0  0
  5 20  1  0  0  0  0
  6 22  1  0  0  0  0
  7 12  2  0  0  0  0
  7 21  1  0  0  0  0
  8  9  2  0  0  0  0
  8 24  1  0  0  0  0
  9 26  1  0  0  0  0
 10 27  1  0  0  0  0
 11 27  2  0  0  0  0
 12 28  1  0  0  0  0
 13 14  2  0  0  0  0
 13 29  1  0  0  0  0
 14 30  1  0  0  0  0
 15 23  1  0  0  0  0
 15 28  2  0  0  0  0
 16 24  2  0  0  0  0
 16 25  1  0  0  0  0
 17 30  2  0  0  0  0
 17 31  1  0  0  0  0
 18 32  1  0  0  0  0
 19 32  1  0  0  0  0
 19 33  2  0  0  0  0
 19 36  1  0  0  0  0
 20 22  2  0  0  0  0
 20 42  1  0  0  0  0
 21 23  2  0  0  0  0
 21 43  1  0  0  0  0
 22 52  1  0  0  0  0
 23 44  1  0  0  0  0
 24 56  1  0  0  0  0
 25 26  2  0  0  0  0
 25 69  1  0  0  0  0
 26 74  1  0  0  0  0
 27 85  1  0  0  0  0
 28 86  1  0  0  0  0
 29 31  2  0  0  0  0
 29 85  1  0  0  0  0
 30 87  1  0  0  0  0
 31 88  1  0  0  0  0
 32 67  2  0  0  0  0
 33 68  1  0  0  0  0
 33 72  1  0  0  0  0
 34 35  1  0  0  0  0
 34 37  2  0  0  0  0
 34 53  1  0  0  0  0
 35 69  1  0  0  0  0
 35 79  2  0  0  0  0
 36 73  1  0  0  0  0
 36 80  2  0  0  0  0
 37 57  1  0  0  0  0
 37 78  1  0  0  0  0
 38 54  1  0  0  0  0
 38 75  1  0  0  0  0
 38 81  2  0  0  0  0
 39 64  1  0  0  0  0
 39 70  1  0  0  0  0
 39 82  2  0  0  0  0
 40 65  1  0  0  0  0
 40 76  1  0  0  0  0
 40 83  2  0  0  0  0
 41 71  1  0  0  0  0
 41 74  1  0  0  0  0
 41 84  2  0  0  0  0
 42 45  1  0  0  0  0
 43 54  1  0  0  0  0
 44 70  1  0  0  0  0
 45 47  1  0  0  0  0
 46 48  1  0  0  0  0
 46 49  1  0  0  0  0
 47 52  1  0  0  0  0
 48 55  1  0  0  0  0
 49 71  1  0  0  0  0
 50 53  1  0  0  0  0
 50 69  1  0  0  0  0
 51 55  1  0  0  0  0
 51 71  1  0  0  0  0
 52 75  1  0  0  0  0
 53 63  1  0  0  0  0
 54 70  1  0  0  0  0
 55 68  1  0  0  0  0
 58 65  1  0  0  0  0
 59 66  1  0  0  0  0
 60 66  1  0  0  0  0
 61 66  1  0  0  0  0
 62 77  1  0  0  0  0
 63 86  1  0  0  0  0
 64 66  1  0  0  0  0
 64 76  1  0  0  0  0
 65 77  1  0  0  0  0
 67 68  1  0  0  0  0
M  CHG  2  77   1  78  -1
M  ISO  4  41 100  63 101  74 100  86 101
M  END
> <Batch ID>
0064

> <Smiles>
CNC(C)C(=O)NC(C(=O)N1Cc2cc([101O:1][101CH2:1]C3CN(c4cc(C)ccc4[100NH:0][100C:0](=O)N4CCCC(n5nc(-c6ccc(Oc7ccc(F)cc7F)cc6)c(C(N)=O)c5N)C4)C(=O)C3C(C)=O)ccc2CC1C(=O)NC1CCCc2ccccc21)C(C)(C)C

> <Shape>
0.211

> <Color>
0.076

> <Negative vol penalty>
0.000

$$$$

  -OEChem-04042323153D

 86 95  0     1  0  0  0  0  0999 V2000
  -31.7500  -34.6246   22.4403 C   0  0  0  0  0  0  0  0  0  0  0  0
  -31.4630  -33.4075   21.8307 C   0  0  0  0  0  0  0  0  0  0  0  0
  -24.1237  -14.8412   23.6371 C   0  0  0  0  0  0  0  0  0  0  0  0
  -23.7764  -16.0109   21.5519 C   0  0  0  0  0  0  0  0  0  0  0  0
  -31.0396  -35.0204   23.5728 C   0  0  0  0  0  0  0  0  0  0  0  0
  -30.4660  -32.5849   22.3541 C   0  0  0  0  0  0  0  0  0  0  0  0
  -26.6574  -28.9614   19.2123 C   0  0  0  0  0  0  0  0  0  0  0  0
  -23.5239  -15.8943   24.3277 C   0  0  0  0  0  0  0  0  0  0  0  0
  -23.1766  -17.0640   22.2424 C   0  0  0  0  0  0  0  0  0  0  0  0
  -26.6779  -27.5953   18.9346 C   0  0  0  0  0  0  0  0  0  0  0  0
  -24.1674  -19.7198   24.0852 C   0  0  0  0  0  0  0  0  0  0  0  0
  -24.5430  -21.0181   23.7404 C   0  0  0  0  0  0  0  0  0  0  0  0
  -25.2161  -27.1978   20.8120 C   0  0  0  0  0  0  0  0  0  0  0  0
  -29.2804  -21.2112   20.1752 C   0  0  0  0  0  0  0  0  0  0  0  0
  -30.4279  -19.0948   20.3769 C   0  0  0  0  0  0  0  0  0  0  0  0
  -28.1863  -19.1728   19.4790 C   0  0  0  0  0  0  0  0  0  0  0  0
  -22.2559  -21.5219   23.1464 C   0  0  0  0  0  0  0  0  0  0  0  0
  -24.2500  -14.8995   22.2492 C   0  0  0  0  0  0  0  0  0  0  0  0
  -24.4506  -12.4689   21.5014 C   0  0  0  0  0  0  0  0  0  0  0  0
  -30.0268  -34.2067   24.1046 C   0  0  0  0  0  0  0  0  0  0  0  0
  -25.9236  -29.4556   20.3003 C   0  0  0  0  0  0  0  0  0  0  0  0
  -29.7423  -32.9695   23.4955 C   0  0  0  0  0  0  0  0  0  0  0  0
  -25.1859  -28.5709   21.0998 C   0  0  0  0  0  0  0  0  0  0  0  0
  -30.4100  -20.4798   20.5418 C   0  0  0  0  0  0  0  0  0  0  0  0
  -28.1684  -20.5577   19.6439 C   0  0  0  0  0  0  0  0  0  0  0  0
  -29.3160  -18.4413   19.8455 C   0  0  0  0  0  0  0  0  0  0  0  0
  -23.0503  -17.0057   23.6304 C   0  0  0  0  0  0  0  0  0  0  0  0
  -25.9595  -26.7130   19.7362 C   0  0  0  0  0  0  0  0  0  0  0  0
  -22.8362  -19.3224   23.9605 C   0  0  0  0  0  0  0  0  0  0  0  0
  -23.5872  -21.9192   23.2711 C   0  0  0  0  0  0  0  0  0  0  0  0
  -21.8804  -20.2235   23.4912 C   0  0  0  0  0  0  0  0  0  0  0  0
  -24.8699  -13.8123   21.5353 C   0  0  0  0  0  0  0  0  0  0  0  0
  -25.3662  -11.8437   20.6907 C   0  0  0  0  0  0  0  0  0  0  0  0
  -26.1555  -20.8974   18.2219 C   0  0  0  0  0  0  0  0  0  0  0  0
  -23.3332  -11.8421   22.1451 C   0  0  0  0  0  0  0  0  0  0  0  0
  -26.6503  -31.0153   22.9730 C   0  0  0  0  0  0  0  0  0  0  0  0
  -23.4267  -31.1505   23.3088 C   0  0  0  0  0  0  0  0  0  0  0  0
  -20.3769  -29.8174   22.5549 C   0  0  0  0  0  0  0  0  0  0  0  0
  -28.3192  -16.2195   19.1676 C   0  0  0  0  0  0  0  0  0  0  0  0
  -29.3184  -34.6553   25.3582 C   0  0  0  0  0  0  0  0  0  0  0  0
  -25.8902  -30.9349   20.5705 C   0  0  0  0  0  0  0  0  0  0  0  0
  -24.3659  -29.0530   22.2676 C   0  0  0  0  0  0  0  0  0  0  0  0
  -24.8597  -21.6838   18.0765 C   0  0  0  0  0  0  0  0  0  0  0  0
  -28.0216  -33.8970   25.6295 C   0  0  0  0  0  0  0  0  0  0  0  0
  -29.9773  -12.7640   19.5880 C   0  0  0  0  0  0  0  0  0  0  0  0
  -28.2343  -32.3965   25.4560 C   0  0  0  0  0  0  0  0  0  0  0  0
  -28.6971  -12.1983   20.1896 C   0  0  0  0  0  0  0  0  0  0  0  0
  -29.9333  -14.2896   19.5890 C   0  0  0  0  0  0  0  0  0  0  0  0
  -27.7093  -13.8955   18.5256 C   0  0  0  0  0  0  0  0  0  0  0  0
  -26.8113  -22.6427   19.8687 C   0  0  0  0  0  0  0  0  0  0  0  0
  -28.6511  -32.0609   24.0189 C   0  0  1  0  0  0  0  0  0  0  0  0
  -25.5232  -31.2707   22.0127 C   0  0  1  0  0  0  0  0  0  0  0  0
  -27.4533  -12.6494   19.3979 C   0  0  2  0  0  0  0  0  0  0  0  0
  -25.3569  -23.0919   19.8568 C   0  0  1  0  0  0  0  0  0  0  0  0
  -31.5983  -21.1789   21.1112 C   0  0  0  0  0  0  0  0  0  0  0  0
  -17.9274  -30.1225   23.0073 C   0  0  0  0  0  0  0  0  0  0  0  0
  -23.7902  -29.9346   26.0836 C   0  0  0  0  0  0  0  0  0  0  0  0
  -21.3462  -29.3916   26.0894 C   0  0  0  0  0  0  0  0  0  0  0  0
  -22.0937  -31.7680   25.9621 C   0  0  0  0  0  0  0  0  0  0  0  0
  -19.7867  -30.2758   19.6913 C   0  0  0  0  0  0  0  0  0  0  0  0
  -25.2196  -24.5322   20.3300 C   0  0  0  0  0  0  0  0  0  1  0  0
  -22.3804  -30.2688   23.9466 C   0  0  1  0  0  0  0  0  0  0  0  0
  -19.0857  -30.4604   22.0816 C   0  0  2  0  0  0  0  0  0  0  0  0
  -22.4195  -30.3311   25.4997 C   0  0  0  0  0  0  0  0  0  0  0  0
  -25.9667  -14.0287   20.8044 N   0  0  0  0  0  0  0  0  0  0  0  0
  -26.2443  -12.8129   20.3036 N   0  0  0  0  0  0  0  0  0  0  0  0
  -26.9989  -21.3157   19.2646 N   0  0  0  0  0  0  0  0  0  0  0  0
  -24.3702  -30.5076   22.4949 N   0  0  0  0  0  0  0  0  0  0  0  0
  -28.6495  -14.8416   19.1317 N   0  0  0  0  0  0  0  0  0  0  0  0
  -25.4979  -10.5650   20.2783 N   0  0  0  0  0  0  0  0  0  0  0  0
  -22.1098  -11.7941   21.4630 N   0  0  0  0  0  0  0  0  0  0  0  0
  -29.3336  -17.0334   19.6792 N   0  0  0  0  0  0  0  0  0  0  0  0
  -27.5022  -32.0905   23.1394 N   0  0  0  0  0  0  0  0  0  0  0  0
  -21.1027  -30.6653   23.3647 N   0  0  0  0  0  0  0  0  0  0  0  0
  -18.7444  -29.9880   20.7100 N   0  3  0  0  0  0  0  0  0  0  0  0
  -26.3559  -19.9508   17.4585 O   0  0  0  0  0  0  0  0  0  0  0  0
  -23.4130  -11.3540   23.2979 O   0  0  0  0  0  0  0  0  0  0  0  0
  -26.7395  -29.9240   23.5234 O   0  0  0  0  0  0  0  0  0  0  0  0
  -23.4034  -32.3657   23.5190 O   0  0  0  0  0  0  0  0  0  0  0  0
  -20.7067  -28.6759   22.2411 O   0  0  0  0  0  0  0  0  0  0  0  0
  -27.2279  -16.6345   18.7721 O   0  0  0  0  0  0  0  0  0  0  0  0
  -24.8925  -23.0208   18.5150 O   0  0  0  0  0  0  0  0  0  0  0  0
  -22.4648  -18.0333   24.3039 O   0  0  0  0  0  0  0  0  0  0  0  0
  -25.9784  -25.3790   19.4677 O   0  0  0  0  0  0  0  0  0  1  0  0
  -23.9477  -23.1664   22.9415 F   0  0  0  0  0  0  0  0  0  0  0  0
  -20.5997  -19.8479   23.3704 F   0  0  0  0  0  0  0  0  0  0  0  0
  1  2  1  0  0  0  0
  1  5  2  0  0  0  0
  2  6  2  0  0  0  0
  3  8  2  0  0  0  0
  3 18  1  0  0  0  0
  4  9  1  0  0  0  0
  4 18  2  0  0  0  0
  5 20  1  0  0  0  0
  6 22  1  0  0  0  0
  7 10  2  0  0  0  0
  7 21  1  0  0  0  0
  8 27  1  0  0  0  0
  9 27  2  0  0  0  0
 10 28  1  0  0  0  0
 11 12  2  0  0  0  0
 11 29  1  0  0  0  0
 12 30  1  0  0  0  0
 13 23  1  0  0  0  0
 13 28  2  0  0  0  0
 14 24  2  0  0  0  0
 14 25  1  0  0  0  0
 15 24  1  0  0  0  0
 15 26  2  0  0  0  0
 16 25  2  0  0  0  0
 16 26  1  0  0  0  0
 17 30  2  0  0  0  0
 17 31  1  0  0  0  0
 18 32  1  0  0  0  0
 19 32  1  0  0  0  0
 19 33  2  0  0  0  0
 19 35  1  0  0  0  0
 20 22  2  0  0  0  0
 20 40  1  0  0  0  0
 21 23  2  0  0  0  0
 21 41  1  0  0  0  0
 22 51  1  0  0  0  0
 23 42  1  0  0  0  0
 24 55  1  0  0  0  0
 25 67  1  0  0  0  0
 26 72  1  0  0  0  0
 27 83  1  0  0  0  0
 28 84  1  0  0  0  0
 29 31  2  0  0  0  0
 29 83  1  0  0  0  0
 30 85  1  0  0  0  0
 31 86  1  0  0  0  0
 32 65  2  0  0  0  0
 33 66  1  0  0  0  0
 33 70  1  0  0  0  0
 34 43  1  0  0  0  0
 34 67  1  0  0  0  0
 34 76  2  0  0  0  0
 35 71  1  0  0  0  0
 35 77  2  0  0  0  0
 36 52  1  0  0  0  0
 36 73  1  0  0  0  0
 36 78  2  0  0  0  0
 37 62  1  0  0  0  0
 37 68  1  0  0  0  0
 37 79  2  0  0  0  0
 38 63  1  0  0  0  0
 38 74  1  0  0  0  0
 38 80  2  0  0  0  0
 39 69  1  0  0  0  0
 39 72  1  0  0  0  0
 39 81  2  0  0  0  0
 40 44  1  0  0  0  0
 41 52  1  0  0  0  0
 42 68  1  0  0  0  0
 43 82  1  0  0  0  0
 44 46  1  0  0  0  0
 45 47  1  0  0  0  0
 45 48  1  0  0  0  0
 46 51  1  0  0  0  0
 47 53  1  0  0  0  0
 48 69  1  0  0  0  0
 49 53  1  0  0  0  0
 49 69  1  0  0  0  0
 50 54  1  0  0  0  0
 50 67  1  0  0  0  0
 51 73  1  0  0  0  0
 52 68  1  0  0  0  0
 53 66  1  0  0  0  0
 54 61  1  0  0  0  0
 54 82  1  0  0  0  0
 56 63  1  0  0  0  0
 57 64  1  0  0  0  0
 58 64  1  0  0  0  0
 59 64  1  0  0  0  0
 60 75  1  0  0  0  0
 61 84  1  0  0  0  0
 62 64  1  0  0  0  0
 62 74  1  0  0  0  0
 63 75  1  0  0  0  0
 65 66  1  0  0  0  0
M  CHG  1  75   1
M  ISO  4  39 100  61 101  72 100  84 101
M  END
> <Batch ID>
0064

> <Smiles>
CNC(C)C(=O)NC(C(=O)N1Cc2cc([101O:1][101CH2:1]C3CN(c4cc(C)cc([100NH:0][100C:0](=O)N5CCCC(n6nc(-c7ccc(Oc8ccc(F)cc8F)cc7)c(C(N)=O)c6N)C5)c4)C(=O)CO3)ccc2CC1C(=O)NC1CCCc2ccccc21)C(C)(C)C

> <Shape>
0.233

> <Color>
0.086

> <Negative vol penalty>
0.000

$$$$

  -OEChem-04042323153D

 89 98  0     1  0  0  0  0  0999 V2000
  -18.4957  -31.6858   24.5633 C   0  0  0  0  0  0  0  0  0  0  0  0
  -19.2107  -30.6328   25.1251 C   0  0  0  0  0  0  0  0  0  0  0  0
  -23.1853   -9.9190   19.8398 C   0  0  0  0  0  0  0  0  0  0  0  0
  -24.0941   -9.6980   22.0674 C   0  0  0  0  0  0  0  0  0  0  0  0
  -18.4220  -31.8157   23.1771 C   0  0  0  0  0  0  0  0  0  0  0  0
  -19.8516  -29.7086   24.3008 C   0  0  0  0  0  0  0  0  0  0  0  0
  -25.1556  -26.8513   25.4003 C   0  0  0  0  0  0  0  0  0  0  0  0
  -22.5490   -8.6853   19.9770 C   0  0  0  0  0  0  0  0  0  0  0  0
  -23.4578   -8.4643   22.2046 C   0  0  0  0  0  0  0  0  0  0  0  0
  -25.4524  -25.5813   25.8930 C   0  0  0  0  0  0  0  0  0  0  0  0
  -20.3466   -7.3295   22.8779 C   0  0  0  0  0  0  0  0  0  0  0  0
  -19.6748   -7.0780   24.0741 C   0  0  0  0  0  0  0  0  0  0  0  0
  -25.6914  -24.7677   23.6346 C   0  0  0  0  0  0  0  0  0  0  0  0
  -29.1531  -18.0746   22.9380 C   0  0  0  0  0  0  0  0  0  0  0  0
  -30.6727  -18.2488   21.0677 C   0  0  0  0  0  0  0  0  0  0  0  0
  -21.1055   -5.1732   24.4771 C   0  0  0  0  0  0  0  0  0  0  0  0
  -23.9579  -10.4253   20.8850 C   0  0  0  0  0  0  0  0  0  0  0  0
  -30.0096  -20.2340   22.2745 C   0  0  0  0  0  0  0  0  0  0  0  0
  -24.0992  -12.9649   21.0802 C   0  0  0  0  0  0  0  0  0  0  0  0
  -19.0703  -30.8981   22.3355 C   0  0  0  0  0  0  0  0  0  0  0  0
  -25.1138  -27.0869   24.0186 C   0  0  0  0  0  0  0  0  0  0  0  0
  -19.7853  -29.8256   22.9020 C   0  0  0  0  0  0  0  0  0  0  0  0
  -25.3964  -26.0423   23.1270 C   0  0  0  0  0  0  0  0  0  0  0  0
  -29.2176  -19.4561   23.1190 C   0  0  0  0  0  0  0  0  0  0  0  0
  -29.8807  -17.4709   21.9123 C   0  0  0  0  0  0  0  0  0  0  0  0
  -22.6852   -7.9580   21.1594 C   0  0  0  0  0  0  0  0  0  0  0  0
  -25.7175  -24.5386   25.0100 C   0  0  0  0  0  0  0  0  0  0  0  0
  -21.3978   -6.5028   22.4812 C   0  0  0  0  0  0  0  0  0  0  0  0
  -20.0542   -5.9999   24.8738 C   0  0  0  0  0  0  0  0  0  0  0  0
  -30.7371  -19.6303   21.2488 C   0  0  0  0  0  0  0  0  0  0  0  0
  -21.7772   -5.4247   23.2808 C   0  0  0  0  0  0  0  0  0  0  0  0
  -24.6159  -11.6993   20.7437 C   0  0  0  0  0  0  0  0  0  0  0  0
  -25.1049  -13.8431   20.7580 C   0  0  0  0  0  0  0  0  0  0  0  0
  -28.9806  -20.7957   25.2527 C   0  0  0  0  0  0  0  0  0  0  0  0
  -30.0949  -21.6798   22.4390 C   0  0  0  0  0  0  0  0  0  0  0  0
  -22.8243  -13.3153   21.6346 C   0  0  0  0  0  0  0  0  0  0  0  0
  -22.8698  -28.0179   21.9688 C   0  0  0  0  0  0  0  0  0  0  0  0
  -25.3477  -28.0558   19.8756 C   0  0  0  0  0  0  0  0  0  0  0  0
  -28.4491  -26.9055   19.0363 C   0  0  0  0  0  0  0  0  0  0  0  0
  -30.4760  -15.3111   20.7602 C   0  0  0  0  0  0  0  0  0  0  0  0
  -18.9227  -31.0526   20.8425 C   0  0  0  0  0  0  0  0  0  0  0  0
  -24.8184  -28.4690   23.5036 C   0  0  0  0  0  0  0  0  0  0  0  0
  -25.3842  -26.2479   21.6350 C   0  0  0  0  0  0  0  0  0  0  0  0
  -27.8210  -21.1410   26.1608 C   0  0  0  0  0  0  0  0  0  0  0  0
  -19.9421  -30.2452   20.0429 C   0  0  0  0  0  0  0  0  0  0  0  0
  -29.3912  -13.1331   18.1608 C   0  0  0  0  0  0  0  0  0  0  0  0
  -20.0385  -28.8222   20.5836 C   0  0  0  0  0  0  0  0  0  0  0  0
  -28.0097  -12.6701   18.6287 C   0  0  0  0  0  0  0  0  0  0  0  0
  -30.3647  -13.2831   19.3285 C   0  0  0  0  0  0  0  0  0  0  0  0
  -28.5051  -13.6643   20.8988 C   0  0  0  0  0  0  0  0  0  0  0  0
  -27.0290  -19.8779   24.2950 C   0  0  0  0  0  0  0  0  0  0  0  0
  -20.5146  -28.8169   22.0413 C   0  0  1  0  0  0  0  0  0  0  0  0
  -24.2981  -28.4737   22.0695 C   0  0  1  0  0  0  0  0  0  0  0  0
  -27.4716  -13.5614   19.7652 C   0  0  2  0  0  0  0  0  0  0  0  0
  -26.5850  -20.9685   25.2731 C   0  0  1  0  0  0  0  0  0  0  0  0
  -31.4363  -22.3516   22.7226 C   0  0  0  0  0  0  0  0  0  0  0  0
  -25.3632  -20.5345   26.0843 C   0  0  0  0  0  0  0  0  0  0  0  0
  -30.2005  -27.0877   17.2483 C   0  0  0  0  0  0  0  0  0  0  0  0
  -23.6800  -26.2558   18.0621 C   0  0  0  0  0  0  0  0  0  0  0  0
  -25.7709  -25.7105   16.7975 C   0  0  0  0  0  0  0  0  0  0  0  0
  -24.9367  -28.0602   16.8707 C   0  0  0  0  0  0  0  0  0  0  0  0
  -30.4435  -27.9854   20.9377 C   0  0  0  0  0  0  0  0  0  0  0  0
  -26.2682  -22.2760   24.5270 C   0  0  0  0  0  0  0  0  0  1  0  0
  -25.9742  -27.0482   18.9423 C   0  0  1  0  0  0  0  0  0  0  0  0
  -29.7024  -27.6298   18.5791 C   0  0  2  0  0  0  0  0  0  0  0  0
  -25.0888  -26.7640   17.6962 C   0  0  0  0  0  0  0  0  0  0  0  0
  -25.8536  -11.7635   20.2457 N   0  0  0  0  0  0  0  0  0  0  0  0
  -29.0331  -22.4455   22.3657 N   0  0  0  0  0  0  0  0  0  0  0  0
  -26.1230  -13.0799   20.2668 N   0  0  0  0  0  0  0  0  0  0  0  0
  -28.4658  -20.0520   24.1758 N   0  0  0  0  0  0  0  0  0  0  0  0
  -25.0838  -27.6156   21.1804 N   0  0  0  0  0  0  0  0  0  0  0  0
  -29.7894  -14.1437   20.3644 N   0  0  0  0  0  0  0  0  0  0  0  0
  -25.2088  -15.1859   20.8496 N   0  0  0  0  0  0  0  0  0  0  0  0
  -21.9087  -12.2893   21.9056 N   0  0  0  0  0  0  0  0  0  0  0  0
  -29.8167  -16.0673   21.7288 N   0  0  0  0  0  0  0  0  0  0  0  0
  -21.9439  -29.0343   22.1069 N   0  0  0  0  0  0  0  0  0  0  0  0
  -27.3048  -27.5565   18.6265 N   0  0  0  0  0  0  0  0  0  0  0  0
  -30.7888  -27.4720   19.5870 N   0  3  0  0  0  0  0  0  0  0  0  0
  -30.1344  -21.1000   25.5191 O   0  0  0  0  0  0  0  0  0  0  0  0
  -22.5001  -14.5046   21.8672 O   0  0  0  0  0  0  0  0  0  0  0  0
  -22.6260  -26.8322   21.7783 O   0  0  0  0  0  0  0  0  0  0  0  0
  -25.1080  -29.1938   19.4643 O   0  0  0  0  0  0  0  0  0  0  0  0
  -28.4820  -25.8642   19.6884 O   0  0  0  0  0  0  0  0  0  0  0  0
  -31.5553  -15.6316   20.2559 O   0  0  0  0  0  0  0  0  0  0  0  0
  -22.0643   -6.7543   21.2937 O   0  0  0  0  0  0  0  0  0  0  0  0
  -26.0067  -23.2978   25.4882 O   0  0  0  0  0  0  0  0  0  1  0  0
  -19.4100   -5.7594   26.0233 F   0  0  0  0  0  0  0  0  0  0  0  0
  -31.5031  -20.3671   20.4315 F   0  0  0  0  0  0  0  0  0  0  0  0
  -22.7871   -4.6278   22.9056 F   0  0  0  0  0  0  0  0  0  0  0  0
  1  2  1  0  0  0  0
  1  5  2  0  0  0  0
  2  6  2  0  0  0  0
  3  8  2  0  0  0  0
  3 17  1  0  0  0  0
  4  9  1  0  0  0  0
  4 17  2  0  0  0  0
  5 20  1  0  0  0  0
  6 22  1  0  0  0  0
  7 10  2  0  0  0  0
  7 21  1  0  0  0  0
  8 26  1  0  0  0  0
  9 26  2  0  0  0  0
 10 27  1  0  0  0  0
 11 12  2  0  0  0  0
 11 28  1  0  0  0  0
 12 29  1  0  0  0  0
 13 23  1  0  0  0  0
 13 27  2  0  0  0  0
 14 24  1  0  0  0  0
 14 25  2  0  0  0  0
 15 25  1  0  0  0  0
 15 30  2  0  0  0  0
 16 29  2  0  0  0  0
 16 31  1  0  0  0  0
 17 32  1  0  0  0  0
 18 24  2  0  0  0  0
 18 30  1  0  0  0  0
 18 35  1  0  0  0  0
 19 32  1  0  0  0  0
 19 33  2  0  0  0  0
 19 36  1  0  0  0  0
 20 22  2  0  0  0  0
 20 41  1  0  0  0  0
 21 23  2  0  0  0  0
 21 42  1  0  0  0  0
 22 52  1  0  0  0  0
 23 43  1  0  0  0  0
 24 70  1  0  0  0  0
 25 75  1  0  0  0  0
 26 85  1  0  0  0  0
 27 86  1  0  0  0  0
 28 31  2  0  0  0  0
 28 85  1  0  0  0  0
 29 87  1  0  0  0  0
 30 88  1  0  0  0  0
 31 89  1  0  0  0  0
 32 67  2  0  0  0  0
 33 69  1  0  0  0  0
 33 73  1  0  0  0  0
 34 44  1  0  0  0  0
 34 70  1  0  0  0  0
 34 79  2  0  0  0  0
 35 56  1  0  0  0  0
 35 68  2  0  0  0  0
 36 74  1  0  0  0  0
 36 80  2  0  0  0  0
 37 53  1  0  0  0  0
 37 76  1  0  0  0  0
 37 81  2  0  0  0  0
 38 64  1  0  0  0  0
 38 71  1  0  0  0  0
 38 82  2  0  0  0  0
 39 65  1  0  0  0  0
 39 77  1  0  0  0  0
 39 83  2  0  0  0  0
 40 72  1  0  0  0  0
 40 75  1  0  0  0  0
 40 84  2  0  0  0  0
 41 45  1  0  0  0  0
 42 53  1  0  0  0  0
 43 71  1  0  0  0  0
 44 55  1  0  0  0  0
 45 47  1  0  0  0  0
 46 48  1  0  0  0  0
 46 49  1  0  0  0  0
 47 52  1  0  0  0  0
 48 54  1  0  0  0  0
 49 72  1  0  0  0  0
 50 54  1  0  0  0  0
 50 72  1  0  0  0  0
 51 55  1  0  0  0  0
 51 70  1  0  0  0  0
 52 76  1  0  0  0  0
 53 71  1  0  0  0  0
 54 69  1  0  0  0  0
 55 57  1  0  0  0  0
 55 63  1  0  0  0  0
 58 65  1  0  0  0  0
 59 66  1  0  0  0  0
 60 66  1  0  0  0  0
 61 66  1  0  0  0  0
 62 78  1  0  0  0  0
 63 86  1  0  0  0  0
 64 66  1  0  0  0  0
 64 77  1  0  0  0  0
 65 78  1  0  0  0  0
 67 69  1  0  0  0  0
M  CHG  1  78   1
M  ISO  4  40 100  63 101  75 100  86 101
M  END
> <Batch ID>
0064

> <Smiles>
CNC(C)C(=O)NC(C(=O)N1Cc2cc([101O:1][101CH2:1]C3(C)CC(=O)N(c4cc([100NH:0][100C:0](=O)N5CCCC(n6nc(-c7ccc(Oc8ccc(F)cc8F)cc7)c(C(N)=O)c6N)C5)cc(F)c4C(C)=N)C3)ccc2CC1C(=O)NC1CCCc2ccccc21)C(C)(C)C

> <Shape>
0.286

> <Color>
0.170

> <Negative vol penalty>
0.000

$$$$

  -OEChem-04042323153D

 93102  0     1  0  0  0  0  0999 V2000
  -16.9755  -28.9905   23.9876 C   0  0  0  0  0  0  0  0  0  0  0  0
  -18.3147  -28.7399   23.7061 C   0  0  0  0  0  0  0  0  0  0  0  0
  -24.6990   -8.4563   21.5077 C   0  0  0  0  0  0  0  0  0  0  0  0
  -23.2264  -10.0925   20.5121 C   0  0  0  0  0  0  0  0  0  0  0  0
  -16.4439  -30.2604   23.7671 C   0  0  0  0  0  0  0  0  0  0  0  0
  -19.1227  -29.7588   23.2028 C   0  0  0  0  0  0  0  0  0  0  0  0
  -23.6395  -29.9622   25.4835 C   0  0  0  0  0  0  0  0  0  0  0  0
  -29.0860  -26.7144   18.5853 C   0  0  0  0  0  0  0  0  0  0  0  0
  -26.2515  -19.6019   18.1997 C   0  0  0  0  0  0  0  0  0  0  0  0
  -29.5905  -25.7112   17.7578 C   0  0  0  0  0  0  0  0  0  0  0  0
  -25.5048  -18.5354   17.6991 C   0  0  0  0  0  0  0  0  0  0  0  0
  -23.7037   -8.1184   22.4247 C   0  0  0  0  0  0  0  0  0  0  0  0
  -22.2310   -9.7546   21.4290 C   0  0  0  0  0  0  0  0  0  0  0  0
  -24.5930  -29.0230   25.0929 C   0  0  0  0  0  0  0  0  0  0  0  0
  -20.8788   -6.2607   22.4628 C   0  0  0  0  0  0  0  0  0  0  0  0
  -20.6454   -4.9055   22.6963 C   0  0  0  0  0  0  0  0  0  0  0  0
  -25.6409  -30.6802   23.6877 C   0  0  0  0  0  0  0  0  0  0  0  0
  -28.5477  -25.0605   20.2622 C   0  0  0  0  0  0  0  0  0  0  0  0
  -28.0252  -18.0766   18.8035 C   0  0  0  0  0  0  0  0  0  0  0  0
  -21.1898   -5.2137   25.0299 C   0  0  0  0  0  0  0  0  0  0  0  0
  -24.4604   -9.4434   20.5515 C   0  0  0  0  0  0  0  0  0  0  0  0
  -25.7078   -9.2201   18.3375 C   0  0  0  0  0  0  0  0  0  0  0  0
  -17.2482  -31.2979   23.2699 C   0  0  0  0  0  0  0  0  0  0  0  0
  -23.6733  -31.2666   24.9699 C   0  0  0  0  0  0  0  0  0  0  0  0
  -18.6010  -31.0434   22.9741 C   0  0  0  0  0  0  0  0  0  0  0  0
  -24.6883  -31.6348   24.0754 C   0  0  0  0  0  0  0  0  0  0  0  0
  -29.0521  -24.0573   19.4347 C   0  0  0  0  0  0  0  0  0  0  0  0
  -28.5646  -26.3890   19.8376 C   0  0  0  0  0  0  0  0  0  0  0  0
  -27.5118  -19.3725   18.7519 C   0  0  0  0  0  0  0  0  0  0  0  0
  -29.5735  -24.3827   18.1825 C   0  0  0  0  0  0  0  0  0  0  0  0
  -26.0182  -17.2395   17.7507 C   0  0  0  0  0  0  0  0  0  0  0  0
  -27.2785  -17.0101   18.3030 C   0  0  0  0  0  0  0  0  0  0  0  0
  -22.4697   -8.7675   22.3853 C   0  0  0  0  0  0  0  0  0  0  0  0
  -25.5922  -29.3811   24.1926 C   0  0  0  0  0  0  0  0  0  0  0  0
  -21.2677   -7.0925   23.5129 C   0  0  0  0  0  0  0  0  0  0  0  0
  -20.8009   -4.3820   23.9798 C   0  0  0  0  0  0  0  0  0  0  0  0
  -21.4231   -6.5690   24.7964 C   0  0  0  0  0  0  0  0  0  0  0  0
  -25.4884   -9.7933   19.6044 C   0  0  0  0  0  0  0  0  0  0  0  0
  -26.7945   -9.8958   17.8385 C   0  0  0  0  0  0  0  0  0  0  0  0
  -24.9931   -8.1708   17.6712 C   0  0  0  0  0  0  0  0  0  0  0  0
  -21.7018  -33.0382   23.2153 C   0  0  0  0  0  0  0  0  0  0  0  0
  -23.8802  -35.3645   23.8198 C   0  0  0  0  0  0  0  0  0  0  0  0
  -27.9156  -21.8015   19.2825 C   0  0  0  0  0  0  0  0  0  0  0  0
  -27.5007  -27.2621   21.9446 C   0  0  0  0  0  0  0  0  0  0  0  0
  -27.0895  -36.1861   24.6397 C   0  0  0  0  0  0  0  0  0  0  0  0
  -29.0588  -15.3255   18.8854 C   0  0  0  0  0  0  0  0  0  0  0  0
  -16.6170  -32.6415   23.0032 C   0  0  0  0  0  0  0  0  0  0  0  0
  -22.6533  -32.2756   25.4219 C   0  0  0  0  0  0  0  0  0  0  0  0
  -24.7806  -33.0280   23.5106 C   0  0  0  0  0  0  0  0  0  0  0  0
  -17.6329  -33.7663   22.8210 C   0  0  0  0  0  0  0  0  0  0  0  0
  -30.7404  -12.2092   19.2570 C   0  0  0  0  0  0  0  0  0  0  0  0
  -18.7502  -33.3291   21.8791 C   0  0  0  0  0  0  0  0  0  0  0  0
  -29.6048  -11.1834   19.2668 C   0  0  0  0  0  0  0  0  0  0  0  0
  -30.3455  -13.4993   19.9736 C   0  0  0  0  0  0  0  0  0  0  0  0
  -27.9605  -13.0865   19.5149 C   0  0  0  0  0  0  0  0  0  0  0  0
  -19.5156  -32.1293   22.4504 C   0  0  1  0  0  0  0  0  0  0  0  0
  -22.4791  -33.4301   24.4400 C   0  0  1  0  0  0  0  0  0  0  0  0
  -28.2885  -11.7949   18.7482 C   0  0  2  0  0  0  0  0  0  0  0  0
  -28.5786  -38.1692   25.0231 C   0  0  0  0  0  0  0  0  0  0  0  0
  -24.0401  -35.8237   20.8075 C   0  0  0  0  0  0  0  0  0  0  0  0
  -26.1663  -37.0908   21.1839 C   0  0  0  0  0  0  0  0  0  0  0  0
  -24.0332  -37.9127   22.1824 C   0  0  0  0  0  0  0  0  0  0  0  0
  -27.6201  -35.3924   27.4410 C   0  0  0  0  0  0  0  0  0  0  0  0
  -29.0207  -22.6424   19.9140 C   0  0  0  0  0  0  0  0  0  0  0  0
  -27.0728  -28.6079   22.4997 C   0  0  0  0  0  0  0  0  0  1  0  0
  -25.1388  -35.8523   23.1438 C   0  0  1  0  0  0  0  0  0  0  0  0
  -27.6508  -37.1514   25.6680 C   0  0  2  0  0  0  0  0  0  0  0  0
  -24.8420  -36.6430   21.8384 C   0  0  0  0  0  0  0  0  0  0  0  0
  -26.3654  -10.7586   19.8925 N   0  0  0  0  0  0  0  0  0  0  0  0
  -27.1465  -10.7972   18.7996 N   0  0  0  0  0  0  0  0  0  0  0  0
  -23.7566  -33.9768   23.9781 N   0  0  0  0  0  0  0  0  0  0  0  0
  -29.0919  -14.0229   19.4267 N   0  0  0  0  0  0  0  0  0  0  0  0
  -30.0889  -23.3803   17.3316 N   0  0  0  0  0  0  0  0  0  0  0  0
  -25.2436  -16.1739   17.2398 N   0  0  0  0  0  0  0  0  0  0  0  0
  -27.4739   -9.8007   16.6758 N   0  0  0  0  0  0  0  0  0  0  0  0
  -23.9011   -7.5856   18.3264 N   0  0  0  0  0  0  0  0  0  0  0  0
  -28.0524  -27.4072   20.6763 N   0  0  0  0  0  0  0  0  0  0  0  0
  -28.2705  -20.4552   19.2569 N   0  0  0  0  0  0  0  0  0  0  0  0
  -27.8209  -15.7025   18.3657 N   0  0  0  0  0  0  0  0  0  0  0  0
  -20.4332  -32.5605   23.4831 N   0  0  0  0  0  0  0  0  0  0  0  0
  -25.8736  -36.6126   24.1489 N   0  0  0  0  0  0  0  0  0  0  0  0
  -28.4170  -36.4108   26.7098 N   0  3  0  0  0  0  0  0  0  0  0  0
  -25.3235   -7.7530   16.5355 O   0  0  0  0  0  0  0  0  0  0  0  0
  -22.2146  -33.1615   22.1091 O   0  0  0  0  0  0  0  0  0  0  0  0
  -23.0411  -36.1848   24.2000 O   0  0  0  0  0  0  0  0  0  0  0  0
  -26.8753  -22.3036   18.8691 O   0  0  0  0  0  0  0  0  0  0  0  0
  -27.3498  -26.2261   22.5838 O   0  0  0  0  0  0  0  0  0  0  0  0
  -27.6732  -35.1584   24.3025 O   0  0  0  0  0  0  0  0  0  0  0  0
  -30.0621  -16.0428   18.8585 O   0  0  0  0  0  0  0  0  0  0  0  0
  -21.4982   -8.4379   23.2797 O   0  0  0  0  0  0  0  0  0  0  0  0
  -26.5236  -28.4661   23.8092 O   0  0  0  0  0  0  0  0  0  1  0  0
  -20.5753   -3.0808   24.2041 F   0  0  0  0  0  0  0  0  0  0  0  0
  -21.7954   -7.3634   25.8095 F   0  0  0  0  0  0  0  0  0  0  0  0
  1  2  1  0  0  0  0
  1  5  2  0  0  0  0
  2  6  2  0  0  0  0
  3 12  2  0  0  0  0
  3 21  1  0  0  0  0
  4 13  1  0  0  0  0
  4 21  2  0  0  0  0
  5 23  1  0  0  0  0
  6 25  1  0  0  0  0
  7 14  2  0  0  0  0
  7 24  1  0  0  0  0
  8 10  2  0  0  0  0
  8 28  1  0  0  0  0
  9 11  2  0  0  0  0
  9 29  1  0  0  0  0
 10 30  1  0  0  0  0
 11 31  1  0  0  0  0
 12 33  1  0  0  0  0
 13 33  2  0  0  0  0
 14 34  1  0  0  0  0
 15 16  2  0  0  0  0
 15 35  1  0  0  0  0
 16 36  1  0  0  0  0
 17 26  1  0  0  0  0
 17 34  2  0  0  0  0
 18 27  1  0  0  0  0
 18 28  2  0  0  0  0
 19 29  2  0  0  0  0
 19 32  1  0  0  0  0
 20 36  2  0  0  0  0
 20 37  1  0  0  0  0
 21 38  1  0  0  0  0
 22 38  1  0  0  0  0
 22 39  2  0  0  0  0
 22 40  1  0  0  0  0
 23 25  2  0  0  0  0
 23 47  1  0  0  0  0
 24 26  2  0  0  0  0
 24 48  1  0  0  0  0
 25 56  1  0  0  0  0
 26 49  1  0  0  0  0
 27 30  2  0  0  0  0
 27 64  1  0  0  0  0
 28 77  1  0  0  0  0
 29 78  1  0  0  0  0
 30 73  1  0  0  0  0
 31 32  2  0  0  0  0
 31 74  1  0  0  0  0
 32 79  1  0  0  0  0
 33 90  1  0  0  0  0
 34 91  1  0  0  0  0
 35 37  2  0  0  0  0
 35 90  1  0  0  0  0
 36 92  1  0  0  0  0
 37 93  1  0  0  0  0
 38 69  2  0  0  0  0
 39 70  1  0  0  0  0
 39 75  1  0  0  0  0
 40 76  1  0  0  0  0
 40 83  2  0  0  0  0
 41 57  1  0  0  0  0
 41 80  1  0  0  0  0
 41 84  2  0  0  0  0
 42 66  1  0  0  0  0
 42 71  1  0  0  0  0
 42 85  2  0  0  0  0
 43 64  1  0  0  0  0
 43 78  1  0  0  0  0
 43 86  2  0  0  0  0
 44 65  1  0  0  0  0
 44 77  1  0  0  0  0
 44 87  2  0  0  0  0
 45 67  1  0  0  0  0
 45 81  1  0  0  0  0
 45 88  2  0  0  0  0
 46 72  1  0  0  0  0
 46 79  1  0  0  0  0
 46 89  2  0  0  0  0
 47 50  1  0  0  0  0
 48 57  1  0  0  0  0
 49 71  1  0  0  0  0
 50 52  1  0  0  0  0
 51 53  1  0  0  0  0
 51 54  1  0  0  0  0
 52 56  1  0  0  0  0
 53 58  1  0  0  0  0
 54 72  1  0  0  0  0
 55 58  1  0  0  0  0
 55 72  1  0  0  0  0
 56 80  1  0  0  0  0
 57 71  1  0  0  0  0
 58 70  1  0  0  0  0
 59 67  1  0  0  0  0
 60 68  1  0  0  0  0
 61 68  1  0  0  0  0
 62 68  1  0  0  0  0
 63 82  1  0  0  0  0
 65 91  1  0  0  0  0
 66 68  1  0  0  0  0
 66 81  1  0  0  0  0
 67 82  1  0  0  0  0
 69 70  1  0  0  0  0
M  CHG  1  82   1
M  ISO  4  46 100  65 101  79 100  91 101
M  END
> <Batch ID>
0064

> <Smiles>
CNC(C)C(=O)NC(C(=O)N1Cc2cc([101O:1][101CH2:1]C(=O)Nc3ccc(N)c(CC(=O)Nc4ccc(N)c([100NH:0][100C:0](=O)N5CCCC(n6nc(-c7ccc(Oc8ccc(F)cc8F)cc7)c(C(N)=O)c6N)C5)c4)c3)ccc2CC1C(=O)NC1CCCc2ccccc21)C(C)(C)C

> <Shape>
0.297

> <Color>
0.060

> <Negative vol penalty>
0.000

$$$$

  -OEChem-04042323153D

 87 95  0     1  0  0  0  0  0999 V2000
  -22.0549  -26.5030   18.1483 C   0  0  0  0  0  0  0  0  0  0  0  0
  -23.0114  -25.5074   18.3198 C   0  0  0  0  0  0  0  0  0  0  0  0
  -21.1708  -29.8896   21.4451 C   0  0  0  0  0  0  0  0  0  0  0  0
  -22.2769  -28.6113   23.1713 C   0  0  0  0  0  0  0  0  0  0  0  0
  -20.8648  -26.4571   18.8733 C   0  0  0  0  0  0  0  0  0  0  0  0
  -22.7787  -24.4658   19.2171 C   0  0  0  0  0  0  0  0  0  0  0  0
  -24.0120  -19.9419   17.3044 C   0  0  0  0  0  0  0  0  0  0  0  0
  -19.9311  -29.4834   21.9386 C   0  0  0  0  0  0  0  0  0  0  0  0
  -21.0371  -28.2051   23.6648 C   0  0  0  0  0  0  0  0  0  0  0  0
  -25.3655  -19.6086   17.2796 C   0  0  0  0  0  0  0  0  0  0  0  0
  -16.4676  -29.0735   22.9638 C   0  0  0  0  0  0  0  0  0  0  0  0
  -15.4727  -30.0423   23.0949 C   0  0  0  0  0  0  0  0  0  0  0  0
  -25.0672  -18.2745   19.2671 C   0  0  0  0  0  0  0  0  0  0  0  0
  -29.9634  -22.6655   17.7922 C   0  0  0  0  0  0  0  0  0  0  0  0
  -30.1987  -23.9072   15.7332 C   0  0  0  0  0  0  0  0  0  0  0  0
  -29.8440  -21.5182   15.6693 C   0  0  0  0  0  0  0  0  0  0  0  0
  -16.8778  -31.2783   24.6230 C   0  0  0  0  0  0  0  0  0  0  0  0
  -22.3438  -29.4535   22.0614 C   0  0  0  0  0  0  0  0  0  0  0  0
  -24.3574  -31.0140   21.9281 C   0  0  0  0  0  0  0  0  0  0  0  0
  -20.6133  -25.4091   19.7728 C   0  0  0  0  0  0  0  0  0  0  0  0
  -23.1768  -19.4520   18.3187 C   0  0  0  0  0  0  0  0  0  0  0  0
  -21.5847  -24.4065   19.9558 C   0  0  0  0  0  0  0  0  0  0  0  0
  -23.7029  -18.6010   19.3011 C   0  0  0  0  0  0  0  0  0  0  0  0
  -30.1601  -23.8757   17.1272 C   0  0  0  0  0  0  0  0  0  0  0  0
  -29.8054  -21.4867   17.0633 C   0  0  0  0  0  0  0  0  0  0  0  0
  -19.8642  -28.6411   23.0485 C   0  0  0  0  0  0  0  0  0  0  0  0
  -25.8940  -18.7772   18.2627 C   0  0  0  0  0  0  0  0  0  0  0  0
  -17.6675  -29.2070   23.6623 C   0  0  0  0  0  0  0  0  0  0  0  0
  -15.6778  -31.1447   23.9245 C   0  0  0  0  0  0  0  0  0  0  0  0
  -30.0406  -22.7285   15.0043 C   0  0  0  0  0  0  0  0  0  0  0  0
  -17.8727  -30.3094   24.4919 C   0  0  0  0  0  0  0  0  0  0  0  0
  -23.6248  -29.8724   21.5518 C   0  0  0  0  0  0  0  0  0  0  0  0
  -25.4951  -30.9603   21.1605 C   0  0  0  0  0  0  0  0  0  0  0  0
  -24.0381  -32.0320   22.8859 C   0  0  0  0  0  0  0  0  0  0  0  0
  -21.4333  -20.7755   20.6236 C   0  0  0  0  0  0  0  0  0  0  0  0
  -20.4362  -17.7236   21.0863 C   0  0  0  0  0  0  0  0  0  0  0  0
  -29.5411  -20.0459   19.1122 C   0  0  0  0  0  0  0  0  0  0  0  0
  -21.0620  -14.3869   20.7380 C   0  0  0  0  0  0  0  0  0  0  0  0
  -28.3598  -26.4301   18.6854 C   0  0  0  0  0  0  0  0  0  0  0  0
  -19.3326  -25.4275   20.5690 C   0  0  0  0  0  0  0  0  0  0  0  0
  -21.7133  -19.7992   18.3161 C   0  0  0  0  0  0  0  0  0  0  0  0
  -22.8443  -18.0322   20.4001 C   0  0  0  0  0  0  0  0  0  0  0  0
  -19.0024  -24.0881   21.2227 C   0  0  0  0  0  0  0  0  0  0  0  0
  -27.0992  -29.3453   16.9503 C   0  0  0  0  0  0  0  0  0  0  0  0
  -20.2355  -23.5120   21.9115 C   0  0  0  0  0  0  0  0  0  0  0  0
  -26.1283  -29.9184   17.9842 C   0  0  0  0  0  0  0  0  0  0  0  0
  -27.0719  -27.8197   16.9524 C   0  0  0  0  0  0  0  0  0  0  0  0
  -26.3734  -27.7718   19.3153 C   0  0  0  0  0  0  0  0  0  0  0  0
  -21.3584  -23.2469   20.9015 C   0  0  1  0  0  0  0  0  0  0  0  0
  -21.0633  -19.6586   19.6891 C   0  0  1  0  0  0  0  0  0  0  0  0
  -26.3708  -29.3100   19.3782 C   0  0  2  0  0  0  0  0  0  0  0  0
  -20.0790  -12.1347   21.2464 C   0  0  0  0  0  0  0  0  0  0  0  0
  -31.7838  -27.1827   18.4686 C   0  0  0  0  0  0  0  0  0  0  0  0
  -32.8801  -24.9882   18.0192 C   0  0  0  0  0  0  0  0  0  0  0  0
  -21.2311  -18.0404   24.0150 C   0  0  0  0  0  0  0  0  0  0  0  0
  -21.1316  -15.5488   24.2393 C   0  0  0  0  0  0  0  0  0  0  0  0
  -19.0748  -16.8290   23.6445 C   0  0  0  0  0  0  0  0  0  0  0  0
  -20.9468  -13.6612   17.8711 C   0  0  0  0  0  0  0  0  0  0  0  0
  -29.3138  -18.5688   19.4132 C   0  0  0  0  0  0  0  0  0  0  0  0
  -27.8415  -18.1959   19.4977 C   0  0  0  0  0  0  0  0  0  1  0  0
  -30.3285  -25.1364   17.9060 C   0  0  1  0  0  0  0  0  0  0  0  0
  -20.9081  -16.5601   21.9245 C   0  0  1  0  0  0  0  0  0  0  0  0
  -20.2011  -13.2493   20.2191 C   0  0  2  0  0  0  0  0  0  0  0  0
  -31.6831  -25.8796   17.6627 C   0  0  0  0  0  0  0  0  0  0  0  0
  -20.6033  -16.7567   23.4364 C   0  0  0  0  0  0  0  0  0  0  0  0
  -24.2449  -29.1465   20.6176 N   0  0  0  0  0  0  0  0  0  0  0  0
  -25.3791  -29.8338   20.4005 N   0  0  0  0  0  0  0  0  0  0  0  0
  -21.4209  -18.4060   20.3580 N   0  0  0  0  0  0  0  0  0  0  0  0
  -27.3280  -27.3042   18.3047 N   0  0  0  0  0  0  0  0  0  0  0  0
  -26.5734  -31.7673   21.0683 N   0  0  0  0  0  0  0  0  0  0  0  0
  -22.8286  -31.9339   23.5872 N   0  0  0  0  0  0  0  0  0  0  0  0
  -29.6061  -20.2587   17.7378 N   0  0  0  0  0  0  0  0  0  0  0  0
  -21.0948  -22.0324   20.1599 N   0  0  0  0  0  0  0  0  0  0  0  0
  -20.3035  -15.3665   21.3432 N   0  0  0  0  0  0  0  0  0  0  0  0
  -29.2163  -26.0292   17.6674 N   0  0  0  0  0  0  0  0  0  0  0  0
  -20.7910  -12.6792   18.9749 N   0  3  0  0  0  0  0  0  0  0  0  0
  -24.7951  -33.0088   23.1014 O   0  0  0  0  0  0  0  0  0  0  0  0
  -21.9838  -20.5160   21.6872 O   0  0  0  0  0  0  0  0  0  0  0  0
  -19.2368  -18.0118   21.0724 O   0  0  0  0  0  0  0  0  0  0  0  0
  -29.6452  -20.8847   20.0009 O   0  0  0  0  0  0  0  0  0  0  0  0
  -22.2854  -14.4030   20.6217 O   0  0  0  0  0  0  0  0  0  0  0  0
  -28.5101  -26.0399   19.8482 O   0  0  0  0  0  0  0  0  0  0  0  0
  -18.6546  -28.2447   23.5304 O   0  0  0  0  0  0  0  0  0  0  0  0
  -27.2149  -18.4508   18.2412 O   0  0  0  0  0  0  0  0  0  1  0  0
  -14.7229  -32.0758   24.0492 F   0  0  0  0  0  0  0  0  0  0  0  0
  -30.0777  -22.7589   13.6656 F   0  0  0  0  0  0  0  0  0  0  0  0
  -19.0239  -30.4438   25.1646 F   0  0  0  0  0  0  0  0  0  0  0  0
  1  2  1  0  0  0  0
  1  5  2  0  0  0  0
  2  6  2  0  0  0  0
  3  8  2  0  0  0  0
  3 18  1  0  0  0  0
  4  9  1  0  0  0  0
  4 18  2  0  0  0  0
  5 20  1  0  0  0  0
  6 22  1  0  0  0  0
  7 10  2  0  0  0  0
  7 21  1  0  0  0  0
  8 26  1  0  0  0  0
  9 26  2  0  0  0  0
 10 27  1  0  0  0  0
 11 12  2  0  0  0  0
 11 28  1  0  0  0  0
 12 29  1  0  0  0  0
 13 23  1  0  0  0  0
 13 27  2  0  0  0  0
 14 24  1  0  0  0  0
 14 25  2  0  0  0  0
 15 24  2  0  0  0  0
 15 30  1  0  0  0  0
 16 25  1  0  0  0  0
 16 30  2  0  0  0  0
 17 29  2  0  0  0  0
 17 31  1  0  0  0  0
 18 32  1  0  0  0  0
 19 32  1  0  0  0  0
 19 33  2  0  0  0  0
 19 34  1  0  0  0  0
 20 22  2  0  0  0  0
 20 40  1  0  0  0  0
 21 23  2  0  0  0  0
 21 41  1  0  0  0  0
 22 49  1  0  0  0  0
 23 42  1  0  0  0  0
 24 61  1  0  0  0  0
 25 72  1  0  0  0  0
 26 83  1  0  0  0  0
 27 84  1  0  0  0  0
 28 31  2  0  0  0  0
 28 83  1  0  0  0  0
 29 85  1  0  0  0  0
 30 86  1  0  0  0  0
 31 87  1  0  0  0  0
 32 66  2  0  0  0  0
 33 67  1  0  0  0  0
 33 70  1  0  0  0  0
 34 71  1  0  0  0  0
 34 77  2  0  0  0  0
 35 50  1  0  0  0  0
 35 73  1  0  0  0  0
 35 78  2  0  0  0  0
 36 62  1  0  0  0  0
 36 68  1  0  0  0  0
 36 79  2  0  0  0  0
 37 59  1  0  0  0  0
 37 72  1  0  0  0  0
 37 80  2  0  0  0  0
 38 63  1  0  0  0  0
 38 74  1  0  0  0  0
 38 81  2  0  0  0  0
 39 69  1  0  0  0  0
 39 75  1  0  0  0  0
 39 82  2  0  0  0  0
 40 43  1  0  0  0  0
 41 50  1  0  0  0  0
 42 68  1  0  0  0  0
 43 45  1  0  0  0  0
 44 46  1  0  0  0  0
 44 47  1  0  0  0  0
 45 49  1  0  0  0  0
 46 51  1  0  0  0  0
 47 69  1  0  0  0  0
 48 51  1  0  0  0  0
 48 69  1  0  0  0  0
 49 73  1  0  0  0  0
 50 68  1  0  0  0  0
 51 67  1  0  0  0  0
 52 63  1  0  0  0  0
 53 64  1  0  0  0  0
 54 64  1  0  0  0  0
 55 65  1  0  0  0  0
 56 65  1  0  0  0  0
 57 65  1  0  0  0  0
 58 76  1  0  0  0  0
 59 60  1  0  0  0  0
 60 84  1  0  0  0  0
 61 64  1  0  0  0  0
 61 75  1  0  0  0  0
 62 65  1  0  0  0  0
 62 74  1  0  0  0  0
 63 76  1  0  0  0  0
 66 67  1  0  0  0  0
M  CHG  1  76   1
M  ISO  4  39 100  60 101  75 100  84 101
M  END
> <Batch ID>
0064

> <Smiles>
CNC(C)C(=O)NC(C(=O)N1Cc2cc([101O:1][101CH2:1]CC(=O)Nc3cc(F)cc(C([100NH:0][100C:0](=O)N4CCCC(n5nc(-c6ccc(Oc7ccc(F)cc7F)cc6)c(C(N)=O)c5N)C4)C(C)C)c3)ccc2CC1C(=O)NC1CCCc2ccccc21)C(C)(C)C

> <Shape>
0.198

> <Color>
0.065

> <Negative vol penalty>
0.000

$$$$

  -OEChem-04042323153D

 89 98  0     1  0  0  0  0  0999 V2000
  -28.9180  -29.6254   27.3841 C   0  0  0  0  0  0  0  0  0  0  0  0
  -28.7623  -28.9502   26.1778 C   0  0  0  0  0  0  0  0  0  0  0  0
  -26.4052  -12.5986   21.4738 C   0  0  0  0  0  0  0  0  0  0  0  0
  -26.3307  -13.0111   19.0944 C   0  0  0  0  0  0  0  0  0  0  0  0
  -27.8004  -30.1256   28.0510 C   0  0  0  0  0  0  0  0  0  0  0  0
  -27.4887  -28.7738   25.6381 C   0  0  0  0  0  0  0  0  0  0  0  0
  -27.3307  -29.7514   20.6718 C   0  0  0  0  0  0  0  0  0  0  0  0
  -25.1160  -12.0685   21.4223 C   0  0  0  0  0  0  0  0  0  0  0  0
  -25.0415  -12.4810   19.0429 C   0  0  0  0  0  0  0  0  0  0  0  0
  -27.8226  -28.7689   19.8135 C   0  0  0  0  0  0  0  0  0  0  0  0
  -23.6532   -9.1601   20.5089 C   0  0  0  0  0  0  0  0  0  0  0  0
  -23.4139   -7.9697   21.1952 C   0  0  0  0  0  0  0  0  0  0  0  0
  -25.5673  -28.0393   19.3659 C   0  0  0  0  0  0  0  0  0  0  0  0
  -29.3268  -21.8214   14.8718 C   0  0  0  0  0  0  0  0  0  0  0  0
  -29.7279  -19.6302   15.8069 C   0  0  0  0  0  0  0  0  0  0  0  0
  -29.5634  -25.9608   15.8374 C   0  0  0  0  0  0  0  0  0  0  0  0
  -29.8856  -21.5900   17.2109 C   0  0  0  0  0  0  0  0  0  0  0  0
  -21.7442   -9.0816   22.5416 C   0  0  0  0  0  0  0  0  0  0  0  0
  -27.0125  -13.0699   20.3099 C   0  0  0  0  0  0  0  0  0  0  0  0
  -29.5570  -12.9215   20.2036 C   0  0  0  0  0  0  0  0  0  0  0  0
  -26.5134  -29.9637   27.5144 C   0  0  0  0  0  0  0  0  0  0  0  0
  -25.9517  -29.8783   20.8924 C   0  0  0  0  0  0  0  0  0  0  0  0
  -26.3527  -29.2711   26.2991 C   0  0  0  0  0  0  0  0  0  0  0  0
  -25.0603  -29.0258   20.2255 C   0  0  0  0  0  0  0  0  0  0  0  0
  -29.4080  -20.4377   14.7155 C   0  0  0  0  0  0  0  0  0  0  0  0
  -29.1576  -25.7857   17.1834 C   0  0  0  0  0  0  0  0  0  0  0  0
  -29.5657  -22.3976   16.1195 C   0  0  0  0  0  0  0  0  0  0  0  0
  -29.9667  -20.2063   17.0546 C   0  0  0  0  0  0  0  0  0  0  0  0
  -24.4342  -12.0097   20.2068 C   0  0  0  0  0  0  0  0  0  0  0  0
  -26.9410  -27.9108   19.1627 C   0  0  0  0  0  0  0  0  0  0  0  0
  -22.9381  -10.3114   20.8390 C   0  0  0  0  0  0  0  0  0  0  0  0
  -22.4593   -7.9303   22.2115 C   0  0  0  0  0  0  0  0  0  0  0  0
  -21.9835  -10.2721   21.8553 C   0  0  0  0  0  0  0  0  0  0  0  0
  -28.3440  -13.6181   20.3626 C   0  0  0  0  0  0  0  0  0  0  0  0
  -30.5265  -13.8849   20.3395 C   0  0  0  0  0  0  0  0  0  0  0  0
  -29.7584  -24.7076   15.3002 C   0  0  0  0  0  0  0  0  0  0  0  0
  -29.1172  -24.4307   17.4278 C   0  0  0  0  0  0  0  0  0  0  0  0
  -29.7869  -11.5282   19.9553 C   0  0  0  0  0  0  0  0  0  0  0  0
  -24.0528  -29.6212   23.4284 C   0  0  0  0  0  0  0  0  0  0  0  0
  -21.7865  -30.6530   21.3495 C   0  0  0  0  0  0  0  0  0  0  0  0
  -20.7464  -30.9565   18.1133 C   0  0  0  0  0  0  0  0  0  0  0  0
  -30.5574  -19.7965   19.4690 C   0  0  0  0  0  0  0  0  0  0  0  0
  -25.3310  -30.4805   28.2952 C   0  0  0  0  0  0  0  0  0  0  0  0
  -25.4356  -30.9605   21.8006 C   0  0  0  0  0  0  0  0  0  0  0  0
  -23.5697  -29.1338   20.4126 C   0  0  0  0  0  0  0  0  0  0  0  0
  -24.0513  -30.5786   27.4689 C   0  0  0  0  0  0  0  0  0  0  0  0
  -31.3582  -18.0841   22.4863 C   0  0  0  0  0  0  0  0  0  0  0  0
  -23.8397  -29.3035   26.6589 C   0  0  0  0  0  0  0  0  0  0  0  0
  -30.7919  -16.6794   22.2672 C   0  0  0  0  0  0  0  0  0  0  0  0
  -30.4647  -19.1585   21.8689 C   0  0  0  0  0  0  0  0  0  0  0  0
  -29.5687  -17.5485   20.2336 C   0  0  0  0  0  0  0  0  0  0  0  0
  -24.9899  -29.0813   25.6693 C   0  0  1  0  0  0  0  0  0  0  0  0
  -24.0427  -30.6664   22.3491 C   0  0  1  0  0  0  0  0  0  0  0  0
  -30.4674  -16.4279   20.7816 C   0  0  2  0  0  0  0  0  0  0  0  0
  -18.8343  -31.8103   16.7306 C   0  0  0  0  0  0  0  0  0  0  0  0
  -20.1289  -28.2169   22.1419 C   0  0  0  0  0  0  0  0  0  0  0  0
  -18.7269  -28.5945   20.1023 C   0  0  0  0  0  0  0  0  0  0  0  0
  -18.8193  -30.3325   21.8893 C   0  0  0  0  0  0  0  0  0  0  0  0
  -22.4806  -32.8966   16.7035 C   0  0  0  0  0  0  0  0  0  0  0  0
  -30.1073  -18.7387   11.3529 C   0  0  0  0  0  0  0  0  0  0  0  0
  -31.4232  -20.4577   12.5834 C   0  0  0  0  0  0  0  0  0  0  0  0
  -29.1519  -19.8216   13.3818 C   0  0  0  0  0  0  0  0  0  0  0  0
  -28.8340  -26.8788   18.1590 C   0  0  0  0  0  0  0  0  0  1  0  0
  -20.8281  -29.9840   20.3941 C   0  0  1  0  0  0  0  0  0  0  0  0
  -20.1878  -32.1382   17.3414 C   0  0  2  0  0  0  0  0  0  0  0  0
  -19.6540  -29.2784   21.1297 C   0  0  0  0  0  0  0  0  0  0  0  0
  -28.5239  -14.9231   20.5827 N   0  0  0  0  0  0  0  0  0  0  0  0
  -29.4846  -23.7852   16.2761 N   0  0  0  0  0  0  0  0  0  0  0  0
  -29.8612  -15.0543   20.5631 N   0  0  0  0  0  0  0  0  0  0  0  0
  -23.1143  -30.2038   21.3154 N   0  0  0  0  0  0  0  0  0  0  0  0
  -30.2036  -18.8564   20.4599 N   0  0  0  0  0  0  0  0  0  0  0  0
  -31.8747  -13.8373   20.2883 N   0  0  0  0  0  0  0  0  0  0  0  0
  -28.6785  -10.6778   19.8433 N   0  0  0  0  0  0  0  0  0  0  0  0
  -30.2913  -19.3857   18.1633 N   0  0  0  0  0  0  0  0  0  0  0  0
  -24.8394  -29.9446   24.5175 N   0  0  0  0  0  0  0  0  0  0  0  0
  -20.4088  -31.0132   19.4490 N   0  0  0  0  0  0  0  0  0  0  0  0
  -21.1176  -32.5258   16.2432 N   0  3  0  0  0  0  0  0  0  0  0  0
  -30.3911  -19.3651   12.6939 N   0  3  0  0  0  0  0  0  0  0  0  0
  -30.9414  -11.0487   19.8526 O   0  0  0  0  0  0  0  0  0  0  0  0
  -23.3943  -28.5977   23.2846 O   0  0  0  0  0  0  0  0  0  0  0  0
  -21.3739  -31.5463   22.0935 O   0  0  0  0  0  0  0  0  0  0  0  0
  -21.4123  -30.0696   17.5836 O   0  0  0  0  0  0  0  0  0  0  0  0
  -31.0846  -20.8743   19.7559 O   0  0  0  0  0  0  0  0  0  0  0  0
  -30.1389  -24.3431   14.0815 O   0  0  0  0  0  0  0  0  0  0  0  0
  -28.8006  -23.7598   18.5296 O   0  0  0  0  0  0  0  0  0  0  0  0
  -23.1763  -11.4924   20.1561 O   0  0  0  0  0  0  0  0  0  0  0  0
  -27.4185  -26.9506   18.3249 O   0  0  0  0  0  0  0  0  0  1  0  0
  -22.2285   -6.7867   22.8695 F   0  0  0  0  0  0  0  0  0  0  0  0
  -21.2926  -11.3746   22.1761 F   0  0  0  0  0  0  0  0  0  0  0  0
  1  2  1  0  0  0  0
  1  5  2  0  0  0  0
  2  6  2  0  0  0  0
  3  8  2  0  0  0  0
  3 19  1  0  0  0  0
  4  9  1  0  0  0  0
  4 19  2  0  0  0  0
  5 21  1  0  0  0  0
  6 23  1  0  0  0  0
  7 10  2  0  0  0  0
  7 22  1  0  0  0  0
  8 29  1  0  0  0  0
  9 29  2  0  0  0  0
 10 30  1  0  0  0  0
 11 12  2  0  0  0  0
 11 31  1  0  0  0  0
 12 32  1  0  0  0  0
 13 24  1  0  0  0  0
 13 30  2  0  0  0  0
 14 25  2  0  0  0  0
 14 27  1  0  0  0  0
 15 25  1  0  0  0  0
 15 28  2  0  0  0  0
 16 26  1  0  0  0  0
 16 36  2  0  0  0  0
 17 27  2  0  0  0  0
 17 28  1  0  0  0  0
 18 32  2  0  0  0  0
 18 33  1  0  0  0  0
 19 34  1  0  0  0  0
 20 34  1  0  0  0  0
 20 35  2  0  0  0  0
 20 38  1  0  0  0  0
 21 23  2  0  0  0  0
 21 43  1  0  0  0  0
 22 24  2  0  0  0  0
 22 44  1  0  0  0  0
 23 52  1  0  0  0  0
 24 45  1  0  0  0  0
 25 62  1  0  0  0  0
 26 37  2  0  0  0  0
 26 63  1  0  0  0  0
 27 68  1  0  0  0  0
 28 74  1  0  0  0  0
 29 86  1  0  0  0  0
 30 87  1  0  0  0  0
 31 33  2  0  0  0  0
 31 86  1  0  0  0  0
 32 88  1  0  0  0  0
 33 89  1  0  0  0  0
 34 67  2  0  0  0  0
 35 69  1  0  0  0  0
 35 72  1  0  0  0  0
 36 68  1  0  0  0  0
 36 84  1  0  0  0  0
 37 68  1  0  0  0  0
 37 85  1  0  0  0  0
 38 73  1  0  0  0  0
 38 79  2  0  0  0  0
 39 53  1  0  0  0  0
 39 75  1  0  0  0  0
 39 80  2  0  0  0  0
 40 64  1  0  0  0  0
 40 70  1  0  0  0  0
 40 81  2  0  0  0  0
 41 65  1  0  0  0  0
 41 76  1  0  0  0  0
 41 82  2  0  0  0  0
 42 71  1  0  0  0  0
 42 74  1  0  0  0  0
 42 83  2  0  0  0  0
 43 46  1  0  0  0  0
 44 53  1  0  0  0  0
 45 70  1  0  0  0  0
 46 48  1  0  0  0  0
 47 49  1  0  0  0  0
 47 50  1  0  0  0  0
 48 52  1  0  0  0  0
 49 54  1  0  0  0  0
 50 71  1  0  0  0  0
 51 54  1  0  0  0  0
 51 71  1  0  0  0  0
 52 75  1  0  0  0  0
 53 70  1  0  0  0  0
 54 69  1  0  0  0  0
 55 65  1  0  0  0  0
 56 66  1  0  0  0  0
 57 66  1  0  0  0  0
 58 66  1  0  0  0  0
 59 77  1  0  0  0  0
 60 78  1  0  0  0  0
 61 78  1  0  0  0  0
 62 78  1  0  0  0  0
 63 87  1  0  0  0  0
 64 66  1  0  0  0  0
 64 76  1  0  0  0  0
 65 77  1  0  0  0  0
 67 69  1  0  0  0  0
M  CHG  2  77   1  78   1
M  ISO  4  42 100  63 101  74 100  87 101
M  END
> <Batch ID>
0064

> <Smiles>
CNC(C)C(=O)NC(C(=O)N1Cc2cc([101O:1][101CH2:1]C3CC(=O)N(c4cc(CN(C)C)cc([100NH:0][100C:0](=O)N5CCCC(n6nc(-c7ccc(Oc8ccc(F)cc8F)cc7)c(C(N)=O)c6N)C5)c4)C3=O)ccc2CC1C(=O)NC1CCCc2ccccc21)C(C)(C)C

> <Shape>
0.270

> <Color>
0.087

> <Negative vol penalty>
0.000

$$$$

  -OEChem-04042323153D

 92101  0     1  0  0  0  0  0999 V2000
  -27.3962  -11.2807   18.8139 C   0  0  0  0  0  0  0  0  0  0  0  0
  -26.8330  -11.6369   20.0341 C   0  0  0  0  0  0  0  0  0  0  0  0
  -18.6609  -28.5708   23.7057 C   0  0  0  0  0  0  0  0  0  0  0  0
  -29.7013  -24.8952   19.8018 C   0  0  0  0  0  0  0  0  0  0  0  0
  -27.9867  -23.5328   20.8220 C   0  0  0  0  0  0  0  0  0  0  0  0
  -27.7594  -12.2704   17.9029 C   0  0  0  0  0  0  0  0  0  0  0  0
  -26.6218  -12.9820   20.3388 C   0  0  0  0  0  0  0  0  0  0  0  0
  -23.8539  -20.3400   23.0957 C   0  0  0  0  0  0  0  0  0  0  0  0
  -17.9890  -27.4256   23.2783 C   0  0  0  0  0  0  0  0  0  0  0  0
  -19.8883  -28.9122   23.1375 C   0  0  0  0  0  0  0  0  0  0  0  0
  -30.6798  -24.0291   20.2896 C   0  0  0  0  0  0  0  0  0  0  0  0
  -28.9652  -22.6667   21.3098 C   0  0  0  0  0  0  0  0  0  0  0  0
  -23.7703  -21.6219   22.5540 C   0  0  0  0  0  0  0  0  0  0  0  0
  -30.8819  -20.1518   20.1173 C   0  0  0  0  0  0  0  0  0  0  0  0
  -30.6588  -18.7817   19.9808 C   0  0  0  0  0  0  0  0  0  0  0  0
  -23.1173  -20.6764   20.4329 C   0  0  0  0  0  0  0  0  0  0  0  0
  -30.7632  -18.5255   22.3809 C   0  0  0  0  0  0  0  0  0  0  0  0
  -28.3547  -24.6471   20.0681 C   0  0  0  0  0  0  0  0  0  0  0  0
  -26.6738  -25.4591   18.3294 C   0  0  0  0  0  0  0  0  0  0  0  0
  -27.5637  -13.6286   18.2025 C   0  0  0  0  0  0  0  0  0  0  0  0
  -23.5800  -19.2142   22.3058 C   0  0  0  0  0  0  0  0  0  0  0  0
  -26.9597  -13.9945   19.4226 C   0  0  0  0  0  0  0  0  0  0  0  0
  -23.1956  -19.3814   20.9678 C   0  0  0  0  0  0  0  0  0  0  0  0
  -18.5444  -26.6218   22.2827 C   0  0  0  0  0  0  0  0  0  0  0  0
  -19.7717  -26.9632   21.7146 C   0  0  0  0  0  0  0  0  0  0  0  0
  -20.4437  -28.1084   22.1420 C   0  0  0  0  0  0  0  0  0  0  0  0
  -30.3118  -22.9148   21.0436 C   0  0  0  0  0  0  0  0  0  0  0  0
  -23.4048  -21.7901   21.2216 C   0  0  0  0  0  0  0  0  0  0  0  0
  -31.0457  -20.7088   21.3856 C   0  0  0  0  0  0  0  0  0  0  0  0
  -30.5994  -17.9686   21.1126 C   0  0  0  0  0  0  0  0  0  0  0  0
  -30.9863  -19.8957   22.5174 C   0  0  0  0  0  0  0  0  0  0  0  0
  -27.3435  -25.5418   19.5649 C   0  0  0  0  0  0  0  0  0  0  0  0
  -25.8188  -26.5340   18.3297 C   0  0  0  0  0  0  0  0  0  0  0  0
  -20.1351  -26.2600   19.3051 C   0  0  0  0  0  0  0  0  0  0  0  0
  -26.8122  -24.4967   17.2757 C   0  0  0  0  0  0  0  0  0  0  0  0
  -25.2522  -16.6875   21.3448 C   0  0  0  0  0  0  0  0  0  0  0  0
  -22.3881  -15.7314   20.1594 C   0  0  0  0  0  0  0  0  0  0  0  0
  -19.6122  -17.2557   18.4308 C   0  0  0  0  0  0  0  0  0  0  0  0
  -22.4697  -29.5875   21.9102 C   0  0  0  0  0  0  0  0  0  0  0  0
  -16.3984  -24.7009   19.8937 C   0  0  0  0  0  0  0  0  0  0  0  0
  -27.9680  -14.6581   17.1768 C   0  0  0  0  0  0  0  0  0  0  0  0
  -23.6487  -17.8396   22.9125 C   0  0  0  0  0  0  0  0  0  0  0  0
  -22.8715  -18.2064   20.0830 C   0  0  0  0  0  0  0  0  0  0  0  0
  -28.1163  -16.0573   17.7653 C   0  0  0  0  0  0  0  0  0  0  0  0
  -25.6143  -30.8236   20.7875 C   0  0  0  0  0  0  0  0  0  0  0  0
  -26.8891  -16.4053   18.5944 C   0  0  0  0  0  0  0  0  0  0  0  0
  -26.3167  -29.5806   20.2365 C   0  0  0  0  0  0  0  0  0  0  0  0
  -24.7778  -30.5010   22.0244 C   0  0  0  0  0  0  0  0  0  0  0  0
  -21.1823  -25.0008   21.0102 C   0  0  0  0  0  0  0  0  0  0  0  0
  -24.5210  -28.1589   21.3048 C   0  0  0  0  0  0  0  0  0  0  0  0
  -26.7486  -15.4526   19.7884 C   0  0  1  0  0  0  0  0  0  0  0  0
  -23.8475  -16.7381   21.8758 C   0  0  1  0  0  0  0  0  0  0  0  0
  -21.8730  -24.6741   19.6919 C   0  0  2  0  0  0  0  0  0  0  0  0
  -25.3239  -28.4216   20.0203 C   0  0  2  0  0  0  0  0  0  0  0  0
  -20.8225  -25.0674   18.6342 C   0  0  1  0  0  0  0  0  0  0  0  0
  -19.7591  -23.9914   18.3731 C   0  0  0  0  0  0  0  0  0  0  0  0
  -17.1853  -16.6207   18.3627 C   0  0  0  0  0  0  0  0  0  0  0  0
  -23.1571  -14.2039   17.6325 C   0  0  0  0  0  0  0  0  0  0  0  0
  -20.9746  -14.9068   16.6272 C   0  0  0  0  0  0  0  0  0  0  0  0
  -21.0014  -13.4803   18.6734 C   0  0  0  0  0  0  0  0  0  0  0  0
  -18.7637  -19.9449   19.3293 C   0  0  0  0  0  0  0  0  0  0  0  0
  -17.8002  -25.4014   21.8463 C   0  0  0  0  0  0  0  0  0  0  0  0
  -22.3776  -23.2389   19.6399 C   0  0  0  0  0  0  0  0  0  1  0  0
  -21.4770  -25.4841   17.3159 C   0  0  0  0  0  0  0  0  0  0  0  0
  -21.6570  -15.9156   18.8515 C   0  0  1  0  0  0  0  0  0  0  0  0
  -18.2293  -17.5280   18.9948 C   0  0  2  0  0  0  0  0  0  0  0  0
  -21.7160  -14.6461   17.9557 C   0  0  0  0  0  0  0  0  0  0  0  0
  -26.9481  -26.5867   20.2968 N   0  0  0  0  0  0  0  0  0  0  0  0
  -26.0207  -27.1706   19.5189 N   0  0  0  0  0  0  0  0  0  0  0  0
  -20.3370  -26.1377   20.6958 N   0  0  0  0  0  0  0  0  0  0  0  0
  -22.9592  -16.8823   20.7206 N   0  0  0  0  0  0  0  0  0  0  0  0
  -23.8577  -29.3967   21.7436 N   0  0  0  0  0  0  0  0  0  0  0  0
  -24.9214  -26.9873   17.4288 N   0  0  0  0  0  0  0  0  0  0  0  0
  -27.7369  -23.4561   17.4385 N   0  0  0  0  0  0  0  0  0  0  0  0
  -15.8504  -25.0069   18.6525 N   0  0  0  0  0  0  0  0  0  0  0  0
  -16.1429  -23.4561   20.4595 N   0  0  0  0  0  0  0  0  0  0  0  0
  -21.6916  -28.4779   21.5818 N   0  0  0  0  0  0  0  0  0  0  0  0
  -25.4701  -15.6793   20.4254 N   0  0  0  0  0  0  0  0  0  0  0  0
  -20.3049  -16.3415   19.1961 N   0  0  0  0  0  0  0  0  0  0  0  0
  -17.1899  -25.6506   20.5398 N   0  3  0  0  0  0  0  0  0  0  0  0
  -17.8366  -18.9433   18.7426 N   0  3  0  0  0  0  0  0  0  0  0  0
  -19.4901  -27.0936   18.6839 O   0  0  0  0  0  0  0  0  0  0  0  0
  -26.1476  -24.5670   16.2141 O   0  0  0  0  0  0  0  0  0  0  0  0
  -26.0768  -17.5038   21.7388 O   0  0  0  0  0  0  0  0  0  0  0  0
  -22.4440  -14.6090   20.6681 O   0  0  0  0  0  0  0  0  0  0  0  0
  -20.0341  -17.7967   17.4111 O   0  0  0  0  0  0  0  0  0  0  0  0
  -22.0036  -30.6653   22.2884 O   0  0  0  0  0  0  0  0  0  0  0  0
  -31.2663  -22.0693   21.5196 O   0  0  0  0  0  0  0  0  0  0  0  0
  -23.3230  -23.0402   20.6901 O   0  0  0  0  0  0  0  0  0  1  0  0
  -30.3836  -16.6531   20.9814 F   0  0  0  0  0  0  0  0  0  0  0  0
  -31.1417  -20.4252   23.7386 F   0  0  0  0  0  0  0  0  0  0  0  0
  -20.5060  -25.9436   16.4930 F   0  0  0  0  0  0  0  0  0  0  0  0
  1  2  1  0  0  0  0
  1  6  2  0  0  0  0
  2  7  2  0  0  0  0
  3  9  1  0  0  0  0
  3 10  2  0  0  0  0
  4 11  2  0  0  0  0
  4 18  1  0  0  0  0
  5 12  1  0  0  0  0
  5 18  2  0  0  0  0
  6 20  1  0  0  0  0
  7 22  1  0  0  0  0
  8 13  2  0  0  0  0
  8 21  1  0  0  0  0
  9 24  2  0  0  0  0
 10 26  1  0  0  0  0
 11 27  1  0  0  0  0
 12 27  2  0  0  0  0
 13 28  1  0  0  0  0
 14 15  2  0  0  0  0
 14 29  1  0  0  0  0
 15 30  1  0  0  0  0
 16 23  1  0  0  0  0
 16 28  2  0  0  0  0
 17 30  2  0  0  0  0
 17 31  1  0  0  0  0
 18 32  1  0  0  0  0
 19 32  1  0  0  0  0
 19 33  2  0  0  0  0
 19 35  1  0  0  0  0
 20 22  2  0  0  0  0
 20 41  1  0  0  0  0
 21 23  2  0  0  0  0
 21 42  1  0  0  0  0
 22 51  1  0  0  0  0
 23 43  1  0  0  0  0
 24 25  1  0  0  0  0
 24 62  1  0  0  0  0
 25 26  2  0  0  0  0
 25 70  1  0  0  0  0
 26 77  1  0  0  0  0
 27 88  1  0  0  0  0
 28 89  1  0  0  0  0
 29 31  2  0  0  0  0
 29 88  1  0  0  0  0
 30 90  1  0  0  0  0
 31 91  1  0  0  0  0
 32 68  2  0  0  0  0
 33 69  1  0  0  0  0
 33 73  1  0  0  0  0
 34 55  1  0  0  0  0
 34 70  1  0  0  0  0
 34 82  2  0  0  0  0
 35 74  1  0  0  0  0
 35 83  2  0  0  0  0
 36 52  1  0  0  0  0
 36 78  1  0  0  0  0
 36 84  2  0  0  0  0
 37 65  1  0  0  0  0
 37 71  1  0  0  0  0
 37 85  2  0  0  0  0
 38 66  1  0  0  0  0
 38 79  1  0  0  0  0
 38 86  2  0  0  0  0
 39 72  1  0  0  0  0
 39 77  1  0  0  0  0
 39 87  2  0  0  0  0
 40 75  1  0  0  0  0
 40 76  1  0  0  0  0
 40 80  2  0  0  0  0
 41 44  1  0  0  0  0
 42 52  1  0  0  0  0
 43 71  1  0  0  0  0
 44 46  1  0  0  0  0
 45 47  1  0  0  0  0
 45 48  1  0  0  0  0
 46 51  1  0  0  0  0
 47 54  1  0  0  0  0
 48 72  1  0  0  0  0
 49 53  1  0  0  0  0
 49 70  1  0  0  0  0
 50 54  1  0  0  0  0
 50 72  1  0  0  0  0
 51 78  1  0  0  0  0
 52 71  1  0  0  0  0
 53 55  1  0  0  0  0
 53 63  1  0  0  0  0
 54 69  1  0  0  0  0
 55 56  1  0  0  0  0
 55 64  1  0  0  0  0
 57 66  1  0  0  0  0
 58 67  1  0  0  0  0
 59 67  1  0  0  0  0
 60 67  1  0  0  0  0
 61 81  1  0  0  0  0
 62 80  1  0  0  0  0
 63 89  1  0  0  0  0
 64 92  1  0  0  0  0
 65 67  1  0  0  0  0
 65 79  1  0  0  0  0
 66 81  1  0  0  0  0
 68 69  1  0  0  0  0
M  CHG  2  80   1  81   1
M  ISO  4  39 100  63 101  77 100  89 101
M  END
> <Batch ID>
0064

> <Smiles>
CNC(C)C(=O)NC(C(=O)N1Cc2cc([101O:1][101CH2:1]C3CN(c4c(CNC(=N)N)cccc4[100NH:0][100C:0](=O)N4CCCC(n5nc(-c6ccc(Oc7ccc(F)cc7F)cc6)c(C(N)=O)c5N)C4)C(=O)C3(C)CF)ccc2CC1C(=O)NC1CCCc2ccccc21)C(C)(C)C

> <Shape>
0.205

> <Color>
0.066

> <Negative vol penalty>
0.000

$$$$

  -OEChem-04042323153D

 83 91  0     1  0  0  0  0  0999 V2000
  -20.7070  -33.9165   15.3762 C   0  0  0  0  0  0  0  0  0  0  0  0
  -21.5300  -32.7999   15.4822 C   0  0  0  0  0  0  0  0  0  0  0  0
  -32.2564  -18.5006   21.1899 C   0  0  0  0  0  0  0  0  0  0  0  0
  -22.9327  -11.5986   21.5332 C   0  0  0  0  0  0  0  0  0  0  0  0
  -22.9220  -13.9949   21.2250 C   0  0  0  0  0  0  0  0  0  0  0  0
  -20.9190  -35.0184   16.2037 C   0  0  0  0  0  0  0  0  0  0  0  0
  -22.5662  -32.7849   16.4151 C   0  0  0  0  0  0  0  0  0  0  0  0
  -24.6134  -27.9492   19.5664 C   0  0  0  0  0  0  0  0  0  0  0  0
  -31.4568  -19.6085   20.9094 C   0  0  0  0  0  0  0  0  0  0  0  0
  -31.8228  -17.2214   20.8414 C   0  0  0  0  0  0  0  0  0  0  0  0
  -21.9161  -11.7160   22.4810 C   0  0  0  0  0  0  0  0  0  0  0  0
  -21.9053  -14.1122   22.1727 C   0  0  0  0  0  0  0  0  0  0  0  0
  -25.6987  -27.0954   19.3741 C   0  0  0  0  0  0  0  0  0  0  0  0
  -18.5582  -13.6644   22.3011 C   0  0  0  0  0  0  0  0  0  0  0  0
  -17.4842  -14.5009   21.9971 C   0  0  0  0  0  0  0  0  0  0  0  0
  -27.0050  -28.4198   20.9098 C   0  0  0  0  0  0  0  0  0  0  0  0
  -29.7899  -18.1581   19.9321 C   0  0  0  0  0  0  0  0  0  0  0  0
  -17.9817  -15.8461   23.9414 C   0  0  0  0  0  0  0  0  0  0  0  0
  -23.4357  -12.7381   20.9052 C   0  0  0  0  0  0  0  0  0  0  0  0
  -24.3382  -12.4385   18.5380 C   0  0  0  0  0  0  0  0  0  0  0  0
  -21.9523  -35.0131   17.1539 C   0  0  0  0  0  0  0  0  0  0  0  0
  -24.7194  -29.0528   20.4249 C   0  0  0  0  0  0  0  0  0  0  0  0
  -22.7931  -33.8883   17.2552 C   0  0  0  0  0  0  0  0  0  0  0  0
  -25.9188  -29.2846   21.1133 C   0  0  0  0  0  0  0  0  0  0  0  0
  -30.2236  -19.4373   20.2805 C   0  0  0  0  0  0  0  0  0  0  0  0
  -30.5896  -17.0501   20.2126 C   0  0  0  0  0  0  0  0  0  0  0  0
  -21.4024  -12.9727   22.8007 C   0  0  0  0  0  0  0  0  0  0  0  0
  -26.8956  -27.3323   20.0436 C   0  0  0  0  0  0  0  0  0  0  0  0
  -19.3439  -13.9186   23.4253 C   0  0  0  0  0  0  0  0  0  0  0  0
  -17.1960  -15.5918   22.8172 C   0  0  0  0  0  0  0  0  0  0  0  0
  -19.0557  -15.0095   24.2454 C   0  0  0  0  0  0  0  0  0  0  0  0
  -24.4863  -12.6176   19.9265 C   0  0  0  0  0  0  0  0  0  0  0  0
  -25.6245  -12.3836   18.0598 C   0  0  0  0  0  0  0  0  0  0  0  0
  -23.1445  -12.3315   17.7510 C   0  0  0  0  0  0  0  0  0  0  0  0
  -24.5009  -32.2035   20.0655 C   0  0  0  0  0  0  0  0  0  0  0  0
  -24.7528  -32.1982   23.2995 C   0  0  0  0  0  0  0  0  0  0  0  0
  -29.6888  -21.8983   20.2713 C   0  0  0  0  0  0  0  0  0  0  0  0
  -25.8009  -30.5901   26.1213 C   0  0  0  0  0  0  0  0  0  0  0  0
  -30.8213  -14.5459   20.0656 C   0  0  0  0  0  0  0  0  0  0  0  0
  -22.1724  -36.2463   17.9938 C   0  0  0  0  0  0  0  0  0  0  0  0
  -23.5311  -29.9490   20.6421 C   0  0  0  0  0  0  0  0  0  0  0  0
  -26.0777  -30.4439   22.0615 C   0  0  0  0  0  0  0  0  0  0  0  0
  -23.0573  -36.0025   19.2136 C   0  0  0  0  0  0  0  0  0  0  0  0
  -30.0581  -11.1378   19.3733 C   0  0  0  0  0  0  0  0  0  0  0  0
  -24.2963  -35.2029   18.8230 C   0  0  0  0  0  0  0  0  0  0  0  0
  -28.5294  -11.1154   19.3042 C   0  0  0  0  0  0  0  0  0  0  0  0
  -30.5634  -12.1035   20.4438 C   0  0  0  0  0  0  0  0  0  0  0  0
  -28.5053  -13.4474   20.2779 C   0  0  0  0  0  0  0  0  0  0  0  0
  -23.9122  -33.8244   18.2719 C   0  0  1  0  0  0  0  0  0  0  0  0
  -23.9139  -31.3378   21.1442 C   0  0  1  0  0  0  0  0  0  0  0  0
  -27.9505  -12.5375   19.1698 C   0  0  2  0  0  0  0  0  0  0  0  0
  -25.9023  -30.8514   28.6150 C   0  0  0  0  0  0  0  0  0  0  0  0
  -27.0700  -34.1602   22.9972 C   0  0  0  0  0  0  0  0  0  0  0  0
  -27.7210  -33.6473   25.3597 C   0  0  0  0  0  0  0  0  0  0  0  0
  -25.5021  -34.6789   24.8753 C   0  0  0  0  0  0  0  0  0  0  0  0
  -24.1313  -28.1857   26.5575 C   0  0  0  0  0  0  0  0  0  0  0  0
  -28.5472  -22.7873   19.7981 C   0  0  0  0  0  0  0  0  0  0  0  0
  -28.7992  -24.2651   20.0766 C   0  0  0  0  0  0  0  0  0  0  0  0
  -27.6675  -25.1371   19.5526 C   0  0  0  0  0  0  0  0  0  1  0  0
  -25.8969  -32.2530   24.2828 C   0  0  1  0  0  0  0  0  0  0  0  0
  -25.1024  -30.3110   27.4399 C   0  0  2  0  0  0  0  0  0  0  0  0
  -26.5454  -33.6640   24.3595 C   0  0  0  0  0  0  0  0  0  0  0  0
  -25.7658  -12.6726   20.3057 N   0  0  0  0  0  0  0  0  0  0  0  0
  -26.4334  -12.5272   19.1485 N   0  0  0  0  0  0  0  0  0  0  0  0
  -24.8892  -31.2953   22.2356 N   0  0  0  0  0  0  0  0  0  0  0  0
  -29.9763  -13.4312   20.2504 N   0  0  0  0  0  0  0  0  0  0  0  0
  -26.1313  -12.2269   16.8184 N   0  0  0  0  0  0  0  0  0  0  0  0
  -21.9058  -12.4089   18.4020 N   0  0  0  0  0  0  0  0  0  0  0  0
  -29.4131  -20.5619   19.9958 N   0  0  0  0  0  0  0  0  0  0  0  0
  -30.1497  -15.7505   19.8588 N   0  0  0  0  0  0  0  0  0  0  0  0
  -23.5640  -32.9271   19.3527 N   0  0  0  0  0  0  0  0  0  0  0  0
  -25.3670  -31.7691   25.5531 N   0  0  0  0  0  0  0  0  0  0  0  0
  -24.9212  -28.8440   27.6297 N   0  3  0  0  0  0  0  0  0  0  0  0
  -23.1756  -12.1555   16.5094 O   0  0  0  0  0  0  0  0  0  0  0  0
  -25.7142  -32.2153   19.8936 O   0  0  0  0  0  0  0  0  0  0  0  0
  -23.7709  -32.9245   23.4731 O   0  0  0  0  0  0  0  0  0  0  0  0
  -30.6885  -22.3562   20.8147 O   0  0  0  0  0  0  0  0  0  0  0  0
  -26.6493  -29.8392   25.6449 O   0  0  0  0  0  0  0  0  0  0  0  0
  -32.0500  -14.4353   20.0618 O   0  0  0  0  0  0  0  0  0  0  0  0
  -20.4102  -13.0876   23.7254 O   0  0  0  0  0  0  0  0  0  0  0  0
  -27.9567  -26.5009   19.8572 O   0  0  0  0  0  0  0  0  0  1  0  0
  -16.1657  -16.3960   22.5243 F   0  0  0  0  0  0  0  0  0  0  0  0
  -19.8076  -15.2595   25.3261 F   0  0  0  0  0  0  0  0  0  0  0  0
  1  2  1  0  0  0  0
  1  6  2  0  0  0  0
  2  7  2  0  0  0  0
  3  9  2  0  0  0  0
  3 10  1  0  0  0  0
  4 11  2  0  0  0  0
  4 19  1  0  0  0  0
  5 12  1  0  0  0  0
  5 19  2  0  0  0  0
  6 21  1  0  0  0  0
  7 23  1  0  0  0  0
  8 13  2  0  0  0  0
  8 22  1  0  0  0  0
  9 25  1  0  0  0  0
 10 26  2  0  0  0  0
 11 27  1  0  0  0  0
 12 27  2  0  0  0  0
 13 28  1  0  0  0  0
 14 15  2  0  0  0  0
 14 29  1  0  0  0  0
 15 30  1  0  0  0  0
 16 24  1  0  0  0  0
 16 28  2  0  0  0  0
 17 25  2  0  0  0  0
 17 26  1  0  0  0  0
 18 30  2  0  0  0  0
 18 31  1  0  0  0  0
 19 32  1  0  0  0  0
 20 32  1  0  0  0  0
 20 33  2  0  0  0  0
 20 34  1  0  0  0  0
 21 23  2  0  0  0  0
 21 40  1  0  0  0  0
 22 24  2  0  0  0  0
 22 41  1  0  0  0  0
 23 49  1  0  0  0  0
 24 42  1  0  0  0  0
 25 69  1  0  0  0  0
 26 70  1  0  0  0  0
 27 80  1  0  0  0  0
 28 81  1  0  0  0  0
 29 31  2  0  0  0  0
 29 80  1  0  0  0  0
 30 82  1  0  0  0  0
 31 83  1  0  0  0  0
 32 63  2  0  0  0  0
 33 64  1  0  0  0  0
 33 67  1  0  0  0  0
 34 68  1  0  0  0  0
 34 74  2  0  0  0  0
 35 50  1  0  0  0  0
 35 71  1  0  0  0  0
 35 75  2  0  0  0  0
 36 60  1  0  0  0  0
 36 65  1  0  0  0  0
 36 76  2  0  0  0  0
 37 57  1  0  0  0  0
 37 69  1  0  0  0  0
 37 77  2  0  0  0  0
 38 61  1  0  0  0  0
 38 72  1  0  0  0  0
 38 78  2  0  0  0  0
 39 66  1  0  0  0  0
 39 70  1  0  0  0  0
 39 79  2  0  0  0  0
 40 43  1  0  0  0  0
 41 50  1  0  0  0  0
 42 65  1  0  0  0  0
 43 45  1  0  0  0  0
 44 46  1  0  0  0  0
 44 47  1  0  0  0  0
 45 49  1  0  0  0  0
 46 51  1  0  0  0  0
 47 66  1  0  0  0  0
 48 51  1  0  0  0  0
 48 66  1  0  0  0  0
 49 71  1  0  0  0  0
 50 65  1  0  0  0  0
 51 64  1  0  0  0  0
 52 61  1  0  0  0  0
 53 62  1  0  0  0  0
 54 62  1  0  0  0  0
 55 62  1  0  0  0  0
 56 73  1  0  0  0  0
 57 58  1  0  0  0  0
 58 59  1  0  0  0  0
 59 81  1  0  0  0  0
 60 62  1  0  0  0  0
 60 72  1  0  0  0  0
 61 73  1  0  0  0  0
 63 64  1  0  0  0  0
M  CHG  1  73   1
M  ISO  4  39 100  59 101  70 100  81 101
M  END
> <Batch ID>
0064

> <Smiles>
CNC(C)C(=O)NC(C(=O)N1Cc2cc([101O:1][101CH2:1]CCC(=O)Nc3cccc([100NH:0][100C:0](=O)N4CCCC(n5nc(-c6ccc(Oc7ccc(F)cc7F)cc6)c(C(N)=O)c5N)C4)c3)ccc2CC1C(=O)NC1CCCc2ccccc21)C(C)(C)C

> <Shape>
0.275

> <Color>
0.101

> <Negative vol penalty>
0.000

$$$$

  -OEChem-04042323153D

 88 97  0     1  0  0  0  0  0999 V2000
  -17.9153  -25.2134   32.0274 C   0  0  0  0  0  0  0  0  0  0  0  0
  -19.0784  -25.0276   31.2870 C   0  0  0  0  0  0  0  0  0  0  0  0
  -23.0000   -9.8949   19.9799 C   0  0  0  0  0  0  0  0  0  0  0  0
  -23.7250   -9.9454   22.2840 C   0  0  0  0  0  0  0  0  0  0  0  0
  -17.2204  -24.1099   32.5205 C   0  0  0  0  0  0  0  0  0  0  0  0
  -19.5477  -23.7379   31.0402 C   0  0  0  0  0  0  0  0  0  0  0  0
  -22.3970  -21.7603   25.9928 C   0  0  0  0  0  0  0  0  0  0  0  0
  -22.2331   -8.7605   20.2461 C   0  0  0  0  0  0  0  0  0  0  0  0
  -22.9581   -8.8111   22.5502 C   0  0  0  0  0  0  0  0  0  0  0  0
  -23.7442  -21.5655   25.6915 C   0  0  0  0  0  0  0  0  0  0  0  0
  -23.2016   -5.4721   22.0779 C   0  0  0  0  0  0  0  0  0  0  0  0
  -23.7888   -4.4547   22.8299 C   0  0  0  0  0  0  0  0  0  0  0  0
  -31.6175  -19.3356   22.7700 C   0  0  0  0  0  0  0  0  0  0  0  0
  -31.8890  -17.2656   21.5544 C   0  0  0  0  0  0  0  0  0  0  0  0
  -23.5287  -19.2321   26.2643 C   0  0  0  0  0  0  0  0  0  0  0  0
  -28.9452  -21.3308   25.4162 C   0  0  0  0  0  0  0  0  0  0  0  0
  -29.8138  -17.7296   22.7012 C   0  0  0  0  0  0  0  0  0  0  0  0
  -22.0649   -4.6979   24.5051 C   0  0  0  0  0  0  0  0  0  0  0  0
  -23.7460  -10.4873   20.9989 C   0  0  0  0  0  0  0  0  0  0  0  0
  -32.3997  -18.4909   21.9826 C   0  0  0  0  0  0  0  0  0  0  0  0
  -24.1320  -13.0028   20.8231 C   0  0  0  0  0  0  0  0  0  0  0  0
  -17.6762  -22.8057   32.2715 C   0  0  0  0  0  0  0  0  0  0  0  0
  -21.6068  -20.6930   26.4432 C   0  0  0  0  0  0  0  0  0  0  0  0
  -18.8590  -22.6159   31.5316 C   0  0  0  0  0  0  0  0  0  0  0  0
  -22.1710  -19.4155   26.5681 C   0  0  0  0  0  0  0  0  0  0  0  0
  -27.7755  -20.8264   24.7961 C   0  0  0  0  0  0  0  0  0  0  0  0
  -30.3245  -18.9550   23.1294 C   0  0  0  0  0  0  0  0  0  0  0  0
  -30.5961  -16.8849   21.9136 C   0  0  0  0  0  0  0  0  0  0  0  0
  -22.2122   -8.2187   21.5312 C   0  0  0  0  0  0  0  0  0  0  0  0
  -24.3110  -20.3019   25.8300 C   0  0  0  0  0  0  0  0  0  0  0  0
  -22.0460   -6.1025   22.5395 C   0  0  0  0  0  0  0  0  0  0  0  0
  -23.2205   -4.0675   24.0435 C   0  0  0  0  0  0  0  0  0  0  0  0
  -21.4777   -5.7154   23.7531 C   0  0  0  0  0  0  0  0  0  0  0  0
  -24.5388  -11.6587   20.7244 C   0  0  0  0  0  0  0  0  0  0  0  0
  -25.2420  -13.7251   20.4589 C   0  0  0  0  0  0  0  0  0  0  0  0
  -30.0216  -20.6801   24.8547 C   0  0  0  0  0  0  0  0  0  0  0  0
  -28.1727  -19.8828   23.8747 C   0  0  0  0  0  0  0  0  0  0  0  0
  -33.7479  -18.8877   21.6082 C   0  0  0  0  0  0  0  0  0  0  0  0
  -22.8642  -13.5495   21.2097 C   0  0  0  0  0  0  0  0  0  0  0  0
  -19.9907  -20.0669   29.1078 C   0  0  0  0  0  0  0  0  0  0  0  0
  -18.9856  -17.4808   27.4273 C   0  0  0  0  0  0  0  0  0  0  0  0
  -19.5594  -15.2735   24.8886 C   0  0  0  0  0  0  0  0  0  0  0  0
  -30.7217  -14.6846   20.6932 C   0  0  0  0  0  0  0  0  0  0  0  0
  -16.9171  -21.6456   32.8653 C   0  0  0  0  0  0  0  0  0  0  0  0
  -20.1486  -20.9139   26.7385 C   0  0  0  0  0  0  0  0  0  0  0  0
  -21.3608  -18.2323   27.0286 C   0  0  0  0  0  0  0  0  0  0  0  0
  -17.2762  -20.2995   32.2414 C   0  0  0  0  0  0  0  0  0  0  0  0
  -29.6029  -12.2323   18.3670 C   0  0  0  0  0  0  0  0  0  0  0  0
  -18.7901  -20.1496   32.1300 C   0  0  0  0  0  0  0  0  0  0  0  0
  -28.1522  -11.9750   18.7810 C   0  0  0  0  0  0  0  0  0  0  0  0
  -30.5034  -12.4753   19.5768 C   0  0  0  0  0  0  0  0  0  0  0  0
  -28.5882  -13.2646   20.9104 C   0  0  0  0  0  0  0  0  0  0  0  0
  -19.3864  -21.2317   31.2218 C   0  0  1  0  0  0  0  0  0  0  0  0
  -19.5644  -19.8662   27.6810 C   0  0  1  0  0  0  0  0  0  0  0  0
  -27.6306  -13.0786   19.7221 C   0  0  2  0  0  0  0  0  0  0  0  0
  -34.7585  -17.7977   21.3985 C   0  0  0  0  0  0  0  0  0  0  0  0
  -18.5788  -13.2459   23.7817 C   0  0  0  0  0  0  0  0  0  0  0  0
  -19.9246  -15.7552   29.7620 C   0  0  0  0  0  0  0  0  0  0  0  0
  -19.8102  -13.7655   28.2467 C   0  0  0  0  0  0  0  0  0  0  0  0
  -17.7405  -15.0589   28.7624 C   0  0  0  0  0  0  0  0  0  0  0  0
  -19.2981  -16.6731   22.2940 C   0  0  0  0  0  0  0  0  0  0  0  0
  -26.3659  -21.2458   25.0934 C   0  0  0  0  0  0  0  0  0  1  0  0
  -19.4855  -16.0691   27.2372 C   0  0  1  0  0  0  0  0  0  0  0  0
  -18.6627  -14.7644   23.7745 C   0  0  2  0  0  0  0  0  0  0  0  0
  -19.2562  -15.1847   28.4952 C   0  0  0  0  0  0  0  0  0  0  0  0
  -25.8081  -11.5319   20.3283 N   0  0  0  0  0  0  0  0  0  0  0  0
  -29.5401  -19.8020   23.9191 N   0  0  0  0  0  0  0  0  0  0  0  0
  -26.2084  -12.8055   20.1748 N   0  0  0  0  0  0  0  0  0  0  0  0
  -19.9410  -18.5003   27.3110 N   0  0  0  0  0  0  0  0  0  0  0  0
  -29.9486  -13.5363   20.4202 N   0  0  0  0  0  0  0  0  0  0  0  0
  -25.4758  -15.0507   20.3570 N   0  0  0  0  0  0  0  0  0  0  0  0
  -21.8321  -12.6656   21.5530 N   0  0  0  0  0  0  0  0  0  0  0  0
  -30.0777  -15.6399   21.4789 N   0  0  0  0  0  0  0  0  0  0  0  0
  -19.1617  -20.9038   29.8302 N   0  0  0  0  0  0  0  0  0  0  0  0
  -18.8411  -15.5672   26.0284 N   0  0  0  0  0  0  0  0  0  0  0  0
  -19.1858  -15.1999   22.4487 N   0  3  0  0  0  0  0  0  0  0  0  0
  -34.1248  -20.0514   21.4546 O   0  0  0  0  0  0  0  0  0  0  0  0
  -22.6478  -14.7848   21.2335 O   0  0  0  0  0  0  0  0  0  0  0  0
  -20.9964  -19.5031   29.5229 O   0  0  0  0  0  0  0  0  0  0  0  0
  -17.7900  -17.6723   27.6631 O   0  0  0  0  0  0  0  0  0  0  0  0
  -20.7758  -15.3946   24.7617 O   0  0  0  0  0  0  0  0  0  0  0  0
  -31.8604  -14.8233   20.2393 O   0  0  0  0  0  0  0  0  0  0  0  0
  -31.3216  -20.8000   25.0963 O   0  0  0  0  0  0  0  0  0  0  0  0
  -27.4588  -19.1288   23.0463 O   0  0  0  0  0  0  0  0  0  0  0  0
  -21.4638   -7.1119   21.7914 O   0  0  0  0  0  0  0  0  0  0  0  0
  -25.6259  -20.1092   25.5373 O   0  0  0  0  0  0  0  0  0  1  0  0
  -23.7836   -3.0894   24.7648 F   0  0  0  0  0  0  0  0  0  0  0  0
  -20.3670   -6.3165   24.2011 F   0  0  0  0  0  0  0  0  0  0  0  0
  1  2  1  0  0  0  0
  1  5  2  0  0  0  0
  2  6  2  0  0  0  0
  3  8  2  0  0  0  0
  3 19  1  0  0  0  0
  4  9  1  0  0  0  0
  4 19  2  0  0  0  0
  5 22  1  0  0  0  0
  6 24  1  0  0  0  0
  7 10  2  0  0  0  0
  7 23  1  0  0  0  0
  8 29  1  0  0  0  0
  9 29  2  0  0  0  0
 10 30  1  0  0  0  0
 11 12  2  0  0  0  0
 11 31  1  0  0  0  0
 12 32  1  0  0  0  0
 13 20  1  0  0  0  0
 13 27  2  0  0  0  0
 14 20  2  0  0  0  0
 14 28  1  0  0  0  0
 15 25  1  0  0  0  0
 15 30  2  0  0  0  0
 16 26  1  0  0  0  0
 16 36  2  0  0  0  0
 17 27  1  0  0  0  0
 17 28  2  0  0  0  0
 18 32  2  0  0  0  0
 18 33  1  0  0  0  0
 19 34  1  0  0  0  0
 20 38  1  0  0  0  0
 21 34  1  0  0  0  0
 21 35  2  0  0  0  0
 21 39  1  0  0  0  0
 22 24  2  0  0  0  0
 22 44  1  0  0  0  0
 23 25  2  0  0  0  0
 23 45  1  0  0  0  0
 24 53  1  0  0  0  0
 25 46  1  0  0  0  0
 26 37  2  0  0  0  0
 26 62  1  0  0  0  0
 27 67  1  0  0  0  0
 28 73  1  0  0  0  0
 29 85  1  0  0  0  0
 30 86  1  0  0  0  0
 31 33  2  0  0  0  0
 31 85  1  0  0  0  0
 32 87  1  0  0  0  0
 33 88  1  0  0  0  0
 34 66  2  0  0  0  0
 35 68  1  0  0  0  0
 35 71  1  0  0  0  0
 36 67  1  0  0  0  0
 36 83  1  0  0  0  0
 37 67  1  0  0  0  0
 37 84  1  0  0  0  0
 38 56  1  0  0  0  0
 38 77  2  0  0  0  0
 39 72  1  0  0  0  0
 39 78  2  0  0  0  0
 40 54  1  0  0  0  0
 40 74  1  0  0  0  0
 40 79  2  0  0  0  0
 41 63  1  0  0  0  0
 41 69  1  0  0  0  0
 41 80  2  0  0  0  0
 42 64  1  0  0  0  0
 42 75  1  0  0  0  0
 42 81  2  0  0  0  0
 43 70  1  0  0  0  0
 43 73  1  0  0  0  0
 43 82  2  0  0  0  0
 44 47  1  0  0  0  0
 45 54  1  0  0  0  0
 46 69  1  0  0  0  0
 47 49  1  0  0  0  0
 48 50  1  0  0  0  0
 48 51  1  0  0  0  0
 49 53  1  0  0  0  0
 50 55  1  0  0  0  0
 51 70  1  0  0  0  0
 52 55  1  0  0  0  0
 52 70  1  0  0  0  0
 53 74  1  0  0  0  0
 54 69  1  0  0  0  0
 55 68  1  0  0  0  0
 57 64  1  0  0  0  0
 58 65  1  0  0  0  0
 59 65  1  0  0  0  0
 60 65  1  0  0  0  0
 61 76  1  0  0  0  0
 62 86  1  0  0  0  0
 63 65  1  0  0  0  0
 63 75  1  0  0  0  0
 64 76  1  0  0  0  0
 66 68  1  0  0  0  0
M  CHG  1  76   1
M  ISO  4  43 100  62 101  73 100  86 101
M  END
> <Batch ID>
0064

> <Smiles>
CNC(C)C(=O)NC(C(=O)N1Cc2cc([101O:1][101CH2:1]C3CC(=O)N(c4cc([100NH:0][100C:0](=O)N5CCCC(n6nc(-c7ccc(Oc8ccc(F)cc8F)cc7)c(C(N)=O)c6N)C5)cc(C(C)=O)c4)C3=O)ccc2CC1C(=O)NC1CCCc2ccccc21)C(C)(C)C

> <Shape>
0.172

> <Color>
0.182

> <Negative vol penalty>
0.000

$$$$

  -OEChem-04042323153D

 91100  0     1  0  0  0  0  0999 V2000
  -29.5273  -34.2272   25.6180 C   0  0  0  0  0  0  0  0  0  0  0  0
  -29.6187  -33.0485   24.8847 C   0  0  0  0  0  0  0  0  0  0  0  0
  -24.6590   -8.9045   21.5674 C   0  0  0  0  0  0  0  0  0  0  0  0
  -23.1451  -10.3923   20.4136 C   0  0  0  0  0  0  0  0  0  0  0  0
  -28.3180  -34.5848   26.2126 C   0  0  0  0  0  0  0  0  0  0  0  0
  -28.5011  -32.2262   24.7465 C   0  0  0  0  0  0  0  0  0  0  0  0
  -26.9928  -28.8544   19.8616 C   0  0  0  0  0  0  0  0  0  0  0  0
  -23.6260   -8.5138   22.4193 C   0  0  0  0  0  0  0  0  0  0  0  0
  -22.1119  -10.0017   21.2654 C   0  0  0  0  0  0  0  0  0  0  0  0
  -27.1664  -27.5033   19.5646 C   0  0  0  0  0  0  0  0  0  0  0  0
  -20.9568   -6.4410   22.3104 C   0  0  0  0  0  0  0  0  0  0  0  0
  -20.8110   -5.0783   22.5701 C   0  0  0  0  0  0  0  0  0  0  0  0
  -25.5607  -20.0237   17.9990 C   0  0  0  0  0  0  0  0  0  0  0  0
  -25.5821  -17.6362   17.6301 C   0  0  0  0  0  0  0  0  0  0  0  0
  -24.9277  -27.0511   20.3409 C   0  0  0  0  0  0  0  0  0  0  0  0
  -27.4148  -18.6949   18.7951 C   0  0  0  0  0  0  0  0  0  0  0  0
  -21.1518   -5.4908   24.9261 C   0  0  0  0  0  0  0  0  0  0  0  0
  -24.4186   -9.8438   20.5645 C   0  0  0  0  0  0  0  0  0  0  0  0
  -24.9570  -18.8749   17.4877 C   0  0  0  0  0  0  0  0  0  0  0  0
  -25.8435   -9.6603   18.4565 C   0  0  0  0  0  0  0  0  0  0  0  0
  -27.1824  -33.7713   26.0736 C   0  0  0  0  0  0  0  0  0  0  0  0
  -25.7871  -29.3130   20.4116 C   0  0  0  0  0  0  0  0  0  0  0  0
  -27.2758  -32.5726   25.3409 C   0  0  0  0  0  0  0  0  0  0  0  0
  -24.7403  -28.4089   20.6416 C   0  0  0  0  0  0  0  0  0  0  0  0
  -26.7897  -19.9336   18.6527 C   0  0  0  0  0  0  0  0  0  0  0  0
  -26.8110  -17.5461   18.2838 C   0  0  0  0  0  0  0  0  0  0  0  0
  -22.3524   -9.0624   22.2683 C   0  0  0  0  0  0  0  0  0  0  0  0
  -26.1349  -26.6010   19.8070 C   0  0  0  0  0  0  0  0  0  0  0  0
  -21.2002   -7.3286   23.3586 C   0  0  0  0  0  0  0  0  0  0  0  0
  -20.9085   -4.6032   23.8780 C   0  0  0  0  0  0  0  0  0  0  0  0
  -21.2977   -6.8535   24.6664 C   0  0  0  0  0  0  0  0  0  0  0  0
  -25.4855  -10.2481   19.6846 C   0  0  0  0  0  0  0  0  0  0  0  0
  -26.9099  -10.4059   18.0169 C   0  0  0  0  0  0  0  0  0  0  0  0
  -28.6378  -21.1781   19.8557 C   0  0  0  0  0  0  0  0  0  0  0  0
  -23.6756  -18.9688   16.8064 C   0  0  0  0  0  0  0  0  0  0  0  0
  -25.2638   -8.5405   17.7741 C   0  0  0  0  0  0  0  0  0  0  0  0
  -24.9577  -30.7226   23.1372 C   0  0  0  0  0  0  0  0  0  0  0  0
  -22.0567  -30.9205   21.6992 C   0  0  0  0  0  0  0  0  0  0  0  0
  -19.8949  -29.7010   19.3569 C   0  0  0  0  0  0  0  0  0  0  0  0
  -28.6659  -16.0233   19.0499 C   0  0  0  0  0  0  0  0  0  0  0  0
  -25.9095  -34.1758   26.7741 C   0  0  0  0  0  0  0  0  0  0  0  0
  -25.6060  -30.7778   20.7015 C   0  0  0  0  0  0  0  0  0  0  0  0
  -23.4192  -28.8537   21.2119 C   0  0  0  0  0  0  0  0  0  0  0  0
  -28.9226  -22.6379   20.1262 C   0  0  0  0  0  0  0  0  0  0  0  0
  -24.6737  -33.4373   26.2664 C   0  0  0  0  0  0  0  0  0  0  0  0
  -30.5483  -13.0603   19.6451 C   0  0  0  0  0  0  0  0  0  0  0  0
  -24.9544  -31.9422   26.1529 C   0  0  0  0  0  0  0  0  0  0  0  0
  -29.4971  -11.9487   19.6050 C   0  0  0  0  0  0  0  0  0  0  0  0
  -30.0027  -14.3339   20.2885 C   0  0  0  0  0  0  0  0  0  0  0  0
  -26.8385  -22.4298   18.9855 C   0  0  0  0  0  0  0  0  0  0  0  0
  -27.6978  -13.7223   19.6696 C   0  0  0  0  0  0  0  0  0  0  0  0
  -26.0791  -31.6667   25.1476 C   0  0  1  0  0  0  0  0  0  0  0  0
  -24.5206  -31.0521   21.7378 C   0  0  1  0  0  0  0  0  0  0  0  0
  -27.5550  -23.2959   20.0103 C   0  0  2  0  0  0  0  0  0  0  0  0
  -28.1809  -12.4405   18.9715 C   0  0  2  0  0  0  0  0  0  0  0  0
  -17.5837  -30.0438   18.4414 C   0  0  0  0  0  0  0  0  0  0  0  0
  -20.8809  -29.5626   24.1657 C   0  0  0  0  0  0  0  0  0  0  0  0
  -18.8184  -29.0802   22.8310 C   0  0  0  0  0  0  0  0  0  0  0  0
  -19.5047  -31.4409   23.2532 C   0  0  0  0  0  0  0  0  0  0  0  0
  -20.8582  -21.4314   17.3049 C   0  0  0  0  0  0  0  0  0  0  0  0
  -21.6718  -20.5409   15.1064 C   0  0  0  0  0  0  0  0  0  0  0  0
  -20.6761  -18.9843   16.8016 C   0  0  0  0  0  0  0  0  0  0  0  0
  -20.9312  -30.3124   16.6530 C   0  0  0  0  0  0  0  0  0  0  0  0
  -27.6268  -24.7594   19.6106 C   0  0  0  0  0  0  0  0  0  1  0  0
  -20.8363  -30.0349   21.6278 C   0  0  1  0  0  0  0  0  0  0  0  0
  -19.0561  -30.3977   18.3008 C   0  0  2  0  0  0  0  0  0  0  0  0
  -20.0355  -30.0206   22.9605 C   0  0  0  0  0  0  0  0  0  0  0  0
  -21.5268  -20.2440   16.6026 C   0  0  0  0  0  0  0  0  0  0  0  0
  -26.2617  -11.2869   20.0047 N   0  0  0  0  0  0  0  0  0  0  0  0
  -27.1180  -11.3577   18.9714 N   0  0  0  0  0  0  0  0  0  0  0  0
  -27.4074  -21.1088   19.1758 N   0  0  0  0  0  0  0  0  0  0  0  0
  -23.2930  -30.2950   21.4845 N   0  0  0  0  0  0  0  0  0  0  0  0
  -28.7576  -14.7423   19.6343 N   0  0  0  0  0  0  0  0  0  0  0  0
  -27.6806  -10.3336   16.9109 N   0  0  0  0  0  0  0  0  0  0  0  0
  -24.1733   -7.8888   18.3661 N   0  0  0  0  0  0  0  0  0  0  0  0
  -27.4457  -16.2875   18.4286 N   0  0  0  0  0  0  0  0  0  0  0  0
  -22.8382  -20.0296   17.1709 N   0  0  0  0  0  0  0  0  0  0  0  0
  -25.5814  -31.7672   23.7924 N   0  0  0  0  0  0  0  0  0  0  0  0
  -20.0683  -30.4904   20.4741 N   0  0  0  0  0  0  0  0  0  0  0  0
  -19.5066  -30.0011   16.9367 N   0  3  0  0  0  0  0  0  0  0  0  0
  -29.4228  -20.2902   20.1561 O   0  0  0  0  0  0  0  0  0  0  0  0
  -23.3492  -18.1219   15.9559 O   0  0  0  0  0  0  0  0  0  0  0  0
  -25.7103   -8.1198   16.6800 O   0  0  0  0  0  0  0  0  0  0  0  0
  -24.7434  -29.6041   23.5895 O   0  0  0  0  0  0  0  0  0  0  0  0
  -21.9177  -32.1243   21.9297 O   0  0  0  0  0  0  0  0  0  0  0  0
  -20.3478  -28.5683   19.2074 O   0  0  0  0  0  0  0  0  0  0  0  0
  -29.6105  -16.8165   19.0734 O   0  0  0  0  0  0  0  0  0  0  0  0
  -21.3440   -8.6813   23.0992 O   0  0  0  0  0  0  0  0  0  0  0  0
  -26.3020  -25.2816   19.5186 O   0  0  0  0  0  0  0  0  0  1  0  0
  -20.7669   -3.2948   24.1274 F   0  0  0  0  0  0  0  0  0  0  0  0
  -21.5302   -7.7016   25.6776 F   0  0  0  0  0  0  0  0  0  0  0  0
  1  2  1  0  0  0  0
  1  5  2  0  0  0  0
  2  6  2  0  0  0  0
  3  8  2  0  0  0  0
  3 18  1  0  0  0  0
  4  9  1  0  0  0  0
  4 18  2  0  0  0  0
  5 21  1  0  0  0  0
  6 23  1  0  0  0  0
  7 10  2  0  0  0  0
  7 22  1  0  0  0  0
  8 27  1  0  0  0  0
  9 27  2  0  0  0  0
 10 28  1  0  0  0  0
 11 12  2  0  0  0  0
 11 29  1  0  0  0  0
 12 30  1  0  0  0  0
 13 19  1  0  0  0  0
 13 25  2  0  0  0  0
 14 19  2  0  0  0  0
 14 26  1  0  0  0  0
 15 24  1  0  0  0  0
 15 28  2  0  0  0  0
 16 25  1  0  0  0  0
 16 26  2  0  0  0  0
 17 30  2  0  0  0  0
 17 31  1  0  0  0  0
 18 32  1  0  0  0  0
 19 35  1  0  0  0  0
 20 32  1  0  0  0  0
 20 33  2  0  0  0  0
 20 36  1  0  0  0  0
 21 23  2  0  0  0  0
 21 41  1  0  0  0  0
 22 24  2  0  0  0  0
 22 42  1  0  0  0  0
 23 52  1  0  0  0  0
 24 43  1  0  0  0  0
 25 71  1  0  0  0  0
 26 76  1  0  0  0  0
 27 88  1  0  0  0  0
 28 89  1  0  0  0  0
 29 31  2  0  0  0  0
 29 88  1  0  0  0  0
 30 90  1  0  0  0  0
 31 91  1  0  0  0  0
 32 69  2  0  0  0  0
 33 70  1  0  0  0  0
 33 74  1  0  0  0  0
 34 44  1  0  0  0  0
 34 71  1  0  0  0  0
 34 81  2  0  0  0  0
 35 77  1  0  0  0  0
 35 82  2  0  0  0  0
 36 75  1  0  0  0  0
 36 83  2  0  0  0  0
 37 53  1  0  0  0  0
 37 78  1  0  0  0  0
 37 84  2  0  0  0  0
 38 65  1  0  0  0  0
 38 72  1  0  0  0  0
 38 85  2  0  0  0  0
 39 66  1  0  0  0  0
 39 79  1  0  0  0  0
 39 86  2  0  0  0  0
 40 73  1  0  0  0  0
 40 76  1  0  0  0  0
 40 87  2  0  0  0  0
 41 45  1  0  0  0  0
 42 53  1  0  0  0  0
 43 72  1  0  0  0  0
 44 54  1  0  0  0  0
 45 47  1  0  0  0  0
 46 48  1  0  0  0  0
 46 49  1  0  0  0  0
 47 52  1  0  0  0  0
 48 55  1  0  0  0  0
 49 73  1  0  0  0  0
 50 54  1  0  0  0  0
 50 71  1  0  0  0  0
 51 55  1  0  0  0  0
 51 73  1  0  0  0  0
 52 78  1  0  0  0  0
 53 72  1  0  0  0  0
 54 64  1  0  0  0  0
 55 70  1  0  0  0  0
 56 66  1  0  0  0  0
 57 67  1  0  0  0  0
 58 67  1  0  0  0  0
 59 67  1  0  0  0  0
 60 68  1  0  0  0  0
 61 68  1  0  0  0  0
 62 68  1  0  0  0  0
 63 80  1  0  0  0  0
 64 89  1  0  0  0  0
 65 67  1  0  0  0  0
 65 79  1  0  0  0  0
 66 80  1  0  0  0  0
 68 77  1  0  0  0  0
 69 70  1  0  0  0  0
M  CHG  1  80   1
M  ISO  4  40 100  64 101  76 100  89 101
M  END
> <Batch ID>
0064

> <Smiles>
CNC(C)C(=O)NC(C(=O)N1Cc2cc([101O:1][101CH2:1]C3CC(=O)N(c4cc([100NH:0][100C:0](=O)N5CCCC(n6nc(-c7ccc(Oc8ccc(F)cc8F)cc7)c(C(N)=O)c6N)C5)cc(C(=O)NC(C)(C)C)c4)C3)ccc2CC1C(=O)NC1CCCc2ccccc21)C(C)(C)C

> <Shape>
0.293

> <Color>
0.102

> <Negative vol penalty>
0.000

$$$$

  -OEChem-04042323153D

 83 91  0     1  0  0  0  0  0999 V2000
  -27.3435  -37.8727   21.9973 C   0  0  0  0  0  0  0  0  0  0  0  0
  -27.8349  -36.8322   21.2155 C   0  0  0  0  0  0  0  0  0  0  0  0
  -24.7951   -8.6813   21.6279 C   0  0  0  0  0  0  0  0  0  0  0  0
  -23.2435  -10.0033   20.3309 C   0  0  0  0  0  0  0  0  0  0  0  0
  -26.6707  -37.5923   23.1859 C   0  0  0  0  0  0  0  0  0  0  0  0
  -27.6548  -35.5107   21.6224 C   0  0  0  0  0  0  0  0  0  0  0  0
  -26.6318  -28.9395   18.9596 C   0  0  0  0  0  0  0  0  0  0  0  0
  -24.5589  -18.5486   17.2451 C   0  0  0  0  0  0  0  0  0  0  0  0
  -25.0490  -19.7483   17.7608 C   0  0  0  0  0  0  0  0  0  0  0  0
  -23.7439   -8.2312   22.4266 C   0  0  0  0  0  0  0  0  0  0  0  0
  -22.1923   -9.5531   21.1296 C   0  0  0  0  0  0  0  0  0  0  0  0
  -27.1550  -27.6499   19.0435 C   0  0  0  0  0  0  0  0  0  0  0  0
  -21.2649   -5.9408   22.2231 C   0  0  0  0  0  0  0  0  0  0  0  0
  -21.2137   -4.5789   22.5202 C   0  0  0  0  0  0  0  0  0  0  0  0
  -25.9078  -27.2826   21.0754 C   0  0  0  0  0  0  0  0  0  0  0  0
  -26.9369  -18.5719   18.7036 C   0  0  0  0  0  0  0  0  0  0  0  0
  -21.3657   -5.0874   24.8772 C   0  0  0  0  0  0  0  0  0  0  0  0
  -24.5449   -9.5675   20.5801 C   0  0  0  0  0  0  0  0  0  0  0  0
  -26.1142   -9.4416   18.5728 C   0  0  0  0  0  0  0  0  0  0  0  0
  -26.4738  -36.2664   23.6027 C   0  0  0  0  0  0  0  0  0  0  0  0
  -25.7497  -29.4150   19.9406 C   0  0  0  0  0  0  0  0  0  0  0  0
  -26.9799  -35.2124   22.8183 C   0  0  0  0  0  0  0  0  0  0  0  0
  -25.3729  -28.5777   21.0003 C   0  0  0  0  0  0  0  0  0  0  0  0
  -25.2577  -17.3604   17.4587 C   0  0  0  0  0  0  0  0  0  0  0  0
  -26.2379  -19.7600   18.4900 C   0  0  0  0  0  0  0  0  0  0  0  0
  -26.4467  -17.3721   18.1879 C   0  0  0  0  0  0  0  0  0  0  0  0
  -22.4425   -8.6670   22.1775 C   0  0  0  0  0  0  0  0  0  0  0  0
  -26.7953  -26.8223   20.1030 C   0  0  0  0  0  0  0  0  0  0  0  0
  -21.3666   -6.8760   23.2530 C   0  0  0  0  0  0  0  0  0  0  0  0
  -21.2641   -4.1522   23.8472 C   0  0  0  0  0  0  0  0  0  0  0  0
  -21.4170   -6.4493   24.5801 C   0  0  0  0  0  0  0  0  0  0  0  0
  -25.6305  -10.0333   19.7550 C   0  0  0  0  0  0  0  0  0  0  0  0
  -27.1429  -10.2602   18.1751 C   0  0  0  0  0  0  0  0  0  0  0  0
  -26.9988  -23.2675   19.5872 C   0  0  0  0  0  0  0  0  0  0  0  0
  -26.6165  -24.5486   19.5843 C   0  0  0  0  0  0  0  0  0  1  0  0
  -25.6731   -8.2578   17.8947 C   0  0  0  0  0  0  0  0  0  0  0  0
  -26.1677  -22.2403   18.8941 C   0  0  0  0  0  0  0  0  0  0  0  0
  -25.8102  -31.7929   22.0491 C   0  0  0  0  0  0  0  0  0  0  0  0
  -22.7551  -30.8565   22.6074 C   0  0  0  0  0  0  0  0  0  0  0  0
  -20.4169  -28.3738   22.4817 C   0  0  0  0  0  0  0  0  0  0  0  0
  -28.3654  -16.0323   19.1206 C   0  0  0  0  0  0  0  0  0  0  0  0
  -25.7818  -36.0143   24.9189 C   0  0  0  0  0  0  0  0  0  0  0  0
  -25.1733  -30.7991   19.8213 C   0  0  0  0  0  0  0  0  0  0  0  0
  -24.4135  -29.0333   22.0684 C   0  0  0  0  0  0  0  0  0  0  0  0
  -25.3048  -34.5744   25.0903 C   0  0  0  0  0  0  0  0  0  0  0  0
  -30.4396  -13.2552   19.9345 C   0  0  0  0  0  0  0  0  0  0  0  0
  -26.4049  -33.5964   24.6902 C   0  0  0  0  0  0  0  0  0  0  0  0
  -29.4871  -12.0592   19.8673 C   0  0  0  0  0  0  0  0  0  0  0  0
  -29.7516  -14.4973   20.4981 C   0  0  0  0  0  0  0  0  0  0  0  0
  -27.5493  -13.6778   19.7580 C   0  0  0  0  0  0  0  0  0  0  0  0
  -26.7826  -33.7649   23.2135 C   0  0  1  0  0  0  0  0  0  0  0  0
  -24.6843  -31.3596   21.1533 C   0  0  1  0  0  0  0  0  0  0  0  0
  -28.1793  -12.4208   19.1362 C   0  0  2  0  0  0  0  0  0  0  0  0
  -24.7091  -16.0901   16.8945 C   0  0  0  0  0  0  0  0  0  0  0  0
  -18.0181  -27.8967   23.0435 C   0  0  0  0  0  0  0  0  0  0  0  0
  -23.4904  -30.6507   25.5615 C   0  0  0  0  0  0  0  0  0  0  0  0
  -21.4142  -29.2961   25.9122 C   0  0  0  0  0  0  0  0  0  0  0  0
  -21.2434  -31.6530   25.1131 C   0  0  0  0  0  0  0  0  0  0  0  0
  -19.7490  -27.7974   19.6567 C   0  0  0  0  0  0  0  0  0  0  0  0
  -22.0927  -29.8682   23.5366 C   0  0  1  0  0  0  0  0  0  0  0  0
  -18.9884  -28.3605   21.9682 C   0  0  2  0  0  0  0  0  0  0  0  0
  -22.0798  -30.3588   25.0120 C   0  0  0  0  0  0  0  0  0  0  0  0
  -26.2971  -11.1421   20.0868 N   0  0  0  0  0  0  0  0  0  0  0  0
  -27.2103  -11.2536   19.1072 N   0  0  0  0  0  0  0  0  0  0  0  0
  -23.8820  -30.3972   21.9111 N   0  0  0  0  0  0  0  0  0  0  0  0
  -28.5227  -14.7811   19.7536 N   0  0  0  0  0  0  0  0  0  0  0  0
  -27.9873  -10.2200   17.1226 N   0  0  0  0  0  0  0  0  0  0  0  0
  -24.6030   -7.5352   18.4397 N   0  0  0  0  0  0  0  0  0  0  0  0
  -26.7352  -20.9787   19.0136 N   0  0  0  0  0  0  0  0  0  0  0  0
  -27.1708  -16.1756   18.4156 N   0  0  0  0  0  0  0  0  0  0  0  0
  -25.7928  -33.1382   22.3640 N   0  0  0  0  0  0  0  0  0  0  0  0
  -20.7686  -29.6100   22.9812 N   0  0  0  0  0  0  0  0  0  0  0  0
  -18.8668  -27.4448   20.7988 N   0  3  0  0  0  0  0  0  0  0  0  0
  -26.2226   -7.8438   16.8458 O   0  0  0  0  0  0  0  0  0  0  0  0
  -25.1315  -22.5463   18.3160 O   0  0  0  0  0  0  0  0  0  0  0  0
  -26.6329  -30.9674   22.4277 O   0  0  0  0  0  0  0  0  0  0  0  0
  -22.2855  -31.9919   22.4978 O   0  0  0  0  0  0  0  0  0  0  0  0
  -21.1464  -27.3854   22.4468 O   0  0  0  0  0  0  0  0  0  0  0  0
  -29.2388  -16.9018   19.1756 O   0  0  0  0  0  0  0  0  0  0  0  0
  -21.4165   -8.2277   22.9565 O   0  0  0  0  0  0  0  0  0  0  0  0
  -27.3050  -25.5633   20.1876 O   0  0  0  0  0  0  0  0  0  1  0  0
  -21.2134   -2.8444   24.1324 F   0  0  0  0  0  0  0  0  0  0  0  0
  -21.5135   -7.3431   25.5739 F   0  0  0  0  0  0  0  0  0  0  0  0
  1  2  1  0  0  0  0
  1  5  2  0  0  0  0
  2  6  2  0  0  0  0
  3 10  2  0  0  0  0
  3 18  1  0  0  0  0
  4 11  1  0  0  0  0
  4 18  2  0  0  0  0
  5 20  1  0  0  0  0
  6 22  1  0  0  0  0
  7 12  2  0  0  0  0
  7 21  1  0  0  0  0
  8  9  2  0  0  0  0
  8 24  1  0  0  0  0
  9 25  1  0  0  0  0
 10 27  1  0  0  0  0
 11 27  2  0  0  0  0
 12 28  1  0  0  0  0
 13 14  2  0  0  0  0
 13 29  1  0  0  0  0
 14 30  1  0  0  0  0
 15 23  1  0  0  0  0
 15 28  2  0  0  0  0
 16 25  2  0  0  0  0
 16 26  1  0  0  0  0
 17 30  2  0  0  0  0
 17 31  1  0  0  0  0
 18 32  1  0  0  0  0
 19 32  1  0  0  0  0
 19 33  2  0  0  0  0
 19 36  1  0  0  0  0
 20 22  2  0  0  0  0
 20 42  1  0  0  0  0
 21 23  2  0  0  0  0
 21 43  1  0  0  0  0
 22 51  1  0  0  0  0
 23 44  1  0  0  0  0
 24 26  2  0  0  0  0
 24 54  1  0  0  0  0
 25 69  1  0  0  0  0
 26 70  1  0  0  0  0
 27 80  1  0  0  0  0
 28 81  1  0  0  0  0
 29 31  2  0  0  0  0
 29 80  1  0  0  0  0
 30 82  1  0  0  0  0
 31 83  1  0  0  0  0
 32 63  2  0  0  0  0
 33 64  1  0  0  0  0
 33 67  1  0  0  0  0
 34 35  2  0  0  0  0
 34 37  1  0  0  0  0
 35 81  1  0  0  0  0
 36 68  1  0  0  0  0
 36 74  2  0  0  0  0
 37 69  1  0  0  0  0
 37 75  2  0  0  0  0
 38 52  1  0  0  0  0
 38 71  1  0  0  0  0
 38 76  2  0  0  0  0
 39 60  1  0  0  0  0
 39 65  1  0  0  0  0
 39 77  2  0  0  0  0
 40 61  1  0  0  0  0
 40 72  1  0  0  0  0
 40 78  2  0  0  0  0
 41 66  1  0  0  0  0
 41 70  1  0  0  0  0
 41 79  2  0  0  0  0
 42 45  1  0  0  0  0
 43 52  1  0  0  0  0
 44 65  1  0  0  0  0
 45 47  1  0  0  0  0
 46 48  1  0  0  0  0
 46 49  1  0  0  0  0
 47 51  1  0  0  0  0
 48 53  1  0  0  0  0
 49 66  1  0  0  0  0
 50 53  1  0  0  0  0
 50 66  1  0  0  0  0
 51 71  1  0  0  0  0
 52 65  1  0  0  0  0
 53 64  1  0  0  0  0
 55 61  1  0  0  0  0
 56 62  1  0  0  0  0
 57 62  1  0  0  0  0
 58 62  1  0  0  0  0
 59 73  1  0  0  0  0
 60 62  1  0  0  0  0
 60 72  1  0  0  0  0
 61 73  1  0  0  0  0
 63 64  1  0  0  0  0
M  CHG  1  73   1
M  ISO  4  35 101  41 100  70 100  81 101
M  END
> <Batch ID>
0064

> <Smiles>
CNC(C)C(=O)NC(C(=O)N1Cc2cc([101O:1][101CH:1]=CC(=O)Nc3ccc(C)c([100NH:0][100C:0](=O)N4CCCC(n5nc(-c6ccc(Oc7ccc(F)cc7F)cc6)c(C(N)=O)c5N)C4)c3)ccc2CC1C(=O)NC1CCCc2ccccc21)C(C)(C)C

> <Shape>
0.297

> <Color>
0.105

> <Negative vol penalty>
0.000

$$$$

  -OEChem-04042323153D

 84 93  0     1  0  0  0  0  0999 V2000
  -27.3783  -37.7506   23.8460 C   0  0  0  0  0  0  0  0  0  0  0  0
  -27.9648  -36.8071   23.0086 C   0  0  0  0  0  0  0  0  0  0  0  0
  -24.1859   -9.2995   22.2135 C   0  0  0  0  0  0  0  0  0  0  0  0
  -22.9231  -11.2834   21.6598 C   0  0  0  0  0  0  0  0  0  0  0  0
  -26.4957  -37.3416   24.8447 C   0  0  0  0  0  0  0  0  0  0  0  0
  -27.6698  -35.4538   23.1702 C   0  0  0  0  0  0  0  0  0  0  0  0
  -26.9110  -29.4153   19.3918 C   0  0  0  0  0  0  0  0  0  0  0  0
  -26.2998  -19.4060   19.1256 C   0  0  0  0  0  0  0  0  0  0  0  0
  -26.5644  -18.0444   18.9786 C   0  0  0  0  0  0  0  0  0  0  0  0
  -23.3208   -9.0459   23.2778 C   0  0  0  0  0  0  0  0  0  0  0  0
  -22.0579  -11.0298   22.7241 C   0  0  0  0  0  0  0  0  0  0  0  0
  -27.3662  -28.0978   19.3639 C   0  0  0  0  0  0  0  0  0  0  0  0
  -20.2302   -7.7480   23.7209 C   0  0  0  0  0  0  0  0  0  0  0  0
  -19.7721   -6.4410   23.8866 C   0  0  0  0  0  0  0  0  0  0  0  0
  -25.7657  -27.5151   21.0721 C   0  0  0  0  0  0  0  0  0  0  0  0
  -28.8456  -18.4116   19.6847 C   0  0  0  0  0  0  0  0  0  0  0  0
  -20.7712   -6.3696   26.0852 C   0  0  0  0  0  0  0  0  0  0  0  0
  -23.9871  -10.4183   21.4045 C   0  0  0  0  0  0  0  0  0  0  0  0
  -24.7521  -10.2291   18.9782 C   0  0  0  0  0  0  0  0  0  0  0  0
  -26.1822  -35.9836   25.0125 C   0  0  0  0  0  0  0  0  0  0  0  0
  -25.8855  -29.7956   20.2693 C   0  0  0  0  0  0  0  0  0  0  0  0
  -26.7831  -35.0262   24.1730 C   0  0  0  0  0  0  0  0  0  0  0  0
  -25.2975  -28.8374   21.1073 C   0  0  0  0  0  0  0  0  0  0  0  0
  -27.3081  -20.2704   19.5521 C   0  0  0  0  0  0  0  0  0  0  0  0
  -27.8373  -17.5472   19.2582 C   0  0  0  0  0  0  0  0  0  0  0  0
  -22.2568   -9.9110   23.5331 C   0  0  0  0  0  0  0  0  0  0  0  0
  -26.7956  -27.1481   20.2062 C   0  0  0  0  0  0  0  0  0  0  0  0
  -20.9588   -8.3658   24.7373 C   0  0  0  0  0  0  0  0  0  0  0  0
  -20.0426   -5.7518   25.0688 C   0  0  0  0  0  0  0  0  0  0  0  0
  -28.5810  -19.7732   19.8317 C   0  0  0  0  0  0  0  0  0  0  0  0
  -21.2293   -7.6766   25.9194 C   0  0  0  0  0  0  0  0  0  0  0  0
  -24.8808  -10.6812   20.3052 C   0  0  0  0  0  0  0  0  0  0  0  0
  -25.8475  -10.7468   18.3314 C   0  0  0  0  0  0  0  0  0  0  0  0
  -26.6694  -23.5750   19.8071 C   0  0  0  0  0  0  0  0  0  0  0  0
  -25.9252  -22.3530   19.4998 C   0  0  0  0  0  0  0  0  0  0  0  0
  -26.3437  -24.8791   19.8622 C   0  0  0  0  0  0  0  0  0  1  0  0
  -23.7334   -9.4141   18.3835 C   0  0  0  0  0  0  0  0  0  0  0  0
  -25.6518  -31.8329   22.6980 C   0  0  0  0  0  0  0  0  0  0  0  0
  -22.5157  -31.0131   22.5759 C   0  0  0  0  0  0  0  0  0  0  0  0
  -20.1531  -28.7222   21.6721 C   0  0  0  0  0  0  0  0  0  0  0  0
  -29.3136  -15.5077   19.3439 C   0  0  0  0  0  0  0  0  0  0  0  0
  -25.2589  -35.5851   26.1365 C   0  0  0  0  0  0  0  0  0  0  0  0
  -25.3875  -31.2149   20.2681 C   0  0  0  0  0  0  0  0  0  0  0  0
  -24.1798  -29.1901   22.0533 C   0  0  0  0  0  0  0  0  0  0  0  0
  -27.9078  -22.7348   20.0196 C   0  0  0  0  0  0  0  0  0  0  0  0
  -24.7098  -34.1674   26.0001 C   0  0  0  0  0  0  0  0  0  0  0  0
  -30.3676  -12.1136   19.1285 C   0  0  0  0  0  0  0  0  0  0  0  0
  -25.8291  -33.1929   25.6477 C   0  0  0  0  0  0  0  0  0  0  0  0
  -29.0676  -11.3201   19.2790 C   0  0  0  0  0  0  0  0  0  0  0  0
  -30.3753  -13.3618   20.0093 C   0  0  0  0  0  0  0  0  0  0  0  0
  -27.9134  -13.4510   19.9957 C   0  0  0  0  0  0  0  0  0  0  0  0
  -26.4690  -33.5514   24.3010 C   0  0  1  0  0  0  0  0  0  0  0  0
  -24.6890  -31.6041   21.5674 C   0  0  1  0  0  0  0  0  0  0  0  0
  -27.8320  -12.2195   19.0791 C   0  0  2  0  0  0  0  0  0  0  0  0
  -17.6776  -28.3154   21.7361 C   0  0  0  0  0  0  0  0  0  0  0  0
  -22.7064  -30.3347   25.5446 C   0  0  0  0  0  0  0  0  0  0  0  0
  -20.5556  -29.0725   25.3230 C   0  0  0  0  0  0  0  0  0  0  0  0
  -20.6109  -31.5266   24.8793 C   0  0  0  0  0  0  0  0  0  0  0  0
  -19.9788  -28.6052   18.7200 C   0  0  0  0  0  0  0  0  0  0  0  0
  -21.6650  -29.9422   23.2149 C   0  0  1  0  0  0  0  0  0  0  0  0
  -18.8391  -28.8709   20.9266 C   0  0  2  0  0  0  0  0  0  0  0  0
  -21.4068  -30.2125   24.7241 C   0  0  0  0  0  0  0  0  0  0  0  0
  -25.9720  -11.4284   20.4918 N   0  0  0  0  0  0  0  0  0  0  0  0
  -26.5390  -11.4499   19.2736 N   0  0  0  0  0  0  0  0  0  0  0  0
  -27.0443  -21.6128   19.6962 N   0  0  0  0  0  0  0  0  0  0  0  0
  -23.7320  -30.5922   22.0197 N   0  0  0  0  0  0  0  0  0  0  0  0
  -29.1773  -14.1672   19.7625 N   0  0  0  0  0  0  0  0  0  0  0  0
  -26.2771  -10.6647   17.0542 N   0  0  0  0  0  0  0  0  0  0  0  0
  -22.6788   -8.9674   19.1913 N   0  0  0  0  0  0  0  0  0  0  0  0
  -28.1059  -16.1640   19.1087 N   0  0  0  0  0  0  0  0  0  0  0  0
  -25.6250  -33.1165   23.2088 N   0  0  0  0  0  0  0  0  0  0  0  0
  -20.4527  -29.8487   22.4087 N   0  0  0  0  0  0  0  0  0  0  0  0
  -18.8959  -28.1444   19.6267 N   0  3  0  0  0  0  0  0  0  0  0  0
  -24.7813  -22.0992   19.1844 O   0  0  0  0  0  0  0  0  0  0  0  0
  -23.7663   -9.0780   17.1754 O   0  0  0  0  0  0  0  0  0  0  0  0
  -26.3652  -30.9125   23.0797 O   0  0  0  0  0  0  0  0  0  0  0  0
  -22.1125  -32.1788   22.5641 O   0  0  0  0  0  0  0  0  0  0  0  0
  -20.8427  -27.7068   21.6104 O   0  0  0  0  0  0  0  0  0  0  0  0
  -30.4206  -16.0264   19.1781 O   0  0  0  0  0  0  0  0  0  0  0  0
  -21.4123   -9.6637   24.5715 O   0  0  0  0  0  0  0  0  0  0  0  0
  -27.2384  -25.8616   20.1816 O   0  0  0  0  0  0  0  0  0  1  0  0
  -19.6013   -4.4972   25.2284 F   0  0  0  0  0  0  0  0  0  0  0  0
  -29.5580  -20.5949   20.2417 F   0  0  0  0  0  0  0  0  0  0  0  0
  -21.9278   -8.2654   26.8999 F   0  0  0  0  0  0  0  0  0  0  0  0
  1  2  1  0  0  0  0
  1  5  2  0  0  0  0
  2  6  2  0  0  0  0
  3 10  2  0  0  0  0
  3 18  1  0  0  0  0
  4 11  1  0  0  0  0
  4 18  2  0  0  0  0
  5 20  1  0  0  0  0
  6 22  1  0  0  0  0
  7 12  2  0  0  0  0
  7 21  1  0  0  0  0
  8  9  2  0  0  0  0
  8 24  1  0  0  0  0
  9 25  1  0  0  0  0
 10 26  1  0  0  0  0
 11 26  2  0  0  0  0
 12 27  1  0  0  0  0
 13 14  2  0  0  0  0
 13 28  1  0  0  0  0
 14 29  1  0  0  0  0
 15 23  1  0  0  0  0
 15 27  2  0  0  0  0
 16 25  2  0  0  0  0
 16 30  1  0  0  0  0
 17 29  2  0  0  0  0
 17 31  1  0  0  0  0
 18 32  1  0  0  0  0
 19 32  1  0  0  0  0
 19 33  2  0  0  0  0
 19 37  1  0  0  0  0
 20 22  2  0  0  0  0
 20 42  1  0  0  0  0
 21 23  2  0  0  0  0
 21 43  1  0  0  0  0
 22 52  1  0  0  0  0
 23 44  1  0  0  0  0
 24 30  2  0  0  0  0
 24 65  1  0  0  0  0
 25 70  1  0  0  0  0
 26 80  1  0  0  0  0
 27 81  1  0  0  0  0
 28 31  2  0  0  0  0
 28 80  1  0  0  0  0
 29 82  1  0  0  0  0
 30 83  1  0  0  0  0
 31 84  1  0  0  0  0
 32 63  2  0  0  0  0
 33 64  1  0  0  0  0
 33 68  1  0  0  0  0
 34 35  1  0  0  0  0
 34 36  2  0  0  0  0
 34 45  1  0  0  0  0
 35 65  1  0  0  0  0
 35 74  2  0  0  0  0
 36 81  1  0  0  0  0
 37 69  1  0  0  0  0
 37 75  2  0  0  0  0
 38 53  1  0  0  0  0
 38 71  1  0  0  0  0
 38 76  2  0  0  0  0
 39 60  1  0  0  0  0
 39 66  1  0  0  0  0
 39 77  2  0  0  0  0
 40 61  1  0  0  0  0
 40 72  1  0  0  0  0
 40 78  2  0  0  0  0
 41 67  1  0  0  0  0
 41 70  1  0  0  0  0
 41 79  2  0  0  0  0
 42 46  1  0  0  0  0
 43 53  1  0  0  0  0
 44 66  1  0  0  0  0
 45 65  1  0  0  0  0
 46 48  1  0  0  0  0
 47 49  1  0  0  0  0
 47 50  1  0  0  0  0
 48 52  1  0  0  0  0
 49 54  1  0  0  0  0
 50 67  1  0  0  0  0
 51 54  1  0  0  0  0
 51 67  1  0  0  0  0
 52 71  1  0  0  0  0
 53 66  1  0  0  0  0
 54 64  1  0  0  0  0
 55 61  1  0  0  0  0
 56 62  1  0  0  0  0
 57 62  1  0  0  0  0
 58 62  1  0  0  0  0
 59 73  1  0  0  0  0
 60 62  1  0  0  0  0
 60 72  1  0  0  0  0
 61 73  1  0  0  0  0
 63 64  1  0  0  0  0
M  CHG  1  73   1
M  ISO  4  36 101  41 100  70 100  81 101
M  END
> <Batch ID>
0064

> <Smiles>
CNC(C)C(=O)NC(C(=O)N1Cc2cc([101O:1][101CH:1]=C3CN(c4ccc([100NH:0][100C:0](=O)N5CCCC(n6nc(-c7ccc(Oc8ccc(F)cc8F)cc7)c(C(N)=O)c6N)C5)cc4F)C3=O)ccc2CC1C(=O)NC1CCCc2ccccc21)C(C)(C)C

> <Shape>
0.297

> <Color>
0.088

> <Negative vol penalty>
0.000

$$$$

  -OEChem-04042323153D

 85 94  0     1  0  0  0  0  0999 V2000
  -28.2893  -23.6151   17.3547 C   0  0  0  0  0  0  0  0  0  0  0  0
  -27.1181  -23.8284   18.0747 C   0  0  0  0  0  0  0  0  0  0  0  0
  -27.6162  -12.8101   19.8658 C   0  0  0  0  0  0  0  0  0  0  0  0
  -27.7706  -13.7997   22.0644 C   0  0  0  0  0  0  0  0  0  0  0  0
  -29.4741  -24.2319   17.7545 C   0  0  0  0  0  0  0  0  0  0  0  0
  -27.1313  -24.6578   19.1955 C   0  0  0  0  0  0  0  0  0  0  0  0
  -23.2017  -27.8504   19.2960 C   0  0  0  0  0  0  0  0  0  0  0  0
  -28.8692  -12.2231   20.0419 C   0  0  0  0  0  0  0  0  0  0  0  0
  -29.0236  -13.2126   22.2406 C   0  0  0  0  0  0  0  0  0  0  0  0
  -21.9719  -27.3339   19.7017 C   0  0  0  0  0  0  0  0  0  0  0  0
  -30.1608   -9.5435   21.6495 C   0  0  0  0  0  0  0  0  0  0  0  0
  -30.3071   -8.2056   21.2835 C   0  0  0  0  0  0  0  0  0  0  0  0
  -22.3117  -28.2674   21.9000 C   0  0  0  0  0  0  0  0  0  0  0  0
  -20.1900  -21.2523   22.4369 C   0  0  0  0  0  0  0  0  0  0  0  0
  -18.6672  -21.0287   24.2991 C   0  0  0  0  0  0  0  0  0  0  0  0
  -19.6743  -19.0632   23.3195 C   0  0  0  0  0  0  0  0  0  0  0  0
  -32.0146   -8.8278   19.6915 C   0  0  0  0  0  0  0  0  0  0  0  0
  -27.0669  -13.5984   20.8770 C   0  0  0  0  0  0  0  0  0  0  0  0
  -24.5212  -13.6555   21.0311 C   0  0  0  0  0  0  0  0  0  0  0  0
  -29.4997  -25.0770   18.8751 C   0  0  0  0  0  0  0  0  0  0  0  0
  -24.0020  -28.5712   20.1940 C   0  0  0  0  0  0  0  0  0  0  0  0
  -28.3178  -25.2855   19.6114 C   0  0  0  0  0  0  0  0  0  0  0  0
  -23.5501  -28.7942   21.5025 C   0  0  0  0  0  0  0  0  0  0  0  0
  -19.3467  -21.8329   23.3841 C   0  0  0  0  0  0  0  0  0  0  0  0
  -20.3538  -19.8674   22.4045 C   0  0  0  0  0  0  0  0  0  0  0  0
  -29.5729  -12.4243   21.2293 C   0  0  0  0  0  0  0  0  0  0  0  0
  -21.5280  -27.5399   21.0047 C   0  0  0  0  0  0  0  0  0  0  0  0
  -30.9413  -10.5237   21.0365 C   0  0  0  0  0  0  0  0  0  0  0  0
  -31.2340   -7.8477   20.3045 C   0  0  0  0  0  0  0  0  0  0  0  0
  -18.8310  -19.6438   24.2668 C   0  0  0  0  0  0  0  0  0  0  0  0
  -31.8682  -10.1658   20.0575 C   0  0  0  0  0  0  0  0  0  0  0  0
  -25.7729  -14.2055   20.6955 C   0  0  0  0  0  0  0  0  0  0  0  0
  -23.6133  -14.6180   20.6626 C   0  0  0  0  0  0  0  0  0  0  0  0
  -19.7920  -24.1908   22.5652 C   0  0  0  0  0  0  0  0  0  0  0  0
  -24.2073  -12.3880   21.6232 C   0  0  0  0  0  0  0  0  0  0  0  0
  -26.9022  -28.1721   21.4324 C   0  0  0  0  0  0  0  0  0  0  0  0
  -26.3530  -31.1191   22.6717 C   0  0  0  0  0  0  0  0  0  0  0  0
  -24.0849  -33.4753   23.6470 C   0  0  0  0  0  0  0  0  0  0  0  0
  -21.9575  -19.9304   20.4628 C   0  0  0  0  0  0  0  0  0  0  0  0
  -30.8144  -25.6842   19.2965 C   0  0  0  0  0  0  0  0  0  0  0  0
  -25.3139  -29.1447   19.7331 C   0  0  0  0  0  0  0  0  0  0  0  0
  -24.3624  -29.5786   22.4992 C   0  0  0  0  0  0  0  0  0  0  0  0
  -30.6630  -26.8457   20.2754 C   0  0  0  0  0  0  0  0  0  0  0  0
  -24.2121  -18.8383   17.9327 C   0  0  0  0  0  0  0  0  0  0  0  0
  -29.6821  -26.4834   21.3860 C   0  0  0  0  0  0  0  0  0  0  0  0
  -24.7162  -17.4904   18.4536 C   0  0  0  0  0  0  0  0  0  0  0  0
  -18.6914  -25.3523   24.3270 C   0  0  0  0  0  0  0  0  0  0  0  0
  -24.0101  -19.8441   19.0647 C   0  0  0  0  0  0  0  0  0  0  0  0
  -18.2702  -23.8966   24.3461 C   0  0  0  0  0  0  0  0  0  0  0  0
  -23.6703  -18.0252   20.6912 C   0  0  0  0  0  0  0  0  0  0  0  0
  -28.2866  -26.1981   20.8182 C   0  0  1  0  0  0  0  0  0  0  0  0
  -19.1979  -25.5482   22.9054 C   0  0  1  0  0  0  0  0  0  0  0  0
  -26.2801  -29.4235   20.8803 C   0  0  1  0  0  0  0  0  0  0  0  0
  -23.8269  -16.9590   19.5947 C   0  0  2  0  0  0  0  0  0  0  0  0
  -23.9367  -35.7681   24.6562 C   0  0  0  0  0  0  0  0  0  0  0  0
  -27.0166  -29.9532   25.4121 C   0  0  0  0  0  0  0  0  0  0  0  0
  -25.9517  -31.9675   26.4498 C   0  0  0  0  0  0  0  0  0  0  0  0
  -27.9586  -32.2315   24.9918 C   0  0  0  0  0  0  0  0  0  0  0  0
  -22.7132  -34.5634   21.2610 C   0  0  0  0  0  0  0  0  0  0  0  0
  -20.1976  -26.6824   22.7797 C   0  0  0  0  0  0  0  0  0  1  0  0
  -25.7336  -31.6455   23.9438 C   0  0  1  0  0  0  0  0  0  0  0  0
  -23.9957  -34.9645   23.3664 C   0  0  2  0  0  0  0  0  0  0  0  0
  -26.6505  -31.4329   25.1814 C   0  0  0  0  0  0  0  0  0  0  0  0
  -25.6730  -15.4229   20.1551 N   0  0  0  0  0  0  0  0  0  0  0  0
  -24.3477  -15.6458   20.1484 N   0  0  0  0  0  0  0  0  0  0  0  0
  -19.1784  -23.2497   23.4175 N   0  0  0  0  0  0  0  0  0  0  0  0
  -25.6409  -30.1136   22.0026 N   0  0  0  0  0  0  0  0  0  0  0  0
  -23.1543  -19.2731   20.1071 N   0  0  0  0  0  0  0  0  0  0  0  0
  -22.2664  -14.6770   20.7315 N   0  0  0  0  0  0  0  0  0  0  0  0
  -25.2605  -11.5191   21.9394 N   0  0  0  0  0  0  0  0  0  0  0  0
  -21.2101  -19.2772   21.4421 N   0  0  0  0  0  0  0  0  0  0  0  0
  -27.6076  -27.4359   20.4998 N   0  0  0  0  0  0  0  0  0  0  0  0
  -25.3928  -33.0403   23.6852 N   0  0  0  0  0  0  0  0  0  0  0  0
  -22.7753  -35.2688   22.5669 N   0  3  0  0  0  0  0  0  0  0  0  0
  -20.5992  -24.0205   21.6631 O   0  0  0  0  0  0  0  0  0  0  0  0
  -23.0267  -12.0296   21.8495 O   0  0  0  0  0  0  0  0  0  0  0  0
  -26.7543  -27.8959   22.6171 O   0  0  0  0  0  0  0  0  0  0  0  0
  -27.4253  -31.5881   22.2821 O   0  0  0  0  0  0  0  0  0  0  0  0
  -23.0937  -32.7693   23.8191 O   0  0  0  0  0  0  0  0  0  0  0  0
  -21.6071  -20.9803   19.9179 O   0  0  0  0  0  0  0  0  0  0  0  0
  -30.7955  -11.8515   21.4017 O   0  0  0  0  0  0  0  0  0  0  0  0
  -20.3284  -27.0362   21.4034 O   0  0  0  0  0  0  0  0  0  1  0  0
  -31.3754   -6.5626   19.9541 F   0  0  0  0  0  0  0  0  0  0  0  0
  -18.1781  -18.8712   25.1449 F   0  0  0  0  0  0  0  0  0  0  0  0
  -32.6218  -11.1029   19.4660 F   0  0  0  0  0  0  0  0  0  0  0  0
  1  2  1  0  0  0  0
  1  5  2  0  0  0  0
  2  6  2  0  0  0  0
  3  8  2  0  0  0  0
  3 18  1  0  0  0  0
  4  9  1  0  0  0  0
  4 18  2  0  0  0  0
  5 20  1  0  0  0  0
  6 22  1  0  0  0  0
  7 10  2  0  0  0  0
  7 21  1  0  0  0  0
  8 26  1  0  0  0  0
  9 26  2  0  0  0  0
 10 27  1  0  0  0  0
 11 12  2  0  0  0  0
 11 28  1  0  0  0  0
 12 29  1  0  0  0  0
 13 23  1  0  0  0  0
 13 27  2  0  0  0  0
 14 24  2  0  0  0  0
 14 25  1  0  0  0  0
 15 24  1  0  0  0  0
 15 30  2  0  0  0  0
 16 25  2  0  0  0  0
 16 30  1  0  0  0  0
 17 29  2  0  0  0  0
 17 31  1  0  0  0  0
 18 32  1  0  0  0  0
 19 32  1  0  0  0  0
 19 33  2  0  0  0  0
 19 35  1  0  0  0  0
 20 22  2  0  0  0  0
 20 40  1  0  0  0  0
 21 23  2  0  0  0  0
 21 41  1  0  0  0  0
 22 51  1  0  0  0  0
 23 42  1  0  0  0  0
 24 66  1  0  0  0  0
 25 71  1  0  0  0  0
 26 81  1  0  0  0  0
 27 82  1  0  0  0  0
 28 31  2  0  0  0  0
 28 81  1  0  0  0  0
 29 83  1  0  0  0  0
 30 84  1  0  0  0  0
 31 85  1  0  0  0  0
 32 64  2  0  0  0  0
 33 65  1  0  0  0  0
 33 69  1  0  0  0  0
 34 52  1  0  0  0  0
 34 66  1  0  0  0  0
 34 75  2  0  0  0  0
 35 70  1  0  0  0  0
 35 76  2  0  0  0  0
 36 53  1  0  0  0  0
 36 72  1  0  0  0  0
 36 77  2  0  0  0  0
 37 61  1  0  0  0  0
 37 67  1  0  0  0  0
 37 78  2  0  0  0  0
 38 62  1  0  0  0  0
 38 73  1  0  0  0  0
 38 79  2  0  0  0  0
 39 68  1  0  0  0  0
 39 71  1  0  0  0  0
 39 80  2  0  0  0  0
 40 43  1  0  0  0  0
 41 53  1  0  0  0  0
 42 67  1  0  0  0  0
 43 45  1  0  0  0  0
 44 46  1  0  0  0  0
 44 48  1  0  0  0  0
 45 51  1  0  0  0  0
 46 54  1  0  0  0  0
 47 49  1  0  0  0  0
 47 52  1  0  0  0  0
 48 68  1  0  0  0  0
 49 66  1  0  0  0  0
 50 54  1  0  0  0  0
 50 68  1  0  0  0  0
 51 72  1  0  0  0  0
 52 60  1  0  0  0  0
 53 67  1  0  0  0  0
 54 65  1  0  0  0  0
 55 62  1  0  0  0  0
 56 63  1  0  0  0  0
 57 63  1  0  0  0  0
 58 63  1  0  0  0  0
 59 74  1  0  0  0  0
 60 82  1  0  0  0  0
 61 63  1  0  0  0  0
 61 73  1  0  0  0  0
 62 74  1  0  0  0  0
 64 65  1  0  0  0  0
M  CHG  1  74   1
M  ISO  4  39 100  60 101  71 100  82 101
M  END
> <Batch ID>
0064

> <Smiles>
CNC(C)C(=O)NC(C(=O)N1Cc2cc([101O:1][101CH2:1]C3CCN(c4cc(F)cc([100NH:0][100C:0](=O)N5CCCC(n6nc(-c7ccc(Oc8ccc(F)cc8F)cc7)c(C(N)=O)c6N)C5)c4)C3=O)ccc2CC1C(=O)NC1CCCc2ccccc21)C(C)(C)C

> <Shape>
0.261

> <Color>
0.081

> <Negative vol penalty>
0.000

$$$$

  -OEChem-04042323153D

 87 96  0     1  0  0  0  0  0999 V2000
  -20.0198  -30.9652   21.2421 C   0  0  0  0  0  0  0  0  0  0  0  0
  -21.3126  -30.4787   21.4073 C   0  0  0  0  0  0  0  0  0  0  0  0
  -26.5848  -12.8081   21.5926 C   0  0  0  0  0  0  0  0  0  0  0  0
  -25.9569  -13.8431   19.5018 C   0  0  0  0  0  0  0  0  0  0  0  0
  -18.9272  -30.1303   21.4728 C   0  0  0  0  0  0  0  0  0  0  0  0
  -21.5136  -29.1572   21.8044 C   0  0  0  0  0  0  0  0  0  0  0  0
  -25.1313  -26.8495   19.1153 C   0  0  0  0  0  0  0  0  0  0  0  0
  -25.3159  -12.2374   21.6912 C   0  0  0  0  0  0  0  0  0  0  0  0
  -24.6879  -13.2725   19.6004 C   0  0  0  0  0  0  0  0  0  0  0  0
  -26.4541  -27.1421   19.4447 C   0  0  0  0  0  0  0  0  0  0  0  0
  -23.6592   -9.6039   20.3673 C   0  0  0  0  0  0  0  0  0  0  0  0
  -23.5793   -8.2604   20.7336 C   0  0  0  0  0  0  0  0  0  0  0  0
  -26.5903  -25.0859   20.6987 C   0  0  0  0  0  0  0  0  0  0  0  0
  -29.5246  -23.5142   16.6109 C   0  0  0  0  0  0  0  0  0  0  0  0
  -30.1709  -22.7234   18.8003 C   0  0  0  0  0  0  0  0  0  0  0  0
  -28.9841  -21.2592   17.2889 C   0  0  0  0  0  0  0  0  0  0  0  0
  -22.2801   -8.8677   22.6779 C   0  0  0  0  0  0  0  0  0  0  0  0
  -26.9053  -13.6110   20.4979 C   0  0  0  0  0  0  0  0  0  0  0  0
  -29.3527  -13.6455   19.7789 C   0  0  0  0  0  0  0  0  0  0  0  0
  -19.1151  -28.7952   21.8635 C   0  0  0  0  0  0  0  0  0  0  0  0
  -24.5237  -25.6762   19.5849 C   0  0  0  0  0  0  0  0  0  0  0  0
  -20.4225  -28.3041   22.0418 C   0  0  0  0  0  0  0  0  0  0  0  0
  -25.2605  -24.7795   20.3717 C   0  0  0  0  0  0  0  0  0  0  0  0
  -30.1356  -23.7387   17.8445 C   0  0  0  0  0  0  0  0  0  0  0  0
  -28.9488  -22.2745   16.3331 C   0  0  0  0  0  0  0  0  0  0  0  0
  -29.5952  -21.4836   18.5225 C   0  0  0  0  0  0  0  0  0  0  0  0
  -24.3674  -12.4696   20.6952 C   0  0  0  0  0  0  0  0  0  0  0  0
  -27.1829  -26.2616   20.2389 C   0  0  0  0  0  0  0  0  0  0  0  0
  -23.0496  -10.5793   21.1564 C   0  0  0  0  0  0  0  0  0  0  0  0
  -22.8898   -7.8923   21.8889 C   0  0  0  0  0  0  0  0  0  0  0  0
  -22.3601  -10.2113   22.3116 C   0  0  0  0  0  0  0  0  0  0  0  0
  -28.2158  -14.2012   20.3957 C   0  0  0  0  0  0  0  0  0  0  0  0
  -30.3337  -14.5912   19.9515 C   0  0  0  0  0  0  0  0  0  0  0  0
  -31.8257  -27.1388   17.5539 C   0  0  0  0  0  0  0  0  0  0  0  0
  -31.5699  -27.7071   18.7468 C   0  0  0  0  0  0  0  0  0  0  0  0
  -31.2798  -25.8198   17.1213 C   0  0  0  0  0  0  0  0  0  0  0  0
  -29.5080  -12.3870   19.1097 C   0  0  0  0  0  0  0  0  0  0  0  0
  -22.0386  -25.0327   21.4594 C   0  0  0  0  0  0  0  0  0  0  0  0
  -22.6719  -21.9724   20.5899 C   0  0  0  0  0  0  0  0  0  0  0  0
  -24.9458  -19.6941   19.4562 C   0  0  0  0  0  0  0  0  0  0  0  0
  -30.2008  -20.5094   20.7654 C   0  0  0  0  0  0  0  0  0  0  0  0
  -17.9025  -27.9443   22.1471 C   0  0  0  0  0  0  0  0  0  0  0  0
  -23.1044  -25.3621   19.1985 C   0  0  0  0  0  0  0  0  0  0  0  0
  -24.6608  -23.4965   20.8844 C   0  0  0  0  0  0  0  0  0  0  0  0
  -18.2068  -26.4494   22.2024 C   0  0  0  0  0  0  0  0  0  0  0  0
  -31.6754  -18.0952   22.9274 C   0  0  0  0  0  0  0  0  0  0  0  0
  -19.4473  -26.1882   23.0507 C   0  0  0  0  0  0  0  0  0  0  0  0
  -31.0636  -16.7713   22.4634 C   0  0  0  0  0  0  0  0  0  0  0  0
  -30.6695  -19.2424   22.8511 C   0  0  0  0  0  0  0  0  0  0  0  0
  -30.9028  -25.4170   19.5327 C   0  0  0  0  0  0  0  0  0  0  0  0
  -29.4034  -18.0848   21.0830 C   0  0  0  0  0  0  0  0  0  0  0  0
  -20.6817  -26.8693   22.4475 C   0  0  1  0  0  0  0  0  0  0  0  0
  -30.7107  -26.9279   19.7372 C   0  0  2  0  0  0  0  0  0  0  0  0
  -22.4253  -24.3894   20.1577 C   0  0  1  0  0  0  0  0  0  0  0  0
  -30.3978  -16.9122   21.0805 C   0  0  2  0  0  0  0  0  0  0  0  0
  -25.8195  -17.4985   18.6116 C   0  0  0  0  0  0  0  0  0  0  0  0
  -22.7642  -21.2798   23.5601 C   0  0  0  0  0  0  0  0  0  0  0  0
  -23.9106  -19.1382   22.9537 C   0  0  0  0  0  0  0  0  0  0  0  0
  -21.5996  -19.5902   22.1306 C   0  0  0  0  0  0  0  0  0  0  0  0
  -24.3406  -20.4018   16.6470 C   0  0  0  0  0  0  0  0  0  0  0  0
  -29.2259  -27.3112   19.6222 C   0  0  0  0  0  0  0  0  0  1  0  0
  -23.5420  -20.8648   21.1334 C   0  0  1  0  0  0  0  0  0  0  0  0
  -24.8659  -18.6546   18.3528 C   0  0  2  0  0  0  0  0  0  0  0  0
  -22.9651  -20.2433   22.4365 C   0  0  0  0  0  0  0  0  0  0  0  0
  -28.4514  -15.4064   20.9210 N   0  0  0  0  0  0  0  0  0  0  0  0
  -29.7477  -15.6158   20.6348 N   0  0  0  0  0  0  0  0  0  0  0  0
  -30.7318  -25.0189   18.1319 N   0  0  0  0  0  0  0  0  0  0  0  0
  -23.2678  -23.2371   20.4846 N   0  0  0  0  0  0  0  0  0  0  0  0
  -30.0828  -19.3175   21.5113 N   0  0  0  0  0  0  0  0  0  0  0  0
  -28.3308  -22.0469   15.0859 N   0  0  0  0  0  0  0  0  0  0  0  0
  -31.6318  -14.6379   19.5839 N   0  0  0  0  0  0  0  0  0  0  0  0
  -28.3984  -11.5354   19.0222 N   0  0  0  0  0  0  0  0  0  0  0  0
  -29.6328  -20.4520   19.4931 N   0  0  0  0  0  0  0  0  0  0  0  0
  -21.1805  -26.1072   21.3229 N   0  0  0  0  0  0  0  0  0  0  0  0
  -23.7172  -19.9113   20.0432 N   0  0  0  0  0  0  0  0  0  0  0  0
  -25.2141  -19.2659   17.0390 N   0  3  0  0  0  0  0  0  0  0  0  0
  -31.9552  -28.8149   19.2141 O   0  5  0  0  0  0  0  0  0  0  0  0
  -31.3950  -25.5272   15.9315 O   0  0  0  0  0  0  0  0  0  0  0  0
  -30.6029  -12.0213   18.6187 O   0  0  0  0  0  0  0  0  0  0  0  0
  -22.4844  -24.5862   22.5099 O   0  0  0  0  0  0  0  0  0  0  0  0
  -21.5086  -21.7229   20.2640 O   0  0  0  0  0  0  0  0  0  0  0  0
  -25.9941  -20.2545   19.7687 O   0  0  0  0  0  0  0  0  0  0  0  0
  -30.7881  -21.4985   21.2112 O   0  0  0  0  0  0  0  0  0  0  0  0
  -23.1292  -11.9127   20.7909 O   0  0  0  0  0  0  0  0  0  0  0  0
  -28.4739  -26.5451   20.5624 O   0  0  0  0  0  0  0  0  0  1  0  0
  -22.8118   -6.6019   22.2397 F   0  0  0  0  0  0  0  0  0  0  0  0
  -21.7714  -11.1438   23.0730 F   0  0  0  0  0  0  0  0  0  0  0  0
  1  2  1  0  0  0  0
  1  5  2  0  0  0  0
  2  6  2  0  0  0  0
  3  8  2  0  0  0  0
  3 18  1  0  0  0  0
  4  9  1  0  0  0  0
  4 18  2  0  0  0  0
  5 20  1  0  0  0  0
  6 22  1  0  0  0  0
  7 10  2  0  0  0  0
  7 21  1  0  0  0  0
  8 27  1  0  0  0  0
  9 27  2  0  0  0  0
 10 28  1  0  0  0  0
 11 12  2  0  0  0  0
 11 29  1  0  0  0  0
 12 30  1  0  0  0  0
 13 23  1  0  0  0  0
 13 28  2  0  0  0  0
 14 24  1  0  0  0  0
 14 25  2  0  0  0  0
 15 24  2  0  0  0  0
 15 26  1  0  0  0  0
 16 25  1  0  0  0  0
 16 26  2  0  0  0  0
 17 30  2  0  0  0  0
 17 31  1  0  0  0  0
 18 32  1  0  0  0  0
 19 32  1  0  0  0  0
 19 33  2  0  0  0  0
 19 37  1  0  0  0  0
 20 22  2  0  0  0  0
 20 42  1  0  0  0  0
 21 23  2  0  0  0  0
 21 43  1  0  0  0  0
 22 52  1  0  0  0  0
 23 44  1  0  0  0  0
 24 67  1  0  0  0  0
 25 70  1  0  0  0  0
 26 73  1  0  0  0  0
 27 84  1  0  0  0  0
 28 85  1  0  0  0  0
 29 31  2  0  0  0  0
 29 84  1  0  0  0  0
 30 86  1  0  0  0  0
 31 87  1  0  0  0  0
 32 65  2  0  0  0  0
 33 66  1  0  0  0  0
 33 71  1  0  0  0  0
 34 35  2  0  0  0  0
 34 36  1  0  0  0  0
 35 53  1  0  0  0  0
 35 77  1  0  0  0  0
 36 67  1  0  0  0  0
 36 78  2  0  0  0  0
 37 72  1  0  0  0  0
 37 79  2  0  0  0  0
 38 54  1  0  0  0  0
 38 74  1  0  0  0  0
 38 80  2  0  0  0  0
 39 62  1  0  0  0  0
 39 68  1  0  0  0  0
 39 81  2  0  0  0  0
 40 63  1  0  0  0  0
 40 75  1  0  0  0  0
 40 82  2  0  0  0  0
 41 69  1  0  0  0  0
 41 73  1  0  0  0  0
 41 83  2  0  0  0  0
 42 45  1  0  0  0  0
 43 54  1  0  0  0  0
 44 68  1  0  0  0  0
 45 47  1  0  0  0  0
 46 48  1  0  0  0  0
 46 49  1  0  0  0  0
 47 52  1  0  0  0  0
 48 55  1  0  0  0  0
 49 69  1  0  0  0  0
 50 53  1  0  0  0  0
 50 67  1  0  0  0  0
 51 55  1  0  0  0  0
 51 69  1  0  0  0  0
 52 74  1  0  0  0  0
 53 61  1  0  0  0  0
 54 68  1  0  0  0  0
 55 66  1  0  0  0  0
 56 63  1  0  0  0  0
 57 64  1  0  0  0  0
 58 64  1  0  0  0  0
 59 64  1  0  0  0  0
 60 76  1  0  0  0  0
 61 85  1  0  0  0  0
 62 64  1  0  0  0  0
 62 75  1  0  0  0  0
 63 76  1  0  0  0  0
 65 66  1  0  0  0  0
M  CHG  2  76   1  77  -1
M  ISO  4  41 100  61 101  73 100  85 101
M  END
> <Batch ID>
0064

> <Smiles>
CNC(C)C(=O)NC(C(=O)N1Cc2cc([101O:1][101CH2:1]C3CN(c4cc(N)cc([100NH:0][100C:0](=O)N5CCCC(n6nc(-c7ccc(Oc8ccc(F)cc8F)cc7)c(C(N)=O)c6N)C5)c4)C(=O)CC3=O)ccc2CC1C(=O)NC1CCCc2ccccc21)C(C)(C)C

> <Shape>
0.282

> <Color>
0.074

> <Negative vol penalty>
0.000

$$$$
