
  -OEChem-04042323183D

 90 99  0     1  0  0  0  0  0999 V2000
  -24.6319  -38.1502   21.9272 C   0  0  0  0  0  0  0  0  0  0  0  0
  -25.4477  -37.3015   21.1859 C   0  0  0  0  0  0  0  0  0  0  0  0
  -25.5273  -10.4820   22.9244 C   0  0  0  0  0  0  0  0  0  0  0  0
  -26.4620  -12.6153   23.5668 C   0  0  0  0  0  0  0  0  0  0  0  0
  -24.0024  -37.6798   23.0789 C   0  0  0  0  0  0  0  0  0  0  0  0
  -25.6355  -35.9822   21.5964 C   0  0  0  0  0  0  0  0  0  0  0  0
  -26.7158  -29.4126   18.9527 C   0  0  0  0  0  0  0  0  0  0  0  0
  -25.9267   -9.9392   24.1457 C   0  0  0  0  0  0  0  0  0  0  0  0
  -26.8613  -12.0725   24.7881 C   0  0  0  0  0  0  0  0  0  0  0  0
  -27.5847  -28.3298   19.0801 C   0  0  0  0  0  0  0  0  0  0  0  0
  -28.7770   -8.7760   25.5409 C   0  0  0  0  0  0  0  0  0  0  0  0
  -29.3911   -7.5237   25.5228 C   0  0  0  0  0  0  0  0  0  0  0  0
  -26.3835  -27.6046   21.0423 C   0  0  0  0  0  0  0  0  0  0  0  0
  -29.5214  -19.3360   18.1557 C   0  0  0  0  0  0  0  0  0  0  0  0
  -28.3393  -20.7248   20.2668 C   0  0  0  0  0  0  0  0  0  0  0  0
  -27.6353   -6.6425   26.9293 C   0  0  0  0  0  0  0  0  0  0  0  0
  -25.7950  -11.8200   22.6349 C   0  0  0  0  0  0  0  0  0  0  0  0
  -24.0712  -12.4721   20.8711 C   0  0  0  0  0  0  0  0  0  0  0  0
  -24.1748  -36.3513   23.4985 C   0  0  0  0  0  0  0  0  0  0  0  0
  -25.6791  -29.6060   19.8770 C   0  0  0  0  0  0  0  0  0  0  0  0
  -25.0088  -35.4940   22.7556 C   0  0  0  0  0  0  0  0  0  0  0  0
  -25.5012  -28.6892   20.9229 C   0  0  0  0  0  0  0  0  0  0  0  0
  -30.0437  -20.5639   18.5620 C   0  0  0  0  0  0  0  0  0  0  0  0
  -29.4526  -21.2583   19.6175 C   0  0  0  0  0  0  0  0  0  0  0  0
  -28.4080  -18.8025   18.8050 C   0  0  0  0  0  0  0  0  0  0  0  0
  -26.5936  -10.7345   25.0775 C   0  0  0  0  0  0  0  0  0  0  0  0
  -27.4204  -27.4272   20.1267 C   0  0  0  0  0  0  0  0  0  0  0  0
  -27.5921   -8.9616   26.2532 C   0  0  0  0  0  0  0  0  0  0  0  0
  -28.8202   -6.4570   26.2170 C   0  0  0  0  0  0  0  0  0  0  0  0
  -27.8170  -19.4969   19.8605 C   0  0  0  0  0  0  0  0  0  0  0  0
  -27.0213   -7.8948   26.9473 C   0  0  0  0  0  0  0  0  0  0  0  0
  -25.3832  -12.3811   21.3733 C   0  0  0  0  0  0  0  0  0  0  0  0
  -24.2133  -13.0790   19.6472 C   0  0  0  0  0  0  0  0  0  0  0  0
  -30.9664  -22.6009   21.0514 C   0  0  0  0  0  0  0  0  0  0  0  0
  -22.8346  -12.0460   21.4585 C   0  0  0  0  0  0  0  0  0  0  0  0
  -24.9268  -31.8868   21.9592 C   0  0  0  0  0  0  0  0  0  0  0  0
  -22.2477  -30.1012   22.3544 C   0  0  0  0  0  0  0  0  0  0  0  0
  -20.7409  -27.0478   22.1242 C   0  0  0  0  0  0  0  0  0  0  0  0
  -28.3465  -16.7390   17.3611 C   0  0  0  0  0  0  0  0  0  0  0  0
  -23.5115  -35.9016   24.7762 C   0  0  0  0  0  0  0  0  0  0  0  0
  -24.7340  -30.7641   19.7101 C   0  0  0  0  0  0  0  0  0  0  0  0
  -24.3916  -28.8406   21.9300 C   0  0  0  0  0  0  0  0  0  0  0  0
  -31.6701  -23.9348   21.2156 C   0  0  0  0  0  0  0  0  0  0  0  0
  -23.4635  -34.3843   24.9363 C   0  0  0  0  0  0  0  0  0  0  0  0
  -30.7874  -25.1401   20.9768 C   0  0  0  0  0  0  0  0  0  0  0  0
  -27.3429  -13.5815   16.0573 C   0  0  0  0  0  0  0  0  0  0  0  0
  -24.8209  -33.7698   24.6097 C   0  0  0  0  0  0  0  0  0  0  0  0
  -26.6018  -12.9261   17.2249 C   0  0  0  0  0  0  0  0  0  0  0  0
  -28.5389  -14.4035   16.5345 C   0  0  0  0  0  0  0  0  0  0  0  0
  -29.2947  -23.7478   19.5708 C   0  0  0  0  0  0  0  0  0  0  0  0
  -27.4938  -14.7419   18.7396 C   0  0  0  0  0  0  0  0  0  0  0  0
  -25.2174  -34.0493   23.1550 C   0  0  1  0  0  0  0  0  0  0  0  0
  -24.0281  -31.1508   21.0061 C   0  0  1  0  0  0  0  0  0  0  0  0
  -30.1470  -25.0155   19.6041 C   0  0  1  0  0  0  0  0  0  0  0  0
  -26.2428  -13.9561   18.3139 C   0  0  2  0  0  0  0  0  0  0  0  0
  -18.5555  -25.8920   22.5548 C   0  0  0  0  0  0  0  0  0  0  0  0
  -22.8407  -30.1002   25.3474 C   0  0  0  0  0  0  0  0  0  0  0  0
  -21.2300  -28.1996   25.5952 C   0  0  0  0  0  0  0  0  0  0  0  0
  -20.4292  -30.4102   24.7619 C   0  0  0  0  0  0  0  0  0  0  0  0
  -20.4317  -26.3190   19.2725 C   0  0  0  0  0  0  0  0  0  0  0  0
  -29.3026  -26.2459   19.2793 C   0  0  0  0  0  0  0  0  0  1  0  0
  -21.8482  -28.9578   23.2556 C   0  0  1  0  0  0  0  0  0  0  0  0
  -19.4095  -26.6237   21.5310 C   0  0  2  0  0  0  0  0  0  0  0  0
  -31.2369  -21.1118   17.8483 C   0  0  0  0  0  0  0  0  0  0  0  0
  -21.6092  -29.4149   24.7223 C   0  0  0  0  0  0  0  0  0  0  0  0
  -26.2919  -12.8895   20.5368 N   0  0  0  0  0  0  0  0  0  0  0  0
  -25.5498  -13.3056   19.4965 N   0  0  0  0  0  0  0  0  0  0  0  0
  -29.9785  -22.5343   20.0539 N   0  0  0  0  0  0  0  0  0  0  0  0
  -23.4973  -29.9926   21.7279 N   0  0  0  0  0  0  0  0  0  0  0  0
  -28.1223  -15.3605   17.5618 N   0  0  0  0  0  0  0  0  0  0  0  0
  -23.3242  -13.4356   18.6960 N   0  0  0  0  0  0  0  0  0  0  0  0
  -22.1310  -12.9512   22.2646 N   0  0  0  0  0  0  0  0  0  0  0  0
  -27.8788  -17.5551   18.3906 N   0  0  0  0  0  0  0  0  0  0  0  0
  -24.5021  -33.1674   22.2578 N   0  0  0  0  0  0  0  0  0  0  0  0
  -20.6899  -28.3298   22.6291 N   0  0  0  0  0  0  0  0  0  0  0  0
  -19.6258  -25.7189   20.3668 N   0  3  0  0  0  0  0  0  0  0  0  0
  -31.3418  -21.6573   21.7525 O   0  0  0  0  0  0  0  0  0  0  0  0
  -22.3756  -10.8912   21.2871 O   0  0  0  0  0  0  0  0  0  0  0  0
  -25.9305  -31.3332   22.3928 O   0  0  0  0  0  0  0  0  0  0  0  0
  -21.4762  -31.0522   22.2060 O   0  0  0  0  0  0  0  0  0  0  0  0
  -21.7265  -26.3137   22.1415 O   0  0  0  0  0  0  0  0  0  0  0  0
  -28.8874  -17.1663   16.3380 O   0  0  0  0  0  0  0  0  0  0  0  0
  -26.9833  -10.2052   26.2694 O   0  0  0  0  0  0  0  0  0  0  0  0
  -28.2675  -26.3697   20.2538 O   0  0  0  0  0  0  0  0  0  1  0  0
  -29.4092   -5.2541   26.1983 F   0  0  0  0  0  0  0  0  0  0  0  0
  -26.7472  -18.9925   20.4917 F   0  0  0  0  0  0  0  0  0  0  0  0
  -25.8825   -8.0667   27.6324 F   0  0  0  0  0  0  0  0  0  0  0  0
  -31.6873  -20.3064   16.8428 F   0  0  0  0  0  0  0  0  0  0  0  0
  -31.0113  -22.3239   17.2632 F   0  0  0  0  0  0  0  0  0  0  0  0
  -32.3029  -21.2959   18.6787 F   0  0  0  0  0  0  0  0  0  0  0  0
  1  2  1  0  0  0  0
  1  5  2  0  0  0  0
  2  6  2  0  0  0  0
  3  8  2  0  0  0  0
  3 17  1  0  0  0  0
  4  9  1  0  0  0  0
  4 17  2  0  0  0  0
  5 19  1  0  0  0  0
  6 21  1  0  0  0  0
  7 10  2  0  0  0  0
  7 20  1  0  0  0  0
  8 26  1  0  0  0  0
  9 26  2  0  0  0  0
 10 27  1  0  0  0  0
 11 12  2  0  0  0  0
 11 28  1  0  0  0  0
 12 29  1  0  0  0  0
 13 22  1  0  0  0  0
 13 27  2  0  0  0  0
 14 23  1  0  0  0  0
 14 25  2  0  0  0  0
 15 24  1  0  0  0  0
 15 30  2  0  0  0  0
 16 29  2  0  0  0  0
 16 31  1  0  0  0  0
 17 32  1  0  0  0  0
 18 32  1  0  0  0  0
 18 33  2  0  0  0  0
 18 35  1  0  0  0  0
 19 21  2  0  0  0  0
 19 40  1  0  0  0  0
 20 22  2  0  0  0  0
 20 41  1  0  0  0  0
 21 52  1  0  0  0  0
 22 42  1  0  0  0  0
 23 24  2  0  0  0  0
 23 64  1  0  0  0  0
 24 68  1  0  0  0  0
 25 30  1  0  0  0  0
 25 73  1  0  0  0  0
 26 83  1  0  0  0  0
 27 84  1  0  0  0  0
 28 31  2  0  0  0  0
 28 83  1  0  0  0  0
 29 85  1  0  0  0  0
 30 86  1  0  0  0  0
 31 87  1  0  0  0  0
 32 66  2  0  0  0  0
 33 67  1  0  0  0  0
 33 71  1  0  0  0  0
 34 43  1  0  0  0  0
 34 68  1  0  0  0  0
 34 77  2  0  0  0  0
 35 72  1  0  0  0  0
 35 78  2  0  0  0  0
 36 53  1  0  0  0  0
 36 74  1  0  0  0  0
 36 79  2  0  0  0  0
 37 62  1  0  0  0  0
 37 69  1  0  0  0  0
 37 80  2  0  0  0  0
 38 63  1  0  0  0  0
 38 75  1  0  0  0  0
 38 81  2  0  0  0  0
 39 70  1  0  0  0  0
 39 73  1  0  0  0  0
 39 82  2  0  0  0  0
 40 44  1  0  0  0  0
 41 53  1  0  0  0  0
 42 69  1  0  0  0  0
 43 45  1  0  0  0  0
 44 47  1  0  0  0  0
 45 54  1  0  0  0  0
 46 48  1  0  0  0  0
 46 49  1  0  0  0  0
 47 52  1  0  0  0  0
 48 55  1  0  0  0  0
 49 70  1  0  0  0  0
 50 54  1  0  0  0  0
 50 68  1  0  0  0  0
 51 55  1  0  0  0  0
 51 70  1  0  0  0  0
 52 74  1  0  0  0  0
 53 69  1  0  0  0  0
 54 61  1  0  0  0  0
 55 67  1  0  0  0  0
 56 63  1  0  0  0  0
 57 65  1  0  0  0  0
 58 65  1  0  0  0  0
 59 65  1  0  0  0  0
 60 76  1  0  0  0  0
 61 84  1  0  0  0  0
 62 65  1  0  0  0  0
 62 75  1  0  0  0  0
 63 76  1  0  0  0  0
 64 88  1  0  0  0  0
 64 89  1  0  0  0  0
 64 90  1  0  0  0  0
 66 67  1  0  0  0  0
M  CHG  1  76   1
M  ISO  4  39 100  61 101  73 100  84 101
M  END
> <Batch ID>
0065

> <Smiles>
CNC(C)C(=O)NC(C(=O)N1Cc2cc([101O:1][101CH2:1]C3CCC(=O)N(c4cc(F)c([100NH:0][100C:0](=O)N5CCCC(n6nc(-c7ccc(Oc8ccc(F)cc8F)cc7)c(C(N)=O)c6N)C5)cc4C(F)(F)F)C3)ccc2CC1C(=O)NC1CCCc2ccccc21)C(C)(C)C

> <Shape>
0.282

> <Color>
0.090

> <Negative vol penalty>
0.000

$$$$

  -OEChem-04042323183D

 86 95  0     1  0  0  0  0  0999 V2000
  -26.6016  -31.1172   28.8920 C   0  0  0  0  0  0  0  0  0  0  0  0
  -27.1463  -30.5282   27.7554 C   0  0  0  0  0  0  0  0  0  0  0  0
  -26.3990  -12.6485   21.4692 C   0  0  0  0  0  0  0  0  0  0  0  0
  -26.3424  -13.0694   19.0908 C   0  0  0  0  0  0  0  0  0  0  0  0
  -25.2203  -31.1186   29.0812 C   0  0  0  0  0  0  0  0  0  0  0  0
  -26.3099  -29.9392   26.8078 C   0  0  0  0  0  0  0  0  0  0  0  0
  -27.1340  -29.8138   20.7406 C   0  0  0  0  0  0  0  0  0  0  0  0
  -25.1166  -12.1039   21.4034 C   0  0  0  0  0  0  0  0  0  0  0  0
  -25.0600  -12.5247   19.0250 C   0  0  0  0  0  0  0  0  0  0  0  0
  -27.6453  -28.8404   19.8834 C   0  0  0  0  0  0  0  0  0  0  0  0
  -23.6962   -9.1824   20.4651 C   0  0  0  0  0  0  0  0  0  0  0  0
  -23.4641   -7.9866   21.1446 C   0  0  0  0  0  0  0  0  0  0  0  0
  -25.4029  -28.0866   19.4116 C   0  0  0  0  0  0  0  0  0  0  0  0
  -29.2766  -21.9298   14.9303 C   0  0  0  0  0  0  0  0  0  0  0  0
  -29.6941  -19.7398   15.8609 C   0  0  0  0  0  0  0  0  0  0  0  0
  -29.4562  -26.0679   15.9136 C   0  0  0  0  0  0  0  0  0  0  0  0
  -29.8158  -21.6958   17.2737 C   0  0  0  0  0  0  0  0  0  0  0  0
  -21.7690   -9.0740   22.4792 C   0  0  0  0  0  0  0  0  0  0  0  0
  -27.0119  -13.1313   20.3130 C   0  0  0  0  0  0  0  0  0  0  0  0
  -29.5588  -13.0126   20.2305 C   0  0  0  0  0  0  0  0  0  0  0  0
  -24.3659  -30.5378   28.1308 C   0  0  0  0  0  0  0  0  0  0  0  0
  -25.7516  -29.9240   20.9485 C   0  0  0  0  0  0  0  0  0  0  0  0
  -24.9159  -29.9315   26.9852 C   0  0  0  0  0  0  0  0  0  0  0  0
  -24.8764  -29.0639   20.2700 C   0  0  0  0  0  0  0  0  0  0  0  0
  -29.3753  -20.5478   14.7695 C   0  0  0  0  0  0  0  0  0  0  0  0
  -29.0397  -25.8830   17.2550 C   0  0  0  0  0  0  0  0  0  0  0  0
  -29.4969  -22.5039   16.1824 C   0  0  0  0  0  0  0  0  0  0  0  0
  -29.9143  -20.3138   17.1130 C   0  0  0  0  0  0  0  0  0  0  0  0
  -24.4471  -12.0419   20.1813 C   0  0  0  0  0  0  0  0  0  0  0  0
  -26.7800  -27.9748   19.2209 C   0  0  0  0  0  0  0  0  0  0  0  0
  -22.9647  -10.3240   20.7927 C   0  0  0  0  0  0  0  0  0  0  0  0
  -22.5005   -7.9323   22.1516 C   0  0  0  0  0  0  0  0  0  0  0  0
  -22.0011  -10.2698   21.7997 C   0  0  0  0  0  0  0  0  0  0  0  0
  -28.3364  -13.6946   20.3804 C   0  0  0  0  0  0  0  0  0  0  0  0
  -30.5158  -13.9866   20.3792 C   0  0  0  0  0  0  0  0  0  0  0  0
  -29.6708  -24.8191   15.3736 C   0  0  0  0  0  0  0  0  0  0  0  0
  -29.0126  -24.5266   17.4939 C   0  0  0  0  0  0  0  0  0  0  0  0
  -29.8071  -11.6231   19.9792 C   0  0  0  0  0  0  0  0  0  0  0  0
  -23.8317  -29.6352   23.4653 C   0  0  0  0  0  0  0  0  0  0  0  0
  -21.5736  -30.6489   21.3687 C   0  0  0  0  0  0  0  0  0  0  0  0
  -20.5609  -30.9529   18.1239 C   0  0  0  0  0  0  0  0  0  0  0  0
  -30.4867  -19.9014   19.5314 C   0  0  0  0  0  0  0  0  0  0  0  0
  -22.8824  -30.5219   28.4019 C   0  0  0  0  0  0  0  0  0  0  0  0
  -25.2143  -30.9967   21.8558 C   0  0  0  0  0  0  0  0  0  0  0  0
  -23.3830  -29.1540   20.4431 C   0  0  0  0  0  0  0  0  0  0  0  0
  -22.0409  -30.2073   27.1677 C   0  0  0  0  0  0  0  0  0  0  0  0
  -31.2785  -18.1868   22.5497 C   0  0  0  0  0  0  0  0  0  0  0  0
  -22.6187  -29.0108   26.4185 C   0  0  0  0  0  0  0  0  0  0  0  0
  -30.7305  -16.7764   22.3199 C   0  0  0  0  0  0  0  0  0  0  0  0
  -30.3786  -19.2532   21.9279 C   0  0  0  0  0  0  0  0  0  0  0  0
  -29.5168  -17.6393   20.2780 C   0  0  0  0  0  0  0  0  0  0  0  0
  -24.0398  -29.3043   25.9226 C   0  0  1  0  0  0  0  0  0  0  0  0
  -23.8198  -30.6844   22.3898 C   0  0  1  0  0  0  0  0  0  0  0  0
  -30.4232  -16.5270   20.8303 C   0  0  2  0  0  0  0  0  0  0  0  0
  -29.1391  -19.9340   13.4311 C   0  0  0  0  0  0  0  0  0  0  0  0
  -18.6523  -31.7901   16.7261 C   0  0  0  0  0  0  0  0  0  0  0  0
  -19.9367  -28.1909   22.1360 C   0  0  0  0  0  0  0  0  0  0  0  0
  -18.5499  -28.5601   20.0845 C   0  0  0  0  0  0  0  0  0  0  0  0
  -18.6053  -30.2922   21.8788 C   0  0  0  0  0  0  0  0  0  0  0  0
  -22.2859  -32.9183   16.7380 C   0  0  0  0  0  0  0  0  0  0  0  0
  -28.6942  -26.9684   18.2316 C   0  0  0  0  0  0  0  0  0  1  0  0
  -20.6321  -29.9726   20.4017 C   0  0  1  0  0  0  0  0  0  0  0  0
  -19.9961  -32.1312   17.3511 C   0  0  2  0  0  0  0  0  0  0  0  0
  -19.4592  -29.2507   21.1233 C   0  0  0  0  0  0  0  0  0  0  0  0
  -28.4991  -15.0007   20.6072 N   0  0  0  0  0  0  0  0  0  0  0  0
  -29.3984  -23.8899   16.3434 N   0  0  0  0  0  0  0  0  0  0  0  0
  -29.8350  -15.1474   20.6009 N   0  0  0  0  0  0  0  0  0  0  0  0
  -22.9067  -30.2152   21.3456 N   0  0  0  0  0  0  0  0  0  0  0  0
  -30.1343  -18.9535   20.5153 N   0  0  0  0  0  0  0  0  0  0  0  0
  -31.8649  -13.9547   20.3408 N   0  0  0  0  0  0  0  0  0  0  0  0
  -28.7097  -10.7604   19.8534 N   0  0  0  0  0  0  0  0  0  0  0  0
  -30.2378  -19.4927   18.2216 N   0  0  0  0  0  0  0  0  0  0  0  0
  -24.0005  -30.1390   24.7409 N   0  0  0  0  0  0  0  0  0  0  0  0
  -20.2099  -31.0006   19.4565 N   0  0  0  0  0  0  0  0  0  0  0  0
  -20.9317  -32.5336   16.2633 N   0  3  0  0  0  0  0  0  0  0  0  0
  -30.9681  -11.1573   19.8857 O   0  0  0  0  0  0  0  0  0  0  0  0
  -23.6961  -28.4560   23.1606 O   0  0  0  0  0  0  0  0  0  0  0  0
  -21.1436  -31.5345   22.1120 O   0  0  0  0  0  0  0  0  0  0  0  0
  -21.2420  -30.0758   17.5972 O   0  0  0  0  0  0  0  0  0  0  0  0
  -30.9987  -20.9842   19.8273 O   0  0  0  0  0  0  0  0  0  0  0  0
  -30.0671  -24.4638   14.1573 O   0  0  0  0  0  0  0  0  0  0  0  0
  -28.6933  -23.8479   18.5900 O   0  0  0  0  0  0  0  0  0  0  0  0
  -23.1958  -11.5103   20.1166 O   0  0  0  0  0  0  0  0  0  0  0  0
  -27.2764  -27.0234   18.3842 O   0  0  0  0  0  0  0  0  0  1  0  0
  -22.2766   -6.7835   22.8030 F   0  0  0  0  0  0  0  0  0  0  0  0
  -21.2944  -11.3630   22.1180 F   0  0  0  0  0  0  0  0  0  0  0  0
  1  2  1  0  0  0  0
  1  5  2  0  0  0  0
  2  6  2  0  0  0  0
  3  8  2  0  0  0  0
  3 19  1  0  0  0  0
  4  9  1  0  0  0  0
  4 19  2  0  0  0  0
  5 21  1  0  0  0  0
  6 23  1  0  0  0  0
  7 10  2  0  0  0  0
  7 22  1  0  0  0  0
  8 29  1  0  0  0  0
  9 29  2  0  0  0  0
 10 30  1  0  0  0  0
 11 12  2  0  0  0  0
 11 31  1  0  0  0  0
 12 32  1  0  0  0  0
 13 24  1  0  0  0  0
 13 30  2  0  0  0  0
 14 25  2  0  0  0  0
 14 27  1  0  0  0  0
 15 25  1  0  0  0  0
 15 28  2  0  0  0  0
 16 26  1  0  0  0  0
 16 36  2  0  0  0  0
 17 27  2  0  0  0  0
 17 28  1  0  0  0  0
 18 32  2  0  0  0  0
 18 33  1  0  0  0  0
 19 34  1  0  0  0  0
 20 34  1  0  0  0  0
 20 35  2  0  0  0  0
 20 38  1  0  0  0  0
 21 23  2  0  0  0  0
 21 43  1  0  0  0  0
 22 24  2  0  0  0  0
 22 44  1  0  0  0  0
 23 52  1  0  0  0  0
 24 45  1  0  0  0  0
 25 55  1  0  0  0  0
 26 37  2  0  0  0  0
 26 61  1  0  0  0  0
 27 66  1  0  0  0  0
 28 72  1  0  0  0  0
 29 83  1  0  0  0  0
 30 84  1  0  0  0  0
 31 33  2  0  0  0  0
 31 83  1  0  0  0  0
 32 85  1  0  0  0  0
 33 86  1  0  0  0  0
 34 65  2  0  0  0  0
 35 67  1  0  0  0  0
 35 70  1  0  0  0  0
 36 66  1  0  0  0  0
 36 81  1  0  0  0  0
 37 66  1  0  0  0  0
 37 82  1  0  0  0  0
 38 71  1  0  0  0  0
 38 76  2  0  0  0  0
 39 53  1  0  0  0  0
 39 73  1  0  0  0  0
 39 77  2  0  0  0  0
 40 62  1  0  0  0  0
 40 68  1  0  0  0  0
 40 78  2  0  0  0  0
 41 63  1  0  0  0  0
 41 74  1  0  0  0  0
 41 79  2  0  0  0  0
 42 69  1  0  0  0  0
 42 72  1  0  0  0  0
 42 80  2  0  0  0  0
 43 46  1  0  0  0  0
 44 53  1  0  0  0  0
 45 68  1  0  0  0  0
 46 48  1  0  0  0  0
 47 49  1  0  0  0  0
 47 50  1  0  0  0  0
 48 52  1  0  0  0  0
 49 54  1  0  0  0  0
 50 69  1  0  0  0  0
 51 54  1  0  0  0  0
 51 69  1  0  0  0  0
 52 73  1  0  0  0  0
 53 68  1  0  0  0  0
 54 67  1  0  0  0  0
 56 63  1  0  0  0  0
 57 64  1  0  0  0  0
 58 64  1  0  0  0  0
 59 64  1  0  0  0  0
 60 75  1  0  0  0  0
 61 84  1  0  0  0  0
 62 64  1  0  0  0  0
 62 74  1  0  0  0  0
 63 75  1  0  0  0  0
 65 67  1  0  0  0  0
M  CHG  1  75   1
M  ISO  4  42 100  61 101  72 100  84 101
M  END
> <Batch ID>
0065

> <Smiles>
CNC(C)C(=O)NC(C(=O)N1Cc2cc([101O:1][101CH2:1]C3CC(=O)N(c4cc(C)cc([100NH:0][100C:0](=O)N5CCCC(n6nc(-c7ccc(Oc8ccc(F)cc8F)cc7)c(C(N)=O)c6N)C5)c4)C3=O)ccc2CC1C(=O)NC1CCCc2ccccc21)C(C)(C)C

> <Shape>
0.268

> <Color>
0.086

> <Negative vol penalty>
0.000

$$$$

  -OEChem-04042323183D

 82 90  0     1  0  0  0  0  0999 V2000
  -29.5028  -33.9784   26.0407 C   0  0  0  0  0  0  0  0  0  0  0  0
  -29.6470  -32.8787   25.2008 C   0  0  0  0  0  0  0  0  0  0  0  0
  -24.6205   -9.0176   21.3632 C   0  0  0  0  0  0  0  0  0  0  0  0
  -23.3700  -10.8833   22.2534 C   0  0  0  0  0  0  0  0  0  0  0  0
  -28.2786  -34.2246   26.6609 C   0  0  0  0  0  0  0  0  0  0  0  0
  -28.5674  -32.0239   24.9816 C   0  0  0  0  0  0  0  0  0  0  0  0
  -27.2123  -29.0599   19.7966 C   0  0  0  0  0  0  0  0  0  0  0  0
  -28.2182  -19.1070   20.2807 C   0  0  0  0  0  0  0  0  0  0  0  0
  -27.7851  -20.4221   20.1123 C   0  0  0  0  0  0  0  0  0  0  0  0
  -24.0871   -8.1890   22.3504 C   0  0  0  0  0  0  0  0  0  0  0  0
  -22.8365  -10.0547   23.2406 C   0  0  0  0  0  0  0  0  0  0  0  0
  -27.4463  -27.7516   19.3754 C   0  0  0  0  0  0  0  0  0  0  0  0
  -21.1865   -6.5499   22.9269 C   0  0  0  0  0  0  0  0  0  0  0  0
  -20.7202   -5.2944   22.5371 C   0  0  0  0  0  0  0  0  0  0  0  0
  -25.2300  -27.1294   20.0964 C   0  0  0  0  0  0  0  0  0  0  0  0
  -26.2095  -18.6049   21.5258 C   0  0  0  0  0  0  0  0  0  0  0  0
  -22.3069   -4.2432   24.0253 C   0  0  0  0  0  0  0  0  0  0  0  0
  -24.2620  -10.3648   21.3147 C   0  0  0  0  0  0  0  0  0  0  0  0
  -24.2796  -11.4738   19.0175 C   0  0  0  0  0  0  0  0  0  0  0  0
  -27.1806  -33.3778   26.4415 C   0  0  0  0  0  0  0  0  0  0  0  0
  -25.9872  -29.4108   20.3818 C   0  0  0  0  0  0  0  0  0  0  0  0
  -27.3277  -32.2582   25.6005 C   0  0  0  0  0  0  0  0  0  0  0  0
  -24.9819  -28.4434   20.5218 C   0  0  0  0  0  0  0  0  0  0  0  0
  -25.7764  -19.9201   21.3574 C   0  0  0  0  0  0  0  0  0  0  0  0
  -27.4304  -18.1983   20.9875 C   0  0  0  0  0  0  0  0  0  0  0  0
  -26.5642  -20.8287   20.6506 C   0  0  0  0  0  0  0  0  0  0  0  0
  -23.1951   -8.7075   23.2890 C   0  0  0  0  0  0  0  0  0  0  0  0
  -26.4562  -26.7854   19.5279 C   0  0  0  0  0  0  0  0  0  0  0  0
  -22.2130   -6.6521   23.8658 C   0  0  0  0  0  0  0  0  0  0  0  0
  -21.2804   -4.1410   23.0863 C   0  0  0  0  0  0  0  0  0  0  0  0
  -22.7731   -5.4987   24.4150 C   0  0  0  0  0  0  0  0  0  0  0  0
  -24.8131  -11.2213   20.2956 C   0  0  0  0  0  0  0  0  0  0  0  0
  -25.1694  -12.3467   18.4404 C   0  0  0  0  0  0  0  0  0  0  0  0
  -23.0865  -10.9650   18.4066 C   0  0  0  0  0  0  0  0  0  0  0  0
  -25.0951  -30.5210   23.2235 C   0  0  0  0  0  0  0  0  0  0  0  0
  -22.1884  -30.7229   21.7977 C   0  0  0  0  0  0  0  0  0  0  0  0
  -26.8101  -23.1810   19.7902 C   0  0  0  0  0  0  0  0  0  0  0  0
  -20.0837  -29.6327   19.3424 C   0  0  0  0  0  0  0  0  0  0  0  0
  -29.0528  -16.2952   20.6839 C   0  0  0  0  0  0  0  0  0  0  0  0
  -25.8908  -33.6578   27.1712 C   0  0  0  0  0  0  0  0  0  0  0  0
  -25.7406  -30.8325   20.8064 C   0  0  0  0  0  0  0  0  0  0  0  0
  -23.6421  -28.7736   21.1254 C   0  0  0  0  0  0  0  0  0  0  0  0
  -24.6894  -32.9157   26.5914 C   0  0  0  0  0  0  0  0  0  0  0  0
  -29.7986  -13.5708   18.5163 C   0  0  0  0  0  0  0  0  0  0  0  0
  -25.0367  -31.4518   26.3399 C   0  0  0  0  0  0  0  0  0  0  0  0
  -28.5537  -12.6851   18.6056 C   0  0  0  0  0  0  0  0  0  0  0  0
  -30.1340  -14.2148   19.8603 C   0  0  0  0  0  0  0  0  0  0  0  0
  -27.7831  -14.0607   20.5807 C   0  0  0  0  0  0  0  0  0  0  0  0
  -26.1728  -31.3220   25.3182 C   0  0  1  0  0  0  0  0  0  0  0  0
  -24.6439  -30.9600   21.8592 C   0  0  1  0  0  0  0  0  0  0  0  0
  -27.3680  -13.4416   19.2360 C   0  0  2  0  0  0  0  0  0  0  0  0
  -24.4635  -20.3278   21.9429 C   0  0  0  0  0  0  0  0  0  0  0  0
  -17.7596  -29.9563   18.4529 C   0  0  0  0  0  0  0  0  0  0  0  0
  -21.0742  -29.0893   24.1215 C   0  0  0  0  0  0  0  0  0  0  0  0
  -19.0355  -28.6423   22.7386 C   0  0  0  0  0  0  0  0  0  0  0  0
  -19.6154  -30.9815   23.3825 C   0  0  0  0  0  0  0  0  0  0  0  0
  -21.0920  -30.5399   16.7119 C   0  0  0  0  0  0  0  0  0  0  0  0
  -26.0089  -24.4691   19.8286 C   0  0  0  0  0  0  0  0  0  1  0  0
  -21.0088  -29.7943   21.6386 C   0  0  1  0  0  0  0  0  0  0  0  0
  -19.2147  -30.3870   18.3523 C   0  0  2  0  0  0  0  0  0  0  0  0
  -20.2093  -29.6199   22.9606 C   0  0  0  0  0  0  0  0  0  0  0  0
  -25.9534  -11.8803   20.5177 N   0  0  0  0  0  0  0  0  0  0  0  0
  -26.1439  -12.5555   19.3715 N   0  0  0  0  0  0  0  0  0  0  0  0
  -23.4515  -30.1760   21.5309 N   0  0  0  0  0  0  0  0  0  0  0  0
  -28.9652  -14.9169   20.3948 N   0  0  0  0  0  0  0  0  0  0  0  0
  -25.2054  -12.9482   17.2324 N   0  0  0  0  0  0  0  0  0  0  0  0
  -22.2865  -10.0780   19.1398 N   0  0  0  0  0  0  0  0  0  0  0  0
  -26.1417  -22.1667   20.4674 N   0  0  0  0  0  0  0  0  0  0  0  0
  -27.8693  -16.8617   21.1561 N   0  0  0  0  0  0  0  0  0  0  0  0
  -25.6713  -31.5264   23.9761 N   0  0  0  0  0  0  0  0  0  0  0  0
  -20.2214  -30.3211   20.5292 N   0  0  0  0  0  0  0  0  0  0  0  0
  -19.6827  -30.1402   16.9592 N   0  3  0  0  0  0  0  0  0  0  0  0
  -22.7486  -11.2746   17.2389 O   0  0  0  0  0  0  0  0  0  0  0  0
  -24.9311  -29.3566   23.5684 O   0  0  0  0  0  0  0  0  0  0  0  0
  -21.9955  -31.8925   22.1391 O   0  0  0  0  0  0  0  0  0  0  0  0
  -27.8943  -23.1154   19.2204 O   0  0  0  0  0  0  0  0  0  0  0  0
  -20.5869  -28.5402   19.0897 O   0  0  0  0  0  0  0  0  0  0  0  0
  -30.0929  -16.9323   20.4984 O   0  0  0  0  0  0  0  0  0  0  0  0
  -22.6742   -7.8993   24.2523 O   0  0  0  0  0  0  0  0  0  0  0  0
  -26.6823  -25.5076   19.1183 O   0  0  0  0  0  0  0  0  0  1  0  0
  -20.8315   -2.9355   22.7130 F   0  0  0  0  0  0  0  0  0  0  0  0
  -23.7587   -5.5905   25.3183 F   0  0  0  0  0  0  0  0  0  0  0  0
  1  2  1  0  0  0  0
  1  5  2  0  0  0  0
  2  6  2  0  0  0  0
  3 10  2  0  0  0  0
  3 18  1  0  0  0  0
  4 11  1  0  0  0  0
  4 18  2  0  0  0  0
  5 20  1  0  0  0  0
  6 22  1  0  0  0  0
  7 12  2  0  0  0  0
  7 21  1  0  0  0  0
  8  9  2  0  0  0  0
  8 25  1  0  0  0  0
  9 26  1  0  0  0  0
 10 27  1  0  0  0  0
 11 27  2  0  0  0  0
 12 28  1  0  0  0  0
 13 14  2  0  0  0  0
 13 29  1  0  0  0  0
 14 30  1  0  0  0  0
 15 23  1  0  0  0  0
 15 28  2  0  0  0  0
 16 24  1  0  0  0  0
 16 25  2  0  0  0  0
 17 30  2  0  0  0  0
 17 31  1  0  0  0  0
 18 32  1  0  0  0  0
 19 32  1  0  0  0  0
 19 33  2  0  0  0  0
 19 34  1  0  0  0  0
 20 22  2  0  0  0  0
 20 40  1  0  0  0  0
 21 23  2  0  0  0  0
 21 41  1  0  0  0  0
 22 49  1  0  0  0  0
 23 42  1  0  0  0  0
 24 26  2  0  0  0  0
 24 52  1  0  0  0  0
 25 69  1  0  0  0  0
 26 68  1  0  0  0  0
 27 79  1  0  0  0  0
 28 80  1  0  0  0  0
 29 31  2  0  0  0  0
 29 79  1  0  0  0  0
 30 81  1  0  0  0  0
 31 82  1  0  0  0  0
 32 62  2  0  0  0  0
 33 63  1  0  0  0  0
 33 66  1  0  0  0  0
 34 67  1  0  0  0  0
 34 73  2  0  0  0  0
 35 50  1  0  0  0  0
 35 70  1  0  0  0  0
 35 74  2  0  0  0  0
 36 59  1  0  0  0  0
 36 64  1  0  0  0  0
 36 75  2  0  0  0  0
 37 58  1  0  0  0  0
 37 68  1  0  0  0  0
 37 76  2  0  0  0  0
 38 60  1  0  0  0  0
 38 71  1  0  0  0  0
 38 77  2  0  0  0  0
 39 65  1  0  0  0  0
 39 69  1  0  0  0  0
 39 78  2  0  0  0  0
 40 43  1  0  0  0  0
 41 50  1  0  0  0  0
 42 64  1  0  0  0  0
 43 45  1  0  0  0  0
 44 46  1  0  0  0  0
 44 47  1  0  0  0  0
 45 49  1  0  0  0  0
 46 51  1  0  0  0  0
 47 65  1  0  0  0  0
 48 51  1  0  0  0  0
 48 65  1  0  0  0  0
 49 70  1  0  0  0  0
 50 64  1  0  0  0  0
 51 63  1  0  0  0  0
 53 60  1  0  0  0  0
 54 61  1  0  0  0  0
 55 61  1  0  0  0  0
 56 61  1  0  0  0  0
 57 72  1  0  0  0  0
 58 80  1  0  0  0  0
 59 61  1  0  0  0  0
 59 71  1  0  0  0  0
 60 72  1  0  0  0  0
 62 63  1  0  0  0  0
M  CHG  1  72   1
M  ISO  4  39 100  58 101  69 100  80 101
M  END
> <Batch ID>
0065

> <Smiles>
CNC(C)C(=O)NC(C(=O)N1Cc2cc([101O:1][101CH2:1]C(=O)Nc3ccc([100NH:0][100C:0](=O)N4CCCC(n5nc(-c6ccc(Oc7ccc(F)cc7F)cc6)c(C(N)=O)c5N)C4)cc3C)ccc2CC1C(=O)NC1CCCc2ccccc21)C(C)(C)C

> <Shape>
0.307

> <Color>
0.100

> <Negative vol penalty>
0.000

$$$$

  -OEChem-04042323183D

 86 95  0     1  0  0  0  0  0999 V2000
  -28.8097  -33.0479   18.6308 C   0  0  0  0  0  0  0  0  0  0  0  0
  -29.8365  -32.2898   19.1843 C   0  0  0  0  0  0  0  0  0  0  0  0
  -23.0809   -9.8613   19.9423 C   0  0  0  0  0  0  0  0  0  0  0  0
  -23.8367   -9.8756   22.2370 C   0  0  0  0  0  0  0  0  0  0  0  0
  -27.4898  -32.8199   19.0180 C   0  0  0  0  0  0  0  0  0  0  0  0
  -29.5442  -31.3039   20.1261 C   0  0  0  0  0  0  0  0  0  0  0  0
  -31.7916  -24.8818   22.3671 C   0  0  0  0  0  0  0  0  0  0  0  0
  -32.6557  -17.4899   23.4349 C   0  0  0  0  0  0  0  0  0  0  0  0
  -32.0529  -16.6108   22.5353 C   0  0  0  0  0  0  0  0  0  0  0  0
  -22.3387   -8.7075   20.1939 C   0  0  0  0  0  0  0  0  0  0  0  0
  -23.0944   -8.7217   22.4886 C   0  0  0  0  0  0  0  0  0  0  0  0
  -32.1660  -24.2190   23.5351 C   0  0  0  0  0  0  0  0  0  0  0  0
  -19.8666   -7.9197   23.0875 C   0  0  0  0  0  0  0  0  0  0  0  0
  -19.1077   -7.8814   24.2571 C   0  0  0  0  0  0  0  0  0  0  0  0
  -29.8412  -23.8598   24.0693 C   0  0  0  0  0  0  0  0  0  0  0  0
  -30.4841  -18.3573   24.0422 C   0  0  0  0  0  0  0  0  0  0  0  0
  -20.3513   -5.9481   25.0008 C   0  0  0  0  0  0  0  0  0  0  0  0
  -23.8300  -10.4454   20.9638 C   0  0  0  0  0  0  0  0  0  0  0  0
  -24.1675  -12.9708   20.8379 C   0  0  0  0  0  0  0  0  0  0  0  0
  -27.1802  -31.8242   19.9579 C   0  0  0  0  0  0  0  0  0  0  0  0
  -30.4367  -25.0484   22.0463 C   0  0  0  0  0  0  0  0  0  0  0  0
  -28.2191  -31.0633   20.5272 C   0  0  0  0  0  0  0  0  0  0  0  0
  -29.4523  -24.5229   22.8953 C   0  0  0  0  0  0  0  0  0  0  0  0
  -29.8813  -17.4782   23.1425 C   0  0  0  0  0  0  0  0  0  0  0  0
  -31.8713  -18.3632   24.1884 C   0  0  0  0  0  0  0  0  0  0  0  0
  -30.6658  -16.6049   22.3891 C   0  0  0  0  0  0  0  0  0  0  0  0
  -22.3454   -8.1377   21.4670 C   0  0  0  0  0  0  0  0  0  0  0  0
  -31.1907  -23.7104   24.3879 C   0  0  0  0  0  0  0  0  0  0  0  0
  -20.8679   -6.9721   22.8744 C   0  0  0  0  0  0  0  0  0  0  0  0
  -19.3500   -6.8956   25.2138 C   0  0  0  0  0  0  0  0  0  0  0  0
  -21.1102   -5.9864   23.8311 C   0  0  0  0  0  0  0  0  0  0  0  0
  -24.5974  -11.6370   20.7044 C   0  0  0  0  0  0  0  0  0  0  0  0
  -25.2589  -13.7213   20.4746 C   0  0  0  0  0  0  0  0  0  0  0  0
  -33.8656  -19.3801   25.3683 C   0  0  0  0  0  0  0  0  0  0  0  0
  -22.8953  -13.4854   21.2532 C   0  0  0  0  0  0  0  0  0  0  0  0
  -28.5206  -27.5508   21.6336 C   0  0  0  0  0  0  0  0  0  0  0  0
  -26.3898  -25.2772   20.7318 C   0  0  0  0  0  0  0  0  0  0  0  0
  -25.3923  -22.0172   20.8864 C   0  0  0  0  0  0  0  0  0  0  0  0
  -30.7229  -14.7772   20.6563 C   0  0  0  0  0  0  0  0  0  0  0  0
  -25.7433  -31.6464   20.3804 C   0  0  0  0  0  0  0  0  0  0  0  0
  -30.0498  -25.7424   20.7692 C   0  0  0  0  0  0  0  0  0  0  0  0
  -27.9843  -24.6574   22.5862 C   0  0  0  0  0  0  0  0  0  0  0  0
  -34.0329  -20.3901   26.4821 C   0  0  0  0  0  0  0  0  0  0  0  0
  -25.4802  -30.3292   21.1056 C   0  0  0  0  0  0  0  0  0  0  0  0
  -29.6170  -12.3553   18.2922 C   0  0  0  0  0  0  0  0  0  0  0  0
  -26.5476  -30.0816   22.1669 C   0  0  0  0  0  0  0  0  0  0  0  0
  -28.1772  -12.0622   18.7200 C   0  0  0  0  0  0  0  0  0  0  0  0
  -30.5296  -12.5888   19.4949 C   0  0  0  0  0  0  0  0  0  0  0  0
  -28.6189  -13.3134   20.8709 C   0  0  0  0  0  0  0  0  0  0  0  0
  -31.7131  -20.1318   25.9766 C   0  0  0  0  0  0  0  0  0  0  0  0
  -27.9395  -29.9680   21.5334 C   0  0  1  0  0  0  0  0  0  0  0  0
  -28.6322  -26.3051   20.8008 C   0  0  1  0  0  0  0  0  0  0  0  0
  -27.6485  -13.1354   19.6918 C   0  0  2  0  0  0  0  0  0  0  0  0
  -32.7164  -21.1726   26.4799 C   0  0  1  0  0  0  0  0  0  0  0  0
  -28.3932  -17.4919   23.0077 C   0  0  0  0  0  0  0  0  0  0  0  0
  -32.3549  -21.6734   27.8791 C   0  0  0  0  0  0  0  0  0  0  0  0
  -23.5924  -20.4674   20.0764 C   0  0  0  0  0  0  0  0  0  0  0  0
  -24.4602  -26.4495   22.7842 C   0  0  0  0  0  0  0  0  0  0  0  0
  -23.1117  -24.3469   22.6141 C   0  0  0  0  0  0  0  0  0  0  0  0
  -23.4054  -25.8036   20.6105 C   0  0  0  0  0  0  0  0  0  0  0  0
  -27.3403  -20.3255   19.4364 C   0  0  0  0  0  0  0  0  0  0  0  0
  -32.7980  -22.3658   25.5124 C   0  0  0  0  0  0  0  0  0  1  0  0
  -25.3602  -24.4342   21.4446 C   0  0  1  0  0  0  0  0  0  0  0  0
  -24.9749  -21.0391   19.8030 C   0  0  2  0  0  0  0  0  0  0  0  0
  -24.1119  -25.2575   21.8704 C   0  0  0  0  0  0  0  0  0  0  0  0
  -25.8631  -11.5423   20.2886 N   0  0  0  0  0  0  0  0  0  0  0  0
  -26.2380  -12.8262   20.1576 N   0  0  0  0  0  0  0  0  0  0  0  0
  -32.4881  -19.2607   25.1109 N   0  0  0  0  0  0  0  0  0  0  0  0
  -27.6563  -25.3496   21.3289 N   0  0  0  0  0  0  0  0  0  0  0  0
  -29.9672  -13.6209   20.3686 N   0  0  0  0  0  0  0  0  0  0  0  0
  -25.4671  -15.0530   20.3985 N   0  0  0  0  0  0  0  0  0  0  0  0
  -21.8844  -12.5753   21.5910 N   0  0  0  0  0  0  0  0  0  0  0  0
  -30.0724  -15.7032   21.4711 N   0  0  0  0  0  0  0  0  0  0  0  0
  -28.1137  -28.6659   20.9262 N   0  0  0  0  0  0  0  0  0  0  0  0
  -25.0634  -23.3151   20.5569 N   0  0  0  0  0  0  0  0  0  0  0  0
  -25.9435  -19.9093   19.7241 N   0  3  0  0  0  0  0  0  0  0  0  0
  -34.8125  -18.7802   24.8803 O   0  0  0  0  0  0  0  0  0  0  0  0
  -22.6568  -14.7157   21.3069 O   0  0  0  0  0  0  0  0  0  0  0  0
  -28.7827  -27.5033   22.8297 O   0  0  0  0  0  0  0  0  0  0  0  0
  -26.0838  -25.8447   19.6802 O   0  0  0  0  0  0  0  0  0  0  0  0
  -25.9506  -21.6647   21.9230 O   0  0  0  0  0  0  0  0  0  0  0  0
  -31.8525  -14.9468   20.1902 O   0  0  0  0  0  0  0  0  0  0  0  0
  -21.6210   -7.0119   21.7130 O   0  0  0  0  0  0  0  0  0  0  0  0
  -31.5534  -23.0636   25.5289 O   0  0  0  0  0  0  0  0  0  1  0  0
  -18.6222   -6.8599   26.3377 F   0  0  0  0  0  0  0  0  0  0  0  0
  -22.0715   -5.0741   23.6325 F   0  0  0  0  0  0  0  0  0  0  0  0
  1  2  1  0  0  0  0
  1  5  2  0  0  0  0
  2  6  2  0  0  0  0
  3 10  2  0  0  0  0
  3 18  1  0  0  0  0
  4 11  1  0  0  0  0
  4 18  2  0  0  0  0
  5 20  1  0  0  0  0
  6 22  1  0  0  0  0
  7 12  2  0  0  0  0
  7 21  1  0  0  0  0
  8  9  2  0  0  0  0
  8 25  1  0  0  0  0
  9 26  1  0  0  0  0
 10 27  1  0  0  0  0
 11 27  2  0  0  0  0
 12 28  1  0  0  0  0
 13 14  2  0  0  0  0
 13 29  1  0  0  0  0
 14 30  1  0  0  0  0
 15 23  1  0  0  0  0
 15 28  2  0  0  0  0
 16 24  1  0  0  0  0
 16 25  2  0  0  0  0
 17 30  2  0  0  0  0
 17 31  1  0  0  0  0
 18 32  1  0  0  0  0
 19 32  1  0  0  0  0
 19 33  2  0  0  0  0
 19 35  1  0  0  0  0
 20 22  2  0  0  0  0
 20 40  1  0  0  0  0
 21 23  2  0  0  0  0
 21 41  1  0  0  0  0
 22 51  1  0  0  0  0
 23 42  1  0  0  0  0
 24 26  2  0  0  0  0
 24 55  1  0  0  0  0
 25 68  1  0  0  0  0
 26 73  1  0  0  0  0
 27 83  1  0  0  0  0
 28 84  1  0  0  0  0
 29 31  2  0  0  0  0
 29 83  1  0  0  0  0
 30 85  1  0  0  0  0
 31 86  1  0  0  0  0
 32 66  2  0  0  0  0
 33 67  1  0  0  0  0
 33 71  1  0  0  0  0
 34 43  1  0  0  0  0
 34 68  1  0  0  0  0
 34 77  2  0  0  0  0
 35 72  1  0  0  0  0
 35 78  2  0  0  0  0
 36 52  1  0  0  0  0
 36 74  1  0  0  0  0
 36 79  2  0  0  0  0
 37 63  1  0  0  0  0
 37 69  1  0  0  0  0
 37 80  2  0  0  0  0
 38 64  1  0  0  0  0
 38 75  1  0  0  0  0
 38 81  2  0  0  0  0
 39 70  1  0  0  0  0
 39 73  1  0  0  0  0
 39 82  2  0  0  0  0
 40 44  1  0  0  0  0
 41 52  1  0  0  0  0
 42 69  1  0  0  0  0
 43 54  1  0  0  0  0
 44 46  1  0  0  0  0
 45 47  1  0  0  0  0
 45 48  1  0  0  0  0
 46 51  1  0  0  0  0
 47 53  1  0  0  0  0
 48 70  1  0  0  0  0
 49 53  1  0  0  0  0
 49 70  1  0  0  0  0
 50 54  1  0  0  0  0
 50 68  1  0  0  0  0
 51 74  1  0  0  0  0
 52 69  1  0  0  0  0
 53 67  1  0  0  0  0
 54 56  1  0  0  0  0
 54 62  1  0  0  0  0
 57 64  1  0  0  0  0
 58 65  1  0  0  0  0
 59 65  1  0  0  0  0
 60 65  1  0  0  0  0
 61 76  1  0  0  0  0
 62 84  1  0  0  0  0
 63 65  1  0  0  0  0
 63 75  1  0  0  0  0
 64 76  1  0  0  0  0
 66 67  1  0  0  0  0
M  CHG  1  76   1
M  ISO  4  39 100  62 101  73 100  84 101
M  END
> <Batch ID>
0065

> <Smiles>
CNC(C)C(=O)NC(C(=O)N1Cc2cc([101O:1][101CH2:1]C3(C)CC(=O)N(c4ccc([100NH:0][100C:0](=O)N5CCCC(n6nc(-c7ccc(Oc8ccc(F)cc8F)cc7)c(C(N)=O)c6N)C5)c(C)c4)C3)ccc2CC1C(=O)NC1CCCc2ccccc21)C(C)(C)C

> <Shape>
0.232

> <Color>
0.192

> <Negative vol penalty>
0.000

$$$$

  -OEChem-04042323183D

 83 91  0     1  0  0  0  0  0999 V2000
  -30.5525  -34.2211   22.5472 C   0  0  0  0  0  0  0  0  0  0  0  0
  -30.3836  -32.8775   22.2287 C   0  0  0  0  0  0  0  0  0  0  0  0
  -23.2429   -9.5105   20.7047 C   0  0  0  0  0  0  0  0  0  0  0  0
  -23.1624  -11.0782   22.5412 C   0  0  0  0  0  0  0  0  0  0  0  0
  -29.6673  -34.8448   23.4255 C   0  0  0  0  0  0  0  0  0  0  0  0
  -29.3300  -32.1563   22.7893 C   0  0  0  0  0  0  0  0  0  0  0  0
  -26.9194  -29.2793   19.3897 C   0  0  0  0  0  0  0  0  0  0  0  0
  -28.5055  -18.7680   19.8690 C   0  0  0  0  0  0  0  0  0  0  0  0
  -28.7414  -20.1236   20.0979 C   0  0  0  0  0  0  0  0  0  0  0  0
  -22.4605   -8.6155   21.4343 C   0  0  0  0  0  0  0  0  0  0  0  0
  -22.3799  -10.1832   23.2709 C   0  0  0  0  0  0  0  0  0  0  0  0
  -27.5319  -28.0828   19.0196 C   0  0  0  0  0  0  0  0  0  0  0  0
  -22.9027   -6.3907   23.9402 C   0  0  0  0  0  0  0  0  0  0  0  0
  -23.2920   -5.0514   23.9522 C   0  0  0  0  0  0  0  0  0  0  0  0
  -26.0761  -26.8802   20.5208 C   0  0  0  0  0  0  0  0  0  0  0  0
  -30.7605  -18.2572   20.5698 C   0  0  0  0  0  0  0  0  0  0  0  0
  -21.1761   -4.4276   22.9667 C   0  0  0  0  0  0  0  0  0  0  0  0
  -23.5939  -10.7419   21.2581 C   0  0  0  0  0  0  0  0  0  0  0  0
  -23.9517  -12.6712   19.6281 C   0  0  0  0  0  0  0  0  0  0  0  0
  -28.5966  -34.1334   23.9896 C   0  0  0  0  0  0  0  0  0  0  0  0
  -25.8863  -29.2865   20.3379 C   0  0  0  0  0  0  0  0  0  0  0  0
  -28.4304  -32.7707   23.6770 C   0  0  0  0  0  0  0  0  0  0  0  0
  -25.4504  -28.0778   20.8994 C   0  0  0  0  0  0  0  0  0  0  0  0
  -30.9964  -19.6128   20.7987 C   0  0  0  0  0  0  0  0  0  0  0  0
  -29.5150  -17.8348   20.1050 C   0  0  0  0  0  0  0  0  0  0  0  0
  -29.9868  -20.5460   20.5627 C   0  0  0  0  0  0  0  0  0  0  0  0
  -22.0290   -8.9518   22.7174 C   0  0  0  0  0  0  0  0  0  0  0  0
  -27.1122  -26.8833   19.5872 C   0  0  0  0  0  0  0  0  0  0  0  0
  -21.6501   -6.7486   23.4416 C   0  0  0  0  0  0  0  0  0  0  0  0
  -22.4287   -4.0698   23.4654 C   0  0  0  0  0  0  0  0  0  0  0  0
  -20.7868   -5.7670   22.9548 C   0  0  0  0  0  0  0  0  0  0  0  0
  -24.4025  -11.6666   20.5051 C   0  0  0  0  0  0  0  0  0  0  0  0
  -25.1007  -13.2682   19.1700 C   0  0  0  0  0  0  0  0  0  0  0  0
  -22.6138  -13.0326   19.2604 C   0  0  0  0  0  0  0  0  0  0  0  0
  -25.4894  -30.5825   23.2131 C   0  0  0  0  0  0  0  0  0  0  0  0
  -22.4756  -29.4278   22.8883 C   0  0  0  0  0  0  0  0  0  0  0  0
  -28.9819  -23.8092   20.0066 C   0  0  0  0  0  0  0  0  0  0  0  0
  -20.3822  -27.1643   21.4250 C   0  0  0  0  0  0  0  0  0  0  0  0
  -30.1670  -15.4020   20.0545 C   0  0  0  0  0  0  0  0  0  0  0  0
  -27.6935  -34.8381   24.9706 C   0  0  0  0  0  0  0  0  0  0  0  0
  -25.2179  -30.5825   20.7066 C   0  0  0  0  0  0  0  0  0  0  0  0
  -24.3318  -28.0291   21.9067 C   0  0  0  0  0  0  0  0  0  0  0  0
  -26.3823  -34.1007   25.2297 C   0  0  0  0  0  0  0  0  0  0  0  0
  -29.9451  -11.8740   19.6286 C   0  0  0  0  0  0  0  0  0  0  0  0
  -26.6430  -32.6177   25.4735 C   0  0  0  0  0  0  0  0  0  0  0  0
  -28.4462  -11.5882   19.7465 C   0  0  0  0  0  0  0  0  0  0  0  0
  -30.3875  -12.9835   20.5810 C   0  0  0  0  0  0  0  0  0  0  0  0
  -28.1192  -13.9444   20.5999 C   0  0  0  0  0  0  0  0  0  0  0  0
  -27.2851  -31.9612   24.2453 C   0  0  1  0  0  0  0  0  0  0  0  0
  -24.5229  -30.5314   22.0638 C   0  0  1  0  0  0  0  0  0  0  0  0
  -27.6143  -12.8788   19.6134 C   0  0  2  0  0  0  0  0  0  0  0  0
  -32.3400  -20.0378   21.2955 C   0  0  0  0  0  0  0  0  0  0  0  0
  -17.9793  -26.4417   21.3859 C   0  0  0  0  0  0  0  0  0  0  0  0
  -22.8523  -28.0380   25.5784 C   0  0  0  0  0  0  0  0  0  0  0  0
  -20.8666  -26.6112   25.0406 C   0  0  0  0  0  0  0  0  0  0  0  0
  -20.6041  -29.0830   25.2499 C   0  0  0  0  0  0  0  0  0  0  0  0
  -20.1201  -27.7901   18.5442 C   0  0  0  0  0  0  0  0  0  0  0  0
  -27.7553  -24.6802   20.2106 C   0  0  0  0  0  0  0  0  0  1  0  0
  -21.7859  -28.1288   23.2288 C   0  0  1  0  0  0  0  0  0  0  0  0
  -19.0345  -27.3307   20.7463 C   0  0  2  0  0  0  0  0  0  0  0  0
  -21.5496  -27.9660   24.7569 C   0  0  0  0  0  0  0  0  0  0  0  0
  -25.7342  -11.6246   20.6001 N   0  0  0  0  0  0  0  0  0  0  0  0
  -26.1299  -12.6102   19.7767 N   0  0  0  0  0  0  0  0  0  0  0  0
  -23.7141  -29.3234   22.2395 N   0  0  0  0  0  0  0  0  0  0  0  0
  -29.5577  -14.1758   20.3951 N   0  0  0  0  0  0  0  0  0  0  0  0
  -25.3211  -14.2864   18.3115 N   0  0  0  0  0  0  0  0  0  0  0  0
  -21.5493  -12.3162   19.8242 N   0  0  0  0  0  0  0  0  0  0  0  0
  -29.2749  -16.4580   19.8716 N   0  0  0  0  0  0  0  0  0  0  0  0
  -30.2058  -21.9111   20.7875 N   0  0  0  0  0  0  0  0  0  0  0  0
  -26.2878  -31.7102   23.2271 N   0  0  0  0  0  0  0  0  0  0  0  0
  -20.5667  -28.0918   22.4284 N   0  0  0  0  0  0  0  0  0  0  0  0
  -29.1361  -22.7547   20.8801 N   0  0  0  0  0  0  0  0  0  0  0  0
  -19.1346  -26.9769   19.3021 N   0  3  0  0  0  0  0  0  0  0  0  0
  -22.3701  -13.9525   18.4430 O   0  0  0  0  0  0  0  0  0  0  0  0
  -25.5084  -29.6672   24.0277 O   0  0  0  0  0  0  0  0  0  0  0  0
  -21.9319  -30.4958   23.1807 O   0  0  0  0  0  0  0  0  0  0  0  0
  -29.7949  -24.0379   19.1094 O   0  0  0  0  0  0  0  0  0  0  0  0
  -21.1889  -26.2958   21.1001 O   0  0  0  0  0  0  0  0  0  0  0  0
  -31.3879  -15.5011   19.9073 O   0  0  0  0  0  0  0  0  0  0  0  0
  -21.2654   -8.0788   23.4296 O   0  0  0  0  0  0  0  0  0  0  0  0
  -27.7088  -25.7141   19.2282 O   0  0  0  0  0  0  0  0  0  1  0  0
  -22.8033   -2.7838   23.4756 F   0  0  0  0  0  0  0  0  0  0  0  0
  -19.5827   -6.1048   22.4734 F   0  0  0  0  0  0  0  0  0  0  0  0
  1  2  1  0  0  0  0
  1  5  2  0  0  0  0
  2  6  2  0  0  0  0
  3 10  2  0  0  0  0
  3 18  1  0  0  0  0
  4 11  1  0  0  0  0
  4 18  2  0  0  0  0
  5 20  1  0  0  0  0
  6 22  1  0  0  0  0
  7 12  2  0  0  0  0
  7 21  1  0  0  0  0
  8  9  2  0  0  0  0
  8 25  1  0  0  0  0
  9 26  1  0  0  0  0
 10 27  1  0  0  0  0
 11 27  2  0  0  0  0
 12 28  1  0  0  0  0
 13 14  2  0  0  0  0
 13 29  1  0  0  0  0
 14 30  1  0  0  0  0
 15 23  1  0  0  0  0
 15 28  2  0  0  0  0
 16 24  1  0  0  0  0
 16 25  2  0  0  0  0
 17 30  2  0  0  0  0
 17 31  1  0  0  0  0
 18 32  1  0  0  0  0
 19 32  1  0  0  0  0
 19 33  2  0  0  0  0
 19 34  1  0  0  0  0
 20 22  2  0  0  0  0
 20 40  1  0  0  0  0
 21 23  2  0  0  0  0
 21 41  1  0  0  0  0
 22 49  1  0  0  0  0
 23 42  1  0  0  0  0
 24 26  2  0  0  0  0
 24 52  1  0  0  0  0
 25 68  1  0  0  0  0
 26 69  1  0  0  0  0
 27 80  1  0  0  0  0
 28 81  1  0  0  0  0
 29 31  2  0  0  0  0
 29 80  1  0  0  0  0
 30 82  1  0  0  0  0
 31 83  1  0  0  0  0
 32 62  2  0  0  0  0
 33 63  1  0  0  0  0
 33 66  1  0  0  0  0
 34 67  1  0  0  0  0
 34 74  2  0  0  0  0
 35 50  1  0  0  0  0
 35 70  1  0  0  0  0
 35 75  2  0  0  0  0
 36 59  1  0  0  0  0
 36 64  1  0  0  0  0
 36 76  2  0  0  0  0
 37 58  1  0  0  0  0
 37 72  1  0  0  0  0
 37 77  2  0  0  0  0
 38 60  1  0  0  0  0
 38 71  1  0  0  0  0
 38 78  2  0  0  0  0
 39 65  1  0  0  0  0
 39 68  1  0  0  0  0
 39 79  2  0  0  0  0
 40 43  1  0  0  0  0
 41 50  1  0  0  0  0
 42 64  1  0  0  0  0
 43 45  1  0  0  0  0
 44 46  1  0  0  0  0
 44 47  1  0  0  0  0
 45 49  1  0  0  0  0
 46 51  1  0  0  0  0
 47 65  1  0  0  0  0
 48 51  1  0  0  0  0
 48 65  1  0  0  0  0
 49 70  1  0  0  0  0
 50 64  1  0  0  0  0
 51 63  1  0  0  0  0
 53 60  1  0  0  0  0
 54 61  1  0  0  0  0
 55 61  1  0  0  0  0
 56 61  1  0  0  0  0
 57 73  1  0  0  0  0
 58 81  1  0  0  0  0
 59 61  1  0  0  0  0
 59 71  1  0  0  0  0
 60 73  1  0  0  0  0
 62 63  1  0  0  0  0
 69 72  1  0  0  0  0
M  CHG  1  73   1
M  ISO  4  39 100  58 101  68 100  81 101
M  END
> <Batch ID>
0065

> <Smiles>
CNC(C)C(=O)NC(C(=O)N1Cc2cc([101O:1][101CH2:1]C(=O)NNc3ccc([100NH:0][100C:0](=O)N4CCCC(n5nc(-c6ccc(Oc7ccc(F)cc7F)cc6)c(C(N)=O)c5N)C4)cc3C)ccc2CC1C(=O)NC1CCCc2ccccc21)C(C)(C)C

> <Shape>
0.347

> <Color>
0.106

> <Negative vol penalty>
0.000

$$$$

  -OEChem-04042323183D

 88 97  0     1  0  0  0  0  0999 V2000
  -21.1144  -31.2396   23.4999 C   0  0  0  0  0  0  0  0  0  0  0  0
  -22.2405  -30.4378   23.3438 C   0  0  0  0  0  0  0  0  0  0  0  0
  -31.5647  -19.3314   20.0229 C   0  0  0  0  0  0  0  0  0  0  0  0
  -23.0412   -9.9770   21.7840 C   0  0  0  0  0  0  0  0  0  0  0  0
  -24.5012  -10.7461   23.5486 C   0  0  0  0  0  0  0  0  0  0  0  0
  -19.8421  -30.6896   23.3495 C   0  0  0  0  0  0  0  0  0  0  0  0
  -22.0949  -29.0851   23.0383 C   0  0  0  0  0  0  0  0  0  0  0  0
  -25.2631  -27.5651   19.3918 C   0  0  0  0  0  0  0  0  0  0  0  0
  -30.5908  -20.3289   20.0677 C   0  0  0  0  0  0  0  0  0  0  0  0
  -31.1913  -17.9998   19.8407 C   0  0  0  0  0  0  0  0  0  0  0  0
  -22.4278   -9.0967   22.6752 C   0  0  0  0  0  0  0  0  0  0  0  0
  -23.8877   -9.8658   24.4399 C   0  0  0  0  0  0  0  0  0  0  0  0
  -26.5887  -27.3328   19.7561 C   0  0  0  0  0  0  0  0  0  0  0  0
  -23.0914   -6.0818   24.0517 C   0  0  0  0  0  0  0  0  0  0  0  0
  -22.8601   -4.7769   23.6166 C   0  0  0  0  0  0  0  0  0  0  0  0
  -26.1428  -24.9637   19.8446 C   0  0  0  0  0  0  0  0  0  0  0  0
  -20.4885   -5.0819   23.9626 C   0  0  0  0  0  0  0  0  0  0  0  0
  -24.0780  -10.8017   22.2206 C   0  0  0  0  0  0  0  0  0  0  0  0
  -24.1024  -12.7563   20.5816 C   0  0  0  0  0  0  0  0  0  0  0  0
  -19.6811  -29.3315   23.0325 C   0  0  0  0  0  0  0  0  0  0  0  0
  -24.3632  -26.4976   19.2616 C   0  0  0  0  0  0  0  0  0  0  0  0
  -20.8193  -28.5160   22.8849 C   0  0  0  0  0  0  0  0  0  0  0  0
  -24.8070  -25.1849   19.4760 C   0  0  0  0  0  0  0  0  0  0  0  0
  -29.2435  -19.9949   19.9303 C   0  0  0  0  0  0  0  0  0  0  0  0
  -28.8701  -18.6633   19.7481 C   0  0  0  0  0  0  0  0  0  0  0  0
  -29.8440  -17.6658   19.7033 C   0  0  0  0  0  0  0  0  0  0  0  0
  -22.8510   -9.0411   24.0032 C   0  0  0  0  0  0  0  0  0  0  0  0
  -27.0280  -26.0322   19.9854 C   0  0  0  0  0  0  0  0  0  0  0  0
  -22.0212   -6.8868   24.4423 C   0  0  0  0  0  0  0  0  0  0  0  0
  -21.5586   -4.2770   23.5721 C   0  0  0  0  0  0  0  0  0  0  0  0
  -20.7198   -6.3869   24.3977 C   0  0  0  0  0  0  0  0  0  0  0  0
  -24.7125  -11.7109   21.3003 C   0  0  0  0  0  0  0  0  0  0  0  0
  -25.1249  -13.3159   19.8551 C   0  0  0  0  0  0  0  0  0  0  0  0
  -28.9415  -21.9277   22.1769 C   0  0  0  0  0  0  0  0  0  0  0  0
  -28.7649  -23.4656   20.2406 C   0  0  0  0  0  0  0  0  0  0  0  0
  -28.3183  -20.9582   22.8716 C   0  0  0  0  0  0  0  0  0  0  0  0
  -22.7337  -13.1834   20.5715 C   0  0  0  0  0  0  0  0  0  0  0  0
  -21.6616  -25.6521   20.7073 C   0  0  0  0  0  0  0  0  0  0  0  0
  -21.6228  -23.3420   18.4304 C   0  0  0  0  0  0  0  0  0  0  0  0
  -23.3777  -21.4212   16.2219 C   0  0  0  0  0  0  0  0  0  0  0  0
  -30.3455  -15.2097   19.4531 C   0  0  0  0  0  0  0  0  0  0  0  0
  -18.2847  -28.7715   22.9264 C   0  0  0  0  0  0  0  0  0  0  0  0
  -22.9433  -26.7626   18.8419 C   0  0  0  0  0  0  0  0  0  0  0  0
  -23.8857  -24.0024   19.3297 C   0  0  0  0  0  0  0  0  0  0  0  0
  -30.1438  -22.6150   22.7877 C   0  0  0  0  0  0  0  0  0  0  0  0
  -18.2245  -27.4127   22.2333 C   0  0  0  0  0  0  0  0  0  0  0  0
  -29.9287  -24.0604   23.2057 C   0  0  0  0  0  0  0  0  0  0  0  0
  -29.8554  -11.7067   19.0461 C   0  0  0  0  0  0  0  0  0  0  0  0
  -19.3010  -26.4836   22.7854 C   0  0  0  0  0  0  0  0  0  0  0  0
  -29.7922  -24.9912   22.0124 C   0  0  0  0  0  0  0  0  0  0  0  0
  -28.4235  -11.4815   19.5372 C   0  0  0  0  0  0  0  0  0  0  0  0
  -30.5770  -12.7711   19.8708 C   0  0  0  0  0  0  0  0  0  0  0  0
  -28.4358  -13.8263   20.4800 C   0  0  0  0  0  0  0  0  0  0  0  0
  -20.7028  -27.0498   22.5290 C   0  0  1  0  0  0  0  0  0  0  0  0
  -28.5754  -24.6678   21.1664 C   0  0  1  0  0  0  0  0  0  1  0  0
  -21.9841  -25.6451   19.2398 C   0  0  1  0  0  0  0  0  0  0  0  0
  -27.6473  -12.8091   19.6389 C   0  0  2  0  0  0  0  0  0  0  0  0
  -27.4233  -18.3099   19.6011 C   0  0  0  0  0  0  0  0  0  0  0  0
  -23.0767  -19.5960   14.5262 C   0  0  0  0  0  0  0  0  0  0  0  0
  -21.3244  -21.3037   20.6812 C   0  0  0  0  0  0  0  0  0  0  0  0
  -21.9786  -19.5161   19.0549 C   0  0  0  0  0  0  0  0  0  0  0  0
  -19.9075  -20.8524   18.6704 C   0  0  0  0  0  0  0  0  0  0  0  0
  -24.3977  -23.1295   14.0309 C   0  0  0  0  0  0  0  0  0  0  0  0
  -28.2158  -21.0882   19.9822 C   0  0  0  0  0  0  0  0  0  0  0  0
  -22.1648  -21.9371   18.3236 C   0  0  1  0  0  0  0  0  0  0  0  0
  -23.1399  -21.0977   14.7579 C   0  0  2  0  0  0  0  0  0  0  0  0
  -21.3609  -20.9245   19.1872 C   0  0  0  0  0  0  0  0  0  0  0  0
  -26.0211  -11.6101   21.0528 N   0  0  0  0  0  0  0  0  0  0  0  0
  -26.2417  -12.5993   20.1704 N   0  0  0  0  0  0  0  0  0  0  0  0
  -28.6409  -22.2011   20.8387 N   0  0  0  0  0  0  0  0  0  0  0  0
  -22.5052  -24.3136   18.9236 N   0  0  0  0  0  0  0  0  0  0  0  0
  -29.7848  -14.0019   19.9195 N   0  0  0  0  0  0  0  0  0  0  0  0
  -25.1686  -14.3461   18.9837 N   0  0  0  0  0  0  0  0  0  0  0  0
  -21.8140  -12.4982   21.3771 N   0  0  0  0  0  0  0  0  0  0  0  0
  -29.4874  -16.3069   19.5186 N   0  0  0  0  0  0  0  0  0  0  0  0
  -21.0927  -26.8301   21.1527 N   0  0  0  0  0  0  0  0  0  0  0  0
  -22.1935  -21.6178   16.9003 N   0  0  0  0  0  0  0  0  0  0  0  0
  -24.2374  -21.6568   13.9189 N   0  3  0  0  0  0  0  0  0  0  0  0
  -28.8808  -23.6356   19.0233 O   0  0  0  0  0  0  0  0  0  0  0  0
  -22.3349  -14.1339   19.8566 O   0  0  0  0  0  0  0  0  0  0  0  0
  -21.9091  -24.6617   21.3852 O   0  0  0  0  0  0  0  0  0  0  0  0
  -20.4617  -23.5704   18.0823 O   0  0  0  0  0  0  0  0  0  0  0  0
  -24.5014  -21.4889   16.7151 O   0  0  0  0  0  0  0  0  0  0  0  0
  -31.4925  -15.2610   19.0017 O   0  0  0  0  0  0  0  0  0  0  0  0
  -22.2524   -8.1824   24.8732 O   0  0  0  0  0  0  0  0  0  0  0  0
  -28.3211  -25.8027   20.3417 O   0  0  0  0  0  0  0  0  0  1  0  0
  -21.3365   -3.0243   23.1529 F   0  0  0  0  0  0  0  0  0  0  0  0
  -19.6876   -7.1559   24.7706 F   0  0  0  0  0  0  0  0  0  0  0  0
  1  2  1  0  0  0  0
  1  6  2  0  0  0  0
  2  7  2  0  0  0  0
  3  9  2  0  0  0  0
  3 10  1  0  0  0  0
  4 11  2  0  0  0  0
  4 18  1  0  0  0  0
  5 12  1  0  0  0  0
  5 18  2  0  0  0  0
  6 20  1  0  0  0  0
  7 22  1  0  0  0  0
  8 13  2  0  0  0  0
  8 21  1  0  0  0  0
  9 24  1  0  0  0  0
 10 26  2  0  0  0  0
 11 27  1  0  0  0  0
 12 27  2  0  0  0  0
 13 28  1  0  0  0  0
 14 15  2  0  0  0  0
 14 29  1  0  0  0  0
 15 30  1  0  0  0  0
 16 23  1  0  0  0  0
 16 28  2  0  0  0  0
 17 30  2  0  0  0  0
 17 31  1  0  0  0  0
 18 32  1  0  0  0  0
 19 32  1  0  0  0  0
 19 33  2  0  0  0  0
 19 37  1  0  0  0  0
 20 22  2  0  0  0  0
 20 42  1  0  0  0  0
 21 23  2  0  0  0  0
 21 43  1  0  0  0  0
 22 54  1  0  0  0  0
 23 44  1  0  0  0  0
 24 25  2  0  0  0  0
 24 64  1  0  0  0  0
 25 26  1  0  0  0  0
 25 58  1  0  0  0  0
 26 75  1  0  0  0  0
 27 85  1  0  0  0  0
 28 86  1  0  0  0  0
 29 31  2  0  0  0  0
 29 85  1  0  0  0  0
 30 87  1  0  0  0  0
 31 88  1  0  0  0  0
 32 68  2  0  0  0  0
 33 69  1  0  0  0  0
 33 73  1  0  0  0  0
 34 36  2  0  0  0  0
 34 45  1  0  0  0  0
 34 70  1  0  0  0  0
 35 55  1  0  0  0  0
 35 70  1  0  0  0  0
 35 79  2  0  0  0  0
 37 74  1  0  0  0  0
 37 80  2  0  0  0  0
 38 56  1  0  0  0  0
 38 76  1  0  0  0  0
 38 81  2  0  0  0  0
 39 65  1  0  0  0  0
 39 71  1  0  0  0  0
 39 82  2  0  0  0  0
 40 66  1  0  0  0  0
 40 77  1  0  0  0  0
 40 83  2  0  0  0  0
 41 72  1  0  0  0  0
 41 75  1  0  0  0  0
 41 84  2  0  0  0  0
 42 46  1  0  0  0  0
 43 56  1  0  0  0  0
 44 71  1  0  0  0  0
 45 47  1  0  0  0  0
 46 49  1  0  0  0  0
 47 50  1  0  0  0  0
 48 51  1  0  0  0  0
 48 52  1  0  0  0  0
 49 54  1  0  0  0  0
 50 55  1  0  0  0  0
 51 57  1  0  0  0  0
 52 72  1  0  0  0  0
 53 57  1  0  0  0  0
 53 72  1  0  0  0  0
 54 76  1  0  0  0  0
 55 86  1  0  0  0  0
 56 71  1  0  0  0  0
 57 69  1  0  0  0  0
 59 66  1  0  0  0  0
 60 67  1  0  0  0  0
 61 67  1  0  0  0  0
 62 67  1  0  0  0  0
 63 78  1  0  0  0  0
 64 70  1  0  0  0  0
 65 67  1  0  0  0  0
 65 77  1  0  0  0  0
 66 78  1  0  0  0  0
 68 69  1  0  0  0  0
M  CHG  1  78   1
M  ISO  4  41 100  55 101  75 100  86 101
M  END
> <Batch ID>
0065

> <Smiles>
C=C1CCC[101CH:1]([101O:1]c2ccc3c(c2)CN(C(=O)C(NC(=O)C(C)NC)C(C)(C)C)C(C(=O)NC2CCCc4ccccc42)C3)C(=O)N1Cc1cccc([100NH:0][100C:0](=O)N2CCCC(n3nc(-c4ccc(Oc5ccc(F)cc5F)cc4)c(C(N)=O)c3N)C2)c1C

> <Shape>
0.284

> <Color>
0.136

> <Negative vol penalty>
0.000

$$$$

  -OEChem-04042323183D

 87 96  0     1  0  0  0  0  0999 V2000
  -29.2590  -37.2937   21.9136 C   0  0  0  0  0  0  0  0  0  0  0  0
  -29.2025  -36.3250   20.9167 C   0  0  0  0  0  0  0  0  0  0  0  0
  -22.8151  -16.1931   19.5110 C   0  0  0  0  0  0  0  0  0  0  0  0
  -23.6995  -16.9054   21.6436 C   0  0  0  0  0  0  0  0  0  0  0  0
  -29.0139  -36.9421   23.2404 C   0  0  0  0  0  0  0  0  0  0  0  0
  -28.9019  -35.0038   21.2462 C   0  0  0  0  0  0  0  0  0  0  0  0
  -25.6116  -29.2061   18.6238 C   0  0  0  0  0  0  0  0  0  0  0  0
  -21.9836  -17.3126   19.4819 C   0  0  0  0  0  0  0  0  0  0  0  0
  -22.8679  -18.0249   21.6145 C   0  0  0  0  0  0  0  0  0  0  0  0
  -25.8412  -27.8510   18.3894 C   0  0  0  0  0  0  0  0  0  0  0  0
  -22.8227  -21.0539   20.1166 C   0  0  0  0  0  0  0  0  0  0  0  0
  -23.3819  -22.2838   20.4633 C   0  0  0  0  0  0  0  0  0  0  0  0
  -25.3580  -27.3750   20.7044 C   0  0  0  0  0  0  0  0  0  0  0  0
  -29.3002  -22.1309   20.8008 C   0  0  0  0  0  0  0  0  0  0  0  0
  -28.7311  -19.9243   19.9983 C   0  0  0  0  0  0  0  0  0  0  0  0
  -21.8003  -22.4913   22.2779 C   0  0  0  0  0  0  0  0  0  0  0  0
  -23.6731  -15.9895   20.5919 C   0  0  0  0  0  0  0  0  0  0  0  0
  -24.1388  -13.4814   20.6022 C   0  0  0  0  0  0  0  0  0  0  0  0
  -28.7007  -35.6178   23.5850 C   0  0  0  0  0  0  0  0  0  0  0  0
  -25.2636  -29.6579   19.9049 C   0  0  0  0  0  0  0  0  0  0  0  0
  -28.6538  -34.6339   22.5790 C   0  0  0  0  0  0  0  0  0  0  0  0
  -25.1221  -28.7359   20.9519 C   0  0  0  0  0  0  0  0  0  0  0  0
  -29.9318  -21.5653   21.9084 C   0  0  0  0  0  0  0  0  0  0  0  0
  -28.6998  -21.3105   19.8458 C   0  0  0  0  0  0  0  0  0  0  0  0
  -29.3626  -19.3586   21.1059 C   0  0  0  0  0  0  0  0  0  0  0  0
  -22.0099  -18.2285   20.5336 C   0  0  0  0  0  0  0  0  0  0  0  0
  -25.7172  -26.9356   19.4305 C   0  0  0  0  0  0  0  0  0  0  0  0
  -21.7523  -20.5427   20.8505 C   0  0  0  0  0  0  0  0  0  0  0  0
  -22.8707  -23.0025   21.5439 C   0  0  0  0  0  0  0  0  0  0  0  0
  -21.2411  -21.2614   21.9311 C   0  0  0  0  0  0  0  0  0  0  0  0
  -29.9630  -20.1791   22.0609 C   0  0  0  0  0  0  0  0  0  0  0  0
  -24.5319  -14.8330   20.6228 C   0  0  0  0  0  0  0  0  0  0  0  0
  -25.3188  -12.7799   20.6475 C   0  0  0  0  0  0  0  0  0  0  0  0
  -27.9924  -21.2112   17.4709 C   0  0  0  0  0  0  0  0  0  0  0  0
  -22.8245  -12.9110   20.5470 C   0  0  0  0  0  0  0  0  0  0  0  0
  -26.5835  -31.6238   22.0254 C   0  0  0  0  0  0  0  0  0  0  0  0
  -23.8073  -31.1301   23.6291 C   0  0  0  0  0  0  0  0  0  0  0  0
  -21.1064  -29.1224   24.1958 C   0  0  0  0  0  0  0  0  0  0  0  0
  -28.8474  -16.9845   20.4077 C   0  0  0  0  0  0  0  0  0  0  0  0
  -28.4900  -35.2765   25.0389 C   0  0  0  0  0  0  0  0  0  0  0  0
  -24.9933  -31.1195   20.1353 C   0  0  0  0  0  0  0  0  0  0  0  0
  -24.7309  -29.1672   22.3409 C   0  0  0  0  0  0  0  0  0  0  0  0
  -27.0294  -21.7563   16.4332 C   0  0  0  0  0  0  0  0  0  0  0  0
  -27.8100  -33.9270   25.2554 C   0  0  0  0  0  0  0  0  0  0  0  0
  -26.8966  -23.2634   16.4353 C   0  0  0  0  0  0  0  0  0  0  0  0
  -29.7036  -13.7956   22.3987 C   0  0  0  0  0  0  0  0  0  0  0  0
  -28.4568  -32.8570   24.3817 C   0  0  0  0  0  0  0  0  0  0  0  0
  -28.2890  -13.2656   22.2009 C   0  0  0  0  0  0  0  0  0  0  0  0
  -29.7594  -15.2870   22.0792 C   0  0  0  0  0  0  0  0  0  0  0  0
  -27.6303  -23.3085   18.8023 C   0  0  0  0  0  0  0  0  0  0  0  0
  -28.6116  -14.5441   19.9904 C   0  0  0  0  0  0  0  0  0  0  0  0
  -28.3066  -33.1949   22.8935 C   0  0  1  0  0  0  0  0  0  0  0  0
  -25.1465  -31.5325   21.5958 C   0  0  1  0  0  0  0  0  0  0  0  0
  -26.5218  -23.7214   17.8351 C   0  0  1  0  0  0  0  0  0  0  0  0
  -27.8064  -13.4706   20.7510 C   0  0  2  0  0  0  0  0  0  0  0  0
  -30.5735  -22.4459   22.9271 C   0  0  0  0  0  0  0  0  0  0  0  0
  -19.0262  -28.9661   25.5906 C   0  0  0  0  0  0  0  0  0  0  0  0
  -25.4907  -30.3346   26.0463 C   0  0  0  0  0  0  0  0  0  0  0  0
  -23.4402  -29.3048   27.0478 C   0  0  0  0  0  0  0  0  0  0  0  0
  -23.5027  -31.7545   26.5813 C   0  0  0  0  0  0  0  0  0  0  0  0
  -19.3632  -29.1249   21.8041 C   0  0  0  0  0  0  0  0  0  0  0  0
  -26.3000  -25.2319   17.8769 C   0  0  0  0  0  0  0  0  0  1  0  0
  -23.3272  -30.1295   24.6524 C   0  0  1  0  0  0  0  0  0  0  0  0
  -19.6215  -29.4287   24.2698 C   0  0  2  0  0  0  0  0  0  0  0  0
  -23.9495  -30.3727   26.0563 C   0  0  0  0  0  0  0  0  0  0  0  0
  -25.8580  -14.9835   20.6771 N   0  0  0  0  0  0  0  0  0  0  0  0
  -26.3084  -13.7174   20.6911 N   0  0  0  0  0  0  0  0  0  0  0  0
  -28.0448  -21.8976   18.6964 N   0  0  0  0  0  0  0  0  0  0  0  0
  -24.4833  -30.6078   22.5173 N   0  0  0  0  0  0  0  0  0  0  0  0
  -29.0489  -15.6513   20.8445 N   0  0  0  0  0  0  0  0  0  0  0  0
  -25.5960  -11.4587   20.6540 N   0  0  0  0  0  0  0  0  0  0  0  0
  -22.1622  -12.6410   21.7523 N   0  0  0  0  0  0  0  0  0  0  0  0
  -29.3928  -17.9495   21.2588 N   0  0  0  0  0  0  0  0  0  0  0  0
  -26.9684  -32.8854   22.4375 N   0  0  0  0  0  0  0  0  0  0  0  0
  -21.8696  -30.1869   24.6268 N   0  0  0  0  0  0  0  0  0  0  0  0
  -18.8957  -28.7452   23.1621 N   0  3  0  0  0  0  0  0  0  0  0  0
  -28.6150  -20.1809   17.1994 O   0  0  0  0  0  0  0  0  0  0  0  0
  -22.2610  -12.6333   19.4613 O   0  0  0  0  0  0  0  0  0  0  0  0
  -27.2902  -30.6234   21.9874 O   0  0  0  0  0  0  0  0  0  0  0  0
  -23.5843  -32.3304   23.8059 O   0  0  0  0  0  0  0  0  0  0  0  0
  -21.5454  -28.0452   23.7991 O   0  0  0  0  0  0  0  0  0  0  0  0
  -28.2443  -17.2397   19.3633 O   0  0  0  0  0  0  0  0  0  0  0  0
  -21.1988  -19.3211   20.5055 O   0  0  0  0  0  0  0  0  0  0  0  0
  -25.9413  -25.6125   19.2046 O   0  0  0  0  0  0  0  0  0  1  0  0
  -23.4087  -24.1829   21.8777 F   0  0  0  0  0  0  0  0  0  0  0  0
  -20.2136  -20.7748   22.6406 F   0  0  0  0  0  0  0  0  0  0  0  0
  -30.5706  -19.6374   23.1273 F   0  0  0  0  0  0  0  0  0  0  0  0
  1  2  1  0  0  0  0
  1  5  2  0  0  0  0
  2  6  2  0  0  0  0
  3  8  2  0  0  0  0
  3 17  1  0  0  0  0
  4  9  1  0  0  0  0
  4 17  2  0  0  0  0
  5 19  1  0  0  0  0
  6 21  1  0  0  0  0
  7 10  2  0  0  0  0
  7 20  1  0  0  0  0
  8 26  1  0  0  0  0
  9 26  2  0  0  0  0
 10 27  1  0  0  0  0
 11 12  2  0  0  0  0
 11 28  1  0  0  0  0
 12 29  1  0  0  0  0
 13 22  1  0  0  0  0
 13 27  2  0  0  0  0
 14 23  2  0  0  0  0
 14 24  1  0  0  0  0
 15 24  2  0  0  0  0
 15 25  1  0  0  0  0
 16 29  2  0  0  0  0
 16 30  1  0  0  0  0
 17 32  1  0  0  0  0
 18 32  1  0  0  0  0
 18 33  2  0  0  0  0
 18 35  1  0  0  0  0
 19 21  2  0  0  0  0
 19 40  1  0  0  0  0
 20 22  2  0  0  0  0
 20 41  1  0  0  0  0
 21 52  1  0  0  0  0
 22 42  1  0  0  0  0
 23 31  1  0  0  0  0
 23 56  1  0  0  0  0
 24 68  1  0  0  0  0
 25 31  2  0  0  0  0
 25 73  1  0  0  0  0
 26 83  1  0  0  0  0
 27 84  1  0  0  0  0
 28 30  2  0  0  0  0
 28 83  1  0  0  0  0
 29 85  1  0  0  0  0
 30 86  1  0  0  0  0
 31 87  1  0  0  0  0
 32 66  2  0  0  0  0
 33 67  1  0  0  0  0
 33 71  1  0  0  0  0
 34 43  1  0  0  0  0
 34 68  1  0  0  0  0
 34 77  2  0  0  0  0
 35 72  1  0  0  0  0
 35 78  2  0  0  0  0
 36 53  1  0  0  0  0
 36 74  1  0  0  0  0
 36 79  2  0  0  0  0
 37 63  1  0  0  0  0
 37 69  1  0  0  0  0
 37 80  2  0  0  0  0
 38 64  1  0  0  0  0
 38 75  1  0  0  0  0
 38 81  2  0  0  0  0
 39 70  1  0  0  0  0
 39 73  1  0  0  0  0
 39 82  2  0  0  0  0
 40 44  1  0  0  0  0
 41 53  1  0  0  0  0
 42 69  1  0  0  0  0
 43 45  1  0  0  0  0
 44 47  1  0  0  0  0
 45 54  1  0  0  0  0
 46 48  1  0  0  0  0
 46 49  1  0  0  0  0
 47 52  1  0  0  0  0
 48 55  1  0  0  0  0
 49 70  1  0  0  0  0
 50 54  1  0  0  0  0
 50 68  1  0  0  0  0
 51 55  1  0  0  0  0
 51 70  1  0  0  0  0
 52 74  1  0  0  0  0
 53 69  1  0  0  0  0
 54 62  1  0  0  0  0
 55 67  1  0  0  0  0
 57 64  1  0  0  0  0
 58 65  1  0  0  0  0
 59 65  1  0  0  0  0
 60 65  1  0  0  0  0
 61 76  1  0  0  0  0
 62 84  1  0  0  0  0
 63 65  1  0  0  0  0
 63 75  1  0  0  0  0
 64 76  1  0  0  0  0
 66 67  1  0  0  0  0
M  CHG  1  76   1
M  ISO  4  39 100  62 101  73 100  84 101
M  END
> <Batch ID>
0065

> <Smiles>
CNC(C)C(=O)NC(C(=O)N1Cc2cc([101O:1][101CH2:1]C3CCC(=O)N(c4cc(C)c(F)c([100NH:0][100C:0](=O)N5CCCC(n6nc(-c7ccc(Oc8ccc(F)cc8F)cc7)c(C(N)=O)c6N)C5)c4)C3)ccc2CC1C(=O)NC1CCCc2ccccc21)C(C)(C)C

> <Shape>
0.249

> <Color>
0.101

> <Negative vol penalty>
0.000

$$$$

  -OEChem-04042323183D

 89 98  0     1  0  0  0  0  0999 V2000
  -32.0982  -25.7316   14.9928 C   0  0  0  0  0  0  0  0  0  0  0  0
  -31.5511  -25.1593   16.1368 C   0  0  0  0  0  0  0  0  0  0  0  0
  -23.0868   -9.8540   20.3849 C   0  0  0  0  0  0  0  0  0  0  0  0
  -23.7400  -10.2819   22.6712 C   0  0  0  0  0  0  0  0  0  0  0  0
  -32.5183  -18.0357   22.8887 C   0  0  0  0  0  0  0  0  0  0  0  0
  -32.2321  -27.1165   14.9034 C   0  0  0  0  0  0  0  0  0  0  0  0
  -31.1387  -25.9716   17.1925 C   0  0  0  0  0  0  0  0  0  0  0  0
  -26.6208  -24.6169   19.0359 C   0  0  0  0  0  0  0  0  0  0  0  0
  -31.9693  -16.9993   22.1338 C   0  0  0  0  0  0  0  0  0  0  0  0
  -22.3279   -8.7621   20.8060 C   0  0  0  0  0  0  0  0  0  0  0  0
  -22.9810   -9.1900   23.0924 C   0  0  0  0  0  0  0  0  0  0  0  0
  -26.5846  -23.5101   19.8829 C   0  0  0  0  0  0  0  0  0  0  0  0
  -19.7255   -8.5000   23.6806 C   0  0  0  0  0  0  0  0  0  0  0  0
  -18.9151   -8.6703   24.8030 C   0  0  0  0  0  0  0  0  0  0  0  0
  -26.5096  -24.9817   21.7929 C   0  0  0  0  0  0  0  0  0  0  0  0
  -29.7640  -17.9312   22.4582 C   0  0  0  0  0  0  0  0  0  0  0  0
  -20.1139   -6.9052   25.9363 C   0  0  0  0  0  0  0  0  0  0  0  0
  -23.7929  -10.6139   21.3175 C   0  0  0  0  0  0  0  0  0  0  0  0
  -31.6902  -19.0199   23.4285 C   0  0  0  0  0  0  0  0  0  0  0  0
  -24.1495  -13.0766   20.7557 C   0  0  0  0  0  0  0  0  0  0  0  0
  -31.8122  -27.9468   15.9545 C   0  0  0  0  0  0  0  0  0  0  0  0
  -26.6127  -25.9166   19.5623 C   0  0  0  0  0  0  0  0  0  0  0  0
  -31.2684  -27.3689   17.1175 C   0  0  0  0  0  0  0  0  0  0  0  0
  -26.5432  -26.1034   20.9503 C   0  0  0  0  0  0  0  0  0  0  0  0
  -30.3130  -18.9676   23.2132 C   0  0  0  0  0  0  0  0  0  0  0  0
  -30.5922  -16.9470   21.9184 C   0  0  0  0  0  0  0  0  0  0  0  0
  -22.2749   -8.4302   22.1598 C   0  0  0  0  0  0  0  0  0  0  0  0
  -26.5319  -23.6924   21.2617 C   0  0  0  0  0  0  0  0  0  0  0  0
  -20.7300   -7.5322   23.6860 C   0  0  0  0  0  0  0  0  0  0  0  0
  -19.1093   -7.8729   25.9309 C   0  0  0  0  0  0  0  0  0  0  0  0
  -20.9242   -6.7348   24.8138 C   0  0  0  0  0  0  0  0  0  0  0  0
  -24.5776  -11.7415   20.8830 C   0  0  0  0  0  0  0  0  0  0  0  0
  -25.2601  -13.7525   20.3128 C   0  0  0  0  0  0  0  0  0  0  0  0
  -29.2741  -20.2757   25.1199 C   0  0  0  0  0  0  0  0  0  0  0  0
  -32.2959  -20.0888   24.2128 C   0  0  0  0  0  0  0  0  0  0  0  0
  -22.8630  -13.6540   21.0147 C   0  0  0  0  0  0  0  0  0  0  0  0
  -28.6223  -28.3783   19.4907 C   0  0  0  0  0  0  0  0  0  0  0  0
  -26.1838  -29.9110   20.9831 C   0  0  0  0  0  0  0  0  0  0  0  0
  -23.3736  -29.6978   22.9077 C   0  0  0  0  0  0  0  0  0  0  0  0
  -30.7163  -14.8382   20.5460 C   0  0  0  0  0  0  0  0  0  0  0  0
  -32.0207  -29.4354   15.8314 C   0  0  0  0  0  0  0  0  0  0  0  0
  -26.6252  -27.1001   18.6342 C   0  0  0  0  0  0  0  0  0  0  0  0
  -26.5119  -27.4781   21.5649 C   0  0  0  0  0  0  0  0  0  0  0  0
  -31.2141  -30.2490   16.8403 C   0  0  0  0  0  0  0  0  0  0  0  0
  -29.7033  -12.0284   18.6079 C   0  0  0  0  0  0  0  0  0  0  0  0
  -31.3423  -29.6469   18.2360 C   0  0  0  0  0  0  0  0  0  0  0  0
  -28.2443  -11.8131   19.0166 C   0  0  0  0  0  0  0  0  0  0  0  0
  -30.5628  -12.4764   19.7887 C   0  0  0  0  0  0  0  0  0  0  0  0
  -28.6566  -20.8412   22.9123 C   0  0  0  0  0  0  0  0  0  0  0  0
  -28.5968  -13.4312   20.9256 C   0  0  0  0  0  0  0  0  0  0  0  0
  -30.7865  -28.2182   18.2736 C   0  0  1  0  0  0  0  0  0  0  0  0
  -28.3525  -21.4848   25.1872 C   0  0  1  0  0  0  0  0  0  0  0  0
  -27.1319  -28.3760   19.2996 C   0  0  1  0  0  0  0  0  0  0  0  0
  -27.6085  -21.4206   23.8526 C   0  0  1  0  0  0  0  0  0  0  0  0
  -27.6788  -13.0419   19.7554 C   0  0  2  0  0  0  0  0  0  0  0  0
  -33.0579  -19.6954   25.4431 C   0  0  0  0  0  0  0  0  0  0  0  0
  -21.6186  -31.1235   23.9960 C   0  0  0  0  0  0  0  0  0  0  0  0
  -28.1749  -30.6983   23.1570 C   0  0  0  0  0  0  0  0  0  0  0  0
  -26.2334  -31.2670   24.6318 C   0  0  0  0  0  0  0  0  0  0  0  0
  -26.5812  -32.5090   22.4966 C   0  0  0  0  0  0  0  0  0  0  0  0
  -21.2064  -28.4287   21.3420 C   0  0  0  0  0  0  0  0  0  0  0  0
  -27.4325  -21.4483   26.3957 C   0  0  0  0  0  0  0  0  0  0  0  0
  -27.0836  -22.7683   23.3825 C   0  0  0  0  0  0  0  0  0  1  0  0
  -25.7699  -30.1157   22.4204 C   0  0  1  0  0  0  0  0  0  0  0  0
  -22.0002  -30.3269   22.7581 C   0  0  2  0  0  0  0  0  0  0  0  0
  -26.6924  -31.1215   23.1653 C   0  0  0  0  0  0  0  0  0  0  0  0
  -25.8601  -11.5771   20.5479 N   0  0  0  0  0  0  0  0  0  0  0  0
  -26.2473  -12.8177   20.2056 N   0  0  0  0  0  0  0  0  0  0  0  0
  -29.4462  -19.9632   23.7562 N   0  0  0  0  0  0  0  0  0  0  0  0
  -26.5323  -28.6035   20.6159 N   0  0  0  0  0  0  0  0  0  0  0  0
  -29.9678  -13.6471   20.4371 N   0  0  0  0  0  0  0  0  0  0  0  0
  -25.4786  -15.0494   20.0084 N   0  0  0  0  0  0  0  0  0  0  0  0
  -21.8331  -12.8167   21.4648 N   0  0  0  0  0  0  0  0  0  0  0  0
  -30.0353  -15.8937   21.1516 N   0  0  0  0  0  0  0  0  0  0  0  0
  -29.3401  -28.2396   18.3182 N   0  0  0  0  0  0  0  0  0  0  0  0
  -24.3642  -30.5046   22.3889 N   0  0  0  0  0  0  0  0  0  0  0  0
  -20.9688  -29.2734   22.5407 N   0  3  0  0  0  0  0  0  0  0  0  0
  -29.7822  -19.7662   26.1084 O   0  0  0  0  0  0  0  0  0  0  0  0
  -32.2235  -21.2874   23.9421 O   0  0  0  0  0  0  0  0  0  0  0  0
  -22.6290  -14.8734   20.8361 O   0  0  0  0  0  0  0  0  0  0  0  0
  -29.0866  -28.4987   20.6184 O   0  0  0  0  0  0  0  0  0  0  0  0
  -26.1907  -30.8744   20.2127 O   0  0  0  0  0  0  0  0  0  0  0  0
  -23.5505  -28.6021   23.4355 O   0  0  0  0  0  0  0  0  0  0  0  0
  -31.8664  -14.9243   20.1081 O   0  0  0  0  0  0  0  0  0  0  0  0
  -28.1587  -21.8751   27.5365 O   0  0  0  0  0  0  0  0  0  0  0  0
  -21.5342   -7.3649   22.5711 O   0  0  0  0  0  0  0  0  0  0  0  0
  -26.4972  -22.6138   22.0908 O   0  0  0  0  0  0  0  0  0  1  0  0
  -18.3320   -8.0376   27.0093 F   0  0  0  0  0  0  0  0  0  0  0  0
  -21.8884   -5.8043   24.8253 F   0  0  0  0  0  0  0  0  0  0  0  0
  1  2  1  0  0  0  0
  1  6  2  0  0  0  0
  2  7  2  0  0  0  0
  3 10  2  0  0  0  0
  3 18  1  0  0  0  0
  4 11  1  0  0  0  0
  4 18  2  0  0  0  0
  5  9  2  0  0  0  0
  5 19  1  0  0  0  0
  6 21  1  0  0  0  0
  7 23  1  0  0  0  0
  8 12  2  0  0  0  0
  8 22  1  0  0  0  0
  9 26  1  0  0  0  0
 10 27  1  0  0  0  0
 11 27  2  0  0  0  0
 12 28  1  0  0  0  0
 13 14  2  0  0  0  0
 13 29  1  0  0  0  0
 14 30  1  0  0  0  0
 15 24  1  0  0  0  0
 15 28  2  0  0  0  0
 16 25  1  0  0  0  0
 16 26  2  0  0  0  0
 17 30  2  0  0  0  0
 17 31  1  0  0  0  0
 18 32  1  0  0  0  0
 19 25  2  0  0  0  0
 19 35  1  0  0  0  0
 20 32  1  0  0  0  0
 20 33  2  0  0  0  0
 20 36  1  0  0  0  0
 21 23  2  0  0  0  0
 21 41  1  0  0  0  0
 22 24  2  0  0  0  0
 22 42  1  0  0  0  0
 23 51  1  0  0  0  0
 24 43  1  0  0  0  0
 25 69  1  0  0  0  0
 26 74  1  0  0  0  0
 27 86  1  0  0  0  0
 28 87  1  0  0  0  0
 29 31  2  0  0  0  0
 29 86  1  0  0  0  0
 30 88  1  0  0  0  0
 31 89  1  0  0  0  0
 32 67  2  0  0  0  0
 33 68  1  0  0  0  0
 33 72  1  0  0  0  0
 34 52  1  0  0  0  0
 34 69  1  0  0  0  0
 34 78  2  0  0  0  0
 35 56  1  0  0  0  0
 35 79  2  0  0  0  0
 36 73  1  0  0  0  0
 36 80  2  0  0  0  0
 37 53  1  0  0  0  0
 37 75  1  0  0  0  0
 37 81  2  0  0  0  0
 38 64  1  0  0  0  0
 38 70  1  0  0  0  0
 38 82  2  0  0  0  0
 39 65  1  0  0  0  0
 39 76  1  0  0  0  0
 39 83  2  0  0  0  0
 40 71  1  0  0  0  0
 40 74  1  0  0  0  0
 40 84  2  0  0  0  0
 41 44  1  0  0  0  0
 42 53  1  0  0  0  0
 43 70  1  0  0  0  0
 44 46  1  0  0  0  0
 45 47  1  0  0  0  0
 45 48  1  0  0  0  0
 46 51  1  0  0  0  0
 47 55  1  0  0  0  0
 48 71  1  0  0  0  0
 49 54  1  0  0  0  0
 49 69  1  0  0  0  0
 50 55  1  0  0  0  0
 50 71  1  0  0  0  0
 51 75  1  0  0  0  0
 52 54  1  0  0  0  0
 52 62  1  0  0  0  0
 53 70  1  0  0  0  0
 54 63  1  0  0  0  0
 55 68  1  0  0  0  0
 57 65  1  0  0  0  0
 58 66  1  0  0  0  0
 59 66  1  0  0  0  0
 60 66  1  0  0  0  0
 61 77  1  0  0  0  0
 62 85  1  0  0  0  0
 63 87  1  0  0  0  0
 64 66  1  0  0  0  0
 64 76  1  0  0  0  0
 65 77  1  0  0  0  0
 67 68  1  0  0  0  0
M  CHG  1  77   1
M  ISO  4  40 100  63 101  74 100  87 101
M  END
> <Batch ID>
0065

> <Smiles>
CNC(C)C(=O)NC(C(=O)N1Cc2cc([101O:1][101CH2:1]C3CN(c4cc([100NH:0][100C:0](=O)N5CCCC(n6nc(-c7ccc(Oc8ccc(F)cc8F)cc7)c(C(N)=O)c6N)C5)ccc4C(C)=O)C(=O)C3CO)ccc2CC1C(=O)NC1CCCc2ccccc21)C(C)(C)C

> <Shape>
0.284

> <Color>
0.203

> <Negative vol penalty>
0.000

$$$$

  -OEChem-04042323183D

 88 97  0     1  0  0  0  0  0999 V2000
  -17.5261  -31.9277   24.2886 C   0  0  0  0  0  0  0  0  0  0  0  0
  -18.1102  -31.9577   23.0264 C   0  0  0  0  0  0  0  0  0  0  0  0
  -23.0162   -9.3303   19.7093 C   0  0  0  0  0  0  0  0  0  0  0  0
  -24.5910   -8.6896   21.4259 C   0  0  0  0  0  0  0  0  0  0  0  0
  -18.2704  -32.2950   25.4089 C   0  0  0  0  0  0  0  0  0  0  0  0
  -19.4389  -32.3560   22.8835 C   0  0  0  0  0  0  0  0  0  0  0  0
  -24.3295  -27.9671   19.9321 C   0  0  0  0  0  0  0  0  0  0  0  0
  -27.7320  -20.0440   19.8094 C   0  0  0  0  0  0  0  0  0  0  0  0
  -27.8388  -18.6540   19.8548 C   0  0  0  0  0  0  0  0  0  0  0  0
  -21.9728   -8.8011   20.4689 C   0  0  0  0  0  0  0  0  0  0  0  0
  -23.5476   -8.1604   22.1856 C   0  0  0  0  0  0  0  0  0  0  0  0
  -25.2781  -27.2668   19.1867 C   0  0  0  0  0  0  0  0  0  0  0  0
  -21.6732   -5.3469   22.2257 C   0  0  0  0  0  0  0  0  0  0  0  0
  -21.8663   -4.0945   22.8085 C   0  0  0  0  0  0  0  0  0  0  0  0
  -26.9239  -28.9753   19.6560 C   0  0  0  0  0  0  0  0  0  0  0  0
  -30.1152  -20.2385   20.1549 C   0  0  0  0  0  0  0  0  0  0  0  0
  -21.5390   -5.0628   24.9977 C   0  0  0  0  0  0  0  0  0  0  0  0
  -24.3253   -9.2745   20.1878 C   0  0  0  0  0  0  0  0  0  0  0  0
  -25.7956   -9.4298   18.1090 C   0  0  0  0  0  0  0  0  0  0  0  0
  -19.6117  -32.6888   25.2808 C   0  0  0  0  0  0  0  0  0  0  0  0
  -24.6792  -29.1680   20.5559 C   0  0  0  0  0  0  0  0  0  0  0  0
  -20.2015  -32.7303   24.0030 C   0  0  0  0  0  0  0  0  0  0  0  0
  -25.9814  -29.6749   20.4143 C   0  0  0  0  0  0  0  0  0  0  0  0
  -30.2221  -18.8485   20.2003 C   0  0  0  0  0  0  0  0  0  0  0  0
  -28.8702  -20.8363   19.9594 C   0  0  0  0  0  0  0  0  0  0  0  0
  -29.0838  -18.0562   20.0503 C   0  0  0  0  0  0  0  0  0  0  0  0
  -22.2385   -8.2162   21.7070 C   0  0  0  0  0  0  0  0  0  0  0  0
  -26.5721  -27.7698   19.0488 C   0  0  0  0  0  0  0  0  0  0  0  0
  -21.4130   -6.4573   23.0288 C   0  0  0  0  0  0  0  0  0  0  0  0
  -21.7992   -3.9524   24.1945 C   0  0  0  0  0  0  0  0  0  0  0  0
  -21.3459   -6.3152   24.4148 C   0  0  0  0  0  0  0  0  0  0  0  0
  -25.4035   -9.8205   19.4034 C   0  0  0  0  0  0  0  0  0  0  0  0
  -26.8591  -10.2464   17.8112 C   0  0  0  0  0  0  0  0  0  0  0  0
  -29.6426  -23.0995   20.6286 C   0  0  0  0  0  0  0  0  0  0  0  0
  -28.0533  -24.0416   18.4106 C   0  0  0  0  0  0  0  0  0  0  0  0
  -25.2475   -8.4192   17.2523 C   0  0  0  0  0  0  0  0  0  0  0  0
  -23.5954  -32.0367   22.7173 C   0  0  0  0  0  0  0  0  0  0  0  0
  -26.4366  -31.2833   23.5952 C   0  0  0  0  0  0  0  0  0  0  0  0
  -29.3285  -30.7297   25.3179 C   0  0  0  0  0  0  0  0  0  0  0  0
  -28.1332  -15.7170   19.9573 C   0  0  0  0  0  0  0  0  0  0  0  0
  -20.3620  -33.1223   26.5152 C   0  0  0  0  0  0  0  0  0  0  0  0
  -23.6728  -29.9870   21.3175 C   0  0  0  0  0  0  0  0  0  0  0  0
  -26.3030  -30.9880   21.0742 C   0  0  0  0  0  0  0  0  0  0  0  0
  -29.4037  -24.5754   20.3920 C   0  0  0  0  0  0  0  0  0  0  0  0
  -27.5918  -22.8861   19.2756 C   0  0  0  0  0  0  0  0  0  0  0  0
  -21.8754  -33.1731   26.3217 C   0  0  0  0  0  0  0  0  0  0  0  0
  -30.0733  -12.4808   20.6557 C   0  0  0  0  0  0  0  0  0  0  0  0
  -22.2233  -33.8832   25.0173 C   0  0  0  0  0  0  0  0  0  0  0  0
  -29.4004  -11.5581   19.6422 C   0  0  0  0  0  0  0  0  0  0  0  0
  -29.9438  -13.9501   20.2741 C   0  0  0  0  0  0  0  0  0  0  0  0
  -27.5526  -13.2985   19.9372 C   0  0  0  0  0  0  0  0  0  0  0  0
  -21.6474  -33.1329   23.8102 C   0  0  1  0  0  0  0  0  0  0  0  0
  -24.2805  -30.7149   22.5299 C   0  0  1  0  0  0  0  0  0  0  0  0
  -28.0788  -12.1289   19.0908 C   0  0  2  0  0  0  0  0  0  0  0  0
  -31.5685  -18.2349   20.4089 C   0  0  0  0  0  0  0  0  0  0  0  0
  -31.0202  -31.9005   26.7549 C   0  0  0  0  0  0  0  0  0  0  0  0
  -27.6185  -32.6103   21.1161 C   0  0  0  0  0  0  0  0  0  0  0  0
  -29.7454  -32.9420   22.3946 C   0  0  0  0  0  0  0  0  0  0  0  0
  -27.6415  -34.0332   23.1726 C   0  0  0  0  0  0  0  0  0  0  0  0
  -28.7759  -28.9521   27.6186 C   0  0  0  0  0  0  0  0  0  0  0  0
  -29.6213  -25.9574   18.3326 C   0  0  0  0  0  0  0  0  0  0  0  0
  -28.8605  -27.2150   18.7130 C   0  0  0  0  0  0  0  0  0  1  0  0
  -27.9156  -31.5345   23.4443 C   0  0  1  0  0  0  0  0  0  0  0  0
  -29.7392  -31.0811   26.7365 C   0  0  2  0  0  0  0  0  0  0  0  0
  -28.2192  -32.7540   22.5287 C   0  0  0  0  0  0  0  0  0  0  0  0
  -26.1567  -10.8083   19.8942 N   0  0  0  0  0  0  0  0  0  0  0  0
  -27.0328  -11.0452   18.9030 N   0  0  0  0  0  0  0  0  0  0  0  0
  -28.7602  -22.2697   19.9097 N   0  0  0  0  0  0  0  0  0  0  0  0
  -29.0814  -24.7797   18.9907 N   0  0  0  0  0  0  0  0  0  0  0  0
  -25.7151  -31.0300   22.4222 N   0  0  0  0  0  0  0  0  0  0  0  0
  -28.5525  -14.3670   20.0464 N   0  0  0  0  0  0  0  0  0  0  0  0
  -27.6533  -10.3518   16.7247 N   0  0  0  0  0  0  0  0  0  0  0  0
  -25.7641   -7.1191   17.3372 N   0  0  0  0  0  0  0  0  0  0  0  0
  -29.1717  -16.6422   20.0917 N   0  0  0  0  0  0  0  0  0  0  0  0
  -22.4587  -31.9752   23.5006 N   0  0  0  0  0  0  0  0  0  0  0  0
  -28.4492  -31.6552   24.7967 N   0  0  0  0  0  0  0  0  0  0  0  0
  -29.9627  -29.8415   27.5330 N   0  3  0  0  0  0  0  0  0  0  0  0
  -30.4463  -22.7391   21.4883 O   0  0  0  0  0  0  0  0  0  0  0  0
  -27.4773  -24.3259   17.3621 O   0  0  0  0  0  0  0  0  0  0  0  0
  -24.3381   -8.6655   16.4242 O   0  0  0  0  0  0  0  0  0  0  0  0
  -24.0636  -33.0397   22.1916 O   0  0  0  0  0  0  0  0  0  0  0  0
  -25.9310  -31.3158   24.7206 O   0  0  0  0  0  0  0  0  0  0  0  0
  -29.7487  -29.7359   24.7295 O   0  0  0  0  0  0  0  0  0  0  0  0
  -26.9531  -16.0174   19.7650 O   0  0  0  0  0  0  0  0  0  0  0  0
  -21.2207   -7.6999   22.4486 O   0  0  0  0  0  0  0  0  0  0  0  0
  -27.4945  -27.0787   18.3234 O   0  0  0  0  0  0  0  0  0  1  0  0
  -21.9832   -2.7494   24.7539 F   0  0  0  0  0  0  0  0  0  0  0  0
  -21.0951   -7.3781   25.1915 F   0  0  0  0  0  0  0  0  0  0  0  0
  1  2  1  0  0  0  0
  1  5  2  0  0  0  0
  2  6  2  0  0  0  0
  3 10  2  0  0  0  0
  3 18  1  0  0  0  0
  4 11  1  0  0  0  0
  4 18  2  0  0  0  0
  5 20  1  0  0  0  0
  6 22  1  0  0  0  0
  7 12  2  0  0  0  0
  7 21  1  0  0  0  0
  8  9  2  0  0  0  0
  8 25  1  0  0  0  0
  9 26  1  0  0  0  0
 10 27  1  0  0  0  0
 11 27  2  0  0  0  0
 12 28  1  0  0  0  0
 13 14  2  0  0  0  0
 13 29  1  0  0  0  0
 14 30  1  0  0  0  0
 15 23  1  0  0  0  0
 15 28  2  0  0  0  0
 16 24  1  0  0  0  0
 16 25  2  0  0  0  0
 17 30  2  0  0  0  0
 17 31  1  0  0  0  0
 18 32  1  0  0  0  0
 19 32  1  0  0  0  0
 19 33  2  0  0  0  0
 19 36  1  0  0  0  0
 20 22  2  0  0  0  0
 20 41  1  0  0  0  0
 21 23  2  0  0  0  0
 21 42  1  0  0  0  0
 22 52  1  0  0  0  0
 23 43  1  0  0  0  0
 24 26  2  0  0  0  0
 24 55  1  0  0  0  0
 25 68  1  0  0  0  0
 26 74  1  0  0  0  0
 27 85  1  0  0  0  0
 28 86  1  0  0  0  0
 29 31  2  0  0  0  0
 29 85  1  0  0  0  0
 30 87  1  0  0  0  0
 31 88  1  0  0  0  0
 32 66  2  0  0  0  0
 33 67  1  0  0  0  0
 33 72  1  0  0  0  0
 34 44  1  0  0  0  0
 34 68  1  0  0  0  0
 34 78  2  0  0  0  0
 35 45  1  0  0  0  0
 35 69  1  0  0  0  0
 35 79  2  0  0  0  0
 36 73  1  0  0  0  0
 36 80  2  0  0  0  0
 37 53  1  0  0  0  0
 37 75  1  0  0  0  0
 37 81  2  0  0  0  0
 38 63  1  0  0  0  0
 38 70  1  0  0  0  0
 38 82  2  0  0  0  0
 39 64  1  0  0  0  0
 39 76  1  0  0  0  0
 39 83  2  0  0  0  0
 40 71  1  0  0  0  0
 40 74  1  0  0  0  0
 40 84  2  0  0  0  0
 41 46  1  0  0  0  0
 42 53  1  0  0  0  0
 43 70  1  0  0  0  0
 44 69  1  0  0  0  0
 45 68  1  0  0  0  0
 46 48  1  0  0  0  0
 47 49  1  0  0  0  0
 47 50  1  0  0  0  0
 48 52  1  0  0  0  0
 49 54  1  0  0  0  0
 50 71  1  0  0  0  0
 51 54  1  0  0  0  0
 51 71  1  0  0  0  0
 52 75  1  0  0  0  0
 53 70  1  0  0  0  0
 54 67  1  0  0  0  0
 56 64  1  0  0  0  0
 57 65  1  0  0  0  0
 58 65  1  0  0  0  0
 59 65  1  0  0  0  0
 60 77  1  0  0  0  0
 61 62  1  0  0  0  0
 61 69  1  0  0  0  0
 62 86  1  0  0  0  0
 63 65  1  0  0  0  0
 63 76  1  0  0  0  0
 64 77  1  0  0  0  0
 66 67  1  0  0  0  0
M  CHG  1  77   1
M  ISO  4  40 100  62 101  74 100  86 101
M  END
> <Batch ID>
0065

> <Smiles>
CNC(C)C(=O)NC(C(=O)N1Cc2cc([101O:1][101CH2:1]CN3CC(=O)N(c4ccc([100NH:0][100C:0](=O)N5CCCC(n6nc(-c7ccc(Oc8ccc(F)cc8F)cc7)c(C(N)=O)c6N)C5)c(C)c4)CC3=O)ccc2CC1C(=O)NC1CCCc2ccccc21)C(C)(C)C

> <Shape>
0.316

> <Color>
0.087

> <Negative vol penalty>
0.000

$$$$

  -OEChem-04042323183D

 87 96  0     1  0  0  0  0  0999 V2000
  -26.1738  -30.5690   12.2801 C   0  0  0  0  0  0  0  0  0  0  0  0
  -26.6841  -29.5207   13.0391 C   0  0  0  0  0  0  0  0  0  0  0  0
  -23.1180   -9.8781   21.5297 C   0  0  0  0  0  0  0  0  0  0  0  0
  -23.7272  -10.9598   23.6023 C   0  0  0  0  0  0  0  0  0  0  0  0
  -25.6495  -31.6954   12.9127 C   0  0  0  0  0  0  0  0  0  0  0  0
  -26.6712  -29.5987   14.4313 C   0  0  0  0  0  0  0  0  0  0  0  0
  -25.8613  -24.9796   18.3700 C   0  0  0  0  0  0  0  0  0  0  0  0
  -22.3868   -8.9269   22.2411 C   0  0  0  0  0  0  0  0  0  0  0  0
  -22.9959  -10.0086   24.3137 C   0  0  0  0  0  0  0  0  0  0  0  0
  -26.7578  -24.2094   19.1095 C   0  0  0  0  0  0  0  0  0  0  0  0
  -23.0168   -6.1324   24.0350 C   0  0  0  0  0  0  0  0  0  0  0  0
  -23.1685   -4.7944   23.6712 C   0  0  0  0  0  0  0  0  0  0  0  0
  -26.4177  -25.6518   21.0129 C   0  0  0  0  0  0  0  0  0  0  0  0
  -29.5191  -18.4253   21.2451 C   0  0  0  0  0  0  0  0  0  0  0  0
  -31.7560  -17.5131   21.2116 C   0  0  0  0  0  0  0  0  0  0  0  0
  -20.8086   -4.6629   23.1706 C   0  0  0  0  0  0  0  0  0  0  0  0
  -23.7883  -10.8946   22.2104 C   0  0  0  0  0  0  0  0  0  0  0  0
  -24.0778  -13.1060   20.9721 C   0  0  0  0  0  0  0  0  0  0  0  0
  -25.6214  -31.7831   14.3135 C   0  0  0  0  0  0  0  0  0  0  0  0
  -25.2435  -26.1000   18.9440 C   0  0  0  0  0  0  0  0  0  0  0  0
  -26.1472  -30.7279   15.0832 C   0  0  0  0  0  0  0  0  0  0  0  0
  -25.5118  -26.4331   20.2794 C   0  0  0  0  0  0  0  0  0  0  0  0
  -31.3969  -19.8077   21.8772 C   0  0  0  0  0  0  0  0  0  0  0  0
  -30.0253  -19.6509   21.6777 C   0  0  0  0  0  0  0  0  0  0  0  0
  -30.3844  -17.3563   21.0121 C   0  0  0  0  0  0  0  0  0  0  0  0
  -22.3257   -8.9921   23.6331 C   0  0  0  0  0  0  0  0  0  0  0  0
  -27.0383  -24.5471   20.4303 C   0  0  0  0  0  0  0  0  0  0  0  0
  -21.7609   -6.7356   23.9667 C   0  0  0  0  0  0  0  0  0  0  0  0
  -22.0644   -4.0596   23.2390 C   0  0  0  0  0  0  0  0  0  0  0  0
  -32.2623  -18.7388   21.6441 C   0  0  0  0  0  0  0  0  0  0  0  0
  -20.6568   -6.0009   23.5345 C   0  0  0  0  0  0  0  0  0  0  0  0
  -24.5443  -11.8771   21.4761 C   0  0  0  0  0  0  0  0  0  0  0  0
  -25.1733  -13.6641   20.3598 C   0  0  0  0  0  0  0  0  0  0  0  0
  -27.5644  -22.0647   22.8013 C   0  0  0  0  0  0  0  0  0  0  0  0
  -28.4571  -21.0906   23.0680 C   0  0  0  0  0  0  0  0  0  0  0  0
  -26.0160  -21.9921   24.6446 C   0  0  0  0  0  0  0  0  0  0  0  0
  -26.6568  -22.7121   23.7013 C   0  0  0  0  0  0  0  0  0  0  0  0
  -22.7710  -13.6908   21.0504 C   0  0  0  0  0  0  0  0  0  0  0  0
  -25.2402  -29.2192   18.3319 C   0  0  0  0  0  0  0  0  0  0  0  0
  -22.9848  -29.2785   20.6625 C   0  0  0  0  0  0  0  0  0  0  0  0
  -21.6298  -27.7954   23.4214 C   0  0  0  0  0  0  0  0  0  0  0  0
  -30.5906  -14.9494   20.2976 C   0  0  0  0  0  0  0  0  0  0  0  0
  -25.0877  -33.0411   14.9515 C   0  0  0  0  0  0  0  0  0  0  0  0
  -24.2585  -26.9049   18.1412 C   0  0  0  0  0  0  0  0  0  0  0  0
  -24.8595  -27.6144   20.9484 C   0  0  0  0  0  0  0  0  0  0  0  0
  -24.7693  -32.8833   16.4361 C   0  0  0  0  0  0  0  0  0  0  0  0
  -29.6891  -11.6728   19.2355 C   0  0  0  0  0  0  0  0  0  0  0  0
  -25.9137  -32.1762   17.1553 C   0  0  0  0  0  0  0  0  0  0  0  0
  -28.2319  -11.5349   19.6823 C   0  0  0  0  0  0  0  0  0  0  0  0
  -30.5187  -12.4661   20.2435 C   0  0  0  0  0  0  0  0  0  0  0  0
  -28.7332  -21.5584   20.7696 C   0  0  0  0  0  0  0  0  0  0  0  0
  -28.5097  -13.6399   21.0530 C   0  0  0  0  0  0  0  0  0  0  0  0
  -26.1284  -30.7647   16.5960 C   0  0  1  0  0  0  0  0  0  0  0  0
  -27.5923  -22.4262   21.3373 C   0  0  2  0  0  0  0  0  0  1  0  0
  -24.0793  -28.3259   18.6664 C   0  0  1  0  0  0  0  0  0  0  0  0
  -27.6197  -12.9039   20.0383 C   0  0  2  0  0  0  0  0  0  0  0  0
  -31.9634  -21.1107   22.3401 C   0  0  0  0  0  0  0  0  0  0  0  0
  -28.7746  -20.5440   24.4231 C   0  0  0  0  0  0  0  0  0  0  0  0
  -19.8185  -28.0986   25.1316 C   0  0  0  0  0  0  0  0  0  0  0  0
  -24.6640  -31.4087   22.0598 C   0  0  0  0  0  0  0  0  0  0  0  0
  -23.3459  -30.9806   24.1449 C   0  0  0  0  0  0  0  0  0  0  0  0
  -22.1993  -31.8313   22.0993 C   0  0  0  0  0  0  0  0  0  0  0  0
  -20.2966  -25.2758   22.6257 C   0  0  0  0  0  0  0  0  0  0  0  0
  -23.0028  -29.4350   22.1639 C   0  0  1  0  0  0  0  0  0  0  0  0
  -20.1917  -27.4818   23.7925 C   0  0  2  0  0  0  0  0  0  0  0  0
  -23.3169  -30.8927   22.6041 C   0  0  0  0  0  0  0  0  0  0  0  0
  -25.8355  -11.6663   21.2072 N   0  0  0  0  0  0  0  0  0  0  0  0
  -26.1897  -12.7702   20.5275 N   0  0  0  0  0  0  0  0  0  0  0  0
  -29.1379  -20.7179   21.9075 N   0  0  0  0  0  0  0  0  0  0  0  0
  -23.9086  -28.3740   20.1200 N   0  0  0  0  0  0  0  0  0  0  0  0
  -29.8800  -13.7527   20.5291 N   0  0  0  0  0  0  0  0  0  0  0  0
  -25.3567  -14.8272   19.6996 N   0  0  0  0  0  0  0  0  0  0  0  0
  -21.7610  -12.9828   21.7159 N   0  0  0  0  0  0  0  0  0  0  0  0
  -29.8700  -16.1107   20.5746 N   0  0  0  0  0  0  0  0  0  0  0  0
  -25.1251  -29.8584   17.1122 N   0  0  0  0  0  0  0  0  0  0  0  0
  -21.7206  -28.9295   22.6424 N   0  0  0  0  0  0  0  0  0  0  0  0
  -19.9892  -26.0080   23.8812 N   0  3  0  0  0  0  0  0  0  0  0  0
  -22.5027  -14.8006   20.5310 O   0  0  0  0  0  0  0  0  0  0  0  0
  -26.1709  -29.3220   19.1225 O   0  0  0  0  0  0  0  0  0  0  0  0
  -22.1760  -29.9293   19.9963 O   0  0  0  0  0  0  0  0  0  0  0  0
  -22.5783  -27.1056   23.7892 O   0  0  0  0  0  0  0  0  0  0  0  0
  -31.7434  -14.9450   19.8582 O   0  0  0  0  0  0  0  0  0  0  0  0
  -21.6120   -8.0642   24.3275 O   0  0  0  0  0  0  0  0  0  0  0  0
  -27.9134  -23.7974   21.1541 O   0  0  0  0  0  0  0  0  0  1  0  0
  -22.2106   -2.7752   22.8881 F   0  0  0  0  0  0  0  0  0  0  0  0
  -33.5821  -18.8793   21.8323 F   0  0  0  0  0  0  0  0  0  0  0  0
  -19.4481   -6.5753   23.4657 F   0  0  0  0  0  0  0  0  0  0  0  0
  1  2  1  0  0  0  0
  1  5  2  0  0  0  0
  2  6  2  0  0  0  0
  3  8  2  0  0  0  0
  3 17  1  0  0  0  0
  4  9  1  0  0  0  0
  4 17  2  0  0  0  0
  5 19  1  0  0  0  0
  6 21  1  0  0  0  0
  7 10  2  0  0  0  0
  7 20  1  0  0  0  0
  8 26  1  0  0  0  0
  9 26  2  0  0  0  0
 10 27  1  0  0  0  0
 11 12  2  0  0  0  0
 11 28  1  0  0  0  0
 12 29  1  0  0  0  0
 13 22  1  0  0  0  0
 13 27  2  0  0  0  0
 14 24  1  0  0  0  0
 14 25  2  0  0  0  0
 15 25  1  0  0  0  0
 15 30  2  0  0  0  0
 16 29  2  0  0  0  0
 16 31  1  0  0  0  0
 17 32  1  0  0  0  0
 18 32  1  0  0  0  0
 18 33  2  0  0  0  0
 18 38  1  0  0  0  0
 19 21  2  0  0  0  0
 19 43  1  0  0  0  0
 20 22  2  0  0  0  0
 20 44  1  0  0  0  0
 21 53  1  0  0  0  0
 22 45  1  0  0  0  0
 23 24  2  0  0  0  0
 23 30  1  0  0  0  0
 23 57  1  0  0  0  0
 24 69  1  0  0  0  0
 25 74  1  0  0  0  0
 26 83  1  0  0  0  0
 27 84  1  0  0  0  0
 28 31  2  0  0  0  0
 28 83  1  0  0  0  0
 29 85  1  0  0  0  0
 30 86  1  0  0  0  0
 31 87  1  0  0  0  0
 32 67  2  0  0  0  0
 33 68  1  0  0  0  0
 33 72  1  0  0  0  0
 34 35  2  0  0  0  0
 34 37  1  0  0  0  0
 34 54  1  0  0  0  0
 35 58  1  0  0  0  0
 35 69  1  0  0  0  0
 36 37  2  0  0  0  0
 38 73  1  0  0  0  0
 38 78  2  0  0  0  0
 39 55  1  0  0  0  0
 39 75  1  0  0  0  0
 39 79  2  0  0  0  0
 40 64  1  0  0  0  0
 40 70  1  0  0  0  0
 40 80  2  0  0  0  0
 41 65  1  0  0  0  0
 41 76  1  0  0  0  0
 41 81  2  0  0  0  0
 42 71  1  0  0  0  0
 42 74  1  0  0  0  0
 42 82  2  0  0  0  0
 43 46  1  0  0  0  0
 44 55  1  0  0  0  0
 45 70  1  0  0  0  0
 46 48  1  0  0  0  0
 47 49  1  0  0  0  0
 47 50  1  0  0  0  0
 48 53  1  0  0  0  0
 49 56  1  0  0  0  0
 50 71  1  0  0  0  0
 51 54  1  0  0  0  0
 51 69  1  0  0  0  0
 52 56  1  0  0  0  0
 52 71  1  0  0  0  0
 53 75  1  0  0  0  0
 54 84  1  0  0  0  0
 55 70  1  0  0  0  0
 56 68  1  0  0  0  0
 59 65  1  0  0  0  0
 60 66  1  0  0  0  0
 61 66  1  0  0  0  0
 62 66  1  0  0  0  0
 63 77  1  0  0  0  0
 64 66  1  0  0  0  0
 64 76  1  0  0  0  0
 65 77  1  0  0  0  0
 67 68  1  0  0  0  0
M  CHG  1  77   1
M  ISO  4  42 100  54 101  74 100  84 101
M  END
> <Batch ID>
0065

> <Smiles>
C=CC1=C(C)N(c2cc([100NH:0][100C:0](=O)N3CCCC(n4nc(-c5ccc(Oc6ccc(F)cc6F)cc5)c(C(N)=O)c4N)C3)cc(F)c2C)C[101CH:1]1[101O:1]c1ccc2c(c1)CN(C(=O)C(NC(=O)C(C)NC)C(C)(C)C)C(C(=O)NC1CCCc3ccccc31)C2

> <Shape>
0.276

> <Color>
0.160

> <Negative vol penalty>
0.000

$$$$

  -OEChem-04042323183D

 85 93  0     1  0  0  0  0  0999 V2000
  -26.6482  -21.8925   16.2886 C   0  0  0  0  0  0  0  0  0  0  0  0
  -27.1217  -20.7087   16.8430 C   0  0  0  0  0  0  0  0  0  0  0  0
  -22.9389  -29.8227   22.2164 C   0  0  0  0  0  0  0  0  0  0  0  0
  -23.8416  -28.5996   24.0942 C   0  0  0  0  0  0  0  0  0  0  0  0
  -25.4199  -22.4070   16.6979 C   0  0  0  0  0  0  0  0  0  0  0  0
  -26.3616  -20.0328   17.7981 C   0  0  0  0  0  0  0  0  0  0  0  0
  -27.9842  -15.6137   19.2271 C   0  0  0  0  0  0  0  0  0  0  0  0
  -21.7050  -29.9032   22.8619 C   0  0  0  0  0  0  0  0  0  0  0  0
  -22.6078  -28.6801   24.7398 C   0  0  0  0  0  0  0  0  0  0  0  0
  -29.1086  -15.4486   20.0348 C   0  0  0  0  0  0  0  0  0  0  0  0
  -18.2154  -30.1177   23.8621 C   0  0  0  0  0  0  0  0  0  0  0  0
  -17.0707  -29.8472   23.1124 C   0  0  0  0  0  0  0  0  0  0  0  0
  -27.6776  -15.0168   21.9282 C   0  0  0  0  0  0  0  0  0  0  0  0
  -29.1661  -22.5363   23.0702 C   0  0  0  0  0  0  0  0  0  0  0  0
  -29.0605  -21.3291   20.9802 C   0  0  0  0  0  0  0  0  0  0  0  0
  -17.8952  -27.6225   22.6562 C   0  0  0  0  0  0  0  0  0  0  0  0
  -24.0072  -29.1709   22.8325 C   0  0  0  0  0  0  0  0  0  0  0  0
  -29.4810  -20.1411   23.0414 C   0  0  0  0  0  0  0  0  0  0  0  0
  -26.3474  -30.0030   22.2505 C   0  0  0  0  0  0  0  0  0  0  0  0
  -24.6507  -21.7430   17.6677 C   0  0  0  0  0  0  0  0  0  0  0  0
  -26.6958  -15.4921   19.7671 C   0  0  0  0  0  0  0  0  0  0  0  0
  -25.1083  -20.5234   18.2068 C   0  0  0  0  0  0  0  0  0  0  0  0
  -26.5385  -15.1782   21.1247 C   0  0  0  0  0  0  0  0  0  0  0  0
  -28.9908  -22.5299   21.6865 C   0  0  0  0  0  0  0  0  0  0  0  0
  -21.5395  -29.3319   24.1236 C   0  0  0  0  0  0  0  0  0  0  0  0
  -28.9553  -15.1530   21.3862 C   0  0  0  0  0  0  0  0  0  0  0  0
  -19.2001  -29.1407   24.0087 C   0  0  0  0  0  0  0  0  0  0  0  0
  -16.9106  -28.5996   22.5095 C   0  0  0  0  0  0  0  0  0  0  0  0
  -29.4113  -21.3419   23.7477 C   0  0  0  0  0  0  0  0  0  0  0  0
  -29.3057  -20.1347   21.6576 C   0  0  0  0  0  0  0  0  0  0  0  0
  -19.0400  -27.8931   23.4058 C   0  0  0  0  0  0  0  0  0  0  0  0
  -25.2818  -29.0869   22.1659 C   0  0  0  0  0  0  0  0  0  0  0  0
  -27.3207  -29.4735   21.4389 C   0  0  0  0  0  0  0  0  0  0  0  0
  -29.7400  -18.8767   23.7589 C   0  0  0  0  0  0  0  0  0  0  0  0
  -26.4484  -31.2233   22.9963 C   0  0  0  0  0  0  0  0  0  0  0  0
  -24.2066  -17.4420   20.0921 C   0  0  0  0  0  0  0  0  0  0  0  0
  -22.7375  -14.7551   21.1622 C   0  0  0  0  0  0  0  0  0  0  0  0
  -23.0275  -11.6560   22.5615 C   0  0  0  0  0  0  0  0  0  0  0  0
  -28.5460  -23.9125   19.6281 C   0  0  0  0  0  0  0  0  0  0  0  0
  -23.3248  -22.3403   18.0684 C   0  0  0  0  0  0  0  0  0  0  0  0
  -25.4934  -15.6467   18.8768 C   0  0  0  0  0  0  0  0  0  0  0  0
  -25.1773  -15.0171   21.7488 C   0  0  0  0  0  0  0  0  0  0  0  0
  -22.8044  -21.7963   19.3948 C   0  0  0  0  0  0  0  0  0  0  0  0
  -27.8717  -26.7272   17.5544 C   0  0  0  0  0  0  0  0  0  0  0  0
  -22.8643  -20.2761   19.3926 C   0  0  0  0  0  0  0  0  0  0  0  0
  -27.2336  -27.7374   18.5107 C   0  0  0  0  0  0  0  0  0  0  0  0
  -27.4499  -25.2951   17.8782 C   0  0  0  0  0  0  0  0  0  0  0  0
  -27.0228  -25.8961   20.2289 C   0  0  0  0  0  0  0  0  0  0  0  0
  -24.3129  -19.7869   19.2695 C   0  0  1  0  0  0  0  0  0  0  0  0
  -24.2249  -16.0081   19.6433 C   0  0  1  0  0  0  0  0  0  0  0  0
  -27.4693  -27.3465   19.9828 C   0  0  2  0  0  0  0  0  0  0  0  0
  -21.6479   -9.7143   23.3514 C   0  0  0  0  0  0  0  0  0  0  0  0
  -21.9685  -16.3226   23.6645 C   0  0  0  0  0  0  0  0  0  0  0  0
  -21.4561  -14.1442   24.7870 C   0  0  0  0  0  0  0  0  0  0  0  0
  -20.1660  -14.8388   22.7681 C   0  0  0  0  0  0  0  0  0  0  0  0
  -24.2930   -9.8169   20.6184 C   0  0  0  0  0  0  0  0  0  0  0  0
  -31.9949  -16.0582   23.0952 C   0  0  0  0  0  0  0  0  0  0  0  0
  -31.1912  -16.9033   24.0694 C   0  0  0  0  0  0  0  0  0  0  0  0
  -31.2202  -15.7307   21.8250 C   0  0  0  0  0  0  0  0  0  1  0  0
  -22.5679  -14.0933   22.5083 C   0  0  1  0  0  0  0  0  0  0  0  0
  -22.4138  -10.3195   22.1852 C   0  0  2  0  0  0  0  0  0  0  0  0
  -21.5654  -14.8546   23.4210 C   0  0  0  0  0  0  0  0  0  0  0  0
  -25.5524  -28.0539   21.3636 N   0  0  0  0  0  0  0  0  0  0  0  0
  -26.7991  -28.3177   20.9366 N   0  0  0  0  0  0  0  0  0  0  0  0
  -24.0324  -15.1841   20.8383 N   0  0  0  0  0  0  0  0  0  0  0  0
  -27.7066  -24.9945   19.2884 N   0  0  0  0  0  0  0  0  0  0  0  0
  -28.5632  -29.8885   21.1128 N   0  0  0  0  0  0  0  0  0  0  0  0
  -28.8742  -18.4997   24.6998 N   0  0  0  0  0  0  0  0  0  0  0  0
  -25.3558  -31.6204   23.7792 N   0  0  0  0  0  0  0  0  0  0  0  0
  -28.7427  -23.7434   20.9982 N   0  0  0  0  0  0  0  0  0  0  0  0
  -24.3117  -18.3557   19.0609 N   0  0  0  0  0  0  0  0  0  0  0  0
  -22.1971  -12.7083   22.2385 N   0  0  0  0  0  0  0  0  0  0  0  0
  -30.8307  -18.1707   23.4334 N   0  3  0  0  0  0  0  0  0  0  0  0
  -23.4763   -9.3596   21.7720 N   0  3  0  0  0  0  0  0  0  0  0  0
  -27.4709  -31.9489   22.9563 O   0  0  0  0  0  0  0  0  0  0  0  0
  -24.1033  -17.7001   21.2856 O   0  0  0  0  0  0  0  0  0  0  0  0
  -21.7585  -14.8803   20.4222 O   0  0  0  0  0  0  0  0  0  0  0  0
  -24.1314  -11.7562   23.0924 O   0  0  0  0  0  0  0  0  0  0  0  0
  -29.0747  -23.2058   18.7660 O   0  0  0  0  0  0  0  0  0  0  0  0
  -20.3357  -29.4105   24.7540 O   0  0  0  0  0  0  0  0  0  0  0  0
  -30.0511  -14.9920   22.1769 O   0  0  0  0  0  0  0  0  0  1  0  0
  -15.8105  -28.3394   21.7909 F   0  0  0  0  0  0  0  0  0  0  0  0
  -29.5790  -21.3580   25.0776 F   0  0  0  0  0  0  0  0  0  0  0  0
  -29.3718  -18.9862   20.9697 F   0  0  0  0  0  0  0  0  0  0  0  0
  -19.9820  -26.9500   23.5442 F   0  0  0  0  0  0  0  0  0  0  0  0
  1  2  1  0  0  0  0
  1  5  2  0  0  0  0
  2  6  2  0  0  0  0
  3  8  2  0  0  0  0
  3 17  1  0  0  0  0
  4  9  1  0  0  0  0
  4 17  2  0  0  0  0
  5 20  1  0  0  0  0
  6 22  1  0  0  0  0
  7 10  2  0  0  0  0
  7 21  1  0  0  0  0
  8 25  1  0  0  0  0
  9 25  2  0  0  0  0
 10 26  1  0  0  0  0
 11 12  2  0  0  0  0
 11 27  1  0  0  0  0
 12 28  1  0  0  0  0
 13 23  1  0  0  0  0
 13 26  2  0  0  0  0
 14 24  1  0  0  0  0
 14 29  2  0  0  0  0
 15 24  2  0  0  0  0
 15 30  1  0  0  0  0
 16 28  2  0  0  0  0
 16 31  1  0  0  0  0
 17 32  1  0  0  0  0
 18 29  1  0  0  0  0
 18 30  2  0  0  0  0
 18 34  1  0  0  0  0
 19 32  1  0  0  0  0
 19 33  2  0  0  0  0
 19 35  1  0  0  0  0
 20 22  2  0  0  0  0
 20 40  1  0  0  0  0
 21 23  2  0  0  0  0
 21 41  1  0  0  0  0
 22 49  1  0  0  0  0
 23 42  1  0  0  0  0
 24 70  1  0  0  0  0
 25 80  1  0  0  0  0
 26 81  1  0  0  0  0
 27 31  2  0  0  0  0
 27 80  1  0  0  0  0
 28 82  1  0  0  0  0
 29 83  1  0  0  0  0
 30 84  1  0  0  0  0
 31 85  1  0  0  0  0
 32 63  2  0  0  0  0
 33 64  1  0  0  0  0
 33 67  1  0  0  0  0
 34 68  1  0  0  0  0
 34 73  2  0  0  0  0
 35 69  1  0  0  0  0
 35 75  2  0  0  0  0
 36 50  1  0  0  0  0
 36 71  1  0  0  0  0
 36 76  2  0  0  0  0
 37 60  1  0  0  0  0
 37 65  1  0  0  0  0
 37 77  2  0  0  0  0
 38 61  1  0  0  0  0
 38 72  1  0  0  0  0
 38 78  2  0  0  0  0
 39 66  1  0  0  0  0
 39 70  1  0  0  0  0
 39 79  2  0  0  0  0
 40 43  1  0  0  0  0
 41 50  1  0  0  0  0
 42 65  1  0  0  0  0
 43 45  1  0  0  0  0
 44 46  1  0  0  0  0
 44 47  1  0  0  0  0
 45 49  1  0  0  0  0
 46 51  1  0  0  0  0
 47 66  1  0  0  0  0
 48 51  1  0  0  0  0
 48 66  1  0  0  0  0
 49 71  1  0  0  0  0
 50 65  1  0  0  0  0
 51 64  1  0  0  0  0
 52 61  1  0  0  0  0
 53 62  1  0  0  0  0
 54 62  1  0  0  0  0
 55 62  1  0  0  0  0
 56 74  1  0  0  0  0
 57 58  1  0  0  0  0
 57 59  1  0  0  0  0
 58 73  1  0  0  0  0
 59 81  1  0  0  0  0
 60 62  1  0  0  0  0
 60 72  1  0  0  0  0
 61 74  1  0  0  0  0
 63 64  1  0  0  0  0
M  CHG  2  73   1  74   1
M  ISO  4  39 100  59 101  70 100  81 101
M  END
> <Batch ID>
0065

> <Smiles>
CNC(C)C(=O)NC(C(=O)N1Cc2cc([101O:1][101CH2:1]CCNC(=N)c3c(F)cc([100NH:0][100C:0](=O)N4CCCC(n5nc(-c6ccc(Oc7ccc(F)cc7F)cc6)c(C(N)=O)c5N)C4)cc3F)ccc2CC1C(=O)NC1CCCc2ccccc21)C(C)(C)C

> <Shape>
0.241

> <Color>
0.060

> <Negative vol penalty>
0.000

$$$$

  -OEChem-04042323183D

 85 93  0     1  0  0  0  0  0999 V2000
  -30.3442  -35.2063   18.7621 C   0  0  0  0  0  0  0  0  0  0  0  0
  -30.2363  -33.8618   19.1027 C   0  0  0  0  0  0  0  0  0  0  0  0
  -24.9590   -8.4294   21.4411 C   0  0  0  0  0  0  0  0  0  0  0  0
  -23.6003   -9.5698   19.8009 C   0  0  0  0  0  0  0  0  0  0  0  0
  -29.5619  -36.1555   19.4185 C   0  0  0  0  0  0  0  0  0  0  0  0
  -29.3467  -33.4658   20.1008 C   0  0  0  0  0  0  0  0  0  0  0  0
  -26.6686  -29.3686   18.8023 C   0  0  0  0  0  0  0  0  0  0  0  0
  -23.9022   -7.5606   21.7126 C   0  0  0  0  0  0  0  0  0  0  0  0
  -22.5434   -8.7009   20.0723 C   0  0  0  0  0  0  0  0  0  0  0  0
  -27.3094  -28.1338   18.8937 C   0  0  0  0  0  0  0  0  0  0  0  0
  -21.0221   -7.6183   23.4808 C   0  0  0  0  0  0  0  0  0  0  0  0
  -20.7331   -7.3485   24.8184 C   0  0  0  0  0  0  0  0  0  0  0  0
  -26.2121  -27.7271   21.0031 C   0  0  0  0  0  0  0  0  0  0  0  0
  -29.0701  -19.1015   15.3966 C   0  0  0  0  0  0  0  0  0  0  0  0
  -28.6081  -18.7232   17.7377 C   0  0  0  0  0  0  0  0  0  0  0  0
  -21.1511   -5.0000   24.4350 C   0  0  0  0  0  0  0  0  0  0  0  0
  -24.8081   -9.4341   20.4853 C   0  0  0  0  0  0  0  0  0  0  0  0
  -26.9150  -10.1624   19.2450 C   0  0  0  0  0  0  0  0  0  0  0  0
  -28.6552  -35.7698   20.4185 C   0  0  0  0  0  0  0  0  0  0  0  0
  -25.8017  -29.7974   19.8177 C   0  0  0  0  0  0  0  0  0  0  0  0
  -28.5524  -34.4108   20.7721 C   0  0  0  0  0  0  0  0  0  0  0  0
  -25.5595  -28.9667   20.9211 C   0  0  0  0  0  0  0  0  0  0  0  0
  -29.1937  -17.7263   15.1988 C   0  0  0  0  0  0  0  0  0  0  0  0
  -28.7774  -19.6000   16.6661 C   0  0  0  0  0  0  0  0  0  0  0  0
  -28.7317  -17.3480   17.5399 C   0  0  0  0  0  0  0  0  0  0  0  0
  -22.6944   -7.6963   21.0282 C   0  0  0  0  0  0  0  0  0  0  0  0
  -27.0835  -27.3141   19.9956 C   0  0  0  0  0  0  0  0  0  0  0  0
  -21.3756   -6.5789   22.6202 C   0  0  0  0  0  0  0  0  0  0  0  0
  -20.7977   -6.0394   25.2956 C   0  0  0  0  0  0  0  0  0  0  0  0
  -21.4401   -5.2698   23.0974 C   0  0  0  0  0  0  0  0  0  0  0  0
  -29.0245  -16.8495   16.2704 C   0  0  0  0  0  0  0  0  0  0  0  0
  -25.8993  -10.3323   20.2049 C   0  0  0  0  0  0  0  0  0  0  0  0
  -27.6992  -11.2827   19.3730 C   0  0  0  0  0  0  0  0  0  0  0  0
  -27.1302   -9.0880   18.3204 C   0  0  0  0  0  0  0  0  0  0  0  0
  -25.7619  -32.2416   21.8494 C   0  0  0  0  0  0  0  0  0  0  0  0
  -22.8381  -31.0590   22.6076 C   0  0  0  0  0  0  0  0  0  0  0  0
  -28.3656  -21.6593   18.0561 C   0  0  0  0  0  0  0  0  0  0  0  0
  -20.7294  -28.3768   22.6873 C   0  0  0  0  0  0  0  0  0  0  0  0
  -28.2661  -16.7914   19.9523 C   0  0  0  0  0  0  0  0  0  0  0  0
  -27.8650  -36.8374   21.1329 C   0  0  0  0  0  0  0  0  0  0  0  0
  -25.0974  -31.1205   19.6913 C   0  0  0  0  0  0  0  0  0  0  0  0
  -24.6223  -29.3719   22.0283 C   0  0  0  0  0  0  0  0  0  0  0  0
  -26.6755  -36.2916   21.9186 C   0  0  0  0  0  0  0  0  0  0  0  0
  -27.7283  -14.8958   22.9179 C   0  0  0  0  0  0  0  0  0  0  0  0
  -27.0907  -35.0745   22.7390 C   0  0  0  0  0  0  0  0  0  0  0  0
  -27.2880  -13.5256   22.3975 C   0  0  0  0  0  0  0  0  0  0  0  0
  -27.1820  -16.0323   22.0555 C   0  0  0  0  0  0  0  0  0  0  0  0
  -27.0252  -14.5433   20.0991 C   0  0  0  0  0  0  0  0  0  0  0  0
  -27.5810  -33.9392   21.8323 C   0  0  1  0  0  0  0  0  0  0  0  0
  -24.6328  -31.6805   21.0321 C   0  0  1  0  0  0  0  0  0  0  0  0
  -27.6045  -13.3641   20.8977 C   0  0  2  0  0  0  0  0  0  0  0  0
  -29.5060  -17.1969   13.8396 C   0  0  0  0  0  0  0  0  0  0  0  0
  -18.4172  -27.7094   23.3983 C   0  0  0  0  0  0  0  0  0  0  0  0
  -23.7477  -31.0193   25.5199 C   0  0  0  0  0  0  0  0  0  0  0  0
  -21.8238  -29.4996   26.0273 C   0  0  0  0  0  0  0  0  0  0  0  0
  -21.3987  -31.8037   25.1712 C   0  0  0  0  0  0  0  0  0  0  0  0
  -19.9643  -27.6481   19.9228 C   0  0  0  0  0  0  0  0  0  0  0  0
  -28.3216  -23.1642   17.8301 C   0  0  0  0  0  0  0  0  0  0  0  0
  -28.0110  -23.9408   19.1049 C   0  0  0  0  0  0  0  0  0  0  0  0
  -28.0194  -25.4434   18.8640 C   0  0  0  0  0  0  0  0  0  1  0  0
  -22.3186  -30.0482   23.6014 C   0  0  1  0  0  0  0  0  0  0  0  0
  -19.2822  -28.2201   22.2566 C   0  0  2  0  0  0  0  0  0  0  0  0
  -22.3414  -30.5856   25.0602 C   0  0  0  0  0  0  0  0  0  0  0  0
  -26.0244  -11.4708   20.8920 N   0  0  0  0  0  0  0  0  0  0  0  0
  -27.1281  -12.0264   20.3634 N   0  0  0  0  0  0  0  0  0  0  0  0
  -23.9625  -30.6774   21.8620 N   0  0  0  0  0  0  0  0  0  0  0  0
  -27.5238  -15.8139   20.6483 N   0  0  0  0  0  0  0  0  0  0  0  0
  -28.8148  -11.6943   18.7339 N   0  0  0  0  0  0  0  0  0  0  0  0
  -26.2290   -8.0146   18.3217 N   0  0  0  0  0  0  0  0  0  0  0  0
  -28.6518  -20.9952   16.8666 N   0  0  0  0  0  0  0  0  0  0  0  0
  -28.5596  -16.4594   18.6301 N   0  0  0  0  0  0  0  0  0  0  0  0
  -26.4585  -33.2579   21.2237 N   0  0  0  0  0  0  0  0  0  0  0  0
  -20.9950  -29.6554   23.1299 N   0  0  0  0  0  0  0  0  0  0  0  0
  -19.1805  -27.2580   21.1230 N   0  3  0  0  0  0  0  0  0  0  0  0
  -28.1025   -9.0722   17.5280 O   0  0  0  0  0  0  0  0  0  0  0  0
  -25.9837  -31.7873   22.9657 O   0  0  0  0  0  0  0  0  0  0  0  0
  -22.2631  -32.1441   22.4920 O   0  0  0  0  0  0  0  0  0  0  0  0
  -28.1670  -21.1604   19.1589 O   0  0  0  0  0  0  0  0  0  0  0  0
  -21.5420  -27.4560   22.6397 O   0  0  0  0  0  0  0  0  0  0  0  0
  -28.6391  -17.8332   20.4977 O   0  0  0  0  0  0  0  0  0  0  0  0
  -21.6629   -6.8485   21.2926 O   0  0  0  0  0  0  0  0  0  0  0  0
  -27.7082  -26.1086   20.0875 O   0  0  0  0  0  0  0  0  0  1  0  0
  -20.5216   -5.7807   26.5805 F   0  0  0  0  0  0  0  0  0  0  0  0
  -21.7802   -4.2673   22.2757 F   0  0  0  0  0  0  0  0  0  0  0  0
  -29.1443  -15.5273   16.0778 F   0  0  0  0  0  0  0  0  0  0  0  0
  1  2  1  0  0  0  0
  1  5  2  0  0  0  0
  2  6  2  0  0  0  0
  3  8  2  0  0  0  0
  3 17  1  0  0  0  0
  4  9  1  0  0  0  0
  4 17  2  0  0  0  0
  5 19  1  0  0  0  0
  6 21  1  0  0  0  0
  7 10  2  0  0  0  0
  7 20  1  0  0  0  0
  8 26  1  0  0  0  0
  9 26  2  0  0  0  0
 10 27  1  0  0  0  0
 11 12  2  0  0  0  0
 11 28  1  0  0  0  0
 12 29  1  0  0  0  0
 13 22  1  0  0  0  0
 13 27  2  0  0  0  0
 14 23  2  0  0  0  0
 14 24  1  0  0  0  0
 15 24  2  0  0  0  0
 15 25  1  0  0  0  0
 16 29  2  0  0  0  0
 16 30  1  0  0  0  0
 17 32  1  0  0  0  0
 18 32  1  0  0  0  0
 18 33  2  0  0  0  0
 18 34  1  0  0  0  0
 19 21  2  0  0  0  0
 19 40  1  0  0  0  0
 20 22  2  0  0  0  0
 20 41  1  0  0  0  0
 21 49  1  0  0  0  0
 22 42  1  0  0  0  0
 23 31  1  0  0  0  0
 23 52  1  0  0  0  0
 24 70  1  0  0  0  0
 25 31  2  0  0  0  0
 25 71  1  0  0  0  0
 26 81  1  0  0  0  0
 27 82  1  0  0  0  0
 28 30  2  0  0  0  0
 28 81  1  0  0  0  0
 29 83  1  0  0  0  0
 30 84  1  0  0  0  0
 31 85  1  0  0  0  0
 32 64  2  0  0  0  0
 33 65  1  0  0  0  0
 33 68  1  0  0  0  0
 34 69  1  0  0  0  0
 34 75  2  0  0  0  0
 35 50  1  0  0  0  0
 35 72  1  0  0  0  0
 35 76  2  0  0  0  0
 36 61  1  0  0  0  0
 36 66  1  0  0  0  0
 36 77  2  0  0  0  0
 37 58  1  0  0  0  0
 37 70  1  0  0  0  0
 37 78  2  0  0  0  0
 38 62  1  0  0  0  0
 38 73  1  0  0  0  0
 38 79  2  0  0  0  0
 39 67  1  0  0  0  0
 39 71  1  0  0  0  0
 39 80  2  0  0  0  0
 40 43  1  0  0  0  0
 41 50  1  0  0  0  0
 42 66  1  0  0  0  0
 43 45  1  0  0  0  0
 44 46  1  0  0  0  0
 44 47  1  0  0  0  0
 45 49  1  0  0  0  0
 46 51  1  0  0  0  0
 47 67  1  0  0  0  0
 48 51  1  0  0  0  0
 48 67  1  0  0  0  0
 49 72  1  0  0  0  0
 50 66  1  0  0  0  0
 51 65  1  0  0  0  0
 53 62  1  0  0  0  0
 54 63  1  0  0  0  0
 55 63  1  0  0  0  0
 56 63  1  0  0  0  0
 57 74  1  0  0  0  0
 58 59  1  0  0  0  0
 59 60  1  0  0  0  0
 60 82  1  0  0  0  0
 61 63  1  0  0  0  0
 61 73  1  0  0  0  0
 62 74  1  0  0  0  0
 64 65  1  0  0  0  0
M  CHG  1  74   1
M  ISO  4  39 100  60 101  71 100  82 101
M  END
> <Batch ID>
0065

> <Smiles>
CNC(C)C(=O)NC(C(=O)N1Cc2cc([101O:1][101CH2:1]CCC(=O)Nc3cc(C)c(F)c([100NH:0][100C:0](=O)N4CCCC(n5nc(-c6ccc(Oc7ccc(F)cc7F)cc6)c(C(N)=O)c5N)C4)c3)ccc2CC1C(=O)NC1CCCc2ccccc21)C(C)(C)C

> <Shape>
0.262

> <Color>
0.100

> <Negative vol penalty>
0.000

$$$$

  -OEChem-04042323183D

 86 95  0     1  0  0  0  0  0999 V2000
  -26.0670  -35.1459   27.1349 C   0  0  0  0  0  0  0  0  0  0  0  0
  -26.4405  -33.8341   26.8608 C   0  0  0  0  0  0  0  0  0  0  0  0
  -23.4925   -9.7543   21.7076 C   0  0  0  0  0  0  0  0  0  0  0  0
  -24.1591  -10.9343   23.7076 C   0  0  0  0  0  0  0  0  0  0  0  0
  -24.8578  -35.6412   26.6488 C   0  0  0  0  0  0  0  0  0  0  0  0
  -25.6044  -33.0165   26.1013 C   0  0  0  0  0  0  0  0  0  0  0  0
  -27.3134  -28.6771   22.1320 C   0  0  0  0  0  0  0  0  0  0  0  0
  -31.5033  -17.9794   20.6140 C   0  0  0  0  0  0  0  0  0  0  0  0
  -22.8831   -8.7731   22.4895 C   0  0  0  0  0  0  0  0  0  0  0  0
  -23.5497   -9.9531   24.4896 C   0  0  0  0  0  0  0  0  0  0  0  0
  -27.4197  -27.2916   22.2453 C   0  0  0  0  0  0  0  0  0  0  0  0
  -19.9989   -8.3974   24.2138 C   0  0  0  0  0  0  0  0  0  0  0  0
  -31.9462  -19.2503   20.9804 C   0  0  0  0  0  0  0  0  0  0  0  0
  -18.7262   -7.9673   23.8386 C   0  0  0  0  0  0  0  0  0  0  0  0
  -25.2209  -27.0504   21.2827 C   0  0  0  0  0  0  0  0  0  0  0  0
  -29.2127  -18.7287   20.7842 C   0  0  0  0  0  0  0  0  0  0  0  0
  -19.5639   -5.7163   23.5771 C   0  0  0  0  0  0  0  0  0  0  0  0
  -24.1305  -10.8349   22.3166 C   0  0  0  0  0  0  0  0  0  0  0  0
  -24.1719  -13.0261   21.0111 C   0  0  0  0  0  0  0  0  0  0  0  0
  -24.0109  -34.8323   25.8748 C   0  0  0  0  0  0  0  0  0  0  0  0
  -26.1537  -29.2612   21.6025 C   0  0  0  0  0  0  0  0  0  0  0  0
  -24.3820  -33.5011   25.6055 C   0  0  0  0  0  0  0  0  0  0  0  0
  -25.1035  -28.4435   21.1615 C   0  0  0  0  0  0  0  0  0  0  0  0
  -29.6557  -19.9995   21.1507 C   0  0  0  0  0  0  0  0  0  0  0  0
  -30.1365  -17.7186   20.5158 C   0  0  0  0  0  0  0  0  0  0  0  0
  -22.9117   -8.8725   23.8806 C   0  0  0  0  0  0  0  0  0  0  0  0
  -26.3722  -26.4782   21.8233 C   0  0  0  0  0  0  0  0  0  0  0  0
  -21.0542   -7.4869   24.2705 C   0  0  0  0  0  0  0  0  0  0  0  0
  -18.5086   -6.6268   23.5203 C   0  0  0  0  0  0  0  0  0  0  0  0
  -31.0225  -20.2603   21.2488 C   0  0  0  0  0  0  0  0  0  0  0  0
  -20.8366   -6.1464   23.9523 C   0  0  0  0  0  0  0  0  0  0  0  0
  -24.7607  -11.8485   21.5094 C   0  0  0  0  0  0  0  0  0  0  0  0
  -25.1794  -13.6443   20.3116 C   0  0  0  0  0  0  0  0  0  0  0  0
  -27.4111  -20.8611   21.9402 C   0  0  0  0  0  0  0  0  0  0  0  0
  -22.8339  -13.5174   21.1667 C   0  0  0  0  0  0  0  0  0  0  0  0
  -23.9325  -31.2445   22.7143 C   0  0  0  0  0  0  0  0  0  0  0  0
  -22.8789  -31.1615   19.6475 C   0  0  0  0  0  0  0  0  0  0  0  0
  -22.7381  -29.4876   16.6768 C   0  0  0  0  0  0  0  0  0  0  0  0
  -30.4706  -15.3138   19.8437 C   0  0  0  0  0  0  0  0  0  0  0  0
  -22.6917  -35.3973   25.4110 C   0  0  0  0  0  0  0  0  0  0  0  0
  -26.0656  -30.7562   21.4624 C   0  0  0  0  0  0  0  0  0  0  0  0
  -23.8454  -29.0201   20.5671 C   0  0  0  0  0  0  0  0  0  0  0  0
  -26.8216  -22.2386   22.1490 C   0  0  0  0  0  0  0  0  0  0  0  0
  -22.0373  -34.5822   24.2986 C   0  0  0  0  0  0  0  0  0  0  0  0
  -29.7432  -11.9525   18.9219 C   0  0  0  0  0  0  0  0  0  0  0  0
  -22.0710  -33.0949   24.6360 C   0  0  0  0  0  0  0  0  0  0  0  0
  -28.3336  -11.7227   19.4719 C   0  0  0  0  0  0  0  0  0  0  0  0
  -30.5784  -12.8312   19.8514 C   0  0  0  0  0  0  0  0  0  0  0  0
  -28.5478  -13.8795   20.7717 C   0  0  0  0  0  0  0  0  0  0  0  0
  -29.0309  -22.4383   21.2639 C   0  0  0  0  0  0  0  0  0  0  0  0
  -23.5136  -32.5910   24.7643 C   0  0  1  0  0  0  0  0  0  0  0  0
  -24.6297  -31.2653   21.3834 C   0  0  1  0  0  0  0  0  0  0  0  0
  -27.6477  -13.0535   19.8382 C   0  0  2  0  0  0  0  0  0  0  0  0
  -27.6758  -23.1504   21.2632 C   0  0  1  0  0  0  0  0  0  0  0  0
  -27.0956  -23.2203   19.8403 C   0  0  0  0  0  0  0  0  0  0  0  0
  -21.7718  -29.6525   14.3667 C   0  0  0  0  0  0  0  0  0  0  0  0
  -20.1365  -30.3927   20.7423 C   0  0  0  0  0  0  0  0  0  0  0  0
  -19.4990  -29.6572   18.4356 C   0  0  0  0  0  0  0  0  0  0  0  0
  -20.0848  -32.0437   18.8647 C   0  0  0  0  0  0  0  0  0  0  0  0
  -25.4213  -29.4780   15.4282 C   0  0  0  0  0  0  0  0  0  0  0  0
  -27.7809  -24.5622   21.8418 C   0  0  0  0  0  0  0  0  0  1  0  0
  -21.9136  -30.2981   18.8717 C   0  0  1  0  0  0  0  0  0  0  0  0
  -22.9745  -29.9472   15.2495 C   0  0  2  0  0  0  0  0  0  0  0  0
  -20.4313  -30.5868   19.2415 C   0  0  0  0  0  0  0  0  0  0  0  0
  -26.0428  -11.7237   21.1563 N   0  0  0  0  0  0  0  0  0  0  0  0
  -26.2679  -12.8309   20.4286 N   0  0  0  0  0  0  0  0  0  0  0  0
  -28.7085  -21.0315   21.4245 N   0  0  0  0  0  0  0  0  0  0  0  0
  -23.8044  -30.4876   20.4570 N   0  0  0  0  0  0  0  0  0  0  0  0
  -29.8674  -14.0760   20.1513 N   0  0  0  0  0  0  0  0  0  0  0  0
  -25.2315  -14.7989   19.6140 N   0  0  0  0  0  0  0  0  0  0  0  0
  -21.9261  -12.7573   21.9168 N   0  0  0  0  0  0  0  0  0  0  0  0
  -29.6868  -16.4275   20.1437 N   0  0  0  0  0  0  0  0  0  0  0  0
  -24.1001  -32.3988   23.4553 N   0  0  0  0  0  0  0  0  0  0  0  0
  -22.2279  -30.5001   17.4615 N   0  0  0  0  0  0  0  0  0  0  0  0
  -24.1618  -29.2554   14.6725 N   0  3  0  0  0  0  0  0  0  0  0  0
  -26.8145  -19.8397   22.2493 O   0  0  0  0  0  0  0  0  0  0  0  0
  -22.4501  -14.5902   20.6420 O   0  0  0  0  0  0  0  0  0  0  0  0
  -23.2889  -30.2552   23.0439 O   0  0  0  0  0  0  0  0  0  0  0  0
  -22.8187  -32.3883   19.5338 O   0  0  0  0  0  0  0  0  0  0  0  0
  -22.9782  -28.3437   17.0567 O   0  0  0  0  0  0  0  0  0  0  0  0
  -31.5882  -15.3801   19.3255 O   0  0  0  0  0  0  0  0  0  0  0  0
  -22.3170   -7.9153   24.6439 O   0  0  0  0  0  0  0  0  0  0  0  0
  -26.4730  -25.1255   21.9332 O   0  0  0  0  0  0  0  0  0  1  0  0
  -17.2860   -6.2137   23.1616 F   0  0  0  0  0  0  0  0  0  0  0  0
  -31.4599  -21.4777   21.6004 F   0  0  0  0  0  0  0  0  0  0  0  0
  -21.8462   -5.2669   24.0061 F   0  0  0  0  0  0  0  0  0  0  0  0
  1  2  1  0  0  0  0
  1  5  2  0  0  0  0
  2  6  2  0  0  0  0
  3  9  2  0  0  0  0
  3 18  1  0  0  0  0
  4 10  1  0  0  0  0
  4 18  2  0  0  0  0
  5 20  1  0  0  0  0
  6 22  1  0  0  0  0
  7 11  2  0  0  0  0
  7 21  1  0  0  0  0
  8 13  2  0  0  0  0
  8 25  1  0  0  0  0
  9 26  1  0  0  0  0
 10 26  2  0  0  0  0
 11 27  1  0  0  0  0
 12 14  2  0  0  0  0
 12 28  1  0  0  0  0
 13 30  1  0  0  0  0
 14 29  1  0  0  0  0
 15 23  1  0  0  0  0
 15 27  2  0  0  0  0
 16 24  1  0  0  0  0
 16 25  2  0  0  0  0
 17 29  2  0  0  0  0
 17 31  1  0  0  0  0
 18 32  1  0  0  0  0
 19 32  1  0  0  0  0
 19 33  2  0  0  0  0
 19 35  1  0  0  0  0
 20 22  2  0  0  0  0
 20 40  1  0  0  0  0
 21 23  2  0  0  0  0
 21 41  1  0  0  0  0
 22 51  1  0  0  0  0
 23 42  1  0  0  0  0
 24 30  2  0  0  0  0
 24 67  1  0  0  0  0
 25 72  1  0  0  0  0
 26 82  1  0  0  0  0
 27 83  1  0  0  0  0
 28 31  2  0  0  0  0
 28 82  1  0  0  0  0
 29 84  1  0  0  0  0
 30 85  1  0  0  0  0
 31 86  1  0  0  0  0
 32 65  2  0  0  0  0
 33 66  1  0  0  0  0
 33 70  1  0  0  0  0
 34 43  1  0  0  0  0
 34 67  1  0  0  0  0
 34 76  2  0  0  0  0
 35 71  1  0  0  0  0
 35 77  2  0  0  0  0
 36 52  1  0  0  0  0
 36 73  1  0  0  0  0
 36 78  2  0  0  0  0
 37 62  1  0  0  0  0
 37 68  1  0  0  0  0
 37 79  2  0  0  0  0
 38 63  1  0  0  0  0
 38 74  1  0  0  0  0
 38 80  2  0  0  0  0
 39 69  1  0  0  0  0
 39 72  1  0  0  0  0
 39 81  2  0  0  0  0
 40 44  1  0  0  0  0
 41 52  1  0  0  0  0
 42 68  1  0  0  0  0
 43 54  1  0  0  0  0
 44 46  1  0  0  0  0
 45 47  1  0  0  0  0
 45 48  1  0  0  0  0
 46 51  1  0  0  0  0
 47 53  1  0  0  0  0
 48 69  1  0  0  0  0
 49 53  1  0  0  0  0
 49 69  1  0  0  0  0
 50 54  1  0  0  0  0
 50 67  1  0  0  0  0
 51 73  1  0  0  0  0
 52 68  1  0  0  0  0
 53 66  1  0  0  0  0
 54 55  1  0  0  0  0
 54 61  1  0  0  0  0
 56 63  1  0  0  0  0
 57 64  1  0  0  0  0
 58 64  1  0  0  0  0
 59 64  1  0  0  0  0
 60 75  1  0  0  0  0
 61 83  1  0  0  0  0
 62 64  1  0  0  0  0
 62 74  1  0  0  0  0
 63 75  1  0  0  0  0
 65 66  1  0  0  0  0
M  CHG  1  75   1
M  ISO  4  39 100  61 101  72 100  83 101
M  END
> <Batch ID>
0065

> <Smiles>
CNC(C)C(=O)NC(C(=O)N1Cc2cc([101O:1][101CH2:1]C3(C)CC(=O)N(c4cc([100NH:0][100C:0](=O)N5CCCC(n6nc(-c7ccc(Oc8ccc(F)cc8F)cc7)c(C(N)=O)c6N)C5)ccc4F)C3)ccc2CC1C(=O)NC1CCCc2ccccc21)C(C)(C)C

> <Shape>
0.254

> <Color>
0.141

> <Negative vol penalty>
0.000

$$$$

  -OEChem-04042323183D

 87 96  0     1  0  0  0  0  0999 V2000
  -24.5702  -36.2530   16.1489 C   0  0  0  0  0  0  0  0  0  0  0  0
  -24.9092  -34.9096   16.0228 C   0  0  0  0  0  0  0  0  0  0  0  0
  -24.0732  -10.1469   22.7032 C   0  0  0  0  0  0  0  0  0  0  0  0
  -24.5175  -12.0312   24.1485 C   0  0  0  0  0  0  0  0  0  0  0  0
  -24.7906  -36.9161   17.3554 C   0  0  0  0  0  0  0  0  0  0  0  0
  -25.4699  -34.2289   17.1029 C   0  0  0  0  0  0  0  0  0  0  0  0
  -24.6156  -28.3508   18.5944 C   0  0  0  0  0  0  0  0  0  0  0  0
  -30.6809  -20.1050   18.3164 C   0  0  0  0  0  0  0  0  0  0  0  0
  -30.4559  -18.7326   18.4227 C   0  0  0  0  0  0  0  0  0  0  0  0
  -23.6544   -9.4007   23.8048 C   0  0  0  0  0  0  0  0  0  0  0  0
  -24.0987  -11.2850   25.2501 C   0  0  0  0  0  0  0  0  0  0  0  0
  -25.3755  -27.2048   18.3645 C   0  0  0  0  0  0  0  0  0  0  0  0
  -20.8903   -9.1460   25.7356 C   0  0  0  0  0  0  0  0  0  0  0  0
  -19.7165   -8.4035   25.6072 C   0  0  0  0  0  0  0  0  0  0  0  0
  -26.3635  -27.4280   20.5539 C   0  0  0  0  0  0  0  0  0  0  0  0
  -28.2980  -20.4999   18.3713 C   0  0  0  0  0  0  0  0  0  0  0  0
  -20.9500   -6.3756   26.0585 C   0  0  0  0  0  0  0  0  0  0  0  0
  -24.5048  -11.4622   22.8751 C   0  0  0  0  0  0  0  0  0  0  0  0
  -24.1435  -13.0529   20.9138 C   0  0  0  0  0  0  0  0  0  0  0  0
  -25.3453  -36.2406   18.4538 C   0  0  0  0  0  0  0  0  0  0  0  0
  -24.7322  -29.0514   19.8035 C   0  0  0  0  0  0  0  0  0  0  0  0
  -25.6992  -34.8839   18.3248 C   0  0  0  0  0  0  0  0  0  0  0  0
  -25.6020  -28.5812   20.7976 C   0  0  0  0  0  0  0  0  0  0  0  0
  -28.0730  -19.1274   18.4776 C   0  0  0  0  0  0  0  0  0  0  0  0
  -29.6019  -20.9887   18.2908 C   0  0  0  0  0  0  0  0  0  0  0  0
  -29.1520  -18.2437   18.5032 C   0  0  0  0  0  0  0  0  0  0  0  0
  -23.6671   -9.9697   25.0782 C   0  0  0  0  0  0  0  0  0  0  0  0
  -26.2518  -26.7448   19.3431 C   0  0  0  0  0  0  0  0  0  0  0  0
  -22.0940   -8.5033   26.0253 C   0  0  0  0  0  0  0  0  0  0  0  0
  -19.7463   -7.0183   25.7687 C   0  0  0  0  0  0  0  0  0  0  0  0
  -22.1238   -7.1182   26.1868 C   0  0  0  0  0  0  0  0  0  0  0  0
  -24.9380  -12.2333   21.7377 C   0  0  0  0  0  0  0  0  0  0  0  0
  -25.0201  -13.5592   19.9855 C   0  0  0  0  0  0  0  0  0  0  0  0
  -30.3544  -25.1905   18.4740 C   0  0  0  0  0  0  0  0  0  0  0  0
  -29.2033  -24.7084   18.9535 C   0  0  0  0  0  0  0  0  0  0  0  0
  -31.2289  -24.3782   17.6720 C   0  0  0  0  0  0  0  0  0  0  0  0
  -30.9668  -22.9096   17.5031 C   0  0  0  0  0  0  0  0  0  0  0  0
  -32.3181  -24.8989   17.0850 C   0  0  0  0  0  0  0  0  0  0  0  0
  -22.7387  -13.3316   20.9816 C   0  0  0  0  0  0  0  0  0  0  0  0
  -25.6431  -31.9862   20.6167 C   0  0  0  0  0  0  0  0  0  0  0  0
  -24.6709  -31.0500   23.5664 C   0  0  0  0  0  0  0  0  0  0  0  0
  -24.0555  -28.4895   25.7370 C   0  0  0  0  0  0  0  0  0  0  0  0
  -29.9174  -15.8483   18.6517 C   0  0  0  0  0  0  0  0  0  0  0  0
  -25.6087  -37.0118   19.7229 C   0  0  0  0  0  0  0  0  0  0  0  0
  -23.8857  -30.2708   20.0466 C   0  0  0  0  0  0  0  0  0  0  0  0
  -25.7490  -29.2856   22.1208 C   0  0  0  0  0  0  0  0  0  0  0  0
  -28.7624  -23.3038   18.6789 C   0  0  0  0  0  0  0  0  0  0  0  0
  -25.8605  -36.1205   20.9363 C   0  0  0  0  0  0  0  0  0  0  0  0
  -29.8130  -12.3020   18.9518 C   0  0  0  0  0  0  0  0  0  0  0  0
  -26.8449  -35.0089   20.5870 C   0  0  0  0  0  0  0  0  0  0  0  0
  -28.4701  -12.0354   19.6356 C   0  0  0  0  0  0  0  0  0  0  0  0
  -30.4759  -13.5729   19.4800 C   0  0  0  0  0  0  0  0  0  0  0  0
  -28.2901  -14.5082   20.1253 C   0  0  0  0  0  0  0  0  0  0  0  0
  -26.2865  -34.1047   19.4815 C   0  0  1  0  0  0  0  0  0  0  0  0
  -24.4641  -31.1971   21.1118 C   0  0  1  0  0  0  0  0  0  0  0  0
  -27.5538  -13.2735   19.5801 C   0  0  2  0  0  0  0  0  0  0  0  0
  -26.6661  -18.6317   18.5644 C   0  0  0  0  0  0  0  0  0  0  0  0
  -23.3062  -28.0379   28.0891 C   0  0  0  0  0  0  0  0  0  0  0  0
  -27.4190  -31.8817   24.5990 C   0  0  0  0  0  0  0  0  0  0  0  0
  -26.9618  -30.5599   26.6755 C   0  0  0  0  0  0  0  0  0  0  0  0
  -25.5115  -32.5038   26.0919 C   0  0  0  0  0  0  0  0  0  0  0  0
  -21.6899  -26.9689   24.8148 C   0  0  0  0  0  0  0  0  0  0  0  0
  -28.2662  -25.5534   19.7657 C   0  0  0  0  0  0  0  0  0  1  0  0
  -25.3291  -30.3726   24.7440 C   0  0  1  0  0  0  0  0  0  0  0  0
  -22.8711  -28.1976   26.6406 C   0  0  2  0  0  0  0  0  0  0  0  0
  -26.3042  -31.3171   25.5020 C   0  0  0  0  0  0  0  0  0  0  0  0
  -26.2207  -12.2169   21.3655 N   0  0  0  0  0  0  0  0  0  0  0  0
  -26.2388  -13.0324   20.2975 N   0  0  0  0  0  0  0  0  0  0  0  0
  -29.8363  -22.4163   18.1830 N   0  0  0  0  0  0  0  0  0  0  0  0
  -24.9045  -30.4769   22.3083 N   0  0  0  0  0  0  0  0  0  0  0  0
  -29.5506  -14.7047   19.3922 N   0  0  0  0  0  0  0  0  0  0  0  0
  -24.8595  -14.3992   18.9410 N   0  0  0  0  0  0  0  0  0  0  0  0
  -21.9861  -12.7282   21.9984 N   0  0  0  0  0  0  0  0  0  0  0  0
  -28.9444  -16.8463   18.6124 N   0  0  0  0  0  0  0  0  0  0  0  0
  -25.3067  -33.1886   20.0246 N   0  0  0  0  0  0  0  0  0  0  0  0
  -24.2473  -29.8444   25.5682 N   0  0  0  0  0  0  0  0  0  0  0  0
  -22.1904  -26.9426   26.2133 N   0  3  0  0  0  0  0  0  0  0  0  0
  -31.7232  -22.2367   16.8019 O   0  0  0  0  0  0  0  0  0  0  0  0
  -22.1647  -14.0802   20.1548 O   0  0  0  0  0  0  0  0  0  0  0  0
  -26.7743  -31.5380   20.7624 O   0  0  0  0  0  0  0  0  0  0  0  0
  -23.9693  -32.0467   23.7566 O   0  0  0  0  0  0  0  0  0  0  0  0
  -24.7440  -27.6041   25.2345 O   0  0  0  0  0  0  0  0  0  0  0  0
  -31.0032  -15.9245   18.0709 O   0  0  0  0  0  0  0  0  0  0  0  0
  -23.2583   -9.2420   26.1533 O   0  0  0  0  0  0  0  0  0  0  0  0
  -26.9952  -25.6268   19.1211 O   0  0  0  0  0  0  0  0  0  1  0  0
  -18.6188   -6.3056   25.6469 F   0  0  0  0  0  0  0  0  0  0  0  0
  -23.2769   -6.4953   26.4665 F   0  0  0  0  0  0  0  0  0  0  0  0
  1  2  1  0  0  0  0
  1  5  2  0  0  0  0
  2  6  2  0  0  0  0
  3 10  2  0  0  0  0
  3 18  1  0  0  0  0
  4 11  1  0  0  0  0
  4 18  2  0  0  0  0
  5 20  1  0  0  0  0
  6 22  1  0  0  0  0
  7 12  2  0  0  0  0
  7 21  1  0  0  0  0
  8  9  2  0  0  0  0
  8 25  1  0  0  0  0
  9 26  1  0  0  0  0
 10 27  1  0  0  0  0
 11 27  2  0  0  0  0
 12 28  1  0  0  0  0
 13 14  2  0  0  0  0
 13 29  1  0  0  0  0
 14 30  1  0  0  0  0
 15 23  1  0  0  0  0
 15 28  2  0  0  0  0
 16 24  1  0  0  0  0
 16 25  2  0  0  0  0
 17 30  2  0  0  0  0
 17 31  1  0  0  0  0
 18 32  1  0  0  0  0
 19 32  1  0  0  0  0
 19 33  2  0  0  0  0
 19 39  1  0  0  0  0
 20 22  2  0  0  0  0
 20 44  1  0  0  0  0
 21 23  2  0  0  0  0
 21 45  1  0  0  0  0
 22 54  1  0  0  0  0
 23 46  1  0  0  0  0
 24 26  2  0  0  0  0
 24 57  1  0  0  0  0
 25 69  1  0  0  0  0
 26 74  1  0  0  0  0
 27 84  1  0  0  0  0
 28 85  1  0  0  0  0
 29 31  2  0  0  0  0
 29 84  1  0  0  0  0
 30 86  1  0  0  0  0
 31 87  1  0  0  0  0
 32 67  2  0  0  0  0
 33 68  1  0  0  0  0
 33 72  1  0  0  0  0
 34 35  2  0  0  0  0
 34 36  1  0  0  0  0
 35 47  1  0  0  0  0
 35 63  1  0  0  0  0
 36 37  1  0  0  0  0
 36 38  2  0  0  0  0
 37 69  1  0  0  0  0
 37 78  2  0  0  0  0
 39 73  1  0  0  0  0
 39 79  2  0  0  0  0
 40 55  1  0  0  0  0
 40 75  1  0  0  0  0
 40 80  2  0  0  0  0
 41 64  1  0  0  0  0
 41 70  1  0  0  0  0
 41 81  2  0  0  0  0
 42 65  1  0  0  0  0
 42 76  1  0  0  0  0
 42 82  2  0  0  0  0
 43 71  1  0  0  0  0
 43 74  1  0  0  0  0
 43 83  2  0  0  0  0
 44 48  1  0  0  0  0
 45 55  1  0  0  0  0
 46 70  1  0  0  0  0
 47 69  1  0  0  0  0
 48 50  1  0  0  0  0
 49 51  1  0  0  0  0
 49 52  1  0  0  0  0
 50 54  1  0  0  0  0
 51 56  1  0  0  0  0
 52 71  1  0  0  0  0
 53 56  1  0  0  0  0
 53 71  1  0  0  0  0
 54 75  1  0  0  0  0
 55 70  1  0  0  0  0
 56 68  1  0  0  0  0
 58 65  1  0  0  0  0
 59 66  1  0  0  0  0
 60 66  1  0  0  0  0
 61 66  1  0  0  0  0
 62 77  1  0  0  0  0
 63 85  1  0  0  0  0
 64 66  1  0  0  0  0
 64 76  1  0  0  0  0
 65 77  1  0  0  0  0
 67 68  1  0  0  0  0
M  CHG  1  77   1
M  ISO  4  43 100  63 101  74 100  85 101
M  END
> <Batch ID>
0065

> <Smiles>
C=C1C=C([101CH2:1][101O:1]c2ccc3c(c2)CN(C(=O)C(NC(=O)C(C)NC)C(C)(C)C)C(C(=O)NC2CCCc4ccccc42)C3)CN(c2ccc([100NH:0][100C:0](=O)N3CCCC(n4nc(-c5ccc(Oc6ccc(F)cc6F)cc5)c(C(N)=O)c4N)C3)c(C)c2)C1=O

> <Shape>
0.263

> <Color>
0.136

> <Negative vol penalty>
0.000

$$$$

  -OEChem-04042323183D

 87 96  0     1  0  0  0  0  0999 V2000
  -21.6157  -29.7891   13.9017 C   0  0  0  0  0  0  0  0  0  0  0  0
  -22.7726  -29.3795   14.5568 C   0  0  0  0  0  0  0  0  0  0  0  0
  -31.0194  -11.5037   19.8071 C   0  0  0  0  0  0  0  0  0  0  0  0
  -30.8414  -12.3131   22.0765 C   0  0  0  0  0  0  0  0  0  0  0  0
  -21.1104  -31.0705   14.1173 C   0  0  0  0  0  0  0  0  0  0  0  0
  -23.4256  -30.2517   15.4270 C   0  0  0  0  0  0  0  0  0  0  0  0
  -24.8127  -28.0065   19.7491 C   0  0  0  0  0  0  0  0  0  0  0  0
  -28.9690  -20.8759   24.7157 C   0  0  0  0  0  0  0  0  0  0  0  0
  -28.6328  -19.9685   23.7112 C   0  0  0  0  0  0  0  0  0  0  0  0
  -32.1288  -10.7387   20.1669 C   0  0  0  0  0  0  0  0  0  0  0  0
  -31.9508  -11.5480   22.4363 C   0  0  0  0  0  0  0  0  0  0  0  0
  -25.9512  -27.2025   19.7121 C   0  0  0  0  0  0  0  0  0  0  0  0
  -32.6148   -8.3160   23.1667 C   0  0  0  0  0  0  0  0  0  0  0  0
  -32.5385   -7.5839   24.3515 C   0  0  0  0  0  0  0  0  0  0  0  0
  -27.2457  -29.0022   20.6632 C   0  0  0  0  0  0  0  0  0  0  0  0
  -29.1394  -21.6346   22.0365 C   0  0  0  0  0  0  0  0  0  0  0  0
  -34.4388   -8.7954   25.2224 C   0  0  0  0  0  0  0  0  0  0  0  0
  -30.3757  -12.2909   20.7618 C   0  0  0  0  0  0  0  0  0  0  0  0
  -27.8785  -12.6889   20.4250 C   0  0  0  0  0  0  0  0  0  0  0  0
  -21.7521  -31.9554   14.9981 C   0  0  0  0  0  0  0  0  0  0  0  0
  -24.8846  -29.3202   20.2341 C   0  0  0  0  0  0  0  0  0  0  0  0
  -22.9292  -31.5466   15.6536 C   0  0  0  0  0  0  0  0  0  0  0  0
  -26.1062  -29.8199   20.7077 C   0  0  0  0  0  0  0  0  0  0  0  0
  -29.3904  -22.1628   24.3806 C   0  0  0  0  0  0  0  0  0  0  0  0
  -29.4756  -22.5421   23.0410 C   0  0  0  0  0  0  0  0  0  0  0  0
  -28.7180  -20.3478   22.3716 C   0  0  0  0  0  0  0  0  0  0  0  0
  -32.5945  -10.7608   21.4815 C   0  0  0  0  0  0  0  0  0  0  0  0
  -27.1685  -27.7013   20.1665 C   0  0  0  0  0  0  0  0  0  0  0  0
  -33.6031   -9.2878   23.0096 C   0  0  0  0  0  0  0  0  0  0  0  0
  -33.4505   -7.8236   25.3794 C   0  0  0  0  0  0  0  0  0  0  0  0
  -34.5150   -9.5275   24.0375 C   0  0  0  0  0  0  0  0  0  0  0  0
  -29.2299  -13.0818   20.3906 C   0  0  0  0  0  0  0  0  0  0  0  0
  -27.1893  -13.7901   19.9790 C   0  0  0  0  0  0  0  0  0  0  0  0
  -31.1477  -24.4480   22.9816 C   0  0  0  0  0  0  0  0  0  0  0  0
  -27.2981  -11.4402   20.8243 C   0  0  0  0  0  0  0  0  0  0  0  0
  -24.3681  -32.2008   18.9934 C   0  0  0  0  0  0  0  0  0  0  0  0
  -24.8534  -33.1755   22.0491 C   0  0  0  0  0  0  0  0  0  0  0  0
  -26.2390  -32.5493   25.1044 C   0  0  0  0  0  0  0  0  0  0  0  0
  -28.4052  -19.6405   19.9740 C   0  0  0  0  0  0  0  0  0  0  0  0
  -21.1948  -33.3472   15.1628 C   0  0  0  0  0  0  0  0  0  0  0  0
  -23.6419  -30.1657   20.2922 C   0  0  0  0  0  0  0  0  0  0  0  0
  -26.2322  -31.2167   21.2569 C   0  0  0  0  0  0  0  0  0  0  0  0
  -21.7371  -34.0794   16.3876 C   0  0  0  0  0  0  0  0  0  0  0  0
  -27.6756  -17.6148   17.1383 C   0  0  0  0  0  0  0  0  0  0  0  0
  -23.2525  -33.9279   16.4726 C   0  0  0  0  0  0  0  0  0  0  0  0
  -27.8625  -16.1865   17.6553 C   0  0  0  0  0  0  0  0  0  0  0  0
  -28.6947  -18.5763   17.7472 C   0  0  0  0  0  0  0  0  0  0  0  0
  -29.0393  -24.7748   21.9633 C   0  0  0  0  0  0  0  0  0  0  0  0
  -28.9455  -17.1376   19.7313 C   0  0  0  0  0  0  0  0  0  0  0  0
  -23.6521  -32.4552   16.6242 C   0  0  1  0  0  0  0  0  0  0  0  0
  -23.9382  -31.6617   20.3285 C   0  0  1  0  0  0  0  0  0  0  0  0
  -29.9871  -25.8456   21.4374 C   0  0  2  0  0  0  0  0  0  0  0  0
  -27.9005  -16.1452   19.1956 C   0  0  2  0  0  0  0  0  0  0  0  0
  -31.0878  -25.9054   22.5155 C   0  0  0  0  0  0  0  0  0  0  0  0
  -29.7441  -23.1138   25.4775 C   0  0  0  0  0  0  0  0  0  0  0  0
  -30.7340  -26.7778   23.7281 C   0  0  0  0  0  0  0  0  0  0  0  0
  -32.4295  -26.3476   21.9289 C   0  0  0  0  0  0  0  0  0  0  0  0
  -26.4980  -33.5480   27.3919 C   0  0  0  0  0  0  0  0  0  0  0  0
  -26.9636  -35.0965   20.9688 C   0  0  0  0  0  0  0  0  0  0  0  0
  -27.8264  -35.3523   23.3052 C   0  0  0  0  0  0  0  0  0  0  0  0
  -25.4970  -36.0543   22.7538 C   0  0  0  0  0  0  0  0  0  0  0  0
  -24.8204  -30.2865   26.3797 C   0  0  0  0  0  0  0  0  0  0  0  0
  -29.2729  -27.1542   21.1298 C   0  0  0  0  0  0  0  0  0  1  0  0
  -26.0568  -33.5911   22.8603 C   0  0  1  0  0  0  0  0  0  0  0  0
  -25.6649  -32.6337   26.5071 C   0  0  2  0  0  0  0  0  0  0  0  0
  -26.5843  -34.9978   22.4599 C   0  0  0  0  0  0  0  0  0  0  0  0
  -29.3918  -14.3347   19.9570 N   0  0  0  0  0  0  0  0  0  0  0  0
  -28.1331  -14.7386   19.7147 N   0  0  0  0  0  0  0  0  0  0  0  0
  -29.9046  -23.8547   22.6779 N   0  0  0  0  0  0  0  0  0  0  0  0
  -24.9901  -32.0065   21.2870 N   0  0  0  0  0  0  0  0  0  0  0  0
  -28.6712  -18.4854   19.2087 N   0  0  0  0  0  0  0  0  0  0  0  0
  -25.8742  -14.0299   19.7911 N   0  0  0  0  0  0  0  0  0  0  0  0
  -28.1505  -10.4149   21.2561 N   0  0  0  0  0  0  0  0  0  0  0  0
  -28.3763  -19.4255   21.3515 N   0  0  0  0  0  0  0  0  0  0  0  0
  -23.4417  -32.0120   17.9857 N   0  0  0  0  0  0  0  0  0  0  0  0
  -25.6645  -33.4764   24.2607 N   0  0  0  0  0  0  0  0  0  0  0  0
  -25.6259  -31.2818   27.1331 N   0  3  0  0  0  0  0  0  0  0  0  0
  -32.1134  -23.9737   23.5642 O   0  0  0  0  0  0  0  0  0  0  0  0
  -26.0614  -11.2341   20.7835 O   0  0  0  0  0  0  0  0  0  0  0  0
  -25.4589  -32.7489   18.8860 O   0  0  0  0  0  0  0  0  0  0  0  0
  -23.8275  -33.8587   22.0956 O   0  0  0  0  0  0  0  0  0  0  0  0
  -27.1126  -31.7442   24.7895 O   0  0  0  0  0  0  0  0  0  0  0  0
  -28.1900  -20.7341   19.4450 O   0  0  0  0  0  0  0  0  0  0  0  0
  -33.6770  -10.0143   21.8331 O   0  0  0  0  0  0  0  0  0  0  0  0
  -28.2813  -26.9189   20.1309 O   0  0  0  0  0  0  0  0  0  1  0  0
  -33.3762   -7.1216   26.5177 F   0  0  0  0  0  0  0  0  0  0  0  0
  -35.4659  -10.4606   23.8929 F   0  0  0  0  0  0  0  0  0  0  0  0
  1  2  1  0  0  0  0
  1  5  2  0  0  0  0
  2  6  2  0  0  0  0
  3 10  2  0  0  0  0
  3 18  1  0  0  0  0
  4 11  1  0  0  0  0
  4 18  2  0  0  0  0
  5 20  1  0  0  0  0
  6 22  1  0  0  0  0
  7 12  2  0  0  0  0
  7 21  1  0  0  0  0
  8  9  2  0  0  0  0
  8 24  1  0  0  0  0
  9 26  1  0  0  0  0
 10 27  1  0  0  0  0
 11 27  2  0  0  0  0
 12 28  1  0  0  0  0
 13 14  2  0  0  0  0
 13 29  1  0  0  0  0
 14 30  1  0  0  0  0
 15 23  1  0  0  0  0
 15 28  2  0  0  0  0
 16 25  1  0  0  0  0
 16 26  2  0  0  0  0
 17 30  2  0  0  0  0
 17 31  1  0  0  0  0
 18 32  1  0  0  0  0
 19 32  1  0  0  0  0
 19 33  2  0  0  0  0
 19 35  1  0  0  0  0
 20 22  2  0  0  0  0
 20 40  1  0  0  0  0
 21 23  2  0  0  0  0
 21 41  1  0  0  0  0
 22 50  1  0  0  0  0
 23 42  1  0  0  0  0
 24 25  2  0  0  0  0
 24 55  1  0  0  0  0
 25 69  1  0  0  0  0
 26 74  1  0  0  0  0
 27 84  1  0  0  0  0
 28 85  1  0  0  0  0
 29 31  2  0  0  0  0
 29 84  1  0  0  0  0
 30 86  1  0  0  0  0
 31 87  1  0  0  0  0
 32 67  2  0  0  0  0
 33 68  1  0  0  0  0
 33 72  1  0  0  0  0
 34 54  1  0  0  0  0
 34 69  1  0  0  0  0
 34 78  2  0  0  0  0
 35 73  1  0  0  0  0
 35 79  2  0  0  0  0
 36 51  1  0  0  0  0
 36 75  1  0  0  0  0
 36 80  2  0  0  0  0
 37 64  1  0  0  0  0
 37 70  1  0  0  0  0
 37 81  2  0  0  0  0
 38 65  1  0  0  0  0
 38 76  1  0  0  0  0
 38 82  2  0  0  0  0
 39 71  1  0  0  0  0
 39 74  1  0  0  0  0
 39 83  2  0  0  0  0
 40 43  1  0  0  0  0
 41 51  1  0  0  0  0
 42 70  1  0  0  0  0
 43 45  1  0  0  0  0
 44 46  1  0  0  0  0
 44 47  1  0  0  0  0
 45 50  1  0  0  0  0
 46 53  1  0  0  0  0
 47 71  1  0  0  0  0
 48 52  1  0  0  0  0
 48 69  1  0  0  0  0
 49 53  1  0  0  0  0
 49 71  1  0  0  0  0
 50 75  1  0  0  0  0
 51 70  1  0  0  0  0
 52 54  1  0  0  0  0
 52 63  1  0  0  0  0
 53 68  1  0  0  0  0
 54 56  1  0  0  0  0
 54 57  1  0  0  0  0
 58 65  1  0  0  0  0
 59 66  1  0  0  0  0
 60 66  1  0  0  0  0
 61 66  1  0  0  0  0
 62 77  1  0  0  0  0
 63 85  1  0  0  0  0
 64 66  1  0  0  0  0
 64 76  1  0  0  0  0
 65 77  1  0  0  0  0
 67 68  1  0  0  0  0
M  CHG  1  77   1
M  ISO  4  39 100  63 101  74 100  85 101
M  END
> <Batch ID>
0065

> <Smiles>
CNC(C)C(=O)NC(C(=O)N1Cc2cc([101O:1][101CH2:1]C3CN(c4cc([100NH:0][100C:0](=O)N5CCCC(n6nc(-c7ccc(Oc8ccc(F)cc8F)cc7)c(C(N)=O)c6N)C5)ccc4C)C(=O)C3(C)C)ccc2CC1C(=O)NC1CCCc2ccccc21)C(C)(C)C

> <Shape>
0.225

> <Color>
0.092

> <Negative vol penalty>
0.000

$$$$

  -OEChem-04042323183D

 84 92  0     1  0  0  0  0  0999 V2000
  -20.7224  -33.9280   15.3715 C   0  0  0  0  0  0  0  0  0  0  0  0
  -21.5448  -32.8109   15.4780 C   0  0  0  0  0  0  0  0  0  0  0  0
  -22.9227  -11.6084   21.5133 C   0  0  0  0  0  0  0  0  0  0  0  0
  -22.9152  -14.0048   21.2061 C   0  0  0  0  0  0  0  0  0  0  0  0
  -20.9332  -35.0289   16.2006 C   0  0  0  0  0  0  0  0  0  0  0  0
  -22.5792  -32.7946   16.4129 C   0  0  0  0  0  0  0  0  0  0  0  0
  -24.6182  -27.9547   19.5632 C   0  0  0  0  0  0  0  0  0  0  0  0
  -21.9043  -11.7264   22.4590 C   0  0  0  0  0  0  0  0  0  0  0  0
  -21.8966  -14.1228   22.1518 C   0  0  0  0  0  0  0  0  0  0  0  0
  -25.7035  -27.1007   19.3721 C   0  0  0  0  0  0  0  0  0  0  0  0
  -18.5488  -13.6784   22.2731 C   0  0  0  0  0  0  0  0  0  0  0  0
  -17.4764  -14.5162   21.9672 C   0  0  0  0  0  0  0  0  0  0  0  0
  -27.0073  -28.4230   20.9119 C   0  0  0  0  0  0  0  0  0  0  0  0
  -29.7899  -18.1613   19.9293 C   0  0  0  0  0  0  0  0  0  0  0  0
  -31.4556  -19.6098   20.9111 C   0  0  0  0  0  0  0  0  0  0  0  0
  -31.8200  -17.2224   20.8425 C   0  0  0  0  0  0  0  0  0  0  0  0
  -17.9713  -15.8601   23.9131 C   0  0  0  0  0  0  0  0  0  0  0  0
  -23.4282  -12.7477   20.8868 C   0  0  0  0  0  0  0  0  0  0  0  0
  -24.3352  -12.4482   18.5214 C   0  0  0  0  0  0  0  0  0  0  0  0
  -21.9647  -35.0222   17.1529 C   0  0  0  0  0  0  0  0  0  0  0  0
  -24.7229  -29.0574   20.4231 C   0  0  0  0  0  0  0  0  0  0  0  0
  -22.8048  -33.8970   17.2547 C   0  0  0  0  0  0  0  0  0  0  0  0
  -25.9211  -29.2880   21.1141 C   0  0  0  0  0  0  0  0  0  0  0  0
  -30.2237  -19.4399   20.2795 C   0  0  0  0  0  0  0  0  0  0  0  0
  -30.5880  -17.0525   20.2109 C   0  0  0  0  0  0  0  0  0  0  0  0
  -21.3912  -12.9836   22.7783 C   0  0  0  0  0  0  0  0  0  0  0  0
  -26.8992  -27.3364   20.0443 C   0  0  0  0  0  0  0  0  0  0  0  0
  -19.3324  -13.9313   23.3990 C   0  0  0  0  0  0  0  0  0  0  0  0
  -17.1876  -15.6071   22.7872 C   0  0  0  0  0  0  0  0  0  0  0  0
  -32.2538  -18.5010   21.1927 C   0  0  0  0  0  0  0  0  0  0  0  0
  -19.0437  -15.0222   24.2190 C   0  0  0  0  0  0  0  0  0  0  0  0
  -24.4807  -12.6265   19.9102 C   0  0  0  0  0  0  0  0  0  0  0  0
  -25.6225  -12.3921   18.0457 C   0  0  0  0  0  0  0  0  0  0  0  0
  -23.1431  -12.3428   17.7318 C   0  0  0  0  0  0  0  0  0  0  0  0
  -24.5063  -32.2086   20.0666 C   0  0  0  0  0  0  0  0  0  0  0  0
  -24.7518  -32.1997   23.3011 C   0  0  0  0  0  0  0  0  0  0  0  0
  -29.6898  -21.9011   20.2718 C   0  0  0  0  0  0  0  0  0  0  0  0
  -25.7936  -30.5882   26.1232 C   0  0  0  0  0  0  0  0  0  0  0  0
  -30.8174  -14.5481   20.0632 C   0  0  0  0  0  0  0  0  0  0  0  0
  -22.1835  -36.2544   17.9946 C   0  0  0  0  0  0  0  0  0  0  0  0
  -23.5345  -29.9538   20.6389 C   0  0  0  0  0  0  0  0  0  0  0  0
  -26.0784  -30.4463   22.0639 C   0  0  0  0  0  0  0  0  0  0  0  0
  -23.0659  -36.0090   19.2158 C   0  0  0  0  0  0  0  0  0  0  0  0
  -30.0521  -11.1411   19.3679 C   0  0  0  0  0  0  0  0  0  0  0  0
  -24.3054  -35.2094   18.8269 C   0  0  0  0  0  0  0  0  0  0  0  0
  -28.5235  -11.1203   19.2956 C   0  0  0  0  0  0  0  0  0  0  0  0
  -30.5561  -12.1058   20.4398 C   0  0  0  0  0  0  0  0  0  0  0  0
  -28.4998  -13.4519   20.2703 C   0  0  0  0  0  0  0  0  0  0  0  0
  -23.9218  -33.8316   18.2736 C   0  0  1  0  0  0  0  0  0  0  0  0
  -23.9168  -31.3419   21.1432 C   0  0  1  0  0  0  0  0  0  0  0  0
  -27.9464  -12.5431   19.1607 C   0  0  2  0  0  0  0  0  0  0  0  0
  -25.8902  -30.8468   28.6174 C   0  0  0  0  0  0  0  0  0  0  0  0
  -27.0703  -34.1611   23.0055 C   0  0  0  0  0  0  0  0  0  0  0  0
  -27.7164  -33.6455   25.3688 C   0  0  0  0  0  0  0  0  0  0  0  0
  -25.4988  -34.6785   24.8810 C   0  0  0  0  0  0  0  0  0  0  0  0
  -24.1222  -28.1840   26.5535 C   0  0  0  0  0  0  0  0  0  0  0  0
  -28.5495  -22.7911   19.7972 C   0  0  0  0  0  0  0  0  0  0  0  0
  -28.8016  -24.2685   20.0778 C   0  0  0  0  0  0  0  0  0  0  0  0
  -27.6713  -25.1414   19.5525 C   0  0  0  0  0  0  0  0  0  1  0  0
  -25.8940  -32.2530   24.2867 C   0  0  1  0  0  0  0  0  0  0  0  0
  -25.0924  -30.3079   27.4401 C   0  0  2  0  0  0  0  0  0  0  0  0
  -26.5429  -33.6637   24.3662 C   0  0  0  0  0  0  0  0  0  0  0  0
  -25.7595  -12.6800   20.2921 N   0  0  0  0  0  0  0  0  0  0  0  0
  -26.4293  -12.5344   19.1362 N   0  0  0  0  0  0  0  0  0  0  0  0
  -24.8900  -31.2979   22.2365 N   0  0  0  0  0  0  0  0  0  0  0  0
  -29.9708  -13.4342   20.2458 N   0  0  0  0  0  0  0  0  0  0  0  0
  -26.1317  -12.2355   16.8053 N   0  0  0  0  0  0  0  0  0  0  0  0
  -21.9031  -12.4212   18.3803 N   0  0  0  0  0  0  0  0  0  0  0  0
  -29.4142  -20.5651   19.9943 N   0  0  0  0  0  0  0  0  0  0  0  0
  -30.1475  -15.7535   19.8556 N   0  0  0  0  0  0  0  0  0  0  0  0
  -23.5711  -32.9333   19.3527 N   0  0  0  0  0  0  0  0  0  0  0  0
  -25.3614  -31.7680   25.5554 N   0  0  0  0  0  0  0  0  0  0  0  0
  -24.9102  -28.8408   27.6280 N   0  3  0  0  0  0  0  0  0  0  0  0
  -23.1766  -12.1672   16.4902 O   0  0  0  0  0  0  0  0  0  0  0  0
  -25.7200  -32.2201   19.8971 O   0  0  0  0  0  0  0  0  0  0  0  0
  -23.7699  -32.9262   23.4735 O   0  0  0  0  0  0  0  0  0  0  0  0
  -30.6887  -22.3580   20.8176 O   0  0  0  0  0  0  0  0  0  0  0  0
  -26.6427  -29.8375   25.6477 O   0  0  0  0  0  0  0  0  0  0  0  0
  -32.0460  -14.4362   20.0619 O   0  0  0  0  0  0  0  0  0  0  0  0
  -20.3972  -13.0991   23.7009 O   0  0  0  0  0  0  0  0  0  0  0  0
  -27.9603  -26.5048   19.8591 O   0  0  0  0  0  0  0  0  0  1  0  0
  -16.1587  -16.4125   22.4925 F   0  0  0  0  0  0  0  0  0  0  0  0
  -33.4366  -18.6638   21.8000 F   0  0  0  0  0  0  0  0  0  0  0  0
  -19.7937  -15.2709   25.3013 F   0  0  0  0  0  0  0  0  0  0  0  0
  1  2  1  0  0  0  0
  1  5  2  0  0  0  0
  2  6  2  0  0  0  0
  3  8  2  0  0  0  0
  3 18  1  0  0  0  0
  4  9  1  0  0  0  0
  4 18  2  0  0  0  0
  5 20  1  0  0  0  0
  6 22  1  0  0  0  0
  7 10  2  0  0  0  0
  7 21  1  0  0  0  0
  8 26  1  0  0  0  0
  9 26  2  0  0  0  0
 10 27  1  0  0  0  0
 11 12  2  0  0  0  0
 11 28  1  0  0  0  0
 12 29  1  0  0  0  0
 13 23  1  0  0  0  0
 13 27  2  0  0  0  0
 14 24  2  0  0  0  0
 14 25  1  0  0  0  0
 15 24  1  0  0  0  0
 15 30  2  0  0  0  0
 16 25  2  0  0  0  0
 16 30  1  0  0  0  0
 17 29  2  0  0  0  0
 17 31  1  0  0  0  0
 18 32  1  0  0  0  0
 19 32  1  0  0  0  0
 19 33  2  0  0  0  0
 19 34  1  0  0  0  0
 20 22  2  0  0  0  0
 20 40  1  0  0  0  0
 21 23  2  0  0  0  0
 21 41  1  0  0  0  0
 22 49  1  0  0  0  0
 23 42  1  0  0  0  0
 24 69  1  0  0  0  0
 25 70  1  0  0  0  0
 26 80  1  0  0  0  0
 27 81  1  0  0  0  0
 28 31  2  0  0  0  0
 28 80  1  0  0  0  0
 29 82  1  0  0  0  0
 30 83  1  0  0  0  0
 31 84  1  0  0  0  0
 32 63  2  0  0  0  0
 33 64  1  0  0  0  0
 33 67  1  0  0  0  0
 34 68  1  0  0  0  0
 34 74  2  0  0  0  0
 35 50  1  0  0  0  0
 35 71  1  0  0  0  0
 35 75  2  0  0  0  0
 36 60  1  0  0  0  0
 36 65  1  0  0  0  0
 36 76  2  0  0  0  0
 37 57  1  0  0  0  0
 37 69  1  0  0  0  0
 37 77  2  0  0  0  0
 38 61  1  0  0  0  0
 38 72  1  0  0  0  0
 38 78  2  0  0  0  0
 39 66  1  0  0  0  0
 39 70  1  0  0  0  0
 39 79  2  0  0  0  0
 40 43  1  0  0  0  0
 41 50  1  0  0  0  0
 42 65  1  0  0  0  0
 43 45  1  0  0  0  0
 44 46  1  0  0  0  0
 44 47  1  0  0  0  0
 45 49  1  0  0  0  0
 46 51  1  0  0  0  0
 47 66  1  0  0  0  0
 48 51  1  0  0  0  0
 48 66  1  0  0  0  0
 49 71  1  0  0  0  0
 50 65  1  0  0  0  0
 51 64  1  0  0  0  0
 52 61  1  0  0  0  0
 53 62  1  0  0  0  0
 54 62  1  0  0  0  0
 55 62  1  0  0  0  0
 56 73  1  0  0  0  0
 57 58  1  0  0  0  0
 58 59  1  0  0  0  0
 59 81  1  0  0  0  0
 60 62  1  0  0  0  0
 60 72  1  0  0  0  0
 61 73  1  0  0  0  0
 63 64  1  0  0  0  0
M  CHG  1  73   1
M  ISO  4  39 100  59 101  70 100  81 101
M  END
> <Batch ID>
0065

> <Smiles>
CNC(C)C(=O)NC(C(=O)N1Cc2cc([101O:1][101CH2:1]CCC(=O)Nc3cc(F)cc([100NH:0][100C:0](=O)N4CCCC(n5nc(-c6ccc(Oc7ccc(F)cc7F)cc6)c(C(N)=O)c5N)C4)c3)ccc2CC1C(=O)NC1CCCc2ccccc21)C(C)(C)C

> <Shape>
0.273

> <Color>
0.101

> <Negative vol penalty>
0.000

$$$$

  -OEChem-04042323183D

 86 94  0     1  0  0  0  0  0999 V2000
  -22.5171  -12.2784   17.9098 C   0  0  0  0  0  0  0  0  0  0  0  0
  -22.0452  -13.4327   18.5265 C   0  0  0  0  0  0  0  0  0  0  0  0
  -30.0943  -27.8473   17.9203 C   0  0  0  0  0  0  0  0  0  0  0  0
  -29.9253  -26.4731   19.9003 C   0  0  0  0  0  0  0  0  0  0  0  0
  -23.7123  -11.7006   18.3360 C   0  0  0  0  0  0  0  0  0  0  0  0
  -22.7677  -14.0093   19.5705 C   0  0  0  0  0  0  0  0  0  0  0  0
  -23.2933  -19.9803   20.8262 C   0  0  0  0  0  0  0  0  0  0  0  0
  -19.6119  -28.7561   22.9314 C   0  0  0  0  0  0  0  0  0  0  0  0
  -31.4744  -27.6464   17.8987 C   0  0  0  0  0  0  0  0  0  0  0  0
  -31.3054  -26.2722   19.8786 C   0  0  0  0  0  0  0  0  0  0  0  0
  -22.6403  -20.8080   21.7385 C   0  0  0  0  0  0  0  0  0  0  0  0
  -34.7380  -25.1022   20.1364 C   0  0  0  0  0  0  0  0  0  0  0  0
  -18.3351  -28.2594   23.1934 C   0  0  0  0  0  0  0  0  0  0  0  0
  -35.2086  -23.8055   20.3428 C   0  0  0  0  0  0  0  0  0  0  0  0
  -20.2763  -26.5967   22.0755 C   0  0  0  0  0  0  0  0  0  0  0  0
  -24.4532  -20.5056   23.3010 C   0  0  0  0  0  0  0  0  0  0  0  0
  -33.9883  -23.0530   18.3982 C   0  0  0  0  0  0  0  0  0  0  0  0
  -29.3197  -27.2607   18.9212 C   0  0  0  0  0  0  0  0  0  0  0  0
  -18.9995  -26.1000   22.3375 C   0  0  0  0  0  0  0  0  0  0  0  0
  -26.9102  -26.6823   18.3151 C   0  0  0  0  0  0  0  0  0  0  0  0
  -24.4548  -12.2759   19.3793 C   0  0  0  0  0  0  0  0  0  0  0  0
  -24.5280  -19.3993   21.1492 C   0  0  0  0  0  0  0  0  0  0  0  0
  -23.9733  -13.4379   20.0119 C   0  0  0  0  0  0  0  0  0  0  0  0
  -25.1210  -19.6730   22.3900 C   0  0  0  0  0  0  0  0  0  0  0  0
  -20.5825  -27.9247   22.3724 C   0  0  0  0  0  0  0  0  0  0  0  0
  -32.0800  -26.8588   18.8778 C   0  0  0  0  0  0  0  0  0  0  0  0
  -23.2189  -21.0684   22.9773 C   0  0  0  0  0  0  0  0  0  0  0  0
  -33.8924  -25.3743   19.0609 C   0  0  0  0  0  0  0  0  0  0  0  0
  -34.8338  -22.7809   19.4737 C   0  0  0  0  0  0  0  0  0  0  0  0
  -18.0289  -26.9314   22.8965 C   0  0  0  0  0  0  0  0  0  0  0  0
  -33.5176  -24.3497   18.1918 C   0  0  0  0  0  0  0  0  0  0  0  0
  -27.8941  -27.4683   18.9444 C   0  0  0  0  0  0  0  0  0  0  0  0
  -25.7235  -27.2935   18.6390 C   0  0  0  0  0  0  0  0  0  0  0  0
  -27.0558  -25.5050   17.5099 C   0  0  0  0  0  0  0  0  0  0  0  0
  -18.6792  -24.6973   22.0230 C   0  0  0  0  0  0  0  0  0  0  0  0
  -25.5882  -16.4207   21.4774 C   0  0  0  0  0  0  0  0  0  0  0  0
  -20.7640  -23.3130   24.5641 C   0  0  0  0  0  0  0  0  0  0  0  0
  -28.4580  -17.8940   21.8176 C   0  0  0  0  0  0  0  0  0  0  0  0
  -30.1844  -20.7184   22.6477 C   0  0  0  0  0  0  0  0  0  0  0  0
  -22.3469  -29.7226   22.3405 C   0  0  0  0  0  0  0  0  0  0  0  0
  -25.7169  -11.5886   19.8367 C   0  0  0  0  0  0  0  0  0  0  0  0
  -25.2322  -18.5303   20.1436 C   0  0  0  0  0  0  0  0  0  0  0  0
  -26.4547  -19.0902   22.7774 C   0  0  0  0  0  0  0  0  0  0  0  0
  -26.6134  -12.4728   20.6998 C   0  0  0  0  0  0  0  0  0  0  0  0
  -24.8108  -31.7794   20.7990 C   0  0  0  0  0  0  0  0  0  0  0  0
  -25.7903  -13.1870   21.7672 C   0  0  0  0  0  0  0  0  0  0  0  0
  -25.7516  -30.7765   20.1273 C   0  0  0  0  0  0  0  0  0  0  0  0
  -24.2892  -31.2592   22.1373 C   0  0  0  0  0  0  0  0  0  0  0  0
  -24.6109  -28.9257   21.4158 C   0  0  0  0  0  0  0  0  0  0  0  0
  -24.7412  -14.1070   21.1312 C   0  0  1  0  0  0  0  0  0  0  0  0
  -26.2419  -17.5793   20.7787 C   0  0  1  0  0  0  0  0  0  0  0  0
  -25.1109  -29.3778   20.0340 C   0  0  2  0  0  0  0  0  0  0  0  0
  -18.4057  -23.5736   25.3903 C   0  0  0  0  0  0  0  0  0  0  0  0
  -32.1591  -22.2394   22.9387 C   0  0  0  0  0  0  0  0  0  0  0  0
  -28.7944  -16.3603   24.4338 C   0  0  0  0  0  0  0  0  0  0  0  0
  -30.6230  -17.9546   25.0524 C   0  0  0  0  0  0  0  0  0  0  0  0
  -30.8633  -16.5055   23.0362 C   0  0  0  0  0  0  0  0  0  0  0  0
  -29.9479  -21.7454   19.8822 C   0  0  0  0  0  0  0  0  0  0  0  0
  -21.3267  -22.4217   23.4716 C   0  0  0  0  0  0  0  0  0  1  0  0
  -19.4177  -24.0009   24.3381 C   0  0  2  0  0  0  0  0  0  0  0  0
  -29.2447  -18.4469   22.9814 C   0  0  1  0  0  0  0  0  0  0  0  0
  -31.3178  -21.4480   21.9495 C   0  0  2  0  0  0  0  0  0  0  0  0
  -29.8553  -17.3264   23.8697 C   0  0  0  0  0  0  0  0  0  0  0  0
  -27.3774  -28.5001   19.6170 N   0  0  0  0  0  0  0  0  0  0  0  0
  -26.0559  -28.3668   19.4121 N   0  0  0  0  0  0  0  0  0  0  0  0
  -27.1009  -18.2416   21.7625 N   0  0  0  0  0  0  0  0  0  0  0  0
  -23.6924  -29.9322   21.9708 N   0  0  0  0  0  0  0  0  0  0  0  0
  -24.4387  -27.0122   18.3349 N   0  0  0  0  0  0  0  0  0  0  0  0
  -28.3464  -25.0108   17.2762 N   0  0  0  0  0  0  0  0  0  0  0  0
  -21.8793  -28.4299   22.1062 N   0  0  0  0  0  0  0  0  0  0  0  0
  -18.9034  -23.7548   23.0171 N   0  0  0  0  0  0  0  0  0  0  0  0
  -25.3585  -15.3290   20.6621 N   0  0  0  0  0  0  0  0  0  0  0  0
  -30.2289  -19.3607   22.4116 N   0  0  0  0  0  0  0  0  0  0  0  0
  -30.7766  -22.3926   20.9317 N   0  3  0  0  0  0  0  0  0  0  0  0
  -26.0719  -24.9183   16.9988 O   0  0  0  0  0  0  0  0  0  0  0  0
  -25.3139  -16.5102   22.6684 O   0  0  0  0  0  0  0  0  0  0  0  0
  -21.4030  -23.5240   25.5986 O   0  0  0  0  0  0  0  0  0  0  0  0
  -29.0285  -17.1859   20.9841 O   0  0  0  0  0  0  0  0  0  0  0  0
  -29.3458  -21.2949   23.3370 O   0  0  0  0  0  0  0  0  0  0  0  0
  -21.6522  -30.6307   22.8037 O   0  0  0  0  0  0  0  0  0  0  0  0
  -33.4267  -26.6624   18.8569 O   0  0  0  0  0  0  0  0  0  0  0  0
  -22.5834  -21.8754   23.8699 O   0  0  0  0  0  0  0  0  0  1  0  0
  -35.2871  -21.5360   19.6712 F   0  0  0  0  0  0  0  0  0  0  0  0
  -16.7987  -26.4646   23.1523 F   0  0  0  0  0  0  0  0  0  0  0  0
  -32.7065  -24.6053   17.1562 F   0  0  0  0  0  0  0  0  0  0  0  0
  -18.0728  -24.2507   20.5224 S   0  0  0  0  0  0  0  0  0  0  0  0
  1  2  1  0  0  0  0
  1  5  2  0  0  0  0
  2  6  2  0  0  0  0
  3  9  2  0  0  0  0
  3 18  1  0  0  0  0
  4 10  1  0  0  0  0
  4 18  2  0  0  0  0
  5 21  1  0  0  0  0
  6 23  1  0  0  0  0
  7 11  2  0  0  0  0
  7 22  1  0  0  0  0
  8 13  2  0  0  0  0
  8 25  1  0  0  0  0
  9 26  1  0  0  0  0
 10 26  2  0  0  0  0
 11 27  1  0  0  0  0
 12 14  2  0  0  0  0
 12 28  1  0  0  0  0
 13 30  1  0  0  0  0
 14 29  1  0  0  0  0
 15 19  1  0  0  0  0
 15 25  2  0  0  0  0
 16 24  1  0  0  0  0
 16 27  2  0  0  0  0
 17 29  2  0  0  0  0
 17 31  1  0  0  0  0
 18 32  1  0  0  0  0
 19 30  2  0  0  0  0
 19 35  1  0  0  0  0
 20 32  1  0  0  0  0
 20 33  2  0  0  0  0
 20 34  1  0  0  0  0
 21 23  2  0  0  0  0
 21 41  1  0  0  0  0
 22 24  2  0  0  0  0
 22 42  1  0  0  0  0
 23 50  1  0  0  0  0
 24 43  1  0  0  0  0
 25 70  1  0  0  0  0
 26 81  1  0  0  0  0
 27 82  1  0  0  0  0
 28 31  2  0  0  0  0
 28 81  1  0  0  0  0
 29 83  1  0  0  0  0
 30 84  1  0  0  0  0
 31 85  1  0  0  0  0
 32 64  2  0  0  0  0
 33 65  1  0  0  0  0
 33 68  1  0  0  0  0
 34 69  1  0  0  0  0
 34 75  2  0  0  0  0
 35 71  1  0  0  0  0
 35 86  2  0  0  0  0
 36 51  1  0  0  0  0
 36 72  1  0  0  0  0
 36 76  2  0  0  0  0
 37 59  1  0  0  0  0
 37 60  1  0  0  0  0
 37 77  2  0  0  0  0
 38 61  1  0  0  0  0
 38 66  1  0  0  0  0
 38 78  2  0  0  0  0
 39 62  1  0  0  0  0
 39 73  1  0  0  0  0
 39 79  2  0  0  0  0
 40 67  1  0  0  0  0
 40 70  1  0  0  0  0
 40 80  2  0  0  0  0
 41 44  1  0  0  0  0
 42 51  1  0  0  0  0
 43 66  1  0  0  0  0
 44 46  1  0  0  0  0
 45 47  1  0  0  0  0
 45 48  1  0  0  0  0
 46 50  1  0  0  0  0
 47 52  1  0  0  0  0
 48 67  1  0  0  0  0
 49 52  1  0  0  0  0
 49 67  1  0  0  0  0
 50 72  1  0  0  0  0
 51 66  1  0  0  0  0
 52 65  1  0  0  0  0
 53 60  1  0  0  0  0
 54 62  1  0  0  0  0
 55 63  1  0  0  0  0
 56 63  1  0  0  0  0
 57 63  1  0  0  0  0
 58 74  1  0  0  0  0
 59 82  1  0  0  0  0
 60 71  1  0  0  0  0
 61 63  1  0  0  0  0
 61 73  1  0  0  0  0
 62 74  1  0  0  0  0
 64 65  1  0  0  0  0
M  CHG  1  74   1
M  ISO  4  40 100  59 101  70 100  82 101
M  END
> <Batch ID>
0065

> <Smiles>
CNC(C)C(=O)NC(C(=O)N1Cc2cc([101O:1][101CH2:1]C(=O)C(C)NC(=S)c3cc([100NH:0][100C:0](=O)N4CCCC(n5nc(-c6ccc(Oc7ccc(F)cc7F)cc6)c(C(N)=O)c5N)C4)ccc3F)ccc2CC1C(=O)NC1CCCc2ccccc21)C(C)(C)C

> <Shape>
0.204

> <Color>
0.082

> <Negative vol penalty>
0.000

$$$$

  -OEChem-04042323183D

 88 97  0     1  0  0  0  0  0999 V2000
  -26.3355  -36.0752   16.1740 C   0  0  0  0  0  0  0  0  0  0  0  0
  -26.5067  -34.6961   16.1103 C   0  0  0  0  0  0  0  0  0  0  0  0
  -24.7850   -8.7027   21.6435 C   0  0  0  0  0  0  0  0  0  0  0  0
  -23.2354   -9.9020   20.2302 C   0  0  0  0  0  0  0  0  0  0  0  0
  -26.4450  -36.7343   17.3978 C   0  0  0  0  0  0  0  0  0  0  0  0
  -26.7887  -33.9753   17.2702 C   0  0  0  0  0  0  0  0  0  0  0  0
  -24.9221  -28.3018   18.6240 C   0  0  0  0  0  0  0  0  0  0  0  0
  -23.7284   -8.2996   22.4600 C   0  0  0  0  0  0  0  0  0  0  0  0
  -22.1787   -9.4989   21.0466 C   0  0  0  0  0  0  0  0  0  0  0  0
  -25.5481  -27.0599   18.5260 C   0  0  0  0  0  0  0  0  0  0  0  0
  -21.2816   -5.9667   22.3972 C   0  0  0  0  0  0  0  0  0  0  0  0
  -21.2435   -4.6305   22.7955 C   0  0  0  0  0  0  0  0  0  0  0  0
  -24.9256  -19.4269   16.9365 C   0  0  0  0  0  0  0  0  0  0  0  0
  -25.1991  -17.0285   16.8366 C   0  0  0  0  0  0  0  0  0  0  0  0
  -26.1899  -27.2070   20.8467 C   0  0  0  0  0  0  0  0  0  0  0  0
  -26.8264  -18.3824   18.0010 C   0  0  0  0  0  0  0  0  0  0  0  0
  -21.3557   -5.3170   25.1093 C   0  0  0  0  0  0  0  0  0  0  0  0
  -24.5385   -9.5040   20.5286 C   0  0  0  0  0  0  0  0  0  0  0  0
  -24.4744  -18.1761   16.5150 C   0  0  0  0  0  0  0  0  0  0  0  0
  -26.1375   -9.2488   18.5573 C   0  0  0  0  0  0  0  0  0  0  0  0
  -26.7188  -36.0199   18.5748 C   0  0  0  0  0  0  0  0  0  0  0  0
  -24.9346  -29.0118   19.8332 C   0  0  0  0  0  0  0  0  0  0  0  0
  -26.9032  -34.6256   18.5106 C   0  0  0  0  0  0  0  0  0  0  0  0
  -25.5610  -28.4565   20.9582 C   0  0  0  0  0  0  0  0  0  0  0  0
  -26.1017  -19.5300   17.6794 C   0  0  0  0  0  0  0  0  0  0  0  0
  -26.3751  -17.1317   17.5796 C   0  0  0  0  0  0  0  0  0  0  0  0
  -22.4253   -8.6977   22.1615 C   0  0  0  0  0  0  0  0  0  0  0  0
  -26.1846  -26.5137   19.6367 C   0  0  0  0  0  0  0  0  0  0  0  0
  -21.3569   -6.9781   23.3549 C   0  0  0  0  0  0  0  0  0  0  0  0
  -21.2805   -4.3057   24.1515 C   0  0  0  0  0  0  0  0  0  0  0  0
  -21.3939   -6.6533   24.7109 C   0  0  0  0  0  0  0  0  0  0  0  0
  -25.6296   -9.9212   19.6851 C   0  0  0  0  0  0  0  0  0  0  0  0
  -27.1612  -10.0492   18.1126 C   0  0  0  0  0  0  0  0  0  0  0  0
  -27.9073  -22.4999   18.8078 C   0  0  0  0  0  0  0  0  0  0  0  0
  -27.8868  -21.0952   18.2861 C   0  0  0  0  0  0  0  0  0  0  0  0
  -23.2482  -18.0686   15.7406 C   0  0  0  0  0  0  0  0  0  0  0  0
  -25.7210   -8.0115   17.9647 C   0  0  0  0  0  0  0  0  0  0  0  0
  -26.0882  -31.8205   20.7734 C   0  0  0  0  0  0  0  0  0  0  0  0
  -24.5348  -31.0971   23.5277 C   0  0  0  0  0  0  0  0  0  0  0  0
  -23.2379  -28.6969   25.5780 C   0  0  0  0  0  0  0  0  0  0  0  0
  -28.2972  -15.8922   18.6359 C   0  0  0  0  0  0  0  0  0  0  0  0
  -26.8747  -36.7821   19.8669 C   0  0  0  0  0  0  0  0  0  0  0  0
  -24.2317  -30.3380   19.9298 C   0  0  0  0  0  0  0  0  0  0  0  0
  -25.5854  -29.1692   22.2848 C   0  0  0  0  0  0  0  0  0  0  0  0
  -26.8048  -35.8968   21.1085 C   0  0  0  0  0  0  0  0  0  0  0  0
  -30.3947  -13.2129   19.6842 C   0  0  0  0  0  0  0  0  0  0  0  0
  -27.6743  -34.6563   20.9294 C   0  0  0  0  0  0  0  0  0  0  0  0
  -29.4584  -12.0024   19.6949 C   0  0  0  0  0  0  0  0  0  0  0  0
  -29.6831  -14.4844   20.1433 C   0  0  0  0  0  0  0  0  0  0  0  0
  -25.6737  -21.9019   18.3953 C   0  0  0  0  0  0  0  0  0  0  0  0
  -27.5020  -13.5815   19.4383 C   0  0  0  0  0  0  0  0  0  0  0  0
  -27.1856  -33.8056   19.7508 C   0  0  1  0  0  0  0  0  0  0  0  0
  -26.5148  -22.9641   19.1085 C   0  0  2  0  0  0  0  0  0  0  0  0
  -24.7494  -31.2069   21.0718 C   0  0  1  0  0  0  0  0  0  0  0  0
  -28.1566  -12.2899   18.9215 C   0  0  2  0  0  0  0  0  0  0  0  0
  -22.1830  -19.0985   15.9819 C   0  0  0  0  0  0  0  0  0  0  0  0
  -22.0642  -28.4089   27.7773 C   0  0  0  0  0  0  0  0  0  0  0  0
  -27.1662  -31.5851   24.9931 C   0  0  0  0  0  0  0  0  0  0  0  0
  -26.2057  -30.3890   26.9717 C   0  0  0  0  0  0  0  0  0  0  0  0
  -25.1436  -32.4917   26.1512 C   0  0  0  0  0  0  0  0  0  0  0  0
  -20.8699  -27.4786   24.2867 C   0  0  0  0  0  0  0  0  0  0  0  0
  -26.2532  -24.3694   18.6104 C   0  0  0  0  0  0  0  0  0  1  0  0
  -24.8968  -30.3693   24.7998 C   0  0  1  0  0  0  0  0  0  0  0  0
  -21.8946  -28.5873   26.2766 C   0  0  2  0  0  0  0  0  0  0  0  0
  -25.8545  -31.1960   25.7036 C   0  0  0  0  0  0  0  0  0  0  0  0
  -26.2774  -11.0609   19.9410 N   0  0  0  0  0  0  0  0  0  0  0  0
  -27.2029  -11.1108   18.9678 N   0  0  0  0  0  0  0  0  0  0  0  0
  -26.5515  -20.7765   18.0994 N   0  0  0  0  0  0  0  0  0  0  0  0
  -24.8896  -30.4660   22.3270 N   0  0  0  0  0  0  0  0  0  0  0  0
  -28.4614  -14.6945   19.3635 N   0  0  0  0  0  0  0  0  0  0  0  0
  -28.0209   -9.9414   17.0773 N   0  0  0  0  0  0  0  0  0  0  0  0
  -24.6526   -7.3173   18.5485 N   0  0  0  0  0  0  0  0  0  0  0  0
  -27.1110  -15.9657   17.9064 N   0  0  0  0  0  0  0  0  0  0  0  0
  -26.0167  -33.0412   20.1297 N   0  0  0  0  0  0  0  0  0  0  0  0
  -23.6349  -30.0099   25.4377 N   0  0  0  0  0  0  0  0  0  0  0  0
  -21.1296  -27.4225   25.7484 N   0  3  0  0  0  0  0  0  0  0  0  0
  -28.9516  -23.0993   18.9669 O   0  0  0  0  0  0  0  0  0  0  0  0
  -28.9044  -20.4614   18.0989 O   0  0  0  0  0  0  0  0  0  0  0  0
  -23.0150  -17.1932   14.9045 O   0  0  0  0  0  0  0  0  0  0  0  0
  -26.2905   -7.5272   16.9574 O   0  0  0  0  0  0  0  0  0  0  0  0
  -27.1102  -31.2309   21.1041 O   0  0  0  0  0  0  0  0  0  0  0  0
  -23.9521  -32.1822   23.5967 O   0  0  0  0  0  0  0  0  0  0  0  0
  -23.8733  -27.7158   25.1984 O   0  0  0  0  0  0  0  0  0  0  0  0
  -29.1587  -16.7752   18.6366 O   0  0  0  0  0  0  0  0  0  0  0  0
  -21.3940   -8.3043   22.9579 O   0  0  0  0  0  0  0  0  0  0  0  0
  -26.7970  -25.3020   19.5436 O   0  0  0  0  0  0  0  0  0  1  0  0
  -21.2423   -3.0225   24.5340 F   0  0  0  0  0  0  0  0  0  0  0  0
  -21.4651   -7.6206   25.6356 F   0  0  0  0  0  0  0  0  0  0  0  0
  1  2  1  0  0  0  0
  1  5  2  0  0  0  0
  2  6  2  0  0  0  0
  3  8  2  0  0  0  0
  3 18  1  0  0  0  0
  4  9  1  0  0  0  0
  4 18  2  0  0  0  0
  5 21  1  0  0  0  0
  6 23  1  0  0  0  0
  7 10  2  0  0  0  0
  7 22  1  0  0  0  0
  8 27  1  0  0  0  0
  9 27  2  0  0  0  0
 10 28  1  0  0  0  0
 11 12  2  0  0  0  0
 11 29  1  0  0  0  0
 12 30  1  0  0  0  0
 13 19  1  0  0  0  0
 13 25  2  0  0  0  0
 14 19  2  0  0  0  0
 14 26  1  0  0  0  0
 15 24  1  0  0  0  0
 15 28  2  0  0  0  0
 16 25  1  0  0  0  0
 16 26  2  0  0  0  0
 17 30  2  0  0  0  0
 17 31  1  0  0  0  0
 18 32  1  0  0  0  0
 19 36  1  0  0  0  0
 20 32  1  0  0  0  0
 20 33  2  0  0  0  0
 20 37  1  0  0  0  0
 21 23  2  0  0  0  0
 21 42  1  0  0  0  0
 22 24  2  0  0  0  0
 22 43  1  0  0  0  0
 23 52  1  0  0  0  0
 24 44  1  0  0  0  0
 25 68  1  0  0  0  0
 26 73  1  0  0  0  0
 27 85  1  0  0  0  0
 28 86  1  0  0  0  0
 29 31  2  0  0  0  0
 29 85  1  0  0  0  0
 30 87  1  0  0  0  0
 31 88  1  0  0  0  0
 32 66  2  0  0  0  0
 33 67  1  0  0  0  0
 33 71  1  0  0  0  0
 34 35  1  0  0  0  0
 34 53  1  0  0  0  0
 34 77  2  0  0  0  0
 35 68  1  0  0  0  0
 35 78  2  0  0  0  0
 36 56  1  0  0  0  0
 36 79  2  0  0  0  0
 37 72  1  0  0  0  0
 37 80  2  0  0  0  0
 38 54  1  0  0  0  0
 38 74  1  0  0  0  0
 38 81  2  0  0  0  0
 39 63  1  0  0  0  0
 39 69  1  0  0  0  0
 39 82  2  0  0  0  0
 40 64  1  0  0  0  0
 40 75  1  0  0  0  0
 40 83  2  0  0  0  0
 41 70  1  0  0  0  0
 41 73  1  0  0  0  0
 41 84  2  0  0  0  0
 42 45  1  0  0  0  0
 43 54  1  0  0  0  0
 44 69  1  0  0  0  0
 45 47  1  0  0  0  0
 46 48  1  0  0  0  0
 46 49  1  0  0  0  0
 47 52  1  0  0  0  0
 48 55  1  0  0  0  0
 49 70  1  0  0  0  0
 50 53  1  0  0  0  0
 50 68  1  0  0  0  0
 51 55  1  0  0  0  0
 51 70  1  0  0  0  0
 52 74  1  0  0  0  0
 53 62  1  0  0  0  0
 54 69  1  0  0  0  0
 55 67  1  0  0  0  0
 57 64  1  0  0  0  0
 58 65  1  0  0  0  0
 59 65  1  0  0  0  0
 60 65  1  0  0  0  0
 61 76  1  0  0  0  0
 62 86  1  0  0  0  0
 63 65  1  0  0  0  0
 63 75  1  0  0  0  0
 64 76  1  0  0  0  0
 66 67  1  0  0  0  0
M  CHG  1  76   1
M  ISO  4  41 100  62 101  73 100  86 101
M  END
> <Batch ID>
0065

> <Smiles>
CNC(C)C(=O)NC(C(=O)N1Cc2cc([101O:1][101CH2:1]C3CN(c4cc([100NH:0][100C:0](=O)N5CCCC(n6nc(-c7ccc(Oc8ccc(F)cc8F)cc7)c(C(N)=O)c6N)C5)cc(C(C)=O)c4)C(=O)C3=O)ccc2CC1C(=O)NC1CCCc2ccccc21)C(C)(C)C

> <Shape>
0.237

> <Color>
0.125

> <Negative vol penalty>
0.000

$$$$

  -OEChem-04042323183D

 85 93  0     1  0  0  0  0  0999 V2000
  -18.2847  -25.1781   21.5150 C   0  0  0  0  0  0  0  0  0  0  0  0
  -19.5228  -24.6760   21.9030 C   0  0  0  0  0  0  0  0  0  0  0  0
  -23.5412   -9.8058   21.5396 C   0  0  0  0  0  0  0  0  0  0  0  0
  -24.0697  -10.9077   23.6237 C   0  0  0  0  0  0  0  0  0  0  0  0
  -18.1977  -26.4418   20.9327 C   0  0  0  0  0  0  0  0  0  0  0  0
  -20.6748  -25.4372   21.7078 C   0  0  0  0  0  0  0  0  0  0  0  0
  -25.6137  -25.6344   25.3236 C   0  0  0  0  0  0  0  0  0  0  0  0
  -28.8771  -19.0565   21.3196 C   0  0  0  0  0  0  0  0  0  0  0  0
  -29.2450  -20.3251   21.7678 C   0  0  0  0  0  0  0  0  0  0  0  0
  -22.9455   -8.7595   22.2438 C   0  0  0  0  0  0  0  0  0  0  0  0
  -23.4740   -9.8614   24.3280 C   0  0  0  0  0  0  0  0  0  0  0  0
  -26.8530  -24.9996   25.2542 C   0  0  0  0  0  0  0  0  0  0  0  0
  -23.9461   -6.0219   23.9551 C   0  0  0  0  0  0  0  0  0  0  0  0
  -24.2459   -4.7195   23.5557 C   0  0  0  0  0  0  0  0  0  0  0  0
  -31.2052  -18.4194   21.2121 C   0  0  0  0  0  0  0  0  0  0  0  0
  -27.7848  -26.9491   24.1818 C   0  0  0  0  0  0  0  0  0  0  0  0
  -21.9063   -4.3193   23.1047 C   0  0  0  0  0  0  0  0  0  0  0  0
  -24.1033  -10.8800   22.2296 C   0  0  0  0  0  0  0  0  0  0  0  0
  -31.5730  -19.6881   21.6603 C   0  0  0  0  0  0  0  0  0  0  0  0
  -24.0984  -13.1361   21.0390 C   0  0  0  0  0  0  0  0  0  0  0  0
  -19.3480  -27.2228   20.7390 C   0  0  0  0  0  0  0  0  0  0  0  0
  -25.4477  -26.9295   24.8119 C   0  0  0  0  0  0  0  0  0  0  0  0
  -20.6032  -26.7120   21.1210 C   0  0  0  0  0  0  0  0  0  0  0  0
  -26.5430  -27.5992   24.2482 C   0  0  0  0  0  0  0  0  0  0  0  0
  -29.8572  -18.1036   21.0418 C   0  0  0  0  0  0  0  0  0  0  0  0
  -30.5929  -20.6409   21.9382 C   0  0  0  0  0  0  0  0  0  0  0  0
  -22.9119   -8.7873   23.6380 C   0  0  0  0  0  0  0  0  0  0  0  0
  -27.9381  -25.6558   24.6806 C   0  0  0  0  0  0  0  0  0  0  0  0
  -22.6264   -6.4730   23.9294 C   0  0  0  0  0  0  0  0  0  0  0  0
  -23.2260   -3.8682   23.1305 C   0  0  0  0  0  0  0  0  0  0  0  0
  -21.6065   -5.6217   23.5041 C   0  0  0  0  0  0  0  0  0  0  0  0
  -24.7193  -11.9608   21.5027 C   0  0  0  0  0  0  0  0  0  0  0  0
  -25.1046  -13.8333   20.4162 C   0  0  0  0  0  0  0  0  0  0  0  0
  -32.9901  -19.9872   21.8254 C   0  0  0  0  0  0  0  0  0  0  0  0
  -22.7340  -13.5597   21.1605 C   0  0  0  0  0  0  0  0  0  0  0  0
  -23.6750  -28.2225   22.5121 C   0  0  0  0  0  0  0  0  0  0  0  0
  -24.8845  -30.9979   23.6769 C   0  0  0  0  0  0  0  0  0  0  0  0
  -30.0843  -22.9846   22.7079 C   0  0  0  0  0  0  0  0  0  0  0  0
  -27.3784  -32.5794   25.3875 C   0  0  0  0  0  0  0  0  0  0  0  0
  -30.3286  -15.7541   20.2648 C   0  0  0  0  0  0  0  0  0  0  0  0
  -19.2097  -28.5635   20.0622 C   0  0  0  0  0  0  0  0  0  0  0  0
  -24.1109  -27.6107   24.9187 C   0  0  0  0  0  0  0  0  0  0  0  0
  -26.4223  -28.9979   23.7028 C   0  0  0  0  0  0  0  0  0  0  0  0
  -20.4326  -29.4610   20.2329 C   0  0  0  0  0  0  0  0  0  0  0  0
  -29.7947  -12.4170   19.1440 C   0  0  0  0  0  0  0  0  0  0  0  0
  -21.7123  -28.6776   19.9581 C   0  0  0  0  0  0  0  0  0  0  0  0
  -28.3756  -12.0975   19.6196 C   0  0  0  0  0  0  0  0  0  0  0  0
  -30.5496  -13.2815   20.1522 C   0  0  0  0  0  0  0  0  0  0  0  0
  -28.4367  -14.1908   21.0344 C   0  0  0  0  0  0  0  0  0  0  0  0
  -21.8725  -27.5178   20.9484 C   0  0  1  0  0  0  0  0  0  0  0  0
  -23.9297  -28.7336   23.9019 C   0  0  1  0  0  0  0  0  0  0  0  0
  -27.6149  -13.3762   20.0221 C   0  0  2  0  0  0  0  0  0  0  0  0
  -28.1095  -34.8570   26.1459 C   0  0  0  0  0  0  0  0  0  0  0  0
  -25.7849  -31.6522   20.8359 C   0  0  0  0  0  0  0  0  0  0  0  0
  -27.2938  -33.4060   21.7926 C   0  0  0  0  0  0  0  0  0  0  0  0
  -24.8246  -33.5863   22.0974 C   0  0  0  0  0  0  0  0  0  0  0  0
  -27.2627  -31.7945   28.2387 C   0  0  0  0  0  0  0  0  0  0  0  0
  -30.8780  -24.2056   23.1586 C   0  0  0  0  0  0  0  0  0  0  0  0
  -29.9964  -25.3918   23.5188 C   0  0  0  0  0  0  0  0  0  1  0  0
  -26.1084  -31.8341   23.3910 C   0  0  1  0  0  0  0  0  0  0  0  0
  -27.3393  -33.5980   26.5124 C   0  0  2  0  0  0  0  0  0  0  0  0
  -26.0051  -32.5926   22.0376 C   0  0  0  0  0  0  0  0  0  0  0  0
  -26.0193  -11.9107   21.2001 N   0  0  0  0  0  0  0  0  0  0  0  0
  -26.2234  -13.0631   20.5396 N   0  0  0  0  0  0  0  0  0  0  0  0
  -25.0932  -29.6193   23.8246 N   0  0  0  0  0  0  0  0  0  0  0  0
  -29.7705  -14.4767   20.4830 N   0  0  0  0  0  0  0  0  0  0  0  0
  -25.1326  -15.0239   19.7805 N   0  0  0  0  0  0  0  0  0  0  0  0
  -33.5644  -19.7228   23.0636 N   0  0  0  0  0  0  0  0  0  0  0  0
  -21.8317  -12.7227   21.8310 N   0  0  0  0  0  0  0  0  0  0  0  0
  -30.9427  -21.9347   22.3927 N   0  0  0  0  0  0  0  0  0  0  0  0
  -29.4829  -16.8153   20.5858 N   0  0  0  0  0  0  0  0  0  0  0  0
  -22.3401  -28.0066   22.2278 N   0  0  0  0  0  0  0  0  0  0  0  0
  -26.2900  -32.7016   24.5498 N   0  0  0  0  0  0  0  0  0  0  0  0
  -27.9375  -33.0249   27.7511 N   0  3  0  0  0  0  0  0  0  0  0  0
  -33.6580  -20.4764   20.8998 O   0  0  0  0  0  0  0  0  0  0  0  0
  -22.3235  -14.6407   20.6742 O   0  0  0  0  0  0  0  0  0  0  0  0
  -24.6196  -28.0392   21.7532 O   0  0  0  0  0  0  0  0  0  0  0  0
  -23.7848  -31.5486   23.7729 O   0  0  0  0  0  0  0  0  0  0  0  0
  -28.8592  -22.9871   22.6504 O   0  0  0  0  0  0  0  0  0  0  0  0
  -28.2857  -31.7599   25.2622 O   0  0  0  0  0  0  0  0  0  0  0  0
  -31.4625  -15.8960   19.7999 O   0  0  0  0  0  0  0  0  0  0  0  0
  -22.3305   -7.7665   24.3255 O   0  0  0  0  0  0  0  0  0  0  0  0
  -29.1487  -25.0381   24.6109 O   0  0  0  0  0  0  0  0  0  1  0  0
  -23.5142   -2.6181   22.7455 F   0  0  0  0  0  0  0  0  0  0  0  0
  -20.3370   -6.0498   23.4761 F   0  0  0  0  0  0  0  0  0  0  0  0
  1  2  1  0  0  0  0
  1  5  2  0  0  0  0
  2  6  2  0  0  0  0
  3 10  2  0  0  0  0
  3 18  1  0  0  0  0
  4 11  1  0  0  0  0
  4 18  2  0  0  0  0
  5 21  1  0  0  0  0
  6 23  1  0  0  0  0
  7 12  2  0  0  0  0
  7 22  1  0  0  0  0
  8  9  2  0  0  0  0
  8 25  1  0  0  0  0
  9 26  1  0  0  0  0
 10 27  1  0  0  0  0
 11 27  2  0  0  0  0
 12 28  1  0  0  0  0
 13 14  2  0  0  0  0
 13 29  1  0  0  0  0
 14 30  1  0  0  0  0
 15 19  1  0  0  0  0
 15 25  2  0  0  0  0
 16 24  1  0  0  0  0
 16 28  2  0  0  0  0
 17 30  2  0  0  0  0
 17 31  1  0  0  0  0
 18 32  1  0  0  0  0
 19 26  2  0  0  0  0
 19 34  1  0  0  0  0
 20 32  1  0  0  0  0
 20 33  2  0  0  0  0
 20 35  1  0  0  0  0
 21 23  2  0  0  0  0
 21 41  1  0  0  0  0
 22 24  2  0  0  0  0
 22 42  1  0  0  0  0
 23 50  1  0  0  0  0
 24 43  1  0  0  0  0
 25 71  1  0  0  0  0
 26 70  1  0  0  0  0
 27 82  1  0  0  0  0
 28 83  1  0  0  0  0
 29 31  2  0  0  0  0
 29 82  1  0  0  0  0
 30 84  1  0  0  0  0
 31 85  1  0  0  0  0
 32 63  2  0  0  0  0
 33 64  1  0  0  0  0
 33 67  1  0  0  0  0
 34 68  1  0  0  0  0
 34 75  2  0  0  0  0
 35 69  1  0  0  0  0
 35 76  2  0  0  0  0
 36 51  1  0  0  0  0
 36 72  1  0  0  0  0
 36 77  2  0  0  0  0
 37 60  1  0  0  0  0
 37 65  1  0  0  0  0
 37 78  2  0  0  0  0
 38 58  1  0  0  0  0
 38 70  1  0  0  0  0
 38 79  2  0  0  0  0
 39 61  1  0  0  0  0
 39 73  1  0  0  0  0
 39 80  2  0  0  0  0
 40 66  1  0  0  0  0
 40 71  1  0  0  0  0
 40 81  2  0  0  0  0
 41 44  1  0  0  0  0
 42 51  1  0  0  0  0
 43 65  1  0  0  0  0
 44 46  1  0  0  0  0
 45 47  1  0  0  0  0
 45 48  1  0  0  0  0
 46 50  1  0  0  0  0
 47 52  1  0  0  0  0
 48 66  1  0  0  0  0
 49 52  1  0  0  0  0
 49 66  1  0  0  0  0
 50 72  1  0  0  0  0
 51 65  1  0  0  0  0
 52 64  1  0  0  0  0
 53 61  1  0  0  0  0
 54 62  1  0  0  0  0
 55 62  1  0  0  0  0
 56 62  1  0  0  0  0
 57 74  1  0  0  0  0
 58 59  1  0  0  0  0
 59 83  1  0  0  0  0
 60 62  1  0  0  0  0
 60 73  1  0  0  0  0
 61 74  1  0  0  0  0
 63 64  1  0  0  0  0
M  CHG  1  74   1
M  ISO  4  40 100  59 101  71 100  83 101
M  END
> <Batch ID>
0065

> <Smiles>
CNC(C)C(=O)NC(C(=O)N1Cc2cc([101O:1][101CH2:1]CC(=O)Nc3ccc([100NH:0][100C:0](=O)N4CCCC(n5nc(-c6ccc(Oc7ccc(F)cc7F)cc6)c(C(N)=O)c5N)C4)cc3C(N)=O)ccc2CC1C(=O)NC1CCCc2ccccc21)C(C)(C)C

> <Shape>
0.278

> <Color>
0.128

> <Negative vol penalty>
0.000

$$$$

  -OEChem-04042323183D

 89 98  0     1  0  0  0  0  0999 V2000
  -26.4742  -37.8024   23.7067 C   0  0  0  0  0  0  0  0  0  0  0  0
  -27.3352  -36.8864   23.1108 C   0  0  0  0  0  0  0  0  0  0  0  0
  -24.6824   -9.0151   21.4397 C   0  0  0  0  0  0  0  0  0  0  0  0
  -23.1104  -10.8489   21.4954 C   0  0  0  0  0  0  0  0  0  0  0  0
  -25.5062  -37.3627   24.6086 C   0  0  0  0  0  0  0  0  0  0  0  0
  -27.2293  -35.5302   23.4173 C   0  0  0  0  0  0  0  0  0  0  0  0
  -28.0770  -29.0573   20.4679 C   0  0  0  0  0  0  0  0  0  0  0  0
  -23.9393   -8.3484   22.4139 C   0  0  0  0  0  0  0  0  0  0  0  0
  -22.3673  -10.1822   22.4695 C   0  0  0  0  0  0  0  0  0  0  0  0
  -28.7281  -27.8461   20.6973 C   0  0  0  0  0  0  0  0  0  0  0  0
  -22.2590   -6.0027   24.6250 C   0  0  0  0  0  0  0  0  0  0  0  0
  -22.0105   -4.6435   24.4339 C   0  0  0  0  0  0  0  0  0  0  0  0
  -26.9660  -27.1922   22.2095 C   0  0  0  0  0  0  0  0  0  0  0  0
  -25.5846  -18.6801   20.2326 C   0  0  0  0  0  0  0  0  0  0  0  0
  -27.9015  -19.3647   20.2155 C   0  0  0  0  0  0  0  0  0  0  0  0
  -20.8600   -5.1443   22.3692 C   0  0  0  0  0  0  0  0  0  0  0  0
  -24.2680  -10.2654   20.9806 C   0  0  0  0  0  0  0  0  0  0  0  0
  -24.8816  -10.8655   18.5783 C   0  0  0  0  0  0  0  0  0  0  0  0
  -25.3821  -35.9993   24.9190 C   0  0  0  0  0  0  0  0  0  0  0  0
  -26.8689  -29.3501   21.1170 C   0  0  0  0  0  0  0  0  0  0  0  0
  -26.2596  -35.0720   24.3252 C   0  0  0  0  0  0  0  0  0  0  0  0
  -26.3002  -28.4068   21.9846 C   0  0  0  0  0  0  0  0  0  0  0  0
  -25.1892  -20.0174   20.2026 C   0  0  0  0  0  0  0  0  0  0  0  0
  -27.5061  -20.7020   20.1854 C   0  0  0  0  0  0  0  0  0  0  0  0
  -26.9407  -18.3537   20.2391 C   0  0  0  0  0  0  0  0  0  0  0  0
  -22.7817   -8.9319   22.9287 C   0  0  0  0  0  0  0  0  0  0  0  0
  -28.1741  -26.9145   21.5704 C   0  0  0  0  0  0  0  0  0  0  0  0
  -21.8080   -6.9327   23.6883 C   0  0  0  0  0  0  0  0  0  0  0  0
  -21.3111   -4.2143   23.3060 C   0  0  0  0  0  0  0  0  0  0  0  0
  -21.1085   -6.5034   22.5604 C   0  0  0  0  0  0  0  0  0  0  0  0
  -26.1499  -21.0284   20.1790 C   0  0  0  0  0  0  0  0  0  0  0  0
  -25.0356  -10.9548   19.9747 C   0  0  0  0  0  0  0  0  0  0  0  0
  -25.8429  -11.7060   18.0724 C   0  0  0  0  0  0  0  0  0  0  0  0
  -29.7779  -21.6534   19.5977 C   0  0  0  0  0  0  0  0  0  0  0  0
  -23.9527  -10.0919   17.8073 C   0  0  0  0  0  0  0  0  0  0  0  0
  -25.9073  -31.5811   23.1668 C   0  0  0  0  0  0  0  0  0  0  0  0
  -23.0043  -30.2143   22.6904 C   0  0  0  0  0  0  0  0  0  0  0  0
  -21.2161  -27.4551   21.7761 C   0  0  0  0  0  0  0  0  0  0  0  0
  -28.6456  -16.4995   20.2796 C   0  0  0  0  0  0  0  0  0  0  0  0
  -24.3512  -35.5772   25.9358 C   0  0  0  0  0  0  0  0  0  0  0  0
  -26.1655  -30.6500   20.8382 C   0  0  0  0  0  0  0  0  0  0  0  0
  -24.9950  -28.6643   22.6907 C   0  0  0  0  0  0  0  0  0  0  0  0
  -30.4138  -23.0188   19.7261 C   0  0  0  0  0  0  0  0  0  0  0  0
  -24.0596  -34.0788   25.9216 C   0  0  0  0  0  0  0  0  0  0  0  0
  -30.1620  -13.5027   19.0979 C   0  0  0  0  0  0  0  0  0  0  0  0
  -25.3600  -33.2822   25.8850 C   0  0  0  0  0  0  0  0  0  0  0  0
  -29.0042  -12.5027   19.0557 C   0  0  0  0  0  0  0  0  0  0  0  0
  -30.0503  -14.4497   20.2913 C   0  0  0  0  0  0  0  0  0  0  0  0
  -28.2267  -23.0652   20.6757 C   0  0  0  0  0  0  0  0  0  0  0  0
  -27.6065  -14.1484   20.3691 C   0  0  0  0  0  0  0  0  0  0  0  0
  -26.1597  -33.5897   24.6133 C   0  0  1  0  0  0  0  0  0  0  0  0
  -25.2014  -31.0577   21.9481 C   0  0  1  0  0  0  0  0  0  0  0  0
  -29.6065  -23.6864   20.8302 C   0  0  2  0  0  0  0  0  0  0  0  0
  -27.6406  -13.2152   19.1478 C   0  0  2  0  0  0  0  0  0  0  0  0
  -18.8598  -26.6297   21.5226 C   0  0  0  0  0  0  0  0  0  0  0  0
  -23.1827  -20.5263   21.6076 C   0  0  0  0  0  0  0  0  0  0  0  0
  -22.7816  -29.9272   25.7199 C   0  0  0  0  0  0  0  0  0  0  0  0
  -20.9226  -28.2896   25.3581 C   0  0  0  0  0  0  0  0  0  0  0  0
  -20.6740  -30.6474   24.5825 C   0  0  0  0  0  0  0  0  0  0  0  0
  -21.5747  -26.9695   18.8787 C   0  0  0  0  0  0  0  0  0  0  0  0
  -29.5944  -25.2019   20.7303 C   0  0  0  0  0  0  0  0  0  1  0  0
  -22.2317  -29.0916   23.3397 C   0  0  1  0  0  0  0  0  0  0  0  0
  -20.0437  -27.2836   20.8271 C   0  0  2  0  0  0  0  0  0  0  0  0
  -23.7380  -20.3625   20.1948 C   0  0  0  0  0  0  0  0  0  0  0  0
  -21.6781  -29.4846   24.7384 C   0  0  0  0  0  0  0  0  0  0  0  0
  -26.0175  -11.7863   20.3331 N   0  0  0  0  0  0  0  0  0  0  0  0
  -26.4893  -12.2271   19.1545 N   0  0  0  0  0  0  0  0  0  0  0  0
  -28.4909  -21.7344   20.1616 N   0  0  0  0  0  0  0  0  0  0  0  0
  -24.3486  -29.9525   22.3902 N   0  0  0  0  0  0  0  0  0  0  0  0
  -28.7341  -15.0917   20.3111 N   0  0  0  0  0  0  0  0  0  0  0  0
  -26.1900  -12.0427   16.8120 N   0  0  0  0  0  0  0  0  0  0  0  0
  -23.0326   -9.2816   18.4864 N   0  0  0  0  0  0  0  0  0  0  0  0
  -27.3422  -16.9952   20.2693 N   0  0  0  0  0  0  0  0  0  0  0  0
  -25.5946  -32.8903   23.4794 N   0  0  0  0  0  0  0  0  0  0  0  0
  -21.2062  -28.6941   22.3812 N   0  0  0  0  0  0  0  0  0  0  0  0
  -20.4359  -26.4333   19.6677 N   0  3  0  0  0  0  0  0  0  0  0  0
  -30.3339  -20.7212   19.0351 O   0  0  0  0  0  0  0  0  0  0  0  0
  -23.9497  -10.1060   16.5530 O   0  0  0  0  0  0  0  0  0  0  0  0
  -26.6775  -30.8506   23.7793 O   0  0  0  0  0  0  0  0  0  0  0  0
  -22.4341  -31.2818   22.4517 O   0  0  0  0  0  0  0  0  0  0  0  0
  -22.0545  -26.5765   21.9647 O   0  0  0  0  0  0  0  0  0  0  0  0
  -29.6517  -17.2122   20.2355 O   0  0  0  0  0  0  0  0  0  0  0  0
  -22.0562   -8.2816   23.8791 O   0  0  0  0  0  0  0  0  0  0  0  0
  -28.8080  -25.7317   21.7967 O   0  0  0  0  0  0  0  0  0  1  0  0
  -21.0738   -2.9089   23.1218 F   0  0  0  0  0  0  0  0  0  0  0  0
  -20.6737   -7.3920   21.6565 F   0  0  0  0  0  0  0  0  0  0  0  0
  -25.7673  -22.3139   20.1507 F   0  0  0  0  0  0  0  0  0  0  0  0
  -22.9658  -19.4184   19.5673 F   0  0  0  0  0  0  0  0  0  0  0  0
  -23.4671  -21.5255   19.5199 F   0  0  0  0  0  0  0  0  0  0  0  0
  1  2  1  0  0  0  0
  1  5  2  0  0  0  0
  2  6  2  0  0  0  0
  3  8  2  0  0  0  0
  3 17  1  0  0  0  0
  4  9  1  0  0  0  0
  4 17  2  0  0  0  0
  5 19  1  0  0  0  0
  6 21  1  0  0  0  0
  7 10  2  0  0  0  0
  7 20  1  0  0  0  0
  8 26  1  0  0  0  0
  9 26  2  0  0  0  0
 10 27  1  0  0  0  0
 11 12  2  0  0  0  0
 11 28  1  0  0  0  0
 12 29  1  0  0  0  0
 13 22  1  0  0  0  0
 13 27  2  0  0  0  0
 14 23  2  0  0  0  0
 14 25  1  0  0  0  0
 15 24  1  0  0  0  0
 15 25  2  0  0  0  0
 16 29  2  0  0  0  0
 16 30  1  0  0  0  0
 17 32  1  0  0  0  0
 18 32  1  0  0  0  0
 18 33  2  0  0  0  0
 18 35  1  0  0  0  0
 19 21  2  0  0  0  0
 19 40  1  0  0  0  0
 20 22  2  0  0  0  0
 20 41  1  0  0  0  0
 21 51  1  0  0  0  0
 22 42  1  0  0  0  0
 23 31  1  0  0  0  0
 23 64  1  0  0  0  0
 24 31  2  0  0  0  0
 24 68  1  0  0  0  0
 25 73  1  0  0  0  0
 26 83  1  0  0  0  0
 27 84  1  0  0  0  0
 28 30  2  0  0  0  0
 28 83  1  0  0  0  0
 29 85  1  0  0  0  0
 30 86  1  0  0  0  0
 31 87  1  0  0  0  0
 32 66  2  0  0  0  0
 33 67  1  0  0  0  0
 33 71  1  0  0  0  0
 34 43  1  0  0  0  0
 34 68  1  0  0  0  0
 34 77  2  0  0  0  0
 35 72  1  0  0  0  0
 35 78  2  0  0  0  0
 36 52  1  0  0  0  0
 36 74  1  0  0  0  0
 36 79  2  0  0  0  0
 37 62  1  0  0  0  0
 37 69  1  0  0  0  0
 37 80  2  0  0  0  0
 38 63  1  0  0  0  0
 38 75  1  0  0  0  0
 38 81  2  0  0  0  0
 39 70  1  0  0  0  0
 39 73  1  0  0  0  0
 39 82  2  0  0  0  0
 40 44  1  0  0  0  0
 41 52  1  0  0  0  0
 42 69  1  0  0  0  0
 43 53  1  0  0  0  0
 44 46  1  0  0  0  0
 45 47  1  0  0  0  0
 45 48  1  0  0  0  0
 46 51  1  0  0  0  0
 47 54  1  0  0  0  0
 48 70  1  0  0  0  0
 49 53  1  0  0  0  0
 49 68  1  0  0  0  0
 50 54  1  0  0  0  0
 50 70  1  0  0  0  0
 51 74  1  0  0  0  0
 52 69  1  0  0  0  0
 53 61  1  0  0  0  0
 54 67  1  0  0  0  0
 55 63  1  0  0  0  0
 56 64  1  0  0  0  0
 57 65  1  0  0  0  0
 58 65  1  0  0  0  0
 59 65  1  0  0  0  0
 60 76  1  0  0  0  0
 61 84  1  0  0  0  0
 62 65  1  0  0  0  0
 62 75  1  0  0  0  0
 63 76  1  0  0  0  0
 64 88  1  0  0  0  0
 64 89  1  0  0  0  0
 66 67  1  0  0  0  0
M  CHG  1  76   1
M  ISO  4  39 100  61 101  73 100  84 101
M  END
> <Batch ID>
0065

> <Smiles>
CNC(C)C(=O)NC(C(=O)N1Cc2cc([101O:1][101CH2:1]C3CC(=O)N(c4cc([100NH:0][100C:0](=O)N5CCCC(n6nc(-c7ccc(Oc8ccc(F)cc8F)cc7)c(C(N)=O)c6N)C5)cc(C(C)(F)F)c4F)C3)ccc2CC1C(=O)NC1CCCc2ccccc21)C(C)(C)C

> <Shape>
0.354

> <Color>
0.082

> <Negative vol penalty>
0.000

$$$$

  -OEChem-04042323183D

 90 99  0     1  0  0  0  0  0999 V2000
  -37.6730  -16.5660   22.8105 C   0  0  0  0  0  0  0  0  0  0  0  0
  -36.7178  -17.1524   21.9865 C   0  0  0  0  0  0  0  0  0  0  0  0
  -21.0207  -26.2227   23.4708 C   0  0  0  0  0  0  0  0  0  0  0  0
  -20.6662  -27.1109   21.2521 C   0  0  0  0  0  0  0  0  0  0  0  0
  -37.5870  -15.2091   23.1195 C   0  0  0  0  0  0  0  0  0  0  0  0
  -35.6765  -16.3820   21.4701 C   0  0  0  0  0  0  0  0  0  0  0  0
  -31.1866  -18.6973   21.8235 C   0  0  0  0  0  0  0  0  0  0  0  0
  -21.8200  -27.3222   23.7833 C   0  0  0  0  0  0  0  0  0  0  0  0
  -21.4655  -28.2105   21.5646 C   0  0  0  0  0  0  0  0  0  0  0  0
  -30.9069  -19.6907   20.8860 C   0  0  0  0  0  0  0  0  0  0  0  0
  -24.7660  -28.9042   21.8019 C   0  0  0  0  0  0  0  0  0  0  0  0
  -25.7146  -29.3043   20.8607 C   0  0  0  0  0  0  0  0  0  0  0  0
  -29.5815  -18.1187   19.6246 C   0  0  0  0  0  0  0  0  0  0  0  0
  -25.5859  -23.2631   17.2367 C   0  0  0  0  0  0  0  0  0  0  0  0
  -24.0954  -25.1487   16.9920 C   0  0  0  0  0  0  0  0  0  0  0  0
  -24.6566  -31.4715   20.7156 C   0  0  0  0  0  0  0  0  0  0  0  0
  -20.4438  -26.1170   22.2051 C   0  0  0  0  0  0  0  0  0  0  0  0
  -18.4301  -24.5835   22.5230 C   0  0  0  0  0  0  0  0  0  0  0  0
  -36.5387  -14.4238   22.6145 C   0  0  0  0  0  0  0  0  0  0  0  0
  -30.6739  -17.4021   21.6625 C   0  0  0  0  0  0  0  0  0  0  0  0
  -35.5772  -15.0131   21.7715 C   0  0  0  0  0  0  0  0  0  0  0  0
  -29.8540  -17.1114   20.5628 C   0  0  0  0  0  0  0  0  0  0  0  0
  -26.4406  -25.3858   16.4618 C   0  0  0  0  0  0  0  0  0  0  0  0
  -26.6525  -24.0496   16.8016 C   0  0  0  0  0  0  0  0  0  0  0  0
  -24.3074  -23.8126   17.3318 C   0  0  0  0  0  0  0  0  0  0  0  0
  -25.1620  -25.9353   16.5570 C   0  0  0  0  0  0  0  0  0  0  0  0
  -22.0424  -28.3162   22.8302 C   0  0  0  0  0  0  0  0  0  0  0  0
  -30.1066  -19.4007   19.7849 C   0  0  0  0  0  0  0  0  0  0  0  0
  -23.7627  -29.7878   22.1999 C   0  0  0  0  0  0  0  0  0  0  0  0
  -25.6599  -30.5879   20.3176 C   0  0  0  0  0  0  0  0  0  0  0  0
  -23.7080  -31.0714   21.6568 C   0  0  0  0  0  0  0  0  0  0  0  0
  -19.6185  -24.9811   21.8815 C   0  0  0  0  0  0  0  0  0  0  0  0
  -18.0350  -23.4559   21.8455 C   0  0  0  0  0  0  0  0  0  0  0  0
  -28.6516  -23.4104   15.4805 C   0  0  0  0  0  0  0  0  0  0  0  0
  -17.7446  -25.1801   23.6319 C   0  0  0  0  0  0  0  0  0  0  0  0
  -31.9497  -14.5169   21.2733 C   0  0  0  0  0  0  0  0  0  0  0  0
  -28.8654  -13.5459   21.5316 C   0  0  0  0  0  0  0  0  0  0  0  0
  -23.7145  -27.9701   16.2592 C   0  0  0  0  0  0  0  0  0  0  0  0
  -25.5528  -14.3089   21.2292 C   0  0  0  0  0  0  0  0  0  0  0  0
  -21.8873  -23.3923   17.9284 C   0  0  0  0  0  0  0  0  0  0  0  0
  -36.5142  -12.9509   22.9379 C   0  0  0  0  0  0  0  0  0  0  0  0
  -30.9629  -16.3489   22.6967 C   0  0  0  0  0  0  0  0  0  0  0  0
  -29.2624  -15.7420   20.3547 C   0  0  0  0  0  0  0  0  0  0  0  0
  -30.1277  -23.0655   15.5410 C   0  0  0  0  0  0  0  0  0  0  0  0
  -35.1692  -12.2872   22.6537 C   0  0  0  0  0  0  0  0  0  0  0  0
  -30.4928  -22.0707   16.6207 C   0  0  0  0  0  0  0  0  0  0  0  0
  -20.4298  -20.1060   19.3219 C   0  0  0  0  0  0  0  0  0  0  0  0
  -34.6490  -12.7015   21.2808 C   0  0  0  0  0  0  0  0  0  0  0  0
  -19.6871  -20.8710   20.4101 C   0  0  0  0  0  0  0  0  0  0  0  0
  -21.5042  -20.9892   18.6936 C   0  0  0  0  0  0  0  0  0  0  0  0
  -28.4689  -22.7305   17.8903 C   0  0  0  0  0  0  0  0  0  0  0  0
  -19.6022  -22.5946   18.5005 C   0  0  0  0  0  0  0  0  0  0  0  0
  -34.4188  -14.2160   21.2120 C   0  0  1  0  0  0  0  0  0  0  0  0
  -30.8100  -14.9283   22.1618 C   0  0  1  0  0  0  0  0  0  0  0  0
  -29.9889  -22.5897   17.9573 C   0  0  1  0  0  0  0  0  0  0  0  0
  -19.0089  -22.1367   19.8487 C   0  0  2  0  0  0  0  0  0  0  0  0
  -27.5854  -26.2310   15.9951 C   0  0  0  0  0  0  0  0  0  0  0  0
  -23.8824  -29.4019   15.8162 C   0  0  0  0  0  0  0  0  0  0  0  0
  -23.2685  -13.2990   21.4727 C   0  0  0  0  0  0  0  0  0  0  0  0
  -29.2419  -12.0639   18.8912 C   0  0  0  0  0  0  0  0  0  0  0  0
  -26.7506  -11.8899   18.7138 C   0  0  0  0  0  0  0  0  0  0  0  0
  -27.9425  -10.8052   20.6179 C   0  0  0  0  0  0  0  0  0  0  0  0
  -24.7953  -16.2431   23.3373 C   0  0  0  0  0  0  0  0  0  0  0  0
  -30.3979  -21.6584   19.0966 C   0  0  0  0  0  0  0  0  0  1  0  0
  -27.7297  -13.3238   20.5621 C   0  0  1  0  0  0  0  0  0  0  0  0
  -24.3771  -14.0794   22.1617 C   0  0  2  0  0  0  0  0  0  0  0  0
  -27.9288  -12.0461   19.6989 C   0  0  0  0  0  0  0  0  0  0  0  0
  -19.9564  -24.1718   20.8741 N   0  0  0  0  0  0  0  0  0  0  0  0
  -18.9744  -23.2543   20.8775 N   0  0  0  0  0  0  0  0  0  0  0  0
  -27.9704  -23.4584   16.7091 N   0  0  0  0  0  0  0  0  0  0  0  0
  -29.5791  -14.7444   21.3901 N   0  0  0  0  0  0  0  0  0  0  0  0
  -21.0430  -22.3522   18.3913 N   0  0  0  0  0  0  0  0  0  0  0  0
  -16.9793  -22.6270   21.9895 N   0  0  0  0  0  0  0  0  0  0  0  0
  -16.7719  -26.1546   23.3702 N   0  0  0  0  0  0  0  0  0  0  0  0
  -24.9268  -27.2713   16.2207 N   0  0  0  0  0  0  0  0  0  0  0  0
  -23.2233  -23.0127   17.7735 N   0  0  0  0  0  0  0  0  0  0  0  0
  -33.1877  -14.5711   21.8848 N   0  0  0  0  0  0  0  0  0  0  0  0
  -26.5074  -13.3224   21.3586 N   0  0  0  0  0  0  0  0  0  0  0  0
  -23.8187  -15.3823   22.6216 N   0  3  0  0  0  0  0  0  0  0  0  0
  -28.1641  -23.6811   14.3797 O   0  0  0  0  0  0  0  0  0  0  0  0
  -17.9990  -24.8704   24.8206 O   0  0  0  0  0  0  0  0  0  0  0  0
  -31.7226  -14.1740   20.1189 O   0  0  0  0  0  0  0  0  0  0  0  0
  -29.1057  -12.6909   22.3877 O   0  0  0  0  0  0  0  0  0  0  0  0
  -22.6165  -27.5429   16.6008 O   0  0  0  0  0  0  0  0  0  0  0  0
  -25.6162  -15.2655   20.4602 O   0  0  0  0  0  0  0  0  0  0  0  0
  -21.4528  -24.5208   17.6883 O   0  0  0  0  0  0  0  0  0  0  0  0
  -22.8221  -29.3894   23.1349 O   0  0  0  0  0  0  0  0  0  0  0  0
  -29.8326  -20.3683   18.8680 O   0  0  0  0  0  0  0  0  0  1  0  0
  -26.5718  -30.9724   19.4150 F   0  0  0  0  0  0  0  0  0  0  0  0
  -22.7472  -31.9250   22.0361 F   0  0  0  0  0  0  0  0  0  0  0  0
  1  2  1  0  0  0  0
  1  5  2  0  0  0  0
  2  6  2  0  0  0  0
  3  8  2  0  0  0  0
  3 17  1  0  0  0  0
  4  9  1  0  0  0  0
  4 17  2  0  0  0  0
  5 19  1  0  0  0  0
  6 21  1  0  0  0  0
  7 10  2  0  0  0  0
  7 20  1  0  0  0  0
  8 27  1  0  0  0  0
  9 27  2  0  0  0  0
 10 28  1  0  0  0  0
 11 12  2  0  0  0  0
 11 29  1  0  0  0  0
 12 30  1  0  0  0  0
 13 22  1  0  0  0  0
 13 28  2  0  0  0  0
 14 24  1  0  0  0  0
 14 25  2  0  0  0  0
 15 25  1  0  0  0  0
 15 26  2  0  0  0  0
 16 30  2  0  0  0  0
 16 31  1  0  0  0  0
 17 32  1  0  0  0  0
 18 32  1  0  0  0  0
 18 33  2  0  0  0  0
 18 35  1  0  0  0  0
 19 21  2  0  0  0  0
 19 41  1  0  0  0  0
 20 22  2  0  0  0  0
 20 42  1  0  0  0  0
 21 53  1  0  0  0  0
 22 43  1  0  0  0  0
 23 24  2  0  0  0  0
 23 26  1  0  0  0  0
 23 57  1  0  0  0  0
 24 70  1  0  0  0  0
 25 76  1  0  0  0  0
 26 75  1  0  0  0  0
 27 87  1  0  0  0  0
 28 88  1  0  0  0  0
 29 31  2  0  0  0  0
 29 87  1  0  0  0  0
 30 89  1  0  0  0  0
 31 90  1  0  0  0  0
 32 68  2  0  0  0  0
 33 69  1  0  0  0  0
 33 73  1  0  0  0  0
 34 44  1  0  0  0  0
 34 70  1  0  0  0  0
 34 80  2  0  0  0  0
 35 74  1  0  0  0  0
 35 81  2  0  0  0  0
 36 54  1  0  0  0  0
 36 77  1  0  0  0  0
 36 82  2  0  0  0  0
 37 65  1  0  0  0  0
 37 71  1  0  0  0  0
 37 83  2  0  0  0  0
 38 58  1  0  0  0  0
 38 75  1  0  0  0  0
 38 84  2  0  0  0  0
 39 66  1  0  0  0  0
 39 78  1  0  0  0  0
 39 85  2  0  0  0  0
 40 72  1  0  0  0  0
 40 76  1  0  0  0  0
 40 86  2  0  0  0  0
 41 45  1  0  0  0  0
 42 54  1  0  0  0  0
 43 71  1  0  0  0  0
 44 46  1  0  0  0  0
 45 48  1  0  0  0  0
 46 55  1  0  0  0  0
 47 49  1  0  0  0  0
 47 50  1  0  0  0  0
 48 53  1  0  0  0  0
 49 56  1  0  0  0  0
 50 72  1  0  0  0  0
 51 55  1  0  0  0  0
 51 70  1  0  0  0  0
 52 56  1  0  0  0  0
 52 72  1  0  0  0  0
 53 77  1  0  0  0  0
 54 71  1  0  0  0  0
 55 64  1  0  0  0  0
 56 69  1  0  0  0  0
 59 66  1  0  0  0  0
 60 67  1  0  0  0  0
 61 67  1  0  0  0  0
 62 67  1  0  0  0  0
 63 79  1  0  0  0  0
 64 88  1  0  0  0  0
 65 67  1  0  0  0  0
 65 78  1  0  0  0  0
 66 79  1  0  0  0  0
 68 69  1  0  0  0  0
M  CHG  1  79   1
M  ISO  4  40 100  64 101  76 100  88 101
M  END
> <Batch ID>
0065

> <Smiles>
CNC(C)C(=O)NC(C(=O)N1Cc2cc([101O:1][101CH2:1]C3CCC(=O)N(c4cc([100NH:0][100C:0](=O)N5CCCC(n6nc(-c7ccc(Oc8ccc(F)cc8F)cc7)c(C(N)=O)c6N)C5)cc(NC(C)=O)c4C)C3)ccc2CC1C(=O)NC1CCCc2ccccc21)C(C)(C)C

> <Shape>
0.203

> <Color>
0.063

> <Negative vol penalty>
0.000

$$$$

  -OEChem-04042323183D

 86 95  0     1  0  0  0  0  0999 V2000
  -14.9400  -22.4456   23.5975 C   0  0  0  0  0  0  0  0  0  0  0  0
  -16.3059  -22.5882   23.3752 C   0  0  0  0  0  0  0  0  0  0  0  0
  -32.6679  -17.4210   23.4346 C   0  0  0  0  0  0  0  0  0  0  0  0
  -22.9994   -9.8941   19.9816 C   0  0  0  0  0  0  0  0  0  0  0  0
  -23.7248   -9.9454   22.2855 C   0  0  0  0  0  0  0  0  0  0  0  0
  -14.4855  -21.8060   24.7500 C   0  0  0  0  0  0  0  0  0  0  0  0
  -17.2181  -22.0922   24.3060 C   0  0  0  0  0  0  0  0  0  0  0  0
  -22.7135  -19.6553   23.1367 C   0  0  0  0  0  0  0  0  0  0  0  0
  -31.8920  -18.3257   24.1592 C   0  0  0  0  0  0  0  0  0  0  0  0
  -32.0586  -16.5343   22.5468 C   0  0  0  0  0  0  0  0  0  0  0  0
  -22.2329   -8.7596   20.2482 C   0  0  0  0  0  0  0  0  0  0  0  0
  -22.9583   -8.8110   22.5522 C   0  0  0  0  0  0  0  0  0  0  0  0
  -24.0030  -20.1834   23.1835 C   0  0  0  0  0  0  0  0  0  0  0  0
  -23.2025   -5.4720   22.0809 C   0  0  0  0  0  0  0  0  0  0  0  0
  -23.7901   -4.4549   22.8331 C   0  0  0  0  0  0  0  0  0  0  0  0
  -24.2817  -19.2898   25.4068 C   0  0  0  0  0  0  0  0  0  0  0  0
  -22.0664   -4.6982   24.5085 C   0  0  0  0  0  0  0  0  0  0  0  0
  -23.7454  -10.4870   21.0002 C   0  0  0  0  0  0  0  0  0  0  0  0
  -24.1308  -13.0025   20.8237 C   0  0  0  0  0  0  0  0  0  0  0  0
  -15.3927  -21.2934   25.6906 C   0  0  0  0  0  0  0  0  0  0  0  0
  -22.1936  -18.9487   24.2307 C   0  0  0  0  0  0  0  0  0  0  0  0
  -16.7753  -21.4464   25.4728 C   0  0  0  0  0  0  0  0  0  0  0  0
  -22.9863  -18.7516   25.3704 C   0  0  0  0  0  0  0  0  0  0  0  0
  -29.8976  -17.4570   23.1083 C   0  0  0  0  0  0  0  0  0  0  0  0
  -30.5069  -18.3437   23.9961 C   0  0  0  0  0  0  0  0  0  0  0  0
  -30.6735  -16.5523   22.3836 C   0  0  0  0  0  0  0  0  0  0  0  0
  -22.2123   -8.2181   21.5335 C   0  0  0  0  0  0  0  0  0  0  0  0
  -24.7862  -20.0032   24.3198 C   0  0  0  0  0  0  0  0  0  0  0  0
  -22.0469   -6.1022   22.5425 C   0  0  0  0  0  0  0  0  0  0  0  0
  -23.2221   -4.0680   24.0468 C   0  0  0  0  0  0  0  0  0  0  0  0
  -21.4788   -5.7153   23.7562 C   0  0  0  0  0  0  0  0  0  0  0  0
  -24.5379  -11.6585   20.7253 C   0  0  0  0  0  0  0  0  0  0  0  0
  -25.2405  -13.7250   20.4591 C   0  0  0  0  0  0  0  0  0  0  0  0
  -28.8972  -20.2889   24.2315 C   0  0  0  0  0  0  0  0  0  0  0  0
  -22.8629  -13.5490   21.2103 C   0  0  0  0  0  0  0  0  0  0  0  0
  -19.7365  -19.3610   26.2046 C   0  0  0  0  0  0  0  0  0  0  0  0
  -20.6265  -16.4395   27.2975 C   0  0  0  0  0  0  0  0  0  0  0  0
  -23.0937  -14.1094   27.6588 C   0  0  0  0  0  0  0  0  0  0  0  0
  -30.7200  -14.6860   20.6922 C   0  0  0  0  0  0  0  0  0  0  0  0
  -14.8534  -20.6516   26.9444 C   0  0  0  0  0  0  0  0  0  0  0  0
  -20.8106  -18.3623   24.1540 C   0  0  0  0  0  0  0  0  0  0  0  0
  -22.4822  -17.9832   26.5637 C   0  0  0  0  0  0  0  0  0  0  0  0
  -15.8899  -19.8226   27.6986 C   0  0  0  0  0  0  0  0  0  0  0  0
  -29.6014  -12.2327   18.3668 C   0  0  0  0  0  0  0  0  0  0  0  0
  -17.2000  -20.5934   27.8261 C   0  0  0  0  0  0  0  0  0  0  0  0
  -28.1509  -11.9752   18.7812 C   0  0  0  0  0  0  0  0  0  0  0  0
  -29.0920  -20.5828   26.5888 C   0  0  0  0  0  0  0  0  0  0  0  0
  -30.5021  -12.4763   19.5764 C   0  0  0  0  0  0  0  0  0  0  0  0
  -29.6876  -19.2437   26.1989 C   0  0  0  0  0  0  0  0  0  0  0  0
  -28.5869  -13.2655   20.9101 C   0  0  0  0  0  0  0  0  0  0  0  0
  -17.7963  -20.8997   26.4469 C   0  0  1  0  0  0  0  0  0  0  0  0
  -20.1952  -18.1017   25.5254 C   0  0  1  0  0  0  0  0  0  0  0  0
  -27.6291  -13.0789   19.7220 C   0  0  2  0  0  0  0  0  0  0  0  0
  -28.1769  -20.9360   25.4135 C   0  0  1  0  0  0  0  0  0  0  0  0
  -28.4103  -17.4757   22.9338 C   0  0  0  0  0  0  0  0  0  0  0  0
  -28.0483  -22.4466   25.2334 C   0  0  0  0  0  0  0  0  0  0  0  0
  -23.5299  -11.8363   28.6284 C   0  0  0  0  0  0  0  0  0  0  0  0
  -20.7237  -17.6540   30.0949 C   0  0  0  0  0  0  0  0  0  0  0  0
  -22.0474  -15.6629   30.8377 C   0  0  0  0  0  0  0  0  0  0  0  0
  -19.7219  -15.3652   29.9856 C   0  0  0  0  0  0  0  0  0  0  0  0
  -23.7737  -12.9817   25.0083 C   0  0  0  0  0  0  0  0  0  0  0  0
  -26.7919  -20.2958   25.5638 C   0  0  0  0  0  0  0  0  0  1  0  0
  -21.5729  -15.9389   28.3619 C   0  0  1  0  0  0  0  0  0  0  0  0
  -23.1156  -12.6156   27.3898 C   0  0  2  0  0  0  0  0  0  0  0  0
  -21.0255  -16.1714   29.7985 C   0  0  0  0  0  0  0  0  0  0  0  0
  -25.8071  -11.5319   20.3290 N   0  0  0  0  0  0  0  0  0  0  0  0
  -26.2071  -12.8056   20.1751 N   0  0  0  0  0  0  0  0  0  0  0  0
  -29.7325  -19.2774   24.7493 N   0  0  0  0  0  0  0  0  0  0  0  0
  -21.1213  -17.4347   26.4429 N   0  0  0  0  0  0  0  0  0  0  0  0
  -29.9472  -13.5374   20.4196 N   0  0  0  0  0  0  0  0  0  0  0  0
  -25.4740  -15.0507   20.3567 N   0  0  0  0  0  0  0  0  0  0  0  0
  -21.8311  -12.6650   21.5541 N   0  0  0  0  0  0  0  0  0  0  0  0
  -30.0759  -15.6413   21.4776 N   0  0  0  0  0  0  0  0  0  0  0  0
  -18.4379  -19.7230   25.9010 N   0  0  0  0  0  0  0  0  0  0  0  0
  -21.8420  -14.5407   28.0440 N   0  0  0  0  0  0  0  0  0  0  0  0
  -24.0749  -12.3006   26.2937 N   0  3  0  0  0  0  0  0  0  0  0  0
  -28.6857  -20.6047   23.0689 O   0  0  0  0  0  0  0  0  0  0  0  0
  -22.6462  -14.7843   21.2339 O   0  0  0  0  0  0  0  0  0  0  0  0
  -20.5034  -19.9592   26.9500 O   0  0  0  0  0  0  0  0  0  0  0  0
  -19.4925  -15.9598   27.2225 O   0  0  0  0  0  0  0  0  0  0  0  0
  -24.0885  -14.8218   27.5426 O   0  0  0  0  0  0  0  0  0  0  0  0
  -31.8587  -14.8248   20.2380 O   0  0  0  0  0  0  0  0  0  0  0  0
  -21.4642   -7.1113   21.7941 O   0  0  0  0  0  0  0  0  0  0  0  0
  -26.0449  -20.5182   24.3684 O   0  0  0  0  0  0  0  0  0  1  0  0
  -23.7856   -3.0902   24.7683 F   0  0  0  0  0  0  0  0  0  0  0  0
  -20.3680   -6.3163   24.2043 F   0  0  0  0  0  0  0  0  0  0  0  0
  1  2  1  0  0  0  0
  1  6  2  0  0  0  0
  2  7  2  0  0  0  0
  3  9  2  0  0  0  0
  3 10  1  0  0  0  0
  4 11  2  0  0  0  0
  4 18  1  0  0  0  0
  5 12  1  0  0  0  0
  5 18  2  0  0  0  0
  6 20  1  0  0  0  0
  7 22  1  0  0  0  0
  8 13  2  0  0  0  0
  8 21  1  0  0  0  0
  9 25  1  0  0  0  0
 10 26  2  0  0  0  0
 11 27  1  0  0  0  0
 12 27  2  0  0  0  0
 13 28  1  0  0  0  0
 14 15  2  0  0  0  0
 14 29  1  0  0  0  0
 15 30  1  0  0  0  0
 16 23  1  0  0  0  0
 16 28  2  0  0  0  0
 17 30  2  0  0  0  0
 17 31  1  0  0  0  0
 18 32  1  0  0  0  0
 19 32  1  0  0  0  0
 19 33  2  0  0  0  0
 19 35  1  0  0  0  0
 20 22  2  0  0  0  0
 20 40  1  0  0  0  0
 21 23  2  0  0  0  0
 21 41  1  0  0  0  0
 22 51  1  0  0  0  0
 23 42  1  0  0  0  0
 24 25  2  0  0  0  0
 24 26  1  0  0  0  0
 24 55  1  0  0  0  0
 25 68  1  0  0  0  0
 26 73  1  0  0  0  0
 27 83  1  0  0  0  0
 28 84  1  0  0  0  0
 29 31  2  0  0  0  0
 29 83  1  0  0  0  0
 30 85  1  0  0  0  0
 31 86  1  0  0  0  0
 32 66  2  0  0  0  0
 33 67  1  0  0  0  0
 33 71  1  0  0  0  0
 34 54  1  0  0  0  0
 34 68  1  0  0  0  0
 34 77  2  0  0  0  0
 35 72  1  0  0  0  0
 35 78  2  0  0  0  0
 36 52  1  0  0  0  0
 36 74  1  0  0  0  0
 36 79  2  0  0  0  0
 37 63  1  0  0  0  0
 37 69  1  0  0  0  0
 37 80  2  0  0  0  0
 38 64  1  0  0  0  0
 38 75  1  0  0  0  0
 38 81  2  0  0  0  0
 39 70  1  0  0  0  0
 39 73  1  0  0  0  0
 39 82  2  0  0  0  0
 40 43  1  0  0  0  0
 41 52  1  0  0  0  0
 42 69  1  0  0  0  0
 43 45  1  0  0  0  0
 44 46  1  0  0  0  0
 44 48  1  0  0  0  0
 45 51  1  0  0  0  0
 46 53  1  0  0  0  0
 47 49  1  0  0  0  0
 47 54  1  0  0  0  0
 48 70  1  0  0  0  0
 49 68  1  0  0  0  0
 50 53  1  0  0  0  0
 50 70  1  0  0  0  0
 51 74  1  0  0  0  0
 52 69  1  0  0  0  0
 53 67  1  0  0  0  0
 54 56  1  0  0  0  0
 54 62  1  0  0  0  0
 57 64  1  0  0  0  0
 58 65  1  0  0  0  0
 59 65  1  0  0  0  0
 60 65  1  0  0  0  0
 61 76  1  0  0  0  0
 62 84  1  0  0  0  0
 63 65  1  0  0  0  0
 63 75  1  0  0  0  0
 64 76  1  0  0  0  0
 66 67  1  0  0  0  0
M  CHG  1  76   1
M  ISO  4  39 100  62 101  73 100  84 101
M  END
> <Batch ID>
0065

> <Smiles>
CNC(C)C(=O)NC(C(=O)N1Cc2cc([101O:1][101CH2:1]C3(C)CCN(c4cccc([100NH:0][100C:0](=O)N5CCCC(n6nc(-c7ccc(Oc8ccc(F)cc8F)cc7)c(C(N)=O)c6N)C5)c4C)C3=O)ccc2CC1C(=O)NC1CCCc2ccccc21)C(C)(C)C

> <Shape>
0.173

> <Color>
0.198

> <Negative vol penalty>
0.000

$$$$

  -OEChem-04042323183D

 93102  0     1  0  0  0  0  0999 V2000
  -27.9695  -36.2174   20.1626 C   0  0  0  0  0  0  0  0  0  0  0  0
  -28.2845  -34.8702   20.3082 C   0  0  0  0  0  0  0  0  0  0  0  0
  -24.1026   -9.6962   22.1073 C   0  0  0  0  0  0  0  0  0  0  0  0
  -22.9084  -10.1544   20.0577 C   0  0  0  0  0  0  0  0  0  0  0  0
  -26.8928  -36.7600   20.8628 C   0  0  0  0  0  0  0  0  0  0  0  0
  -27.5236  -34.0650   21.1551 C   0  0  0  0  0  0  0  0  0  0  0  0
  -26.3734  -29.5954   19.0707 C   0  0  0  0  0  0  0  0  0  0  0  0
  -23.3929   -8.5045   22.2545 C   0  0  0  0  0  0  0  0  0  0  0  0
  -22.1986   -8.9626   20.2049 C   0  0  0  0  0  0  0  0  0  0  0  0
  -27.3729  -28.6234   19.0564 C   0  0  0  0  0  0  0  0  0  0  0  0
  -23.4842   -5.3764   20.9740 C   0  0  0  0  0  0  0  0  0  0  0  0
  -24.2018   -4.2340   21.3281 C   0  0  0  0  0  0  0  0  0  0  0  0
  -26.3663  -27.5687   20.9783 C   0  0  0  0  0  0  0  0  0  0  0  0
  -26.7008  -19.8942   16.9287 C   0  0  0  0  0  0  0  0  0  0  0  0
  -28.0112  -17.9102   16.5000 C   0  0  0  0  0  0  0  0  0  0  0  0
  -22.8719   -4.0203   23.3339 C   0  0  0  0  0  0  0  0  0  0  0  0
  -23.8603  -10.5212   21.0089 C   0  0  0  0  0  0  0  0  0  0  0  0
  -25.9875  -11.9032   20.7387 C   0  0  0  0  0  0  0  0  0  0  0  0
  -26.1124  -35.9588   21.7112 C   0  0  0  0  0  0  0  0  0  0  0  0
  -25.3674  -29.5675   20.0472 C   0  0  0  0  0  0  0  0  0  0  0  0
  -26.4363  -34.5976   21.8683 C   0  0  0  0  0  0  0  0  0  0  0  0
  -25.3538  -28.5400   21.0012 C   0  0  0  0  0  0  0  0  0  0  0  0
  -27.6197  -20.6569   16.2080 C   0  0  0  0  0  0  0  0  0  0  0  0
  -28.9302  -18.6730   15.7793 C   0  0  0  0  0  0  0  0  0  0  0  0
  -28.7343  -20.0463   15.6333 C   0  0  0  0  0  0  0  0  0  0  0  0
  -26.8966  -18.5208   17.0747 C   0  0  0  0  0  0  0  0  0  0  0  0
  -22.4409   -8.1377   21.3033 C   0  0  0  0  0  0  0  0  0  0  0  0
  -27.3711  -27.6116   20.0120 C   0  0  0  0  0  0  0  0  0  0  0  0
  -22.4604   -5.8409   21.7998 C   0  0  0  0  0  0  0  0  0  0  0  0
  -23.8957   -3.5559   22.5080 C   0  0  0  0  0  0  0  0  0  0  0  0
  -22.1543   -5.1628   22.9797 C   0  0  0  0  0  0  0  0  0  0  0  0
  -24.5928  -11.7526   20.8566 C   0  0  0  0  0  0  0  0  0  0  0  0
  -26.1776  -13.2580   20.6178 C   0  0  0  0  0  0  0  0  0  0  0  0
  -29.1331  -23.8652   16.4077 C   0  0  0  0  0  0  0  0  0  0  0  0
  -27.0190  -10.9073   20.7384 C   0  0  0  0  0  0  0  0  0  0  0  0
  -30.4187  -24.7342   19.8507 C   0  0  0  0  0  0  0  0  0  0  0  0
  -24.4458  -31.5261   22.3748 C   0  0  0  0  0  0  0  0  0  0  0  0
  -22.0265  -29.3878   22.6861 C   0  0  0  0  0  0  0  0  0  0  0  0
  -21.6600  -25.7990   22.6257 C   0  0  0  0  0  0  0  0  0  0  0  0
  -24.8037  -18.1941   18.4383 C   0  0  0  0  0  0  0  0  0  0  0  0
  -24.9873  -36.6008   22.4837 C   0  0  0  0  0  0  0  0  0  0  0  0
  -24.2812  -30.6079   20.0327 C   0  0  0  0  0  0  0  0  0  0  0  0
  -24.2845  -28.4536   22.0584 C   0  0  0  0  0  0  0  0  0  0  0  0
  -30.0618  -24.4804   17.4393 C   0  0  0  0  0  0  0  0  0  0  0  0
  -24.0012  -35.5952   23.0724 C   0  0  0  0  0  0  0  0  0  0  0  0
  -22.9598  -17.1082   21.2840 C   0  0  0  0  0  0  0  0  0  0  0  0
  -24.7470  -34.4549   23.7582 C   0  0  0  0  0  0  0  0  0  0  0  0
  -23.3350  -15.6304   21.4168 C   0  0  0  0  0  0  0  0  0  0  0  0
  -28.1904  -23.9472   19.1231 C   0  0  0  0  0  0  0  0  0  0  0  0
  -22.8472  -17.5355   19.8217 C   0  0  0  0  0  0  0  0  0  0  0  0
  -28.2424  -22.6339   18.3553 C   0  0  0  0  0  0  0  0  0  0  0  0
  -24.3948  -15.7495   19.1256 C   0  0  0  0  0  0  0  0  0  0  0  0
  -25.6194  -33.6863   22.7584 C   0  0  1  0  0  0  0  0  0  0  0  0
  -23.5978  -30.7771   21.3860 C   0  0  1  0  0  0  0  0  0  0  0  0
  -24.5834  -15.2886   20.5801 C   0  0  2  0  0  0  0  0  0  0  0  0
  -29.3779  -24.8665   18.7652 C   0  0  1  0  0  0  0  0  0  0  0  0
  -29.7193  -20.8643   14.8600 C   0  0  0  0  0  0  0  0  0  0  0  0
  -31.6474  -25.5928   19.7183 C   0  0  0  0  0  0  0  0  0  0  0  0
  -29.7158  -16.9433   14.1226 C   0  0  0  0  0  0  0  0  0  0  0  0
  -31.0304  -17.3552   16.2338 C   0  0  0  0  0  0  0  0  0  0  0  0
  -19.6875  -24.3704   22.0209 C   0  0  0  0  0  0  0  0  0  0  0  0
  -21.4496  -29.4228   25.6821 C   0  0  0  0  0  0  0  0  0  0  0  0
  -20.7460  -27.0267   25.5039 C   0  0  0  0  0  0  0  0  0  0  0  0
  -19.4992  -28.7873   24.2515 C   0  0  0  0  0  0  0  0  0  0  0  0
  -23.2148  -24.3087   20.5959 C   0  0  0  0  0  0  0  0  0  0  0  0
  -27.3862  -22.1332   16.0662 C   0  0  0  0  0  0  0  0  0  0  0  0
  -28.9125  -26.3280   18.7344 C   0  0  0  0  0  0  0  0  0  1  0  0
  -30.1153  -17.9949   15.1737 C   0  0  0  0  0  0  0  0  0  0  0  0
  -21.8138  -28.1225   23.4815 C   0  0  1  0  0  0  0  0  0  0  0  0
  -20.9987  -24.9712   21.5386 C   0  0  2  0  0  0  0  0  0  0  0  0
  -20.9031  -28.3479   24.7214 C   0  0  0  0  0  0  0  0  0  0  0  0
  -23.9429  -12.9188   20.8146 N   0  0  0  0  0  0  0  0  0  0  0  0
  -24.9337  -13.8150   20.6691 N   0  0  0  0  0  0  0  0  0  0  0  0
  -28.2660  -22.9080   16.9250 N   0  0  0  0  0  0  0  0  0  0  0  0
  -23.2479  -29.4977   22.0064 N   0  0  0  0  0  0  0  0  0  0  0  0
  -24.0676  -17.1837   19.0925 N   0  0  0  0  0  0  0  0  0  0  0  0
  -27.2858  -14.0154   20.4739 N   0  0  0  0  0  0  0  0  0  0  0  0
  -26.6490   -9.5621   20.8721 N   0  0  0  0  0  0  0  0  0  0  0  0
  -25.9627  -17.7455   17.8059 N   0  0  0  0  0  0  0  0  0  0  0  0
  -24.8066  -32.7939   21.9600 N   0  0  0  0  0  0  0  0  0  0  0  0
  -21.3071  -27.1292   22.5407 N   0  0  0  0  0  0  0  0  0  0  0  0
  -21.8970  -23.8602   21.1149 N   0  3  0  0  0  0  0  0  0  0  0  0
  -29.2193  -24.1751   15.2200 O   0  0  0  0  0  0  0  0  0  0  0  0
  -28.2340  -11.2029   20.6394 O   0  0  0  0  0  0  0  0  0  0  0  0
  -30.2687  -23.9640   20.7979 O   0  0  0  0  0  0  0  0  0  0  0  0
  -24.7489  -30.9939   23.4362 O   0  0  0  0  0  0  0  0  0  0  0  0
  -21.1386  -30.2438   22.6627 O   0  0  0  0  0  0  0  0  0  0  0  0
  -22.4113  -25.3135   23.4686 O   0  0  0  0  0  0  0  0  0  0  0  0
  -24.4476  -19.3751   18.4622 O   0  0  0  0  0  0  0  0  0  0  0  0
  -21.7483   -6.9748   21.4465 O   0  0  0  0  0  0  0  0  0  0  0  0
  -28.3458  -26.6620   20.0008 O   0  0  0  0  0  0  0  0  0  1  0  0
  -24.5839   -2.4580   22.8472 F   0  0  0  0  0  0  0  0  0  0  0  0
  -21.1711   -5.6035   23.7765 F   0  0  0  0  0  0  0  0  0  0  0  0
  1  2  1  0  0  0  0
  1  5  2  0  0  0  0
  2  6  2  0  0  0  0
  3  8  2  0  0  0  0
  3 17  1  0  0  0  0
  4  9  1  0  0  0  0
  4 17  2  0  0  0  0
  5 19  1  0  0  0  0
  6 21  1  0  0  0  0
  7 10  2  0  0  0  0
  7 20  1  0  0  0  0
  8 27  1  0  0  0  0
  9 27  2  0  0  0  0
 10 28  1  0  0  0  0
 11 12  2  0  0  0  0
 11 29  1  0  0  0  0
 12 30  1  0  0  0  0
 13 22  1  0  0  0  0
 13 28  2  0  0  0  0
 14 23  1  0  0  0  0
 14 26  2  0  0  0  0
 15 24  2  0  0  0  0
 15 26  1  0  0  0  0
 16 30  2  0  0  0  0
 16 31  1  0  0  0  0
 17 32  1  0  0  0  0
 18 32  1  0  0  0  0
 18 33  2  0  0  0  0
 18 35  1  0  0  0  0
 19 21  2  0  0  0  0
 19 41  1  0  0  0  0
 20 22  2  0  0  0  0
 20 42  1  0  0  0  0
 21 53  1  0  0  0  0
 22 43  1  0  0  0  0
 23 25  2  0  0  0  0
 23 66  1  0  0  0  0
 24 25  1  0  0  0  0
 24 68  1  0  0  0  0
 25 57  1  0  0  0  0
 26 79  1  0  0  0  0
 27 90  1  0  0  0  0
 28 91  1  0  0  0  0
 29 31  2  0  0  0  0
 29 90  1  0  0  0  0
 30 92  1  0  0  0  0
 31 93  1  0  0  0  0
 32 72  2  0  0  0  0
 33 73  1  0  0  0  0
 33 77  1  0  0  0  0
 34 44  1  0  0  0  0
 34 74  1  0  0  0  0
 34 83  2  0  0  0  0
 35 78  1  0  0  0  0
 35 84  2  0  0  0  0
 36 56  1  0  0  0  0
 36 58  1  0  0  0  0
 36 85  2  0  0  0  0
 37 54  1  0  0  0  0
 37 80  1  0  0  0  0
 37 86  2  0  0  0  0
 38 69  1  0  0  0  0
 38 75  1  0  0  0  0
 38 87  2  0  0  0  0
 39 70  1  0  0  0  0
 39 81  1  0  0  0  0
 39 88  2  0  0  0  0
 40 76  1  0  0  0  0
 40 79  1  0  0  0  0
 40 89  2  0  0  0  0
 41 45  1  0  0  0  0
 42 54  1  0  0  0  0
 43 75  1  0  0  0  0
 44 56  1  0  0  0  0
 45 47  1  0  0  0  0
 46 48  1  0  0  0  0
 46 50  1  0  0  0  0
 47 53  1  0  0  0  0
 48 55  1  0  0  0  0
 49 51  1  0  0  0  0
 49 56  1  0  0  0  0
 50 76  1  0  0  0  0
 51 74  1  0  0  0  0
 52 55  1  0  0  0  0
 52 76  1  0  0  0  0
 53 80  1  0  0  0  0
 54 75  1  0  0  0  0
 55 73  1  0  0  0  0
 56 67  1  0  0  0  0
 59 68  1  0  0  0  0
 60 68  1  0  0  0  0
 61 70  1  0  0  0  0
 62 71  1  0  0  0  0
 63 71  1  0  0  0  0
 64 71  1  0  0  0  0
 65 82  1  0  0  0  0
 66 74  1  0  0  0  0
 67 91  1  0  0  0  0
 69 71  1  0  0  0  0
 69 81  1  0  0  0  0
 70 82  1  0  0  0  0
 72 73  1  0  0  0  0
M  CHG  1  82   1
M  ISO  4  40 100  67 101  79 100  91 101
M  END
> <Batch ID>
0065

> <Smiles>
CNC(C)C(=O)NC(C(=O)N1Cc2cc([101O:1][101CH2:1]C3(C(C)=O)CCN(Cc4cc([100NH:0][100C:0](=O)N5CCCC(n6nc(-c7ccc(Oc8ccc(F)cc8F)cc7)c(C(N)=O)c6N)C5)cc(C(C)C)c4C)C(=O)C3)ccc2CC1C(=O)NC1CCCc2ccccc21)C(C)(C)C

> <Shape>
0.281

> <Color>
0.105

> <Negative vol penalty>
0.000

$$$$

  -OEChem-04042323183D

 86 95  0     1  0  0  0  0  0999 V2000
  -28.1723  -36.7764   24.6614 C   0  0  0  0  0  0  0  0  0  0  0  0
  -28.4709  -35.4343   24.4490 C   0  0  0  0  0  0  0  0  0  0  0  0
  -23.3239   -9.7150   19.8783 C   0  0  0  0  0  0  0  0  0  0  0  0
  -24.4531   -9.4792   22.0012 C   0  0  0  0  0  0  0  0  0  0  0  0
  -26.8430  -37.1932   24.7172 C   0  0  0  0  0  0  0  0  0  0  0  0
  -27.4403  -34.5081   24.2934 C   0  0  0  0  0  0  0  0  0  0  0  0
  -27.4557  -29.5534   20.6938 C   0  0  0  0  0  0  0  0  0  0  0  0
  -22.9026   -8.3875   19.9550 C   0  0  0  0  0  0  0  0  0  0  0  0
  -24.0317   -8.1517   22.0779 C   0  0  0  0  0  0  0  0  0  0  0  0
  -27.6983  -28.2055   20.9544 C   0  0  0  0  0  0  0  0  0  0  0  0
  -21.2089   -6.4789   22.8863 C   0  0  0  0  0  0  0  0  0  0  0  0
  -20.6950   -6.0330   24.1040 C   0  0  0  0  0  0  0  0  0  0  0  0
  -25.3252  -27.8244   21.1606 C   0  0  0  0  0  0  0  0  0  0  0  0
  -28.0774  -19.8575   23.4872 C   0  0  0  0  0  0  0  0  0  0  0  0
  -29.5076  -19.0226   21.2422 C   0  0  0  0  0  0  0  0  0  0  0  0
  -22.4354   -4.3617   24.2263 C   0  0  0  0  0  0  0  0  0  0  0  0
  -24.0992  -10.2609   20.9014 C   0  0  0  0  0  0  0  0  0  0  0  0
  -23.8602  -12.7679   21.3080 C   0  0  0  0  0  0  0  0  0  0  0  0
  -25.7956  -36.2732   24.5526 C   0  0  0  0  0  0  0  0  0  0  0  0
  -26.1444  -30.0500   20.6754 C   0  0  0  0  0  0  0  0  0  0  0  0
  -26.0957  -34.9128   24.3484 C   0  0  0  0  0  0  0  0  0  0  0  0
  -25.0685  -29.1786   20.8970 C   0  0  0  0  0  0  0  0  0  0  0  0
  -28.2051  -18.4969   23.2080 C   0  0  0  0  0  0  0  0  0  0  0  0
  -29.3798  -20.3833   21.5215 C   0  0  0  0  0  0  0  0  0  0  0  0
  -28.6647  -20.8007   22.6439 C   0  0  0  0  0  0  0  0  0  0  0  0
  -28.9203  -18.0795   22.0856 C   0  0  0  0  0  0  0  0  0  0  0  0
  -23.2565   -7.6059   21.0547 C   0  0  0  0  0  0  0  0  0  0  0  0
  -26.6332  -27.3413   21.1907 C   0  0  0  0  0  0  0  0  0  0  0  0
  -22.3359   -5.8662   22.3386 C   0  0  0  0  0  0  0  0  0  0  0  0
  -21.3083   -4.9744   24.7740 C   0  0  0  0  0  0  0  0  0  0  0  0
  -22.9492   -4.8076   23.0086 C   0  0  0  0  0  0  0  0  0  0  0  0
  -24.5353  -11.6319   20.8225 C   0  0  0  0  0  0  0  0  0  0  0  0
  -24.6836  -13.8195   20.9877 C   0  0  0  0  0  0  0  0  0  0  0  0
  -27.9220  -23.1706   22.1328 C   0  0  0  0  0  0  0  0  0  0  0  0
  -22.6015  -12.8639   21.9877 C   0  0  0  0  0  0  0  0  0  0  0  0
  -24.5393  -32.2088   22.3687 C   0  0  0  0  0  0  0  0  0  0  0  0
  -22.2149  -31.6232   20.1832 C   0  0  0  0  0  0  0  0  0  0  0  0
  -20.8558  -29.4779   17.9034 C   0  0  0  0  0  0  0  0  0  0  0  0
  -29.7385  -16.1373   20.7053 C   0  0  0  0  0  0  0  0  0  0  0  0
  -24.3740  -36.7633   24.6680 C   0  0  0  0  0  0  0  0  0  0  0  0
  -25.8980  -31.5013   20.3663 C   0  0  0  0  0  0  0  0  0  0  0  0
  -23.6409  -29.6578   20.8682 C   0  0  0  0  0  0  0  0  0  0  0  0
  -23.3439  -35.7791   24.1197 C   0  0  0  0  0  0  0  0  0  0  0  0
  -28.7765  -14.0120   18.0156 C   0  0  0  0  0  0  0  0  0  0  0  0
  -23.6313  -34.3689   24.6252 C   0  0  0  0  0  0  0  0  0  0  0  0
  -27.5318  -13.2968   18.5460 C   0  0  0  0  0  0  0  0  0  0  0  0
  -28.9997  -24.2432   23.9638 C   0  0  0  0  0  0  0  0  0  0  0  0
  -29.8159  -14.2307   19.1135 C   0  0  0  0  0  0  0  0  0  0  0  0
  -28.9554  -22.7490   24.2132 C   0  0  0  0  0  0  0  0  0  0  0  0
  -28.0688  -14.1861   20.8498 C   0  0  0  0  0  0  0  0  0  0  0  0
  -25.0056  -33.8819   24.1503 C   0  0  1  0  0  0  0  0  0  0  0  0
  -27.8924  -24.4572   22.9420 C   0  0  1  0  0  0  0  0  0  0  0  0
  -24.5516  -32.0015   20.8806 C   0  0  1  0  0  0  0  0  0  0  0  0
  -26.9661  -14.0014   19.7946 C   0  0  2  0  0  0  0  0  0  0  0  0
  -27.5642  -17.5090   24.1278 C   0  0  0  0  0  0  0  0  0  0  0  0
  -30.0190  -21.3719   20.6012 C   0  0  0  0  0  0  0  0  0  0  0  0
  -18.9358  -29.2624   16.3020 C   0  0  0  0  0  0  0  0  0  0  0  0
  -20.3318  -31.0698   22.5194 C   0  0  0  0  0  0  0  0  0  0  0  0
  -18.7681  -29.9646   20.9064 C   0  0  0  0  0  0  0  0  0  0  0  0
  -19.3165  -32.3845   20.6498 C   0  0  0  0  0  0  0  0  0  0  0  0
  -22.6709  -29.2386   15.5781 C   0  0  0  0  0  0  0  0  0  0  0  0
  -28.0962  -25.6977   22.0929 C   0  0  0  0  0  0  0  0  0  1  0  0
  -21.0654  -30.6501   20.0798 C   0  0  1  0  0  0  0  0  0  0  0  0
  -20.3845  -29.6909   16.4762 C   0  0  2  0  0  0  0  0  0  0  0  0
  -19.8973  -31.0083   21.0414 C   0  0  0  0  0  0  0  0  0  0  0  0
  -25.6979  -11.9335   20.2382 N   0  0  0  0  0  0  0  0  0  0  0  0
  -25.7597  -13.2709   20.3543 N   0  0  0  0  0  0  0  0  0  0  0  0
  -28.5222  -22.1881   22.9470 N   0  0  0  0  0  0  0  0  0  0  0  0
  -23.4518  -31.0866   20.5679 N   0  0  0  0  0  0  0  0  0  0  0  0
  -29.2093  -14.9066   20.2624 N   0  0  0  0  0  0  0  0  0  0  0  0
  -24.5849  -15.1508   21.1889 N   0  0  0  0  0  0  0  0  0  0  0  0
  -21.8851  -11.6853   22.2369 N   0  0  0  0  0  0  0  0  0  0  0  0
  -29.0595  -16.7018   21.7846 N   0  0  0  0  0  0  0  0  0  0  0  0
  -24.9445  -33.4692   22.7645 N   0  0  0  0  0  0  0  0  0  0  0  0
  -20.6889  -30.6113   18.6708 N   0  0  0  0  0  0  0  0  0  0  0  0
  -21.2245  -28.9030   15.5303 N   0  3  0  0  0  0  0  0  0  0  0  0
  -27.4370  -23.0715   21.0151 O   0  0  0  0  0  0  0  0  0  0  0  0
  -22.1183  -13.9639   22.3483 O   0  0  0  0  0  0  0  0  0  0  0  0
  -24.1869  -31.2935   23.1034 O   0  0  0  0  0  0  0  0  0  0  0  0
  -22.0241  -32.8142   19.9251 O   0  0  0  0  0  0  0  0  0  0  0  0
  -21.3216  -28.4116   18.2990 O   0  0  0  0  0  0  0  0  0  0  0  0
  -30.7048  -16.6658   20.1496 O   0  0  0  0  0  0  0  0  0  0  0  0
  -22.8453   -6.3106   21.1300 O   0  0  0  0  0  0  0  0  0  0  0  0
  -26.8672  -26.0253   21.4460 O   0  0  0  0  0  0  0  0  0  1  0  0
  -20.8157   -4.5473   25.9440 F   0  0  0  0  0  0  0  0  0  0  0  0
  -24.0329   -4.2157   22.4879 F   0  0  0  0  0  0  0  0  0  0  0  0
  1  2  1  0  0  0  0
  1  5  2  0  0  0  0
  2  6  2  0  0  0  0
  3  8  2  0  0  0  0
  3 17  1  0  0  0  0
  4  9  1  0  0  0  0
  4 17  2  0  0  0  0
  5 19  1  0  0  0  0
  6 21  1  0  0  0  0
  7 10  2  0  0  0  0
  7 20  1  0  0  0  0
  8 27  1  0  0  0  0
  9 27  2  0  0  0  0
 10 28  1  0  0  0  0
 11 12  2  0  0  0  0
 11 29  1  0  0  0  0
 12 30  1  0  0  0  0
 13 22  1  0  0  0  0
 13 28  2  0  0  0  0
 14 23  2  0  0  0  0
 14 25  1  0  0  0  0
 15 24  1  0  0  0  0
 15 26  2  0  0  0  0
 16 30  2  0  0  0  0
 16 31  1  0  0  0  0
 17 32  1  0  0  0  0
 18 32  1  0  0  0  0
 18 33  2  0  0  0  0
 18 35  1  0  0  0  0
 19 21  2  0  0  0  0
 19 40  1  0  0  0  0
 20 22  2  0  0  0  0
 20 41  1  0  0  0  0
 21 51  1  0  0  0  0
 22 42  1  0  0  0  0
 23 26  1  0  0  0  0
 23 55  1  0  0  0  0
 24 25  2  0  0  0  0
 24 56  1  0  0  0  0
 25 68  1  0  0  0  0
 26 73  1  0  0  0  0
 27 83  1  0  0  0  0
 28 84  1  0  0  0  0
 29 31  2  0  0  0  0
 29 83  1  0  0  0  0
 30 85  1  0  0  0  0
 31 86  1  0  0  0  0
 32 66  2  0  0  0  0
 33 67  1  0  0  0  0
 33 71  1  0  0  0  0
 34 52  1  0  0  0  0
 34 68  1  0  0  0  0
 34 77  2  0  0  0  0
 35 72  1  0  0  0  0
 35 78  2  0  0  0  0
 36 53  1  0  0  0  0
 36 74  1  0  0  0  0
 36 79  2  0  0  0  0
 37 63  1  0  0  0  0
 37 69  1  0  0  0  0
 37 80  2  0  0  0  0
 38 64  1  0  0  0  0
 38 75  1  0  0  0  0
 38 81  2  0  0  0  0
 39 70  1  0  0  0  0
 39 73  1  0  0  0  0
 39 82  2  0  0  0  0
 40 43  1  0  0  0  0
 41 53  1  0  0  0  0
 42 69  1  0  0  0  0
 43 45  1  0  0  0  0
 44 46  1  0  0  0  0
 44 48  1  0  0  0  0
 45 51  1  0  0  0  0
 46 54  1  0  0  0  0
 47 49  1  0  0  0  0
 47 52  1  0  0  0  0
 48 70  1  0  0  0  0
 49 68  1  0  0  0  0
 50 54  1  0  0  0  0
 50 70  1  0  0  0  0
 51 74  1  0  0  0  0
 52 62  1  0  0  0  0
 53 69  1  0  0  0  0
 54 67  1  0  0  0  0
 57 64  1  0  0  0  0
 58 65  1  0  0  0  0
 59 65  1  0  0  0  0
 60 65  1  0  0  0  0
 61 76  1  0  0  0  0
 62 84  1  0  0  0  0
 63 65  1  0  0  0  0
 63 75  1  0  0  0  0
 64 76  1  0  0  0  0
 66 67  1  0  0  0  0
M  CHG  1  76   1
M  ISO  4  39 100  62 101  73 100  84 101
M  END
> <Batch ID>
0065

> <Smiles>
CNC(C)C(=O)NC(C(=O)N1Cc2cc([101O:1][101CH2:1]C3CCN(c4cc(C)c([100NH:0][100C:0](=O)N5CCCC(n6nc(-c7ccc(Oc8ccc(F)cc8F)cc7)c(C(N)=O)c6N)C5)cc4C)C3=O)ccc2CC1C(=O)NC1CCCc2ccccc21)C(C)(C)C

> <Shape>
0.310

> <Color>
0.122

> <Negative vol penalty>
0.000

$$$$

  -OEChem-04042323183D

 90 99  0     1  0  0  0  0  0999 V2000
  -29.1571  -35.5644   25.9071 C   0  0  0  0  0  0  0  0  0  0  0  0
  -29.0117  -34.1979   25.6902 C   0  0  0  0  0  0  0  0  0  0  0  0
  -24.3303   -9.7822   21.5856 C   0  0  0  0  0  0  0  0  0  0  0  0
  -24.7128  -10.9284   23.6777 C   0  0  0  0  0  0  0  0  0  0  0  0
  -28.0403  -36.3980   25.8671 C   0  0  0  0  0  0  0  0  0  0  0  0
  -27.7492  -33.6641   25.4343 C   0  0  0  0  0  0  0  0  0  0  0  0
  -27.7810  -30.3491   21.6061 C   0  0  0  0  0  0  0  0  0  0  0  0
  -23.9372   -8.6401   22.2831 C   0  0  0  0  0  0  0  0  0  0  0  0
  -24.3196   -9.7863   24.3753 C   0  0  0  0  0  0  0  0  0  0  0  0
  -28.2597  -29.0681   21.8772 C   0  0  0  0  0  0  0  0  0  0  0  0
  -21.1843   -7.5377   23.9077 C   0  0  0  0  0  0  0  0  0  0  0  0
  -20.0357   -6.8761   23.4734 C   0  0  0  0  0  0  0  0  0  0  0  0
  -25.9921  -28.2669   22.0647 C   0  0  0  0  0  0  0  0  0  0  0  0
  -28.3397  -21.3095   21.3204 C   0  0  0  0  0  0  0  0  0  0  0  0
  -30.2961  -24.6611   23.7780 C   0  0  0  0  0  0  0  0  0  0  0  0
  -30.4533  -20.6719   22.3018 C   0  0  0  0  0  0  0  0  0  0  0  0
  -21.3361   -4.8788   23.0774 C   0  0  0  0  0  0  0  0  0  0  0  0
  -24.7182  -10.9264   22.2828 C   0  0  0  0  0  0  0  0  0  0  0  0
  -24.3031  -13.1654   21.1330 C   0  0  0  0  0  0  0  0  0  0  0  0
  -26.7648  -35.8756   25.6010 C   0  0  0  0  0  0  0  0  0  0  0  0
  -26.4020  -30.6015   21.5730 C   0  0  0  0  0  0  0  0  0  0  0  0
  -26.6141  -34.4914   25.3920 C   0  0  0  0  0  0  0  0  0  0  0  0
  -25.4984  -29.5515   21.7904 C   0  0  0  0  0  0  0  0  0  0  0  0
  -28.1654  -20.0080   20.8501 C   0  0  0  0  0  0  0  0  0  0  0  0
  -29.5557  -25.1592   22.6777 C   0  0  0  0  0  0  0  0  0  0  0  0
  -29.4837  -21.6415   22.0462 C   0  0  0  0  0  0  0  0  0  0  0  0
  -29.1351  -19.0384   21.1057 C   0  0  0  0  0  0  0  0  0  0  0  0
  -23.9318   -8.6421   23.6780 C   0  0  0  0  0  0  0  0  0  0  0  0
  -27.3653  -28.0273   22.1094 C   0  0  0  0  0  0  0  0  0  0  0  0
  -22.4088   -6.8699   23.9268 C   0  0  0  0  0  0  0  0  0  0  0  0
  -20.1116   -5.5466   23.0583 C   0  0  0  0  0  0  0  0  0  0  0  0
  -30.2790  -19.3703   21.8315 C   0  0  0  0  0  0  0  0  0  0  0  0
  -22.4847   -5.5404   23.5117 C   0  0  0  0  0  0  0  0  0  0  0  0
  -25.1249  -12.1063   21.5628 C   0  0  0  0  0  0  0  0  0  0  0  0
  -25.1618  -14.0321   20.5021 C   0  0  0  0  0  0  0  0  0  0  0  0
  -30.3449  -23.2901   23.6541 C   0  0  0  0  0  0  0  0  0  0  0  0
  -29.1743  -24.0774   21.9150 C   0  0  0  0  0  0  0  0  0  0  0  0
  -22.8899  -13.3493   21.2900 C   0  0  0  0  0  0  0  0  0  0  0  0
  -24.4181  -32.4435   23.2387 C   0  0  0  0  0  0  0  0  0  0  0  0
  -22.2586  -31.4392   21.0363 C   0  0  0  0  0  0  0  0  0  0  0  0
  -21.3303  -29.0742   18.7579 C   0  0  0  0  0  0  0  0  0  0  0  0
  -29.9797  -16.8142   20.2775 C   0  0  0  0  0  0  0  0  0  0  0  0
  -25.5805  -36.8094   25.6147 C   0  0  0  0  0  0  0  0  0  0  0  0
  -25.9015  -31.9832   21.2528 C   0  0  0  0  0  0  0  0  0  0  0  0
  -24.0083  -29.7658   21.7460 C   0  0  0  0  0  0  0  0  0  0  0  0
  -24.3313  -36.2184   24.9662 C   0  0  0  0  0  0  0  0  0  0  0  0
  -29.9932  -13.4510   19.1087 C   0  0  0  0  0  0  0  0  0  0  0  0
  -24.0945  -34.7956   25.4624 C   0  0  0  0  0  0  0  0  0  0  0  0
  -28.6603  -12.8885   19.6076 C   0  0  0  0  0  0  0  0  0  0  0  0
  -30.6139  -14.4169   20.1165 C   0  0  0  0  0  0  0  0  0  0  0  0
  -28.3986  -14.9416   21.0579 C   0  0  0  0  0  0  0  0  0  0  0  0
  -25.2646  -33.8784   25.0868 C   0  0  1  0  0  0  0  0  0  0  0  0
  -24.4821  -32.2352   21.7520 C   0  0  1  0  0  0  0  0  0  0  0  0
  -27.7034  -14.0135   20.0484 C   0  0  2  0  0  0  0  0  0  0  0  0
  -19.4962  -28.5093   17.1409 C   0  0  0  0  0  0  0  0  0  0  0  0
  -20.4830  -30.5664   23.3591 C   0  0  0  0  0  0  0  0  0  0  0  0
  -19.1596  -29.1905   21.7392 C   0  0  0  0  0  0  0  0  0  0  0  0
  -19.2660  -31.6684   21.4726 C   0  0  0  0  0  0  0  0  0  0  0  0
  -23.1816  -29.1551   16.4503 C   0  0  0  0  0  0  0  0  0  0  0  0
  -29.2458  -26.6008   22.4000 C   0  0  0  0  0  0  0  0  0  1  0  0
  -21.3041  -30.2746   20.9287 C   0  0  1  0  0  0  0  0  0  0  0  0
  -20.8424  -29.1924   17.3252 C   0  0  2  0  0  0  0  0  0  0  0  0
  -26.9299  -19.6802   20.0759 C   0  0  0  0  0  0  0  0  0  0  0  0
  -20.0812  -30.4210   21.8777 C   0  0  0  0  0  0  0  0  0  0  0  0
  -26.4072  -12.2819   21.2327 N   0  0  0  0  0  0  0  0  0  0  0  0
  -29.6593  -22.9465   22.5183 N   0  0  0  0  0  0  0  0  0  0  0  0
  -26.3975  -13.4614   20.5887 N   0  0  0  0  0  0  0  0  0  0  0  0
  -23.5681  -31.1359   21.4352 N   0  0  0  0  0  0  0  0  0  0  0  0
  -29.6514  -15.4577   20.4844 N   0  0  0  0  0  0  0  0  0  0  0  0
  -24.9728  -15.2189   19.8872 N   0  0  0  0  0  0  0  0  0  0  0  0
  -22.1584  -12.3619   21.9639 N   0  0  0  0  0  0  0  0  0  0  0  0
  -28.9740  -17.7118   20.6347 N   0  0  0  0  0  0  0  0  0  0  0  0
  -25.1834  -33.5011   23.6920 N   0  0  0  0  0  0  0  0  0  0  0  0
  -20.9546  -30.1624   19.5167 N   0  0  0  0  0  0  0  0  0  0  0  0
  -21.8197  -28.5644   16.3917 N   0  3  0  0  0  0  0  0  0  0  0  0
  -22.2908  -14.3516   20.8315 O   0  0  0  0  0  0  0  0  0  0  0  0
  -23.7246  -31.7008   23.9236 O   0  0  0  0  0  0  0  0  0  0  0  0
  -21.8591  -32.5753   20.7692 O   0  0  0  0  0  0  0  0  0  0  0  0
  -21.9765  -28.1109   19.1641 O   0  0  0  0  0  0  0  0  0  0  0  0
  -31.0620  -17.1532   19.7920 O   0  0  0  0  0  0  0  0  0  0  0  0
  -30.9177  -22.3757   24.4278 O   0  0  0  0  0  0  0  0  0  0  0  0
  -28.4682  -24.0172   20.7916 O   0  0  0  0  0  0  0  0  0  0  0  0
  -23.5481   -7.5279   24.3590 O   0  0  0  0  0  0  0  0  0  0  0  0
  -27.8298  -26.7761   22.3748 O   0  0  0  0  0  0  0  0  0  1  0  0
  -19.0083   -4.9109   22.6427 F   0  0  0  0  0  0  0  0  0  0  0  0
  -31.2181  -18.4471   22.0828 F   0  0  0  0  0  0  0  0  0  0  0  0
  -23.6580   -4.8932   23.5289 F   0  0  0  0  0  0  0  0  0  0  0  0
  -26.0881  -20.7428   19.9184 F   0  0  0  0  0  0  0  0  0  0  0  0
  -27.1831  -19.2327   18.8118 F   0  0  0  0  0  0  0  0  0  0  0  0
  -26.1849  -18.7047   20.6702 F   0  0  0  0  0  0  0  0  0  0  0  0
  1  2  1  0  0  0  0
  1  5  2  0  0  0  0
  2  6  2  0  0  0  0
  3  8  2  0  0  0  0
  3 18  1  0  0  0  0
  4  9  1  0  0  0  0
  4 18  2  0  0  0  0
  5 20  1  0  0  0  0
  6 22  1  0  0  0  0
  7 10  2  0  0  0  0
  7 21  1  0  0  0  0
  8 28  1  0  0  0  0
  9 28  2  0  0  0  0
 10 29  1  0  0  0  0
 11 12  2  0  0  0  0
 11 30  1  0  0  0  0
 12 31  1  0  0  0  0
 13 23  1  0  0  0  0
 13 29  2  0  0  0  0
 14 24  1  0  0  0  0
 14 26  2  0  0  0  0
 15 25  1  0  0  0  0
 15 36  2  0  0  0  0
 16 26  1  0  0  0  0
 16 32  2  0  0  0  0
 17 31  2  0  0  0  0
 17 33  1  0  0  0  0
 18 34  1  0  0  0  0
 19 34  1  0  0  0  0
 19 35  2  0  0  0  0
 19 38  1  0  0  0  0
 20 22  2  0  0  0  0
 20 43  1  0  0  0  0
 21 23  2  0  0  0  0
 21 44  1  0  0  0  0
 22 52  1  0  0  0  0
 23 45  1  0  0  0  0
 24 27  2  0  0  0  0
 24 63  1  0  0  0  0
 25 37  2  0  0  0  0
 25 60  1  0  0  0  0
 26 66  1  0  0  0  0
 27 32  1  0  0  0  0
 27 72  1  0  0  0  0
 28 83  1  0  0  0  0
 29 84  1  0  0  0  0
 30 33  2  0  0  0  0
 30 83  1  0  0  0  0
 31 85  1  0  0  0  0
 32 86  1  0  0  0  0
 33 87  1  0  0  0  0
 34 65  2  0  0  0  0
 35 67  1  0  0  0  0
 35 70  1  0  0  0  0
 36 66  1  0  0  0  0
 36 81  1  0  0  0  0
 37 66  1  0  0  0  0
 37 82  1  0  0  0  0
 38 71  1  0  0  0  0
 38 76  2  0  0  0  0
 39 53  1  0  0  0  0
 39 73  1  0  0  0  0
 39 77  2  0  0  0  0
 40 61  1  0  0  0  0
 40 68  1  0  0  0  0
 40 78  2  0  0  0  0
 41 62  1  0  0  0  0
 41 74  1  0  0  0  0
 41 79  2  0  0  0  0
 42 69  1  0  0  0  0
 42 72  1  0  0  0  0
 42 80  2  0  0  0  0
 43 46  1  0  0  0  0
 44 53  1  0  0  0  0
 45 68  1  0  0  0  0
 46 48  1  0  0  0  0
 47 49  1  0  0  0  0
 47 50  1  0  0  0  0
 48 52  1  0  0  0  0
 49 54  1  0  0  0  0
 50 69  1  0  0  0  0
 51 54  1  0  0  0  0
 51 69  1  0  0  0  0
 52 73  1  0  0  0  0
 53 68  1  0  0  0  0
 54 67  1  0  0  0  0
 55 62  1  0  0  0  0
 56 64  1  0  0  0  0
 57 64  1  0  0  0  0
 58 64  1  0  0  0  0
 59 75  1  0  0  0  0
 60 84  1  0  0  0  0
 61 64  1  0  0  0  0
 61 74  1  0  0  0  0
 62 75  1  0  0  0  0
 63 88  1  0  0  0  0
 63 89  1  0  0  0  0
 63 90  1  0  0  0  0
 65 67  1  0  0  0  0
M  CHG  1  75   1
M  ISO  4  42 100  60 101  72 100  84 101
M  END
> <Batch ID>
0065

> <Smiles>
CNC(C)C(=O)NC(C(=O)N1Cc2cc([101O:1][101CH2:1]C3CC(=O)N(c4cc(F)c([100NH:0][100C:0](=O)N5CCCC(n6nc(-c7ccc(Oc8ccc(F)cc8F)cc7)c(C(N)=O)c6N)C5)c(C(F)(F)F)c4)C3=O)ccc2CC1C(=O)NC1CCCc2ccccc21)C(C)(C)C

> <Shape>
0.302

> <Color>
0.128

> <Negative vol penalty>
0.000

$$$$

  -OEChem-04042323183D

 84 92  0     1  0  0  0  0  0999 V2000
  -16.8365  -11.5526   29.1945 C   0  0  0  0  0  0  0  0  0  0  0  0
  -18.1778  -11.5510   29.5636 C   0  0  0  0  0  0  0  0  0  0  0  0
  -23.2883   -9.8003   19.9133 C   0  0  0  0  0  0  0  0  0  0  0  0
  -23.7418   -9.9400   22.2822 C   0  0  0  0  0  0  0  0  0  0  0  0
  -16.4012  -12.3758   28.1568 C   0  0  0  0  0  0  0  0  0  0  0  0
  -19.0849  -12.3718   28.8943 C   0  0  0  0  0  0  0  0  0  0  0  0
  -23.9584  -15.1982   31.2955 C   0  0  0  0  0  0  0  0  0  0  0  0
  -32.8087  -13.5236   23.7173 C   0  0  0  0  0  0  0  0  0  0  0  0
  -22.5626   -8.6274   20.1213 C   0  0  0  0  0  0  0  0  0  0  0  0
  -23.0161   -8.7670   22.4903 C   0  0  0  0  0  0  0  0  0  0  0  0
  -25.3153  -14.8781   31.3107 C   0  0  0  0  0  0  0  0  0  0  0  0
  -19.7697   -7.8546   22.7111 C   0  0  0  0  0  0  0  0  0  0  0  0
  -33.5785  -13.7822   24.8513 C   0  0  0  0  0  0  0  0  0  0  0  0
  -18.8686   -7.8320   23.7755 C   0  0  0  0  0  0  0  0  0  0  0  0
  -30.8899  -13.0876   25.1191 C   0  0  0  0  0  0  0  0  0  0  0  0
  -25.6653  -16.2974   29.3917 C   0  0  0  0  0  0  0  0  0  0  0  0
  -20.0763   -5.9848   24.7587 C   0  0  0  0  0  0  0  0  0  0  0  0
  -23.8779  -10.4566   20.9937 C   0  0  0  0  0  0  0  0  0  0  0  0
  -31.6597  -13.3462   26.2532 C   0  0  0  0  0  0  0  0  0  0  0  0
  -24.1361  -12.9868   20.7960 C   0  0  0  0  0  0  0  0  0  0  0  0
  -17.3016  -13.2142   27.4809 C   0  0  0  0  0  0  0  0  0  0  0  0
  -23.4420  -16.0632   30.3201 C   0  0  0  0  0  0  0  0  0  0  0  0
  -18.6615  -13.2059   27.8457 C   0  0  0  0  0  0  0  0  0  0  0  0
  -24.3020  -16.6289   29.3679 C   0  0  0  0  0  0  0  0  0  0  0  0
  -31.4643  -13.1763   23.8511 C   0  0  0  0  0  0  0  0  0  0  0  0
  -22.4265   -8.1108   21.4098 C   0  0  0  0  0  0  0  0  0  0  0  0
  -26.1684  -15.4255   30.3569 C   0  0  0  0  0  0  0  0  0  0  0  0
  -20.8241   -6.9422   22.6703 C   0  0  0  0  0  0  0  0  0  0  0  0
  -19.0219   -6.8972   24.7993 C   0  0  0  0  0  0  0  0  0  0  0  0
  -33.0040  -13.6935   26.1193 C   0  0  0  0  0  0  0  0  0  0  0  0
  -20.9774   -6.0074   23.6941 C   0  0  0  0  0  0  0  0  0  0  0  0
  -24.6281  -11.6679   20.7794 C   0  0  0  0  0  0  0  0  0  0  0  0
  -25.2369  -13.7672   20.5401 C   0  0  0  0  0  0  0  0  0  0  0  0
  -31.0490  -13.2508   27.5951 C   0  0  0  0  0  0  0  0  0  0  0  0
  -22.8031  -13.4638   21.0227 C   0  0  0  0  0  0  0  0  0  0  0  0
  -21.2975  -15.7912   27.9896 C   0  0  0  0  0  0  0  0  0  0  0  0
  -21.7998  -18.9814   27.6847 C   0  0  0  0  0  0  0  0  0  0  0  0
  -29.2923  -14.1113   29.1261 C   0  0  0  0  0  0  0  0  0  0  0  0
  -23.8736  -21.6475   28.1729 C   0  0  0  0  0  0  0  0  0  0  0  0
  -31.0986  -12.9549   21.3685 C   0  0  0  0  0  0  0  0  0  0  0  0
  -16.7929  -14.0516   26.3342 C   0  0  0  0  0  0  0  0  0  0  0  0
  -21.9807  -16.4195   30.3337 C   0  0  0  0  0  0  0  0  0  0  0  0
  -23.8010  -17.5787   28.3119 C   0  0  0  0  0  0  0  0  0  0  0  0
  -17.7493  -15.1686   25.9245 C   0  0  0  0  0  0  0  0  0  0  0  0
  -29.4612  -13.6601   18.2865 C   0  0  0  0  0  0  0  0  0  0  0  0
  -19.1745  -14.6366   25.8120 C   0  0  0  0  0  0  0  0  0  0  0  0
  -27.9903  -13.3551   18.5793 C   0  0  0  0  0  0  0  0  0  0  0  0
  -30.3956  -12.6850   19.0004 C   0  0  0  0  0  0  0  0  0  0  0  0
  -28.7047  -12.2554   20.7397 C   0  0  0  0  0  0  0  0  0  0  0  0
  -19.6713  -14.1006   27.1601 C   0  0  1  0  0  0  0  0  0  0  0  0
  -21.4720  -16.9071   28.9806 C   0  0  1  0  0  0  0  0  0  0  0  0
  -27.7271  -13.2512   20.0944 C   0  0  2  0  0  0  0  0  0  0  0  0
  -24.0249  -24.1222   27.7857 C   0  0  0  0  0  0  0  0  0  0  0  0
  -22.3765  -18.4814   24.7305 C   0  0  0  0  0  0  0  0  0  0  0  0
  -23.4223  -20.7536   24.6217 C   0  0  0  0  0  0  0  0  0  0  0  0
  -21.0058  -20.5209   25.1952 C   0  0  0  0  0  0  0  0  0  0  0  0
  -24.0885  -22.2051   31.0715 C   0  0  0  0  0  0  0  0  0  0  0  0
  -28.1726  -15.1175   29.1142 C   0  0  0  0  0  0  0  0  0  1  0  0
  -22.7531  -19.8425   26.8918 C   0  0  1  0  0  0  0  0  0  0  0  0
  -23.6221  -23.0251   28.7588 C   0  0  2  0  0  0  0  0  0  0  0  0
  -22.3988  -19.8802   25.3784 C   0  0  0  0  0  0  0  0  0  0  0  0
  -25.9395  -11.6099   20.5322 N   0  0  0  0  0  0  0  0  0  0  0  0
  -26.2807  -12.9021   20.3912 N   0  0  0  0  0  0  0  0  0  0  0  0
  -22.3632  -17.8912   28.3629 N   0  0  0  0  0  0  0  0  0  0  0  0
  -30.0905  -12.6422   20.4321 N   0  0  0  0  0  0  0  0  0  0  0  0
  -25.4042  -15.1023   20.4301 N   0  0  0  0  0  0  0  0  0  0  0  0
  -21.7912  -12.5263   21.2709 N   0  0  0  0  0  0  0  0  0  0  0  0
  -30.6830  -12.9125   22.6989 N   0  0  0  0  0  0  0  0  0  0  0  0
  -30.0105  -14.0502   27.8750 N   0  0  0  0  0  0  0  0  0  0  0  0
  -20.0523  -15.1933   28.0291 N   0  0  0  0  0  0  0  0  0  0  0  0
  -22.7551  -21.1506   27.5378 N   0  0  0  0  0  0  0  0  0  0  0  0
  -31.5670  -12.3702   28.4509 N   0  3  0  0  0  0  0  0  0  0  0  0
  -24.4013  -23.2032   30.0166 N   0  3  0  0  0  0  0  0  0  0  0  0
  -22.5147  -14.6841   20.9893 O   0  0  0  0  0  0  0  0  0  0  0  0
  -22.2234  -15.4956   27.2434 O   0  0  0  0  0  0  0  0  0  0  0  0
  -20.6006  -19.2696   27.7073 O   0  0  0  0  0  0  0  0  0  0  0  0
  -29.5910  -13.4023   30.0763 O   0  0  0  0  0  0  0  0  0  0  0  0
  -24.9552  -21.0713   28.2660 O   0  0  0  0  0  0  0  0  0  0  0  0
  -32.2389  -13.2658   21.0149 O   0  0  0  0  0  0  0  0  0  0  0  0
  -21.7183   -6.9664   21.6132 O   0  0  0  0  0  0  0  0  0  0  0  0
  -27.4931  -15.1142   30.3690 O   0  0  0  0  0  0  0  0  0  1  0  0
  -18.1575   -6.8766   25.8223 F   0  0  0  0  0  0  0  0  0  0  0  0
  -33.7516  -13.9435   27.2033 F   0  0  0  0  0  0  0  0  0  0  0  0
  -21.9890   -5.1291   23.6611 F   0  0  0  0  0  0  0  0  0  0  0  0
  1  2  1  0  0  0  0
  1  5  2  0  0  0  0
  2  6  2  0  0  0  0
  3  9  2  0  0  0  0
  3 18  1  0  0  0  0
  4 10  1  0  0  0  0
  4 18  2  0  0  0  0
  5 21  1  0  0  0  0
  6 23  1  0  0  0  0
  7 11  2  0  0  0  0
  7 22  1  0  0  0  0
  8 13  2  0  0  0  0
  8 25  1  0  0  0  0
  9 26  1  0  0  0  0
 10 26  2  0  0  0  0
 11 27  1  0  0  0  0
 12 14  2  0  0  0  0
 12 28  1  0  0  0  0
 13 30  1  0  0  0  0
 14 29  1  0  0  0  0
 15 19  1  0  0  0  0
 15 25  2  0  0  0  0
 16 24  1  0  0  0  0
 16 27  2  0  0  0  0
 17 29  2  0  0  0  0
 17 31  1  0  0  0  0
 18 32  1  0  0  0  0
 19 30  2  0  0  0  0
 19 34  1  0  0  0  0
 20 32  1  0  0  0  0
 20 33  2  0  0  0  0
 20 35  1  0  0  0  0
 21 23  2  0  0  0  0
 21 41  1  0  0  0  0
 22 24  2  0  0  0  0
 22 42  1  0  0  0  0
 23 50  1  0  0  0  0
 24 43  1  0  0  0  0
 25 68  1  0  0  0  0
 26 80  1  0  0  0  0
 27 81  1  0  0  0  0
 28 31  2  0  0  0  0
 28 80  1  0  0  0  0
 29 82  1  0  0  0  0
 30 83  1  0  0  0  0
 31 84  1  0  0  0  0
 32 62  2  0  0  0  0
 33 63  1  0  0  0  0
 33 66  1  0  0  0  0
 34 69  1  0  0  0  0
 34 72  2  0  0  0  0
 35 67  1  0  0  0  0
 35 74  2  0  0  0  0
 36 51  1  0  0  0  0
 36 70  1  0  0  0  0
 36 75  2  0  0  0  0
 37 59  1  0  0  0  0
 37 64  1  0  0  0  0
 37 76  2  0  0  0  0
 38 58  1  0  0  0  0
 38 69  1  0  0  0  0
 38 77  2  0  0  0  0
 39 60  1  0  0  0  0
 39 71  1  0  0  0  0
 39 78  2  0  0  0  0
 40 65  1  0  0  0  0
 40 68  1  0  0  0  0
 40 79  2  0  0  0  0
 41 44  1  0  0  0  0
 42 51  1  0  0  0  0
 43 64  1  0  0  0  0
 44 46  1  0  0  0  0
 45 47  1  0  0  0  0
 45 48  1  0  0  0  0
 46 50  1  0  0  0  0
 47 52  1  0  0  0  0
 48 65  1  0  0  0  0
 49 52  1  0  0  0  0
 49 65  1  0  0  0  0
 50 70  1  0  0  0  0
 51 64  1  0  0  0  0
 52 63  1  0  0  0  0
 53 60  1  0  0  0  0
 54 61  1  0  0  0  0
 55 61  1  0  0  0  0
 56 61  1  0  0  0  0
 57 73  1  0  0  0  0
 58 81  1  0  0  0  0
 59 61  1  0  0  0  0
 59 71  1  0  0  0  0
 60 73  1  0  0  0  0
 62 63  1  0  0  0  0
M  CHG  2  72   1  73   1
M  ISO  4  40 100  58 101  68 100  81 101
M  END
> <Batch ID>
0065

> <Smiles>
CNC(C)C(=O)NC(C(=O)N1Cc2cc([101O:1][101CH2:1]C(=O)NC(=N)c3cc([100NH:0][100C:0](=O)N4CCCC(n5nc(-c6ccc(Oc7ccc(F)cc7F)cc6)c(C(N)=O)c5N)C4)ccc3F)ccc2CC1C(=O)NC1CCCc2ccccc21)C(C)(C)C

> <Shape>
0.133

> <Color>
0.171

> <Negative vol penalty>
0.000

$$$$

  -OEChem-04042323183D

 83 91  0     1  0  0  0  0  0999 V2000
  -28.3791  -37.3224   19.5573 C   0  0  0  0  0  0  0  0  0  0  0  0
  -28.7525  -35.9899   19.4148 C   0  0  0  0  0  0  0  0  0  0  0  0
  -24.3209   -8.9014   20.4690 C   0  0  0  0  0  0  0  0  0  0  0  0
  -22.7292  -10.5868   21.1494 C   0  0  0  0  0  0  0  0  0  0  0  0
  -27.4750  -37.6892   20.5533 C   0  0  0  0  0  0  0  0  0  0  0  0
  -28.2228  -35.0234   20.2690 C   0  0  0  0  0  0  0  0  0  0  0  0
  -26.8518  -29.2222   18.8648 C   0  0  0  0  0  0  0  0  0  0  0  0
  -26.9373  -19.2123   19.5007 C   0  0  0  0  0  0  0  0  0  0  0  0
  -23.4325   -7.9021   20.8662 C   0  0  0  0  0  0  0  0  0  0  0  0
  -21.8408   -9.5875   21.5466 C   0  0  0  0  0  0  0  0  0  0  0  0
  -27.5379  -28.0236   19.0557 C   0  0  0  0  0  0  0  0  0  0  0  0
  -22.4496   -6.4479   23.7547 C   0  0  0  0  0  0  0  0  0  0  0  0
  -22.9625   -5.3824   24.4944 C   0  0  0  0  0  0  0  0  0  0  0  0
  -26.7003  -20.5716   19.2968 C   0  0  0  0  0  0  0  0  0  0  0  0
  -26.2875  -27.6374   21.0821 C   0  0  0  0  0  0  0  0  0  0  0  0
  -28.1547  -19.7279   21.5229 C   0  0  0  0  0  0  0  0  0  0  0  0
  -22.2431   -3.8434   22.7765 C   0  0  0  0  0  0  0  0  0  0  0  0
  -23.9692  -10.2438   20.6107 C   0  0  0  0  0  0  0  0  0  0  0  0
  -24.9791  -11.8768   18.9310 C   0  0  0  0  0  0  0  0  0  0  0  0
  -26.9266  -36.7253   21.4139 C   0  0  0  0  0  0  0  0  0  0  0  0
  -25.8844  -29.6434   19.7885 C   0  0  0  0  0  0  0  0  0  0  0  0
  -27.3115  -35.3778   21.2784 C   0  0  0  0  0  0  0  0  0  0  0  0
  -25.5886  -28.8404   20.8993 C   0  0  0  0  0  0  0  0  0  0  0  0
  -27.6645  -18.7904   20.6138 C   0  0  0  0  0  0  0  0  0  0  0  0
  -27.9177  -21.0873   21.3190 C   0  0  0  0  0  0  0  0  0  0  0  0
  -22.1925   -8.2451   21.4049 C   0  0  0  0  0  0  0  0  0  0  0  0
  -27.2579  -27.2324   20.1659 C   0  0  0  0  0  0  0  0  0  0  0  0
  -21.8333   -6.2112   22.5259 C   0  0  0  0  0  0  0  0  0  0  0  0
  -22.8593   -4.0801   24.0053 C   0  0  0  0  0  0  0  0  0  0  0  0
  -21.7301   -4.9090   22.0368 C   0  0  0  0  0  0  0  0  0  0  0  0
  -27.1905  -21.5091   20.2059 C   0  0  0  0  0  0  0  0  0  0  0  0
  -24.8867  -11.2766   20.2011 C   0  0  0  0  0  0  0  0  0  0  0  0
  -25.9977  -12.7896   19.0560 C   0  0  0  0  0  0  0  0  0  0  0  0
  -24.2126  -11.6313   17.7445 C   0  0  0  0  0  0  0  0  0  0  0  0
  -25.5643  -32.1514   21.7149 C   0  0  0  0  0  0  0  0  0  0  0  0
  -22.6438  -30.8559   22.2757 C   0  0  0  0  0  0  0  0  0  0  0  0
  -20.6593  -28.0794   22.2850 C   0  0  0  0  0  0  0  0  0  0  0  0
  -28.6062  -16.8223   21.8732 C   0  0  0  0  0  0  0  0  0  0  0  0
  -25.9892  -37.1765   22.5059 C   0  0  0  0  0  0  0  0  0  0  0  0
  -25.1341  -30.9258   19.5542 C   0  0  0  0  0  0  0  0  0  0  0  0
  -24.5447  -29.2378   21.9096 C   0  0  0  0  0  0  0  0  0  0  0  0
  -25.1869  -36.0372   23.1292 C   0  0  0  0  0  0  0  0  0  0  0  0
  -29.3821  -13.4623   22.7595 C   0  0  0  0  0  0  0  0  0  0  0  0
  -26.0965  -34.8542   23.4452 C   0  0  0  0  0  0  0  0  0  0  0  0
  -28.2893  -12.6435   22.0684 C   0  0  0  0  0  0  0  0  0  0  0  0
  -28.8465  -14.7924   23.2863 C   0  0  0  0  0  0  0  0  0  0  0  0
  -27.0468  -14.7946   21.6040 C   0  0  0  0  0  0  0  0  0  0  0  0
  -26.7397  -34.2967   22.1697 C   0  0  1  0  0  0  0  0  0  0  0  0
  -24.5340  -31.5087   20.8299 C   0  0  1  0  0  0  0  0  0  0  0  0
  -27.5531  -13.4748   20.9995 C   0  0  2  0  0  0  0  0  0  0  0  0
  -18.3282  -27.3260   22.8291 C   0  0  0  0  0  0  0  0  0  0  0  0
  -23.3073  -30.9605   25.2520 C   0  0  0  0  0  0  0  0  0  0  0  0
  -21.4184  -29.3681   25.6580 C   0  0  0  0  0  0  0  0  0  0  0  0
  -20.9627  -31.6181   24.6821 C   0  0  0  0  0  0  0  0  0  0  0  0
  -20.1619  -27.2198   19.4971 C   0  0  0  0  0  0  0  0  0  0  0  0
  -28.3689  -25.3712   19.1875 C   0  0  0  0  0  0  0  0  0  1  0  0
  -28.4458  -23.8862   19.4798 C   0  0  0  0  0  0  0  0  0  0  0  0
  -22.0891  -29.8561   23.2615 C   0  0  1  0  0  0  0  0  0  0  0  0
  -19.2618  -27.8383   21.7434 C   0  0  2  0  0  0  0  0  0  0  0  0
  -21.9655  -30.4439   24.6956 C   0  0  0  0  0  0  0  0  0  0  0  0
  -25.7758  -11.7666   21.0690 N   0  0  0  0  0  0  0  0  0  0  0  0
  -26.4367  -12.6845   20.3430 N   0  0  0  0  0  0  0  0  0  0  0  0
  -23.8427  -30.5035   21.6399 N   0  0  0  0  0  0  0  0  0  0  0  0
  -28.1656  -15.5269   22.2178 N   0  0  0  0  0  0  0  0  0  0  0  0
  -28.4234  -22.0172   22.2541 N   0  0  0  0  0  0  0  0  0  0  0  0
  -26.5519  -13.6638   18.1894 N   0  0  0  0  0  0  0  0  0  0  0  0
  -23.2039  -10.6593   17.7899 N   0  0  0  0  0  0  0  0  0  0  0  0
  -27.9039  -17.4093   20.8212 N   0  0  0  0  0  0  0  0  0  0  0  0
  -25.7903  -33.4861   21.4376 N   0  0  0  0  0  0  0  0  0  0  0  0
  -20.8288  -29.3839   22.6985 N   0  0  0  0  0  0  0  0  0  0  0  0
  -19.2988  -26.8339   20.6431 N   0  3  0  0  0  0  0  0  0  0  0  0
  -24.4271  -12.2438   16.6710 O   0  0  0  0  0  0  0  0  0  0  0  0
  -26.1124  -31.4861   22.5859 O   0  0  0  0  0  0  0  0  0  0  0  0
  -22.0319  -31.9074   22.0718 O   0  0  0  0  0  0  0  0  0  0  0  0
  -21.5138  -27.1978   22.3395 O   0  0  0  0  0  0  0  0  0  0  0  0
  -29.5554  -17.3596   22.4495 O   0  0  0  0  0  0  0  0  0  0  0  0
  -25.9964  -23.2973   18.7529 O   0  0  0  0  0  0  0  0  0  0  0  0
  -26.4640  -23.8238   21.1716 O   0  0  0  0  0  0  0  0  0  0  0  0
  -21.3253   -7.2702   21.7924 O   0  0  0  0  0  0  0  0  0  0  0  0
  -27.9266  -26.0624   20.3550 O   0  0  0  0  0  0  0  0  0  1  0  0
  -23.3533   -3.0572   24.7150 F   0  0  0  0  0  0  0  0  0  0  0  0
  -21.1402   -4.6755   20.8564 F   0  0  0  0  0  0  0  0  0  0  0  0
  -26.8671  -23.2221   19.9127 S   0  0  0  0  0  0  0  0  0  0  0  0
  1  2  1  0  0  0  0
  1  5  2  0  0  0  0
  2  6  2  0  0  0  0
  3  9  2  0  0  0  0
  3 18  1  0  0  0  0
  4 10  1  0  0  0  0
  4 18  2  0  0  0  0
  5 20  1  0  0  0  0
  6 22  1  0  0  0  0
  7 11  2  0  0  0  0
  7 21  1  0  0  0  0
  8 14  2  0  0  0  0
  8 24  1  0  0  0  0
  9 26  1  0  0  0  0
 10 26  2  0  0  0  0
 11 27  1  0  0  0  0
 12 13  2  0  0  0  0
 12 28  1  0  0  0  0
 13 29  1  0  0  0  0
 14 31  1  0  0  0  0
 15 23  1  0  0  0  0
 15 27  2  0  0  0  0
 16 24  2  0  0  0  0
 16 25  1  0  0  0  0
 17 29  2  0  0  0  0
 17 30  1  0  0  0  0
 18 32  1  0  0  0  0
 19 32  1  0  0  0  0
 19 33  2  0  0  0  0
 19 34  1  0  0  0  0
 20 22  2  0  0  0  0
 20 39  1  0  0  0  0
 21 23  2  0  0  0  0
 21 40  1  0  0  0  0
 22 48  1  0  0  0  0
 23 41  1  0  0  0  0
 24 68  1  0  0  0  0
 25 31  2  0  0  0  0
 25 65  1  0  0  0  0
 26 79  1  0  0  0  0
 27 80  1  0  0  0  0
 28 30  2  0  0  0  0
 28 79  1  0  0  0  0
 29 81  1  0  0  0  0
 30 82  1  0  0  0  0
 31 83  1  0  0  0  0
 32 61  2  0  0  0  0
 33 62  1  0  0  0  0
 33 66  1  0  0  0  0
 34 67  1  0  0  0  0
 34 72  2  0  0  0  0
 35 49  1  0  0  0  0
 35 69  1  0  0  0  0
 35 73  2  0  0  0  0
 36 58  1  0  0  0  0
 36 63  1  0  0  0  0
 36 74  2  0  0  0  0
 37 59  1  0  0  0  0
 37 70  1  0  0  0  0
 37 75  2  0  0  0  0
 38 64  1  0  0  0  0
 38 68  1  0  0  0  0
 38 76  2  0  0  0  0
 39 42  1  0  0  0  0
 40 49  1  0  0  0  0
 41 63  1  0  0  0  0
 42 44  1  0  0  0  0
 43 45  1  0  0  0  0
 43 46  1  0  0  0  0
 44 48  1  0  0  0  0
 45 50  1  0  0  0  0
 46 64  1  0  0  0  0
 47 50  1  0  0  0  0
 47 64  1  0  0  0  0
 48 69  1  0  0  0  0
 49 63  1  0  0  0  0
 50 62  1  0  0  0  0
 51 59  1  0  0  0  0
 52 60  1  0  0  0  0
 53 60  1  0  0  0  0
 54 60  1  0  0  0  0
 55 71  1  0  0  0  0
 56 57  1  0  0  0  0
 56 80  1  0  0  0  0
 57 83  1  0  0  0  0
 58 60  1  0  0  0  0
 58 70  1  0  0  0  0
 59 71  1  0  0  0  0
 61 62  1  0  0  0  0
 77 83  2  0  0  0  0
 78 83  2  0  0  0  0
M  CHG  1  71   1
M  ISO  4  38 100  56 101  68 100  80 101
M  END
> <Batch ID>
0065

> <Smiles>
CNC(C)C(=O)NC(C(=O)N1Cc2cc([101O:1][101CH2:1]CS(=O)(=O)c3ccc([100NH:0][100C:0](=O)N4CCCC(n5nc(-c6ccc(Oc7ccc(F)cc7F)cc6)c(C(N)=O)c5N)C4)cc3N)ccc2CC1C(=O)NC1CCCc2ccccc21)C(C)(C)C

> <Shape>
0.296

> <Color>
0.116

> <Negative vol penalty>
0.000

$$$$

  -OEChem-04042323183D

 85 93  0     1  0  0  0  0  0999 V2000
  -19.1104  -24.1446   23.1808 C   0  0  0  0  0  0  0  0  0  0  0  0
  -20.4317  -24.2637   22.7619 C   0  0  0  0  0  0  0  0  0  0  0  0
  -24.0575  -11.1325   23.4647 C   0  0  0  0  0  0  0  0  0  0  0  0
  -23.3344  -13.3922   23.0089 C   0  0  0  0  0  0  0  0  0  0  0  0
  -18.2827  -25.2664   23.2004 C   0  0  0  0  0  0  0  0  0  0  0  0
  -20.9257  -25.5046   22.3613 C   0  0  0  0  0  0  0  0  0  0  0  0
  -25.5026  -26.4889   24.2922 C   0  0  0  0  0  0  0  0  0  0  0  0
  -23.3907  -11.1661   24.6894 C   0  0  0  0  0  0  0  0  0  0  0  0
  -22.6676  -13.4259   24.2336 C   0  0  0  0  0  0  0  0  0  0  0  0
  -26.5951  -25.8674   23.6891 C   0  0  0  0  0  0  0  0  0  0  0  0
  -20.2144  -10.8539   25.8057 C   0  0  0  0  0  0  0  0  0  0  0  0
  -19.4430   -9.7454   26.1545 C   0  0  0  0  0  0  0  0  0  0  0  0
  -28.3230  -20.0995   19.2712 C   0  0  0  0  0  0  0  0  0  0  0  0
  -27.0759  -27.8988   22.4802 C   0  0  0  0  0  0  0  0  0  0  0  0
  -30.5298  -18.3987   19.4120 C   0  0  0  0  0  0  0  0  0  0  0  0
  -20.8036   -9.4183   28.1240 C   0  0  0  0  0  0  0  0  0  0  0  0
  -24.0294  -12.2455   22.6245 C   0  0  0  0  0  0  0  0  0  0  0  0
  -29.6030  -20.6298   19.4325 C   0  0  0  0  0  0  0  0  0  0  0  0
  -24.1986  -11.7953   20.1192 C   0  0  0  0  0  0  0  0  0  0  0  0
  -18.7696  -26.5235   22.8090 C   0  0  0  0  0  0  0  0  0  0  0  0
  -25.1814  -27.8190   23.9850 C   0  0  0  0  0  0  0  0  0  0  0  0
  -20.1033  -26.6441   22.3744 C   0  0  0  0  0  0  0  0  0  0  0  0
  -25.9803  -28.5357   23.0826 C   0  0  0  0  0  0  0  0  0  0  0  0
  -30.7064  -19.7794   19.5028 C   0  0  0  0  0  0  0  0  0  0  0  0
  -29.2497  -17.8684   19.2507 C   0  0  0  0  0  0  0  0  0  0  0  0
  -22.6958  -12.3128   25.0739 C   0  0  0  0  0  0  0  0  0  0  0  0
  -27.3803  -26.5713   22.7808 C   0  0  0  0  0  0  0  0  0  0  0  0
  -21.2804  -11.2446   26.6160 C   0  0  0  0  0  0  0  0  0  0  0  0
  -19.7376   -9.0275   27.3136 C   0  0  0  0  0  0  0  0  0  0  0  0
  -28.1464  -18.7189   19.1804 C   0  0  0  0  0  0  0  0  0  0  0  0
  -21.5750  -10.5268   27.7751 C   0  0  0  0  0  0  0  0  0  0  0  0
  -24.7184  -12.2116   21.3595 C   0  0  0  0  0  0  0  0  0  0  0  0
  -25.2417  -11.9525   19.2396 C   0  0  0  0  0  0  0  0  0  0  0  0
  -29.7630  -22.0954   19.5272 C   0  0  0  0  0  0  0  0  0  0  0  0
  -22.8899  -11.3099   19.7915 C   0  0  0  0  0  0  0  0  0  0  0  0
  -22.6763  -29.2781   22.6816 C   0  0  0  0  0  0  0  0  0  0  0  0
  -24.3219  -31.9605   23.4686 C   0  0  0  0  0  0  0  0  0  0  0  0
  -29.1677  -24.1571   20.7784 C   0  0  0  0  0  0  0  0  0  0  0  0
  -27.3309  -33.4164   24.1564 C   0  0  0  0  0  0  0  0  0  0  0  0
  -30.0617  -15.4840   19.2123 C   0  0  0  0  0  0  0  0  0  0  0  0
  -17.8238  -27.6983   22.8022 C   0  0  0  0  0  0  0  0  0  0  0  0
  -24.0155  -28.4834   24.6643 C   0  0  0  0  0  0  0  0  0  0  0  0
  -25.6900  -29.9720   22.7342 C   0  0  0  0  0  0  0  0  0  0  0  0
  -18.5305  -29.0488   22.7182 C   0  0  0  0  0  0  0  0  0  0  0  0
  -30.0273  -11.9268   19.0625 C   0  0  0  0  0  0  0  0  0  0  0  0
  -19.6062  -29.0221   21.6371 C   0  0  0  0  0  0  0  0  0  0  0  0
  -28.6127  -11.5585   19.5159 C   0  0  0  0  0  0  0  0  0  0  0  0
  -30.5726  -13.1313   19.8278 C   0  0  0  0  0  0  0  0  0  0  0  0
  -28.2913  -13.9485   20.2722 C   0  0  0  0  0  0  0  0  0  0  0  0
  -20.6830  -27.9778   21.9558 C   0  0  1  0  0  0  0  0  0  0  0  0
  -23.4753  -29.6809   23.8887 C   0  0  1  0  0  0  0  0  0  0  0  0
  -27.6747  -12.7811   19.4844 C   0  0  2  0  0  0  0  0  0  0  0  0
  -28.3630  -35.6318   24.7257 C   0  0  0  0  0  0  0  0  0  0  0  0
  -24.0373  -32.8377   20.5601 C   0  0  0  0  0  0  0  0  0  0  0  0
  -25.8480  -34.5192   20.9629 C   0  0  0  0  0  0  0  0  0  0  0  0
  -23.7084  -34.6634   22.2373 C   0  0  0  0  0  0  0  0  0  0  0  0
  -28.3360  -32.4119   26.7525 C   0  0  0  0  0  0  0  0  0  0  0  0
  -28.3639  -24.5568   21.9870 C   0  0  0  0  0  0  0  0  0  1  0  0
  -25.3534  -32.8222   22.7813 C   0  0  1  0  0  0  0  0  0  0  0  0
  -27.7686  -34.3444   25.2752 C   0  0  2  0  0  0  0  0  0  0  0  0
  -24.7413  -33.6830   21.6403 C   0  0  0  0  0  0  0  0  0  0  0  0
  -25.9927  -12.6036   21.2791 N   0  0  0  0  0  0  0  0  0  0  0  0
  -26.2824  -12.4343   19.9777 N   0  0  0  0  0  0  0  0  0  0  0  0
  -24.5355  -30.5756   23.4199 N   0  0  0  0  0  0  0  0  0  0  0  0
  -29.6331  -14.2522   19.7505 N   0  0  0  0  0  0  0  0  0  0  0  0
  -32.0101  -20.2983   19.6659 N   0  0  0  0  0  0  0  0  0  0  0  0
  -25.3610  -11.7241   17.9144 N   0  0  0  0  0  0  0  0  0  0  0  0
  -21.9381  -11.2112   20.8156 N   0  0  0  0  0  0  0  0  0  0  0  0
  -29.0726  -16.4656   19.1597 N   0  0  0  0  0  0  0  0  0  0  0  0
  -29.1415  -22.7355   20.5273 N   0  0  0  0  0  0  0  0  0  0  0  0
  -21.5874  -28.4775   22.9692 N   0  0  0  0  0  0  0  0  0  0  0  0
  -26.0030  -33.5980   23.8323 N   0  0  0  0  0  0  0  0  0  0  0  0
  -30.5208  -22.6970   18.6108 N   0  3  0  0  0  0  0  0  0  0  0  0
  -28.7941  -33.6797   26.1281 N   0  3  0  0  0  0  0  0  0  0  0  0
  -22.5788  -10.9583   18.6283 O   0  0  0  0  0  0  0  0  0  0  0  0
  -23.0214  -29.6662   21.5716 O   0  0  0  0  0  0  0  0  0  0  0  0
  -23.3657  -32.4967   24.0342 O   0  0  0  0  0  0  0  0  0  0  0  0
  -29.7907  -24.9272   20.0617 O   0  0  0  0  0  0  0  0  0  0  0  0
  -28.0918  -32.6135   23.6208 O   0  0  0  0  0  0  0  0  0  0  0  0
  -31.2135  -15.6470   18.8014 O   0  0  0  0  0  0  0  0  0  0  0  0
  -22.0448  -12.3459   26.2687 O   0  0  0  0  0  0  0  0  0  0  0  0
  -28.4469  -25.9668   22.1903 O   0  0  0  0  0  0  0  0  0  1  0  0
  -18.9958   -7.9640   27.6493 F   0  0  0  0  0  0  0  0  0  0  0  0
  -26.9115  -18.2197   19.0275 F   0  0  0  0  0  0  0  0  0  0  0  0
  -22.5972  -10.8981   28.5581 F   0  0  0  0  0  0  0  0  0  0  0  0
  1  2  1  0  0  0  0
  1  5  2  0  0  0  0
  2  6  2  0  0  0  0
  3  8  2  0  0  0  0
  3 17  1  0  0  0  0
  4  9  1  0  0  0  0
  4 17  2  0  0  0  0
  5 20  1  0  0  0  0
  6 22  1  0  0  0  0
  7 10  2  0  0  0  0
  7 21  1  0  0  0  0
  8 26  1  0  0  0  0
  9 26  2  0  0  0  0
 10 27  1  0  0  0  0
 11 12  2  0  0  0  0
 11 28  1  0  0  0  0
 12 29  1  0  0  0  0
 13 18  1  0  0  0  0
 13 30  2  0  0  0  0
 14 23  1  0  0  0  0
 14 27  2  0  0  0  0
 15 24  1  0  0  0  0
 15 25  2  0  0  0  0
 16 29  2  0  0  0  0
 16 31  1  0  0  0  0
 17 32  1  0  0  0  0
 18 24  2  0  0  0  0
 18 34  1  0  0  0  0
 19 32  1  0  0  0  0
 19 33  2  0  0  0  0
 19 35  1  0  0  0  0
 20 22  2  0  0  0  0
 20 41  1  0  0  0  0
 21 23  2  0  0  0  0
 21 42  1  0  0  0  0
 22 50  1  0  0  0  0
 23 43  1  0  0  0  0
 24 66  1  0  0  0  0
 25 30  1  0  0  0  0
 25 69  1  0  0  0  0
 26 81  1  0  0  0  0
 27 82  1  0  0  0  0
 28 31  2  0  0  0  0
 28 81  1  0  0  0  0
 29 83  1  0  0  0  0
 30 84  1  0  0  0  0
 31 85  1  0  0  0  0
 32 62  2  0  0  0  0
 33 63  1  0  0  0  0
 33 67  1  0  0  0  0
 34 70  1  0  0  0  0
 34 73  2  0  0  0  0
 35 68  1  0  0  0  0
 35 75  2  0  0  0  0
 36 51  1  0  0  0  0
 36 71  1  0  0  0  0
 36 76  2  0  0  0  0
 37 59  1  0  0  0  0
 37 64  1  0  0  0  0
 37 77  2  0  0  0  0
 38 58  1  0  0  0  0
 38 70  1  0  0  0  0
 38 78  2  0  0  0  0
 39 60  1  0  0  0  0
 39 72  1  0  0  0  0
 39 79  2  0  0  0  0
 40 65  1  0  0  0  0
 40 69  1  0  0  0  0
 40 80  2  0  0  0  0
 41 44  1  0  0  0  0
 42 51  1  0  0  0  0
 43 64  1  0  0  0  0
 44 46  1  0  0  0  0
 45 47  1  0  0  0  0
 45 48  1  0  0  0  0
 46 50  1  0  0  0  0
 47 52  1  0  0  0  0
 48 65  1  0  0  0  0
 49 52  1  0  0  0  0
 49 65  1  0  0  0  0
 50 71  1  0  0  0  0
 51 64  1  0  0  0  0
 52 63  1  0  0  0  0
 53 60  1  0  0  0  0
 54 61  1  0  0  0  0
 55 61  1  0  0  0  0
 56 61  1  0  0  0  0
 57 74  1  0  0  0  0
 58 82  1  0  0  0  0
 59 61  1  0  0  0  0
 59 72  1  0  0  0  0
 60 74  1  0  0  0  0
 62 63  1  0  0  0  0
M  CHG  2  73   1  74   1
M  ISO  4  40 100  58 101  69 100  82 101
M  END
> <Batch ID>
0065

> <Smiles>
CNC(C)C(=O)NC(C(=O)N1Cc2cc([101O:1][101CH2:1]C(=O)NC(=N)c3cc(F)c([100NH:0][100C:0](=O)N4CCCC(n5nc(-c6ccc(Oc7ccc(F)cc7F)cc6)c(C(N)=O)c5N)C4)cc3N)ccc2CC1C(=O)NC1CCCc2ccccc21)C(C)(C)C

> <Shape>
0.271

> <Color>
0.093

> <Negative vol penalty>
0.000

$$$$

  -OEChem-04042323183D

 85 93  0     1  0  0  0  0  0999 V2000
  -28.1968  -25.8166   29.1815 C   0  0  0  0  0  0  0  0  0  0  0  0
  -28.4403  -25.4336   27.8665 C   0  0  0  0  0  0  0  0  0  0  0  0
  -32.6932  -18.2943   21.5287 C   0  0  0  0  0  0  0  0  0  0  0  0
  -23.0828   -9.9391   21.5229 C   0  0  0  0  0  0  0  0  0  0  0  0
  -23.8689  -10.8751   23.6069 C   0  0  0  0  0  0  0  0  0  0  0  0
  -27.0236  -26.4986   29.5019 C   0  0  0  0  0  0  0  0  0  0  0  0
  -27.5103  -25.7314   26.8711 C   0  0  0  0  0  0  0  0  0  0  0  0
  -29.6757  -27.5497   22.6700 C   0  0  0  0  0  0  0  0  0  0  0  0
  -32.0961  -17.1209   21.0679 C   0  0  0  0  0  0  0  0  0  0  0  0
  -22.3424   -8.9905   22.2282 C   0  0  0  0  0  0  0  0  0  0  0  0
  -23.1284   -9.9266   24.3123 C   0  0  0  0  0  0  0  0  0  0  0  0
  -30.2831  -26.6292   21.8171 C   0  0  0  0  0  0  0  0  0  0  0  0
  -20.5291   -6.0959   23.4760 C   0  0  0  0  0  0  0  0  0  0  0  0
  -20.5821   -4.7728   23.0377 C   0  0  0  0  0  0  0  0  0  0  0  0
  -31.9028  -19.3926   21.8674 C   0  0  0  0  0  0  0  0  0  0  0  0
  -28.3381  -26.6765   20.3909 C   0  0  0  0  0  0  0  0  0  0  0  0
  -29.9182  -18.1442   21.2842 C   0  0  0  0  0  0  0  0  0  0  0  0
  -22.9708   -4.7488   23.3992 C   0  0  0  0  0  0  0  0  0  0  0  0
  -23.8461  -10.8814   22.2122 C   0  0  0  0  0  0  0  0  0  0  0  0
  -24.1854  -13.1379   21.0718 C   0  0  0  0  0  0  0  0  0  0  0  0
  -26.0832  -26.8133   28.5083 C   0  0  0  0  0  0  0  0  0  0  0  0
  -28.3884  -28.0332   22.3951 C   0  0  0  0  0  0  0  0  0  0  0  0
  -26.3228  -26.4170   27.1787 C   0  0  0  0  0  0  0  0  0  0  0  0
  -27.7177  -27.6051   21.2406 C   0  0  0  0  0  0  0  0  0  0  0  0
  -30.7086  -17.0459   20.9456 C   0  0  0  0  0  0  0  0  0  0  0  0
  -22.3651   -8.9842   23.6229 C   0  0  0  0  0  0  0  0  0  0  0  0
  -29.6131  -26.1902   20.6789 C   0  0  0  0  0  0  0  0  0  0  0  0
  -21.6969   -6.7455   23.8758 C   0  0  0  0  0  0  0  0  0  0  0  0
  -21.8029   -4.0992   22.9993 C   0  0  0  0  0  0  0  0  0  0  0  0
  -22.9178   -6.0719   23.8375 C   0  0  0  0  0  0  0  0  0  0  0  0
  -30.5153  -19.3176   21.7451 C   0  0  0  0  0  0  0  0  0  0  0  0
  -24.6116  -11.8612   21.4842 C   0  0  0  0  0  0  0  0  0  0  0  0
  -25.2730  -13.6702   20.4234 C   0  0  0  0  0  0  0  0  0  0  0  0
  -22.9196  -13.7849   21.2581 C   0  0  0  0  0  0  0  0  0  0  0  0
  -25.5811  -27.9092   23.8808 C   0  0  0  0  0  0  0  0  0  0  0  0
  -24.6659  -29.8974   21.4867 C   0  0  0  0  0  0  0  0  0  0  0  0
  -30.4417  -22.4224   20.1759 C   0  0  0  0  0  0  0  0  0  0  0  0
  -25.1838  -31.0415   18.3134 C   0  0  0  0  0  0  0  0  0  0  0  0
  -30.7403  -14.6733   20.0995 C   0  0  0  0  0  0  0  0  0  0  0  0
  -24.8076  -27.5102   28.9107 C   0  0  0  0  0  0  0  0  0  0  0  0
  -27.7580  -29.0462   23.3109 C   0  0  0  0  0  0  0  0  0  0  0  0
  -26.3424  -28.1090   20.8897 C   0  0  0  0  0  0  0  0  0  0  0  0
  -24.0479  -28.1173   27.7341 C   0  0  0  0  0  0  0  0  0  0  0  0
  -29.6000  -11.5096   18.9300 C   0  0  0  0  0  0  0  0  0  0  0  0
  -23.9559  -27.1179   26.5853 C   0  0  0  0  0  0  0  0  0  0  0  0
  -28.1655  -11.4241   19.4563 C   0  0  0  0  0  0  0  0  0  0  0  0
  -30.5287  -12.2035   19.9248 C   0  0  0  0  0  0  0  0  0  0  0  0
  -28.6373  -13.4353   20.9121 C   0  0  0  0  0  0  0  0  0  0  0  0
  -25.3496  -26.7436   26.0668 C   0  0  1  0  0  0  0  0  0  0  0  0
  -26.2364  -29.0811   23.2062 C   0  0  1  0  0  0  0  0  0  0  0  0
  -27.6512  -12.8020   19.9171 C   0  0  2  0  0  0  0  0  0  0  0  0
  -24.2502  -32.6396   16.6187 C   0  0  0  0  0  0  0  0  0  0  0  0
  -22.3870  -27.9520   20.9111 C   0  0  0  0  0  0  0  0  0  0  0  0
  -22.0903  -29.0658   18.6886 C   0  0  0  0  0  0  0  0  0  0  0  0
  -21.7521  -30.3678   20.7893 C   0  0  0  0  0  0  0  0  0  0  0  0
  -27.6959  -32.6040   18.2317 C   0  0  0  0  0  0  0  0  0  0  0  0
  -30.0694  -23.0952   18.8737 C   0  0  0  0  0  0  0  0  0  0  0  0
  -29.3423  -24.4049   19.1312 C   0  0  0  0  0  0  0  0  0  1  0  0
  -24.0947  -29.7111   20.1018 C   0  0  1  0  0  0  0  0  0  0  0  0
  -25.2503  -32.4489   17.7484 C   0  0  2  0  0  0  0  0  0  0  0  0
  -22.6061  -29.2630   20.1301 C   0  0  0  0  0  0  0  0  0  0  0  0
  -25.8717  -11.5982   21.1276 N   0  0  0  0  0  0  0  0  0  0  0  0
  -26.2465  -12.7169   20.4843 N   0  0  0  0  0  0  0  0  0  0  0  0
  -25.7655  -29.0937   21.8197 N   0  0  0  0  0  0  0  0  0  0  0  0
  -29.9793  -13.5044   20.3129 N   0  0  0  0  0  0  0  0  0  0  0  0
  -25.4819  -14.8559   19.8129 N   0  0  0  0  0  0  0  0  0  0  0  0
  -21.9120  -13.0959   21.9468 N   0  0  0  0  0  0  0  0  0  0  0  0
  -30.1019  -15.8540   20.4777 N   0  0  0  0  0  0  0  0  0  0  0  0
  -25.8760  -27.7975   25.2262 N   0  0  0  0  0  0  0  0  0  0  0  0
  -24.3282  -30.9641   19.3919 N   0  0  0  0  0  0  0  0  0  0  0  0
  -29.4392  -21.5291   20.6740 N   0  0  0  0  0  0  0  0  0  0  0  0
  -26.6151  -32.7312   17.2205 N   0  3  0  0  0  0  0  0  0  0  0  0
  -22.6834  -14.9335   20.8124 O   0  0  0  0  0  0  0  0  0  0  0  0
  -24.8601  -27.1626   23.2293 O   0  0  0  0  0  0  0  0  0  0  0  0
  -24.1599  -30.7307   22.2425 O   0  0  0  0  0  0  0  0  0  0  0  0
  -31.5003  -22.6503   20.7520 O   0  0  0  0  0  0  0  0  0  0  0  0
  -25.8237  -30.1038   17.8426 O   0  0  0  0  0  0  0  0  0  0  0  0
  -31.8639  -14.6324   19.5917 O   0  0  0  0  0  0  0  0  0  0  0  0
  -30.2815  -21.5023   23.1149 O   0  0  0  0  0  0  0  0  0  0  0  0
  -28.1921  -20.2266   22.5211 O   0  0  0  0  0  0  0  0  0  0  0  0
  -21.6425   -8.0589   24.3115 O   0  0  0  0  0  0  0  0  0  0  0  0
  -30.2033  -25.2912   19.8450 O   0  0  0  0  0  0  0  0  0  1  0  0
  -21.8534   -2.8281   22.5799 F   0  0  0  0  0  0  0  0  0  0  0  0
  -24.0429   -6.6904   24.2215 F   0  0  0  0  0  0  0  0  0  0  0  0
  -29.5143  -20.7099   22.1734 S   0  0  0  0  0  0  0  0  0  0  0  0
  1  2  1  0  0  0  0
  1  6  2  0  0  0  0
  2  7  2  0  0  0  0
  3  9  1  0  0  0  0
  3 15  2  0  0  0  0
  4 10  2  0  0  0  0
  4 19  1  0  0  0  0
  5 11  1  0  0  0  0
  5 19  2  0  0  0  0
  6 21  1  0  0  0  0
  7 23  1  0  0  0  0
  8 12  2  0  0  0  0
  8 22  1  0  0  0  0
  9 25  2  0  0  0  0
 10 26  1  0  0  0  0
 11 26  2  0  0  0  0
 12 27  1  0  0  0  0
 13 14  2  0  0  0  0
 13 28  1  0  0  0  0
 14 29  1  0  0  0  0
 15 31  1  0  0  0  0
 16 24  1  0  0  0  0
 16 27  2  0  0  0  0
 17 25  1  0  0  0  0
 17 31  2  0  0  0  0
 18 29  2  0  0  0  0
 18 30  1  0  0  0  0
 19 32  1  0  0  0  0
 20 32  1  0  0  0  0
 20 33  2  0  0  0  0
 20 34  1  0  0  0  0
 21 23  2  0  0  0  0
 21 40  1  0  0  0  0
 22 24  2  0  0  0  0
 22 41  1  0  0  0  0
 23 49  1  0  0  0  0
 24 42  1  0  0  0  0
 25 68  1  0  0  0  0
 26 81  1  0  0  0  0
 27 82  1  0  0  0  0
 28 30  2  0  0  0  0
 28 81  1  0  0  0  0
 29 83  1  0  0  0  0
 30 84  1  0  0  0  0
 31 85  1  0  0  0  0
 32 62  2  0  0  0  0
 33 63  1  0  0  0  0
 33 66  1  0  0  0  0
 34 67  1  0  0  0  0
 34 73  2  0  0  0  0
 35 50  1  0  0  0  0
 35 69  1  0  0  0  0
 35 74  2  0  0  0  0
 36 59  1  0  0  0  0
 36 64  1  0  0  0  0
 36 75  2  0  0  0  0
 37 57  1  0  0  0  0
 37 71  1  0  0  0  0
 37 76  2  0  0  0  0
 38 60  1  0  0  0  0
 38 70  1  0  0  0  0
 38 77  2  0  0  0  0
 39 65  1  0  0  0  0
 39 68  1  0  0  0  0
 39 78  2  0  0  0  0
 40 43  1  0  0  0  0
 41 50  1  0  0  0  0
 42 64  1  0  0  0  0
 43 45  1  0  0  0  0
 44 46  1  0  0  0  0
 44 47  1  0  0  0  0
 45 49  1  0  0  0  0
 46 51  1  0  0  0  0
 47 65  1  0  0  0  0
 48 51  1  0  0  0  0
 48 65  1  0  0  0  0
 49 69  1  0  0  0  0
 50 64  1  0  0  0  0
 51 63  1  0  0  0  0
 52 60  1  0  0  0  0
 53 61  1  0  0  0  0
 54 61  1  0  0  0  0
 55 61  1  0  0  0  0
 56 72  1  0  0  0  0
 57 58  1  0  0  0  0
 58 82  1  0  0  0  0
 59 61  1  0  0  0  0
 59 70  1  0  0  0  0
 60 72  1  0  0  0  0
 62 63  1  0  0  0  0
 71 85  1  0  0  0  0
 79 85  2  0  0  0  0
 80 85  2  0  0  0  0
M  CHG  1  72   1
M  ISO  4  39 100  58 101  68 100  82 101
M  END
> <Batch ID>
0065

> <Smiles>
CNC(C)C(=O)NC(C(=O)N1Cc2cc([101O:1][101CH2:1]CC(=O)NS(=O)(=O)c3cccc([100NH:0][100C:0](=O)N4CCCC(n5nc(-c6ccc(Oc7ccc(F)cc7F)cc6)c(C(N)=O)c5N)C4)c3)ccc2CC1C(=O)NC1CCCc2ccccc21)C(C)(C)C

> <Shape>
0.281

> <Color>
0.156

> <Negative vol penalty>
0.000

$$$$

  -OEChem-04042323183D

 87 95  0     1  0  0  0  0  0999 V2000
  -28.7471  -17.7935   17.9742 C   0  0  0  0  0  0  0  0  0  0  0  0
  -29.3072  -18.3857   19.1016 C   0  0  0  0  0  0  0  0  0  0  0  0
  -23.0022   -9.8910   19.9796 C   0  0  0  0  0  0  0  0  0  0  0  0
  -23.7273   -9.9425   22.2836 C   0  0  0  0  0  0  0  0  0  0  0  0
  -29.1185  -18.2282   16.7025 C   0  0  0  0  0  0  0  0  0  0  0  0
  -30.2399  -19.4123   18.9579 C   0  0  0  0  0  0  0  0  0  0  0  0
  -29.3709  -23.2813   22.1076 C   0  0  0  0  0  0  0  0  0  0  0  0
  -22.2371   -8.7555   20.2457 C   0  0  0  0  0  0  0  0  0  0  0  0
  -22.9621   -8.8070   22.5498 C   0  0  0  0  0  0  0  0  0  0  0  0
  -29.7625  -23.1212   23.4361 C   0  0  0  0  0  0  0  0  0  0  0  0
  -23.2107   -5.4684   22.0774 C   0  0  0  0  0  0  0  0  0  0  0  0
  -23.7995   -4.4519   22.8293 C   0  0  0  0  0  0  0  0  0  0  0  0
  -30.4618  -18.3524   23.9899 C   0  0  0  0  0  0  0  0  0  0  0  0
  -31.7552  -24.4081   22.9974 C   0  0  0  0  0  0  0  0  0  0  0  0
  -32.0509  -16.5579   22.5627 C   0  0  0  0  0  0  0  0  0  0  0  0
  -22.0752   -4.6923   24.5046 C   0  0  0  0  0  0  0  0  0  0  0  0
  -23.7474  -10.4845   20.9985 C   0  0  0  0  0  0  0  0  0  0  0  0
  -31.8453  -18.3520   24.1676 C   0  0  0  0  0  0  0  0  0  0  0  0
  -24.1295  -13.0006   20.8229 C   0  0  0  0  0  0  0  0  0  0  0  0
  -30.0489  -19.2672   16.5434 C   0  0  0  0  0  0  0  0  0  0  0  0
  -30.1752  -23.9980   21.2099 C   0  0  0  0  0  0  0  0  0  0  0  0
  -30.6250  -19.8604   17.6829 C   0  0  0  0  0  0  0  0  0  0  0  0
  -31.3702  -24.5780   21.6588 C   0  0  0  0  0  0  0  0  0  0  0  0
  -30.6674  -16.5582   22.3850 C   0  0  0  0  0  0  0  0  0  0  0  0
  -22.2170   -8.2135   21.5308 C   0  0  0  0  0  0  0  0  0  0  0  0
  -30.9562  -23.6821   23.8805 C   0  0  0  0  0  0  0  0  0  0  0  0
  -22.0542   -6.0970   22.5390 C   0  0  0  0  0  0  0  0  0  0  0  0
  -23.2318   -4.0638   24.0429 C   0  0  0  0  0  0  0  0  0  0  0  0
  -29.8728  -17.4554   23.0987 C   0  0  0  0  0  0  0  0  0  0  0  0
  -32.6398  -17.4548   23.4540 C   0  0  0  0  0  0  0  0  0  0  0  0
  -21.4865   -5.7090   23.7526 C   0  0  0  0  0  0  0  0  0  0  0  0
  -24.5384  -11.6571   20.7241 C   0  0  0  0  0  0  0  0  0  0  0  0
  -25.2384  -13.7246   20.4587 C   0  0  0  0  0  0  0  0  0  0  0  0
  -32.4683  -19.3095   25.1174 C   0  0  0  0  0  0  0  0  0  0  0  0
  -22.8609  -13.5453   21.2095 C   0  0  0  0  0  0  0  0  0  0  0  0
  -31.7135  -23.2909   18.5197 C   0  0  0  0  0  0  0  0  0  0  0  0
  -32.2968  -26.4815   18.4734 C   0  0  0  0  0  0  0  0  0  0  0  0
  -32.5902  -29.3987   20.2199 C   0  0  0  0  0  0  0  0  0  0  0  0
  -30.7166  -14.6925   20.6929 C   0  0  0  0  0  0  0  0  0  0  0  0
  -30.4546  -19.6709   15.1480 C   0  0  0  0  0  0  0  0  0  0  0  0
  -29.7255  -24.1844   19.7867 C   0  0  0  0  0  0  0  0  0  0  0  0
  -32.2595  -25.3739   20.7399 C   0  0  0  0  0  0  0  0  0  0  0  0
  -31.1691  -21.0186   15.0872 C   0  0  0  0  0  0  0  0  0  0  0  0
  -29.6015  -12.2386   18.3666 C   0  0  0  0  0  0  0  0  0  0  0  0
  -32.2404  -21.1041   16.1697 C   0  0  0  0  0  0  0  0  0  0  0  0
  -28.1512  -11.9791   18.7807 C   0  0  0  0  0  0  0  0  0  0  0  0
  -30.5017  -12.4830   19.5764 C   0  0  0  0  0  0  0  0  0  0  0  0
  -28.5853  -13.2692   20.9100 C   0  0  0  0  0  0  0  0  0  0  0  0
  -31.6215  -20.9936   17.5684 C   0  0  1  0  0  0  0  0  0  0  0  0
  -30.8745  -24.4973   18.8332 C   0  0  1  0  0  0  0  0  0  0  0  0
  -27.6279  -13.0818   19.7218 C   0  0  2  0  0  0  0  0  0  0  0  0
  -33.1120  -31.8341   19.9135 C   0  0  0  0  0  0  0  0  0  0  0  0
  -33.0758  -24.2387   27.5083 C   0  0  0  0  0  0  0  0  0  0  0  0
  -34.9588  -23.2052   26.2268 C   0  0  0  0  0  0  0  0  0  0  0  0
  -35.2599  -25.8090   18.1946 C   0  0  0  0  0  0  0  0  0  0  0  0
  -35.7852  -28.1692   18.8437 C   0  0  0  0  0  0  0  0  0  0  0  0
  -34.4827  -27.7092   16.7666 C   0  0  0  0  0  0  0  0  0  0  0  0
  -29.9274  -30.2144   21.2214 C   0  0  0  0  0  0  0  0  0  0  0  0
  -32.2993  -21.5585   26.1515 C   0  0  0  0  0  0  0  0  0  0  0  0
  -33.3823  -27.3779   19.0186 C   0  0  1  0  0  0  0  0  0  0  0  0
  -32.0155  -30.7821   19.9739 C   0  0  2  0  0  0  0  0  0  0  0  0
  -33.5631  -23.8327   26.1165 C   0  0  0  0  0  0  0  0  0  0  0  0
  -32.5847  -22.8669   25.4100 C   0  0  2  0  0  0  0  0  0  1  0  0
  -34.7119  -27.2497   18.2230 C   0  0  0  0  0  0  0  0  0  0  0  0
  -25.8078  -11.5323   20.3279 N   0  0  0  0  0  0  0  0  0  0  0  0
  -26.2062  -12.8066   20.1745 N   0  0  0  0  0  0  0  0  0  0  0  0
  -31.7796  -25.5227   19.3561 N   0  0  0  0  0  0  0  0  0  0  0  0
  -29.9453  -13.5431   20.4199 N   0  0  0  0  0  0  0  0  0  0  0  0
  -25.4702  -15.0506   20.3568 N   0  0  0  0  0  0  0  0  0  0  0  0
  -21.8302  -12.6598   21.5529 N   0  0  0  0  0  0  0  0  0  0  0  0
  -30.0711  -15.6468   21.4786 N   0  0  0  0  0  0  0  0  0  0  0  0
  -31.8080  -20.5206   25.2857 N   0  0  0  0  0  0  0  0  0  0  0  0
  -31.0085  -22.2477   17.9503 N   0  0  0  0  0  0  0  0  0  0  0  0
  -32.8259  -28.7263   19.0394 N   0  0  0  0  0  0  0  0  0  0  0  0
  -31.0695  -31.1514   21.0646 N   0  3  0  0  0  0  0  0  0  0  0  0
  -33.5178  -19.0026   25.6768 O   0  0  0  0  0  0  0  0  0  0  0  0
  -22.6426  -14.7803   21.2335 O   0  0  0  0  0  0  0  0  0  0  0  0
  -32.9122  -23.3058   18.7743 O   0  0  0  0  0  0  0  0  0  0  0  0
  -31.9167  -26.6312   17.3095 O   0  0  0  0  0  0  0  0  0  0  0  0
  -32.8115  -28.9600   21.3464 O   0  0  0  0  0  0  0  0  0  0  0  0
  -31.8551  -14.8330   20.2390 O   0  0  0  0  0  0  0  0  0  0  0  0
  -21.4704   -7.1056   21.7909 O   0  0  0  0  0  0  0  0  0  0  0  0
  -31.3412  -23.5268   25.1765 O   0  0  0  0  0  0  0  0  0  1  0  0
  -23.7964   -3.0865   24.7642 F   0  0  0  0  0  0  0  0  0  0  0  0
  -28.5420  -17.4646   22.9361 F   0  0  0  0  0  0  0  0  0  0  0  0
  -33.9709  -17.4460   23.6156 F   0  0  0  0  0  0  0  0  0  0  0  0
  -20.3748   -6.3084   24.2007 F   0  0  0  0  0  0  0  0  0  0  0  0
  1  2  1  0  0  0  0
  1  5  2  0  0  0  0
  2  6  2  0  0  0  0
  3  8  2  0  0  0  0
  3 17  1  0  0  0  0
  4  9  1  0  0  0  0
  4 17  2  0  0  0  0
  5 20  1  0  0  0  0
  6 22  1  0  0  0  0
  7 10  2  0  0  0  0
  7 21  1  0  0  0  0
  8 25  1  0  0  0  0
  9 25  2  0  0  0  0
 10 26  1  0  0  0  0
 11 12  2  0  0  0  0
 11 27  1  0  0  0  0
 12 28  1  0  0  0  0
 13 18  1  0  0  0  0
 13 29  2  0  0  0  0
 14 23  1  0  0  0  0
 14 26  2  0  0  0  0
 15 24  2  0  0  0  0
 15 30  1  0  0  0  0
 16 28  2  0  0  0  0
 16 31  1  0  0  0  0
 17 32  1  0  0  0  0
 18 30  2  0  0  0  0
 18 34  1  0  0  0  0
 19 32  1  0  0  0  0
 19 33  2  0  0  0  0
 19 35  1  0  0  0  0
 20 22  2  0  0  0  0
 20 40  1  0  0  0  0
 21 23  2  0  0  0  0
 21 41  1  0  0  0  0
 22 49  1  0  0  0  0
 23 42  1  0  0  0  0
 24 29  1  0  0  0  0
 24 71  1  0  0  0  0
 25 82  1  0  0  0  0
 26 83  1  0  0  0  0
 27 31  2  0  0  0  0
 27 82  1  0  0  0  0
 28 84  1  0  0  0  0
 29 85  1  0  0  0  0
 30 86  1  0  0  0  0
 31 87  1  0  0  0  0
 32 65  2  0  0  0  0
 33 66  1  0  0  0  0
 33 69  1  0  0  0  0
 34 72  1  0  0  0  0
 34 76  2  0  0  0  0
 35 70  1  0  0  0  0
 35 77  2  0  0  0  0
 36 50  1  0  0  0  0
 36 73  1  0  0  0  0
 36 78  2  0  0  0  0
 37 60  1  0  0  0  0
 37 67  1  0  0  0  0
 37 79  2  0  0  0  0
 38 61  1  0  0  0  0
 38 74  1  0  0  0  0
 38 80  2  0  0  0  0
 39 68  1  0  0  0  0
 39 71  1  0  0  0  0
 39 81  2  0  0  0  0
 40 43  1  0  0  0  0
 41 50  1  0  0  0  0
 42 67  1  0  0  0  0
 43 45  1  0  0  0  0
 44 46  1  0  0  0  0
 44 47  1  0  0  0  0
 45 49  1  0  0  0  0
 46 51  1  0  0  0  0
 47 68  1  0  0  0  0
 48 51  1  0  0  0  0
 48 68  1  0  0  0  0
 49 73  1  0  0  0  0
 50 67  1  0  0  0  0
 51 66  1  0  0  0  0
 52 61  1  0  0  0  0
 53 62  1  0  0  0  0
 54 62  1  0  0  0  0
 55 64  1  0  0  0  0
 56 64  1  0  0  0  0
 57 64  1  0  0  0  0
 58 75  1  0  0  0  0
 59 63  1  0  0  0  0
 59 72  1  0  0  0  0
 60 64  1  0  0  0  0
 60 74  1  0  0  0  0
 61 75  1  0  0  0  0
 62 63  1  0  0  0  0
 63 83  1  0  0  0  0
 65 66  1  0  0  0  0
M  CHG  1  75   1
M  ISO  4  39 100  63 101  71 100  83 101
M  END
> <Batch ID>
0065

> <Smiles>
CNC(C)C(=O)NC(C(=O)N1Cc2cc([101O:1][101CH:1](CNC(=O)c3cc(F)c([100NH:0][100C:0](=O)N4CCCC(n5nc(-c6ccc(Oc7ccc(F)cc7F)cc6)c(C(N)=O)c5N)C4)cc3F)C(C)C)ccc2CC1C(=O)NC1CCCc2ccccc21)C(C)(C)C

> <Shape>
0.231

> <Color>
0.193

> <Negative vol penalty>
0.000

$$$$

  -OEChem-04042323183D

 87 96  0     1  0  0  0  0  0999 V2000
  -19.5311  -28.8230   26.3053 C   0  0  0  0  0  0  0  0  0  0  0  0
  -20.8466  -28.5239   25.9654 C   0  0  0  0  0  0  0  0  0  0  0  0
  -24.4160  -11.3847   18.2344 C   0  0  0  0  0  0  0  0  0  0  0  0
  -22.6064  -12.8775   18.8124 C   0  0  0  0  0  0  0  0  0  0  0  0
  -18.5112  -28.6326   25.3739 C   0  0  0  0  0  0  0  0  0  0  0  0
  -21.1427  -28.0332   24.6942 C   0  0  0  0  0  0  0  0  0  0  0  0
  -26.1843  -29.1465   21.4005 C   0  0  0  0  0  0  0  0  0  0  0  0
  -23.6333  -10.8274   17.2233 C   0  0  0  0  0  0  0  0  0  0  0  0
  -21.8237  -12.3202   17.8012 C   0  0  0  0  0  0  0  0  0  0  0  0
  -27.3551  -28.4161   21.2016 C   0  0  0  0  0  0  0  0  0  0  0  0
  -21.1119   -8.5905   16.9727 C   0  0  0  0  0  0  0  0  0  0  0  0
  -21.0944   -7.2004   16.8595 C   0  0  0  0  0  0  0  0  0  0  0  0
  -26.4396  -27.5162   19.1592 C   0  0  0  0  0  0  0  0  0  0  0  0
  -30.1438  -21.6822   20.1724 C   0  0  0  0  0  0  0  0  0  0  0  0
  -30.5346  -19.9352   18.5500 C   0  0  0  0  0  0  0  0  0  0  0  0
  -21.9650   -7.3725   14.6123 C   0  0  0  0  0  0  0  0  0  0  0  0
  -23.9026  -12.4098   19.0290 C   0  0  0  0  0  0  0  0  0  0  0  0
  -25.2647  -12.3205   21.1840 C   0  0  0  0  0  0  0  0  0  0  0  0
  -18.7962  -28.1484   24.0875 C   0  0  0  0  0  0  0  0  0  0  0  0
  -25.1263  -29.0587   20.4843 C   0  0  0  0  0  0  0  0  0  0  0  0
  -20.1255  -27.8349   23.7452 C   0  0  0  0  0  0  0  0  0  0  0  0
  -25.2575  -28.2485   19.3474 C   0  0  0  0  0  0  0  0  0  0  0  0
  -31.9064  -21.9239   18.5380 C   0  0  0  0  0  0  0  0  0  0  0  0
  -31.1886  -22.4256   19.6236 C   0  0  0  0  0  0  0  0  0  0  0  0
  -29.8168  -20.4369   19.6357 C   0  0  0  0  0  0  0  0  0  0  0  0
  -22.3372  -11.2951   17.0067 C   0  0  0  0  0  0  0  0  0  0  0  0
  -27.4817  -27.5986   20.0824 C   0  0  0  0  0  0  0  0  0  0  0  0
  -21.5558   -9.3717   15.9057 C   0  0  0  0  0  0  0  0  0  0  0  0
  -21.5210   -6.5914   15.6793 C   0  0  0  0  0  0  0  0  0  0  0  0
  -31.5794  -20.6786   18.0012 C   0  0  0  0  0  0  0  0  0  0  0  0
  -21.9824   -8.7627   14.7256 C   0  0  0  0  0  0  0  0  0  0  0  0
  -24.7104  -12.9855   20.0740 C   0  0  0  0  0  0  0  0  0  0  0  0
  -25.9387  -13.3009   21.8703 C   0  0  0  0  0  0  0  0  0  0  0  0
  -32.7881  -23.9643   20.7300 C   0  0  0  0  0  0  0  0  0  0  0  0
  -25.1781  -10.9399   21.5611 C   0  0  0  0  0  0  0  0  0  0  0  0
  -22.1039  -28.0861   20.6346 C   0  0  0  0  0  0  0  0  0  0  0  0
  -21.9979  -29.2148   17.5954 C   0  0  0  0  0  0  0  0  0  0  0  0
  -23.6883  -30.0080   14.7388 C   0  0  0  0  0  0  0  0  0  0  0  0
  -28.2939  -18.4264   19.7874 C   0  0  0  0  0  0  0  0  0  0  0  0
  -17.6543  -27.9143   23.1305 C   0  0  0  0  0  0  0  0  0  0  0  0
  -23.8805  -29.8737   20.6994 C   0  0  0  0  0  0  0  0  0  0  0  0
  -24.1588  -28.1351   18.3235 C   0  0  0  0  0  0  0  0  0  0  0  0
  -33.1294  -25.4151   21.0132 C   0  0  0  0  0  0  0  0  0  0  0  0
  -18.0999  -27.7447   21.6803 C   0  0  0  0  0  0  0  0  0  0  0  0
  -31.9603  -26.2506   21.4867 C   0  0  0  0  0  0  0  0  0  0  0  0
  -25.2578  -18.0856   22.1091 C   0  0  0  0  0  0  0  0  0  0  0  0
  -19.2814  -26.7838   21.5938 C   0  0  0  0  0  0  0  0  0  0  0  0
  -25.3557  -16.5977   22.4376 C   0  0  0  0  0  0  0  0  0  0  0  0
  -26.5956  -18.6701   21.6733 C   0  0  0  0  0  0  0  0  0  0  0  0
  -30.4039  -24.6691   20.3823 C   0  0  0  0  0  0  0  0  0  0  0  0
  -26.6225  -16.6356   20.2186 C   0  0  0  0  0  0  0  0  0  0  0  0
  -20.4898  -27.3241   22.3681 C   0  0  1  0  0  0  0  0  0  0  0  0
  -22.6650  -29.3109   19.9692 C   0  0  1  0  0  0  0  0  0  0  0  0
  -30.8315  -26.1330   20.4759 C   0  0  1  0  0  0  0  0  0  0  0  0
  -26.2929  -15.8297   21.4848 C   0  0  2  0  0  0  0  0  0  0  0  0
  -33.0290  -22.7019   17.9312 C   0  0  0  0  0  0  0  0  0  0  0  0
  -23.3259  -30.8723   12.4109 C   0  0  0  0  0  0  0  0  0  0  0  0
  -20.9200  -26.4874   16.7531 C   0  0  0  0  0  0  0  0  0  0  0  0
  -21.4751  -27.0772   14.3841 C   0  0  0  0  0  0  0  0  0  0  0  0
  -19.8074  -28.4354   15.6478 C   0  0  0  0  0  0  0  0  0  0  0  0
  -25.3866  -32.3813   15.2309 C   0  0  0  0  0  0  0  0  0  0  0  0
  -29.6508  -27.0194   20.8670 C   0  0  0  0  0  0  0  0  0  1  0  0
  -22.2604  -28.6307   16.2283 C   0  0  1  0  0  0  0  0  0  0  0  0
  -23.6453  -31.2392   13.8518 C   0  0  2  0  0  0  0  0  0  0  0  0
  -21.1358  -27.6581   15.7734 C   0  0  0  0  0  0  0  0  0  0  0  0
  -25.0065  -14.2878   20.0524 N   0  0  0  0  0  0  0  0  0  0  0  0
  -25.7541  -14.4489   21.1575 N   0  0  0  0  0  0  0  0  0  0  0  0
  -31.5125  -23.7155   20.1948 N   0  0  0  0  0  0  0  0  0  0  0  0
  -22.9578  -28.9466   18.5815 N   0  0  0  0  0  0  0  0  0  0  0  0
  -27.2090  -17.9378   20.5558 N   0  0  0  0  0  0  0  0  0  0  0  0
  -26.6653  -13.2843   23.0079 N   0  0  0  0  0  0  0  0  0  0  0  0
  -24.1211  -10.5386   22.3894 N   0  0  0  0  0  0  0  0  0  0  0  0
  -28.7552  -19.6814   20.1934 N   0  0  0  0  0  0  0  0  0  0  0  0
  -21.1583  -28.3564   21.6054 N   0  0  0  0  0  0  0  0  0  0  0  0
  -22.4684  -29.7640   15.3333 N   0  0  0  0  0  0  0  0  0  0  0  0
  -24.9590  -31.9424   13.8776 N   0  3  0  0  0  0  0  0  0  0  0  0
  -33.6604  -23.1143   20.9285 O   0  0  0  0  0  0  0  0  0  0  0  0
  -26.0225  -10.0905   21.1884 O   0  0  0  0  0  0  0  0  0  0  0  0
  -22.4985  -26.9778   20.2916 O   0  0  0  0  0  0  0  0  0  0  0  0
  -20.9822  -29.8902   17.7796 O   0  0  0  0  0  0  0  0  0  0  0  0
  -24.7017  -29.3285   14.8863 O   0  0  0  0  0  0  0  0  0  0  0  0
  -28.7751  -17.7745   18.8582 O   0  0  0  0  0  0  0  0  0  0  0  0
  -21.5733  -10.7516   16.0200 O   0  0  0  0  0  0  0  0  0  0  0  0
  -28.6232  -26.8840   19.8862 O   0  0  0  0  0  0  0  0  0  1  0  0
  -21.5057   -5.2563   15.5713 F   0  0  0  0  0  0  0  0  0  0  0  0
  -32.2619  -20.1881   16.9569 F   0  0  0  0  0  0  0  0  0  0  0  0
  -22.4111   -9.5078   13.6976 F   0  0  0  0  0  0  0  0  0  0  0  0
  1  2  1  0  0  0  0
  1  5  2  0  0  0  0
  2  6  2  0  0  0  0
  3  8  2  0  0  0  0
  3 17  1  0  0  0  0
  4  9  1  0  0  0  0
  4 17  2  0  0  0  0
  5 19  1  0  0  0  0
  6 21  1  0  0  0  0
  7 10  2  0  0  0  0
  7 20  1  0  0  0  0
  8 26  1  0  0  0  0
  9 26  2  0  0  0  0
 10 27  1  0  0  0  0
 11 12  2  0  0  0  0
 11 28  1  0  0  0  0
 12 29  1  0  0  0  0
 13 22  1  0  0  0  0
 13 27  2  0  0  0  0
 14 24  1  0  0  0  0
 14 25  2  0  0  0  0
 15 25  1  0  0  0  0
 15 30  2  0  0  0  0
 16 29  2  0  0  0  0
 16 31  1  0  0  0  0
 17 32  1  0  0  0  0
 18 32  1  0  0  0  0
 18 33  2  0  0  0  0
 18 35  1  0  0  0  0
 19 21  2  0  0  0  0
 19 40  1  0  0  0  0
 20 22  2  0  0  0  0
 20 41  1  0  0  0  0
 21 52  1  0  0  0  0
 22 42  1  0  0  0  0
 23 24  2  0  0  0  0
 23 30  1  0  0  0  0
 23 56  1  0  0  0  0
 24 68  1  0  0  0  0
 25 73  1  0  0  0  0
 26 83  1  0  0  0  0
 27 84  1  0  0  0  0
 28 31  2  0  0  0  0
 28 83  1  0  0  0  0
 29 85  1  0  0  0  0
 30 86  1  0  0  0  0
 31 87  1  0  0  0  0
 32 66  2  0  0  0  0
 33 67  1  0  0  0  0
 33 71  1  0  0  0  0
 34 43  1  0  0  0  0
 34 68  1  0  0  0  0
 34 77  2  0  0  0  0
 35 72  1  0  0  0  0
 35 78  2  0  0  0  0
 36 53  1  0  0  0  0
 36 74  1  0  0  0  0
 36 79  2  0  0  0  0
 37 63  1  0  0  0  0
 37 69  1  0  0  0  0
 37 80  2  0  0  0  0
 38 64  1  0  0  0  0
 38 75  1  0  0  0  0
 38 81  2  0  0  0  0
 39 70  1  0  0  0  0
 39 73  1  0  0  0  0
 39 82  2  0  0  0  0
 40 44  1  0  0  0  0
 41 53  1  0  0  0  0
 42 69  1  0  0  0  0
 43 45  1  0  0  0  0
 44 47  1  0  0  0  0
 45 54  1  0  0  0  0
 46 48  1  0  0  0  0
 46 49  1  0  0  0  0
 47 52  1  0  0  0  0
 48 55  1  0  0  0  0
 49 70  1  0  0  0  0
 50 54  1  0  0  0  0
 50 68  1  0  0  0  0
 51 55  1  0  0  0  0
 51 70  1  0  0  0  0
 52 74  1  0  0  0  0
 53 69  1  0  0  0  0
 54 62  1  0  0  0  0
 55 67  1  0  0  0  0
 57 64  1  0  0  0  0
 58 65  1  0  0  0  0
 59 65  1  0  0  0  0
 60 65  1  0  0  0  0
 61 76  1  0  0  0  0
 62 84  1  0  0  0  0
 63 65  1  0  0  0  0
 63 75  1  0  0  0  0
 64 76  1  0  0  0  0
 66 67  1  0  0  0  0
M  CHG  1  76   1
M  ISO  4  39 100  62 101  73 100  84 101
M  END
> <Batch ID>
0065

> <Smiles>
CNC(C)C(=O)NC(C(=O)N1Cc2cc([101O:1][101CH2:1]C3CCC(=O)N(c4cc([100NH:0][100C:0](=O)N5CCCC(n6nc(-c7ccc(Oc8ccc(F)cc8F)cc7)c(C(N)=O)c6N)C5)cc(F)c4C)C3)ccc2CC1C(=O)NC1CCCc2ccccc21)C(C)(C)C

> <Shape>
0.197

> <Color>
0.074

> <Negative vol penalty>
0.000

$$$$

  -OEChem-04042323183D

 85 93  0     1  0  0  0  0  0999 V2000
  -19.6801  -27.8800   26.7563 C   0  0  0  0  0  0  0  0  0  0  0  0
  -20.9008  -27.4110   26.2817 C   0  0  0  0  0  0  0  0  0  0  0  0
  -22.8526  -11.9287   21.9468 C   0  0  0  0  0  0  0  0  0  0  0  0
  -22.8661  -14.3302   22.2113 C   0  0  0  0  0  0  0  0  0  0  0  0
  -18.7112  -28.3296   25.8602 C   0  0  0  0  0  0  0  0  0  0  0  0
  -21.1530  -27.3904   24.9104 C   0  0  0  0  0  0  0  0  0  0  0  0
  -26.5274  -28.3647   22.1404 C   0  0  0  0  0  0  0  0  0  0  0  0
  -31.8919  -17.8206   20.3508 C   0  0  0  0  0  0  0  0  0  0  0  0
  -21.9527  -11.8171   23.0067 C   0  0  0  0  0  0  0  0  0  0  0  0
  -21.9662  -14.2185   23.2711 C   0  0  0  0  0  0  0  0  0  0  0  0
  -27.4919  -27.4957   21.6323 C   0  0  0  0  0  0  0  0  0  0  0  0
  -18.6350  -12.2309   23.5115 C   0  0  0  0  0  0  0  0  0  0  0  0
  -32.4616  -19.0935   20.3779 C   0  0  0  0  0  0  0  0  0  0  0  0
  -17.5436  -11.3780   23.3480 C   0  0  0  0  0  0  0  0  0  0  0  0
  -29.7030  -18.7933   20.6660 C   0  0  0  0  0  0  0  0  0  0  0  0
  -26.5248  -27.7176   19.4335 C   0  0  0  0  0  0  0  0  0  0  0  0
  -18.2786  -10.0738   25.2443 C   0  0  0  0  0  0  0  0  0  0  0  0
  -23.3094  -13.1853   21.5492 C   0  0  0  0  0  0  0  0  0  0  0  0
  -30.2726  -20.0663   20.6932 C   0  0  0  0  0  0  0  0  0  0  0  0
  -23.9312  -13.4535   19.0897 C   0  0  0  0  0  0  0  0  0  0  0  0
  -18.9553  -28.3235   24.4778 C   0  0  0  0  0  0  0  0  0  0  0  0
  -25.5461  -28.9091   21.2996 C   0  0  0  0  0  0  0  0  0  0  0  0
  -20.1860  -27.8391   23.9948 C   0  0  0  0  0  0  0  0  0  0  0  0
  -25.5505  -28.5954   19.9329 C   0  0  0  0  0  0  0  0  0  0  0  0
  -30.5126  -17.6705   20.4948 C   0  0  0  0  0  0  0  0  0  0  0  0
  -21.5094  -12.9620   23.6688 C   0  0  0  0  0  0  0  0  0  0  0  0
  -27.4890  -27.1697   20.2792 C   0  0  0  0  0  0  0  0  0  0  0  0
  -19.5484  -12.0053   24.5414 C   0  0  0  0  0  0  0  0  0  0  0  0
  -17.3653  -10.2995   24.2144 C   0  0  0  0  0  0  0  0  0  0  0  0
  -31.6519  -20.2164   20.5491 C   0  0  0  0  0  0  0  0  0  0  0  0
  -19.3702  -10.9267   25.4077 C   0  0  0  0  0  0  0  0  0  0  0  0
  -24.2395  -13.3012   20.4548 C   0  0  0  0  0  0  0  0  0  0  0  0
  -25.1536  -13.5160   18.4665 C   0  0  0  0  0  0  0  0  0  0  0  0
  -29.4130  -21.2539   20.8755 C   0  0  0  0  0  0  0  0  0  0  0  0
  -22.6540  -13.5315   18.4427 C   0  0  0  0  0  0  0  0  0  0  0  0
  -22.3740  -28.7575   21.1625 C   0  0  0  0  0  0  0  0  0  0  0  0
  -22.7596  -30.9571   18.8097 C   0  0  0  0  0  0  0  0  0  0  0  0
  -28.6377  -23.4067   19.9052 C   0  0  0  0  0  0  0  0  0  0  0  0
  -24.7859  -32.3316   16.4324 C   0  0  0  0  0  0  0  0  0  0  0  0
  -30.5952  -15.1595   20.3085 C   0  0  0  0  0  0  0  0  0  0  0  0
  -17.8595  -28.7752   23.5451 C   0  0  0  0  0  0  0  0  0  0  0  0
  -24.5288  -29.8660   21.8581 C   0  0  0  0  0  0  0  0  0  0  0  0
  -24.5310  -29.1690   18.9843 C   0  0  0  0  0  0  0  0  0  0  0  0
  -18.3479  -29.0704   22.1293 C   0  0  0  0  0  0  0  0  0  0  0  0
  -29.6751  -12.0079   18.9308 C   0  0  0  0  0  0  0  0  0  0  0  0
  -19.2581  -27.9509   21.6342 C   0  0  0  0  0  0  0  0  0  0  0  0
  -28.1483  -11.9983   19.0355 C   0  0  0  0  0  0  0  0  0  0  0  0
  -30.3216  -12.6960   20.1318 C   0  0  0  0  0  0  0  0  0  0  0  0
  -28.2917  -14.0357   20.5239 C   0  0  0  0  0  0  0  0  0  0  0  0
  -20.5064  -27.8242   22.5159 C   0  0  1  0  0  0  0  0  0  0  0  0
  -23.2650  -29.9576   21.0086 C   0  0  1  0  0  0  0  0  0  0  0  0
  -27.5931  -13.4106   19.3054 C   0  0  2  0  0  0  0  0  0  0  0  0
  -24.8094  -34.0877   14.6399 C   0  0  0  0  0  0  0  0  0  0  0  0
  -21.1011  -29.1368   17.0080 C   0  0  0  0  0  0  0  0  0  0  0  0
  -21.9462  -30.4319   15.0391 C   0  0  0  0  0  0  0  0  0  0  0  0
  -20.5836  -31.5737   16.7890 C   0  0  0  0  0  0  0  0  0  0  0  0
  -26.9806  -33.8148   17.7524 C   0  0  0  0  0  0  0  0  0  0  0  0
  -28.8642  -24.2360   18.6616 C   0  0  0  0  0  0  0  0  0  0  0  0
  -28.0532  -25.5220   18.6598 C   0  0  0  0  0  0  0  0  0  1  0  0
  -22.9628  -30.8992   17.3149 C   0  0  1  0  0  0  0  0  0  0  0  0
  -25.1098  -33.7765   16.0979 C   0  0  2  0  0  0  0  0  0  0  0  0
  -21.6666  -30.4979   16.5558 C   0  0  0  0  0  0  0  0  0  0  0  0
  -25.5546  -13.2689   20.6859 N   0  0  0  0  0  0  0  0  0  0  0  0
  -26.0835  -13.4016   19.4576 N   0  0  0  0  0  0  0  0  0  0  0  0
  -23.5533  -30.0949   19.5795 N   0  0  0  0  0  0  0  0  0  0  0  0
  -29.7493  -14.0304   20.3237 N   0  0  0  0  0  0  0  0  0  0  0  0
  -25.5129  -13.6572   17.1730 N   0  0  0  0  0  0  0  0  0  0  0  0
  -21.4990  -13.4503   19.2324 N   0  0  0  0  0  0  0  0  0  0  0  0
  -29.9345  -16.3771   20.4684 N   0  0  0  0  0  0  0  0  0  0  0  0
  -29.4071  -22.1835   19.9101 N   0  0  0  0  0  0  0  0  0  0  0  0
  -21.4603  -28.8637   22.1937 N   0  0  0  0  0  0  0  0  0  0  0  0
  -23.5056  -32.1963   16.9262 N   0  0  0  0  0  0  0  0  0  0  0  0
  -28.6929  -21.3325   21.9941 N   0  3  0  0  0  0  0  0  0  0  0  0
  -26.5517  -34.0560   16.3507 N   0  3  0  0  0  0  0  0  0  0  0  0
  -22.5404  -13.6526   17.1994 O   0  0  0  0  0  0  0  0  0  0  0  0
  -22.5048  -27.8063   20.4011 O   0  0  0  0  0  0  0  0  0  0  0  0
  -21.9324  -31.7435   19.2775 O   0  0  0  0  0  0  0  0  0  0  0  0
  -27.8954  -23.6996   20.8311 O   0  0  0  0  0  0  0  0  0  0  0  0
  -25.5871  -31.4141   16.2683 O   0  0  0  0  0  0  0  0  0  0  0  0
  -31.8125  -15.0561   20.1370 O   0  0  0  0  0  0  0  0  0  0  0  0
  -20.6311  -12.8534   24.7029 O   0  0  0  0  0  0  0  0  0  0  0  0
  -28.4289  -26.3212   19.7807 O   0  0  0  0  0  0  0  0  0  1  0  0
  -16.3163   -9.4814   24.0582 F   0  0  0  0  0  0  0  0  0  0  0  0
  -32.2083  -21.4355   20.5742 F   0  0  0  0  0  0  0  0  0  0  0  0
  -20.2437  -10.7055   26.3997 F   0  0  0  0  0  0  0  0  0  0  0  0
  1  2  1  0  0  0  0
  1  5  2  0  0  0  0
  2  6  2  0  0  0  0
  3  9  2  0  0  0  0
  3 18  1  0  0  0  0
  4 10  1  0  0  0  0
  4 18  2  0  0  0  0
  5 21  1  0  0  0  0
  6 23  1  0  0  0  0
  7 11  2  0  0  0  0
  7 22  1  0  0  0  0
  8 13  2  0  0  0  0
  8 25  1  0  0  0  0
  9 26  1  0  0  0  0
 10 26  2  0  0  0  0
 11 27  1  0  0  0  0
 12 14  2  0  0  0  0
 12 28  1  0  0  0  0
 13 30  1  0  0  0  0
 14 29  1  0  0  0  0
 15 19  1  0  0  0  0
 15 25  2  0  0  0  0
 16 24  1  0  0  0  0
 16 27  2  0  0  0  0
 17 29  2  0  0  0  0
 17 31  1  0  0  0  0
 18 32  1  0  0  0  0
 19 30  2  0  0  0  0
 19 34  1  0  0  0  0
 20 32  1  0  0  0  0
 20 33  2  0  0  0  0
 20 35  1  0  0  0  0
 21 23  2  0  0  0  0
 21 41  1  0  0  0  0
 22 24  2  0  0  0  0
 22 42  1  0  0  0  0
 23 50  1  0  0  0  0
 24 43  1  0  0  0  0
 25 69  1  0  0  0  0
 26 81  1  0  0  0  0
 27 82  1  0  0  0  0
 28 31  2  0  0  0  0
 28 81  1  0  0  0  0
 29 83  1  0  0  0  0
 30 84  1  0  0  0  0
 31 85  1  0  0  0  0
 32 63  2  0  0  0  0
 33 64  1  0  0  0  0
 33 67  1  0  0  0  0
 34 70  1  0  0  0  0
 34 73  2  0  0  0  0
 35 68  1  0  0  0  0
 35 75  2  0  0  0  0
 36 51  1  0  0  0  0
 36 71  1  0  0  0  0
 36 76  2  0  0  0  0
 37 60  1  0  0  0  0
 37 65  1  0  0  0  0
 37 77  2  0  0  0  0
 38 58  1  0  0  0  0
 38 70  1  0  0  0  0
 38 78  2  0  0  0  0
 39 61  1  0  0  0  0
 39 72  1  0  0  0  0
 39 79  2  0  0  0  0
 40 66  1  0  0  0  0
 40 69  1  0  0  0  0
 40 80  2  0  0  0  0
 41 44  1  0  0  0  0
 42 51  1  0  0  0  0
 43 65  1  0  0  0  0
 44 46  1  0  0  0  0
 45 47  1  0  0  0  0
 45 48  1  0  0  0  0
 46 50  1  0  0  0  0
 47 52  1  0  0  0  0
 48 66  1  0  0  0  0
 49 52  1  0  0  0  0
 49 66  1  0  0  0  0
 50 71  1  0  0  0  0
 51 65  1  0  0  0  0
 52 64  1  0  0  0  0
 53 61  1  0  0  0  0
 54 62  1  0  0  0  0
 55 62  1  0  0  0  0
 56 62  1  0  0  0  0
 57 74  1  0  0  0  0
 58 59  1  0  0  0  0
 59 82  1  0  0  0  0
 60 62  1  0  0  0  0
 60 72  1  0  0  0  0
 61 74  1  0  0  0  0
 63 64  1  0  0  0  0
M  CHG  2  73   1  74   1
M  ISO  4  40 100  59 101  69 100  82 101
M  END
> <Batch ID>
0065

> <Smiles>
CNC(C)C(=O)NC(C(=O)N1Cc2cc([101O:1][101CH2:1]CC(=O)NC(=N)c3cc([100NH:0][100C:0](=O)N4CCCC(n5nc(-c6ccc(Oc7ccc(F)cc7F)cc6)c(C(N)=O)c5N)C4)ccc3F)ccc2CC1C(=O)NC1CCCc2ccccc21)C(C)(C)C

> <Shape>
0.242

> <Color>
0.098

> <Negative vol penalty>
0.000

$$$$

  -OEChem-04042323183D

 86 95  0     1  0  0  0  0  0999 V2000
  -25.8419  -35.4486   23.0130 C   0  0  0  0  0  0  0  0  0  0  0  0
  -26.4241  -34.2019   22.8073 C   0  0  0  0  0  0  0  0  0  0  0  0
  -24.4194  -12.5420   21.3495 C   0  0  0  0  0  0  0  0  0  0  0  0
  -25.9457  -12.5686   19.4768 C   0  0  0  0  0  0  0  0  0  0  0  0
  -24.5453  -35.5363   23.5179 C   0  0  0  0  0  0  0  0  0  0  0  0
  -25.7104  -33.0422   23.1074 C   0  0  0  0  0  0  0  0  0  0  0  0
  -26.1019  -29.5274   19.4828 C   0  0  0  0  0  0  0  0  0  0  0  0
  -23.8268  -11.3824   20.8500 C   0  0  0  0  0  0  0  0  0  0  0  0
  -25.3530  -11.4089   18.9773 C   0  0  0  0  0  0  0  0  0  0  0  0
  -27.2801  -28.7831   19.4423 C   0  0  0  0  0  0  0  0  0  0  0  0
  -24.5052   -8.0706   20.7779 C   0  0  0  0  0  0  0  0  0  0  0  0
  -24.2462   -7.0361   21.6769 C   0  0  0  0  0  0  0  0  0  0  0  0
  -26.1637  -26.9657   20.5693 C   0  0  0  0  0  0  0  0  0  0  0  0
  -30.4772  -21.5664   16.2832 C   0  0  0  0  0  0  0  0  0  0  0  0
  -28.9888  -19.6910   16.6065 C   0  0  0  0  0  0  0  0  0  0  0  0
  -28.5334  -21.7970   17.6993 C   0  0  0  0  0  0  0  0  0  0  0  0
  -21.8906   -7.1752   21.1585 C   0  0  0  0  0  0  0  0  0  0  0  0
  -25.4789  -13.1352   20.6628 C   0  0  0  0  0  0  0  0  0  0  0  0
  -27.1800  -14.4174   22.0663 C   0  0  0  0  0  0  0  0  0  0  0  0
  -23.8117  -34.3770   23.8153 C   0  0  0  0  0  0  0  0  0  0  0  0
  -24.9468  -28.9997   20.0776 C   0  0  0  0  0  0  0  0  0  0  0  0
  -24.4032  -33.1146   23.6180 C   0  0  0  0  0  0  0  0  0  0  0  0
  -24.9714  -27.7044   20.6138 C   0  0  0  0  0  0  0  0  0  0  0  0
  -30.1329  -20.2393   16.0267 C   0  0  0  0  0  0  0  0  0  0  0  0
  -29.6774  -22.3453   17.1195 C   0  0  0  0  0  0  0  0  0  0  0  0
  -28.1890  -20.4699   17.4428 C   0  0  0  0  0  0  0  0  0  0  0  0
  -24.2935  -10.8158   19.6640 C   0  0  0  0  0  0  0  0  0  0  0  0
  -27.3120  -27.5032   19.9881 C   0  0  0  0  0  0  0  0  0  0  0  0
  -23.4568   -8.6576   20.0692 C   0  0  0  0  0  0  0  0  0  0  0  0
  -22.9390   -6.5883   21.8672 C   0  0  0  0  0  0  0  0  0  0  0  0
  -22.1495   -8.2098   20.2595 C   0  0  0  0  0  0  0  0  0  0  0  0
  -26.0911  -14.3335   21.1780 C   0  0  0  0  0  0  0  0  0  0  0  0
  -27.3754  -15.7653   22.2436 C   0  0  0  0  0  0  0  0  0  0  0  0
  -31.1483  -24.3952   16.8733 C   0  0  0  0  0  0  0  0  0  0  0  0
  -27.9464  -13.3706   22.6766 C   0  0  0  0  0  0  0  0  0  0  0  0
  -23.1227  -29.8175   22.5489 C   0  0  0  0  0  0  0  0  0  0  0  0
  -21.2591  -27.3881   21.4779 C   0  0  0  0  0  0  0  0  0  0  0  0
  -21.0274  -24.4733   19.7181 C   0  0  0  0  0  0  0  0  0  0  0  0
  -26.1257  -20.5477   18.8861 C   0  0  0  0  0  0  0  0  0  0  0  0
  -22.4307  -34.5227   24.4037 C   0  0  0  0  0  0  0  0  0  0  0  0
  -23.6765  -29.8050   20.0894 C   0  0  0  0  0  0  0  0  0  0  0  0
  -23.7529  -27.0843   21.2456 C   0  0  0  0  0  0  0  0  0  0  0  0
  -21.6045  -33.2405   24.3433 C   0  0  0  0  0  0  0  0  0  0  0  0
  -25.0089  -19.9286   22.2097 C   0  0  0  0  0  0  0  0  0  0  0  0
  -22.4329  -32.0490   24.8132 C   0  0  0  0  0  0  0  0  0  0  0  0
  -25.2644  -18.4324   22.4053 C   0  0  0  0  0  0  0  0  0  0  0  0
  -24.5533  -20.2449   20.7863 C   0  0  0  0  0  0  0  0  0  0  0  0
  -29.1989  -24.5728   18.1936 C   0  0  0  0  0  0  0  0  0  0  0  0
  -25.6846  -18.2347   19.9211 C   0  0  0  0  0  0  0  0  0  0  0  0
  -23.6519  -31.8334   23.9081 C   0  0  1  0  0  0  0  0  0  0  0  0
  -31.0217  -25.8419   17.3281 C   0  0  1  0  0  0  0  0  0  0  0  0
  -22.7018  -29.3676   21.1785 C   0  0  1  0  0  0  0  0  0  0  0  0
  -30.1139  -25.7352   18.5543 C   0  0  1  0  0  0  0  0  0  0  0  0
  -26.2080  -17.8755   21.3213 C   0  0  2  0  0  0  0  0  0  0  0  0
  -30.9891  -19.4064   15.1333 C   0  0  0  0  0  0  0  0  0  0  0  0
  -32.3689  -26.4780   17.6256 C   0  0  0  0  0  0  0  0  0  0  0  0
  -19.3814  -22.7003   19.0514 C   0  0  0  0  0  0  0  0  0  0  0  0
  -21.3801  -26.2201   24.2941 C   0  0  0  0  0  0  0  0  0  0  0  0
  -20.5619  -24.0489   23.3536 C   0  0  0  0  0  0  0  0  0  0  0  0
  -19.1324  -26.0879   23.2056 C   0  0  0  0  0  0  0  0  0  0  0  0
  -21.4150  -25.0328   16.8379 C   0  0  0  0  0  0  0  0  0  0  0  0
  -29.3447  -27.0120   18.8556 C   0  0  0  0  0  0  0  0  0  1  0  0
  -21.1837  -25.9032   21.7393 C   0  0  1  0  0  0  0  0  0  0  0  0
  -20.0431  -24.0119   18.6584 C   0  0  2  0  0  0  0  0  0  0  0  0
  -20.5882  -25.5772   23.1381 C   0  0  0  0  0  0  0  0  0  0  0  0
  -25.6272  -15.5326   20.8162 N   0  0  0  0  0  0  0  0  0  0  0  0
  -26.4283  -16.3828   21.4807 N   0  0  0  0  0  0  0  0  0  0  0  0
  -30.0303  -23.7033   17.3818 N   0  0  0  0  0  0  0  0  0  0  0  0
  -22.5366  -27.9138   21.2384 N   0  0  0  0  0  0  0  0  0  0  0  0
  -25.4974  -19.6901   19.8138 N   0  0  0  0  0  0  0  0  0  0  0  0
  -28.2631  -16.4708   22.9762 N   0  0  0  0  0  0  0  0  0  0  0  0
  -27.6117  -12.0410   22.3859 N   0  0  0  0  0  0  0  0  0  0  0  0
  -27.0276  -19.9126   18.0329 N   0  0  0  0  0  0  0  0  0  0  0  0
  -23.2575  -31.1870   22.6747 N   0  0  0  0  0  0  0  0  0  0  0  0
  -20.4383  -25.3297   20.6241 N   0  0  0  0  0  0  0  0  0  0  0  0
  -20.7392  -23.8153   17.3555 N   0  3  0  0  0  0  0  0  0  0  0  0
  -32.0492  -23.9984   16.1482 O   0  0  0  0  0  0  0  0  0  0  0  0
  -28.8892  -13.6070   23.4694 O   0  0  0  0  0  0  0  0  0  0  0  0
  -23.3097  -28.9841   23.4276 O   0  0  0  0  0  0  0  0  0  0  0  0
  -20.2218  -28.0557   21.4788 O   0  0  0  0  0  0  0  0  0  0  0  0
  -22.2004  -24.1074   19.7421 O   0  0  0  0  0  0  0  0  0  0  0  0
  -25.9020  -21.7608   18.8689 O   0  0  0  0  0  0  0  0  0  0  0  0
  -23.7156   -9.6840   19.1764 O   0  0  0  0  0  0  0  0  0  0  0  0
  -28.4608  -26.7748   19.9505 O   0  0  0  0  0  0  0  0  0  1  0  0
  -22.6906   -5.5938   22.7294 F   0  0  0  0  0  0  0  0  0  0  0  0
  -21.1384   -8.7689   19.5806 F   0  0  0  0  0  0  0  0  0  0  0  0
  1  2  1  0  0  0  0
  1  5  2  0  0  0  0
  2  6  2  0  0  0  0
  3  8  2  0  0  0  0
  3 18  1  0  0  0  0
  4  9  1  0  0  0  0
  4 18  2  0  0  0  0
  5 20  1  0  0  0  0
  6 22  1  0  0  0  0
  7 10  2  0  0  0  0
  7 21  1  0  0  0  0
  8 27  1  0  0  0  0
  9 27  2  0  0  0  0
 10 28  1  0  0  0  0
 11 12  2  0  0  0  0
 11 29  1  0  0  0  0
 12 30  1  0  0  0  0
 13 23  1  0  0  0  0
 13 28  2  0  0  0  0
 14 24  2  0  0  0  0
 14 25  1  0  0  0  0
 15 24  1  0  0  0  0
 15 26  2  0  0  0  0
 16 25  2  0  0  0  0
 16 26  1  0  0  0  0
 17 30  2  0  0  0  0
 17 31  1  0  0  0  0
 18 32  1  0  0  0  0
 19 32  1  0  0  0  0
 19 33  2  0  0  0  0
 19 35  1  0  0  0  0
 20 22  2  0  0  0  0
 20 40  1  0  0  0  0
 21 23  2  0  0  0  0
 21 41  1  0  0  0  0
 22 50  1  0  0  0  0
 23 42  1  0  0  0  0
 24 55  1  0  0  0  0
 25 68  1  0  0  0  0
 26 73  1  0  0  0  0
 27 83  1  0  0  0  0
 28 84  1  0  0  0  0
 29 31  2  0  0  0  0
 29 83  1  0  0  0  0
 30 85  1  0  0  0  0
 31 86  1  0  0  0  0
 32 66  2  0  0  0  0
 33 67  1  0  0  0  0
 33 71  1  0  0  0  0
 34 51  1  0  0  0  0
 34 68  1  0  0  0  0
 34 77  2  0  0  0  0
 35 72  1  0  0  0  0
 35 78  2  0  0  0  0
 36 52  1  0  0  0  0
 36 74  1  0  0  0  0
 36 79  2  0  0  0  0
 37 63  1  0  0  0  0
 37 69  1  0  0  0  0
 37 80  2  0  0  0  0
 38 64  1  0  0  0  0
 38 75  1  0  0  0  0
 38 81  2  0  0  0  0
 39 70  1  0  0  0  0
 39 73  1  0  0  0  0
 39 82  2  0  0  0  0
 40 43  1  0  0  0  0
 41 52  1  0  0  0  0
 42 69  1  0  0  0  0
 43 45  1  0  0  0  0
 44 46  1  0  0  0  0
 44 47  1  0  0  0  0
 45 50  1  0  0  0  0
 46 54  1  0  0  0  0
 47 70  1  0  0  0  0
 48 53  1  0  0  0  0
 48 68  1  0  0  0  0
 49 54  1  0  0  0  0
 49 70  1  0  0  0  0
 50 74  1  0  0  0  0
 51 53  1  0  0  0  0
 51 56  1  0  0  0  0
 52 69  1  0  0  0  0
 53 62  1  0  0  0  0
 54 67  1  0  0  0  0
 57 64  1  0  0  0  0
 58 65  1  0  0  0  0
 59 65  1  0  0  0  0
 60 65  1  0  0  0  0
 61 76  1  0  0  0  0
 62 84  1  0  0  0  0
 63 65  1  0  0  0  0
 63 75  1  0  0  0  0
 64 76  1  0  0  0  0
 66 67  1  0  0  0  0
M  CHG  1  76   1
M  ISO  4  39 100  62 101  73 100  84 101
M  END
> <Batch ID>
0065

> <Smiles>
CNC(C)C(=O)NC(C(=O)N1Cc2cc([101O:1][101CH2:1]C3CN(c4cc(C)cc([100NH:0][100C:0](=O)N5CCCC(n6nc(-c7ccc(Oc8ccc(F)cc8F)cc7)c(C(N)=O)c6N)C5)c4)C(=O)C3C)ccc2CC1C(=O)NC1CCCc2ccccc21)C(C)(C)C

> <Shape>
0.249

> <Color>
0.081

> <Negative vol penalty>
0.000

$$$$

  -OEChem-04042323183D

 86 95  0     1  0  0  0  0  0999 V2000
  -30.2409  -36.1874   23.5393 C   0  0  0  0  0  0  0  0  0  0  0  0
  -30.2969  -35.2481   22.5146 C   0  0  0  0  0  0  0  0  0  0  0  0
  -24.8675   -8.6892   21.5494 C   0  0  0  0  0  0  0  0  0  0  0  0
  -23.2827  -10.0810   20.3711 C   0  0  0  0  0  0  0  0  0  0  0  0
  -29.5951  -35.8755   24.7349 C   0  0  0  0  0  0  0  0  0  0  0  0
  -29.7080  -33.9957   22.6855 C   0  0  0  0  0  0  0  0  0  0  0  0
  -26.3430  -28.8587   18.9971 C   0  0  0  0  0  0  0  0  0  0  0  0
  -24.6258  -18.6907   17.4825 C   0  0  0  0  0  0  0  0  0  0  0  0
  -25.1656  -19.8640   18.0092 C   0  0  0  0  0  0  0  0  0  0  0  0
  -23.8473   -8.2351   22.3852 C   0  0  0  0  0  0  0  0  0  0  0  0
  -22.2625   -9.6269   21.2069 C   0  0  0  0  0  0  0  0  0  0  0  0
  -26.4031  -27.4856   18.7627 C   0  0  0  0  0  0  0  0  0  0  0  0
  -21.3135   -6.0011   22.2357 C   0  0  0  0  0  0  0  0  0  0  0  0
  -21.2482   -4.6320   22.4938 C   0  0  0  0  0  0  0  0  0  0  0  0
  -25.2460  -27.0861   20.8413 C   0  0  0  0  0  0  0  0  0  0  0  0
  -27.0721  -18.6221   18.8217 C   0  0  0  0  0  0  0  0  0  0  0  0
  -21.5258   -5.0638   24.8546 C   0  0  0  0  0  0  0  0  0  0  0  0
  -24.5852   -9.6122   20.5424 C   0  0  0  0  0  0  0  0  0  0  0  0
  -26.0517   -9.5181   18.4571 C   0  0  0  0  0  0  0  0  0  0  0  0
  -28.9897  -34.6221   24.9169 C   0  0  0  0  0  0  0  0  0  0  0  0
  -25.7426  -29.3561   20.1627 C   0  0  0  0  0  0  0  0  0  0  0  0
  -29.0547  -33.6662   23.8853 C   0  0  0  0  0  0  0  0  0  0  0  0
  -25.1773  -28.4660   21.0870 C   0  0  0  0  0  0  0  0  0  0  0  0
  -25.3090  -17.4830   17.6254 C   0  0  0  0  0  0  0  0  0  0  0  0
  -26.3888  -19.8297   18.6788 C   0  0  0  0  0  0  0  0  0  0  0  0
  -26.5321  -17.4487   18.2950 C   0  0  0  0  0  0  0  0  0  0  0  0
  -22.5448   -8.7039   22.2139 C   0  0  0  0  0  0  0  0  0  0  0  0
  -25.8572  -26.5990   19.6862 C   0  0  0  0  0  0  0  0  0  0  0  0
  -21.4851   -6.9017   23.2870 C   0  0  0  0  0  0  0  0  0  0  0  0
  -21.3543   -4.1633   23.8033 C   0  0  0  0  0  0  0  0  0  0  0  0
  -21.5912   -6.4330   24.5965 C   0  0  0  0  0  0  0  0  0  0  0  0
  -25.6388  -10.0821   19.6791 C   0  0  0  0  0  0  0  0  0  0  0  0
  -27.0767  -10.3284   18.0339 C   0  0  0  0  0  0  0  0  0  0  0  0
  -28.3260  -22.5197   20.2682 C   0  0  0  0  0  0  0  0  0  0  0  0
  -27.1611  -23.2599   19.7655 C   0  0  0  0  0  0  0  0  0  0  0  0
  -28.1366  -21.0770   19.8878 C   0  0  0  0  0  0  0  0  0  0  0  0
  -27.0004  -24.5730   19.9294 C   0  0  0  0  0  0  0  0  0  1  0  0
  -25.5531   -8.3649   17.7663 C   0  0  0  0  0  0  0  0  0  0  0  0
  -26.7472  -31.0564   22.6533 C   0  0  0  0  0  0  0  0  0  0  0  0
  -23.6008  -31.0345   23.4419 C   0  0  0  0  0  0  0  0  0  0  0  0
  -20.5574  -29.5137   23.1743 C   0  0  0  0  0  0  0  0  0  0  0  0
  -28.4654  -16.0432   19.0910 C   0  0  0  0  0  0  0  0  0  0  0  0
  -28.3441  -34.3137   26.2447 C   0  0  0  0  0  0  0  0  0  0  0  0
  -25.6621  -30.8411   20.3879 C   0  0  0  0  0  0  0  0  0  0  0  0
  -24.5036  -28.9500   22.3441 C   0  0  0  0  0  0  0  0  0  0  0  0
  -26.2549  -22.2942   19.0794 C   0  0  0  0  0  0  0  0  0  0  0  0
  -27.4207  -33.0988   26.2053 C   0  0  0  0  0  0  0  0  0  0  0  0
  -30.5179  -13.2021   19.7175 C   0  0  0  0  0  0  0  0  0  0  0  0
  -28.0949  -31.9390   25.4794 C   0  0  0  0  0  0  0  0  0  0  0  0
  -29.5382  -12.0277   19.6615 C   0  0  0  0  0  0  0  0  0  0  0  0
  -29.8845  -14.4393   20.3514 C   0  0  0  0  0  0  0  0  0  0  0  0
  -27.6319  -13.6865   19.6968 C   0  0  0  0  0  0  0  0  0  0  0  0
  -28.4064  -32.3058   24.0234 C   0  0  1  0  0  0  0  0  0  0  0  0
  -25.4832  -31.2139   21.8564 C   0  0  1  0  0  0  0  0  0  0  0  0
  -28.2042  -12.4373   19.0071 C   0  0  2  0  0  0  0  0  0  0  0  0
  -24.7069  -16.2419   17.0511 C   0  0  0  0  0  0  0  0  0  0  0  0
  -18.1827  -29.7068   23.9621 C   0  0  0  0  0  0  0  0  0  0  0  0
  -24.4214  -29.9502   26.1734 C   0  0  0  0  0  0  0  0  0  0  0  0
  -22.0381  -29.2797   26.5456 C   0  0  0  0  0  0  0  0  0  0  0  0
  -22.6215  -31.6854   26.2376 C   0  0  0  0  0  0  0  0  0  0  0  0
  -19.5440  -29.8268   20.4113 C   0  0  0  0  0  0  0  0  0  0  0  0
  -22.7075  -30.1248   24.2503 C   0  0  1  0  0  0  0  0  0  0  0  0
  -19.1774  -30.0684   22.8701 C   0  0  2  0  0  0  0  0  0  0  0  0
  -22.9615  -30.2505   25.7791 C   0  0  0  0  0  0  0  0  0  0  0  0
  -26.3440  -11.1669   20.0107 N   0  0  0  0  0  0  0  0  0  0  0  0
  -27.2105  -11.2909   18.9909 N   0  0  0  0  0  0  0  0  0  0  0  0
  -26.9268  -21.0002   19.2040 N   0  0  0  0  0  0  0  0  0  0  0  0
  -24.4557  -30.4107   22.5223 N   0  0  0  0  0  0  0  0  0  0  0  0
  -28.6270  -14.7702   19.6775 N   0  0  0  0  0  0  0  0  0  0  0  0
  -27.8677  -10.3044   16.9402 N   0  0  0  0  0  0  0  0  0  0  0  0
  -24.4959   -7.6467   18.3415 N   0  0  0  0  0  0  0  0  0  0  0  0
  -27.2411  -16.2318   18.4506 N   0  0  0  0  0  0  0  0  0  0  0  0
  -27.2076  -32.2315   23.2160 N   0  0  0  0  0  0  0  0  0  0  0  0
  -21.3398  -30.4300   23.8447 N   0  0  0  0  0  0  0  0  0  0  0  0
  -18.6741  -29.5248   21.5771 N   0  3  0  0  0  0  0  0  0  0  0  0
  -29.2882  -22.9247   20.8798 O   0  0  0  0  0  0  0  0  0  0  0  0
  -28.9538  -20.2268   20.1764 O   0  0  0  0  0  0  0  0  0  0  0  0
  -26.0419   -7.9730   16.6795 O   0  0  0  0  0  0  0  0  0  0  0  0
  -27.2656  -29.9504   22.7517 O   0  0  0  0  0  0  0  0  0  0  0  0
  -23.5371  -32.2543   23.6148 O   0  0  0  0  0  0  0  0  0  0  0  0
  -20.9051  -28.3796   22.8527 O   0  0  0  0  0  0  0  0  0  0  0  0
  -29.3586  -16.8933   19.1289 O   0  0  0  0  0  0  0  0  0  0  0  0
  -21.5490   -8.2608   23.0291 O   0  0  0  0  0  0  0  0  0  0  0  0
  -25.9151  -25.2583   19.4602 O   0  0  0  0  0  0  0  0  0  1  0  0
  -21.2900   -2.8485   24.0512 F   0  0  0  0  0  0  0  0  0  0  0  0
  -21.7549   -7.2935   25.6107 F   0  0  0  0  0  0  0  0  0  0  0  0
  1  2  1  0  0  0  0
  1  5  2  0  0  0  0
  2  6  2  0  0  0  0
  3 10  2  0  0  0  0
  3 18  1  0  0  0  0
  4 11  1  0  0  0  0
  4 18  2  0  0  0  0
  5 20  1  0  0  0  0
  6 22  1  0  0  0  0
  7 12  2  0  0  0  0
  7 21  1  0  0  0  0
  8  9  2  0  0  0  0
  8 24  1  0  0  0  0
  9 25  1  0  0  0  0
 10 27  1  0  0  0  0
 11 27  2  0  0  0  0
 12 28  1  0  0  0  0
 13 14  2  0  0  0  0
 13 29  1  0  0  0  0
 14 30  1  0  0  0  0
 15 23  1  0  0  0  0
 15 28  2  0  0  0  0
 16 25  2  0  0  0  0
 16 26  1  0  0  0  0
 17 30  2  0  0  0  0
 17 31  1  0  0  0  0
 18 32  1  0  0  0  0
 19 32  1  0  0  0  0
 19 33  2  0  0  0  0
 19 38  1  0  0  0  0
 20 22  2  0  0  0  0
 20 43  1  0  0  0  0
 21 23  2  0  0  0  0
 21 44  1  0  0  0  0
 22 53  1  0  0  0  0
 23 45  1  0  0  0  0
 24 26  2  0  0  0  0
 24 56  1  0  0  0  0
 25 67  1  0  0  0  0
 26 72  1  0  0  0  0
 27 83  1  0  0  0  0
 28 84  1  0  0  0  0
 29 31  2  0  0  0  0
 29 83  1  0  0  0  0
 30 85  1  0  0  0  0
 31 86  1  0  0  0  0
 32 65  2  0  0  0  0
 33 66  1  0  0  0  0
 33 70  1  0  0  0  0
 34 35  1  0  0  0  0
 34 36  1  0  0  0  0
 34 76  2  0  0  0  0
 35 37  2  0  0  0  0
 35 46  1  0  0  0  0
 36 67  1  0  0  0  0
 36 77  2  0  0  0  0
 37 84  1  0  0  0  0
 38 71  1  0  0  0  0
 38 78  2  0  0  0  0
 39 54  1  0  0  0  0
 39 73  1  0  0  0  0
 39 79  2  0  0  0  0
 40 62  1  0  0  0  0
 40 68  1  0  0  0  0
 40 80  2  0  0  0  0
 41 63  1  0  0  0  0
 41 74  1  0  0  0  0
 41 81  2  0  0  0  0
 42 69  1  0  0  0  0
 42 72  1  0  0  0  0
 42 82  2  0  0  0  0
 43 47  1  0  0  0  0
 44 54  1  0  0  0  0
 45 68  1  0  0  0  0
 46 67  1  0  0  0  0
 47 49  1  0  0  0  0
 48 50  1  0  0  0  0
 48 51  1  0  0  0  0
 49 53  1  0  0  0  0
 50 55  1  0  0  0  0
 51 69  1  0  0  0  0
 52 55  1  0  0  0  0
 52 69  1  0  0  0  0
 53 73  1  0  0  0  0
 54 68  1  0  0  0  0
 55 66  1  0  0  0  0
 57 63  1  0  0  0  0
 58 64  1  0  0  0  0
 59 64  1  0  0  0  0
 60 64  1  0  0  0  0
 61 75  1  0  0  0  0
 62 64  1  0  0  0  0
 62 74  1  0  0  0  0
 63 75  1  0  0  0  0
 65 66  1  0  0  0  0
M  CHG  1  75   1
M  ISO  4  37 101  42 100  72 100  84 101
M  END
> <Batch ID>
0065

> <Smiles>
CNC(C)C(=O)NC(C(=O)N1Cc2cc([101O:1][101CH:1]=C3CN(c4ccc(C)c([100NH:0][100C:0](=O)N5CCCC(n6nc(-c7ccc(Oc8ccc(F)cc8F)cc7)c(C(N)=O)c6N)C5)c4)C(=O)C3=O)ccc2CC1C(=O)NC1CCCc2ccccc21)C(C)(C)C

> <Shape>
0.291

> <Color>
0.122

> <Negative vol penalty>
0.000

$$$$

  -OEChem-04042323183D

 84 92  0     1  0  0  0  0  0999 V2000
  -26.0757  -18.5016   25.0326 C   0  0  0  0  0  0  0  0  0  0  0  0
  -26.3033  -19.2783   23.9010 C   0  0  0  0  0  0  0  0  0  0  0  0
  -23.5782  -10.0773   22.2735 C   0  0  0  0  0  0  0  0  0  0  0  0
  -22.6206  -10.1812   20.0578 C   0  0  0  0  0  0  0  0  0  0  0  0
  -25.1698  -20.5830   17.2585 C   0  0  0  0  0  0  0  0  0  0  0  0
  -24.8594  -18.5950   25.7077 C   0  0  0  0  0  0  0  0  0  0  0  0
  -25.3142  -20.1481   23.4433 C   0  0  0  0  0  0  0  0  0  0  0  0
  -27.1523  -24.7016   22.2056 C   0  0  0  0  0  0  0  0  0  0  0  0
  -24.3149  -19.5527   17.6499 C   0  0  0  0  0  0  0  0  0  0  0  0
  -23.2315   -8.7290   22.3602 C   0  0  0  0  0  0  0  0  0  0  0  0
  -22.2740   -8.8328   20.1444 C   0  0  0  0  0  0  0  0  0  0  0  0
  -27.8068  -24.8123   20.9796 C   0  0  0  0  0  0  0  0  0  0  0  0
  -20.4547   -6.9070   22.9879 C   0  0  0  0  0  0  0  0  0  0  0  0
  -19.8671   -6.4646   24.1729 C   0  0  0  0  0  0  0  0  0  0  0  0
  -25.8137  -25.7625   20.0081 C   0  0  0  0  0  0  0  0  0  0  0  0
  -23.4050  -20.9668   19.3848 C   0  0  0  0  0  0  0  0  0  0  0  0
  -21.6872   -4.9087   24.4947 C   0  0  0  0  0  0  0  0  0  0  0  0
  -23.2727  -10.8034   21.1224 C   0  0  0  0  0  0  0  0  0  0  0  0
  -25.1424  -21.8052   17.9302 C   0  0  0  0  0  0  0  0  0  0  0  0
  -24.8328  -12.7353   20.5377 C   0  0  0  0  0  0  0  0  0  0  0  0
  -23.8585  -19.4734   25.2636 C   0  0  0  0  0  0  0  0  0  0  0  0
  -25.8179  -25.1112   22.3396 C   0  0  0  0  0  0  0  0  0  0  0  0
  -24.0828  -20.2523   24.1123 C   0  0  0  0  0  0  0  0  0  0  0  0
  -25.1453  -25.6584   21.2376 C   0  0  0  0  0  0  0  0  0  0  0  0
  -23.4325  -19.7446   18.7130 C   0  0  0  0  0  0  0  0  0  0  0  0
  -22.5795   -8.1068   21.2956 C   0  0  0  0  0  0  0  0  0  0  0  0
  -27.1366  -25.3401   19.8799 C   0  0  0  0  0  0  0  0  0  0  0  0
  -21.6586   -6.3502   22.5561 C   0  0  0  0  0  0  0  0  0  0  0  0
  -20.4833   -5.4654   24.9264 C   0  0  0  0  0  0  0  0  0  0  0  0
  -24.2600  -21.9971   18.9934 C   0  0  0  0  0  0  0  0  0  0  0  0
  -22.2749   -5.3511   23.3096 C   0  0  0  0  0  0  0  0  0  0  0  0
  -23.6300  -12.1964   21.0325 C   0  0  0  0  0  0  0  0  0  0  0  0
  -24.6791  -14.0940   20.6669 C   0  0  0  0  0  0  0  0  0  0  0  0
  -26.0491  -22.8938   17.5139 C   0  0  0  0  0  0  0  0  0  0  0  0
  -25.9859  -12.0673   20.0086 C   0  0  0  0  0  0  0  0  0  0  0  0
  -23.0897  -23.6593   23.0833 C   0  0  0  0  0  0  0  0  0  0  0  0
  -21.9135  -26.6815   23.0087 C   0  0  0  0  0  0  0  0  0  0  0  0
  -22.2095  -29.8779   21.8502 C   0  0  0  0  0  0  0  0  0  0  0  0
  -21.6283  -18.7224   20.1435 C   0  0  0  0  0  0  0  0  0  0  0  0
  -22.5420  -19.5051   25.9987 C   0  0  0  0  0  0  0  0  0  0  0  0
  -25.1344  -25.0100   23.6756 C   0  0  0  0  0  0  0  0  0  0  0  0
  -23.7187  -26.1315   21.3341 C   0  0  0  0  0  0  0  0  0  0  0  0
  -21.6882  -20.7262   25.6667 C   0  0  0  0  0  0  0  0  0  0  0  0
  -21.1550  -16.7938   23.0988 C   0  0  0  0  0  0  0  0  0  0  0  0
  -21.6426  -20.9517   24.1588 C   0  0  0  0  0  0  0  0  0  0  0  0
  -21.8556  -15.4701   22.7840 C   0  0  0  0  0  0  0  0  0  0  0  0
  -20.4565  -17.3721   21.8694 C   0  0  0  0  0  0  0  0  0  0  0  0
  -22.0076  -16.1881   20.3656 C   0  0  0  0  0  0  0  0  0  0  0  0
  -23.0438  -21.2257   23.5993 C   0  0  1  0  0  0  0  0  0  0  0  0
  -23.6129  -24.9819   23.5679 C   0  0  1  0  0  0  0  0  0  0  0  0
  -22.7801  -15.5996   21.5575 C   0  0  2  0  0  0  0  0  0  0  0  0
  -21.0756  -32.1151   21.9301 C   0  0  0  0  0  0  0  0  0  0  0  0
  -30.1237  -25.1929   18.2116 C   0  0  0  0  0  0  0  0  0  0  0  0
  -19.7963  -25.6754   21.0554 C   0  0  0  0  0  0  0  0  0  0  0  0
  -19.3197  -28.0584   20.4531 C   0  0  0  0  0  0  0  0  0  0  0  0
  -18.9455  -27.2652   22.7884 C   0  0  0  0  0  0  0  0  0  0  0  0
  -24.5684  -31.1586   23.0970 C   0  0  0  0  0  0  0  0  0  0  0  0
  -28.3665  -23.6766   17.1767 C   0  0  0  0  0  0  0  0  0  0  0  0
  -21.3100  -27.5679   21.9461 C   0  0  1  0  0  0  0  0  0  0  0  0
  -22.1299  -31.2177   22.5593 C   0  0  2  0  0  0  0  0  0  0  0  0
  -28.7875  -24.4868   18.3959 C   0  0  2  0  0  0  0  0  0  1  0  0
  -19.8691  -27.1311   21.5581 C   0  0  0  0  0  0  0  0  0  0  0  0
  -22.7753  -13.1361   21.4454 N   0  0  0  0  0  0  0  0  0  0  0  0
  -23.4419  -14.2791   21.2104 N   0  0  0  0  0  0  0  0  0  0  0  0
  -23.0916  -26.0058   22.6602 N   0  0  0  0  0  0  0  0  0  0  0  0
  -21.3945  -17.4695   20.7489 N   0  0  0  0  0  0  0  0  0  0  0  0
  -25.4829  -15.1365   20.3677 N   0  0  0  0  0  0  0  0  0  0  0  0
  -25.5071  -24.0427   17.1097 N   0  0  0  0  0  0  0  0  0  0  0  0
  -25.9775  -10.6671   19.9474 N   0  0  0  0  0  0  0  0  0  0  0  0
  -22.5641  -18.6976   19.1100 N   0  0  0  0  0  0  0  0  0  0  0  0
  -23.4431  -22.5879   23.8812 N   0  0  0  0  0  0  0  0  0  0  0  0
  -21.4048  -28.9332   22.4513 N   0  0  0  0  0  0  0  0  0  0  0  0
  -27.3683  -22.6744   17.5599 N   0  3  0  0  0  0  0  0  0  0  0  0
  -23.4437  -31.9180   22.4926 N   0  3  0  0  0  0  0  0  0  0  0  0
  -27.0003  -12.6929   19.6173 O   0  0  0  0  0  0  0  0  0  0  0  0
  -22.4141  -23.6145   22.0619 O   0  0  0  0  0  0  0  0  0  0  0  0
  -21.3639  -26.5973   24.1098 O   0  0  0  0  0  0  0  0  0  0  0  0
  -22.9122  -29.6892   20.8597 O   0  0  0  0  0  0  0  0  0  0  0  0
  -21.0619  -19.7470   20.5326 O   0  0  0  0  0  0  0  0  0  0  0  0
  -22.2412   -6.7911   21.3797 O   0  0  0  0  0  0  0  0  0  0  0  0
  -27.7729  -25.4486   18.6819 O   0  0  0  0  0  0  0  0  0  1  0  0
  -19.9196   -5.0418   26.0652 F   0  0  0  0  0  0  0  0  0  0  0  0
  -24.2277  -23.1673   19.6462 F   0  0  0  0  0  0  0  0  0  0  0  0
  -23.4321   -4.8132   22.9005 F   0  0  0  0  0  0  0  0  0  0  0  0
  1  2  1  0  0  0  0
  1  6  2  0  0  0  0
  2  7  2  0  0  0  0
  3 10  2  0  0  0  0
  3 18  1  0  0  0  0
  4 11  1  0  0  0  0
  4 18  2  0  0  0  0
  5  9  2  0  0  0  0
  5 19  1  0  0  0  0
  6 21  1  0  0  0  0
  7 23  1  0  0  0  0
  8 12  2  0  0  0  0
  8 22  1  0  0  0  0
  9 25  1  0  0  0  0
 10 26  1  0  0  0  0
 11 26  2  0  0  0  0
 12 27  1  0  0  0  0
 13 14  2  0  0  0  0
 13 28  1  0  0  0  0
 14 29  1  0  0  0  0
 15 24  1  0  0  0  0
 15 27  2  0  0  0  0
 16 25  2  0  0  0  0
 16 30  1  0  0  0  0
 17 29  2  0  0  0  0
 17 31  1  0  0  0  0
 18 32  1  0  0  0  0
 19 30  2  0  0  0  0
 19 34  1  0  0  0  0
 20 32  1  0  0  0  0
 20 33  2  0  0  0  0
 20 35  1  0  0  0  0
 21 23  2  0  0  0  0
 21 40  1  0  0  0  0
 22 24  2  0  0  0  0
 22 41  1  0  0  0  0
 23 49  1  0  0  0  0
 24 42  1  0  0  0  0
 25 70  1  0  0  0  0
 26 80  1  0  0  0  0
 27 81  1  0  0  0  0
 28 31  2  0  0  0  0
 28 80  1  0  0  0  0
 29 82  1  0  0  0  0
 30 83  1  0  0  0  0
 31 84  1  0  0  0  0
 32 63  2  0  0  0  0
 33 64  1  0  0  0  0
 33 67  1  0  0  0  0
 34 68  1  0  0  0  0
 34 73  2  0  0  0  0
 35 69  1  0  0  0  0
 35 75  2  0  0  0  0
 36 50  1  0  0  0  0
 36 71  1  0  0  0  0
 36 76  2  0  0  0  0
 37 59  1  0  0  0  0
 37 65  1  0  0  0  0
 37 77  2  0  0  0  0
 38 60  1  0  0  0  0
 38 72  1  0  0  0  0
 38 78  2  0  0  0  0
 39 66  1  0  0  0  0
 39 70  1  0  0  0  0
 39 79  2  0  0  0  0
 40 43  1  0  0  0  0
 41 50  1  0  0  0  0
 42 65  1  0  0  0  0
 43 45  1  0  0  0  0
 44 46  1  0  0  0  0
 44 47  1  0  0  0  0
 45 49  1  0  0  0  0
 46 51  1  0  0  0  0
 47 66  1  0  0  0  0
 48 51  1  0  0  0  0
 48 66  1  0  0  0  0
 49 71  1  0  0  0  0
 50 65  1  0  0  0  0
 51 64  1  0  0  0  0
 52 60  1  0  0  0  0
 53 61  1  0  0  0  0
 54 62  1  0  0  0  0
 55 62  1  0  0  0  0
 56 62  1  0  0  0  0
 57 74  1  0  0  0  0
 58 61  1  0  0  0  0
 58 73  1  0  0  0  0
 59 62  1  0  0  0  0
 59 72  1  0  0  0  0
 60 74  1  0  0  0  0
 61 81  1  0  0  0  0
 63 64  1  0  0  0  0
M  CHG  2  73   1  74   1
M  ISO  4  39 100  61 101  70 100  81 101
M  END
> <Batch ID>
0065

> <Smiles>
CNC(C)C(=O)NC(C(=O)N1Cc2cc([101O:1][101CH:1](C)CNC(=N)c3ccc([100NH:0][100C:0](=O)N4CCCC(n5nc(-c6ccc(Oc7ccc(F)cc7F)cc6)c(C(N)=O)c5N)C4)cc3F)ccc2CC1C(=O)NC1CCCc2ccccc21)C(C)(C)C

> <Shape>
0.201

> <Color>
0.097

> <Negative vol penalty>
0.000

$$$$

  -OEChem-04042323183D

 86 94  0     1  0  0  0  0  0999 V2000
  -18.4423  -17.1746   22.6597 C   0  0  0  0  0  0  0  0  0  0  0  0
  -19.6777  -17.7306   22.9758 C   0  0  0  0  0  0  0  0  0  0  0  0
  -23.0779   -9.8646   19.9424 C   0  0  0  0  0  0  0  0  0  0  0  0
  -23.8323   -9.8788   22.2375 C   0  0  0  0  0  0  0  0  0  0  0  0
  -17.3710  -18.0026   22.3270 C   0  0  0  0  0  0  0  0  0  0  0  0
  -19.8428  -19.1151   22.9583 C   0  0  0  0  0  0  0  0  0  0  0  0
  -22.3766  -20.8205   26.9977 C   0  0  0  0  0  0  0  0  0  0  0  0
  -22.3337   -8.7120   20.1942 C   0  0  0  0  0  0  0  0  0  0  0  0
  -23.0882   -8.7263   22.4893 C   0  0  0  0  0  0  0  0  0  0  0  0
  -23.7618  -20.6625   26.9938 C   0  0  0  0  0  0  0  0  0  0  0  0
  -19.8588   -7.9294   23.0867 C   0  0  0  0  0  0  0  0  0  0  0  0
  -19.0991   -7.8929   24.2559 C   0  0  0  0  0  0  0  0  0  0  0  0
  -24.0166  -22.9657   26.3235 C   0  0  0  0  0  0  0  0  0  0  0  0
  -31.8412  -18.3705   24.1993 C   0  0  0  0  0  0  0  0  0  0  0  0
  -32.0570  -16.6168   22.5516 C   0  0  0  0  0  0  0  0  0  0  0  0
  -29.8710  -17.4652   23.1335 C   0  0  0  0  0  0  0  0  0  0  0  0
  -20.3393   -5.9580   25.0013 C   0  0  0  0  0  0  0  0  0  0  0  0
  -23.8272  -10.4480   20.9641 C   0  0  0  0  0  0  0  0  0  0  0  0
  -24.1687  -12.9729   20.8371 C   0  0  0  0  0  0  0  0  0  0  0  0
  -17.5205  -19.3983   22.3148 C   0  0  0  0  0  0  0  0  0  0  0  0
  -21.7996  -22.0514   26.6534 C   0  0  0  0  0  0  0  0  0  0  0  0
  -18.7729  -19.9626   22.6239 C   0  0  0  0  0  0  0  0  0  0  0  0
  -22.6239  -23.1375   26.3263 C   0  0  0  0  0  0  0  0  0  0  0  0
  -32.6418  -17.5031   23.4561 C   0  0  0  0  0  0  0  0  0  0  0  0
  -30.4558  -18.3515   24.0380 C   0  0  0  0  0  0  0  0  0  0  0  0
  -30.6716  -16.5978   22.3903 C   0  0  0  0  0  0  0  0  0  0  0  0
  -22.3388   -8.1428   21.4676 C   0  0  0  0  0  0  0  0  0  0  0  0
  -24.5819  -21.7344   26.6538 C   0  0  0  0  0  0  0  0  0  0  0  0
  -20.8587   -6.9802   22.8747 C   0  0  0  0  0  0  0  0  0  0  0  0
  -19.3394   -6.9072   25.2132 C   0  0  0  0  0  0  0  0  0  0  0  0
  -21.0990   -5.9946   23.8320 C   0  0  0  0  0  0  0  0  0  0  0  0
  -24.5966  -11.6383   20.7045 C   0  0  0  0  0  0  0  0  0  0  0  0
  -25.2615  -13.7215   20.4741 C   0  0  0  0  0  0  0  0  0  0  0  0
  -27.7811  -20.3903   25.7039 C   0  0  0  0  0  0  0  0  0  0  0  0
  -26.4733  -20.6456   25.8124 C   0  0  0  0  0  0  0  0  0  1  0  0
  -22.8971  -13.4896   21.2514 C   0  0  0  0  0  0  0  0  0  0  0  0
  -28.2595  -19.3425   24.7555 C   0  0  0  0  0  0  0  0  0  0  0  0
  -19.8434  -23.0468   24.3543 C   0  0  0  0  0  0  0  0  0  0  0  0
  -19.9164  -25.8228   26.0308 C   0  0  0  0  0  0  0  0  0  0  0  0
  -21.5726  -27.8326   28.2364 C   0  0  0  0  0  0  0  0  0  0  0  0
  -30.7269  -14.7692   20.6584 C   0  0  0  0  0  0  0  0  0  0  0  0
  -16.3463  -20.2506   21.9028 C   0  0  0  0  0  0  0  0  0  0  0  0
  -20.3046  -22.2131   26.6884 C   0  0  0  0  0  0  0  0  0  0  0  0
  -22.0549  -24.4854   25.9687 C   0  0  0  0  0  0  0  0  0  0  0  0
  -16.5034  -21.7234   22.2723 C   0  0  0  0  0  0  0  0  0  0  0  0
  -29.6188  -12.3477   18.2950 C   0  0  0  0  0  0  0  0  0  0  0  0
  -17.8907  -22.2258   21.8854 C   0  0  0  0  0  0  0  0  0  0  0  0
  -28.1782  -12.0571   18.7221 C   0  0  0  0  0  0  0  0  0  0  0  0
  -30.5310  -12.5805   19.4981 C   0  0  0  0  0  0  0  0  0  0  0  0
  -28.6206  -13.3087   20.8726 C   0  0  0  0  0  0  0  0  0  0  0  0
  -18.9848  -21.4609   22.6401 C   0  0  1  0  0  0  0  0  0  0  0  0
  -19.8079  -23.3664   25.8221 C   0  0  1  0  0  0  0  0  0  0  0  0
  -27.6506  -13.1315   19.6931 C   0  0  2  0  0  0  0  0  0  0  0  0
  -21.4018  -30.0567   29.3861 C   0  0  0  0  0  0  0  0  0  0  0  0
  -20.7167  -27.2210   23.4396 C   0  0  0  0  0  0  0  0  0  0  0  0
  -21.4432  -29.1883   24.8072 C   0  0  0  0  0  0  0  0  0  0  0  0
  -19.0543  -28.4704   24.8287 C   0  0  0  0  0  0  0  0  0  0  0  0
  -21.5503  -26.5762   30.9159 C   0  0  0  0  0  0  0  0  0  0  0  0
  -20.7835  -27.0585   26.0155 C   0  0  1  0  0  0  0  0  0  0  0  0
  -21.1019  -28.5686   29.4778 C   0  0  2  0  0  0  0  0  0  0  0  0
  -34.1231  -17.5229   23.6299 C   0  0  0  0  0  0  0  0  0  0  0  0
  -20.5104  -27.9587   24.7776 C   0  0  0  0  0  0  0  0  0  0  0  0
  -25.8625  -11.5415   20.2895 N   0  0  0  0  0  0  0  0  0  0  0  0
  -26.2393  -12.8248   20.1581 N   0  0  0  0  0  0  0  0  0  0  0  0
  -20.5871  -24.5917   26.0112 N   0  0  0  0  0  0  0  0  0  0  0  0
  -29.9697  -13.6139   20.3710 N   0  0  0  0  0  0  0  0  0  0  0  0
  -25.4717  -15.0528   20.3975 N   0  0  0  0  0  0  0  0  0  0  0  0
  -21.8846  -12.5812   21.5891 N   0  0  0  0  0  0  0  0  0  0  0  0
  -29.6432  -19.2325   24.7932 N   0  0  0  0  0  0  0  0  0  0  0  0
  -30.0774  -15.6965   21.4725 N   0  0  0  0  0  0  0  0  0  0  0  0
  -19.0915  -21.9427   24.0006 N   0  0  0  0  0  0  0  0  0  0  0  0
  -20.5697  -27.7231   27.2965 N   0  0  0  0  0  0  0  0  0  0  0  0
  -21.7793  -28.0265   30.6895 N   0  3  0  0  0  0  0  0  0  0  0  0
  -22.6603  -14.7203   21.3044 O   0  0  0  0  0  0  0  0  0  0  0  0
  -27.4736  -18.7032   24.0661 O   0  0  0  0  0  0  0  0  0  0  0  0
  -20.5028  -23.7508   23.5984 O   0  0  0  0  0  0  0  0  0  0  0  0
  -18.6895  -25.9454   26.0664 O   0  0  0  0  0  0  0  0  0  0  0  0
  -22.7167  -27.4015   28.1113 O   0  0  0  0  0  0  0  0  0  0  0  0
  -31.8571  -14.9368   20.1930 O   0  0  0  0  0  0  0  0  0  0  0  0
  -21.6126   -7.0183   21.7137 O   0  0  0  0  0  0  0  0  0  0  0  0
  -25.9343  -21.5826   26.6485 O   0  0  0  0  0  0  0  0  0  1  0  0
  -18.6108   -6.8732   26.3367 F   0  0  0  0  0  0  0  0  0  0  0  0
  -22.0590   -5.0807   23.6344 F   0  0  0  0  0  0  0  0  0  0  0  0
  -34.5544  -18.4381   24.5475 F   0  0  0  0  0  0  0  0  0  0  0  0
  -34.6404  -16.3296   24.0468 F   0  0  0  0  0  0  0  0  0  0  0  0
  -34.7832  -17.8244   22.4740 F   0  0  0  0  0  0  0  0  0  0  0  0
  1  2  1  0  0  0  0
  1  5  2  0  0  0  0
  2  6  2  0  0  0  0
  3  8  2  0  0  0  0
  3 18  1  0  0  0  0
  4  9  1  0  0  0  0
  4 18  2  0  0  0  0
  5 20  1  0  0  0  0
  6 22  1  0  0  0  0
  7 10  2  0  0  0  0
  7 21  1  0  0  0  0
  8 27  1  0  0  0  0
  9 27  2  0  0  0  0
 10 28  1  0  0  0  0
 11 12  2  0  0  0  0
 11 29  1  0  0  0  0
 12 30  1  0  0  0  0
 13 23  1  0  0  0  0
 13 28  2  0  0  0  0
 14 24  1  0  0  0  0
 14 25  2  0  0  0  0
 15 24  2  0  0  0  0
 15 26  1  0  0  0  0
 16 25  1  0  0  0  0
 16 26  2  0  0  0  0
 17 30  2  0  0  0  0
 17 31  1  0  0  0  0
 18 32  1  0  0  0  0
 19 32  1  0  0  0  0
 19 33  2  0  0  0  0
 19 36  1  0  0  0  0
 20 22  2  0  0  0  0
 20 42  1  0  0  0  0
 21 23  2  0  0  0  0
 21 43  1  0  0  0  0
 22 51  1  0  0  0  0
 23 44  1  0  0  0  0
 24 61  1  0  0  0  0
 25 69  1  0  0  0  0
 26 70  1  0  0  0  0
 27 80  1  0  0  0  0
 28 81  1  0  0  0  0
 29 31  2  0  0  0  0
 29 80  1  0  0  0  0
 30 82  1  0  0  0  0
 31 83  1  0  0  0  0
 32 63  2  0  0  0  0
 33 64  1  0  0  0  0
 33 67  1  0  0  0  0
 34 35  2  0  0  0  0
 34 37  1  0  0  0  0
 35 81  1  0  0  0  0
 36 68  1  0  0  0  0
 36 74  2  0  0  0  0
 37 69  1  0  0  0  0
 37 75  2  0  0  0  0
 38 52  1  0  0  0  0
 38 71  1  0  0  0  0
 38 76  2  0  0  0  0
 39 59  1  0  0  0  0
 39 65  1  0  0  0  0
 39 77  2  0  0  0  0
 40 60  1  0  0  0  0
 40 72  1  0  0  0  0
 40 78  2  0  0  0  0
 41 66  1  0  0  0  0
 41 70  1  0  0  0  0
 41 79  2  0  0  0  0
 42 45  1  0  0  0  0
 43 52  1  0  0  0  0
 44 65  1  0  0  0  0
 45 47  1  0  0  0  0
 46 48  1  0  0  0  0
 46 49  1  0  0  0  0
 47 51  1  0  0  0  0
 48 53  1  0  0  0  0
 49 66  1  0  0  0  0
 50 53  1  0  0  0  0
 50 66  1  0  0  0  0
 51 71  1  0  0  0  0
 52 65  1  0  0  0  0
 53 64  1  0  0  0  0
 54 60  1  0  0  0  0
 55 62  1  0  0  0  0
 56 62  1  0  0  0  0
 57 62  1  0  0  0  0
 58 73  1  0  0  0  0
 59 62  1  0  0  0  0
 59 72  1  0  0  0  0
 60 73  1  0  0  0  0
 61 84  1  0  0  0  0
 61 85  1  0  0  0  0
 61 86  1  0  0  0  0
 63 64  1  0  0  0  0
M  CHG  1  73   1
M  ISO  4  35 101  41 100  70 100  81 101
M  END
> <Batch ID>
0065

> <Smiles>
CNC(C)C(=O)NC(C(=O)N1Cc2cc([101O:1][101CH:1]=CC(=O)Nc3cc([100NH:0][100C:0](=O)N4CCCC(n5nc(-c6ccc(Oc7ccc(F)cc7F)cc6)c(C(N)=O)c5N)C4)cc(C(F)(F)F)c3)ccc2CC1C(=O)NC1CCCc2ccccc21)C(C)(C)C

> <Shape>
0.180

> <Color>
0.191

> <Negative vol penalty>
0.000

$$$$

  -OEChem-04042323183D

 86 95  0     1  0  0  0  0  0999 V2000
  -19.3328  -29.3817   16.1071 C   0  0  0  0  0  0  0  0  0  0  0  0
  -20.3212  -28.4027   16.1184 C   0  0  0  0  0  0  0  0  0  0  0  0
  -23.0943   -9.8418   19.9028 C   0  0  0  0  0  0  0  0  0  0  0  0
  -23.8815   -9.7888   22.1864 C   0  0  0  0  0  0  0  0  0  0  0  0
  -19.6649  -30.7090   16.3749 C   0  0  0  0  0  0  0  0  0  0  0  0
  -21.6425  -28.7508   16.3964 C   0  0  0  0  0  0  0  0  0  0  0  0
  -25.7808  -25.3856   19.4058 C   0  0  0  0  0  0  0  0  0  0  0  0
  -22.3770   -8.6659   20.1228 C   0  0  0  0  0  0  0  0  0  0  0  0
  -23.1641   -8.6129   22.4064 C   0  0  0  0  0  0  0  0  0  0  0  0
  -26.8153  -24.5597   18.9684 C   0  0  0  0  0  0  0  0  0  0  0  0
  -19.9603   -7.7292   23.0187 C   0  0  0  0  0  0  0  0  0  0  0  0
  -19.2184   -7.6351   24.1962 C   0  0  0  0  0  0  0  0  0  0  0  0
  -28.3736  -26.3822   19.2321 C   0  0  0  0  0  0  0  0  0  0  0  0
  -28.9977  -19.7967   20.1755 C   0  0  0  0  0  0  0  0  0  0  0  0
  -31.2454  -19.5548   19.3233 C   0  0  0  0  0  0  0  0  0  0  0  0
  -20.5076   -5.7005   24.8537 C   0  0  0  0  0  0  0  0  0  0  0  0
  -23.8466  -10.4032   20.9346 C   0  0  0  0  0  0  0  0  0  0  0  0
  -24.1358  -12.9374   20.8946 C   0  0  0  0  0  0  0  0  0  0  0  0
  -20.9893  -31.0720   16.6658 C   0  0  0  0  0  0  0  0  0  0  0  0
  -26.0334  -26.7214   19.7498 C   0  0  0  0  0  0  0  0  0  0  0  0
  -21.9929  -30.0845   16.6670 C   0  0  0  0  0  0  0  0  0  0  0  0
  -27.3410  -27.2222   19.6760 C   0  0  0  0  0  0  0  0  0  0  0  0
  -29.2183  -18.7391   21.0577 C   0  0  0  0  0  0  0  0  0  0  0  0
  -30.4524  -18.0893   21.0728 C   0  0  0  0  0  0  0  0  0  0  0  0
  -30.0113  -20.2045   19.3082 C   0  0  0  0  0  0  0  0  0  0  0  0
  -22.4119   -8.0515   21.3745 C   0  0  0  0  0  0  0  0  0  0  0  0
  -28.1115  -25.0588   18.8788 C   0  0  0  0  0  0  0  0  0  0  0  0
  -20.9757   -6.8089   22.7587 C   0  0  0  0  0  0  0  0  0  0  0  0
  -19.4921   -6.6207   25.1137 C   0  0  0  0  0  0  0  0  0  0  0  0
  -31.4661  -18.4971   20.2056 C   0  0  0  0  0  0  0  0  0  0  0  0
  -21.2494   -5.7946   23.6762 C   0  0  0  0  0  0  0  0  0  0  0  0
  -24.5883  -11.6175   20.7078 C   0  0  0  0  0  0  0  0  0  0  0  0
  -25.2081  -13.7209   20.5441 C   0  0  0  0  0  0  0  0  0  0  0  0
  -30.7055  -21.8087   17.4770 C   0  0  0  0  0  0  0  0  0  0  0  0
  -22.8603  -13.4128   21.3449 C   0  0  0  0  0  0  0  0  0  0  0  0
  -25.0599  -29.5423   18.6550 C   0  0  0  0  0  0  0  0  0  0  0  0
  -26.7064  -30.6661   21.2140 C   0  0  0  0  0  0  0  0  0  0  0  0
  -29.1856  -30.1748   23.5072 C   0  0  0  0  0  0  0  0  0  0  0  0
  -30.6720  -14.8460   20.7038 C   0  0  0  0  0  0  0  0  0  0  0  0
  -21.3080  -32.5271   16.9024 C   0  0  0  0  0  0  0  0  0  0  0  0
  -24.9111  -27.5917   20.2453 C   0  0  0  0  0  0  0  0  0  0  0  0
  -27.6683  -28.6432   20.0530 C   0  0  0  0  0  0  0  0  0  0  0  0
  -29.9893  -22.8736   16.6761 C   0  0  0  0  0  0  0  0  0  0  0  0
  -22.6685  -32.7541   17.5565 C   0  0  0  0  0  0  0  0  0  0  0  0
  -29.5542  -12.5186   18.2522 C   0  0  0  0  0  0  0  0  0  0  0  0
  -23.7395  -31.9163   16.8653 C   0  0  0  0  0  0  0  0  0  0  0  0
  -28.1283  -12.1811   18.6915 C   0  0  0  0  0  0  0  0  0  0  0  0
  -30.4810  -12.7185   19.4492 C   0  0  0  0  0  0  0  0  0  0  0  0
  -28.5817  -13.3641   20.8809 C   0  0  0  0  0  0  0  0  0  0  0  0
  -28.4952  -21.9456   18.2987 C   0  0  0  0  0  0  0  0  0  0  0  0
  -23.4333  -30.4188   16.9886 C   0  0  1  0  0  0  0  0  0  0  0  0
  -25.1926  -29.0819   20.0791 C   0  0  1  0  0  0  0  0  0  0  0  0
  -27.5972  -13.2084   19.7093 C   0  0  2  0  0  0  0  0  0  0  0  0
  -28.7853  -23.2213   17.5324 C   0  0  1  0  0  0  0  0  0  1  0  0
  -28.1184  -18.3203   21.9773 C   0  0  0  0  0  0  0  0  0  0  0  0
  -30.3214  -31.2867   25.4491 C   0  0  0  0  0  0  0  0  0  0  0  0
  -28.2137  -32.4883   19.2859 C   0  0  0  0  0  0  0  0  0  0  0  0
  -29.9262  -32.8498   21.0762 C   0  0  0  0  0  0  0  0  0  0  0  0
  -27.5656  -33.5653   21.4480 C   0  0  0  0  0  0  0  0  0  0  0  0
  -28.3919  -28.0087   25.3610 C   0  0  0  0  0  0  0  0  0  0  0  0
  -30.7092  -16.9555   22.0106 C   0  0  0  0  0  0  0  0  0  0  0  0
  -28.1306  -31.1011   21.4619 C   0  0  1  0  0  0  0  0  0  0  0  0
  -29.2103  -30.3431   25.0156 C   0  0  2  0  0  0  0  0  0  0  0  0
  -28.4528  -32.4749   20.8090 C   0  0  0  0  0  0  0  0  0  0  0  0
  -25.8497  -11.5616   20.2722 N   0  0  0  0  0  0  0  0  0  0  0  0
  -26.1989  -12.8563   20.1823 N   0  0  0  0  0  0  0  0  0  0  0  0
  -29.7858  -21.2872   18.4054 N   0  0  0  0  0  0  0  0  0  0  0  0
  -26.5358  -29.4566   20.5257 N   0  0  0  0  0  0  0  0  0  0  0  0
  -29.9205  -13.7057   20.3751 N   0  0  0  0  0  0  0  0  0  0  0  0
  -25.3906  -15.0581   20.5129 N   0  0  0  0  0  0  0  0  0  0  0  0
  -21.8711  -12.4724   21.6633 N   0  0  0  0  0  0  0  0  0  0  0  0
  -23.7823  -29.9385   18.3085 N   0  0  0  0  0  0  0  0  0  0  0  0
  -28.3220  -31.0670   22.9078 N   0  0  0  0  0  0  0  0  0  0  0  0
  -30.0643  -15.7340   21.5830 N   0  0  0  0  0  0  0  0  0  0  0  0
  -29.4256  -29.0267   25.6803 N   0  3  0  0  0  0  0  0  0  0  0  0
  -31.8614  -21.4835   17.2467 O   0  0  0  0  0  0  0  0  0  0  0  0
  -22.5999  -14.6358   21.4458 O   0  0  0  0  0  0  0  0  0  0  0  0
  -26.0442  -29.5397   17.9250 O   0  0  0  0  0  0  0  0  0  0  0  0
  -25.7793  -31.3699   21.6226 O   0  0  0  0  0  0  0  0  0  0  0  0
  -29.8673  -29.3381   22.9191 O   0  0  0  0  0  0  0  0  0  0  0  0
  -31.7986  -15.0597   20.2433 O   0  0  0  0  0  0  0  0  0  0  0  0
  -21.7118   -6.9042   21.5896 O   0  0  0  0  0  0  0  0  0  0  0  0
  -29.1230  -24.2550   18.4515 O   0  0  0  0  0  0  0  0  0  1  0  0
  -18.7807   -6.5314   26.2451 F   0  0  0  0  0  0  0  0  0  0  0  0
  -32.6565  -17.8810   20.2140 F   0  0  0  0  0  0  0  0  0  0  0  0
  -22.2245   -4.9082   23.4324 F   0  0  0  0  0  0  0  0  0  0  0  0
  1  2  1  0  0  0  0
  1  5  2  0  0  0  0
  2  6  2  0  0  0  0
  3  8  2  0  0  0  0
  3 17  1  0  0  0  0
  4  9  1  0  0  0  0
  4 17  2  0  0  0  0
  5 19  1  0  0  0  0
  6 21  1  0  0  0  0
  7 10  2  0  0  0  0
  7 20  1  0  0  0  0
  8 26  1  0  0  0  0
  9 26  2  0  0  0  0
 10 27  1  0  0  0  0
 11 12  2  0  0  0  0
 11 28  1  0  0  0  0
 12 29  1  0  0  0  0
 13 22  1  0  0  0  0
 13 27  2  0  0  0  0
 14 23  2  0  0  0  0
 14 25  1  0  0  0  0
 15 25  2  0  0  0  0
 15 30  1  0  0  0  0
 16 29  2  0  0  0  0
 16 31  1  0  0  0  0
 17 32  1  0  0  0  0
 18 32  1  0  0  0  0
 18 33  2  0  0  0  0
 18 35  1  0  0  0  0
 19 21  2  0  0  0  0
 19 40  1  0  0  0  0
 20 22  2  0  0  0  0
 20 41  1  0  0  0  0
 21 51  1  0  0  0  0
 22 42  1  0  0  0  0
 23 24  1  0  0  0  0
 23 55  1  0  0  0  0
 24 30  2  0  0  0  0
 24 61  1  0  0  0  0
 25 67  1  0  0  0  0
 26 82  1  0  0  0  0
 27 83  1  0  0  0  0
 28 31  2  0  0  0  0
 28 82  1  0  0  0  0
 29 84  1  0  0  0  0
 30 85  1  0  0  0  0
 31 86  1  0  0  0  0
 32 65  2  0  0  0  0
 33 66  1  0  0  0  0
 33 70  1  0  0  0  0
 34 43  1  0  0  0  0
 34 67  1  0  0  0  0
 34 76  2  0  0  0  0
 35 71  1  0  0  0  0
 35 77  2  0  0  0  0
 36 52  1  0  0  0  0
 36 72  1  0  0  0  0
 36 78  2  0  0  0  0
 37 62  1  0  0  0  0
 37 68  1  0  0  0  0
 37 79  2  0  0  0  0
 38 63  1  0  0  0  0
 38 73  1  0  0  0  0
 38 80  2  0  0  0  0
 39 69  1  0  0  0  0
 39 74  1  0  0  0  0
 39 81  2  0  0  0  0
 40 44  1  0  0  0  0
 41 52  1  0  0  0  0
 42 68  1  0  0  0  0
 43 54  1  0  0  0  0
 44 46  1  0  0  0  0
 45 47  1  0  0  0  0
 45 48  1  0  0  0  0
 46 51  1  0  0  0  0
 47 53  1  0  0  0  0
 48 69  1  0  0  0  0
 49 53  1  0  0  0  0
 49 69  1  0  0  0  0
 50 54  1  0  0  0  0
 50 67  1  0  0  0  0
 51 72  1  0  0  0  0
 52 68  1  0  0  0  0
 53 66  1  0  0  0  0
 54 83  1  0  0  0  0
 56 63  1  0  0  0  0
 57 64  1  0  0  0  0
 58 64  1  0  0  0  0
 59 64  1  0  0  0  0
 60 75  1  0  0  0  0
 61 74  1  0  0  0  0
 62 64  1  0  0  0  0
 62 73  1  0  0  0  0
 63 75  1  0  0  0  0
 65 66  1  0  0  0  0
M  CHG  1  75   1
M  ISO  4  39 100  54 101  74 100  83 101
M  END
> <Batch ID>
0065

> <Smiles>
CNC(C)C(=O)NC(C(=O)N1Cc2cc([101O:1][101CH:1]3CC(=O)N(c4cc(C)c(C[100NH:0][100C:0](=O)N5CCCC(n6nc(-c7ccc(Oc8ccc(F)cc8F)cc7)c(C(N)=O)c6N)C5)c(F)c4)C3)ccc2CC1C(=O)NC1CCCc2ccccc21)C(C)(C)C

> <Shape>
0.302

> <Color>
0.217

> <Negative vol penalty>
0.000

$$$$

  -OEChem-04042323183D

 85 94  0     1  0  0  0  0  0999 V2000
  -41.3710  -29.0393   16.6971 C   0  0  0  0  0  0  0  0  0  0  0  0
  -41.3529  -27.7761   17.2795 C   0  0  0  0  0  0  0  0  0  0  0  0
  -23.0755   -9.8656   19.9457 C   0  0  0  0  0  0  0  0  0  0  0  0
  -23.8311   -9.8814   22.2404 C   0  0  0  0  0  0  0  0  0  0  0  0
  -40.5717  -30.0567   17.2167 C   0  0  0  0  0  0  0  0  0  0  0  0
  -40.5363  -27.5298   18.3827 C   0  0  0  0  0  0  0  0  0  0  0  0
  -36.6641  -22.3183   21.4096 C   0  0  0  0  0  0  0  0  0  0  0  0
  -32.6435  -17.5049   23.4479 C   0  0  0  0  0  0  0  0  0  0  0  0
  -30.4579  -18.3551   24.0290 C   0  0  0  0  0  0  0  0  0  0  0  0
  -32.0581  -16.6171   22.5453 C   0  0  0  0  0  0  0  0  0  0  0  0
  -29.8726  -17.4672   23.1264 C   0  0  0  0  0  0  0  0  0  0  0  0
  -22.3311   -8.7135   20.1987 C   0  0  0  0  0  0  0  0  0  0  0  0
  -23.0866   -8.7293   22.4935 C   0  0  0  0  0  0  0  0  0  0  0  0
  -36.4992  -21.6711   22.6335 C   0  0  0  0  0  0  0  0  0  0  0  0
  -19.3801   -7.9227   21.6475 C   0  0  0  0  0  0  0  0  0  0  0  0
  -18.0741   -7.8747   21.1600 C   0  0  0  0  0  0  0  0  0  0  0  0
  -35.1015  -23.4831   23.3965 C   0  0  0  0  0  0  0  0  0  0  0  0
  -18.6362   -5.9264   19.8463 C   0  0  0  0  0  0  0  0  0  0  0  0
  -23.8256  -10.4496   20.9665 C   0  0  0  0  0  0  0  0  0  0  0  0
  -24.1678  -12.9742   20.8373 C   0  0  0  0  0  0  0  0  0  0  0  0
  -39.7376  -29.8201   18.3208 C   0  0  0  0  0  0  0  0  0  0  0  0
  -36.0567  -23.5600   21.1736 C   0  0  0  0  0  0  0  0  0  0  0  0
  -39.7261  -28.5453   18.9184 C   0  0  0  0  0  0  0  0  0  0  0  0
  -35.2581  -24.1427   22.1680 C   0  0  0  0  0  0  0  0  0  0  0  0
  -31.8433  -18.3739   24.1898 C   0  0  0  0  0  0  0  0  0  0  0  0
  -30.6727  -16.5982   22.3845 C   0  0  0  0  0  0  0  0  0  0  0  0
  -22.3366   -8.1453   21.4726 C   0  0  0  0  0  0  0  0  0  0  0  0
  -35.7202  -22.2548   23.6282 C   0  0  0  0  0  0  0  0  0  0  0  0
  -20.3142   -6.9727   21.2344 C   0  0  0  0  0  0  0  0  0  0  0  0
  -17.7021   -6.8765   20.2594 C   0  0  0  0  0  0  0  0  0  0  0  0
  -19.9422   -5.9745   20.3339 C   0  0  0  0  0  0  0  0  0  0  0  0
  -24.5952  -11.6394   20.7056 C   0  0  0  0  0  0  0  0  0  0  0  0
  -25.2607  -13.7222   20.4732 C   0  0  0  0  0  0  0  0  0  0  0  0
  -33.8192  -19.4197   25.3867 C   0  0  0  0  0  0  0  0  0  0  0  0
  -22.8966  -13.4917   21.2519 C   0  0  0  0  0  0  0  0  0  0  0  0
  -37.1137  -26.4876   20.5288 C   0  0  0  0  0  0  0  0  0  0  0  0
  -33.9547  -27.1251   20.1593 C   0  0  0  0  0  0  0  0  0  0  0  0
  -30.7266  -26.2971   20.8945 C   0  0  0  0  0  0  0  0  0  0  0  0
  -30.7266  -14.7681   20.6541 C   0  0  0  0  0  0  0  0  0  0  0  0
  -38.9270  -30.9641   18.8765 C   0  0  0  0  0  0  0  0  0  0  0  0
  -36.2225  -24.2325   19.8385 C   0  0  0  0  0  0  0  0  0  0  0  0
  -34.5681  -25.4648   21.9572 C   0  0  0  0  0  0  0  0  0  0  0  0
  -37.8088  -30.5187   19.8154 C   0  0  0  0  0  0  0  0  0  0  0  0
  -29.6165  -12.3452   18.2932 C   0  0  0  0  0  0  0  0  0  0  0  0
  -38.3293  -29.4913   20.8157 C   0  0  0  0  0  0  0  0  0  0  0  0
  -28.1760  -12.0554   18.7211 C   0  0  0  0  0  0  0  0  0  0  0  0
  -32.5893  -20.7166   26.9634 C   0  0  0  0  0  0  0  0  0  0  0  0
  -30.5294  -12.5786   19.4956 C   0  0  0  0  0  0  0  0  0  0  0  0
  -31.6551  -20.2400   25.8678 C   0  0  0  0  0  0  0  0  0  0  0  0
  -28.6199  -13.3086   20.8705 C   0  0  0  0  0  0  0  0  0  0  0  0
  -38.8350  -28.2324   20.1008 C   0  0  1  0  0  0  0  0  0  0  0  0
  -35.9777  -25.7373   19.8929 C   0  0  1  0  0  0  0  0  0  0  0  0
  -27.6492  -13.1308   19.6915 C   0  0  2  0  0  0  0  0  0  0  0  0
  -33.9810  -20.6062   26.3357 C   0  0  1  0  0  0  0  0  0  0  0  0
  -35.0547  -20.3405   27.3881 C   0  0  0  0  0  0  0  0  0  0  0  0
  -28.3619  -27.0264   20.4775 C   0  0  0  0  0  0  0  0  0  0  0  0
  -34.3111  -29.4104   22.1494 C   0  0  0  0  0  0  0  0  0  0  0  0
  -31.8222  -29.4764   22.4129 C   0  0  0  0  0  0  0  0  0  0  0  0
  -32.8524  -29.9504   20.1910 C   0  0  0  0  0  0  0  0  0  0  0  0
  -30.0463  -23.7359   19.5768 C   0  0  0  0  0  0  0  0  0  0  0  0
  -34.3321  -21.8542   25.5173 C   0  0  0  0  0  0  0  0  0  1  0  0
  -32.8420  -27.5807   21.0722 C   0  0  1  0  0  0  0  0  0  0  0  0
  -29.5023  -26.1345   20.0118 C   0  0  2  0  0  0  0  0  0  0  0  0
  -32.9714  -29.0805   21.4614 C   0  0  0  0  0  0  0  0  0  0  0  0
  -25.8609  -11.5418   20.2901 N   0  0  0  0  0  0  0  0  0  0  0  0
  -26.2381  -12.8249   20.1575 N   0  0  0  0  0  0  0  0  0  0  0  0
  -32.4423  -19.2826   25.1141 N   0  0  0  0  0  0  0  0  0  0  0  0
  -34.7659  -26.0862   20.6373 N   0  0  0  0  0  0  0  0  0  0  0  0
  -29.9688  -13.6129   20.3679 N   0  0  0  0  0  0  0  0  0  0  0  0
  -25.4713  -15.0534   20.3954 N   0  0  0  0  0  0  0  0  0  0  0  0
  -21.8840  -12.5839   21.5907 N   0  0  0  0  0  0  0  0  0  0  0  0
  -30.0778  -15.6964   21.4677 N   0  0  0  0  0  0  0  0  0  0  0  0
  -37.7225  -27.4024   19.6911 N   0  0  0  0  0  0  0  0  0  0  0  0
  -31.5945  -27.2447   20.3945 N   0  0  0  0  0  0  0  0  0  0  0  0
  -29.0321  -24.7206   20.0336 N   0  3  0  0  0  0  0  0  0  0  0  0
  -34.7681  -18.7914   24.9382 O   0  0  0  0  0  0  0  0  0  0  0  0
  -22.6603  -14.7226   21.3040 O   0  0  0  0  0  0  0  0  0  0  0  0
  -37.4145  -26.2548   21.6937 O   0  0  0  0  0  0  0  0  0  0  0  0
  -34.0943  -27.6661   19.0595 O   0  0  0  0  0  0  0  0  0  0  0  0
  -30.8942  -25.6510   21.9265 O   0  0  0  0  0  0  0  0  0  0  0  0
  -31.8566  -14.9350   20.1880 O   0  0  0  0  0  0  0  0  0  0  0  0
  -21.6102   -7.0212   21.7199 O   0  0  0  0  0  0  0  0  0  0  0  0
  -35.5582  -21.6256   24.8239 O   0  0  0  0  0  0  0  0  0  1  0  0
  -16.4476   -6.8296   19.7925 F   0  0  0  0  0  0  0  0  0  0  0  0
  -20.8348   -5.0583   19.9343 F   0  0  0  0  0  0  0  0  0  0  0  0
  1  2  1  0  0  0  0
  1  5  2  0  0  0  0
  2  6  2  0  0  0  0
  3 12  2  0  0  0  0
  3 19  1  0  0  0  0
  4 13  1  0  0  0  0
  4 19  2  0  0  0  0
  5 21  1  0  0  0  0
  6 23  1  0  0  0  0
  7 14  2  0  0  0  0
  7 22  1  0  0  0  0
  8 10  2  0  0  0  0
  8 25  1  0  0  0  0
  9 11  1  0  0  0  0
  9 25  2  0  0  0  0
 10 26  1  0  0  0  0
 11 26  2  0  0  0  0
 12 27  1  0  0  0  0
 13 27  2  0  0  0  0
 14 28  1  0  0  0  0
 15 16  2  0  0  0  0
 15 29  1  0  0  0  0
 16 30  1  0  0  0  0
 17 24  1  0  0  0  0
 17 28  2  0  0  0  0
 18 30  2  0  0  0  0
 18 31  1  0  0  0  0
 19 32  1  0  0  0  0
 20 32  1  0  0  0  0
 20 33  2  0  0  0  0
 20 35  1  0  0  0  0
 21 23  2  0  0  0  0
 21 40  1  0  0  0  0
 22 24  2  0  0  0  0
 22 41  1  0  0  0  0
 23 51  1  0  0  0  0
 24 42  1  0  0  0  0
 25 67  1  0  0  0  0
 26 72  1  0  0  0  0
 27 82  1  0  0  0  0
 28 83  1  0  0  0  0
 29 31  2  0  0  0  0
 29 82  1  0  0  0  0
 30 84  1  0  0  0  0
 31 85  1  0  0  0  0
 32 65  2  0  0  0  0
 33 66  1  0  0  0  0
 33 70  1  0  0  0  0
 34 54  1  0  0  0  0
 34 67  1  0  0  0  0
 34 76  2  0  0  0  0
 35 71  1  0  0  0  0
 35 77  2  0  0  0  0
 36 52  1  0  0  0  0
 36 73  1  0  0  0  0
 36 78  2  0  0  0  0
 37 62  1  0  0  0  0
 37 68  1  0  0  0  0
 37 79  2  0  0  0  0
 38 63  1  0  0  0  0
 38 74  1  0  0  0  0
 38 80  2  0  0  0  0
 39 69  1  0  0  0  0
 39 72  1  0  0  0  0
 39 81  2  0  0  0  0
 40 43  1  0  0  0  0
 41 52  1  0  0  0  0
 42 68  1  0  0  0  0
 43 45  1  0  0  0  0
 44 46  1  0  0  0  0
 44 48  1  0  0  0  0
 45 51  1  0  0  0  0
 46 53  1  0  0  0  0
 47 49  1  0  0  0  0
 47 54  1  0  0  0  0
 48 69  1  0  0  0  0
 49 67  1  0  0  0  0
 50 53  1  0  0  0  0
 50 69  1  0  0  0  0
 51 73  1  0  0  0  0
 52 68  1  0  0  0  0
 53 66  1  0  0  0  0
 54 55  1  0  0  0  0
 54 61  1  0  0  0  0
 56 63  1  0  0  0  0
 57 64  1  0  0  0  0
 58 64  1  0  0  0  0
 59 64  1  0  0  0  0
 60 75  1  0  0  0  0
 61 83  1  0  0  0  0
 62 64  1  0  0  0  0
 62 74  1  0  0  0  0
 63 75  1  0  0  0  0
 65 66  1  0  0  0  0
M  CHG  1  75   1
M  ISO  4  39 100  61 101  72 100  83 101
M  END
> <Batch ID>
0065

> <Smiles>
CNC(C)C(=O)NC(C(=O)N1Cc2cc([101O:1][101CH2:1]C3(C)CCN(c4ccc([100NH:0][100C:0](=O)N5CCCC(n6nc(-c7ccc(Oc8ccc(F)cc8F)cc7)c(C(N)=O)c6N)C5)cc4)C3=O)ccc2CC1C(=O)NC1CCCc2ccccc21)C(C)(C)C

> <Shape>
0.182

> <Color>
0.191

> <Negative vol penalty>
0.000

$$$$

  -OEChem-04042323183D

 88 97  0     1  0  0  0  0  0999 V2000
  -29.7528  -21.1503   21.6979 C   0  0  0  0  0  0  0  0  0  0  0  0
  -28.4102  -21.1680   21.3337 C   0  0  0  0  0  0  0  0  0  0  0  0
  -30.2485  -26.6525   19.3717 C   0  0  0  0  0  0  0  0  0  0  0  0
  -29.4567  -25.4889   21.3353 C   0  0  0  0  0  0  0  0  0  0  0  0
  -30.4783  -19.9620   21.6241 C   0  0  0  0  0  0  0  0  0  0  0  0
  -27.7927  -19.9976   20.8944 C   0  0  0  0  0  0  0  0  0  0  0  0
  -23.2291  -19.3088   22.9787 C   0  0  0  0  0  0  0  0  0  0  0  0
  -31.5506  -26.2373   19.6506 C   0  0  0  0  0  0  0  0  0  0  0  0
  -30.7587  -25.0736   21.6143 C   0  0  0  0  0  0  0  0  0  0  0  0
  -22.1720  -20.0535   22.4574 C   0  0  0  0  0  0  0  0  0  0  0  0
  -35.0297  -25.1835   19.6463 C   0  0  0  0  0  0  0  0  0  0  0  0
  -35.7946  -24.6927   18.5882 C   0  0  0  0  0  0  0  0  0  0  0  0
  -21.4650  -18.1389   21.1717 C   0  0  0  0  0  0  0  0  0  0  0  0
  -19.6407  -29.1704   23.1349 C   0  0  0  0  0  0  0  0  0  0  0  0
  -19.8718  -27.1294   21.8630 C   0  0  0  0  0  0  0  0  0  0  0  0
  -34.1697  -22.9419   18.2256 C   0  0  0  0  0  0  0  0  0  0  0  0
  -29.2015  -26.2783   20.2140 C   0  0  0  0  0  0  0  0  0  0  0  0
  -26.8990  -26.0358   19.1429 C   0  0  0  0  0  0  0  0  0  0  0  0
  -29.8668  -18.7743   21.1929 C   0  0  0  0  0  0  0  0  0  0  0  0
  -23.4187  -17.9744   22.5914 C   0  0  0  0  0  0  0  0  0  0  0  0
  -28.5110  -18.7925   20.8135 C   0  0  0  0  0  0  0  0  0  0  0  0
  -22.5236  -17.3785   21.6914 C   0  0  0  0  0  0  0  0  0  0  0  0
  -18.4346  -28.7066   23.6601 C   0  0  0  0  0  0  0  0  0  0  0  0
  -17.9471  -27.4541   23.2867 C   0  0  0  0  0  0  0  0  0  0  0  0
  -18.6657  -26.6655   22.3882 C   0  0  0  0  0  0  0  0  0  0  0  0
  -20.3593  -28.3818   22.2363 C   0  0  0  0  0  0  0  0  0  0  0  0
  -31.8057  -25.4479   20.7719 C   0  0  0  0  0  0  0  0  0  0  0  0
  -21.2915  -19.4695   21.5516 C   0  0  0  0  0  0  0  0  0  0  0  0
  -33.8348  -24.5534   19.9941 C   0  0  0  0  0  0  0  0  0  0  0  0
  -35.3647  -23.5719   17.8778 C   0  0  0  0  0  0  0  0  0  0  0  0
  -33.4048  -23.4327   19.2837 C   0  0  0  0  0  0  0  0  0  0  0  0
  -27.8564  -26.7074   19.9267 C   0  0  0  0  0  0  0  0  0  0  0  0
  -25.7930  -26.8493   19.1801 C   0  0  0  0  0  0  0  0  0  0  0  0
  -16.8529  -23.7210   21.2063 C   0  0  0  0  0  0  0  0  0  0  0  0
  -16.9848  -25.2053   21.3651 C   0  0  0  0  0  0  0  0  0  0  0  0
  -27.0004  -24.7881   18.4439 C   0  0  0  0  0  0  0  0  0  0  0  0
  -25.7301  -16.3771   21.1049 C   0  0  0  0  0  0  0  0  0  0  0  0
  -23.8875  -13.8080   21.8307 C   0  0  0  0  0  0  0  0  0  0  0  0
  -20.7921  -12.5817   22.5804 C   0  0  0  0  0  0  0  0  0  0  0  0
  -22.2081  -30.0718   21.9670 C   0  0  0  0  0  0  0  0  0  0  0  0
  -30.7041  -17.5245   21.0847 C   0  0  0  0  0  0  0  0  0  0  0  0
  -24.5481  -17.1766   23.1833 C   0  0  0  0  0  0  0  0  0  0  0  0
  -22.6716  -15.9434   21.2590 C   0  0  0  0  0  0  0  0  0  0  0  0
  -29.8780  -16.2463   20.9655 C   0  0  0  0  0  0  0  0  0  0  0  0
  -25.2428  -31.5847   20.8816 C   0  0  0  0  0  0  0  0  0  0  0  0
  -28.7658  -16.4235   19.9367 C   0  0  0  0  0  0  0  0  0  0  0  0
  -26.1146  -30.3955   20.4719 C   0  0  0  0  0  0  0  0  0  0  0  0
  -24.3840  -31.2641   22.1036 C   0  0  0  0  0  0  0  0  0  0  0  0
  -18.9238  -24.1702   22.2193 C   0  0  0  0  0  0  0  0  0  0  0  0
  -24.4421  -28.8577   21.5789 C   0  0  0  0  0  0  0  0  0  0  0  0
  -27.7993  -17.5380   20.3556 C   0  0  1  0  0  0  0  0  0  0  0  0
  -17.9538  -23.0188   21.9410 C   0  0  2  0  0  0  0  0  0  0  0  0
  -24.9484  -15.9803   22.3253 C   0  0  1  0  0  0  0  0  0  0  0  0
  -25.2773  -29.1112   20.3132 C   0  0  2  0  0  0  0  0  0  0  0  0
  -17.6849  -29.5706   24.6210 C   0  0  0  0  0  0  0  0  0  0  0  0
  -16.6524  -26.9612   23.8535 C   0  0  0  0  0  0  0  0  0  0  0  0
  -19.5923  -10.4361   23.0845 C   0  0  0  0  0  0  0  0  0  0  0  0
  -23.9748  -13.0668   18.8722 C   0  0  0  0  0  0  0  0  0  0  0  0
  -22.0407  -11.5282   19.2721 C   0  0  0  0  0  0  0  0  0  0  0  0
  -24.2093  -11.1322   20.4396 C   0  0  0  0  0  0  0  0  0  0  0  0
  -19.9861  -13.5283   25.2661 C   0  0  0  0  0  0  0  0  0  0  0  0
  -18.5713  -21.8964   21.1264 C   0  0  0  0  0  0  0  0  0  0  0  0
  -19.7181  -21.2249   21.8664 C   0  0  0  0  0  0  0  0  0  1  0  0
  -22.7568  -13.0763   21.1486 C   0  0  1  0  0  0  0  0  0  0  0  0
  -20.3200  -11.6362   23.6701 C   0  0  2  0  0  0  0  0  0  0  0  0
  -23.2435  -12.2285   19.9396 C   0  0  0  0  0  0  0  0  0  0  0  0
  -27.3987  -27.8589   20.4251 N   0  0  0  0  0  0  0  0  0  0  0  0
  -26.1417  -27.9173   19.9534 N   0  0  0  0  0  0  0  0  0  0  0  0
  -18.1973  -25.4150   22.0019 N   0  0  0  0  0  0  0  0  0  0  0  0
  -23.7952  -15.2067   21.8608 N   0  0  0  0  0  0  0  0  0  0  0  0
  -23.6159  -30.0376   21.8791 N   0  0  0  0  0  0  0  0  0  0  0  0
  -24.5660  -26.7482   18.6263 N   0  0  0  0  0  0  0  0  0  0  0  0
  -28.2085  -24.0808   18.5111 N   0  0  0  0  0  0  0  0  0  0  0  0
  -21.5840  -28.8532   21.7019 N   0  0  0  0  0  0  0  0  0  0  0  0
  -26.8963  -17.0643   21.3825 N   0  0  0  0  0  0  0  0  0  0  0  0
  -22.0845  -12.3041   22.1879 N   0  0  0  0  0  0  0  0  0  0  0  0
  -19.3928  -12.3400   24.6006 N   0  3  0  0  0  0  0  0  0  0  0  0
  -15.9340  -23.2320   20.5805 O   0  0  0  0  0  0  0  0  0  0  0  0
  -16.1341  -25.9748   20.9695 O   0  0  0  0  0  0  0  0  0  0  0  0
  -26.0533  -24.3224   17.7660 O   0  0  0  0  0  0  0  0  0  0  0  0
  -25.3072  -16.0802   19.9937 O   0  0  0  0  0  0  0  0  0  0  0  0
  -24.8147  -13.1618   22.3251 O   0  0  0  0  0  0  0  0  0  0  0  0
  -20.0839  -13.4747   22.1205 O   0  0  0  0  0  0  0  0  0  0  0  0
  -21.5993  -31.1122   22.2295 O   0  0  0  0  0  0  0  0  0  0  0  0
  -33.0761  -25.0424   21.0444 O   0  0  0  0  0  0  0  0  0  0  0  0
  -20.2593  -20.1944   21.0408 O   0  0  0  0  0  0  0  0  0  1  0  0
  -36.0985  -23.1016   16.8608 F   0  0  0  0  0  0  0  0  0  0  0  0
  -32.2571  -22.8239   19.6125 F   0  0  0  0  0  0  0  0  0  0  0  0
  1  2  1  0  0  0  0
  1  5  2  0  0  0  0
  2  6  2  0  0  0  0
  3  8  2  0  0  0  0
  3 17  1  0  0  0  0
  4  9  1  0  0  0  0
  4 17  2  0  0  0  0
  5 19  1  0  0  0  0
  6 21  1  0  0  0  0
  7 10  2  0  0  0  0
  7 20  1  0  0  0  0
  8 27  1  0  0  0  0
  9 27  2  0  0  0  0
 10 28  1  0  0  0  0
 11 12  2  0  0  0  0
 11 29  1  0  0  0  0
 12 30  1  0  0  0  0
 13 22  1  0  0  0  0
 13 28  2  0  0  0  0
 14 23  2  0  0  0  0
 14 26  1  0  0  0  0
 15 25  1  0  0  0  0
 15 26  2  0  0  0  0
 16 30  2  0  0  0  0
 16 31  1  0  0  0  0
 17 32  1  0  0  0  0
 18 32  1  0  0  0  0
 18 33  2  0  0  0  0
 18 36  1  0  0  0  0
 19 21  2  0  0  0  0
 19 41  1  0  0  0  0
 20 22  2  0  0  0  0
 20 42  1  0  0  0  0
 21 51  1  0  0  0  0
 22 43  1  0  0  0  0
 23 24  1  0  0  0  0
 23 55  1  0  0  0  0
 24 25  2  0  0  0  0
 24 56  1  0  0  0  0
 25 69  1  0  0  0  0
 26 74  1  0  0  0  0
 27 85  1  0  0  0  0
 28 86  1  0  0  0  0
 29 31  2  0  0  0  0
 29 85  1  0  0  0  0
 30 87  1  0  0  0  0
 31 88  1  0  0  0  0
 32 67  2  0  0  0  0
 33 68  1  0  0  0  0
 33 72  1  0  0  0  0
 34 35  1  0  0  0  0
 34 52  1  0  0  0  0
 34 78  2  0  0  0  0
 35 69  1  0  0  0  0
 35 79  2  0  0  0  0
 36 73  1  0  0  0  0
 36 80  2  0  0  0  0
 37 53  1  0  0  0  0
 37 75  1  0  0  0  0
 37 81  2  0  0  0  0
 38 64  1  0  0  0  0
 38 70  1  0  0  0  0
 38 82  2  0  0  0  0
 39 65  1  0  0  0  0
 39 76  1  0  0  0  0
 39 83  2  0  0  0  0
 40 71  1  0  0  0  0
 40 74  1  0  0  0  0
 40 84  2  0  0  0  0
 41 44  1  0  0  0  0
 42 53  1  0  0  0  0
 43 70  1  0  0  0  0
 44 46  1  0  0  0  0
 45 47  1  0  0  0  0
 45 48  1  0  0  0  0
 46 51  1  0  0  0  0
 47 54  1  0  0  0  0
 48 71  1  0  0  0  0
 49 52  1  0  0  0  0
 49 69  1  0  0  0  0
 50 54  1  0  0  0  0
 50 71  1  0  0  0  0
 51 75  1  0  0  0  0
 52 62  1  0  0  0  0
 53 70  1  0  0  0  0
 54 68  1  0  0  0  0
 57 65  1  0  0  0  0
 58 66  1  0  0  0  0
 59 66  1  0  0  0  0
 60 66  1  0  0  0  0
 61 77  1  0  0  0  0
 62 63  1  0  0  0  0
 63 86  1  0  0  0  0
 64 66  1  0  0  0  0
 64 76  1  0  0  0  0
 65 77  1  0  0  0  0
 67 68  1  0  0  0  0
M  CHG  1  77   1
M  ISO  4  40 100  63 101  74 100  86 101
M  END
> <Batch ID>
0065

> <Smiles>
CNC(C)C(=O)NC(C(=O)N1Cc2cc([101O:1][101CH2:1]CC3CN(c4cc([100NH:0][100C:0](=O)N5CCCC(n6nc(-c7ccc(Oc8ccc(F)cc8F)cc7)c(C(N)=O)c6N)C5)cc(C)c4C)C(=O)C3=O)ccc2CC1C(=O)NC1CCCc2ccccc21)C(C)(C)C

> <Shape>
0.247

> <Color>
0.068

> <Negative vol penalty>
0.000

$$$$

  -OEChem-04042323183D

 92101  0     1  0  0  0  0  0999 V2000
  -26.9996  -35.0984   23.5653 C   0  0  0  0  0  0  0  0  0  0  0  0
  -27.3509  -33.7635   23.3921 C   0  0  0  0  0  0  0  0  0  0  0  0
  -31.9633  -21.3569   17.6528 C   0  0  0  0  0  0  0  0  0  0  0  0
  -32.4824  -21.4204   16.3597 C   0  0  0  0  0  0  0  0  0  0  0  0
  -26.5790  -15.3463   21.3421 C   0  0  0  0  0  0  0  0  0  0  0  0
  -26.6150  -14.9172   18.9647 C   0  0  0  0  0  0  0  0  0  0  0  0
  -26.9968  -26.2033   14.3992 C   0  0  0  0  0  0  0  0  0  0  0  0
  -25.6767  -35.4393   23.8439 C   0  0  0  0  0  0  0  0  0  0  0  0
  -26.3797  -32.7686   23.4986 C   0  0  0  0  0  0  0  0  0  0  0  0
  -26.7135  -29.3242   19.8013 C   0  0  0  0  0  0  0  0  0  0  0  0
  -31.3402  -22.4737   18.2098 C   0  0  0  0  0  0  0  0  0  0  0  0
  -26.3606  -25.2244   15.1625 C   0  0  0  0  0  0  0  0  0  0  0  0
  -26.3213  -13.9966   21.5818 C   0  0  0  0  0  0  0  0  0  0  0  0
  -26.3573  -13.5675   19.2045 C   0  0  0  0  0  0  0  0  0  0  0  0
  -27.7087  -28.3553   19.9217 C   0  0  0  0  0  0  0  0  0  0  0  0
  -23.6877  -11.6380   19.9668 C   0  0  0  0  0  0  0  0  0  0  0  0
  -22.7215  -11.0127   19.1788 C   0  0  0  0  0  0  0  0  0  0  0  0
  -32.3786  -22.6006   15.6236 C   0  0  0  0  0  0  0  0  0  0  0  0
  -26.0706  -26.7822   20.7347 C   0  0  0  0  0  0  0  0  0  0  0  0
  -28.3040  -23.8034   14.9598 C   0  0  0  0  0  0  0  0  0  0  0  0
  -24.3824   -9.4489   18.3832 C   0  0  0  0  0  0  0  0  0  0  0  0
  -26.7258  -15.8067   20.0335 C   0  0  0  0  0  0  0  0  0  0  0  0
  -28.2866  -25.9823   13.9162 C   0  0  0  0  0  0  0  0  0  0  0  0
  -28.2510  -17.8228   19.6918 C   0  0  0  0  0  0  0  0  0  0  0  0
  -24.6869  -34.4489   23.9443 C   0  0  0  0  0  0  0  0  0  0  0  0
  -25.3890  -29.0321   20.1577 C   0  0  0  0  0  0  0  0  0  0  0  0
  -25.0425  -33.0965   23.7801 C   0  0  0  0  0  0  0  0  0  0  0  0
  -25.0599  -27.7483   20.6155 C   0  0  0  0  0  0  0  0  0  0  0  0
  -27.0142  -24.0245   15.4428 C   0  0  0  0  0  0  0  0  0  0  0  0
  -31.2363  -23.6540   17.4737 C   0  0  0  0  0  0  0  0  0  0  0  0
  -26.2105  -13.1072   20.5130 C   0  0  0  0  0  0  0  0  0  0  0  0
  -27.3880  -27.0850   20.3911 C   0  0  0  0  0  0  0  0  0  0  0  0
  -25.0013  -11.1687   19.9631 C   0  0  0  0  0  0  0  0  0  0  0  0
  -23.0688   -9.9182   18.3870 C   0  0  0  0  0  0  0  0  0  0  0  0
  -25.3486  -10.0742   19.1713 C   0  0  0  0  0  0  0  0  0  0  0  0
  -31.7555  -23.7175   16.1806 C   0  0  0  0  0  0  0  0  0  0  0  0
  -28.9402  -24.7823   14.1965 C   0  0  0  0  0  0  0  0  0  0  0  0
  -26.9915  -17.2009   19.7852 C   0  0  0  0  0  0  0  0  0  0  0  0
  -27.9644  -19.1438   19.4481 C   0  0  0  0  0  0  0  0  0  0  0  0
  -28.9036  -27.0399   13.1236 C   0  0  0  0  0  0  0  0  0  0  0  0
  -29.5627  -17.2570   19.8142 C   0  0  0  0  0  0  0  0  0  0  0  0
  -23.3486  -30.1547   22.3210 C   0  0  0  0  0  0  0  0  0  0  0  0
  -21.2648  -28.1814   20.8091 C   0  0  0  0  0  0  0  0  0  0  0  0
  -30.0399  -24.8350   19.3466 C   0  0  0  0  0  0  0  0  0  0  0  0
  -20.7813  -25.4130   18.8727 C   0  0  0  0  0  0  0  0  0  0  0  0
  -25.0893  -23.0913   16.7734 C   0  0  0  0  0  0  0  0  0  0  0  0
  -23.2792  -34.8622   24.2938 C   0  0  0  0  0  0  0  0  0  0  0  0
  -24.3222  -30.0802   19.9967 C   0  0  0  0  0  0  0  0  0  0  0  0
  -23.6494  -27.3780   20.9920 C   0  0  0  0  0  0  0  0  0  0  0  0
  -22.2402  -33.7780   24.0195 C   0  0  0  0  0  0  0  0  0  0  0  0
  -23.5744  -21.6549   19.6577 C   0  0  0  0  0  0  0  0  0  0  0  0
  -22.7182  -32.4325   24.5562 C   0  0  0  0  0  0  0  0  0  0  0  0
  -24.4320  -20.4193   19.9403 C   0  0  0  0  0  0  0  0  0  0  0  0
  -23.4065  -21.8981   18.1588 C   0  0  0  0  0  0  0  0  0  0  0  0
  -25.5171  -20.7218   17.6780 C   0  0  0  0  0  0  0  0  0  0  0  0
  -24.0129  -31.9906   23.8634 C   0  0  1  0  0  0  0  0  0  0  0  0
  -23.1005  -29.8291   20.8753 C   0  0  1  0  0  0  0  0  0  0  0  0
  -25.7683  -20.4736   19.1743 C   0  0  2  0  0  0  0  0  0  0  0  0
  -18.9643  -24.0291   17.8331 C   0  0  0  0  0  0  0  0  0  0  0  0
  -20.6436  -26.9550   23.5331 C   0  0  0  0  0  0  0  0  0  0  0  0
  -19.5947  -25.0175   22.3439 C   0  0  0  0  0  0  0  0  0  0  0  0
  -18.6475  -27.3087   22.0686 C   0  0  0  0  0  0  0  0  0  0  0  0
  -21.7837  -25.9411   16.1386 C   0  0  0  0  0  0  0  0  0  0  0  0
  -29.4532  -26.2115   19.5988 C   0  0  0  0  0  0  0  0  0  1  0  0
  -20.8513  -26.7383   20.9687 C   0  0  1  0  0  0  0  0  0  0  0  0
  -19.9322  -25.1852   17.6351 C   0  0  2  0  0  0  0  0  0  0  0  0
  -19.9613  -26.5121   22.2234 C   0  0  0  0  0  0  0  0  0  0  0  0
  -25.9800  -18.0565   19.6150 N   0  0  0  0  0  0  0  0  0  0  0  0
  -26.6037  -19.2295   19.4122 N   0  0  0  0  0  0  0  0  0  0  0  0
  -22.6429  -28.4391   20.8231 N   0  0  0  0  0  0  0  0  0  0  0  0
  -24.7138  -21.9416   17.5000 N   0  0  0  0  0  0  0  0  0  0  0  0
  -28.7461  -20.2288   19.2634 N   0  0  0  0  0  0  0  0  0  0  0  0
  -29.6449  -28.0015   13.8000 N   0  0  0  0  0  0  0  0  0  0  0  0
  -29.6768  -15.8827   20.0647 N   0  0  0  0  0  0  0  0  0  0  0  0
  -30.5969  -24.7644   18.0743 N   0  0  0  0  0  0  0  0  0  0  0  0
  -26.3671  -23.0306   16.2183 N   0  0  0  0  0  0  0  0  0  0  0  0
  -23.7268  -31.4646   22.5458 N   0  0  0  0  0  0  0  0  0  0  0  0
  -20.2201  -26.3530   19.7111 N   0  0  0  0  0  0  0  0  0  0  0  0
  -20.7984  -24.8773   16.4622 N   0  3  0  0  0  0  0  0  0  0  0  0
  -28.7584  -27.0897   11.8918 O   0  0  0  0  0  0  0  0  0  0  0  0
  -30.6024  -17.9525   19.7209 O   0  0  0  0  0  0  0  0  0  0  0  0
  -23.2058  -29.2825   23.1699 O   0  0  0  0  0  0  0  0  0  0  0  0
  -20.3972  -29.0471   20.6696 O   0  0  0  0  0  0  0  0  0  0  0  0
  -29.9933  -23.9513   20.1959 O   0  0  0  0  0  0  0  0  0  0  0  0
  -21.8349  -24.8142   19.0772 O   0  0  0  0  0  0  0  0  0  0  0  0
  -24.3437  -24.0692   16.6753 O   0  0  0  0  0  0  0  0  0  0  0  0
  -25.9592  -11.7901   20.7466 O   0  0  0  0  0  0  0  0  0  0  0  0
  -28.3576  -26.1376   20.5102 O   0  0  0  0  0  0  0  0  0  1  0  0
  -22.1405   -9.3169   17.6314 F   0  0  0  0  0  0  0  0  0  0  0  0
  -26.6087   -9.6181   19.1644 F   0  0  0  0  0  0  0  0  0  0  0  0
  -31.6545  -25.2057   15.1908 S   0  0  0  0  0  0  0  0  0  0  0  0
  -30.5747  -24.4512   13.6091 S   0  0  0  0  0  0  0  0  0  0  0  0
  1  2  1  0  0  0  0
  1  8  2  0  0  0  0
  2  9  2  0  0  0  0
  3  4  1  0  0  0  0
  3 11  2  0  0  0  0
  4 18  2  0  0  0  0
  5 13  2  0  0  0  0
  5 22  1  0  0  0  0
  6 14  1  0  0  0  0
  6 22  2  0  0  0  0
  7 12  2  0  0  0  0
  7 23  1  0  0  0  0
  8 25  1  0  0  0  0
  9 27  1  0  0  0  0
 10 15  2  0  0  0  0
 10 26  1  0  0  0  0
 11 30  1  0  0  0  0
 12 29  1  0  0  0  0
 13 31  1  0  0  0  0
 14 31  2  0  0  0  0
 15 32  1  0  0  0  0
 16 17  2  0  0  0  0
 16 33  1  0  0  0  0
 17 34  1  0  0  0  0
 18 36  1  0  0  0  0
 19 28  1  0  0  0  0
 19 32  2  0  0  0  0
 20 29  2  0  0  0  0
 20 37  1  0  0  0  0
 21 34  2  0  0  0  0
 21 35  1  0  0  0  0
 22 38  1  0  0  0  0
 23 37  2  0  0  0  0
 23 40  1  0  0  0  0
 24 38  1  0  0  0  0
 24 39  2  0  0  0  0
 24 41  1  0  0  0  0
 25 27  2  0  0  0  0
 25 47  1  0  0  0  0
 26 28  2  0  0  0  0
 26 48  1  0  0  0  0
 27 56  1  0  0  0  0
 28 49  1  0  0  0  0
 29 76  1  0  0  0  0
 30 36  2  0  0  0  0
 30 75  1  0  0  0  0
 31 87  1  0  0  0  0
 32 88  1  0  0  0  0
 33 35  2  0  0  0  0
 33 87  1  0  0  0  0
 34 89  1  0  0  0  0
 35 90  1  0  0  0  0
 36 91  1  0  0  0  0
 37 92  1  0  0  0  0
 38 68  2  0  0  0  0
 39 69  1  0  0  0  0
 39 72  1  0  0  0  0
 40 73  1  0  0  0  0
 40 80  2  0  0  0  0
 41 74  1  0  0  0  0
 41 81  2  0  0  0  0
 42 57  1  0  0  0  0
 42 77  1  0  0  0  0
 42 82  2  0  0  0  0
 43 65  1  0  0  0  0
 43 70  1  0  0  0  0
 43 83  2  0  0  0  0
 44 64  1  0  0  0  0
 44 75  1  0  0  0  0
 44 84  2  0  0  0  0
 45 66  1  0  0  0  0
 45 78  1  0  0  0  0
 45 85  2  0  0  0  0
 46 71  1  0  0  0  0
 46 76  1  0  0  0  0
 46 86  2  0  0  0  0
 47 50  1  0  0  0  0
 48 57  1  0  0  0  0
 49 70  1  0  0  0  0
 50 52  1  0  0  0  0
 51 53  1  0  0  0  0
 51 54  1  0  0  0  0
 52 56  1  0  0  0  0
 53 58  1  0  0  0  0
 54 71  1  0  0  0  0
 55 58  1  0  0  0  0
 55 71  1  0  0  0  0
 56 77  1  0  0  0  0
 57 70  1  0  0  0  0
 58 69  1  0  0  0  0
 59 66  1  0  0  0  0
 60 67  1  0  0  0  0
 61 67  1  0  0  0  0
 62 67  1  0  0  0  0
 63 79  1  0  0  0  0
 64 88  1  0  0  0  0
 65 67  1  0  0  0  0
 65 78  1  0  0  0  0
 66 79  1  0  0  0  0
 68 69  1  0  0  0  0
 91 92  1  0  0  0  0
M  CHG  1  79   1
M  ISO  4  46 100  64 101  76 100  88 101
M  END
> <Batch ID>
0065

> <Smiles>
CNC(C)C(=O)NC(C(=O)N1Cc2cc([101O:1][101CH2:1]C(=O)Nc3ccccc3SSc3cc([100NH:0][100C:0](=O)N4CCCC(n5nc(-c6ccc(Oc7ccc(F)cc7F)cc6)c(C(N)=O)c5N)C4)ccc3C(N)=O)ccc2CC1C(=O)NC1CCCc2ccccc21)C(C)(C)C

> <Shape>
0.247

> <Color>
0.083

> <Negative vol penalty>
0.000

$$$$

  -OEChem-04042323183D

 89 98  0     1  0  0  0  0  0999 V2000
  -26.9540  -33.4281   27.2769 C   0  0  0  0  0  0  0  0  0  0  0  0
  -27.3639  -32.4253   26.4042 C   0  0  0  0  0  0  0  0  0  0  0  0
  -24.6767  -13.4976   19.7108 C   0  0  0  0  0  0  0  0  0  0  0  0
  -25.7898  -13.9910   21.7976 C   0  0  0  0  0  0  0  0  0  0  0  0
  -25.6054  -33.5551   27.6070 C   0  0  0  0  0  0  0  0  0  0  0  0
  -26.4254  -31.5481   25.8618 C   0  0  0  0  0  0  0  0  0  0  0  0
  -27.1027  -30.8040   20.8986 C   0  0  0  0  0  0  0  0  0  0  0  0
  -24.7272  -12.1353   20.0060 C   0  0  0  0  0  0  0  0  0  0  0  0
  -25.8402  -12.6287   22.0929 C   0  0  0  0  0  0  0  0  0  0  0  0
  -28.1242  -29.9345   20.5187 C   0  0  0  0  0  0  0  0  0  0  0  0
  -23.0353   -9.9425   21.9457 C   0  0  0  0  0  0  0  0  0  0  0  0
  -21.8813   -9.1893   21.7300 C   0  0  0  0  0  0  0  0  0  0  0  0
  -26.5002  -28.1825   20.1838 C   0  0  0  0  0  0  0  0  0  0  0  0
  -29.0677  -24.0810   21.0282 C   0  0  0  0  0  0  0  0  0  0  0  0
  -26.9512  -23.6547   22.1124 C   0  0  0  0  0  0  0  0  0  0  0  0
  -23.0827   -7.7976   20.1625 C   0  0  0  0  0  0  0  0  0  0  0  0
  -25.2081  -14.4255   20.6066 C   0  0  0  0  0  0  0  0  0  0  0  0
  -24.1313  -16.7379   20.6351 C   0  0  0  0  0  0  0  0  0  0  0  0
  -24.6486  -32.6851   27.0609 C   0  0  0  0  0  0  0  0  0  0  0  0
  -25.7713  -30.3654   20.9346 C   0  0  0  0  0  0  0  0  0  0  0  0
  -25.0628  -31.6628   26.1859 C   0  0  0  0  0  0  0  0  0  0  0  0
  -25.4633  -29.0491   20.5621 C   0  0  0  0  0  0  0  0  0  0  0  0
  -28.3251  -25.5075   22.8310 C   0  0  0  0  0  0  0  0  0  0  0  0
  -29.2781  -25.1741   21.8686 C   0  0  0  0  0  0  0  0  0  0  0  0
  -27.9042  -23.3213   21.1500 C   0  0  0  0  0  0  0  0  0  0  0  0
  -25.3089  -11.7008   21.1971 C   0  0  0  0  0  0  0  0  0  0  0  0
  -27.8234  -28.6227   20.1640 C   0  0  0  0  0  0  0  0  0  0  0  0
  -24.2130   -9.6233   21.2698 C   0  0  0  0  0  0  0  0  0  0  0  0
  -21.9050   -8.1168   20.8384 C   0  0  0  0  0  0  0  0  0  0  0  0
  -24.2367   -8.5508   20.3782 C   0  0  0  0  0  0  0  0  0  0  0  0
  -27.1616  -24.7478   22.9529 C   0  0  0  0  0  0  0  0  0  0  0  0
  -25.1568  -15.8328   20.3019 C   0  0  0  0  0  0  0  0  0  0  0  0
  -24.5557  -17.9406   20.1253 C   0  0  0  0  0  0  0  0  0  0  0  0
  -31.4639  -26.1393   22.7169 C   0  0  0  0  0  0  0  0  0  0  0  0
  -22.9047  -16.5117   21.3423 C   0  0  0  0  0  0  0  0  0  0  0  0
  -23.5671  -30.0706   23.2058 C   0  0  0  0  0  0  0  0  0  0  0  0
  -21.6500  -29.3075   20.7029 C   0  0  0  0  0  0  0  0  0  0  0  0
  -21.3835  -28.1252   17.5127 C   0  0  0  0  0  0  0  0  0  0  0  0
  -28.5349  -21.7446   19.2892 C   0  0  0  0  0  0  0  0  0  0  0  0
  -23.2085  -32.8318   27.4842 C   0  0  0  0  0  0  0  0  0  0  0  0
  -24.6778  -31.3233   21.3209 C   0  0  0  0  0  0  0  0  0  0  0  0
  -24.0477  -28.5349   20.5644 C   0  0  0  0  0  0  0  0  0  0  0  0
  -32.5539  -26.9920   22.1117 C   0  0  0  0  0  0  0  0  0  0  0  0
  -22.2281  -32.0970   26.5737 C   0  0  0  0  0  0  0  0  0  0  0  0
  -32.3339  -26.8392   20.6186 C   0  0  0  0  0  0  0  0  0  0  0  0
  -28.3840  -19.0249   16.9963 C   0  0  0  0  0  0  0  0  0  0  0  0
  -22.7229  -30.6828   26.2871 C   0  0  0  0  0  0  0  0  0  0  0  0
  -27.4466  -18.0264   17.6793 C   0  0  0  0  0  0  0  0  0  0  0  0
  -29.2733  -19.7493   18.0052 C   0  0  0  0  0  0  0  0  0  0  0  0
  -27.6200  -19.3949   19.7969 C   0  0  0  0  0  0  0  0  0  0  0  0
  -24.0715  -30.7075   25.5576 C   0  0  1  0  0  0  0  0  0  0  0  0
  -23.4167  -30.6222   21.8163 C   0  0  1  0  0  0  0  0  0  0  0  0
  -26.6590  -18.6875   18.8275 C   0  0  2  0  0  0  0  0  0  0  0  0
  -30.8273  -26.6419   20.4931 C   0  0  2  0  0  0  0  0  0  0  0  0
  -28.5553  -26.6815   23.7309 C   0  0  0  0  0  0  0  0  0  0  0  0
  -19.6830  -27.5793   15.7498 C   0  0  0  0  0  0  0  0  0  0  0  0
  -20.9153  -26.7554   22.2053 C   0  0  0  0  0  0  0  0  0  0  0  0
  -20.0102  -25.8359   20.0597 C   0  0  0  0  0  0  0  0  0  0  0  0
  -18.9970  -27.8826   21.0633 C   0  0  0  0  0  0  0  0  0  0  0  0
  -22.5248  -30.1065   15.6337 C   0  0  0  0  0  0  0  0  0  0  0  0
  -26.4273  -24.2051   25.5835 C   0  0  0  0  0  0  0  0  0  0  0  0
  -30.1052  -27.9858   20.3723 C   0  0  0  0  0  0  0  0  0  1  0  0
  -21.2812  -28.0292   19.9895 C   0  0  1  0  0  0  0  0  0  0  0  0
  -20.6176  -28.6413   16.3078 C   0  0  2  0  0  0  0  0  0  0  0  0
  -20.3280  -27.1346   20.8311 C   0  0  0  0  0  0  0  0  0  0  0  0
  -26.1573  -16.4110   19.6321 N   0  0  0  0  0  0  0  0  0  0  0  0
  -25.7625  -17.6923   19.5402 N   0  0  0  0  0  0  0  0  0  0  0  0
  -30.4798  -25.9397   21.7254 N   0  0  0  0  0  0  0  0  0  0  0  0
  -23.0144  -29.5079   20.9558 N   0  0  0  0  0  0  0  0  0  0  0  0
  -28.4583  -20.3543   19.0610 N   0  0  0  0  0  0  0  0  0  0  0  0
  -24.0106  -19.1756   20.1248 N   0  0  0  0  0  0  0  0  0  0  0  0
  -22.6249  -15.2159   21.7971 N   0  0  0  0  0  0  0  0  0  0  0  0
  -27.6904  -22.2109   20.2962 N   0  0  0  0  0  0  0  0  0  0  0  0
  -23.8830  -31.0214   24.1575 N   0  0  0  0  0  0  0  0  0  0  0  0
  -20.7397  -28.4262   18.6943 N   0  0  0  0  0  0  0  0  0  0  0  0
  -21.5621  -29.0496   15.2298 N   0  3  0  0  0  0  0  0  0  0  0  0
  -31.5024  -25.7630   23.8794 O   0  0  0  0  0  0  0  0  0  0  0  0
  -22.0737  -17.4281   21.5499 O   0  0  0  0  0  0  0  0  0  0  0  0
  -23.4069  -28.8714   23.4004 O   0  0  0  0  0  0  0  0  0  0  0  0
  -20.7608  -30.1025   21.0177 O   0  0  0  0  0  0  0  0  0  0  0  0
  -22.4446  -27.5127   17.4151 O   0  0  0  0  0  0  0  0  0  0  0  0
  -29.2737  -22.4722   18.6209 O   0  0  0  0  0  0  0  0  0  0  0  0
  -26.0649  -26.5489   24.4655 O   0  0  0  0  0  0  0  0  0  0  0  0
  -24.6652  -24.5980   23.7036 O   0  0  0  0  0  0  0  0  0  0  0  0
  -25.3581  -10.3716   21.4856 O   0  0  0  0  0  0  0  0  0  0  0  0
  -28.8186  -27.7718   19.7935 O   0  0  0  0  0  0  0  0  0  1  0  0
  -20.7971   -7.3926   20.6326 F   0  0  0  0  0  0  0  0  0  0  0  0
  -25.3654   -8.2387   19.7268 F   0  0  0  0  0  0  0  0  0  0  0  0
  -25.9424  -25.1346   24.1483 S   0  0  0  0  0  0  0  0  0  0  0  0
  1  2  1  0  0  0  0
  1  5  2  0  0  0  0
  2  6  2  0  0  0  0
  3  8  2  0  0  0  0
  3 17  1  0  0  0  0
  4  9  1  0  0  0  0
  4 17  2  0  0  0  0
  5 19  1  0  0  0  0
  6 21  1  0  0  0  0
  7 10  2  0  0  0  0
  7 20  1  0  0  0  0
  8 26  1  0  0  0  0
  9 26  2  0  0  0  0
 10 27  1  0  0  0  0
 11 12  2  0  0  0  0
 11 28  1  0  0  0  0
 12 29  1  0  0  0  0
 13 22  1  0  0  0  0
 13 27  2  0  0  0  0
 14 24  1  0  0  0  0
 14 25  2  0  0  0  0
 15 25  1  0  0  0  0
 15 31  2  0  0  0  0
 16 29  2  0  0  0  0
 16 30  1  0  0  0  0
 17 32  1  0  0  0  0
 18 32  1  0  0  0  0
 18 33  2  0  0  0  0
 18 35  1  0  0  0  0
 19 21  2  0  0  0  0
 19 40  1  0  0  0  0
 20 22  2  0  0  0  0
 20 41  1  0  0  0  0
 21 51  1  0  0  0  0
 22 42  1  0  0  0  0
 23 24  2  0  0  0  0
 23 31  1  0  0  0  0
 23 55  1  0  0  0  0
 24 68  1  0  0  0  0
 25 73  1  0  0  0  0
 26 85  1  0  0  0  0
 27 86  1  0  0  0  0
 28 30  2  0  0  0  0
 28 85  1  0  0  0  0
 29 87  1  0  0  0  0
 30 88  1  0  0  0  0
 31 89  1  0  0  0  0
 32 66  2  0  0  0  0
 33 67  1  0  0  0  0
 33 71  1  0  0  0  0
 34 43  1  0  0  0  0
 34 68  1  0  0  0  0
 34 77  2  0  0  0  0
 35 72  1  0  0  0  0
 35 78  2  0  0  0  0
 36 52  1  0  0  0  0
 36 74  1  0  0  0  0
 36 79  2  0  0  0  0
 37 63  1  0  0  0  0
 37 69  1  0  0  0  0
 37 80  2  0  0  0  0
 38 64  1  0  0  0  0
 38 75  1  0  0  0  0
 38 81  2  0  0  0  0
 39 70  1  0  0  0  0
 39 73  1  0  0  0  0
 39 82  2  0  0  0  0
 40 44  1  0  0  0  0
 41 52  1  0  0  0  0
 42 69  1  0  0  0  0
 43 45  1  0  0  0  0
 44 47  1  0  0  0  0
 45 54  1  0  0  0  0
 46 48  1  0  0  0  0
 46 49  1  0  0  0  0
 47 51  1  0  0  0  0
 48 53  1  0  0  0  0
 49 70  1  0  0  0  0
 50 53  1  0  0  0  0
 50 70  1  0  0  0  0
 51 74  1  0  0  0  0
 52 69  1  0  0  0  0
 53 67  1  0  0  0  0
 54 62  1  0  0  0  0
 54 68  1  0  0  0  0
 56 64  1  0  0  0  0
 57 65  1  0  0  0  0
 58 65  1  0  0  0  0
 59 65  1  0  0  0  0
 60 76  1  0  0  0  0
 61 89  1  0  0  0  0
 62 86  1  0  0  0  0
 63 65  1  0  0  0  0
 63 75  1  0  0  0  0
 64 76  1  0  0  0  0
 66 67  1  0  0  0  0
 83 89  2  0  0  0  0
 84 89  2  0  0  0  0
M  CHG  1  76   1
M  ISO  4  39 100  62 101  73 100  86 101
M  END
> <Batch ID>
0065

> <Smiles>
CNC(C)C(=O)NC(C(=O)N1Cc2cc([101O:1][101CH2:1]C3CCC(=O)N3c3cc([100NH:0][100C:0](=O)N4CCCC(n5nc(-c6ccc(Oc7ccc(F)cc7F)cc6)c(C(N)=O)c5N)C4)cc(S(C)(=O)=O)c3C)ccc2CC1C(=O)NC1CCCc2ccccc21)C(C)(C)C

> <Shape>
0.258

> <Color>
0.087

> <Negative vol penalty>
0.000

$$$$

  -OEChem-04042323183D

 88 97  0     1  0  0  0  0  0999 V2000
  -45.4794  -26.4947   25.3079 C   0  0  0  0  0  0  0  0  0  0  0  0
  -44.4914  -25.5443   25.5449 C   0  0  0  0  0  0  0  0  0  0  0  0
  -22.6719  -10.1824   20.1916 C   0  0  0  0  0  0  0  0  0  0  0  0
  -24.3047   -9.4562   21.8175 C   0  0  0  0  0  0  0  0  0  0  0  0
  -45.1774  -27.6467   24.5829 C   0  0  0  0  0  0  0  0  0  0  0  0
  -43.2005  -25.7460   25.0578 C   0  0  0  0  0  0  0  0  0  0  0  0
  -39.3225  -21.4644   23.0242 C   0  0  0  0  0  0  0  0  0  0  0  0
  -32.6931  -17.3797   23.5110 C   0  0  0  0  0  0  0  0  0  0  0  0
  -32.0797  -16.5345   22.5864 C   0  0  0  0  0  0  0  0  0  0  0  0
  -21.9378   -9.0163   20.4079 C   0  0  0  0  0  0  0  0  0  0  0  0
  -23.5706   -8.2901   22.0339 C   0  0  0  0  0  0  0  0  0  0  0  0
  -38.2505  -20.8075   23.6268 C   0  0  0  0  0  0  0  0  0  0  0  0
  -20.8025   -7.3721   23.7415 C   0  0  0  0  0  0  0  0  0  0  0  0
  -20.6011   -6.9706   25.0620 C   0  0  0  0  0  0  0  0  0  0  0  0
  -36.7287  -22.3966   22.6377 C   0  0  0  0  0  0  0  0  0  0  0  0
  -30.5281  -18.2133   24.1855 C   0  0  0  0  0  0  0  0  0  0  0  0
  -21.7369   -4.8884   24.6020 C   0  0  0  0  0  0  0  0  0  0  0  0
  -23.8554  -10.4024   20.8963 C   0  0  0  0  0  0  0  0  0  0  0  0
  -24.1819  -12.9322   20.8659 C   0  0  0  0  0  0  0  0  0  0  0  0
  -43.8845  -27.8579   24.0784 C   0  0  0  0  0  0  0  0  0  0  0  0
  -39.1063  -22.6007   22.2314 C   0  0  0  0  0  0  0  0  0  0  0  0
  -42.8806  -26.9025   24.3265 C   0  0  0  0  0  0  0  0  0  0  0  0
  -37.7994  -23.0645   22.0241 C   0  0  0  0  0  0  0  0  0  0  0  0
  -29.9146  -17.3681   23.2608 C   0  0  0  0  0  0  0  0  0  0  0  0
  -31.9173  -18.2190   24.3106 C   0  0  0  0  0  0  0  0  0  0  0  0
  -30.6904  -16.5287   22.4613 C   0  0  0  0  0  0  0  0  0  0  0  0
  -22.3871   -8.0701   21.3291 C   0  0  0  0  0  0  0  0  0  0  0  0
  -36.9536  -21.2753   23.4359 C   0  0  0  0  0  0  0  0  0  0  0  0
  -21.4710   -6.5318   22.8512 C   0  0  0  0  0  0  0  0  0  0  0  0
  -21.0683   -5.7287   25.4923 C   0  0  0  0  0  0  0  0  0  0  0  0
  -21.9383   -5.2899   23.2815 C   0  0  0  0  0  0  0  0  0  0  0  0
  -24.6144  -11.6065   20.6729 C   0  0  0  0  0  0  0  0  0  0  0  0
  -25.2650  -13.7011   20.5162 C   0  0  0  0  0  0  0  0  0  0  0  0
  -34.2199  -20.8416   25.4219 C   0  0  0  0  0  0  0  0  0  0  0  0
  -31.8859  -19.4512   26.4584 C   0  0  0  0  0  0  0  0  0  0  0  0
  -22.9145  -13.4246   21.3208 C   0  0  0  0  0  0  0  0  0  0  0  0
  -39.9940  -25.6487   22.3903 C   0  0  0  0  0  0  0  0  0  0  0  0
  -38.5792  -25.8078   19.4756 C   0  0  0  0  0  0  0  0  0  0  0  0
  -36.3047  -24.5142   17.2847 C   0  0  0  0  0  0  0  0  0  0  0  0
  -30.7273  -14.7716   20.6564 C   0  0  0  0  0  0  0  0  0  0  0  0
  -43.5938  -29.1409   23.3408 C   0  0  0  0  0  0  0  0  0  0  0  0
  -40.2709  -23.2821   21.5667 C   0  0  0  0  0  0  0  0  0  0  0  0
  -37.5119  -24.2682   21.1656 C   0  0  0  0  0  0  0  0  0  0  0  0
  -33.3094  -21.5389   26.3931 C   0  0  0  0  0  0  0  0  0  0  0  0
  -33.9736  -19.3913   25.1032 C   0  0  0  0  0  0  0  0  0  0  0  0
  -42.2957  -29.1015   22.5384 C   0  0  0  0  0  0  0  0  0  0  0  0
  -29.5937  -12.4411   18.2149 C   0  0  0  0  0  0  0  0  0  0  0  0
  -41.1655  -28.5175   23.3800 C   0  0  0  0  0  0  0  0  0  0  0  0
  -28.1617  -12.1252   18.6526 C   0  0  0  0  0  0  0  0  0  0  0  0
  -30.5239  -12.6304   19.4119 C   0  0  0  0  0  0  0  0  0  0  0  0
  -28.6321  -13.2917   20.8447 C   0  0  0  0  0  0  0  0  0  0  0  0
  -41.4747  -27.0736   23.7933 C   0  0  1  0  0  0  0  0  0  0  0  0
  -39.9826  -24.7342   21.1982 C   0  0  1  0  0  0  0  0  0  0  0  0
  -27.6442  -13.1567   19.6744 C   0  0  2  0  0  0  0  0  0  0  0  0
  -32.5777  -20.5426   27.3013 C   0  0  0  0  0  0  0  0  0  0  0  0
  -28.4246  -17.3810   23.1494 C   0  0  0  0  0  0  0  0  0  0  0  0
  -31.5007  -21.3207   28.0857 C   0  0  0  0  0  0  0  0  0  0  0  0
  -33.5239  -19.8908   28.3223 C   0  0  0  0  0  0  0  0  0  0  0  0
  -35.3455  -24.8817   14.9951 C   0  0  0  0  0  0  0  0  0  0  0  0
  -36.9191  -28.1329   20.5470 C   0  0  0  0  0  0  0  0  0  0  0  0
  -35.3690  -27.8303   18.6044 C   0  0  0  0  0  0  0  0  0  0  0  0
  -37.7560  -28.4382   18.2102 C   0  0  0  0  0  0  0  0  0  0  0  0
  -37.2459  -21.8723   16.3396 C   0  0  0  0  0  0  0  0  0  0  0  0
  -37.1836  -26.0988   18.9791 C   0  0  1  0  0  0  0  0  0  0  0  0
  -36.4109  -24.1662   15.8109 C   0  0  2  0  0  0  0  0  0  0  0  0
  -36.8122  -27.6035   19.1030 C   0  0  0  0  0  0  0  0  0  0  0  0
  -25.8740  -11.5337   20.2344 N   0  0  0  0  0  0  0  0  0  0  0  0
  -35.2029  -21.4925   24.8899 N   0  0  0  0  0  0  0  0  0  1  0  0
  -26.2422  -12.8234   20.1489 N   0  0  0  0  0  0  0  0  0  0  0  0
  -32.5516  -19.0908   25.2686 N   0  0  0  0  0  0  0  0  0  0  0  0
  -38.6845  -24.9039   20.5422 N   0  0  0  0  0  0  0  0  0  0  0  0
  -29.9714  -13.6246   20.3345 N   0  0  0  0  0  0  0  0  0  0  0  0
  -25.4672  -15.0356   20.4901 N   0  0  0  0  0  0  0  0  0  0  0  0
  -21.9122  -12.4975   21.6375 N   0  0  0  0  0  0  0  0  0  0  0  0
  -30.0862  -15.6618   21.5173 N   0  0  0  0  0  0  0  0  0  0  0  0
  -41.2387  -26.1699   22.6877 N   0  0  0  0  0  0  0  0  0  0  0  0
  -37.1173  -25.5770   17.6183 N   0  0  0  0  0  0  0  0  0  0  0  0
  -36.2480  -22.6982   15.6123 N   0  3  0  0  0  0  0  0  0  0  0  0
  -30.8388  -18.9363   26.8601 O   0  0  0  0  0  0  0  0  0  0  0  0
  -22.6724  -14.6508   21.4272 O   0  0  0  0  0  0  0  0  0  0  0  0
  -38.9504  -25.8666   22.9946 O   0  0  0  0  0  0  0  0  0  0  0  0
  -39.5410  -26.3567   18.9323 O   0  0  0  0  0  0  0  0  0  0  0  0
  -35.5713  -23.9066   18.0614 O   0  0  0  0  0  0  0  0  0  0  0  0
  -31.8490  -14.9643   20.1802 O   0  0  0  0  0  0  0  0  0  0  0  0
  -21.6709   -6.9322   21.5407 O   0  0  0  0  0  0  0  0  0  0  0  0
  -35.9055  -20.6364   24.0234 O   0  0  0  0  0  0  0  0  0  1  0  0
  -20.8762   -5.3439   26.7608 F   0  0  0  0  0  0  0  0  0  0  0  0
  -22.5823   -4.4788   22.4311 F   0  0  0  0  0  0  0  0  0  0  0  0
  1  2  1  0  0  0  0
  1  5  2  0  0  0  0
  2  6  2  0  0  0  0
  3 10  2  0  0  0  0
  3 18  1  0  0  0  0
  4 11  1  0  0  0  0
  4 18  2  0  0  0  0
  5 20  1  0  0  0  0
  6 22  1  0  0  0  0
  7 12  2  0  0  0  0
  7 21  1  0  0  0  0
  8  9  2  0  0  0  0
  8 25  1  0  0  0  0
  9 26  1  0  0  0  0
 10 27  1  0  0  0  0
 11 27  2  0  0  0  0
 12 28  1  0  0  0  0
 13 14  2  0  0  0  0
 13 29  1  0  0  0  0
 14 30  1  0  0  0  0
 15 23  1  0  0  0  0
 15 28  2  0  0  0  0
 16 24  1  0  0  0  0
 16 25  2  0  0  0  0
 17 30  2  0  0  0  0
 17 31  1  0  0  0  0
 18 32  1  0  0  0  0
 19 32  1  0  0  0  0
 19 33  2  0  0  0  0
 19 36  1  0  0  0  0
 20 22  2  0  0  0  0
 20 41  1  0  0  0  0
 21 23  2  0  0  0  0
 21 42  1  0  0  0  0
 22 52  1  0  0  0  0
 23 43  1  0  0  0  0
 24 26  2  0  0  0  0
 24 56  1  0  0  0  0
 25 70  1  0  0  0  0
 26 75  1  0  0  0  0
 27 85  1  0  0  0  0
 28 86  1  0  0  0  0
 29 31  2  0  0  0  0
 29 85  1  0  0  0  0
 30 87  1  0  0  0  0
 31 88  1  0  0  0  0
 32 67  2  0  0  0  0
 33 69  1  0  0  0  0
 33 73  1  0  0  0  0
 34 44  1  0  0  0  0
 34 45  1  0  0  0  0
 34 68  2  0  0  0  0
 35 55  1  0  0  0  0
 35 70  1  0  0  0  0
 35 79  2  0  0  0  0
 36 74  1  0  0  0  0
 36 80  2  0  0  0  0
 37 53  1  0  0  0  0
 37 76  1  0  0  0  0
 37 81  2  0  0  0  0
 38 64  1  0  0  0  0
 38 71  1  0  0  0  0
 38 82  2  0  0  0  0
 39 65  1  0  0  0  0
 39 77  1  0  0  0  0
 39 83  2  0  0  0  0
 40 72  1  0  0  0  0
 40 75  1  0  0  0  0
 40 84  2  0  0  0  0
 41 46  1  0  0  0  0
 42 53  1  0  0  0  0
 43 71  1  0  0  0  0
 44 55  1  0  0  0  0
 45 70  1  0  0  0  0
 46 48  1  0  0  0  0
 47 49  1  0  0  0  0
 47 50  1  0  0  0  0
 48 52  1  0  0  0  0
 49 54  1  0  0  0  0
 50 72  1  0  0  0  0
 51 54  1  0  0  0  0
 51 72  1  0  0  0  0
 52 76  1  0  0  0  0
 53 71  1  0  0  0  0
 54 69  1  0  0  0  0
 55 57  1  0  0  0  0
 55 58  1  0  0  0  0
 59 65  1  0  0  0  0
 60 66  1  0  0  0  0
 61 66  1  0  0  0  0
 62 66  1  0  0  0  0
 63 78  1  0  0  0  0
 64 66  1  0  0  0  0
 64 77  1  0  0  0  0
 65 78  1  0  0  0  0
 67 69  1  0  0  0  0
 68 86  1  0  0  0  0
M  CHG  1  78   1
M  ISO  4  40 100  68 101  75 100  86 101
M  END
> <Batch ID>
0065

> <Smiles>
CNC(C)C(=O)NC(C(=O)N1Cc2cc([101O:1][101N:1]=C3CN(c4ccc([100NH:0][100C:0](=O)N5CCCC(n6nc(-c7ccc(Oc8ccc(F)cc8F)cc7)c(C(N)=O)c6N)C5)c(C)c4)C(=O)C(C)(C)C3)ccc2CC1C(=O)NC1CCCc2ccccc21)C(C)(C)C

> <Shape>
0.181

> <Color>
0.192

> <Negative vol penalty>
0.000

$$$$

  -OEChem-04042323183D

 86 95  0     1  0  0  0  0  0999 V2000
  -30.3168  -12.0500   19.1985 C   0  0  0  0  0  0  0  0  0  0  0  0
  -30.1903  -13.4267   19.3538 C   0  0  0  0  0  0  0  0  0  0  0  0
  -28.7779  -25.1892   18.7207 C   0  0  0  0  0  0  0  0  0  0  0  0
  -27.1429  -24.3242   20.2751 C   0  0  0  0  0  0  0  0  0  0  0  0
  -29.1904  -11.2332   19.2872 C   0  0  0  0  0  0  0  0  0  0  0  0
  -28.9370  -13.9875   19.5969 C   0  0  0  0  0  0  0  0  0  0  0  0
  -25.8339  -19.4228   23.0818 C   0  0  0  0  0  0  0  0  0  0  0  0
  -18.1490  -29.4468   22.4502 C   0  0  0  0  0  0  0  0  0  0  0  0
  -19.5314  -29.6164   22.5262 C   0  0  0  0  0  0  0  0  0  0  0  0
  -29.6478  -24.1526   19.0589 C   0  0  0  0  0  0  0  0  0  0  0  0
  -28.0128  -23.2876   20.6132 C   0  0  0  0  0  0  0  0  0  0  0  0
  -24.9527  -20.4804   22.8615 C   0  0  0  0  0  0  0  0  0  0  0  0
  -28.9896  -20.3301   19.3020 C   0  0  0  0  0  0  0  0  0  0  0  0
  -28.4596  -19.0425   19.3855 C   0  0  0  0  0  0  0  0  0  0  0  0
  -23.0888  -18.9638   23.0735 C   0  0  0  0  0  0  0  0  0  0  0  0
  -18.4515  -27.0558   22.2813 C   0  0  0  0  0  0  0  0  0  0  0  0
  -29.1279  -18.9177   21.7039 C   0  0  0  0  0  0  0  0  0  0  0  0
  -27.5254  -25.2750   19.3288 C   0  0  0  0  0  0  0  0  0  0  0  0
  -26.0955  -26.6298   17.7079 C   0  0  0  0  0  0  0  0  0  0  0  0
  -27.9241  -11.7833   19.5412 C   0  0  0  0  0  0  0  0  0  0  0  0
  -25.3487  -18.1235   23.2891 C   0  0  0  0  0  0  0  0  0  0  0  0
  -27.7924  -13.1774   19.6878 C   0  0  0  0  0  0  0  0  0  0  0  0
  -23.9658  -17.8918   23.2987 C   0  0  0  0  0  0  0  0  0  0  0  0
  -17.6090  -28.1665   22.3277 C   0  0  0  0  0  0  0  0  0  0  0  0
  -19.8340  -27.2253   22.3573 C   0  0  0  0  0  0  0  0  0  0  0  0
  -20.3739  -28.5057   22.4798 C   0  0  0  0  0  0  0  0  0  0  0  0
  -29.2653  -23.2018   20.0051 C   0  0  0  0  0  0  0  0  0  0  0  0
  -23.5800  -20.2506   22.8544 C   0  0  0  0  0  0  0  0  0  0  0  0
  -29.5888  -20.9114   20.4195 C   0  0  0  0  0  0  0  0  0  0  0  0
  -28.5287  -18.3364   20.5864 C   0  0  0  0  0  0  0  0  0  0  0  0
  -29.6580  -20.2053   21.6204 C   0  0  0  0  0  0  0  0  0  0  0  0
  -26.6266  -26.3459   18.9803 C   0  0  0  0  0  0  0  0  0  0  0  0
  -25.3051  -27.7357   17.9047 C   0  0  0  0  0  0  0  0  0  0  0  0
  -21.6456  -25.9083   21.2907 C   0  0  0  0  0  0  0  0  0  0  0  0
  -26.2983  -25.9541   16.4597 C   0  0  0  0  0  0  0  0  0  0  0  0
  -25.6433  -15.3494   21.7655 C   0  0  0  0  0  0  0  0  0  0  0  0
  -24.0246  -14.2108   24.3357 C   0  0  0  0  0  0  0  0  0  0  0  0
  -21.8939  -14.8359   26.9272 C   0  0  0  0  0  0  0  0  0  0  0  0
  -22.4514  -29.9163   22.6803 C   0  0  0  0  0  0  0  0  0  0  0  0
  -26.7284  -10.8650   19.5816 C   0  0  0  0  0  0  0  0  0  0  0  0
  -26.3115  -16.9981   23.5519 C   0  0  0  0  0  0  0  0  0  0  0  0
  -23.3934  -16.5191   23.5365 C   0  0  0  0  0  0  0  0  0  0  0  0
  -22.6906  -24.8273   21.5015 C   0  0  0  0  0  0  0  0  0  0  0  0
  -25.4931  -11.5008   20.2140 C   0  0  0  0  0  0  0  0  0  0  0  0
  -24.8965  -31.5951   20.7104 C   0  0  0  0  0  0  0  0  0  0  0  0
  -25.2687  -12.9023   19.6553 C   0  0  0  0  0  0  0  0  0  0  0  0
  -25.5652  -30.4661   19.9229 C   0  0  0  0  0  0  0  0  0  0  0  0
  -21.5240  -23.9999   23.5028 C   0  0  0  0  0  0  0  0  0  0  0  0
  -24.5315  -31.1588   22.1282 C   0  0  0  0  0  0  0  0  0  0  0  0
  -20.3698  -24.9507   23.2268 C   0  0  0  0  0  0  0  0  0  0  0  0
  -24.4002  -28.8012   21.4255 C   0  0  0  0  0  0  0  0  0  0  0  0
  -26.4536  -13.8209   19.9773 C   0  0  1  0  0  0  0  0  0  0  0  0
  -25.7247  -15.6248   23.2404 C   0  0  1  0  0  0  0  0  0  0  0  0
  -22.1656  -23.5787   22.1909 C   0  0  2  0  0  0  0  0  0  0  0  0
  -24.7275  -29.1731   19.9702 C   0  0  2  0  0  0  0  0  0  0  0  0
  -16.1309  -27.9854   22.2483 C   0  0  0  0  0  0  0  0  0  0  0  0
  -20.7246  -13.6986   28.8343 C   0  0  0  0  0  0  0  0  0  0  0  0
  -22.0277  -12.9884   22.3792 C   0  0  0  0  0  0  0  0  0  0  0  0
  -20.4330  -12.7100   24.2891 C   0  0  0  0  0  0  0  0  0  0  0  0
  -22.6253  -11.5201   24.3135 C   0  0  0  0  0  0  0  0  0  0  0  0
  -23.2567  -16.5368   28.9293 C   0  0  0  0  0  0  0  0  0  0  0  0
  -23.2881  -22.5718   22.4273 C   0  0  0  0  0  0  0  0  0  1  0  0
  -22.5679  -14.0205   24.6833 C   0  0  1  0  0  0  0  0  0  0  0  0
  -21.9619  -14.4679   28.3984 C   0  0  2  0  0  0  0  0  0  0  0  0
  -21.9240  -12.8354   23.9098 C   0  0  0  0  0  0  0  0  0  0  0  0
  -26.2090  -27.2025   19.9162 N   0  0  0  0  0  0  0  0  0  0  0  0
  -25.4072  -28.0355   19.2313 N   0  0  0  0  0  0  0  0  0  0  0  0
  -20.6870  -26.0570   22.3078 N   0  0  0  0  0  0  0  0  0  0  0  0
  -24.3757  -15.4504   23.7825 N   0  0  0  0  0  0  0  0  0  0  0  0
  -23.7348  -29.9303   22.0942 N   0  0  0  0  0  0  0  0  0  0  0  0
  -24.5398  -28.4713   17.0706 N   0  0  0  0  0  0  0  0  0  0  0  0
  -25.4299  -24.9088   16.1169 N   0  0  0  0  0  0  0  0  0  0  0  0
  -21.7748  -28.7032   22.5578 N   0  0  0  0  0  0  0  0  0  0  0  0
  -26.3910  -14.2626   21.3540 N   0  0  0  0  0  0  0  0  0  0  0  0
  -22.5084  -13.8893   26.1351 N   0  0  0  0  0  0  0  0  0  0  0  0
  -22.0705  -15.6964   29.2351 N   0  3  0  0  0  0  0  0  0  0  0  0
  -21.7381  -26.6161   20.2841 O   0  0  0  0  0  0  0  0  0  0  0  0
  -27.2323  -26.2573   15.6791 O   0  0  0  0  0  0  0  0  0  0  0  0
  -24.9520  -16.0687   21.0539 O   0  0  0  0  0  0  0  0  0  0  0  0
  -24.8229  -13.2960   24.5539 O   0  0  0  0  0  0  0  0  0  0  0  0
  -21.3467  -15.8587   26.5211 O   0  0  0  0  0  0  0  0  0  0  0  0
  -21.9759  -30.9158   23.2251 O   0  0  0  0  0  0  0  0  0  0  0  0
  -30.1138  -22.1901   20.3352 O   0  0  0  0  0  0  0  0  0  0  0  0
  -22.7177  -21.2810   22.6390 O   0  0  0  0  0  0  0  0  0  1  0  0
  -28.0184  -17.1006   20.6669 F   0  0  0  0  0  0  0  0  0  0  0  0
  -30.2314  -20.7590   22.6976 F   0  0  0  0  0  0  0  0  0  0  0  0
  1  2  1  0  0  0  0
  1  5  2  0  0  0  0
  2  6  2  0  0  0  0
  3 10  2  0  0  0  0
  3 18  1  0  0  0  0
  4 11  1  0  0  0  0
  4 18  2  0  0  0  0
  5 20  1  0  0  0  0
  6 22  1  0  0  0  0
  7 12  2  0  0  0  0
  7 21  1  0  0  0  0
  8  9  2  0  0  0  0
  8 24  1  0  0  0  0
  9 26  1  0  0  0  0
 10 27  1  0  0  0  0
 11 27  2  0  0  0  0
 12 28  1  0  0  0  0
 13 14  2  0  0  0  0
 13 29  1  0  0  0  0
 14 30  1  0  0  0  0
 15 23  1  0  0  0  0
 15 28  2  0  0  0  0
 16 24  2  0  0  0  0
 16 25  1  0  0  0  0
 17 30  2  0  0  0  0
 17 31  1  0  0  0  0
 18 32  1  0  0  0  0
 19 32  1  0  0  0  0
 19 33  2  0  0  0  0
 19 35  1  0  0  0  0
 20 22  2  0  0  0  0
 20 40  1  0  0  0  0
 21 23  2  0  0  0  0
 21 41  1  0  0  0  0
 22 52  1  0  0  0  0
 23 42  1  0  0  0  0
 24 56  1  0  0  0  0
 25 26  2  0  0  0  0
 25 68  1  0  0  0  0
 26 73  1  0  0  0  0
 27 83  1  0  0  0  0
 28 84  1  0  0  0  0
 29 31  2  0  0  0  0
 29 83  1  0  0  0  0
 30 85  1  0  0  0  0
 31 86  1  0  0  0  0
 32 66  2  0  0  0  0
 33 67  1  0  0  0  0
 33 71  1  0  0  0  0
 34 43  1  0  0  0  0
 34 68  1  0  0  0  0
 34 77  2  0  0  0  0
 35 72  1  0  0  0  0
 35 78  2  0  0  0  0
 36 53  1  0  0  0  0
 36 74  1  0  0  0  0
 36 79  2  0  0  0  0
 37 63  1  0  0  0  0
 37 69  1  0  0  0  0
 37 80  2  0  0  0  0
 38 64  1  0  0  0  0
 38 75  1  0  0  0  0
 38 81  2  0  0  0  0
 39 70  1  0  0  0  0
 39 73  1  0  0  0  0
 39 82  2  0  0  0  0
 40 44  1  0  0  0  0
 41 53  1  0  0  0  0
 42 69  1  0  0  0  0
 43 54  1  0  0  0  0
 44 46  1  0  0  0  0
 45 47  1  0  0  0  0
 45 49  1  0  0  0  0
 46 52  1  0  0  0  0
 47 55  1  0  0  0  0
 48 50  1  0  0  0  0
 48 54  1  0  0  0  0
 49 70  1  0  0  0  0
 50 68  1  0  0  0  0
 51 55  1  0  0  0  0
 51 70  1  0  0  0  0
 52 74  1  0  0  0  0
 53 69  1  0  0  0  0
 54 62  1  0  0  0  0
 55 67  1  0  0  0  0
 57 64  1  0  0  0  0
 58 65  1  0  0  0  0
 59 65  1  0  0  0  0
 60 65  1  0  0  0  0
 61 76  1  0  0  0  0
 62 84  1  0  0  0  0
 63 65  1  0  0  0  0
 63 75  1  0  0  0  0
 64 76  1  0  0  0  0
 66 67  1  0  0  0  0
M  CHG  1  76   1
M  ISO  4  39 100  62 101  73 100  84 101
M  END
> <Batch ID>
0065

> <Smiles>
CNC(C)C(=O)NC(C(=O)N1Cc2cc([101O:1][101CH2:1]C3CCN(c4cc(C)ccc4[100NH:0][100C:0](=O)N4CCCC(n5nc(-c6ccc(Oc7ccc(F)cc7F)cc6)c(C(N)=O)c5N)C4)C(=O)C3)ccc2CC1C(=O)NC1CCCc2ccccc21)C(C)(C)C

> <Shape>
0.253

> <Color>
0.067

> <Negative vol penalty>
0.000

$$$$

  -OEChem-04042323183D

 86 94  0     1  0  0  0  0  0999 V2000
  -17.2727  -31.9449   22.4734 C   0  0  0  0  0  0  0  0  0  0  0  0
  -18.5003  -32.2572   21.8983 C   0  0  0  0  0  0  0  0  0  0  0  0
  -25.9469  -14.6410   21.6920 C   0  0  0  0  0  0  0  0  0  0  0  0
  -25.6162  -15.6616   19.5273 C   0  0  0  0  0  0  0  0  0  0  0  0
  -17.1809  -30.9026   23.3949 C   0  0  0  0  0  0  0  0  0  0  0  0
  -19.6372  -31.5280   22.2452 C   0  0  0  0  0  0  0  0  0  0  0  0
  -25.8029  -29.1496   19.4806 C   0  0  0  0  0  0  0  0  0  0  0  0
  -24.5796  -14.3783   21.7771 C   0  0  0  0  0  0  0  0  0  0  0  0
  -24.2490  -15.3989   19.6123 C   0  0  0  0  0  0  0  0  0  0  0  0
  -27.1726  -29.1541   19.7407 C   0  0  0  0  0  0  0  0  0  0  0  0
  -21.7570  -16.0852   22.5145 C   0  0  0  0  0  0  0  0  0  0  0  0
  -21.1170  -16.3698   23.7207 C   0  0  0  0  0  0  0  0  0  0  0  0
  -26.8795  -27.3236   21.2843 C   0  0  0  0  0  0  0  0  0  0  0  0
  -29.8207  -24.5930   16.8782 C   0  0  0  0  0  0  0  0  0  0  0  0
  -29.8612  -22.1993   17.2031 C   0  0  0  0  0  0  0  0  0  0  0  0
  -30.6506  -23.6691   18.9506 C   0  0  0  0  0  0  0  0  0  0  0  0
  -20.4829  -14.0480   23.9320 C   0  0  0  0  0  0  0  0  0  0  0  0
  -26.4652  -15.2826   20.5672 C   0  0  0  0  0  0  0  0  0  0  0  0
  -28.8715  -14.7204   19.9336 C   0  0  0  0  0  0  0  0  0  0  0  0
  -18.3153  -30.1540   23.7460 C   0  0  0  0  0  0  0  0  0  0  0  0
  -24.9582  -28.2376   20.1297 C   0  0  0  0  0  0  0  0  0  0  0  0
  -19.5607  -30.4756   23.1732 C   0  0  0  0  0  0  0  0  0  0  0  0
  -25.4998  -27.3078   21.0287 C   0  0  0  0  0  0  0  0  0  0  0  0
  -29.5711  -23.3052   16.4040 C   0  0  0  0  0  0  0  0  0  0  0  0
  -30.3605  -24.7749   18.1515 C   0  0  0  0  0  0  0  0  0  0  0  0
  -30.4009  -22.3812   18.4764 C   0  0  0  0  0  0  0  0  0  0  0  0
  -23.7307  -14.7573   20.7372 C   0  0  0  0  0  0  0  0  0  0  0  0
  -27.7107  -28.2429   20.6448 C   0  0  0  0  0  0  0  0  0  0  0  0
  -21.7599  -14.7820   22.0170 C   0  0  0  0  0  0  0  0  0  0  0  0
  -20.4799  -15.3512   24.4295 C   0  0  0  0  0  0  0  0  0  0  0  0
  -21.1229  -13.7635   22.7258 C   0  0  0  0  0  0  0  0  0  0  0  0
  -27.8774  -15.5547   20.4790 C   0  0  0  0  0  0  0  0  0  0  0  0
  -30.0377  -15.4291   20.0887 C   0  0  0  0  0  0  0  0  0  0  0  0
  -28.7514  -13.4209   19.3398 C   0  0  0  0  0  0  0  0  0  0  0  0
  -22.4928  -28.4889   22.1203 C   0  0  0  0  0  0  0  0  0  0  0  0
  -22.3310  -25.2758   21.7054 C   0  0  0  0  0  0  0  0  0  0  0  0
  -31.1447  -26.4440   19.8671 C   0  0  0  0  0  0  0  0  0  0  0  0
  -23.9329  -22.3761   20.8854 C   0  0  0  0  0  0  0  0  0  0  0  0
  -31.2353  -21.2631   20.5740 C   0  0  0  0  0  0  0  0  0  0  0  0
  -18.1757  -29.0671   24.7822 C   0  0  0  0  0  0  0  0  0  0  0  0
  -23.4867  -28.2280   19.8181 C   0  0  0  0  0  0  0  0  0  0  0  0
  -24.6388  -26.2948   21.7365 C   0  0  0  0  0  0  0  0  0  0  0  0
  -19.3568  -28.1006   24.8141 C   0  0  0  0  0  0  0  0  0  0  0  0
  -32.0753  -18.7150   22.9146 C   0  0  0  0  0  0  0  0  0  0  0  0
  -20.6751  -28.8677   24.7914 C   0  0  0  0  0  0  0  0  0  0  0  0
  -31.1890  -17.5374   22.5022 C   0  0  0  0  0  0  0  0  0  0  0  0
  -31.3582  -20.0526   22.7407 C   0  0  0  0  0  0  0  0  0  0  0  0
  -29.9011  -19.1048   20.9950 C   0  0  0  0  0  0  0  0  0  0  0  0
  -20.8118  -29.6917   23.5053 C   0  0  1  0  0  0  0  0  0  0  0  0
  -22.6462  -27.5947   20.9226 C   0  0  1  0  0  0  0  0  0  0  0  0
  -30.6029  -17.7403   21.0912 C   0  0  2  0  0  0  0  0  0  0  0  0
  -23.5486  -19.9053   20.6735 C   0  0  0  0  0  0  0  0  0  0  0  0
  -22.4104  -25.0053   24.7435 C   0  0  0  0  0  0  0  0  0  0  0  0
  -22.9792  -22.5857   24.4436 C   0  0  0  0  0  0  0  0  0  0  0  0
  -20.8031  -23.4673   23.6010 C   0  0  0  0  0  0  0  0  0  0  0  0
  -24.5951  -22.4030   18.0011 C   0  0  0  0  0  0  0  0  0  0  0  0
  -31.2516  -27.9607   19.9777 C   0  0  0  0  0  0  0  0  0  0  0  0
  -29.9101  -28.6655   19.8449 C   0  0  0  0  0  0  0  0  0  1  0  0
  -22.9387  -24.0771   22.3929 C   0  0  1  0  0  0  0  0  0  0  0  0
  -23.5496  -21.2432   19.9505 C   0  0  2  0  0  0  0  0  0  0  0  0
  -28.9951  -23.1111   15.0418 C   0  0  0  0  0  0  0  0  0  0  0  0
  -22.2991  -23.8041   23.7835 C   0  0  0  0  0  0  0  0  0  0  0  0
  -28.3692  -16.7055   20.9459 N   0  0  0  0  0  0  0  0  0  0  0  0
  -29.6851  -16.5992   20.6943 N   0  0  0  0  0  0  0  0  0  0  0  0
  -23.2052  -26.3294   21.4031 N   0  0  0  0  0  0  0  0  0  0  0  0
  -30.8333  -20.1763   21.3791 N   0  0  0  0  0  0  0  0  0  0  0  0
  -31.3202  -15.1594   19.7648 N   0  0  0  0  0  0  0  0  0  0  0  0
  -27.4794  -12.8377   19.2599 N   0  0  0  0  0  0  0  0  0  0  0  0
  -30.6137  -26.0817   18.6321 N   0  0  0  0  0  0  0  0  0  0  0  0
  -30.6969  -21.2579   19.2877 N   0  0  0  0  0  0  0  0  0  0  0  0
  -21.1851  -28.8398   22.3965 N   0  0  0  0  0  0  0  0  0  0  0  0
  -22.8241  -22.9663   21.4541 N   0  0  0  0  0  0  0  0  0  0  0  0
  -24.5099  -21.1623   18.8137 N   0  3  0  0  0  0  0  0  0  0  0  0
  -29.7449  -12.7884   18.9080 O   0  0  0  0  0  0  0  0  0  0  0  0
  -23.4870  -28.8337   22.7482 O   0  0  0  0  0  0  0  0  0  0  0  0
  -21.1264  -25.2742   21.4396 O   0  0  0  0  0  0  0  0  0  0  0  0
  -31.4939  -25.6970   20.7750 O   0  0  0  0  0  0  0  0  0  0  0  0
  -25.0995  -22.7022   21.0936 O   0  0  0  0  0  0  0  0  0  0  0  0
  -32.0221  -22.1196   20.9856 O   0  0  0  0  0  0  0  0  0  0  0  0
  -22.3965  -14.5009   20.8197 O   0  0  0  0  0  0  0  0  0  0  0  0
  -29.0472  -28.2456   20.9010 O   0  0  0  0  0  0  0  0  0  1  0  0
  -19.8666  -15.6244   25.5886 F   0  0  0  0  0  0  0  0  0  0  0  0
  -21.1234  -12.5094   22.2535 F   0  0  0  0  0  0  0  0  0  0  0  0
  -28.7635  -24.2799   14.3739 F   0  0  0  0  0  0  0  0  0  0  0  0
  -29.7930  -22.3779   14.2104 F   0  0  0  0  0  0  0  0  0  0  0  0
  -27.7959  -22.4599   15.0669 F   0  0  0  0  0  0  0  0  0  0  0  0
  1  2  1  0  0  0  0
  1  5  2  0  0  0  0
  2  6  2  0  0  0  0
  3  8  2  0  0  0  0
  3 18  1  0  0  0  0
  4  9  1  0  0  0  0
  4 18  2  0  0  0  0
  5 20  1  0  0  0  0
  6 22  1  0  0  0  0
  7 10  2  0  0  0  0
  7 21  1  0  0  0  0
  8 27  1  0  0  0  0
  9 27  2  0  0  0  0
 10 28  1  0  0  0  0
 11 12  2  0  0  0  0
 11 29  1  0  0  0  0
 12 30  1  0  0  0  0
 13 23  1  0  0  0  0
 13 28  2  0  0  0  0
 14 24  1  0  0  0  0
 14 25  2  0  0  0  0
 15 24  2  0  0  0  0
 15 26  1  0  0  0  0
 16 25  1  0  0  0  0
 16 26  2  0  0  0  0
 17 30  2  0  0  0  0
 17 31  1  0  0  0  0
 18 32  1  0  0  0  0
 19 32  1  0  0  0  0
 19 33  2  0  0  0  0
 19 34  1  0  0  0  0
 20 22  2  0  0  0  0
 20 40  1  0  0  0  0
 21 23  2  0  0  0  0
 21 41  1  0  0  0  0
 22 49  1  0  0  0  0
 23 42  1  0  0  0  0
 24 61  1  0  0  0  0
 25 69  1  0  0  0  0
 26 70  1  0  0  0  0
 27 80  1  0  0  0  0
 28 81  1  0  0  0  0
 29 31  2  0  0  0  0
 29 80  1  0  0  0  0
 30 82  1  0  0  0  0
 31 83  1  0  0  0  0
 32 63  2  0  0  0  0
 33 64  1  0  0  0  0
 33 67  1  0  0  0  0
 34 68  1  0  0  0  0
 34 74  2  0  0  0  0
 35 50  1  0  0  0  0
 35 71  1  0  0  0  0
 35 75  2  0  0  0  0
 36 59  1  0  0  0  0
 36 65  1  0  0  0  0
 36 76  2  0  0  0  0
 37 57  1  0  0  0  0
 37 69  1  0  0  0  0
 37 77  2  0  0  0  0
 38 60  1  0  0  0  0
 38 72  1  0  0  0  0
 38 78  2  0  0  0  0
 39 66  1  0  0  0  0
 39 70  1  0  0  0  0
 39 79  2  0  0  0  0
 40 43  1  0  0  0  0
 41 50  1  0  0  0  0
 42 65  1  0  0  0  0
 43 45  1  0  0  0  0
 44 46  1  0  0  0  0
 44 47  1  0  0  0  0
 45 49  1  0  0  0  0
 46 51  1  0  0  0  0
 47 66  1  0  0  0  0
 48 51  1  0  0  0  0
 48 66  1  0  0  0  0
 49 71  1  0  0  0  0
 50 65  1  0  0  0  0
 51 64  1  0  0  0  0
 52 60  1  0  0  0  0
 53 62  1  0  0  0  0
 54 62  1  0  0  0  0
 55 62  1  0  0  0  0
 56 73  1  0  0  0  0
 57 58  1  0  0  0  0
 58 81  1  0  0  0  0
 59 62  1  0  0  0  0
 59 72  1  0  0  0  0
 60 73  1  0  0  0  0
 61 84  1  0  0  0  0
 61 85  1  0  0  0  0
 61 86  1  0  0  0  0
 63 64  1  0  0  0  0
M  CHG  1  73   1
M  ISO  4  39 100  58 101  70 100  81 101
M  END
> <Batch ID>
0065

> <Smiles>
CNC(C)C(=O)NC(C(=O)N1Cc2cc([101O:1][101CH2:1]CC(=O)Nc3cc([100NH:0][100C:0](=O)N4CCCC(n5nc(-c6ccc(Oc7ccc(F)cc7F)cc6)c(C(N)=O)c5N)C4)cc(C(F)(F)F)c3)ccc2CC1C(=O)NC1CCCc2ccccc21)C(C)(C)C

> <Shape>
0.236

> <Color>
0.079

> <Negative vol penalty>
0.000

$$$$

  -OEChem-04042323183D

 90 99  0     1  0  0  0  0  0999 V2000
  -28.8873  -15.1412   21.4696 C   0  0  0  0  0  0  0  0  0  0  0  0
  -28.7959  -15.9473   22.5997 C   0  0  0  0  0  0  0  0  0  0  0  0
  -23.8435  -17.9268   18.8445 C   0  0  0  0  0  0  0  0  0  0  0  0
  -22.5197  -16.8161   20.5329 C   0  0  0  0  0  0  0  0  0  0  0  0
  -29.4857  -15.6331   20.3104 C   0  0  0  0  0  0  0  0  0  0  0  0
  -29.3039  -17.2456   22.5716 C   0  0  0  0  0  0  0  0  0  0  0  0
  -25.7572  -24.0383   24.0905 C   0  0  0  0  0  0  0  0  0  0  0  0
  -24.9070  -17.0644   19.1110 C   0  0  0  0  0  0  0  0  0  0  0  0
  -23.5831  -15.9537   20.7994 C   0  0  0  0  0  0  0  0  0  0  0  0
  -25.1989  -25.3135   24.1812 C   0  0  0  0  0  0  0  0  0  0  0  0
  -24.9532  -13.1904   19.4182 C   0  0  0  0  0  0  0  0  0  0  0  0
  -24.6665  -11.8317   19.5491 C   0  0  0  0  0  0  0  0  0  0  0  0
  -26.8940  -26.1735   22.6861 C   0  0  0  0  0  0  0  0  0  0  0  0
  -20.0576  -27.5425   21.8829 C   0  0  0  0  0  0  0  0  0  0  0  0
  -17.9079  -27.6735   22.9778 C   0  0  0  0  0  0  0  0  0  0  0  0
  -25.5349  -11.8658   21.8034 C   0  0  0  0  0  0  0  0  0  0  0  0
  -22.6499  -17.8027   19.5555 C   0  0  0  0  0  0  0  0  0  0  0  0
  -20.8756  -18.8582   18.0571 C   0  0  0  0  0  0  0  0  0  0  0  0
  -29.9926  -16.9414   20.2650 C   0  0  0  0  0  0  0  0  0  0  0  0
  -26.8781  -23.8224   23.2841 C   0  0  0  0  0  0  0  0  0  0  0  0
  -29.9109  -17.7550   21.4111 C   0  0  0  0  0  0  0  0  0  0  0  0
  -27.4500  -24.8958   22.5815 C   0  0  0  0  0  0  0  0  0  0  0  0
  -19.4409  -29.5368   23.0991 C   0  0  0  0  0  0  0  0  0  0  0  0
  -20.3630  -28.8284   22.3287 C   0  0  0  0  0  0  0  0  0  0  0  0
  -18.8300  -26.9650   22.2074 C   0  0  0  0  0  0  0  0  0  0  0  0
  -18.2133  -28.9594   23.4236 C   0  0  0  0  0  0  0  0  0  0  0  0
  -24.7768  -16.0779   20.0884 C   0  0  0  0  0  0  0  0  0  0  0  0
  -25.7661  -26.3785   23.4810 C   0  0  0  0  0  0  0  0  0  0  0  0
  -25.5309  -13.8869   20.4798 C   0  0  0  0  0  0  0  0  0  0  0  0
  -24.9574  -11.1693   20.7418 C   0  0  0  0  0  0  0  0  0  0  0  0
  -25.8217  -13.2245   21.6724 C   0  0  0  0  0  0  0  0  0  0  0  0
  -21.5512  -18.6936   19.2811 C   0  0  0  0  0  0  0  0  0  0  0  0
  -19.9220  -19.8121   18.3169 C   0  0  0  0  0  0  0  0  0  0  0  0
  -21.7120  -30.6003   21.2377 C   0  0  0  0  0  0  0  0  0  0  0  0
  -18.0384  -28.8765   26.3109 C   0  0  0  0  0  0  0  0  0  0  0  0
  -17.2002  -29.6073   25.5728 C   0  0  0  0  0  0  0  0  0  0  0  0
  -21.0906  -18.2071   16.7980 C   0  0  0  0  0  0  0  0  0  0  0  0
  -29.3922  -21.3719   21.9612 C   0  0  0  0  0  0  0  0  0  0  0  0
  -28.6417  -23.2230   19.6330 C   0  0  0  0  0  0  0  0  0  0  0  0
  -26.9425  -24.7122   17.4426 C   0  0  0  0  0  0  0  0  0  0  0  0
  -19.3147  -24.8110   20.9787 C   0  0  0  0  0  0  0  0  0  0  0  0
  -30.6732  -17.4129   19.0043 C   0  0  0  0  0  0  0  0  0  0  0  0
  -27.5495  -22.4782   23.2050 C   0  0  0  0  0  0  0  0  0  0  0  0
  -28.6762  -24.6238   21.7537 C   0  0  0  0  0  0  0  0  0  0  0  0
  -23.0634  -31.2882   21.1921 C   0  0  0  0  0  0  0  0  0  0  0  0
  -30.8507  -18.9276   18.9379 C   0  0  0  0  0  0  0  0  0  0  0  0
  -24.2447  -30.3431   21.1734 C   0  0  0  0  0  0  0  0  0  0  0  0
  -16.8328  -21.9358   20.4328 C   0  0  0  0  0  0  0  0  0  0  0  0
  -31.3985  -19.4593   20.2586 C   0  0  0  0  0  0  0  0  0  0  0  0
  -17.7910  -20.7513   20.5335 C   0  0  0  0  0  0  0  0  0  0  0  0
  -17.3676  -23.1732   21.1428 C   0  0  0  0  0  0  0  0  0  0  0  0
  -22.8460  -28.5995   22.2441 C   0  0  0  0  0  0  0  0  0  0  0  0
  -19.4403  -22.5875   19.8712 C   0  0  0  0  0  0  0  0  0  0  0  0
  -30.4280  -19.1773   21.4119 C   0  0  1  0  0  0  0  0  0  0  0  0
  -28.1346  -22.1769   21.8136 C   0  0  1  0  0  0  0  0  0  0  0  0
  -24.1403  -29.4029   22.3628 C   0  0  1  0  0  0  0  0  0  0  0  0
  -19.2724  -21.1621   20.4202 C   0  0  2  0  0  0  0  0  0  0  0  0
  -19.7686  -30.9173   23.5779 C   0  0  0  0  0  0  0  0  0  0  0  0
  -26.5914  -25.7667   15.1927 C   0  0  0  0  0  0  0  0  0  0  0  0
  -31.2179  -24.7938   20.0797 C   0  0  0  0  0  0  0  0  0  0  0  0
  -30.7674  -26.0053   17.9355 C   0  0  0  0  0  0  0  0  0  0  0  0
  -31.1236  -23.5363   17.9200 C   0  0  0  0  0  0  0  0  0  0  0  0
  -16.2588  -30.4528   23.4737 C   0  0  0  0  0  0  0  0  0  0  0  0
  -24.7283  -22.8598   16.7909 C   0  0  0  0  0  0  0  0  0  0  0  0
  -25.3507  -28.4743   22.4357 C   0  0  0  0  0  0  0  0  0  1  0  0
  -28.9685  -24.4719   18.8540 C   0  0  1  0  0  0  0  0  0  0  0  0
  -26.4476  -24.5009   16.0231 C   0  0  2  0  0  0  0  0  0  0  0  0
  -30.5002  -24.7020   18.7183 C   0  0  0  0  0  0  0  0  0  0  0  0
  -21.0681  -19.4800   20.2466 N   0  0  0  0  0  0  0  0  0  0  0  0
  -20.0787  -20.1480   19.6294 N   0  0  0  0  0  0  0  0  0  0  0  0
  -21.6423  -29.4085   21.9794 N   0  0  0  0  0  0  0  0  0  0  0  0
  -28.5171  -23.3578   21.0211 N   0  0  0  0  0  0  0  0  0  0  0  0
  -18.7118  -23.5617   20.6919 N   0  0  0  0  0  0  0  0  0  0  0  0
  -18.9733  -20.3879   17.5482 N   0  0  0  0  0  0  0  0  0  0  0  0
  -20.3942  -17.0202   16.5321 N   0  0  0  0  0  0  0  0  0  0  0  0
  -18.5189  -25.6588   21.7537 N   0  0  0  0  0  0  0  0  0  0  0  0
  -29.3272  -20.1165   21.3873 N   0  0  0  0  0  0  0  0  0  0  0  0
  -28.2669  -24.3539   17.5804 N   0  0  0  0  0  0  0  0  0  0  0  0
  -17.2646  -29.6611   24.1998 N   0  0  0  0  0  0  0  0  0  0  0  0
  -25.0113  -24.1034   16.0291 N   0  3  0  0  0  0  0  0  0  0  0  0
  -20.7609  -31.1536   20.6790 O   0  0  0  0  0  0  0  0  0  0  0  0
  -21.8892  -18.6554   15.9409 O   0  0  0  0  0  0  0  0  0  0  0  0
  -30.3523  -21.8537   22.5509 O   0  0  0  0  0  0  0  0  0  0  0  0
  -28.5057  -22.1546   19.0304 O   0  0  0  0  0  0  0  0  0  0  0  0
  -26.2270  -25.1546   18.3386 O   0  0  0  0  0  0  0  0  0  0  0  0
  -20.4463  -25.0914   20.5780 O   0  0  0  0  0  0  0  0  0  0  0  0
  -25.8142  -15.2360   20.3485 O   0  0  0  0  0  0  0  0  0  0  0  0
  -25.2134  -27.6200   23.5704 O   0  0  0  0  0  0  0  0  0  1  0  0
  -24.6806   -9.8649   20.8679 F   0  0  0  0  0  0  0  0  0  0  0  0
  -26.3755  -13.8886   22.6962 F   0  0  0  0  0  0  0  0  0  0  0  0
  1  2  1  0  0  0  0
  1  5  2  0  0  0  0
  2  6  2  0  0  0  0
  3  8  2  0  0  0  0
  3 17  1  0  0  0  0
  4  9  1  0  0  0  0
  4 17  2  0  0  0  0
  5 19  1  0  0  0  0
  6 21  1  0  0  0  0
  7 10  2  0  0  0  0
  7 20  1  0  0  0  0
  8 27  1  0  0  0  0
  9 27  2  0  0  0  0
 10 28  1  0  0  0  0
 11 12  2  0  0  0  0
 11 29  1  0  0  0  0
 12 30  1  0  0  0  0
 13 22  1  0  0  0  0
 13 28  2  0  0  0  0
 14 24  2  0  0  0  0
 14 25  1  0  0  0  0
 15 25  2  0  0  0  0
 15 26  1  0  0  0  0
 16 30  2  0  0  0  0
 16 31  1  0  0  0  0
 17 32  1  0  0  0  0
 18 32  1  0  0  0  0
 18 33  2  0  0  0  0
 18 37  1  0  0  0  0
 19 21  2  0  0  0  0
 19 42  1  0  0  0  0
 20 22  2  0  0  0  0
 20 43  1  0  0  0  0
 21 54  1  0  0  0  0
 22 44  1  0  0  0  0
 23 24  1  0  0  0  0
 23 26  2  0  0  0  0
 23 58  1  0  0  0  0
 24 71  1  0  0  0  0
 25 76  1  0  0  0  0
 26 79  1  0  0  0  0
 27 87  1  0  0  0  0
 28 88  1  0  0  0  0
 29 31  2  0  0  0  0
 29 87  1  0  0  0  0
 30 89  1  0  0  0  0
 31 90  1  0  0  0  0
 32 69  2  0  0  0  0
 33 70  1  0  0  0  0
 33 74  1  0  0  0  0
 34 45  1  0  0  0  0
 34 71  1  0  0  0  0
 34 81  2  0  0  0  0
 35 36  2  0  0  0  0
 36 79  1  0  0  0  0
 37 75  1  0  0  0  0
 37 82  2  0  0  0  0
 38 55  1  0  0  0  0
 38 77  1  0  0  0  0
 38 83  2  0  0  0  0
 39 66  1  0  0  0  0
 39 72  1  0  0  0  0
 39 84  2  0  0  0  0
 40 67  1  0  0  0  0
 40 78  1  0  0  0  0
 40 85  2  0  0  0  0
 41 73  1  0  0  0  0
 41 76  1  0  0  0  0
 41 86  2  0  0  0  0
 42 46  1  0  0  0  0
 43 55  1  0  0  0  0
 44 72  1  0  0  0  0
 45 47  1  0  0  0  0
 46 49  1  0  0  0  0
 47 56  1  0  0  0  0
 48 50  1  0  0  0  0
 48 51  1  0  0  0  0
 49 54  1  0  0  0  0
 50 57  1  0  0  0  0
 51 73  1  0  0  0  0
 52 56  1  0  0  0  0
 52 71  1  0  0  0  0
 53 57  1  0  0  0  0
 53 73  1  0  0  0  0
 54 77  1  0  0  0  0
 55 72  1  0  0  0  0
 56 65  1  0  0  0  0
 57 70  1  0  0  0  0
 59 67  1  0  0  0  0
 60 68  1  0  0  0  0
 61 68  1  0  0  0  0
 62 68  1  0  0  0  0
 63 79  1  0  0  0  0
 64 80  1  0  0  0  0
 65 88  1  0  0  0  0
 66 68  1  0  0  0  0
 66 78  1  0  0  0  0
 67 80  1  0  0  0  0
 69 70  1  0  0  0  0
M  CHG  1  80   1
M  ISO  4  41 100  65 101  76 100  88 101
M  END
> <Batch ID>
0065

> <Smiles>
C=CN(C)c1cc([100NH:0][100C:0](=O)N2CCCC(n3nc(-c4ccc(Oc5ccc(F)cc5F)cc4)c(C(N)=O)c3N)C2)cc(N2CC([101CH2:1][101O:1]c3ccc4c(c3)CN(C(=O)C(NC(=O)C(C)NC)C(C)(C)C)C(C(=O)NC3CCCc5ccccc53)C4)CCC2=O)c1C

> <Shape>
0.226

> <Color>
0.055

> <Negative vol penalty>
0.000

$$$$

  -OEChem-04042323183D

 86 95  0     1  0  0  0  0  0999 V2000
  -41.8024  -29.9605   23.5293 C   0  0  0  0  0  0  0  0  0  0  0  0
  -41.5824  -28.5921   23.6498 C   0  0  0  0  0  0  0  0  0  0  0  0
  -23.0849   -9.8574   19.9485 C   0  0  0  0  0  0  0  0  0  0  0  0
  -23.8389   -9.8821   22.2437 C   0  0  0  0  0  0  0  0  0  0  0  0
  -40.7300  -30.8477   23.6111 C   0  0  0  0  0  0  0  0  0  0  0  0
  -40.2898  -28.1102   23.8532 C   0  0  0  0  0  0  0  0  0  0  0  0
  -37.9315  -22.8795   21.7121 C   0  0  0  0  0  0  0  0  0  0  0  0
  -30.4308  -18.3864   24.0142 C   0  0  0  0  0  0  0  0  0  0  0  0
  -29.8499  -17.4935   23.1138 C   0  0  0  0  0  0  0  0  0  0  0  0
  -22.3448   -8.7031   20.2040 C   0  0  0  0  0  0  0  0  0  0  0  0
  -23.0988   -8.7278   22.4992 C   0  0  0  0  0  0  0  0  0  0  0  0
  -37.7494  -21.6254   22.2934 C   0  0  0  0  0  0  0  0  0  0  0  0
  -19.8722   -7.9215   23.0987 C   0  0  0  0  0  0  0  0  0  0  0  0
  -19.1124   -7.8862   24.2679 C   0  0  0  0  0  0  0  0  0  0  0  0
  -35.4750  -22.2153   22.8393 C   0  0  0  0  0  0  0  0  0  0  0  0
  -32.0395  -16.6512   22.5364 C   0  0  0  0  0  0  0  0  0  0  0  0
  -20.3593   -5.9583   25.0200 C   0  0  0  0  0  0  0  0  0  0  0  0
  -23.8320  -10.4470   20.9683 C   0  0  0  0  0  0  0  0  0  0  0  0
  -24.1645  -12.9726   20.8328 C   0  0  0  0  0  0  0  0  0  0  0  0
  -39.4223  -30.3757   23.8060 C   0  0  0  0  0  0  0  0  0  0  0  0
  -36.8882  -23.8165   21.6997 C   0  0  0  0  0  0  0  0  0  0  0  0
  -39.1990  -28.9920   23.9390 C   0  0  0  0  0  0  0  0  0  0  0  0
  -35.6455  -23.4797   22.2550 C   0  0  0  0  0  0  0  0  0  0  0  0
  -31.8161  -18.4118   24.1757 C   0  0  0  0  0  0  0  0  0  0  0  0
  -32.6204  -17.5442   23.4368 C   0  0  0  0  0  0  0  0  0  0  0  0
  -30.6542  -16.6259   22.3749 C   0  0  0  0  0  0  0  0  0  0  0  0
  -22.3517   -8.1382   21.4794 C   0  0  0  0  0  0  0  0  0  0  0  0
  -36.5219  -21.2942   22.8597 C   0  0  0  0  0  0  0  0  0  0  0  0
  -20.8755   -6.9751   22.8901 C   0  0  0  0  0  0  0  0  0  0  0  0
  -19.3560   -6.9046   25.2286 C   0  0  0  0  0  0  0  0  0  0  0  0
  -21.1191   -5.9936   23.8507 C   0  0  0  0  0  0  0  0  0  0  0  0
  -24.5972  -11.6391   20.7048 C   0  0  0  0  0  0  0  0  0  0  0  0
  -25.2547  -13.7239   20.4675 C   0  0  0  0  0  0  0  0  0  0  0  0
  -34.7096  -17.3156   24.7258 C   0  0  0  0  0  0  0  0  0  0  0  0
  -36.0306  -17.3767   24.5222 C   0  0  0  0  0  0  0  0  0  0  0  0
  -36.8985  -17.5798   26.7585 C   0  0  0  0  0  0  0  0  0  0  0  0
  -37.0488  -17.1320   25.4935 C   0  0  0  0  0  0  0  0  0  0  0  0
  -22.8910  -13.4862   21.2452 C   0  0  0  0  0  0  0  0  0  0  0  0
  -36.4680  -26.7217   22.9191 C   0  0  0  0  0  0  0  0  0  0  0  0
  -33.7062  -26.6100   21.2213 C   0  0  0  0  0  0  0  0  0  0  0  0
  -31.2877  -24.7078   19.7452 C   0  0  0  0  0  0  0  0  0  0  0  0
  -30.7164  -14.7916   20.6492 C   0  0  0  0  0  0  0  0  0  0  0  0
  -38.3012  -31.3762   23.9351 C   0  0  0  0  0  0  0  0  0  0  0  0
  -37.0923  -25.1552   21.0450 C   0  0  0  0  0  0  0  0  0  0  0  0
  -34.4873  -24.4425   22.2494 C   0  0  0  0  0  0  0  0  0  0  0  0
  -36.9136  -30.7598   23.7774 C   0  0  0  0  0  0  0  0  0  0  0  0
  -29.6172  -12.3583   18.2938 C   0  0  0  0  0  0  0  0  0  0  0  0
  -36.7990  -29.4838   24.6053 C   0  0  0  0  0  0  0  0  0  0  0  0
  -28.1776  -12.0639   18.7216 C   0  0  0  0  0  0  0  0  0  0  0  0
  -30.5284  -12.5983   19.4963 C   0  0  0  0  0  0  0  0  0  0  0  0
  -34.8938  -17.8072   22.4520 C   0  0  0  0  0  0  0  0  0  0  0  0
  -28.6152  -13.3244   20.8680 C   0  0  0  0  0  0  0  0  0  0  0  0
  -37.8082  -28.4290   24.1356 C   0  0  1  0  0  0  0  0  0  0  0  0
  -36.3175  -17.7026   23.0751 C   0  0  1  0  0  0  0  0  0  0  0  0
  -36.1211  -26.2197   21.5461 C   0  0  1  0  0  0  0  0  0  0  0  0
  -27.6460  -13.1398   19.6889 C   0  0  2  0  0  0  0  0  0  0  0  0
  -32.4116  -19.3781   25.1472 C   0  0  0  0  0  0  0  0  0  0  0  0
  -29.1366  -24.9002   18.4672 C   0  0  0  0  0  0  0  0  0  0  0  0
  -32.2370  -27.3044   23.8037 C   0  0  0  0  0  0  0  0  0  0  0  0
  -30.1109  -26.5572   22.7130 C   0  0  0  0  0  0  0  0  0  0  0  0
  -31.3848  -28.4832   21.7694 C   0  0  0  0  0  0  0  0  0  0  0  0
  -32.4284  -23.3253   17.3900 C   0  0  0  0  0  0  0  0  0  0  0  0
  -37.0972  -18.9868   22.8897 C   0  0  0  0  0  0  0  0  0  1  0  0
  -32.2985  -26.1413   21.4995 C   0  0  1  0  0  0  0  0  0  0  0  0
  -30.6495  -24.7795   18.3697 C   0  0  2  0  0  0  0  0  0  0  0  0
  -31.5300  -27.1039   22.4484 C   0  0  0  0  0  0  0  0  0  0  0  0
  -25.8635  -11.5454   20.2904 N   0  0  0  0  0  0  0  0  0  0  0  0
  -26.2358  -12.8296   20.1547 N   0  0  0  0  0  0  0  0  0  0  0  0
  -33.9846  -17.5568   23.5829 N   0  0  0  0  0  0  0  0  0  0  0  0
  -34.7383  -25.7412   21.6031 N   0  0  0  0  0  0  0  0  0  0  0  0
  -29.9632  -13.6327   20.3655 N   0  0  0  0  0  0  0  0  0  0  0  0
  -25.4602  -15.0557   20.3864 N   0  0  0  0  0  0  0  0  0  0  0  0
  -21.8817  -12.5753   21.5858 N   0  0  0  0  0  0  0  0  0  0  0  0
  -30.0634  -15.7194   21.4600 N   0  0  0  0  0  0  0  0  0  0  0  0
  -37.3440  -27.7903   22.9227 N   0  0  0  0  0  0  0  0  0  0  0  0
  -31.6659  -25.9539   20.1983 N   0  0  0  0  0  0  0  0  0  0  0  0
  -30.9735  -23.5554   17.5838 N   0  3  0  0  0  0  0  0  0  0  0  0
  -22.6499  -14.7162   21.2940 O   0  0  0  0  0  0  0  0  0  0  0  0
  -35.9760  -26.1806   23.9024 O   0  0  0  0  0  0  0  0  0  0  0  0
  -33.8834  -27.7035   20.6785 O   0  0  0  0  0  0  0  0  0  0  0  0
  -31.4326  -23.6523   20.3580 O   0  0  0  0  0  0  0  0  0  0  0  0
  -31.8460  -14.9616   20.1834 O   0  0  0  0  0  0  0  0  0  0  0  0
  -21.6295   -7.0120   21.7291 O   0  0  0  0  0  0  0  0  0  0  0  0
  -36.3418  -20.0711   23.4283 O   0  0  0  0  0  0  0  0  0  1  0  0
  -18.6273   -6.8718   26.3521 F   0  0  0  0  0  0  0  0  0  0  0  0
  -22.0824   -5.0825   23.6565 F   0  0  0  0  0  0  0  0  0  0  0  0
  1  2  1  0  0  0  0
  1  5  2  0  0  0  0
  2  6  2  0  0  0  0
  3 10  2  0  0  0  0
  3 18  1  0  0  0  0
  4 11  1  0  0  0  0
  4 18  2  0  0  0  0
  5 20  1  0  0  0  0
  6 22  1  0  0  0  0
  7 12  2  0  0  0  0
  7 21  1  0  0  0  0
  8  9  2  0  0  0  0
  8 24  1  0  0  0  0
  9 26  1  0  0  0  0
 10 27  1  0  0  0  0
 11 27  2  0  0  0  0
 12 28  1  0  0  0  0
 13 14  2  0  0  0  0
 13 29  1  0  0  0  0
 14 30  1  0  0  0  0
 15 23  1  0  0  0  0
 15 28  2  0  0  0  0
 16 25  1  0  0  0  0
 16 26  2  0  0  0  0
 17 30  2  0  0  0  0
 17 31  1  0  0  0  0
 18 32  1  0  0  0  0
 19 32  1  0  0  0  0
 19 33  2  0  0  0  0
 19 38  1  0  0  0  0
 20 22  2  0  0  0  0
 20 43  1  0  0  0  0
 21 23  2  0  0  0  0
 21 44  1  0  0  0  0
 22 53  1  0  0  0  0
 23 45  1  0  0  0  0
 24 25  2  0  0  0  0
 24 57  1  0  0  0  0
 25 69  1  0  0  0  0
 26 74  1  0  0  0  0
 27 83  1  0  0  0  0
 28 84  1  0  0  0  0
 29 31  2  0  0  0  0
 29 83  1  0  0  0  0
 30 85  1  0  0  0  0
 31 86  1  0  0  0  0
 32 67  2  0  0  0  0
 33 68  1  0  0  0  0
 33 72  1  0  0  0  0
 34 35  2  0  0  0  0
 34 69  1  0  0  0  0
 35 37  1  0  0  0  0
 35 54  1  0  0  0  0
 36 37  2  0  0  0  0
 38 73  1  0  0  0  0
 38 78  2  0  0  0  0
 39 55  1  0  0  0  0
 39 75  1  0  0  0  0
 39 79  2  0  0  0  0
 40 64  1  0  0  0  0
 40 70  1  0  0  0  0
 40 80  2  0  0  0  0
 41 65  1  0  0  0  0
 41 76  1  0  0  0  0
 41 81  2  0  0  0  0
 42 71  1  0  0  0  0
 42 74  1  0  0  0  0
 42 82  2  0  0  0  0
 43 46  1  0  0  0  0
 44 55  1  0  0  0  0
 45 70  1  0  0  0  0
 46 48  1  0  0  0  0
 47 49  1  0  0  0  0
 47 50  1  0  0  0  0
 48 53  1  0  0  0  0
 49 56  1  0  0  0  0
 50 71  1  0  0  0  0
 51 54  1  0  0  0  0
 51 69  1  0  0  0  0
 52 56  1  0  0  0  0
 52 71  1  0  0  0  0
 53 75  1  0  0  0  0
 54 63  1  0  0  0  0
 55 70  1  0  0  0  0
 56 68  1  0  0  0  0
 58 65  1  0  0  0  0
 59 66  1  0  0  0  0
 60 66  1  0  0  0  0
 61 66  1  0  0  0  0
 62 77  1  0  0  0  0
 63 84  1  0  0  0  0
 64 66  1  0  0  0  0
 64 76  1  0  0  0  0
 65 77  1  0  0  0  0
 67 68  1  0  0  0  0
M  CHG  1  77   1
M  ISO  4  42 100  63 101  74 100  84 101
M  END
> <Batch ID>
0065

> <Smiles>
C=CC1=CN(c2cc([100NH:0][100C:0](=O)N3CCCC(n4nc(-c5ccc(Oc6ccc(F)cc6F)cc5)c(C(N)=O)c4N)C3)ccc2C)CC1[101CH2:1][101O:1]c1ccc2c(c1)CN(C(=O)C(NC(=O)C(C)NC)C(C)(C)C)C(C(=O)NC1CCCc3ccccc31)C2

> <Shape>
0.201

> <Color>
0.192

> <Negative vol penalty>
0.000

$$$$

  -OEChem-04042323183D

 92102  0     1  0  0  0  0  0999 V2000
  -23.2086  -37.7267   20.4912 C   0  0  0  0  0  0  0  0  0  0  0  0
  -24.0174  -36.8684   19.7531 C   0  0  0  0  0  0  0  0  0  0  0  0
  -24.6123  -10.7448   23.2782 C   0  0  0  0  0  0  0  0  0  0  0  0
  -24.8828  -12.9312   24.2700 C   0  0  0  0  0  0  0  0  0  0  0  0
  -22.8843  -37.4145   21.8107 C   0  0  0  0  0  0  0  0  0  0  0  0
  -24.5032  -35.6979   20.3347 C   0  0  0  0  0  0  0  0  0  0  0  0
  -26.2378  -28.9466   18.6829 C   0  0  0  0  0  0  0  0  0  0  0  0
  -24.4588  -10.1879   24.5477 C   0  0  0  0  0  0  0  0  0  0  0  0
  -24.7292  -12.3742   25.5396 C   0  0  0  0  0  0  0  0  0  0  0  0
  -27.2920  -28.0433   18.8110 C   0  0  0  0  0  0  0  0  0  0  0  0
  -22.0204   -9.9285   26.8757 C   0  0  0  0  0  0  0  0  0  0  0  0
  -20.9875   -9.0094   27.0598 C   0  0  0  0  0  0  0  0  0  0  0  0
  -28.3226  -22.0297   22.1254 C   0  0  0  0  0  0  0  0  0  0  0  0
  -29.2917  -20.2022   20.8773 C   0  0  0  0  0  0  0  0  0  0  0  0
  -26.6013  -27.5674   21.0728 C   0  0  0  0  0  0  0  0  0  0  0  0
  -26.9842  -20.0923   21.5848 C   0  0  0  0  0  0  0  0  0  0  0  0
  -22.5994   -7.3245   27.6922 C   0  0  0  0  0  0  0  0  0  0  0  0
  -24.8244  -12.1165   23.1393 C   0  0  0  0  0  0  0  0  0  0  0  0
  -29.4148  -21.4571   21.4736 C   0  0  0  0  0  0  0  0  0  0  0  0
  -24.0552  -12.6673   20.7702 C   0  0  0  0  0  0  0  0  0  0  0  0
  -23.3585  -36.2348   22.4057 C   0  0  0  0  0  0  0  0  0  0  0  0
  -25.3625  -29.1756   19.7543 C   0  0  0  0  0  0  0  0  0  0  0  0
  -24.1860  -35.3703   21.6639 C   0  0  0  0  0  0  0  0  0  0  0  0
  -25.5353  -28.4722   20.9549 C   0  0  0  0  0  0  0  0  0  0  0  0
  -27.1073  -21.3473   22.1811 C   0  0  0  0  0  0  0  0  0  0  0  0
  -28.0764  -19.5197   20.9329 C   0  0  0  0  0  0  0  0  0  0  0  0
  -24.5172  -11.0026   25.6784 C   0  0  0  0  0  0  0  0  0  0  0  0
  -27.4756  -27.3557   20.0071 C   0  0  0  0  0  0  0  0  0  0  0  0
  -23.3428   -9.5456   27.0998 C   0  0  0  0  0  0  0  0  0  0  0  0
  -21.2769   -7.7074   27.4681 C   0  0  0  0  0  0  0  0  0  0  0  0
  -23.6323   -8.2436   27.5081 C   0  0  0  0  0  0  0  0  0  0  0  0
  -24.9836  -12.6923   21.8281 C   0  0  0  0  0  0  0  0  0  0  0  0
  -24.6776  -13.3460   19.7511 C   0  0  0  0  0  0  0  0  0  0  0  0
  -24.7062  -21.3712   22.9873 C   0  0  0  0  0  0  0  0  0  0  0  0
  -29.8834  -23.9403   19.7404 C   0  0  0  0  0  0  0  0  0  0  0  0
  -30.6967  -22.1771   21.4148 C   0  0  0  0  0  0  0  0  0  0  0  0
  -22.7472  -12.0829   20.7137 C   0  0  0  0  0  0  0  0  0  0  0  0
  -24.5999  -31.7011   21.5275 C   0  0  0  0  0  0  0  0  0  0  0  0
  -22.3880  -29.6761   22.7642 C   0  0  0  0  0  0  0  0  0  0  0  0
  -21.4242  -26.4593   23.3727 C   0  0  0  0  0  0  0  0  0  0  0  0
  -28.9366  -17.5358   19.6406 C   0  0  0  0  0  0  0  0  0  0  0  0
  -23.0199  -35.9633   23.8501 C   0  0  0  0  0  0  0  0  0  0  0  0
  -24.2142  -30.1334   19.5910 C   0  0  0  0  0  0  0  0  0  0  0  0
  -24.6112  -28.6670   22.1282 C   0  0  0  0  0  0  0  0  0  0  0  0
  -23.8392  -22.4015   23.6747 C   0  0  0  0  0  0  0  0  0  0  0  0
  -23.2681  -34.5176   24.2725 C   0  0  0  0  0  0  0  0  0  0  0  0
  -24.8455  -23.3180   24.3413 C   0  0  0  0  0  0  0  0  0  0  0  0
  -29.0338  -14.3577   18.0381 C   0  0  0  0  0  0  0  0  0  0  0  0
  -24.6333  -34.0451   23.7828 C   0  0  0  0  0  0  0  0  0  0  0  0
  -27.9177  -13.5697   18.7277 C   0  0  0  0  0  0  0  0  0  0  0  0
  -31.2605  -25.6988   20.5708 C   0  0  0  0  0  0  0  0  0  0  0  0
  -26.0369  -23.2696   23.4076 C   0  0  0  0  0  0  0  0  0  0  0  0
  -29.7646  -15.2781   19.0141 C   0  0  0  0  0  0  0  0  0  0  0  0
  -31.7749  -24.3725   21.0825 C   0  0  0  0  0  0  0  0  0  0  0  0
  -27.7824  -15.3930   20.4725 C   0  0  0  0  0  0  0  0  0  0  0  0
  -24.7121  -34.0788   22.2517 C   0  0  1  0  0  0  0  0  0  0  0  0
  -30.4406  -25.2988   19.3499 C   0  0  2  0  0  0  0  0  0  0  0  0
  -23.6908  -30.6707   20.9195 C   0  0  1  0  0  0  0  0  0  0  0  0
  -26.9752  -14.5001   19.5161 C   0  0  2  0  0  0  0  0  0  0  0  0
  -19.5862  -25.1210   24.4346 C   0  0  0  0  0  0  0  0  0  0  0  0
  -23.4895  -30.3595   25.5264 C   0  0  0  0  0  0  0  0  0  0  0  0
  -22.3068  -28.3422   26.4205 C   0  0  0  0  0  0  0  0  0  0  0  0
  -20.9962  -30.2066   25.4062 C   0  0  0  0  0  0  0  0  0  0  0  0
  -20.7506  -25.1362   20.8125 C   0  0  0  0  0  0  0  0  0  0  0  0
  -29.3569  -26.3020   19.0038 C   0  0  0  0  0  0  0  0  0  1  0  0
  -22.3605  -28.6930   23.9095 C   0  0  1  0  0  0  0  0  0  0  0  0
  -20.1047  -25.7434   23.1476 C   0  0  2  0  0  0  0  0  0  0  0  0
  -22.3070  -29.3979   25.2944 C   0  0  0  0  0  0  0  0  0  0  0  0
  -26.1102  -13.3358   21.5104 N   0  0  0  0  0  0  0  0  0  0  0  0
  -25.8937  -13.7214   20.2414 N   0  0  0  0  0  0  0  0  0  0  0  0
  -25.9905  -21.9328   22.8476 N   0  0  0  0  0  0  0  0  0  0  0  0
  -30.7080  -23.4352   20.7874 N   0  0  0  0  0  0  0  0  0  0  0  0
  -23.5071  -29.6188   21.9216 N   0  0  0  0  0  0  0  0  0  0  0  0
  -28.8088  -16.1329   19.7215 N   0  0  0  0  0  0  0  0  0  0  0  0
  -24.2978  -13.6523   18.4924 N   0  0  0  0  0  0  0  0  0  0  0  0
  -22.2609  -11.4224   21.8502 N   0  0  0  0  0  0  0  0  0  0  0  0
  -27.9515  -18.2450   20.3269 N   0  0  0  0  0  0  0  0  0  0  0  0
  -24.0161  -32.9436   21.6847 N   0  0  0  0  0  0  0  0  0  0  0  0
  -21.2386  -27.7969   23.6515 N   0  0  0  0  0  0  0  0  0  0  0  0
  -20.2680  -24.6622   22.1351 N   0  3  0  0  0  0  0  0  0  0  0  0
  -24.2703  -20.2958   22.6030 O   0  0  0  0  0  0  0  0  0  0  0  0
  -28.9349  -23.3996   19.1905 O   0  0  0  0  0  0  0  0  0  0  0  0
  -31.6829  -21.6232   21.8972 O   0  0  0  0  0  0  0  0  0  0  0  0
  -22.0375  -12.1304   19.6805 O   0  0  0  0  0  0  0  0  0  0  0  0
  -25.7455  -31.3913   21.8327 O   0  0  0  0  0  0  0  0  0  0  0  0
  -21.4476  -30.4610   22.6183 O   0  0  0  0  0  0  0  0  0  0  0  0
  -22.5108  -25.8882   23.3112 O   0  0  0  0  0  0  0  0  0  0  0  0
  -29.8367  -18.0687   18.9865 O   0  0  0  0  0  0  0  0  0  0  0  0
  -24.3672  -10.4595   26.9174 O   0  0  0  0  0  0  0  0  0  0  0  0
  -28.5042  -26.4739   20.1350 O   0  0  0  0  0  0  0  0  0  1  0  0
  -20.2848   -6.8253   27.6463 F   0  0  0  0  0  0  0  0  0  0  0  0
  -24.9008   -7.8703   27.7261 F   0  0  0  0  0  0  0  0  0  0  0  0
  1  2  1  0  0  0  0
  1  5  2  0  0  0  0
  2  6  2  0  0  0  0
  3  8  2  0  0  0  0
  3 18  1  0  0  0  0
  4  9  1  0  0  0  0
  4 18  2  0  0  0  0
  5 21  1  0  0  0  0
  6 23  1  0  0  0  0
  7 10  2  0  0  0  0
  7 22  1  0  0  0  0
  8 27  1  0  0  0  0
  9 27  2  0  0  0  0
 10 28  1  0  0  0  0
 11 12  2  0  0  0  0
 11 29  1  0  0  0  0
 12 30  1  0  0  0  0
 13 19  2  0  0  0  0
 13 25  1  0  0  0  0
 14 19  1  0  0  0  0
 14 26  2  0  0  0  0
 15 24  1  0  0  0  0
 15 28  2  0  0  0  0
 16 25  2  0  0  0  0
 16 26  1  0  0  0  0
 17 30  2  0  0  0  0
 17 31  1  0  0  0  0
 18 32  1  0  0  0  0
 19 36  1  0  0  0  0
 20 32  1  0  0  0  0
 20 33  2  0  0  0  0
 20 37  1  0  0  0  0
 21 23  2  0  0  0  0
 21 42  1  0  0  0  0
 22 24  2  0  0  0  0
 22 43  1  0  0  0  0
 23 56  1  0  0  0  0
 24 44  1  0  0  0  0
 25 71  1  0  0  0  0
 26 77  1  0  0  0  0
 27 89  1  0  0  0  0
 28 90  1  0  0  0  0
 29 31  2  0  0  0  0
 29 89  1  0  0  0  0
 30 91  1  0  0  0  0
 31 92  1  0  0  0  0
 32 69  2  0  0  0  0
 33 70  1  0  0  0  0
 33 75  1  0  0  0  0
 34 45  1  0  0  0  0
 34 71  1  0  0  0  0
 34 81  2  0  0  0  0
 35 57  1  0  0  0  0
 35 72  1  0  0  0  0
 35 82  2  0  0  0  0
 36 72  1  0  0  0  0
 36 83  2  0  0  0  0
 37 76  1  0  0  0  0
 37 84  2  0  0  0  0
 38 58  1  0  0  0  0
 38 78  1  0  0  0  0
 38 85  2  0  0  0  0
 39 66  1  0  0  0  0
 39 73  1  0  0  0  0
 39 86  2  0  0  0  0
 40 67  1  0  0  0  0
 40 79  1  0  0  0  0
 40 87  2  0  0  0  0
 41 74  1  0  0  0  0
 41 77  1  0  0  0  0
 41 88  2  0  0  0  0
 42 46  1  0  0  0  0
 43 58  1  0  0  0  0
 44 73  1  0  0  0  0
 45 47  1  0  0  0  0
 46 49  1  0  0  0  0
 47 52  1  0  0  0  0
 48 50  1  0  0  0  0
 48 53  1  0  0  0  0
 49 56  1  0  0  0  0
 50 59  1  0  0  0  0
 51 54  1  0  0  0  0
 51 57  1  0  0  0  0
 52 71  1  0  0  0  0
 53 74  1  0  0  0  0
 54 72  1  0  0  0  0
 55 59  1  0  0  0  0
 55 74  1  0  0  0  0
 56 78  1  0  0  0  0
 57 65  1  0  0  0  0
 58 73  1  0  0  0  0
 59 70  1  0  0  0  0
 60 67  1  0  0  0  0
 61 68  1  0  0  0  0
 62 68  1  0  0  0  0
 63 68  1  0  0  0  0
 64 80  1  0  0  0  0
 65 90  1  0  0  0  0
 66 68  1  0  0  0  0
 66 79  1  0  0  0  0
 67 80  1  0  0  0  0
 69 70  1  0  0  0  0
M  CHG  1  80   1
M  ISO  4  41 100  65 101  77 100  90 101
M  END
> <Batch ID>
0065

> <Smiles>
CNC(C)C(=O)NC(C(=O)N1Cc2cc([101O:1][101CH2:1]C3CCN(C(=O)c4cc([100NH:0][100C:0](=O)N5CCCC(n6nc(-c7ccc(Oc8ccc(F)cc8F)cc7)c(C(N)=O)c6N)C5)cc(N5CCCC5=O)c4)C3=O)ccc2CC1C(=O)NC1CCCc2ccccc21)C(C)(C)C

> <Shape>
0.245

> <Color>
0.079

> <Negative vol penalty>
0.000

$$$$

  -OEChem-04042323183D

 85 94  0     1  0  0  0  0  0999 V2000
  -18.9411  -16.3796   17.7903 C   0  0  0  0  0  0  0  0  0  0  0  0
  -19.9960  -16.3159   18.6951 C   0  0  0  0  0  0  0  0  0  0  0  0
  -23.0054   -9.8865   19.9835 C   0  0  0  0  0  0  0  0  0  0  0  0
  -23.7209   -9.9495   22.2902 C   0  0  0  0  0  0  0  0  0  0  0  0
  -18.2944  -17.5931   17.5596 C   0  0  0  0  0  0  0  0  0  0  0  0
  -20.4055  -17.4660   19.3689 C   0  0  0  0  0  0  0  0  0  0  0  0
  -22.5467  -17.8114   25.0962 C   0  0  0  0  0  0  0  0  0  0  0  0
  -22.2389   -8.7525   20.2522 C   0  0  0  0  0  0  0  0  0  0  0  0
  -22.9544   -8.8156   22.5590 C   0  0  0  0  0  0  0  0  0  0  0  0
  -23.8403  -17.8820   25.6113 C   0  0  0  0  0  0  0  0  0  0  0  0
  -23.2040   -5.4746   22.1046 C   0  0  0  0  0  0  0  0  0  0  0  0
  -23.7894   -4.4617   22.8641 C   0  0  0  0  0  0  0  0  0  0  0  0
  -23.6560  -20.2843   25.7290 C   0  0  0  0  0  0  0  0  0  0  0  0
  -29.8636  -17.4639   23.0923 C   0  0  0  0  0  0  0  0  0  0  0  0
  -31.8301  -18.3664   24.1672 C   0  0  0  0  0  0  0  0  0  0  0  0
  -32.0449  -16.5653   22.5713 C   0  0  0  0  0  0  0  0  0  0  0  0
  -22.0583   -4.7112   24.5310 C   0  0  0  0  0  0  0  0  0  0  0  0
  -23.7465  -10.4850   21.0025 C   0  0  0  0  0  0  0  0  0  0  0  0
  -24.1300  -13.0000   20.8157 C   0  0  0  0  0  0  0  0  0  0  0  0
  -18.6899  -18.7566   18.2382 C   0  0  0  0  0  0  0  0  0  0  0  0
  -21.8008  -18.9796   24.8830 C   0  0  0  0  0  0  0  0  0  0  0  0
  -19.7643  -18.6964   19.1461 C   0  0  0  0  0  0  0  0  0  0  0  0
  -22.3522  -20.2257   25.2135 C   0  0  0  0  0  0  0  0  0  0  0  0
  -30.4475  -18.3651   23.9825 C   0  0  0  0  0  0  0  0  0  0  0  0
  -30.6624  -16.5640   22.3867 C   0  0  0  0  0  0  0  0  0  0  0  0
  -22.2134   -8.2171   21.5400 C   0  0  0  0  0  0  0  0  0  0  0  0
  -24.3962  -19.1187   25.9251 C   0  0  0  0  0  0  0  0  0  0  0  0
  -22.0458   -6.1059   22.5583 C   0  0  0  0  0  0  0  0  0  0  0  0
  -23.2166   -4.0800   24.0773 C   0  0  0  0  0  0  0  0  0  0  0  0
  -32.6288  -17.4665   23.4616 C   0  0  0  0  0  0  0  0  0  0  0  0
  -21.4729   -5.7241   23.7714 C   0  0  0  0  0  0  0  0  0  0  0  0
  -24.5389  -11.6560   20.7254 C   0  0  0  0  0  0  0  0  0  0  0  0
  -25.2406  -13.7219   20.4523 C   0  0  0  0  0  0  0  0  0  0  0  0
  -30.0028  -20.5690   25.1472 C   0  0  0  0  0  0  0  0  0  0  0  0
  -22.8599  -13.5471   21.1942 C   0  0  0  0  0  0  0  0  0  0  0  0
  -20.5279  -20.3950   22.3375 C   0  0  0  0  0  0  0  0  0  0  0  0
  -19.2672  -22.3907   24.5624 C   0  0  0  0  0  0  0  0  0  0  0  0
  -19.4692  -23.7401   27.6905 C   0  0  0  0  0  0  0  0  0  0  0  0
  -30.7181  -14.6897   20.7043 C   0  0  0  0  0  0  0  0  0  0  0  0
  -17.9914  -20.0551   17.9206 C   0  0  0  0  0  0  0  0  0  0  0  0
  -20.3968  -18.8846   24.3518 C   0  0  0  0  0  0  0  0  0  0  0  0
  -21.5855  -21.5080   25.0225 C   0  0  0  0  0  0  0  0  0  0  0  0
  -28.7813  -21.2026   25.7728 C   0  0  0  0  0  0  0  0  0  0  0  0
  -18.2422  -21.1502   18.9541 C   0  0  0  0  0  0  0  0  0  0  0  0
  -29.6119  -12.2243   18.3859 C   0  0  0  0  0  0  0  0  0  0  0  0
  -19.7262  -21.2305   19.2975 C   0  0  0  0  0  0  0  0  0  0  0  0
  -28.1598  -11.9672   18.7953 C   0  0  0  0  0  0  0  0  0  0  0  0
  -30.5071  -12.4745   19.5981 C   0  0  0  0  0  0  0  0  0  0  0  0
  -28.2390  -19.0099   25.0077 C   0  0  0  0  0  0  0  0  0  0  0  0
  -28.5855  -13.2680   20.9198 C   0  0  0  0  0  0  0  0  0  0  0  0
  -20.2215  -19.9171   19.9150 C   0  0  1  0  0  0  0  0  0  0  0  0
  -19.9186  -20.1749   23.6932 C   0  0  1  0  0  0  0  0  0  0  0  0
  -27.8878  -20.0134   26.0954 C   0  0  2  0  0  0  0  0  0  0  0  0
  -27.6329  -13.0748   19.7286 C   0  0  2  0  0  0  0  0  0  0  0  0
  -18.3169  -25.3706   29.2107 C   0  0  0  0  0  0  0  0  0  0  0  0
  -20.4648  -24.7086   22.9802 C   0  0  0  0  0  0  0  0  0  0  0  0
  -20.1198  -26.1653   24.9870 C   0  0  0  0  0  0  0  0  0  0  0  0
  -18.1579  -25.1228   23.8526 C   0  0  0  0  0  0  0  0  0  0  0  0
  -18.9041  -21.6437   29.7015 C   0  0  0  0  0  0  0  0  0  0  0  0
  -26.4108  -20.3661   26.1291 C   0  0  0  0  0  0  0  0  0  1  0  0
  -19.7120  -23.6735   25.2225 C   0  0  1  0  0  0  0  0  0  0  0  0
  -18.4277  -23.9161   28.7808 C   0  0  2  0  0  0  0  0  0  0  0  0
  -19.6291  -24.8937   24.2624 C   0  0  0  0  0  0  0  0  0  0  0  0
  -25.8100  -11.5288   20.3351 N   0  0  0  0  0  0  0  0  0  0  0  0
  -26.2093  -12.8022   20.1769 N   0  0  0  0  0  0  0  0  0  0  0  0
  -29.6308  -19.2857   24.7049 N   0  0  0  0  0  0  0  0  0  0  0  0
  -20.2189  -21.3633   24.4943 N   0  0  0  0  0  0  0  0  0  0  0  0
  -29.9476  -13.5391   20.4339 N   0  0  0  0  0  0  0  0  0  0  0  0
  -25.4732  -15.0474   20.3447 N   0  0  0  0  0  0  0  0  0  0  0  0
  -21.8276  -12.6636   21.5378 N   0  0  0  0  0  0  0  0  0  0  0  0
  -30.0696  -15.6481   21.4825 N   0  0  0  0  0  0  0  0  0  0  0  0
  -19.8142  -19.8249   21.3006 N   0  0  0  0  0  0  0  0  0  0  0  0
  -18.9086  -23.8096   26.4326 N   0  0  0  0  0  0  0  0  0  0  0  0
  -18.7847  -23.0990   29.9749 N   0  3  0  0  0  0  0  0  0  0  0  0
  -31.0652  -21.1635   25.0349 O   0  0  0  0  0  0  0  0  0  0  0  0
  -22.6419  -14.7823   21.2110 O   0  0  0  0  0  0  0  0  0  0  0  0
  -21.5677  -21.0360   22.2392 O   0  0  0  0  0  0  0  0  0  0  0  0
  -18.1155  -22.3010   24.1297 O   0  0  0  0  0  0  0  0  0  0  0  0
  -20.6615  -23.5628   27.9305 O   0  0  0  0  0  0  0  0  0  0  0  0
  -31.8585  -14.8275   20.2543 O   0  0  0  0  0  0  0  0  0  0  0  0
  -21.4653   -7.1107   21.8027 O   0  0  0  0  0  0  0  0  0  0  0  0
  -25.6590  -19.1904   26.4274 O   0  0  0  0  0  0  0  0  0  1  0  0
  -23.7780   -3.1062   24.8058 F   0  0  0  0  0  0  0  0  0  0  0  0
  -33.9565  -17.4671   23.6393 F   0  0  0  0  0  0  0  0  0  0  0  0
  -20.3596   -6.3260   24.2119 F   0  0  0  0  0  0  0  0  0  0  0  0
  1  2  1  0  0  0  0
  1  5  2  0  0  0  0
  2  6  2  0  0  0  0
  3  8  2  0  0  0  0
  3 18  1  0  0  0  0
  4  9  1  0  0  0  0
  4 18  2  0  0  0  0
  5 20  1  0  0  0  0
  6 22  1  0  0  0  0
  7 10  2  0  0  0  0
  7 21  1  0  0  0  0
  8 26  1  0  0  0  0
  9 26  2  0  0  0  0
 10 27  1  0  0  0  0
 11 12  2  0  0  0  0
 11 28  1  0  0  0  0
 12 29  1  0  0  0  0
 13 23  1  0  0  0  0
 13 27  2  0  0  0  0
 14 24  2  0  0  0  0
 14 25  1  0  0  0  0
 15 24  1  0  0  0  0
 15 30  2  0  0  0  0
 16 25  2  0  0  0  0
 16 30  1  0  0  0  0
 17 29  2  0  0  0  0
 17 31  1  0  0  0  0
 18 32  1  0  0  0  0
 19 32  1  0  0  0  0
 19 33  2  0  0  0  0
 19 35  1  0  0  0  0
 20 22  2  0  0  0  0
 20 40  1  0  0  0  0
 21 23  2  0  0  0  0
 21 41  1  0  0  0  0
 22 51  1  0  0  0  0
 23 42  1  0  0  0  0
 24 66  1  0  0  0  0
 25 71  1  0  0  0  0
 26 81  1  0  0  0  0
 27 82  1  0  0  0  0
 28 31  2  0  0  0  0
 28 81  1  0  0  0  0
 29 83  1  0  0  0  0
 30 84  1  0  0  0  0
 31 85  1  0  0  0  0
 32 64  2  0  0  0  0
 33 65  1  0  0  0  0
 33 69  1  0  0  0  0
 34 43  1  0  0  0  0
 34 66  1  0  0  0  0
 34 75  2  0  0  0  0
 35 70  1  0  0  0  0
 35 76  2  0  0  0  0
 36 52  1  0  0  0  0
 36 72  1  0  0  0  0
 36 77  2  0  0  0  0
 37 61  1  0  0  0  0
 37 67  1  0  0  0  0
 37 78  2  0  0  0  0
 38 62  1  0  0  0  0
 38 73  1  0  0  0  0
 38 79  2  0  0  0  0
 39 68  1  0  0  0  0
 39 71  1  0  0  0  0
 39 80  2  0  0  0  0
 40 44  1  0  0  0  0
 41 52  1  0  0  0  0
 42 67  1  0  0  0  0
 43 53  1  0  0  0  0
 44 46  1  0  0  0  0
 45 47  1  0  0  0  0
 45 48  1  0  0  0  0
 46 51  1  0  0  0  0
 47 54  1  0  0  0  0
 48 68  1  0  0  0  0
 49 53  1  0  0  0  0
 49 66  1  0  0  0  0
 50 54  1  0  0  0  0
 50 68  1  0  0  0  0
 51 72  1  0  0  0  0
 52 67  1  0  0  0  0
 53 60  1  0  0  0  0
 54 65  1  0  0  0  0
 55 62  1  0  0  0  0
 56 63  1  0  0  0  0
 57 63  1  0  0  0  0
 58 63  1  0  0  0  0
 59 74  1  0  0  0  0
 60 82  1  0  0  0  0
 61 63  1  0  0  0  0
 61 73  1  0  0  0  0
 62 74  1  0  0  0  0
 64 65  1  0  0  0  0
M  CHG  1  74   1
M  ISO  4  39 100  60 101  71 100  82 101
M  END
> <Batch ID>
0065

> <Smiles>
CNC(C)C(=O)NC(C(=O)N1Cc2cc([101O:1][101CH2:1]C3CC(=O)N(c4cc(F)cc([100NH:0][100C:0](=O)N5CCCC(n6nc(-c7ccc(Oc8ccc(F)cc8F)cc7)c(C(N)=O)c6N)C5)c4)C3)ccc2CC1C(=O)NC1CCCc2ccccc21)C(C)(C)C

> <Shape>
0.176

> <Color>
0.198

> <Negative vol penalty>
0.000

$$$$

  -OEChem-04042323183D

 85 93  0     1  0  0  0  0  0999 V2000
  -23.4484  -37.9047   19.9366 C   0  0  0  0  0  0  0  0  0  0  0  0
  -24.0432  -36.9151   19.1605 C   0  0  0  0  0  0  0  0  0  0  0  0
  -27.0202  -13.6902   20.3733 C   0  0  0  0  0  0  0  0  0  0  0  0
  -24.6736  -14.1159   19.9866 C   0  0  0  0  0  0  0  0  0  0  0  0
  -23.4392  -37.7881   21.3259 C   0  0  0  0  0  0  0  0  0  0  0  0
  -24.6302  -35.8087   19.7735 C   0  0  0  0  0  0  0  0  0  0  0  0
  -25.7957  -28.8170   18.7372 C   0  0  0  0  0  0  0  0  0  0  0  0
  -26.7787  -12.3172   20.3276 C   0  0  0  0  0  0  0  0  0  0  0  0
  -24.4321  -12.7428   19.9409 C   0  0  0  0  0  0  0  0  0  0  0  0
  -26.8328  -27.8853   18.7445 C   0  0  0  0  0  0  0  0  0  0  0  0
  -23.1370   -9.3497   20.0808 C   0  0  0  0  0  0  0  0  0  0  0  0
  -22.0328   -8.8621   20.7797 C   0  0  0  0  0  0  0  0  0  0  0  0
  -26.6872  -27.7508   21.1486 C   0  0  0  0  0  0  0  0  0  0  0  0
  -30.4990  -19.6730   21.1328 C   0  0  0  0  0  0  0  0  0  0  0  0
  -29.4570  -20.6521   23.0802 C   0  0  0  0  0  0  0  0  0  0  0  0
  -22.9614   -9.7140   22.8411 C   0  0  0  0  0  0  0  0  0  0  0  0
  -25.9676  -14.5896   20.2029 C   0  0  0  0  0  0  0  0  0  0  0  0
  -26.5466  -16.8499   19.1716 C   0  0  0  0  0  0  0  0  0  0  0  0
  -24.0178  -36.6749   21.9557 C   0  0  0  0  0  0  0  0  0  0  0  0
  -25.2029  -29.2315   19.9386 C   0  0  0  0  0  0  0  0  0  0  0  0
  -24.6299  -35.6777   21.1726 C   0  0  0  0  0  0  0  0  0  0  0  0
  -25.6410  -28.6860   21.1537 C   0  0  0  0  0  0  0  0  0  0  0  0
  -30.7147  -18.4915   21.8421 C   0  0  0  0  0  0  0  0  0  0  0  0
  -30.3015  -18.3903   23.1706 C   0  0  0  0  0  0  0  0  0  0  0  0
  -29.8702  -20.7533   21.7518 C   0  0  0  0  0  0  0  0  0  0  0  0
  -29.6726  -19.4706   23.7896 C   0  0  0  0  0  0  0  0  0  0  0  0
  -25.4846  -11.8435   20.1114 C   0  0  0  0  0  0  0  0  0  0  0  0
  -27.2807  -27.3542   19.9505 C   0  0  0  0  0  0  0  0  0  0  0  0
  -24.1534  -10.0195   20.7620 C   0  0  0  0  0  0  0  0  0  0  0  0
  -21.9450   -9.0442   22.1599 C   0  0  0  0  0  0  0  0  0  0  0  0
  -24.0656  -10.2017   22.1421 C   0  0  0  0  0  0  0  0  0  0  0  0
  -26.2164  -16.0080   20.2505 C   0  0  0  0  0  0  0  0  0  0  0  0
  -26.6787  -18.0952   19.7358 C   0  0  0  0  0  0  0  0  0  0  0  0
  -26.7186  -16.5344   17.7836 C   0  0  0  0  0  0  0  0  0  0  0  0
  -24.9295  -32.0065   21.4645 C   0  0  0  0  0  0  0  0  0  0  0  0
  -28.9485  -24.1906   20.5613 C   0  0  0  0  0  0  0  0  0  0  0  0
  -23.0342  -30.2814   23.4531 C   0  0  0  0  0  0  0  0  0  0  0  0
  -22.1801  -27.2285   24.7168 C   0  0  0  0  0  0  0  0  0  0  0  0
  -27.8951  -19.5442   25.5577 C   0  0  0  0  0  0  0  0  0  0  0  0
  -24.0251  -36.6159   23.4627 C   0  0  0  0  0  0  0  0  0  0  0  0
  -24.0672  -30.2173   19.9116 C   0  0  0  0  0  0  0  0  0  0  0  0
  -25.0243  -29.0828   22.4693 C   0  0  0  0  0  0  0  0  0  0  0  0
  -24.3383  -35.2282   24.0165 C   0  0  0  0  0  0  0  0  0  0  0  0
  -25.1439  -20.7545   23.3992 C   0  0  0  0  0  0  0  0  0  0  0  0
  -25.5398  -34.6247   23.2960 C   0  0  0  0  0  0  0  0  0  0  0  0
  -25.0835  -19.6949   22.3005 C   0  0  0  0  0  0  0  0  0  0  0  0
  -25.6570  -20.1773   24.7150 C   0  0  0  0  0  0  0  0  0  0  0  0
  -26.9209  -18.4332   23.4894 C   0  0  0  0  0  0  0  0  0  0  0  0
  -25.2552  -34.4504   21.7993 C   0  0  1  0  0  0  0  0  0  0  0  0
  -23.8830  -30.9529   21.2354 C   0  0  1  0  0  0  0  0  0  0  0  0
  -26.4454  -18.9988   22.1428 C   0  0  1  0  0  0  0  0  0  0  0  0
  -31.3911  -17.3500   21.1559 C   0  0  0  0  0  0  0  0  0  0  0  0
  -30.5363  -17.1207   23.9277 C   0  0  0  0  0  0  0  0  0  0  0  0
  -20.6198  -26.1404   26.3535 C   0  0  0  0  0  0  0  0  0  0  0  0
  -24.7702  -31.2681   25.7602 C   0  0  0  0  0  0  0  0  0  0  0  0
  -23.7938  -29.4516   27.1799 C   0  0  0  0  0  0  0  0  0  0  0  0
  -22.3166  -31.2300   26.2430 C   0  0  0  0  0  0  0  0  0  0  0  0
  -30.2594  -19.4001   26.2065 C   0  0  0  0  0  0  0  0  0  0  0  0
  -20.8953  -25.6134   22.5955 C   0  0  0  0  0  0  0  0  0  0  0  0
  -29.0155  -23.0926   21.6015 C   0  0  0  0  0  0  0  0  0  0  0  0
  -28.2892  -25.4799   21.0114 C   0  0  0  0  0  0  0  0  0  1  0  0
  -23.2593  -29.4622   24.7010 C   0  0  1  0  0  0  0  0  0  0  0  0
  -20.8312  -26.5584   24.9067 C   0  0  2  0  0  0  0  0  0  0  0  0
  -23.5481  -30.3467   25.9466 C   0  0  0  0  0  0  0  0  0  0  0  0
  -26.1433  -16.6632   21.4122 N   0  0  0  0  0  0  0  0  0  0  0  0
  -26.4296  -17.9299   21.0665 N   0  0  0  0  0  0  0  0  0  0  0  0
  -23.9212  -30.0546   22.3912 N   0  0  0  0  0  0  0  0  0  0  0  0
  -26.9240  -19.4660   24.5383 N   0  0  0  0  0  0  0  0  0  0  0  0
  -26.9826  -19.3045   19.2184 N   0  0  0  0  0  0  0  0  0  0  0  0
  -26.5457  -15.2052   17.3741 N   0  0  0  0  0  0  0  0  0  0  0  0
  -29.6555  -21.9281   21.0454 N   0  0  0  0  0  0  0  0  0  0  0  0
  -24.4233  -33.2875   21.5752 N   0  0  0  0  0  0  0  0  0  0  0  0
  -22.0913  -28.5990   24.8389 N   0  0  0  0  0  0  0  0  0  0  0  0
  -29.2373  -19.3877   25.1623 N   0  0  0  0  0  0  0  0  0  0  0  0
  -20.7300  -25.3451   24.0473 N   0  3  0  0  0  0  0  0  0  0  0  0
  -27.0328  -17.4025   16.9344 O   0  0  0  0  0  0  0  0  0  0  0  0
  -26.1087  -31.6810   21.5371 O   0  0  0  0  0  0  0  0  0  0  0  0
  -29.3958  -24.0569   19.4230 O   0  0  0  0  0  0  0  0  0  0  0  0
  -22.1011  -31.0876   23.4192 O   0  0  0  0  0  0  0  0  0  0  0  0
  -23.2102  -26.5987   24.4870 O   0  0  0  0  0  0  0  0  0  0  0  0
  -27.5854  -19.6878   26.7468 O   0  0  0  0  0  0  0  0  0  0  0  0
  -25.2486  -10.5038   20.0665 O   0  0  0  0  0  0  0  0  0  0  0  0
  -28.2933  -26.4451   19.9604 O   0  0  0  0  0  0  0  0  0  1  0  0
  -20.8838   -8.5772   22.8307 F   0  0  0  0  0  0  0  0  0  0  0  0
  -25.0384  -10.8454   22.8018 F   0  0  0  0  0  0  0  0  0  0  0  0
  1  2  1  0  0  0  0
  1  5  2  0  0  0  0
  2  6  2  0  0  0  0
  3  8  2  0  0  0  0
  3 17  1  0  0  0  0
  4  9  1  0  0  0  0
  4 17  2  0  0  0  0
  5 19  1  0  0  0  0
  6 21  1  0  0  0  0
  7 10  2  0  0  0  0
  7 20  1  0  0  0  0
  8 27  1  0  0  0  0
  9 27  2  0  0  0  0
 10 28  1  0  0  0  0
 11 12  2  0  0  0  0
 11 29  1  0  0  0  0
 12 30  1  0  0  0  0
 13 22  1  0  0  0  0
 13 28  2  0  0  0  0
 14 23  2  0  0  0  0
 14 25  1  0  0  0  0
 15 25  2  0  0  0  0
 15 26  1  0  0  0  0
 16 30  2  0  0  0  0
 16 31  1  0  0  0  0
 17 32  1  0  0  0  0
 18 32  1  0  0  0  0
 18 33  2  0  0  0  0
 18 34  1  0  0  0  0
 19 21  2  0  0  0  0
 19 40  1  0  0  0  0
 20 22  2  0  0  0  0
 20 41  1  0  0  0  0
 21 49  1  0  0  0  0
 22 42  1  0  0  0  0
 23 24  1  0  0  0  0
 23 52  1  0  0  0  0
 24 26  2  0  0  0  0
 24 53  1  0  0  0  0
 25 71  1  0  0  0  0
 26 74  1  0  0  0  0
 27 82  1  0  0  0  0
 28 83  1  0  0  0  0
 29 31  2  0  0  0  0
 29 82  1  0  0  0  0
 30 84  1  0  0  0  0
 31 85  1  0  0  0  0
 32 65  2  0  0  0  0
 33 66  1  0  0  0  0
 33 69  1  0  0  0  0
 34 70  1  0  0  0  0
 34 76  2  0  0  0  0
 35 50  1  0  0  0  0
 35 72  1  0  0  0  0
 35 77  2  0  0  0  0
 36 60  1  0  0  0  0
 36 61  1  0  0  0  0
 36 78  2  0  0  0  0
 37 62  1  0  0  0  0
 37 67  1  0  0  0  0
 37 79  2  0  0  0  0
 38 63  1  0  0  0  0
 38 73  1  0  0  0  0
 38 80  2  0  0  0  0
 39 68  1  0  0  0  0
 39 74  1  0  0  0  0
 39 81  2  0  0  0  0
 40 43  1  0  0  0  0
 41 50  1  0  0  0  0
 42 67  1  0  0  0  0
 43 45  1  0  0  0  0
 44 46  1  0  0  0  0
 44 47  1  0  0  0  0
 45 49  1  0  0  0  0
 46 51  1  0  0  0  0
 47 68  1  0  0  0  0
 48 51  1  0  0  0  0
 48 68  1  0  0  0  0
 49 72  1  0  0  0  0
 50 67  1  0  0  0  0
 51 66  1  0  0  0  0
 54 63  1  0  0  0  0
 55 64  1  0  0  0  0
 56 64  1  0  0  0  0
 57 64  1  0  0  0  0
 58 74  1  0  0  0  0
 59 75  1  0  0  0  0
 60 71  1  0  0  0  0
 61 83  1  0  0  0  0
 62 64  1  0  0  0  0
 62 73  1  0  0  0  0
 63 75  1  0  0  0  0
 65 66  1  0  0  0  0
M  CHG  1  75   1
M  ISO  4  39 100  61 101  74 100  83 101
M  END
> <Batch ID>
0065

> <Smiles>
CNC(C)C(=O)NC(C(=O)N1Cc2cc([101O:1][101CH2:1]C(=O)CNc3cc(C)c(C)c([100N:0](C)[100C:0](=O)N4CCCC(n5nc(-c6ccc(Oc7ccc(F)cc7F)cc6)c(C(N)=O)c5N)C4)c3)ccc2CC1C(=O)NC1CCCc2ccccc21)C(C)(C)C

> <Shape>
0.234

> <Color>
0.086

> <Negative vol penalty>
0.000

$$$$

  -OEChem-04042323183D

 89 98  0     1  0  0  0  0  0999 V2000
  -25.5378  -26.1150   29.1238 C   0  0  0  0  0  0  0  0  0  0  0  0
  -26.5600  -25.2601   28.7242 C   0  0  0  0  0  0  0  0  0  0  0  0
  -23.4322   -9.7289   21.4781 C   0  0  0  0  0  0  0  0  0  0  0  0
  -24.1264  -10.7560   23.5518 C   0  0  0  0  0  0  0  0  0  0  0  0
  -24.6333  -26.6057   28.1831 C   0  0  0  0  0  0  0  0  0  0  0  0
  -26.6776  -24.8945   27.3837 C   0  0  0  0  0  0  0  0  0  0  0  0
  -31.4554  -25.1204   25.7204 C   0  0  0  0  0  0  0  0  0  0  0  0
  -30.7340  -17.6975   22.6937 C   0  0  0  0  0  0  0  0  0  0  0  0
  -31.4664  -18.0706   23.8206 C   0  0  0  0  0  0  0  0  0  0  0  0
  -22.8087   -8.7064   22.1932 C   0  0  0  0  0  0  0  0  0  0  0  0
  -23.5029   -9.7335   24.2669 C   0  0  0  0  0  0  0  0  0  0  0  0
  -32.3028  -24.0710   26.0735 C   0  0  0  0  0  0  0  0  0  0  0  0
  -19.9246   -8.2615   23.9011 C   0  0  0  0  0  0  0  0  0  0  0  0
  -18.6432   -7.8802   23.5032 C   0  0  0  0  0  0  0  0  0  0  0  0
  -31.9814  -23.0865   23.8948 C   0  0  0  0  0  0  0  0  0  0  0  0
  -32.9766  -19.3343   22.4207 C   0  0  0  0  0  0  0  0  0  0  0  0
  -19.4408   -5.6388   23.0826 C   0  0  0  0  0  0  0  0  0  0  0  0
  -24.0911  -10.7537   22.1574 C   0  0  0  0  0  0  0  0  0  0  0  0
  -24.1658  -13.0290   21.0064 C   0  0  0  0  0  0  0  0  0  0  0  0
  -24.7457  -26.2536   26.8288 C   0  0  0  0  0  0  0  0  0  0  0  0
  -30.8551  -25.1550   24.4536 C   0  0  0  0  0  0  0  0  0  0  0  0
  -25.7729  -25.3799   26.4242 C   0  0  0  0  0  0  0  0  0  0  0  0
  -31.1289  -24.1387   23.5272 C   0  0  0  0  0  0  0  0  0  0  0  0
  -31.1229  -18.1428   21.4303 C   0  0  0  0  0  0  0  0  0  0  0  0
  -32.2441  -18.9611   21.2938 C   0  0  0  0  0  0  0  0  0  0  0  0
  -32.5877  -18.8890   23.6842 C   0  0  0  0  0  0  0  0  0  0  0  0
  -22.8440   -8.7087   23.5876 C   0  0  0  0  0  0  0  0  0  0  0  0
  -32.5636  -23.0524   25.1617 C   0  0  0  0  0  0  0  0  0  0  0  0
  -20.9641   -7.3314   23.8897 C   0  0  0  0  0  0  0  0  0  0  0  0
  -18.4013   -6.5689   23.0939 C   0  0  0  0  0  0  0  0  0  0  0  0
  -20.7222   -6.0201   23.4804 C   0  0  0  0  0  0  0  0  0  0  0  0
  -24.7358  -11.8098   21.4192 C   0  0  0  0  0  0  0  0  0  0  0  0
  -25.1813  -13.6769   20.3465 C   0  0  0  0  0  0  0  0  0  0  0  0
  -34.7139  -19.5514   24.8857 C   0  0  0  0  0  0  0  0  0  0  0  0
  -22.8371  -13.5311   21.2020 C   0  0  0  0  0  0  0  0  0  0  0  0
  -27.8608  -25.1023   23.3883 C   0  0  0  0  0  0  0  0  0  0  0  0
  -29.2847  -25.6148   20.5191 C   0  0  0  0  0  0  0  0  0  0  0  0
  -32.0846  -25.3500   18.5859 C   0  0  0  0  0  0  0  0  0  0  0  0
  -30.5189  -15.2676   19.9930 C   0  0  0  0  0  0  0  0  0  0  0  0
  -23.7158  -26.7715   25.8562 C   0  0  0  0  0  0  0  0  0  0  0  0
  -29.9646  -26.3078   24.0787 C   0  0  0  0  0  0  0  0  0  0  0  0
  -30.5254  -24.1399   22.1473 C   0  0  0  0  0  0  0  0  0  0  0  0
  -35.0714  -19.8212   26.3307 C   0  0  0  0  0  0  0  0  0  0  0  0
  -24.1349  -26.6341   24.3948 C   0  0  0  0  0  0  0  0  0  0  0  0
  -29.7043  -12.0077   18.8158 C   0  0  0  0  0  0  0  0  0  0  0  0
  -24.6963  -25.2408   24.1292 C   0  0  0  0  0  0  0  0  0  0  0  0
  -28.2953  -11.7641   19.3592 C   0  0  0  0  0  0  0  0  0  0  0  0
  -30.5608  -12.7981   19.8025 C   0  0  0  0  0  0  0  0  0  0  0  0
  -28.5564  -13.8234   20.8048 C   0  0  0  0  0  0  0  0  0  0  0  0
  -32.7378  -19.3432   26.1584 C   0  0  0  0  0  0  0  0  0  0  0  0
  -25.9483  -24.9800   24.9752 C   0  0  1  0  0  0  0  0  0  0  0  0
  -29.0011  -25.9741   22.9440 C   0  0  1  0  0  0  0  0  0  0  0  0
  -27.6376  -13.0782   19.8215 C   0  0  2  0  0  0  0  0  0  0  0  0
  -33.7314  -20.1558   26.9925 C   0  0  1  0  0  0  0  0  0  0  0  0
  -32.6780  -19.4516   19.9515 C   0  0  0  0  0  0  0  0  0  0  0  0
  -33.7077  -19.7366   28.4632 C   0  0  0  0  0  0  0  0  0  0  0  0
  -28.3370  -18.3078   18.7230 C   0  0  0  0  0  0  0  0  0  0  0  0
  -32.9318  -25.8200   16.2710 C   0  0  0  0  0  0  0  0  0  0  0  0
  -27.7682  -23.1826   19.4729 C   0  0  0  0  0  0  0  0  0  0  0  0
  -29.3346  -23.1329   17.5204 C   0  0  0  0  0  0  0  0  0  0  0  0
  -27.8636  -25.1139   17.8870 C   0  0  0  0  0  0  0  0  0  0  0  0
  -34.1532  -27.2104   19.5953 C   0  0  0  0  0  0  0  0  0  0  0  0
  -33.4348  -21.6612   26.8826 C   0  0  0  0  0  0  0  0  0  1  0  0
  -29.1851  -18.7260   19.9179 C   0  0  0  0  0  0  0  0  0  0  0  0
  -30.3234  -17.7295   20.2384 C   0  0  2  0  0  0  0  0  0  0  0  0
  -29.8335  -24.7312   19.4250 C   0  0  1  0  0  0  0  0  0  0  0  0
  -32.7873  -26.3524   17.6882 C   0  0  2  0  0  0  0  0  0  0  0  0
  -28.7100  -24.0388   18.6029 C   0  0  0  0  0  0  0  0  0  0  0  0
  -26.0143  -11.6879   21.0522 N   0  0  0  0  0  0  0  0  0  0  0  0
  -26.2560  -12.8389   20.4017 N   0  0  0  0  0  0  0  0  0  0  0  0
  -33.3363  -19.2726   24.8372 N   0  0  0  0  0  0  0  0  0  0  0  0
  -29.6564  -25.2853   21.8303 N   0  0  0  0  0  0  0  0  0  0  0  0
  -29.8810  -14.0334   20.1998 N   0  0  0  0  0  0  0  0  0  0  0  0
  -25.2510  -14.8759   19.7302 N   0  0  0  0  0  0  0  0  0  0  0  0
  -21.9190  -12.7365   21.9021 N   0  0  0  0  0  0  0  0  0  0  0  0
  -27.0953  -25.6495   24.4002 N   0  0  0  0  0  0  0  0  0  0  0  0
  -30.7242  -25.5705   18.6308 N   0  0  0  0  0  0  0  0  0  0  0  0
  -29.8025  -16.3894   20.3920 N   0  0  0  0  0  0  0  0  0  0  0  0
  -34.1471  -26.6569   18.2167 N   0  3  0  0  0  0  0  0  0  0  0  0
  -35.5511  -19.5409   23.9948 O   0  0  0  0  0  0  0  0  0  0  0  0
  -22.4701  -14.6440   20.7547 O   0  0  0  0  0  0  0  0  0  0  0  0
  -27.6873  -24.0144   22.8516 O   0  0  0  0  0  0  0  0  0  0  0  0
  -28.5591  -26.5667   20.2209 O   0  0  0  0  0  0  0  0  0  0  0  0
  -32.6822  -24.4582   19.1842 O   0  0  0  0  0  0  0  0  0  0  0  0
  -31.6414  -15.3632   19.4850 O   0  0  0  0  0  0  0  0  0  0  0  0
  -22.2355   -7.7113   24.2857 O   0  0  0  0  0  0  0  0  0  0  0  0
  -33.3898  -22.0267   25.5039 O   0  0  0  0  0  0  0  0  0  1  0  0
  -17.1704   -6.2025   22.7133 F   0  0  0  0  0  0  0  0  0  0  0  0
  -21.7165   -5.1218   23.4685 F   0  0  0  0  0  0  0  0  0  0  0  0
  1  2  1  0  0  0  0
  1  5  2  0  0  0  0
  2  6  2  0  0  0  0
  3 10  2  0  0  0  0
  3 18  1  0  0  0  0
  4 11  1  0  0  0  0
  4 18  2  0  0  0  0
  5 20  1  0  0  0  0
  6 22  1  0  0  0  0
  7 12  2  0  0  0  0
  7 21  1  0  0  0  0
  8  9  2  0  0  0  0
  8 24  1  0  0  0  0
  9 26  1  0  0  0  0
 10 27  1  0  0  0  0
 11 27  2  0  0  0  0
 12 28  1  0  0  0  0
 13 14  2  0  0  0  0
 13 29  1  0  0  0  0
 14 30  1  0  0  0  0
 15 23  1  0  0  0  0
 15 28  2  0  0  0  0
 16 25  1  0  0  0  0
 16 26  2  0  0  0  0
 17 30  2  0  0  0  0
 17 31  1  0  0  0  0
 18 32  1  0  0  0  0
 19 32  1  0  0  0  0
 19 33  2  0  0  0  0
 19 35  1  0  0  0  0
 20 22  2  0  0  0  0
 20 40  1  0  0  0  0
 21 23  2  0  0  0  0
 21 41  1  0  0  0  0
 22 51  1  0  0  0  0
 23 42  1  0  0  0  0
 24 25  2  0  0  0  0
 24 65  1  0  0  0  0
 25 55  1  0  0  0  0
 26 71  1  0  0  0  0
 27 86  1  0  0  0  0
 28 87  1  0  0  0  0
 29 31  2  0  0  0  0
 29 86  1  0  0  0  0
 30 88  1  0  0  0  0
 31 89  1  0  0  0  0
 32 69  2  0  0  0  0
 33 70  1  0  0  0  0
 33 74  1  0  0  0  0
 34 43  1  0  0  0  0
 34 71  1  0  0  0  0
 34 80  2  0  0  0  0
 35 75  1  0  0  0  0
 35 81  2  0  0  0  0
 36 52  1  0  0  0  0
 36 76  1  0  0  0  0
 36 82  2  0  0  0  0
 37 66  1  0  0  0  0
 37 72  1  0  0  0  0
 37 83  2  0  0  0  0
 38 67  1  0  0  0  0
 38 77  1  0  0  0  0
 38 84  2  0  0  0  0
 39 73  1  0  0  0  0
 39 78  1  0  0  0  0
 39 85  2  0  0  0  0
 40 44  1  0  0  0  0
 41 52  1  0  0  0  0
 42 72  1  0  0  0  0
 43 54  1  0  0  0  0
 44 46  1  0  0  0  0
 45 47  1  0  0  0  0
 45 48  1  0  0  0  0
 46 51  1  0  0  0  0
 47 53  1  0  0  0  0
 48 73  1  0  0  0  0
 49 53  1  0  0  0  0
 49 73  1  0  0  0  0
 50 54  1  0  0  0  0
 50 71  1  0  0  0  0
 51 76  1  0  0  0  0
 52 72  1  0  0  0  0
 53 70  1  0  0  0  0
 54 56  1  0  0  0  0
 54 63  1  0  0  0  0
 57 64  1  0  0  0  0
 58 67  1  0  0  0  0
 59 68  1  0  0  0  0
 60 68  1  0  0  0  0
 61 68  1  0  0  0  0
 62 79  1  0  0  0  0
 63 87  1  0  0  0  0
 64 65  1  0  0  0  0
 65 78  1  0  0  0  0
 66 68  1  0  0  0  0
 66 77  1  0  0  0  0
 67 79  1  0  0  0  0
 69 70  1  0  0  0  0
M  CHG  1  79   1
M  ISO  4  39 100  63 101  78 100  87 101
M  END
> <Batch ID>
0065

> <Smiles>
CCC([100NH:0][100C:0](=O)N1CCCC(n2nc(-c3ccc(Oc4ccc(F)cc4F)cc3)c(C(N)=O)c2N)C1)c1ccc(N2CC(C)([101CH2:1][101O:1]c3ccc4c(c3)CN(C(=O)C(NC(=O)C(C)NC)C(C)(C)C)C(C(=O)NC3CCCc5ccccc53)C4)CC2=O)cc1C

> <Shape>
0.197

> <Color>
0.144

> <Negative vol penalty>
0.000

$$$$

  -OEChem-04042323183D

 88 97  0     1  0  0  0  0  0999 V2000
  -21.9531  -28.5362   21.7552 C   0  0  0  0  0  0  0  0  0  0  0  0
  -22.8852  -27.5186   21.9312 C   0  0  0  0  0  0  0  0  0  0  0  0
  -23.3209  -10.1755   22.2541 C   0  0  0  0  0  0  0  0  0  0  0  0
  -23.7592   -9.3795   20.0156 C   0  0  0  0  0  0  0  0  0  0  0  0
  -32.1792  -18.0391   23.4511 C   0  0  0  0  0  0  0  0  0  0  0  0
  -22.3796  -29.8198   21.4172 C   0  0  0  0  0  0  0  0  0  0  0  0
  -24.2444  -27.7838   21.7682 C   0  0  0  0  0  0  0  0  0  0  0  0
  -27.0750  -25.7491   25.4415 C   0  0  0  0  0  0  0  0  0  0  0  0
  -31.6845  -17.0722   22.5759 C   0  0  0  0  0  0  0  0  0  0  0  0
  -22.6294   -8.9978   22.5376 C   0  0  0  0  0  0  0  0  0  0  0  0
  -23.0678   -8.2017   20.2990 C   0  0  0  0  0  0  0  0  0  0  0  0
  -27.3391  -24.3826   25.3588 C   0  0  0  0  0  0  0  0  0  0  0  0
  -19.5724   -7.6947   21.9204 C   0  0  0  0  0  0  0  0  0  0  0  0
  -18.3505   -7.8052   22.5839 C   0  0  0  0  0  0  0  0  0  0  0  0
  -29.5218  -24.8654   24.4523 C   0  0  0  0  0  0  0  0  0  0  0  0
  -29.4319  -17.8267   23.0156 C   0  0  0  0  0  0  0  0  0  0  0  0
  -19.2150   -6.4653   24.3990 C   0  0  0  0  0  0  0  0  0  0  0  0
  -23.8858  -10.3664   20.9931 C   0  0  0  0  0  0  0  0  0  0  0  0
  -31.3002  -18.8998   24.1086 C   0  0  0  0  0  0  0  0  0  0  0  0
  -24.0937  -12.8961   20.7384 C   0  0  0  0  0  0  0  0  0  0  0  0
  -23.7454  -30.1032   21.2594 C   0  0  0  0  0  0  0  0  0  0  0  0
  -28.0297  -26.6853   25.0192 C   0  0  0  0  0  0  0  0  0  0  0  0
  -24.6895  -29.0721   21.4265 C   0  0  0  0  0  0  0  0  0  0  0  0
  -29.2683  -26.2432   24.5330 C   0  0  0  0  0  0  0  0  0  0  0  0
  -29.9266  -18.7936   23.8908 C   0  0  0  0  0  0  0  0  0  0  0  0
  -30.3109  -16.9660   22.3581 C   0  0  0  0  0  0  0  0  0  0  0  0
  -22.5028   -8.0109   21.5600 C   0  0  0  0  0  0  0  0  0  0  0  0
  -28.5615  -23.9405   24.8615 C   0  0  0  0  0  0  0  0  0  0  0  0
  -20.6156   -6.9695   22.4960 C   0  0  0  0  0  0  0  0  0  0  0  0
  -18.1718   -7.1905   23.8232 C   0  0  0  0  0  0  0  0  0  0  0  0
  -20.4369   -6.3548   23.7354 C   0  0  0  0  0  0  0  0  0  0  0  0
  -24.5997  -11.5830   20.6995 C   0  0  0  0  0  0  0  0  0  0  0  0
  -25.1591  -13.6854   20.3802 C   0  0  0  0  0  0  0  0  0  0  0  0
  -31.8392  -19.8956   25.0124 C   0  0  0  0  0  0  0  0  0  0  0  0
  -22.7782  -13.3609   21.0687 C   0  0  0  0  0  0  0  0  0  0  0  0
  -28.1277  -28.9317   22.7725 C   0  0  0  0  0  0  0  0  0  0  0  0
  -30.9695  -29.6487   24.1627 C   0  0  0  0  0  0  0  0  0  0  0  0
  -33.9365  -29.7048   25.8482 C   0  0  0  0  0  0  0  0  0  0  0  0
  -30.5450  -15.0527   20.7361 C   0  0  0  0  0  0  0  0  0  0  0  0
  -24.1552  -31.4949   20.8473 C   0  0  0  0  0  0  0  0  0  0  0  0
  -27.7398  -28.1563   25.1398 C   0  0  0  0  0  0  0  0  0  0  0  0
  -30.3348  -27.2081   24.0856 C   0  0  0  0  0  0  0  0  0  0  0  0
  -25.6394  -31.7811   21.0605 C   0  0  0  0  0  0  0  0  0  0  0  0
  -29.6796  -12.4478   18.4684 C   0  0  0  0  0  0  0  0  0  0  0  0
  -28.0738  -20.4198   26.6773 C   0  0  0  0  0  0  0  0  0  0  0  0
  -26.4866  -30.6273   20.5334 C   0  0  0  0  0  0  0  0  0  0  0  0
  -28.2392  -12.0986   18.8499 C   0  0  0  0  0  0  0  0  0  0  0  0
  -27.1120  -21.3193   25.9084 C   0  0  0  0  0  0  0  0  0  0  0  0
  -28.5040  -19.2170   25.8428 C   0  0  0  0  0  0  0  0  0  0  0  0
  -30.5222  -12.7970   19.6939 C   0  0  0  0  0  0  0  0  0  0  0  0
  -28.5143  -13.4877   20.9431 C   0  0  0  0  0  0  0  0  0  0  0  0
  -28.1752  -20.5399   23.7429 C   0  0  0  0  0  0  0  0  0  0  0  0
  -26.1744  -29.3264   21.2827 C   0  0  1  0  0  0  0  0  0  0  0  0
  -28.5860  -29.0110   24.2013 C   0  0  1  0  0  0  0  0  0  0  0  0
  -27.6100  -13.1919   19.7355 C   0  0  2  0  0  0  0  0  0  0  0  0
  -27.7081  -21.7402   24.5686 C   0  0  2  0  0  0  0  0  0  1  0  0
  -36.1344  -30.9132   25.9275 C   0  0  0  0  0  0  0  0  0  0  0  0
  -31.8824  -28.1468   21.6686 C   0  0  0  0  0  0  0  0  0  0  0  0
  -34.2490  -28.6176   22.3362 C   0  0  0  0  0  0  0  0  0  0  0  0
  -32.7005  -30.5050   21.8242 C   0  0  0  0  0  0  0  0  0  0  0  0
  -32.0342  -21.5497   23.1686 C   0  0  0  0  0  0  0  0  0  0  0  0
  -32.7256  -22.1430   25.5237 C   0  0  0  0  0  0  0  0  0  0  0  0
  -33.4694  -30.6121   28.6263 C   0  0  0  0  0  0  0  0  0  0  0  0
  -32.3979  -29.2004   23.9686 C   0  0  1  0  0  0  0  0  0  0  0  0
  -34.7173  -30.8457   26.4752 C   0  0  2  0  0  0  0  0  0  0  0  0
  -32.7899  -29.1038   22.4671 C   0  0  0  0  0  0  0  0  0  0  0  0
  -25.8865  -11.5366   20.3445 N   0  0  0  0  0  0  0  0  0  0  0  0
  -26.1980  -12.8304   20.1570 N   0  0  0  0  0  0  0  0  0  0  0  0
  -29.0293  -19.6498   24.5415 N   0  0  2  0  0  0  0  0  0  0  0  0
  -30.0014  -28.6360   24.2172 N   0  0  0  0  0  0  0  0  0  0  0  0
  -29.8660  -13.8421   20.4826 N   0  0  0  0  0  0  0  0  0  0  0  0
  -25.2993  -15.0205   20.2376 N   0  0  0  0  0  0  0  0  0  0  0  0
  -21.8027  -12.4155   21.4140 N   0  0  0  0  0  0  0  0  0  0  0  0
  -29.8093  -15.9840   21.4683 N   0  0  0  0  0  0  0  0  0  0  0  0
  -26.8167  -29.3235   22.5796 N   0  0  0  0  0  0  0  0  0  0  0  0
  -33.2234  -30.1204   24.7436 N   0  0  0  0  0  0  0  0  0  0  0  0
  -32.1866  -21.1418   24.5811 N   0  0  0  0  0  0  0  0  0  0  0  0
  -31.9899  -19.5177   26.2954 N   0  3  0  0  0  0  0  0  0  0  0  0
  -34.7926  -30.6710   27.9533 N   0  3  0  0  0  0  0  0  0  0  0  0
  -22.4722  -14.5771   21.0421 O   0  0  0  0  0  0  0  0  0  0  0  0
  -28.9065  -28.5453   21.9089 O   0  0  0  0  0  0  0  0  0  0  0  0
  -30.7227  -30.8526   24.2694 O   0  0  0  0  0  0  0  0  0  0  0  0
  -33.9599  -28.5588   26.2915 O   0  0  0  0  0  0  0  0  0  0  0  0
  -31.6842  -15.2593   20.3102 O   0  0  0  0  0  0  0  0  0  0  0  0
  -21.8284   -6.8614   21.8364 O   0  0  0  0  0  0  0  0  0  0  0  0
  -28.8216  -22.6073   24.7792 O   0  0  0  0  0  0  0  0  0  1  0  0
  -16.9988   -7.2980   24.4611 F   0  0  0  0  0  0  0  0  0  0  0  0
  -21.4359   -5.6577   24.2940 F   0  0  0  0  0  0  0  0  0  0  0  0
  1  2  1  0  0  0  0
  1  6  2  0  0  0  0
  2  7  2  0  0  0  0
  3 10  2  0  0  0  0
  3 18  1  0  0  0  0
  4 11  1  0  0  0  0
  4 18  2  0  0  0  0
  5  9  2  0  0  0  0
  5 19  1  0  0  0  0
  6 21  1  0  0  0  0
  7 23  1  0  0  0  0
  8 12  2  0  0  0  0
  8 22  1  0  0  0  0
  9 26  1  0  0  0  0
 10 27  1  0  0  0  0
 11 27  2  0  0  0  0
 12 28  1  0  0  0  0
 13 14  2  0  0  0  0
 13 29  1  0  0  0  0
 14 30  1  0  0  0  0
 15 24  1  0  0  0  0
 15 28  2  0  0  0  0
 16 25  1  0  0  0  0
 16 26  2  0  0  0  0
 17 30  2  0  0  0  0
 17 31  1  0  0  0  0
 18 32  1  0  0  0  0
 19 25  2  0  0  0  0
 19 34  1  0  0  0  0
 20 32  1  0  0  0  0
 20 33  2  0  0  0  0
 20 35  1  0  0  0  0
 21 23  2  0  0  0  0
 21 40  1  0  0  0  0
 22 24  2  0  0  0  0
 22 41  1  0  0  0  0
 23 53  1  0  0  0  0
 24 42  1  0  0  0  0
 25 69  1  0  0  0  0
 26 74  1  0  0  0  0
 27 85  1  0  0  0  0
 28 86  1  0  0  0  0
 29 31  2  0  0  0  0
 29 85  1  0  0  0  0
 30 87  1  0  0  0  0
 31 88  1  0  0  0  0
 32 67  2  0  0  0  0
 33 68  1  0  0  0  0
 33 72  1  0  0  0  0
 34 77  1  0  0  0  0
 34 78  2  0  0  0  0
 35 73  1  0  0  0  0
 35 80  2  0  0  0  0
 36 54  1  0  0  0  0
 36 75  1  0  0  0  0
 36 81  2  0  0  0  0
 37 64  1  0  0  0  0
 37 70  1  0  0  0  0
 37 82  2  0  0  0  0
 38 65  1  0  0  0  0
 38 76  1  0  0  0  0
 38 83  2  0  0  0  0
 39 71  1  0  0  0  0
 39 74  1  0  0  0  0
 39 84  2  0  0  0  0
 40 43  1  0  0  0  0
 41 54  1  0  0  0  0
 42 70  1  0  0  0  0
 43 46  1  0  0  0  0
 44 47  1  0  0  0  0
 44 50  1  0  0  0  0
 45 48  1  0  0  0  0
 45 49  1  0  0  0  0
 46 53  1  0  0  0  0
 47 55  1  0  0  0  0
 48 56  1  0  0  0  0
 49 69  1  0  0  0  0
 50 71  1  0  0  0  0
 51 55  1  0  0  0  0
 51 71  1  0  0  0  0
 52 56  1  0  0  0  0
 52 69  1  0  0  0  0
 53 75  1  0  0  0  0
 54 70  1  0  0  0  0
 55 68  1  0  0  0  0
 56 86  1  0  0  0  0
 57 65  1  0  0  0  0
 58 66  1  0  0  0  0
 59 66  1  0  0  0  0
 60 66  1  0  0  0  0
 61 77  1  0  0  0  0
 62 77  1  0  0  0  0
 63 79  1  0  0  0  0
 64 66  1  0  0  0  0
 64 76  1  0  0  0  0
 65 79  1  0  0  0  0
 67 68  1  0  0  0  0
M  CHG  2  78   1  79   1
M  ISO  4  39 100  56 101  74 100  86 101
M  END
> <Batch ID>
0065

> <Smiles>
CNC(C)C(=O)NC(C(=O)N1Cc2cc([101O:1][101CH:1]3CCCN(c4cc([100NH:0][100C:0](=O)N5CCCC(n6nc(-c7ccc(Oc8ccc(F)cc8F)cc7)c(C(N)=O)c6N)C5)ccc4C(=N)N(C)C)C3)ccc2CC1C(=O)NC1CCCc2ccccc21)C(C)(C)C

> <Shape>
0.218

> <Color>
0.197

> <Negative vol penalty>
0.000

$$$$

  -OEChem-04042323183D

 89 98  0     1  0  0  0  0  0999 V2000
  -28.8634  -33.5932   27.8347 C   0  0  0  0  0  0  0  0  0  0  0  0
  -28.2668  -32.3953   27.4546 C   0  0  0  0  0  0  0  0  0  0  0  0
  -24.5269   -9.7685   21.6430 C   0  0  0  0  0  0  0  0  0  0  0  0
  -24.7974  -10.9541   23.7306 C   0  0  0  0  0  0  0  0  0  0  0  0
  -28.2868  -34.8067   27.4623 C   0  0  0  0  0  0  0  0  0  0  0  0
  -27.0925  -32.4102   26.7027 C   0  0  0  0  0  0  0  0  0  0  0  0
  -27.1983  -29.1033   22.8689 C   0  0  0  0  0  0  0  0  0  0  0  0
  -24.1961   -8.6091   22.3443 C   0  0  0  0  0  0  0  0  0  0  0  0
  -24.4665   -9.7946   24.4319 C   0  0  0  0  0  0  0  0  0  0  0  0
  -26.9745  -27.7624   23.1783 C   0  0  0  0  0  0  0  0  0  0  0  0
  -21.4918   -7.3441   23.9315 C   0  0  0  0  0  0  0  0  0  0  0  0
  -20.3962   -6.6060   23.4837 C   0  0  0  0  0  0  0  0  0  0  0  0
  -29.7172  -20.0905   20.1121 C   0  0  0  0  0  0  0  0  0  0  0  0
  -24.6881  -27.9801   22.4408 C   0  0  0  0  0  0  0  0  0  0  0  0
  -27.4590  -20.0719   20.9709 C   0  0  0  0  0  0  0  0  0  0  0  0
  -21.8296   -4.6939   23.1286 C   0  0  0  0  0  0  0  0  0  0  0  0
  -24.8277  -10.9410   22.3362 C   0  0  0  0  0  0  0  0  0  0  0  0
  -29.6664  -21.4806   20.0086 C   0  0  0  0  0  0  0  0  0  0  0  0
  -24.2893  -13.1391   21.1587 C   0  0  0  0  0  0  0  0  0  0  0  0
  -27.1101  -34.8366   26.6972 C   0  0  0  0  0  0  0  0  0  0  0  0
  -26.1638  -29.8968   22.3525 C   0  0  0  0  0  0  0  0  0  0  0  0
  -26.4989  -33.6253   26.3208 C   0  0  0  0  0  0  0  0  0  0  0  0
  -24.9020  -29.3301   22.1233 C   0  0  0  0  0  0  0  0  0  0  0  0
  -27.4083  -21.4620   20.8675 C   0  0  0  0  0  0  0  0  0  0  0  0
  -28.6135  -19.3862   20.5932 C   0  0  0  0  0  0  0  0  0  0  0  0
  -24.1659   -8.6221   23.7387 C   0  0  0  0  0  0  0  0  0  0  0  0
  -25.7185  -27.2013   22.9670 C   0  0  0  0  0  0  0  0  0  0  0  0
  -22.7563   -6.7571   23.9778 C   0  0  0  0  0  0  0  0  0  0  0  0
  -20.5651   -5.2809   23.0823 C   0  0  0  0  0  0  0  0  0  0  0  0
  -22.9252   -5.4320   23.5764 C   0  0  0  0  0  0  0  0  0  0  0  0
  -28.5120  -22.1663   20.3863 C   0  0  0  0  0  0  0  0  0  0  0  0
  -25.1700  -12.1389   21.6123 C   0  0  0  0  0  0  0  0  0  0  0  0
  -25.1013  -14.0543   20.5346 C   0  0  0  0  0  0  0  0  0  0  0  0
  -24.9021  -21.6765   21.1915 C   0  0  0  0  0  0  0  0  0  0  0  0
  -30.8194  -22.2115   19.5065 C   0  0  0  0  0  0  0  0  0  0  0  0
  -22.8646  -13.2324   21.2897 C   0  0  0  0  0  0  0  0  0  0  0  0
  -24.6383  -32.5084   23.3302 C   0  0  0  0  0  0  0  0  0  0  0  0
  -23.2513  -32.3213   20.4039 C   0  0  0  0  0  0  0  0  0  0  0  0
  -22.3650  -30.3861   17.7362 C   0  0  0  0  0  0  0  0  0  0  0  0
  -29.7327  -17.1406   20.3669 C   0  0  0  0  0  0  0  0  0  0  0  0
  -26.4980  -36.1728   26.3587 C   0  0  0  0  0  0  0  0  0  0  0  0
  -26.4287  -31.3346   21.9989 C   0  0  0  0  0  0  0  0  0  0  0  0
  -23.7636  -30.1338   21.5519 C   0  0  0  0  0  0  0  0  0  0  0  0
  -25.4581  -36.1014   25.2435 C   0  0  0  0  0  0  0  0  0  0  0  0
  -29.9841  -13.7760   19.2298 C   0  0  0  0  0  0  0  0  0  0  0  0
  -24.4962  -34.9423   25.4839 C   0  0  0  0  0  0  0  0  0  0  0  0
  -28.6816  -13.1324   19.7110 C   0  0  0  0  0  0  0  0  0  0  0  0
  -30.5231  -14.7882   20.2390 C   0  0  0  0  0  0  0  0  0  0  0  0
  -26.2646  -23.5316   21.7311 C   0  0  0  0  0  0  0  0  0  0  0  0
  -28.2622  -15.1760   21.1374 C   0  0  0  0  0  0  0  0  0  0  0  0
  -25.2383  -33.6003   25.4840 C   0  0  1  0  0  0  0  0  0  0  0  0
  -25.1617  -32.1835   21.9598 C   0  0  1  0  0  0  0  0  0  0  0  0
  -24.9088  -23.7341   22.3962 C   0  0  2  0  0  0  0  0  0  0  0  0
  -27.6464  -14.1967   20.1248 C   0  0  2  0  0  0  0  0  0  0  0  0
  -23.9705  -22.8313   21.5704 C   0  0  0  0  0  0  0  0  0  0  0  0
  -23.4591  -23.4742   20.2736 C   0  0  0  0  0  0  0  0  0  0  0  0
  -22.7902  -22.3305   22.4046 C   0  0  0  0  0  0  0  0  0  0  0  0
  -21.2097  -30.5076   15.5118 C   0  0  0  0  0  0  0  0  0  0  0  0
  -20.5487  -32.4285   21.8161 C   0  0  0  0  0  0  0  0  0  0  0  0
  -19.4901  -31.6029   19.7028 C   0  0  0  0  0  0  0  0  0  0  0  0
  -20.6872  -33.7913   19.7237 C   0  0  0  0  0  0  0  0  0  0  0  0
  -24.8026  -29.5292   16.2930 C   0  0  0  0  0  0  0  0  0  0  0  0
  -24.5206  -25.2030   22.4899 C   0  0  0  0  0  0  0  0  0  1  0  0
  -22.0217  -31.6473   19.8447 C   0  0  1  0  0  0  0  0  0  0  0  0
  -22.5412  -30.5886   16.2421 C   0  0  2  0  0  0  0  0  0  0  0  0
  -20.7076  -32.3526   20.2844 C   0  0  0  0  0  0  0  0  0  0  0  0
  -26.4439  -12.3945   21.3027 N   0  0  0  0  0  0  0  0  0  0  0  0
  -31.9258  -21.6377   19.1371 N   0  0  0  0  0  0  0  0  0  0  0  0
  -26.3696  -13.5657   20.6477 N   0  0  0  0  0  0  0  0  0  0  0  0
  -26.2251  -22.1615   21.2543 N   0  0  0  0  0  0  0  0  0  0  0  0
  -24.0705  -31.5368   21.2282 N   0  0  0  0  0  0  0  0  0  0  0  0
  -29.4891  -15.7674   20.5807 N   0  0  0  0  0  0  0  0  0  0  0  0
  -24.8470  -15.2214   19.9056 N   0  0  0  0  0  0  0  0  0  0  0  0
  -22.1865  -12.2052   21.9601 N   0  0  0  0  0  0  0  0  0  0  0  0
  -28.6650  -17.9741   20.6985 N   0  0  0  0  0  0  0  0  0  0  0  0
  -25.5376  -33.1883   24.1293 N   0  0  0  0  0  0  0  0  0  0  0  0
  -22.2117  -31.5851   18.3996 N   0  0  0  0  0  0  0  0  0  0  0  0
  -23.4487  -29.5478   15.6817 N   0  3  0  0  0  0  0  0  0  0  0  0
  -24.4934  -20.5766   20.8450 O   0  0  0  0  0  0  0  0  0  0  0  0
  -22.2103  -14.1900   20.8118 O   0  0  0  0  0  0  0  0  0  0  0  0
  -23.5021  -32.1689   23.6392 O   0  0  0  0  0  0  0  0  0  0  0  0
  -23.4806  -33.4982   20.1140 O   0  0  0  0  0  0  0  0  0  0  0  0
  -22.3599  -29.2751   18.2618 O   0  0  0  0  0  0  0  0  0  0  0  0
  -30.7993  -17.5450   19.8969 O   0  0  0  0  0  0  0  0  0  0  0  0
  -23.8428   -7.4910   24.4234 O   0  0  0  0  0  0  0  0  0  0  0  0
  -25.4972  -25.8930   23.2687 O   0  0  0  0  0  0  0  0  0  1  0  0
  -19.5127   -4.5717   22.6537 F   0  0  0  0  0  0  0  0  0  0  0  0
  -24.1374   -4.8623   23.6197 F   0  0  0  0  0  0  0  0  0  0  0  0
  -28.4634  -23.5036   20.2866 F   0  0  0  0  0  0  0  0  0  0  0  0
  1  2  1  0  0  0  0
  1  5  2  0  0  0  0
  2  6  2  0  0  0  0
  3  8  2  0  0  0  0
  3 17  1  0  0  0  0
  4  9  1  0  0  0  0
  4 17  2  0  0  0  0
  5 20  1  0  0  0  0
  6 22  1  0  0  0  0
  7 10  2  0  0  0  0
  7 21  1  0  0  0  0
  8 26  1  0  0  0  0
  9 26  2  0  0  0  0
 10 27  1  0  0  0  0
 11 12  2  0  0  0  0
 11 28  1  0  0  0  0
 12 29  1  0  0  0  0
 13 18  2  0  0  0  0
 13 25  1  0  0  0  0
 14 23  1  0  0  0  0
 14 27  2  0  0  0  0
 15 24  1  0  0  0  0
 15 25  2  0  0  0  0
 16 29  2  0  0  0  0
 16 30  1  0  0  0  0
 17 32  1  0  0  0  0
 18 31  1  0  0  0  0
 18 35  1  0  0  0  0
 19 32  1  0  0  0  0
 19 33  2  0  0  0  0
 19 36  1  0  0  0  0
 20 22  2  0  0  0  0
 20 41  1  0  0  0  0
 21 23  2  0  0  0  0
 21 42  1  0  0  0  0
 22 51  1  0  0  0  0
 23 43  1  0  0  0  0
 24 31  2  0  0  0  0
 24 70  1  0  0  0  0
 25 75  1  0  0  0  0
 26 85  1  0  0  0  0
 27 86  1  0  0  0  0
 28 30  2  0  0  0  0
 28 85  1  0  0  0  0
 29 87  1  0  0  0  0
 30 88  1  0  0  0  0
 31 89  1  0  0  0  0
 32 67  2  0  0  0  0
 33 69  1  0  0  0  0
 33 73  1  0  0  0  0
 34 55  1  0  0  0  0
 34 70  1  0  0  0  0
 34 79  2  0  0  0  0
 35 68  2  0  0  0  0
 36 74  1  0  0  0  0
 36 80  2  0  0  0  0
 37 52  1  0  0  0  0
 37 76  1  0  0  0  0
 37 81  2  0  0  0  0
 38 64  1  0  0  0  0
 38 71  1  0  0  0  0
 38 82  2  0  0  0  0
 39 65  1  0  0  0  0
 39 77  1  0  0  0  0
 39 83  2  0  0  0  0
 40 72  1  0  0  0  0
 40 75  1  0  0  0  0
 40 84  2  0  0  0  0
 41 44  1  0  0  0  0
 42 52  1  0  0  0  0
 43 71  1  0  0  0  0
 44 46  1  0  0  0  0
 45 47  1  0  0  0  0
 45 48  1  0  0  0  0
 46 51  1  0  0  0  0
 47 54  1  0  0  0  0
 48 72  1  0  0  0  0
 49 53  1  0  0  0  0
 49 70  1  0  0  0  0
 50 54  1  0  0  0  0
 50 72  1  0  0  0  0
 51 76  1  0  0  0  0
 52 71  1  0  0  0  0
 53 55  1  0  0  0  0
 53 63  1  0  0  0  0
 54 69  1  0  0  0  0
 55 56  1  0  0  0  0
 55 57  1  0  0  0  0
 58 65  1  0  0  0  0
 59 66  1  0  0  0  0
 60 66  1  0  0  0  0
 61 66  1  0  0  0  0
 62 78  1  0  0  0  0
 63 86  1  0  0  0  0
 64 66  1  0  0  0  0
 64 77  1  0  0  0  0
 65 78  1  0  0  0  0
 67 69  1  0  0  0  0
M  CHG  1  78   1
M  ISO  4  40 100  63 101  75 100  86 101
M  END
> <Batch ID>
0065

> <Smiles>
CNC(C)C(=O)NC(C(=O)N1Cc2cc([101O:1][101CH2:1]C3CN(c4cc([100NH:0][100C:0](=O)N5CCCC(n6nc(-c7ccc(Oc8ccc(F)cc8F)cc7)c(C(N)=O)c6N)C5)cc(C=N)c4F)C(=O)C3(C)C)ccc2CC1C(=O)NC1CCCc2ccccc21)C(C)(C)C

> <Shape>
0.264

> <Color>
0.131

> <Negative vol penalty>
0.000

$$$$

  -OEChem-04042323183D

 84 92  0     1  0  0  0  0  0999 V2000
  -30.9870  -23.0679   17.1242 C   0  0  0  0  0  0  0  0  0  0  0  0
  -29.7411  -23.6848   17.1415 C   0  0  0  0  0  0  0  0  0  0  0  0
  -26.5588  -15.5674   19.5585 C   0  0  0  0  0  0  0  0  0  0  0  0
  -27.3826  -15.2878   21.8125 C   0  0  0  0  0  0  0  0  0  0  0  0
  -31.8160  -23.1486   18.2411 C   0  0  0  0  0  0  0  0  0  0  0  0
  -29.3288  -24.3925   18.2710 C   0  0  0  0  0  0  0  0  0  0  0  0
  -25.1251  -26.9230   17.9117 C   0  0  0  0  0  0  0  0  0  0  0  0
  -20.8489  -24.3197   22.4384 C   0  0  0  0  0  0  0  0  0  0  0  0
  -22.1575  -23.9038   22.6834 C   0  0  0  0  0  0  0  0  0  0  0  0
  -26.1113  -14.2463   19.5582 C   0  0  0  0  0  0  0  0  0  0  0  0
  -26.9351  -13.9667   21.8122 C   0  0  0  0  0  0  0  0  0  0  0  0
  -23.8756  -26.3062   17.8672 C   0  0  0  0  0  0  0  0  0  0  0  0
  -26.3317  -10.4127   22.2755 C   0  0  0  0  0  0  0  0  0  0  0  0
  -27.1923   -9.4365   22.7774 C   0  0  0  0  0  0  0  0  0  0  0  0
  -23.4998  -26.9149   20.1710 C   0  0  0  0  0  0  0  0  0  0  0  0
  -22.2420  -22.8811   20.4961 C   0  0  0  0  0  0  0  0  0  0  0  0
  -28.8257  -10.0101   21.0921 C   0  0  0  0  0  0  0  0  0  0  0  0
  -27.1945  -16.0882   20.6857 C   0  0  0  0  0  0  0  0  0  0  0  0
  -28.5982  -18.0316   19.8136 C   0  0  0  0  0  0  0  0  0  0  0  0
  -31.4077  -23.8474   19.3891 C   0  0  0  0  0  0  0  0  0  0  0  0
  -25.5767  -27.5319   19.0914 C   0  0  0  0  0  0  0  0  0  0  0  0
  -30.1611  -24.5057   19.3994 C   0  0  0  0  0  0  0  0  0  0  0  0
  -24.7544  -27.5409   20.2271 C   0  0  0  0  0  0  0  0  0  0  0  0
  -20.2367  -24.0162   21.2223 C   0  0  0  0  0  0  0  0  0  0  0  0
  -22.8541  -23.1845   21.7122 C   0  0  0  0  0  0  0  0  0  0  0  0
  -26.2994  -13.4459   20.6850 C   0  0  0  0  0  0  0  0  0  0  0  0
  -23.0639  -26.2996   18.9977 C   0  0  0  0  0  0  0  0  0  0  0  0
  -26.7180  -11.1875   21.1818 C   0  0  0  0  0  0  0  0  0  0  0  0
  -28.4394   -9.2352   22.1857 C   0  0  0  0  0  0  0  0  0  0  0  0
  -27.9650  -10.9863   20.5902 C   0  0  0  0  0  0  0  0  0  0  0  0
  -20.9332  -23.2970   20.2511 C   0  0  0  0  0  0  0  0  0  0  0  0
  -27.6575  -17.4526   20.6864 C   0  0  0  0  0  0  0  0  0  0  0  0
  -28.6904  -19.3384   20.2261 C   0  0  0  0  0  0  0  0  0  0  0  0
  -29.3236  -17.4410   18.7271 C   0  0  0  0  0  0  0  0  0  0  0  0
  -28.0255  -27.0621   21.0628 C   0  0  0  0  0  0  0  0  0  0  0  0
  -26.9146  -29.7697   22.4619 C   0  0  0  0  0  0  0  0  0  0  0  0
  -24.2838  -31.8682   23.0291 C   0  0  0  0  0  0  0  0  0  0  0  0
  -24.9371  -22.9820   23.1145 C   0  0  0  0  0  0  0  0  0  0  0  0
  -32.3479  -23.9096   20.5670 C   0  0  0  0  0  0  0  0  0  0  0  0
  -26.9159  -28.2162   19.1153 C   0  0  0  0  0  0  0  0  0  0  0  0
  -25.1842  -28.1984   21.5122 C   0  0  0  0  0  0  0  0  0  0  0  0
  -31.6489  -24.2981   21.8658 C   0  0  0  0  0  0  0  0  0  0  0  0
  -28.2273  -22.0750   24.1289 C   0  0  0  0  0  0  0  0  0  0  0  0
  -30.7924  -25.5360   21.6450 C   0  0  0  0  0  0  0  0  0  0  0  0
  -28.5425  -20.8430   23.2774 C   0  0  0  0  0  0  0  0  0  0  0  0
  -26.7615  -22.1080   24.5577 C   0  0  0  0  0  0  0  0  0  0  0  0
  -26.1065  -20.7470   22.6115 C   0  0  0  0  0  0  0  0  0  0  0  0
  -29.6787  -25.2552   20.6282 C   0  0  1  0  0  0  0  0  0  0  0  0
  -27.4898  -28.3575   20.5217 C   0  0  1  0  0  0  0  0  0  0  0  0
  -27.5561  -20.7034   22.1013 C   0  0  2  0  0  0  0  0  0  0  0  0
  -18.8346  -24.4768   20.9915 C   0  0  0  0  0  0  0  0  0  0  0  0
  -23.6732  -33.9784   24.2422 C   0  0  0  0  0  0  0  0  0  0  0  0
  -19.4029  -24.2855   16.5210 C   0  0  0  0  0  0  0  0  0  0  0  0
  -26.8595  -28.2352   25.0986 C   0  0  0  0  0  0  0  0  0  0  0  0
  -25.3872  -30.0317   26.0330 C   0  0  0  0  0  0  0  0  0  0  0  0
  -27.6990  -30.5843   25.2761 C   0  0  0  0  0  0  0  0  0  0  0  0
  -23.5676  -33.2465   20.5100 C   0  0  0  0  0  0  0  0  0  0  0  0
  -21.4591  -25.0925   17.7235 C   0  0  0  0  0  0  0  0  0  1  0  0
  -25.9187  -30.0776   23.5538 C   0  0  1  0  0  0  0  0  0  0  0  0
  -24.1608  -33.3781   22.9327 C   0  0  2  0  0  0  0  0  0  0  0  0
  -20.0763  -24.4669   17.8740 C   0  0  2  0  0  0  0  0  0  0  0  0
  -26.4585  -29.7180   24.9669 C   0  0  0  0  0  0  0  0  0  0  0  0
  -27.1860  -18.3204   21.5856 N   0  0  0  0  0  0  0  0  0  0  0  0
  -27.8330  -19.4580   21.2801 N   0  0  0  0  0  0  0  0  0  0  0  0
  -26.5047  -28.8487   21.4874 N   0  0  0  0  0  0  0  0  0  0  0  0
  -25.8860  -21.9751   23.3912 N   0  0  0  0  0  0  0  0  0  0  0  0
  -29.4205  -20.3854   19.7866 N   0  0  0  0  0  0  0  0  0  0  0  0
  -30.5695  -16.8573   18.9946 N   0  0  0  0  0  0  0  0  0  0  0  0
  -24.1837  -22.7631   21.9616 N   0  0  0  0  0  0  0  0  0  0  0  0
  -29.0235  -26.4995   20.2901 N   0  0  0  0  0  0  0  0  0  0  0  0
  -25.5566  -31.4816   23.3920 N   0  0  0  0  0  0  0  0  0  0  0  0
  -23.1989  -33.7519   21.8574 N   0  3  0  0  0  0  0  0  0  0  0  0
  -28.8877  -17.4456   17.5509 O   0  0  0  0  0  0  0  0  0  0  0  0
  -27.5684  -26.6076   22.1050 O   0  0  0  0  0  0  0  0  0  0  0  0
  -28.0130  -30.3311   22.4692 O   0  0  0  0  0  0  0  0  0  0  0  0
  -23.3437  -31.1078   22.8086 O   0  0  0  0  0  0  0  0  0  0  0  0
  -24.8214  -23.9793   23.8313 O   0  0  0  0  0  0  0  0  0  0  0  0
  -21.1283  -22.0674   17.9742 O   0  0  0  0  0  0  0  0  0  0  0  0
  -18.8366  -22.4425   18.9504 O   0  0  0  0  0  0  0  0  0  0  0  0
  -25.8627  -12.1568   20.6852 O   0  0  0  0  0  0  0  0  0  0  0  0
  -21.8441  -25.6977   18.9572 O   0  0  0  0  0  0  0  0  0  1  0  0
  -29.2664   -8.2988   22.6688 F   0  0  0  0  0  0  0  0  0  0  0  0
  -28.3422  -11.7284   19.5400 F   0  0  0  0  0  0  0  0  0  0  0  0
  -20.1895  -22.8971   18.7012 S   0  0  0  0  0  0  0  0  0  0  0  0
  1  2  1  0  0  0  0
  1  5  2  0  0  0  0
  2  6  2  0  0  0  0
  3 10  2  0  0  0  0
  3 18  1  0  0  0  0
  4 11  1  0  0  0  0
  4 18  2  0  0  0  0
  5 20  1  0  0  0  0
  6 22  1  0  0  0  0
  7 12  2  0  0  0  0
  7 21  1  0  0  0  0
  8  9  2  0  0  0  0
  8 24  1  0  0  0  0
  9 25  1  0  0  0  0
 10 26  1  0  0  0  0
 11 26  2  0  0  0  0
 12 27  1  0  0  0  0
 13 14  2  0  0  0  0
 13 28  1  0  0  0  0
 14 29  1  0  0  0  0
 15 23  1  0  0  0  0
 15 27  2  0  0  0  0
 16 25  2  0  0  0  0
 16 31  1  0  0  0  0
 17 29  2  0  0  0  0
 17 30  1  0  0  0  0
 18 32  1  0  0  0  0
 19 32  1  0  0  0  0
 19 33  2  0  0  0  0
 19 34  1  0  0  0  0
 20 22  2  0  0  0  0
 20 39  1  0  0  0  0
 21 23  2  0  0  0  0
 21 40  1  0  0  0  0
 22 48  1  0  0  0  0
 23 41  1  0  0  0  0
 24 31  2  0  0  0  0
 24 51  1  0  0  0  0
 25 69  1  0  0  0  0
 26 80  1  0  0  0  0
 27 81  1  0  0  0  0
 28 30  2  0  0  0  0
 28 80  1  0  0  0  0
 29 82  1  0  0  0  0
 30 83  1  0  0  0  0
 31 84  1  0  0  0  0
 32 63  2  0  0  0  0
 33 64  1  0  0  0  0
 33 67  1  0  0  0  0
 34 68  1  0  0  0  0
 34 73  2  0  0  0  0
 35 49  1  0  0  0  0
 35 70  1  0  0  0  0
 35 74  2  0  0  0  0
 36 59  1  0  0  0  0
 36 65  1  0  0  0  0
 36 75  2  0  0  0  0
 37 60  1  0  0  0  0
 37 71  1  0  0  0  0
 37 76  2  0  0  0  0
 38 66  1  0  0  0  0
 38 69  1  0  0  0  0
 38 77  2  0  0  0  0
 39 42  1  0  0  0  0
 40 49  1  0  0  0  0
 41 65  1  0  0  0  0
 42 44  1  0  0  0  0
 43 45  1  0  0  0  0
 43 46  1  0  0  0  0
 44 48  1  0  0  0  0
 45 50  1  0  0  0  0
 46 66  1  0  0  0  0
 47 50  1  0  0  0  0
 47 66  1  0  0  0  0
 48 70  1  0  0  0  0
 49 65  1  0  0  0  0
 50 64  1  0  0  0  0
 52 60  1  0  0  0  0
 53 61  1  0  0  0  0
 54 62  1  0  0  0  0
 55 62  1  0  0  0  0
 56 62  1  0  0  0  0
 57 72  1  0  0  0  0
 58 61  1  0  0  0  0
 58 81  1  0  0  0  0
 59 62  1  0  0  0  0
 59 71  1  0  0  0  0
 60 72  1  0  0  0  0
 61 84  1  0  0  0  0
 63 64  1  0  0  0  0
 78 84  2  0  0  0  0
 79 84  2  0  0  0  0
M  CHG  1  72   1
M  ISO  4  38 100  58 101  69 100  81 101
M  END
> <Batch ID>
0065

> <Smiles>
CNC(C)C(=O)NC(C(=O)N1Cc2cc([101O:1][101CH2:1]C(C)S(=O)(=O)c3cc([100NH:0][100C:0](=O)N4CCCC(n5nc(-c6ccc(Oc7ccc(F)cc7F)cc6)c(C(N)=O)c5N)C4)ccc3C)ccc2CC1C(=O)NC1CCCc2ccccc21)C(C)(C)C

> <Shape>
0.211

> <Color>
0.054

> <Negative vol penalty>
0.000

$$$$

  -OEChem-04042323183D

 89 98  0     1  0  0  0  0  0999 V2000
  -22.1285  -35.1239   15.8051 C   0  0  0  0  0  0  0  0  0  0  0  0
  -22.9404  -33.9942   15.8108 C   0  0  0  0  0  0  0  0  0  0  0  0
  -23.8508   -9.2966   21.1270 C   0  0  0  0  0  0  0  0  0  0  0  0
  -22.8210  -11.2477   20.1421 C   0  0  0  0  0  0  0  0  0  0  0  0
  -22.1003  -35.9662   16.9158 C   0  0  0  0  0  0  0  0  0  0  0  0
  -23.7254  -33.7068   16.9268 C   0  0  0  0  0  0  0  0  0  0  0  0
  -25.1296  -28.1600   19.1103 C   0  0  0  0  0  0  0  0  0  0  0  0
  -31.6739  -18.9453   18.6304 C   0  0  0  0  0  0  0  0  0  0  0  0
  -31.5177  -20.3159   18.8364 C   0  0  0  0  0  0  0  0  0  0  0  0
  -22.5970   -8.8398   21.5330 C   0  0  0  0  0  0  0  0  0  0  0  0
  -21.5671  -10.7908   20.5481 C   0  0  0  0  0  0  0  0  0  0  0  0
  -26.2579  -27.3537   18.9673 C   0  0  0  0  0  0  0  0  0  0  0  0
  -19.9392   -7.2859   20.1349 C   0  0  0  0  0  0  0  0  0  0  0  0
  -19.6393   -5.9405   19.9218 C   0  0  0  0  0  0  0  0  0  0  0  0
  -27.1164  -28.1945   21.0591 C   0  0  0  0  0  0  0  0  0  0  0  0
  -29.2031  -20.1533   18.1629 C   0  0  0  0  0  0  0  0  0  0  0  0
  -19.3293   -5.6333   22.2981 C   0  0  0  0  0  0  0  0  0  0  0  0
  -23.9628  -10.5006   20.4316 C   0  0  0  0  0  0  0  0  0  0  0  0
  -25.9083  -10.7018   18.7939 C   0  0  0  0  0  0  0  0  0  0  0  0
  -22.8780  -35.6838   18.0497 C   0  0  0  0  0  0  0  0  0  0  0  0
  -24.9910  -28.9992   20.2253 C   0  0  0  0  0  0  0  0  0  0  0  0
  -23.7086  -34.5468   18.0532 C   0  0  0  0  0  0  0  0  0  0  0  0
  -25.9841  -29.0086   21.2152 C   0  0  0  0  0  0  0  0  0  0  0  0
  -30.5948  -18.1786   18.1905 C   0  0  0  0  0  0  0  0  0  0  0  0
  -29.3594  -18.7826   17.9569 C   0  0  0  0  0  0  0  0  0  0  0  0
  -30.2823  -20.9199   18.6027 C   0  0  0  0  0  0  0  0  0  0  0  0
  -21.4551   -9.5869   21.2435 C   0  0  0  0  0  0  0  0  0  0  0  0
  -27.2529  -27.3730   19.9403 C   0  0  0  0  0  0  0  0  0  0  0  0
  -19.9343   -7.8051   21.4295 C   0  0  0  0  0  0  0  0  0  0  0  0
  -19.3343   -5.1142   21.0034 C   0  0  0  0  0  0  0  0  0  0  0  0
  -19.6293   -6.9788   22.5111 C   0  0  0  0  0  0  0  0  0  0  0  0
  -25.2577  -10.9734   20.0124 C   0  0  0  0  0  0  0  0  0  0  0  0
  -27.1008  -11.3774   18.8833 C   0  0  0  0  0  0  0  0  0  0  0  0
  -30.5583  -24.5361   19.0507 C   0  0  0  0  0  0  0  0  0  0  0  0
  -31.1433  -23.2134   18.6584 C   0  0  0  0  0  0  0  0  0  0  0  0
  -25.4735   -9.9098   17.6806 C   0  0  0  0  0  0  0  0  0  0  0  0
  -24.7568  -32.1401   20.6535 C   0  0  0  0  0  0  0  0  0  0  0  0
  -24.2336  -31.2875   23.7392 C   0  0  0  0  0  0  0  0  0  0  0  0
  -24.6360  -28.9712   26.2131 C   0  0  0  0  0  0  0  0  0  0  0  0
  -30.0180  -15.9469   20.2082 C   0  0  0  0  0  0  0  0  0  0  0  0
  -22.8502  -36.6493   19.2080 C   0  0  0  0  0  0  0  0  0  0  0  0
  -23.7552  -29.8429   20.3780 C   0  0  0  0  0  0  0  0  0  0  0  0
  -25.8736  -29.8765   22.4411 C   0  0  0  0  0  0  0  0  0  0  0  0
  -23.4280  -36.0710   20.4972 C   0  0  0  0  0  0  0  0  0  0  0  0
  -29.3144  -13.6411   22.8283 C   0  0  0  0  0  0  0  0  0  0  0  0
  -24.7508  -35.3640   20.2192 C   0  0  0  0  0  0  0  0  0  0  0  0
  -28.2460  -12.7236   22.2310 C   0  0  0  0  0  0  0  0  0  0  0  0
  -29.1446  -15.0846   22.3600 C   0  0  0  0  0  0  0  0  0  0  0  0
  -28.8713  -22.9098   19.2118 C   0  0  0  0  0  0  0  0  0  0  0  0
  -28.0161  -14.3405   20.2993 C   0  0  0  0  0  0  0  0  0  0  0  0
  -24.5558  -34.1879   19.2547 C   0  0  1  0  0  0  0  0  0  0  0  0
  -29.1880  -24.3490   19.6273 C   0  0  2  0  0  0  0  0  0  0  0  0
  -23.9603  -31.0417   21.2991 C   0  0  1  0  0  0  0  0  0  0  0  0
  -28.1796  -12.8639   20.6983 C   0  0  2  0  0  0  0  0  0  0  0  0
  -28.1895  -17.9815   17.4877 C   0  0  0  0  0  0  0  0  0  0  0  0
  -24.1335  -28.5727   28.6392 C   0  0  0  0  0  0  0  0  0  0  0  0
  -32.2150  -16.1694   18.2739 C   0  0  0  0  0  0  0  0  0  0  0  0
  -30.4714  -16.3336   16.5020 C   0  0  0  0  0  0  0  0  0  0  0  0
  -26.4881  -33.1911   24.5164 C   0  0  0  0  0  0  0  0  0  0  0  0
  -26.5767  -32.0631   26.7498 C   0  0  0  0  0  0  0  0  0  0  0  0
  -24.5023  -33.2504   26.0355 C   0  0  0  0  0  0  0  0  0  0  0  0
  -22.9936  -26.5866   25.6008 C   0  0  0  0  0  0  0  0  0  0  0  0
  -28.1937  -25.3589   19.0954 C   0  0  0  0  0  0  0  0  0  1  0  0
  -25.1091  -31.0510   24.9462 C   0  0  1  0  0  0  0  0  0  0  0  0
  -23.6545  -28.3800   27.2088 C   0  0  2  0  0  0  0  0  0  0  0  0
  -30.7865  -16.7130   17.9762 C   0  0  0  0  0  0  0  0  0  0  0  0
  -25.6723  -32.3739   25.5380 C   0  0  0  0  0  0  0  0  0  0  0  0
  -25.9774  -11.7600   20.8170 N   0  0  0  0  0  0  0  0  0  0  0  0
  -27.0925  -11.9885   20.1026 N   0  0  0  0  0  0  0  0  0  0  0  0
  -30.1256  -22.2856   18.8098 N   0  0  0  0  0  0  0  0  0  0  0  0
  -24.6495  -30.6882   22.5418 N   0  0  0  0  0  0  0  0  0  0  0  0
  -29.0905  -15.1484   20.8975 N   0  0  0  0  0  0  0  0  0  0  0  0
  -28.1452  -11.5024   18.0372 N   0  0  0  0  0  0  0  0  0  0  0  0
  -24.2212   -9.2848   17.7539 N   0  0  0  0  0  0  0  0  0  0  0  0
  -23.9918  -33.0514   19.9509 N   0  0  0  0  0  0  0  0  0  0  0  0
  -24.3096  -30.2697   25.8836 N   0  0  0  0  0  0  0  0  0  0  0  0
  -29.9009  -15.9459   18.8236 N   0  0  0  0  0  0  0  0  0  0  0  0
  -23.4834  -26.9201   26.9631 N   0  3  0  0  0  0  0  0  0  0  0  0
  -31.1848  -25.5681   18.9180 O   0  0  0  0  0  0  0  0  0  0  0  0
  -32.2943  -23.1002   18.2914 O   0  0  0  0  0  0  0  0  0  0  0  0
  -26.1819   -9.7473   16.6582 O   0  0  0  0  0  0  0  0  0  0  0  0
  -25.9750  -32.1602   20.7844 O   0  0  0  0  0  0  0  0  0  0  0  0
  -23.2145  -31.9725   23.8562 O   0  0  0  0  0  0  0  0  0  0  0  0
  -25.5984  -28.3451   25.7745 O   0  0  0  0  0  0  0  0  0  0  0  0
  -30.8895  -16.6073   20.7838 O   0  0  0  0  0  0  0  0  0  0  0  0
  -20.2315   -9.1412   21.6394 O   0  0  0  0  0  0  0  0  0  0  0  0
  -28.3556  -26.5875   19.8029 O   0  0  0  0  0  0  0  0  0  1  0  0
  -19.0448   -3.8225   20.7985 F   0  0  0  0  0  0  0  0  0  0  0  0
  -19.6218   -7.4721   23.7571 F   0  0  0  0  0  0  0  0  0  0  0  0
  1  2  1  0  0  0  0
  1  5  2  0  0  0  0
  2  6  2  0  0  0  0
  3 10  2  0  0  0  0
  3 18  1  0  0  0  0
  4 11  1  0  0  0  0
  4 18  2  0  0  0  0
  5 20  1  0  0  0  0
  6 22  1  0  0  0  0
  7 12  2  0  0  0  0
  7 21  1  0  0  0  0
  8  9  2  0  0  0  0
  8 24  1  0  0  0  0
  9 26  1  0  0  0  0
 10 27  1  0  0  0  0
 11 27  2  0  0  0  0
 12 28  1  0  0  0  0
 13 14  2  0  0  0  0
 13 29  1  0  0  0  0
 14 30  1  0  0  0  0
 15 23  1  0  0  0  0
 15 28  2  0  0  0  0
 16 25  1  0  0  0  0
 16 26  2  0  0  0  0
 17 30  2  0  0  0  0
 17 31  1  0  0  0  0
 18 32  1  0  0  0  0
 19 32  1  0  0  0  0
 19 33  2  0  0  0  0
 19 36  1  0  0  0  0
 20 22  2  0  0  0  0
 20 41  1  0  0  0  0
 21 23  2  0  0  0  0
 21 42  1  0  0  0  0
 22 51  1  0  0  0  0
 23 43  1  0  0  0  0
 24 25  2  0  0  0  0
 24 66  1  0  0  0  0
 25 55  1  0  0  0  0
 26 70  1  0  0  0  0
 27 86  1  0  0  0  0
 28 87  1  0  0  0  0
 29 31  2  0  0  0  0
 29 86  1  0  0  0  0
 30 88  1  0  0  0  0
 31 89  1  0  0  0  0
 32 68  2  0  0  0  0
 33 69  1  0  0  0  0
 33 73  1  0  0  0  0
 34 35  1  0  0  0  0
 34 52  1  0  0  0  0
 34 79  2  0  0  0  0
 35 70  1  0  0  0  0
 35 80  2  0  0  0  0
 36 74  1  0  0  0  0
 36 81  2  0  0  0  0
 37 53  1  0  0  0  0
 37 75  1  0  0  0  0
 37 82  2  0  0  0  0
 38 64  1  0  0  0  0
 38 71  1  0  0  0  0
 38 83  2  0  0  0  0
 39 65  1  0  0  0  0
 39 76  1  0  0  0  0
 39 84  2  0  0  0  0
 40 72  1  0  0  0  0
 40 77  1  0  0  0  0
 40 85  2  0  0  0  0
 41 44  1  0  0  0  0
 42 53  1  0  0  0  0
 43 71  1  0  0  0  0
 44 46  1  0  0  0  0
 45 47  1  0  0  0  0
 45 48  1  0  0  0  0
 46 51  1  0  0  0  0
 47 54  1  0  0  0  0
 48 72  1  0  0  0  0
 49 52  1  0  0  0  0
 49 70  1  0  0  0  0
 50 54  1  0  0  0  0
 50 72  1  0  0  0  0
 51 75  1  0  0  0  0
 52 63  1  0  0  0  0
 53 71  1  0  0  0  0
 54 69  1  0  0  0  0
 56 65  1  0  0  0  0
 57 66  1  0  0  0  0
 58 66  1  0  0  0  0
 59 67  1  0  0  0  0
 60 67  1  0  0  0  0
 61 67  1  0  0  0  0
 62 78  1  0  0  0  0
 63 87  1  0  0  0  0
 64 67  1  0  0  0  0
 64 76  1  0  0  0  0
 65 78  1  0  0  0  0
 66 77  1  0  0  0  0
 68 69  1  0  0  0  0
M  CHG  1  78   1
M  ISO  4  40 100  63 101  77 100  87 101
M  END
> <Batch ID>
0065

> <Smiles>
CNC(C)C(=O)NC(C(=O)N1Cc2cc([101O:1][101CH2:1]C3CN(c4ccc(C(C)(C)[100NH:0][100C:0](=O)N5CCCC(n6nc(-c7ccc(Oc8ccc(F)cc8F)cc7)c(C(N)=O)c6N)C5)c(C)c4)C(=O)C3=O)ccc2CC1C(=O)NC1CCCc2ccccc21)C(C)(C)C

> <Shape>
0.254

> <Color>
0.111

> <Negative vol penalty>
0.000

$$$$

  -OEChem-04042323183D

 86 95  0     1  0  0  0  0  0999 V2000
  -17.4647  -26.2001   21.2633 C   0  0  0  0  0  0  0  0  0  0  0  0
  -18.7552  -26.1369   20.7476 C   0  0  0  0  0  0  0  0  0  0  0  0
  -33.3658  -21.3969   17.2287 C   0  0  0  0  0  0  0  0  0  0  0  0
  -23.0404  -17.3605   24.0695 C   0  0  0  0  0  0  0  0  0  0  0  0
  -24.7978  -16.3929   25.4157 C   0  0  0  0  0  0  0  0  0  0  0  0
  -17.1581  -27.1255   22.2601 C   0  0  0  0  0  0  0  0  0  0  0  0
  -19.7397  -26.9998   21.2277 C   0  0  0  0  0  0  0  0  0  0  0  0
  -24.1292  -24.6363   22.1172 C   0  0  0  0  0  0  0  0  0  0  0  0
  -32.5994  -22.5517   17.0718 C   0  0  0  0  0  0  0  0  0  0  0  0
  -32.8510  -20.3086   17.9332 C   0  0  0  0  0  0  0  0  0  0  0  0
  -22.3923  -17.7931   25.2265 C   0  0  0  0  0  0  0  0  0  0  0  0
  -24.1498  -16.8255   26.5727 C   0  0  0  0  0  0  0  0  0  0  0  0
  -24.9313  -24.3466   21.0142 C   0  0  0  0  0  0  0  0  0  0  0  0
  -21.5351  -15.8446   28.4785 C   0  0  0  0  0  0  0  0  0  0  0  0
  -21.4268  -14.9422   29.5366 C   0  0  0  0  0  0  0  0  0  0  0  0
  -26.2947  -26.2747   21.5068 C   0  0  0  0  0  0  0  0  0  0  0  0
  -30.8035  -21.5300   18.3240 C   0  0  0  0  0  0  0  0  0  0  0  0
  -22.6660  -16.4558   30.9544 C   0  0  0  0  0  0  0  0  0  0  0  0
  -24.2431  -16.6604   24.1642 C   0  0  0  0  0  0  0  0  0  0  0  0
  -24.4090  -15.3354   21.9906 C   0  0  0  0  0  0  0  0  0  0  0  0
  -18.1417  -27.9936   22.7595 C   0  0  0  0  0  0  0  0  0  0  0  0
  -24.3978  -25.7555   22.9182 C   0  0  0  0  0  0  0  0  0  0  0  0
  -19.4457  -27.9386   22.2312 C   0  0  0  0  0  0  0  0  0  0  0  0
  -25.4961  -26.5750   22.6208 C   0  0  0  0  0  0  0  0  0  0  0  0
  -31.3183  -22.6183   17.6195 C   0  0  0  0  0  0  0  0  0  0  0  0
  -31.5699  -20.3752   18.4809 C   0  0  0  0  0  0  0  0  0  0  0  0
  -22.9470  -17.5256   26.4780 C   0  0  0  0  0  0  0  0  0  0  0  0
  -26.0125  -25.1674   20.7072 C   0  0  0  0  0  0  0  0  0  0  0  0
  -22.2090  -17.0526   28.6584 C   0  0  0  0  0  0  0  0  0  0  0  0
  -21.9922  -15.2478   30.7745 C   0  0  0  0  0  0  0  0  0  0  0  0
  -22.7744  -17.3582   29.8963 C   0  0  0  0  0  0  0  0  0  0  0  0
  -24.9128  -16.2128   22.9695 C   0  0  0  0  0  0  0  0  0  0  0  0
  -25.4220  -15.2311   21.0689 C   0  0  0  0  0  0  0  0  0  0  0  0
  -30.7293  -24.5902   16.2871 C   0  0  0  0  0  0  0  0  0  0  0  0
  -29.5988  -24.1413   18.4862 C   0  0  0  0  0  0  0  0  0  0  0  0
  -23.1389  -14.6738   21.9206 C   0  0  0  0  0  0  0  0  0  0  0  0
  -22.8188  -28.4116   23.6634 C   0  0  0  0  0  0  0  0  0  0  0  0
  -25.3218  -28.8707   25.6750 C   0  0  0  0  0  0  0  0  0  0  0  0
  -28.5852  -28.2221   26.4343 C   0  0  0  0  0  0  0  0  0  0  0  0
  -29.7953  -19.1604   19.8073 C   0  0  0  0  0  0  0  0  0  0  0  0
  -17.7512  -29.0092   23.8039 C   0  0  0  0  0  0  0  0  0  0  0  0
  -23.5391  -26.0392   24.1201 C   0  0  0  0  0  0  0  0  0  0  0  0
  -25.8392  -27.7770   23.4610 C   0  0  0  0  0  0  0  0  0  0  0  0
  -30.0151  -25.9236   16.2095 C   0  0  0  0  0  0  0  0  0  0  0  0
  -18.9444  -29.6334   24.5227 C   0  0  0  0  0  0  0  0  0  0  0  0
  -29.4609  -26.4040   17.5304 C   0  0  0  0  0  0  0  0  0  0  0  0
  -30.2134  -15.7459   21.5074 C   0  0  0  0  0  0  0  0  0  0  0  0
  -20.0134  -30.0521   23.5183 C   0  0  0  0  0  0  0  0  0  0  0  0
  -28.8099  -15.1833   21.2949 C   0  0  0  0  0  0  0  0  0  0  0  0
  -30.5619  -16.8273   20.4925 C   0  0  0  0  0  0  0  0  0  0  0  0
  -28.3027  -17.6832   21.1401 C   0  0  0  0  0  0  0  0  0  0  0  0
  -20.5471  -28.8410   22.7437 C   0  0  1  0  0  0  0  0  0  0  0  0
  -28.6471  -25.2790   18.1445 C   0  0  2  0  0  0  0  0  0  0  0  0
  -23.5978  -27.4970   24.5658 C   0  0  1  0  0  0  0  0  0  0  0  0
  -27.7840  -16.2591   20.8867 C   0  0  2  0  0  0  0  0  0  0  0  0
  -30.3619  -28.7697   28.1197 C   0  0  0  0  0  0  0  0  0  0  0  0
  -25.6809  -31.6194   24.3999 C   0  0  0  0  0  0  0  0  0  0  0  0
  -27.9684  -31.7135   25.4130 C   0  0  0  0  0  0  0  0  0  0  0  0
  -25.9590  -31.5778   26.8849 C   0  0  0  0  0  0  0  0  0  0  0  0
  -28.8607  -25.3869   27.2371 C   0  0  0  0  0  0  0  0  0  0  0  0
  -27.8876  -25.7706   19.3745 C   0  0  0  0  0  0  0  0  0  1  0  0
  -26.6706  -29.5404   25.5678 C   0  0  1  0  0  0  0  0  0  0  0  0
  -29.2536  -27.8035   27.7314 C   0  0  2  0  0  0  0  0  0  0  0  0
  -26.5624  -31.0913   25.5493 C   0  0  0  0  0  0  0  0  0  0  0  0
  -26.1497  -16.6357   22.6954 N   0  0  0  0  0  0  0  0  0  0  0  0
  -26.4317  -16.0214   21.5339 N   0  0  0  0  0  0  0  0  0  0  0  0
  -30.5222  -23.8185   17.4556 N   0  0  0  0  0  0  0  0  0  0  0  0
  -24.9659  -28.0162   24.6219 N   0  0  0  0  0  0  0  0  0  0  0  0
  -29.5750  -17.9160   20.4470 N   0  0  0  0  0  0  0  0  0  0  0  0
  -25.5387  -14.5415   19.9143 N   0  0  0  0  0  0  0  0  0  0  0  0
  -23.0120  -13.4074   22.5075 N   0  0  0  0  0  0  0  0  0  0  0  0
  -31.0474  -19.2690   19.1965 N   0  0  0  0  0  0  0  0  0  0  0  0
  -21.4789  -28.0907   23.5582 N   0  0  0  0  0  0  0  0  0  0  0  0
  -27.4773  -29.0107   26.6619 N   0  0  0  0  0  0  0  0  0  0  0  0
  -29.8438  -26.4419   27.5941 N   0  3  0  0  0  0  0  0  0  0  0  0
  -31.3749  -24.2234   15.2998 O   0  0  0  0  0  0  0  0  0  0  0  0
  -29.5434  -23.5894   19.5871 O   0  0  0  0  0  0  0  0  0  0  0  0
  -22.1505  -15.1833   21.3401 O   0  0  0  0  0  0  0  0  0  0  0  0
  -23.3907  -29.3407   23.1053 O   0  0  0  0  0  0  0  0  0  0  0  0
  -24.6134  -29.0919   26.6603 O   0  0  0  0  0  0  0  0  0  0  0  0
  -29.0061  -27.8863   25.3294 O   0  0  0  0  0  0  0  0  0  0  0  0
  -28.9357  -20.0441   19.7959 O   0  0  0  0  0  0  0  0  0  0  0  0
  -22.3150  -17.9478   27.6072 O   0  0  0  0  0  0  0  0  0  0  0  0
  -26.7965  -24.8872   19.6308 O   0  0  0  0  0  0  0  0  0  1  0  0
  -21.8867  -14.3818   31.7909 F   0  0  0  0  0  0  0  0  0  0  0  0
  -23.4219  -18.5177   30.0755 F   0  0  0  0  0  0  0  0  0  0  0  0
  1  2  1  0  0  0  0
  1  6  2  0  0  0  0
  2  7  2  0  0  0  0
  3  9  2  0  0  0  0
  3 10  1  0  0  0  0
  4 11  2  0  0  0  0
  4 19  1  0  0  0  0
  5 12  1  0  0  0  0
  5 19  2  0  0  0  0
  6 21  1  0  0  0  0
  7 23  1  0  0  0  0
  8 13  2  0  0  0  0
  8 22  1  0  0  0  0
  9 25  1  0  0  0  0
 10 26  2  0  0  0  0
 11 27  1  0  0  0  0
 12 27  2  0  0  0  0
 13 28  1  0  0  0  0
 14 15  2  0  0  0  0
 14 29  1  0  0  0  0
 15 30  1  0  0  0  0
 16 24  1  0  0  0  0
 16 28  2  0  0  0  0
 17 25  2  0  0  0  0
 17 26  1  0  0  0  0
 18 30  2  0  0  0  0
 18 31  1  0  0  0  0
 19 32  1  0  0  0  0
 20 32  1  0  0  0  0
 20 33  2  0  0  0  0
 20 36  1  0  0  0  0
 21 23  2  0  0  0  0
 21 41  1  0  0  0  0
 22 24  2  0  0  0  0
 22 42  1  0  0  0  0
 23 52  1  0  0  0  0
 24 43  1  0  0  0  0
 25 67  1  0  0  0  0
 26 72  1  0  0  0  0
 27 83  1  0  0  0  0
 28 84  1  0  0  0  0
 29 31  2  0  0  0  0
 29 83  1  0  0  0  0
 30 85  1  0  0  0  0
 31 86  1  0  0  0  0
 32 65  2  0  0  0  0
 33 66  1  0  0  0  0
 33 70  1  0  0  0  0
 34 44  1  0  0  0  0
 34 67  1  0  0  0  0
 34 76  2  0  0  0  0
 35 53  1  0  0  0  0
 35 67  1  0  0  0  0
 35 77  2  0  0  0  0
 36 71  1  0  0  0  0
 36 78  2  0  0  0  0
 37 54  1  0  0  0  0
 37 73  1  0  0  0  0
 37 79  2  0  0  0  0
 38 62  1  0  0  0  0
 38 68  1  0  0  0  0
 38 80  2  0  0  0  0
 39 63  1  0  0  0  0
 39 74  1  0  0  0  0
 39 81  2  0  0  0  0
 40 69  1  0  0  0  0
 40 72  1  0  0  0  0
 40 82  2  0  0  0  0
 41 45  1  0  0  0  0
 42 54  1  0  0  0  0
 43 68  1  0  0  0  0
 44 46  1  0  0  0  0
 45 48  1  0  0  0  0
 46 53  1  0  0  0  0
 47 49  1  0  0  0  0
 47 50  1  0  0  0  0
 48 52  1  0  0  0  0
 49 55  1  0  0  0  0
 50 69  1  0  0  0  0
 51 55  1  0  0  0  0
 51 69  1  0  0  0  0
 52 73  1  0  0  0  0
 53 61  1  0  0  0  0
 54 68  1  0  0  0  0
 55 66  1  0  0  0  0
 56 63  1  0  0  0  0
 57 64  1  0  0  0  0
 58 64  1  0  0  0  0
 59 64  1  0  0  0  0
 60 75  1  0  0  0  0
 61 84  1  0  0  0  0
 62 64  1  0  0  0  0
 62 74  1  0  0  0  0
 63 75  1  0  0  0  0
 65 66  1  0  0  0  0
M  CHG  1  75   1
M  ISO  4  40 100  61 101  72 100  84 101
M  END
> <Batch ID>
0065

> <Smiles>
CNC(C)C(=O)NC(C(=O)N1Cc2cc([101O:1][101CH2:1]C3CCC(=O)N(c4cccc([100NH:0][100C:0](=O)N5CCCC(n6nc(-c7ccc(Oc8ccc(F)cc8F)cc7)c(C(N)=O)c6N)C5)c4)C3=O)ccc2CC1C(=O)NC1CCCc2ccccc21)C(C)(C)C

> <Shape>
0.205

> <Color>
0.092

> <Negative vol penalty>
0.000

$$$$

  -OEChem-04042323183D

 85 93  0     1  0  0  0  0  0999 V2000
  -22.8125  -15.1804   36.5096 C   0  0  0  0  0  0  0  0  0  0  0  0
  -23.5599  -14.7043   35.4372 C   0  0  0  0  0  0  0  0  0  0  0  0
  -33.5761  -13.7814   24.8542 C   0  0  0  0  0  0  0  0  0  0  0  0
  -23.2866   -9.8010   19.9132 C   0  0  0  0  0  0  0  0  0  0  0  0
  -23.7376   -9.9419   22.2826 C   0  0  0  0  0  0  0  0  0  0  0  0
  -33.0032  -13.6961   26.1231 C   0  0  0  0  0  0  0  0  0  0  0  0
  -21.4520  -15.4398   36.3491 C   0  0  0  0  0  0  0  0  0  0  0  0
  -22.9471  -14.4863   34.2038 C   0  0  0  0  0  0  0  0  0  0  0  0
  -25.6874  -16.2604   30.3323 C   0  0  0  0  0  0  0  0  0  0  0  0
  -32.8046  -13.5207   23.7217 C   0  0  0  0  0  0  0  0  0  0  0  0
  -22.5601   -8.6287   20.1212 C   0  0  0  0  0  0  0  0  0  0  0  0
  -23.0110   -8.7696   22.4906 C   0  0  0  0  0  0  0  0  0  0  0  0
  -26.7760  -15.4939   29.9187 C   0  0  0  0  0  0  0  0  0  0  0  0
  -19.4785   -7.7690   21.2157 C   0  0  0  0  0  0  0  0  0  0  0  0
  -18.2494   -7.6447   20.5681 C   0  0  0  0  0  0  0  0  0  0  0  0
  -25.4577  -14.6137   28.1003 C   0  0  0  0  0  0  0  0  0  0  0  0
  -19.0504   -5.6715   19.4269 C   0  0  0  0  0  0  0  0  0  0  0  0
  -23.8755  -10.4576   20.9939 C   0  0  0  0  0  0  0  0  0  0  0  0
  -31.6588  -13.3501   26.2595 C   0  0  0  0  0  0  0  0  0  0  0  0
  -24.1354  -12.9875   20.7949 C   0  0  0  0  0  0  0  0  0  0  0  0
  -20.8242  -15.2340   35.1104 C   0  0  0  0  0  0  0  0  0  0  0  0
  -24.4703  -16.2010   29.6383 C   0  0  0  0  0  0  0  0  0  0  0  0
  -21.5766  -14.7420   34.0269 C   0  0  0  0  0  0  0  0  0  0  0  0
  -24.3559  -15.3824   28.5056 C   0  0  0  0  0  0  0  0  0  0  0  0
  -31.4603  -13.1747   23.8581 C   0  0  0  0  0  0  0  0  0  0  0  0
  -22.4222   -8.1130   21.4099 C   0  0  0  0  0  0  0  0  0  0  0  0
  -26.6604  -14.6681   28.8043 C   0  0  0  0  0  0  0  0  0  0  0  0
  -20.4936   -6.8447   20.9689 C   0  0  0  0  0  0  0  0  0  0  0  0
  -18.0353   -6.5959   19.6737 C   0  0  0  0  0  0  0  0  0  0  0  0
  -20.2795   -5.7960   20.0745 C   0  0  0  0  0  0  0  0  0  0  0  0
  -30.8874  -13.0894   25.1270 C   0  0  0  0  0  0  0  0  0  0  0  0
  -24.6267  -11.6684   20.7796 C   0  0  0  0  0  0  0  0  0  0  0  0
  -25.2370  -13.7672   20.5397 C   0  0  0  0  0  0  0  0  0  0  0  0
  -31.0533  -13.2609   27.6132 C   0  0  0  0  0  0  0  0  0  0  0  0
  -22.8024  -13.4655   21.0197 C   0  0  0  0  0  0  0  0  0  0  0  0
  -21.5067  -15.3215   30.3783 C   0  0  0  0  0  0  0  0  0  0  0  0
  -20.8489  -16.4401   27.4054 C   0  0  0  0  0  0  0  0  0  0  0  0
  -21.9784  -17.1695   24.2687 C   0  0  0  0  0  0  0  0  0  0  0  0
  -31.0972  -12.9518   21.3752 C   0  0  0  0  0  0  0  0  0  0  0  0
  -19.3411  -15.4837   34.9980 C   0  0  0  0  0  0  0  0  0  0  0  0
  -23.3137  -17.0544   30.0814 C   0  0  0  0  0  0  0  0  0  0  0  0
  -23.0774  -15.2982   27.7139 C   0  0  0  0  0  0  0  0  0  0  0  0
  -18.8476  -15.5822   33.5568 C   0  0  0  0  0  0  0  0  0  0  0  0
  -29.4637  -13.6560   18.2909 C   0  0  0  0  0  0  0  0  0  0  0  0
  -19.4221  -14.4458   32.7169 C   0  0  0  0  0  0  0  0  0  0  0  0
  -27.9923  -13.3521   18.5822 C   0  0  0  0  0  0  0  0  0  0  0  0
  -30.3967  -12.6808   19.0064 C   0  0  0  0  0  0  0  0  0  0  0  0
  -28.7036  -12.2533   20.7442 C   0  0  0  0  0  0  0  0  0  0  0  0
  -20.9531  -14.5165   32.6666 C   0  0  1  0  0  0  0  0  0  0  0  0
  -21.9642  -16.5259   29.6050 C   0  0  1  0  0  0  0  0  0  0  0  0
  -27.7274  -13.2493   20.0971 C   0  0  2  0  0  0  0  0  0  0  0  0
  -21.9208  -18.0488   21.9190 C   0  0  0  0  0  0  0  0  0  0  0  0
  -19.5499  -13.7433   26.8141 C   0  0  0  0  0  0  0  0  0  0  0  0
  -19.6541  -14.3060   24.3767 C   0  0  0  0  0  0  0  0  0  0  0  0
  -18.3020  -15.7196   25.9247 C   0  0  0  0  0  0  0  0  0  0  0  0
  -28.2342  -11.0910   28.8069 C   0  0  0  0  0  0  0  0  0  0  0  0
  -30.3100  -11.7065   30.0706 C   0  0  0  0  0  0  0  0  0  0  0  0
  -22.8160  -19.8723   25.1361 C   0  0  0  0  0  0  0  0  0  0  0  0
  -28.6352  -13.4878   29.4066 C   0  0  0  0  0  0  0  0  0  1  0  0
  -20.8255  -15.8426   26.0192 C   0  0  1  0  0  0  0  0  0  0  0  0
  -21.8008  -18.3977   23.3944 C   0  0  2  0  0  0  0  0  0  0  0  0
  -19.6065  -14.9028   25.7995 C   0  0  0  0  0  0  0  0  0  0  0  0
  -29.3117  -12.1663   29.0005 C   0  0  0  0  0  0  0  0  0  0  0  0
  -25.9382  -11.6094   20.5340 N   0  0  0  0  0  0  0  0  0  0  0  0
  -26.2804  -12.9013   20.3925 N   0  0  0  0  0  0  0  0  0  0  0  0
  -21.9729  -16.1470   28.1905 N   0  0  0  0  0  0  0  0  0  0  0  0
  -30.0900  -12.6391   20.4379 N   0  0  0  0  0  0  0  0  0  0  0  0
  -25.4052  -15.1020   20.4290 N   0  0  0  0  0  0  0  0  0  0  0  0
  -21.7897  -12.5288   21.2674 N   0  0  0  0  0  0  0  0  0  0  0  0
  -30.6801  -12.9106   22.7052 N   0  0  0  0  0  0  0  0  0  0  0  0
  -30.0218  -12.3518   27.7458 N   0  0  0  0  0  0  0  0  0  0  0  0
  -21.3815  -15.5397   31.7370 N   0  0  0  0  0  0  0  0  0  0  0  0
  -20.8896  -16.9652   25.0897 N   0  0  0  0  0  0  0  0  0  0  0  0
  -22.8346  -19.4201   23.7211 N   0  3  0  0  0  0  0  0  0  0  0  0
  -31.4734  -13.9902   28.5076 O   0  0  0  0  0  0  0  0  0  0  0  0
  -22.5148  -14.6859   20.9852 O   0  0  0  0  0  0  0  0  0  0  0  0
  -21.2826  -14.2725   29.7859 O   0  0  0  0  0  0  0  0  0  0  0  0
  -19.9080  -17.1470   27.7752 O   0  0  0  0  0  0  0  0  0  0  0  0
  -22.9810  -16.4600   24.2248 O   0  0  0  0  0  0  0  0  0  0  0  0
  -32.2381  -13.2618   21.0226 O   0  0  0  0  0  0  0  0  0  0  0  0
  -21.7130   -6.9691   21.6133 O   0  0  0  0  0  0  0  0  0  0  0  0
  -27.7212  -13.9184   28.3989 O   0  0  0  0  0  0  0  0  0  1  0  0
  -16.8545   -6.4757   19.0530 F   0  0  0  0  0  0  0  0  0  0  0  0
  -21.2506   -4.9042   19.8343 F   0  0  0  0  0  0  0  0  0  0  0  0
  -29.5945  -12.7551   25.2582 F   0  0  0  0  0  0  0  0  0  0  0  0
  1  2  1  0  0  0  0
  1  7  2  0  0  0  0
  2  8  2  0  0  0  0
  3  6  2  0  0  0  0
  3 10  1  0  0  0  0
  4 11  2  0  0  0  0
  4 18  1  0  0  0  0
  5 12  1  0  0  0  0
  5 18  2  0  0  0  0
  6 19  1  0  0  0  0
  7 21  1  0  0  0  0
  8 23  1  0  0  0  0
  9 13  2  0  0  0  0
  9 22  1  0  0  0  0
 10 25  2  0  0  0  0
 11 26  1  0  0  0  0
 12 26  2  0  0  0  0
 13 27  1  0  0  0  0
 14 15  2  0  0  0  0
 14 28  1  0  0  0  0
 15 29  1  0  0  0  0
 16 24  1  0  0  0  0
 16 27  2  0  0  0  0
 17 29  2  0  0  0  0
 17 30  1  0  0  0  0
 18 32  1  0  0  0  0
 19 31  2  0  0  0  0
 19 34  1  0  0  0  0
 20 32  1  0  0  0  0
 20 33  2  0  0  0  0
 20 35  1  0  0  0  0
 21 23  2  0  0  0  0
 21 40  1  0  0  0  0
 22 24  2  0  0  0  0
 22 41  1  0  0  0  0
 23 49  1  0  0  0  0
 24 42  1  0  0  0  0
 25 31  1  0  0  0  0
 25 70  1  0  0  0  0
 26 81  1  0  0  0  0
 27 82  1  0  0  0  0
 28 30  2  0  0  0  0
 28 81  1  0  0  0  0
 29 83  1  0  0  0  0
 30 84  1  0  0  0  0
 31 85  1  0  0  0  0
 32 64  2  0  0  0  0
 33 65  1  0  0  0  0
 33 68  1  0  0  0  0
 34 71  1  0  0  0  0
 34 75  2  0  0  0  0
 35 69  1  0  0  0  0
 35 76  2  0  0  0  0
 36 50  1  0  0  0  0
 36 72  1  0  0  0  0
 36 77  2  0  0  0  0
 37 60  1  0  0  0  0
 37 66  1  0  0  0  0
 37 78  2  0  0  0  0
 38 61  1  0  0  0  0
 38 73  1  0  0  0  0
 38 79  2  0  0  0  0
 39 67  1  0  0  0  0
 39 70  1  0  0  0  0
 39 80  2  0  0  0  0
 40 43  1  0  0  0  0
 41 50  1  0  0  0  0
 42 66  1  0  0  0  0
 43 45  1  0  0  0  0
 44 46  1  0  0  0  0
 44 47  1  0  0  0  0
 45 49  1  0  0  0  0
 46 51  1  0  0  0  0
 47 67  1  0  0  0  0
 48 51  1  0  0  0  0
 48 67  1  0  0  0  0
 49 72  1  0  0  0  0
 50 66  1  0  0  0  0
 51 65  1  0  0  0  0
 52 61  1  0  0  0  0
 53 62  1  0  0  0  0
 54 62  1  0  0  0  0
 55 62  1  0  0  0  0
 56 63  1  0  0  0  0
 57 63  1  0  0  0  0
 58 74  1  0  0  0  0
 59 63  1  0  0  0  0
 59 82  1  0  0  0  0
 60 62  1  0  0  0  0
 60 73  1  0  0  0  0
 61 74  1  0  0  0  0
 63 71  1  0  0  0  0
 64 65  1  0  0  0  0
M  CHG  1  74   1
M  ISO  4  39 100  59 101  70 100  82 101
M  END
> <Batch ID>
0065

> <Smiles>
CNC(C)C(=O)NC(C(=O)N1Cc2cc([101O:1][101CH2:1]C(C)(C)NC(=O)c3cccc([100NH:0][100C:0](=O)N4CCCC(n5nc(-c6ccc(Oc7ccc(F)cc7F)cc6)c(C(N)=O)c5N)C4)c3F)ccc2CC1C(=O)NC1CCCc2ccccc21)C(C)(C)C

> <Shape>
0.117

> <Color>
0.170

> <Negative vol penalty>
0.000

$$$$

  -OEChem-04042323183D

 87 97  0     1  0  0  0  0  0999 V2000
  -31.4629  -29.0888   15.3670 C   0  0  0  0  0  0  0  0  0  0  0  0
  -31.5144  -27.7495   14.9976 C   0  0  0  0  0  0  0  0  0  0  0  0
  -25.7554  -10.9129   21.0653 C   0  0  0  0  0  0  0  0  0  0  0  0
  -21.9591  -22.6501   22.5311 C   0  0  0  0  0  0  0  0  0  0  0  0
  -22.5923  -22.6748   24.8625 C   0  0  0  0  0  0  0  0  0  0  0  0
  -30.9037  -29.4493   16.5912 C   0  0  0  0  0  0  0  0  0  0  0  0
  -30.9961  -26.7713   15.8469 C   0  0  0  0  0  0  0  0  0  0  0  0
  -30.3154  -19.6525   16.8888 C   0  0  0  0  0  0  0  0  0  0  0  0
  -26.9857  -11.4691   20.7054 C   0  0  0  0  0  0  0  0  0  0  0  0
  -20.8976  -23.5107   22.8103 C   0  0  0  0  0  0  0  0  0  0  0  0
  -21.5308  -23.5355   25.1417 C   0  0  0  0  0  0  0  0  0  0  0  0
  -30.5623  -18.5877   17.7543 C   0  0  0  0  0  0  0  0  0  0  0  0
  -18.2373  -25.9879   22.8472 C   0  0  0  0  0  0  0  0  0  0  0  0
  -18.0320  -27.0653   21.9855 C   0  0  0  0  0  0  0  0  0  0  0  0
  -23.2937  -11.5207   21.6223 C   0  0  0  0  0  0  0  0  0  0  0  0
  -28.7363  -19.3106   19.1548 C   0  0  0  0  0  0  0  0  0  0  0  0
  -26.0541  -13.7050   20.8303 C   0  0  0  0  0  0  0  0  0  0  0  0
  -20.2428  -27.8952   22.4966 C   0  0  0  0  0  0  0  0  0  0  0  0
  -24.6563  -11.7599   21.3162 C   0  0  0  0  0  0  0  0  0  0  0  0
  -22.8065  -22.2321   23.5572 C   0  0  0  0  0  0  0  0  0  0  0  0
  -25.2159  -21.7005   22.9093 C   0  0  0  0  0  0  0  0  0  0  0  0
  -30.3898  -28.4732   17.4608 C   0  0  0  0  0  0  0  0  0  0  0  0
  -29.2820  -20.5623   17.1554 C   0  0  0  0  0  0  0  0  0  0  0  0
  -30.4061  -27.1171   17.0761 C   0  0  0  0  0  0  0  0  0  0  0  0
  -28.4755  -20.3832   18.2886 C   0  0  0  0  0  0  0  0  0  0  0  0
  -24.8276  -13.1476   21.2350 C   0  0  0  0  0  0  0  0  0  0  0  0
  -27.1278  -12.8461   20.5794 C   0  0  0  0  0  0  0  0  0  0  0  0
  -20.6834  -23.9534   24.1155 C   0  0  0  0  0  0  0  0  0  0  0  0
  -29.7741  -18.4180   18.8887 C   0  0  0  0  0  0  0  0  0  0  0  0
  -19.4452  -25.8641   23.5337 C   0  0  0  0  0  0  0  0  0  0  0  0
  -19.0348  -28.0190   21.8101 C   0  0  0  0  0  0  0  0  0  0  0  0
  -20.4480  -26.8177   23.3583 C   0  0  0  0  0  0  0  0  0  0  0  0
  -23.9029  -21.3426   23.2695 C   0  0  0  0  0  0  0  0  0  0  0  0
  -25.8661  -20.5017   22.7463 C   0  0  0  0  0  0  0  0  0  0  0  0
  -22.6664  -12.7394   21.7015 C   0  0  0  0  0  0  0  0  0  0  0  0
  -29.5639  -12.6712   19.9110 C   0  0  0  0  0  0  0  0  0  0  0  0
  -25.7960  -23.0004   22.7375 C   0  0  0  0  0  0  0  0  0  0  0  0
  -29.0448  -23.7079   17.6982 C   0  0  0  0  0  0  0  0  0  0  0  0
  -25.8085  -22.9519   17.6086 C   0  0  0  0  0  0  0  0  0  0  0  0
  -25.0878  -26.2810   17.4138 C   0  0  0  0  0  0  0  0  0  0  0  0
  -23.2907  -15.1069   21.6313 C   0  0  0  0  0  0  0  0  0  0  0  0
  -29.7888  -28.9198   18.7702 C   0  0  0  0  0  0  0  0  0  0  0  0
  -29.0129  -21.6870   16.1927 C   0  0  0  0  0  0  0  0  0  0  0  0
  -27.3523  -21.3295   18.6168 C   0  0  0  0  0  0  0  0  0  0  0  0
  -30.6049  -13.6668   19.4524 C   0  0  0  0  0  0  0  0  0  0  0  0
  -29.6723  -27.7890   19.7871 C   0  0  0  0  0  0  0  0  0  0  0  0
  -25.8748  -15.9822   24.2379 C   0  0  0  0  0  0  0  0  0  0  0  0
  -29.0149  -26.5771   19.1439 C   0  0  0  0  0  0  0  0  0  0  0  0
  -25.6780  -17.4942   24.3053 C   0  0  0  0  0  0  0  0  0  0  0  0
  -24.6063  -15.2700   23.7804 C   0  0  0  0  0  0  0  0  0  0  0  0
  -28.5781  -14.8128   19.9686 C   0  0  0  0  0  0  0  0  0  0  0  0
  -23.8612  -17.2938   22.5571 C   0  0  0  0  0  0  0  0  0  0  0  0
  -29.8762  -26.0330   17.9971 C   0  0  1  0  0  0  0  0  0  0  0  0
  -28.2114  -22.8346   16.8036 C   0  0  1  0  0  0  0  0  0  0  0  0
  -30.0880  -14.9952   19.9860 C   0  0  2  0  0  0  0  0  0  0  0  0
  -25.1431  -18.0329   22.9695 C   0  0  1  0  0  0  0  0  0  0  0  0
  -23.6831  -28.3526   17.2336 C   0  0  0  0  0  0  0  0  0  0  0  0
  -25.9124  -22.3237   14.6253 C   0  0  0  0  0  0  0  0  0  0  0  0
  -24.7558  -24.5026   14.1981 C   0  0  0  0  0  0  0  0  0  0  0  0
  -23.6149  -22.7267   15.5274 C   0  0  0  0  0  0  0  0  0  0  0  0
  -24.7327  -26.4355   20.3479 C   0  0  0  0  0  0  0  0  0  0  0  0
  -30.5553  -16.1897   19.1726 C   0  0  0  0  0  0  0  0  0  1  0  0
  -25.5432  -23.9984   16.5554 C   0  0  1  0  0  0  0  0  0  0  0  0
  -23.9963  -27.1149   18.0600 C   0  0  2  0  0  0  0  0  0  0  0  0
  -24.9811  -23.3871   15.2409 C   0  0  0  0  0  0  0  0  0  0  0  0
  -23.7277  -20.0199   23.3317 N   0  0  0  0  0  0  0  0  0  0  0  0
  -23.6088  -13.7417   21.5701 N   0  0  0  0  0  0  0  0  0  0  0  0
  -24.9391  -19.5362   23.0082 N   0  0  0  0  0  0  0  0  0  0  0  0
  -28.3885  -13.3921   20.1935 N   0  0  0  0  0  0  0  0  0  0  0  0
  -27.0770  -22.3579   17.6050 N   0  0  0  0  0  0  0  0  0  0  0  0
  -24.0535  -15.8430   22.5409 N   0  0  0  0  0  0  0  0  0  0  0  0
  -27.1347  -20.1898   22.4058 N   0  0  0  0  0  0  0  0  0  0  0  0
  -24.9868  -24.1258   22.9446 N   0  0  0  0  0  0  0  0  0  0  0  0
  -29.1273  -25.0231   17.2823 N   0  0  0  0  0  0  0  0  0  0  0  0
  -24.6695  -24.9889   17.1750 N   0  0  0  0  0  0  0  0  0  0  0  0
  -24.4162  -27.5527   19.4212 N   0  3  0  0  0  0  0  0  0  0  0  0
  -29.7760  -11.4676   19.9413 O   0  0  0  0  0  0  0  0  0  0  0  0
  -26.9920  -23.1590   22.3941 O   0  0  0  0  0  0  0  0  0  0  0  0
  -29.5727  -23.2246   18.6929 O   0  0  0  0  0  0  0  0  0  0  0  0
  -24.9148  -22.6618   18.4089 O   0  0  0  0  0  0  0  0  0  0  0  0
  -26.1990  -26.7317   17.1443 O   0  0  0  0  0  0  0  0  0  0  0  0
  -22.4021  -15.5160   20.8950 O   0  0  0  0  0  0  0  0  0  0  0  0
  -21.3629  -12.9728   21.7132 O   0  0  0  0  0  0  0  0  0  0  0  0
  -19.6477  -24.7934   24.3883 O   0  0  0  0  0  0  0  0  0  0  0  0
  -30.0145  -17.3705   19.7418 O   0  0  0  0  0  0  0  0  0  1  0  0
  -18.8382  -29.0527   20.9814 F   0  0  0  0  0  0  0  0  0  0  0  0
  -21.6110  -26.7035   24.0142 F   0  0  0  0  0  0  0  0  0  0  0  0
  1  2  1  0  0  0  0
  1  6  2  0  0  0  0
  2  7  2  0  0  0  0
  3  9  2  0  0  0  0
  3 19  1  0  0  0  0
  4 10  2  0  0  0  0
  4 20  1  0  0  0  0
  5 11  1  0  0  0  0
  5 20  2  0  0  0  0
  6 22  1  0  0  0  0
  7 24  1  0  0  0  0
  8 12  2  0  0  0  0
  8 23  1  0  0  0  0
  9 27  1  0  0  0  0
 10 28  1  0  0  0  0
 11 28  2  0  0  0  0
 12 29  1  0  0  0  0
 13 14  2  0  0  0  0
 13 30  1  0  0  0  0
 14 31  1  0  0  0  0
 15 19  1  0  0  0  0
 15 35  2  0  0  0  0
 16 25  1  0  0  0  0
 16 29  2  0  0  0  0
 17 26  1  0  0  0  0
 17 27  2  0  0  0  0
 18 31  2  0  0  0  0
 18 32  1  0  0  0  0
 19 26  2  0  0  0  0
 20 33  1  0  0  0  0
 21 33  1  0  0  0  0
 21 34  2  0  0  0  0
 21 37  1  0  0  0  0
 22 24  2  0  0  0  0
 22 42  1  0  0  0  0
 23 25  2  0  0  0  0
 23 43  1  0  0  0  0
 24 53  1  0  0  0  0
 25 44  1  0  0  0  0
 26 67  1  0  0  0  0
 27 69  1  0  0  0  0
 28 84  1  0  0  0  0
 29 85  1  0  0  0  0
 30 32  2  0  0  0  0
 30 84  1  0  0  0  0
 31 86  1  0  0  0  0
 32 87  1  0  0  0  0
 33 66  2  0  0  0  0
 34 68  1  0  0  0  0
 34 72  1  0  0  0  0
 35 67  1  0  0  0  0
 35 83  1  0  0  0  0
 36 45  1  0  0  0  0
 36 69  1  0  0  0  0
 36 77  2  0  0  0  0
 37 73  1  0  0  0  0
 37 78  2  0  0  0  0
 38 54  1  0  0  0  0
 38 74  1  0  0  0  0
 38 79  2  0  0  0  0
 39 63  1  0  0  0  0
 39 70  1  0  0  0  0
 39 80  2  0  0  0  0
 40 64  1  0  0  0  0
 40 75  1  0  0  0  0
 40 81  2  0  0  0  0
 41 67  1  0  0  0  0
 41 71  1  0  0  0  0
 41 82  2  0  0  0  0
 42 46  1  0  0  0  0
 43 54  1  0  0  0  0
 44 70  1  0  0  0  0
 45 55  1  0  0  0  0
 46 48  1  0  0  0  0
 47 49  1  0  0  0  0
 47 50  1  0  0  0  0
 48 53  1  0  0  0  0
 49 56  1  0  0  0  0
 50 71  1  0  0  0  0
 51 55  1  0  0  0  0
 51 69  1  0  0  0  0
 52 56  1  0  0  0  0
 52 71  1  0  0  0  0
 53 74  1  0  0  0  0
 54 70  1  0  0  0  0
 55 62  1  0  0  0  0
 56 68  1  0  0  0  0
 57 64  1  0  0  0  0
 58 65  1  0  0  0  0
 59 65  1  0  0  0  0
 60 65  1  0  0  0  0
 61 76  1  0  0  0  0
 62 85  1  0  0  0  0
 63 65  1  0  0  0  0
 63 75  1  0  0  0  0
 64 76  1  0  0  0  0
 66 68  1  0  0  0  0
M  CHG  1  76   1
M  ISO  4  41 100  62 101  67 100  85 101
M  END
> <Batch ID>
0065

> <Smiles>
CNC(C)C(=O)NC(C(=O)N1Cc2cc([101O:1][101CH2:1]C3CC(=O)N(c4ccc5c(c4)[100N:0]([100C:0](=O)N4CCCC(n6nc(-c7ccc(Oc8ccc(F)cc8F)cc7)c(C(N)=O)c6N)C4)C(=O)C5)C3)ccc2CC1C(=O)NC1CCCc2ccccc21)C(C)(C)C

> <Shape>
0.195

> <Color>
0.070

> <Negative vol penalty>
0.000

$$$$

  -OEChem-04042323183D

 83 91  0     1  0  0  0  0  0999 V2000
  -19.4159  -30.1893   20.6421 C   0  0  0  0  0  0  0  0  0  0  0  0
  -20.4990  -29.4337   21.0796 C   0  0  0  0  0  0  0  0  0  0  0  0
  -23.0580   -9.9437   21.5063 C   0  0  0  0  0  0  0  0  0  0  0  0
  -23.7736  -10.8940   23.6091 C   0  0  0  0  0  0  0  0  0  0  0  0
  -18.2084  -30.1424   21.3375 C   0  0  0  0  0  0  0  0  0  0  0  0
  -20.3754  -28.6314   22.2134 C   0  0  0  0  0  0  0  0  0  0  0  0
  -22.3691  -24.0225   21.5587 C   0  0  0  0  0  0  0  0  0  0  0  0
  -32.5349  -18.4462   21.7558 C   0  0  0  0  0  0  0  0  0  0  0  0
  -31.9679  -17.2635   21.2811 C   0  0  0  0  0  0  0  0  0  0  0  0
  -22.3138   -8.9845   22.1930 C   0  0  0  0  0  0  0  0  0  0  0  0
  -23.0293   -9.9348   24.2958 C   0  0  0  0  0  0  0  0  0  0  0  0
  -23.7565  -23.9115   21.6402 C   0  0  0  0  0  0  0  0  0  0  0  0
  -22.8928   -6.0799   23.8216 C   0  0  0  0  0  0  0  0  0  0  0  0
  -22.9816   -4.7578   23.3859 C   0  0  0  0  0  0  0  0  0  0  0  0
  -23.5524  -23.0972   23.9017 C   0  0  0  0  0  0  0  0  0  0  0  0
  -29.7699  -18.2542   21.4380 C   0  0  0  0  0  0  0  0  0  0  0  0
  -20.6036   -4.7389   22.9590 C   0  0  0  0  0  0  0  0  0  0  0  0
  -23.7879  -10.8985   22.2143 C   0  0  0  0  0  0  0  0  0  0  0  0
  -24.1225  -13.1588   21.0800 C   0  0  0  0  0  0  0  0  0  0  0  0
  -18.0670  -29.3317   22.4748 C   0  0  0  0  0  0  0  0  0  0  0  0
  -21.5622  -23.6815   22.6537 C   0  0  0  0  0  0  0  0  0  0  0  0
  -19.1652  -28.5746   22.9254 C   0  0  0  0  0  0  0  0  0  0  0  0
  -22.1549  -23.2023   23.8307 C   0  0  0  0  0  0  0  0  0  0  0  0
  -31.7193  -19.5329   22.0716 C   0  0  0  0  0  0  0  0  0  0  0  0
  -30.5855  -17.1675   21.1222 C   0  0  0  0  0  0  0  0  0  0  0  0
  -30.3369  -19.4369   21.9127 C   0  0  0  0  0  0  0  0  0  0  0  0
  -22.2994   -8.9800   23.5877 C   0  0  0  0  0  0  0  0  0  0  0  0
  -24.3485  -23.4515   22.8128 C   0  0  0  0  0  0  0  0  0  0  0  0
  -21.6595   -6.7314   23.8261 C   0  0  0  0  0  0  0  0  0  0  0  0
  -21.8370   -4.0873   22.9546 C   0  0  0  0  0  0  0  0  0  0  0  0
  -20.5149   -6.0609   23.3947 C   0  0  0  0  0  0  0  0  0  0  0  0
  -24.5573  -11.8893   21.5055 C   0  0  0  0  0  0  0  0  0  0  0  0
  -25.2186  -13.7072   20.4602 C   0  0  0  0  0  0  0  0  0  0  0  0
  -27.5904  -21.9133   22.5530 C   0  0  0  0  0  0  0  0  0  0  0  0
  -26.2768  -22.1597   22.5235 C   0  0  0  0  0  0  0  0  0  1  0  0
  -22.8423  -13.7862   21.2316 C   0  0  0  0  0  0  0  0  0  0  0  0
  -28.1086  -20.5819   22.1228 C   0  0  0  0  0  0  0  0  0  0  0  0
  -19.5191  -25.2560   24.5112 C   0  0  0  0  0  0  0  0  0  0  0  0
  -18.9629  -22.3046   25.7368 C   0  0  0  0  0  0  0  0  0  0  0  0
  -20.0956  -19.1308   26.2759 C   0  0  0  0  0  0  0  0  0  0  0  0
  -30.6765  -14.7947   20.2807 C   0  0  0  0  0  0  0  0  0  0  0  0
  -16.7564  -29.3500   23.2210 C   0  0  0  0  0  0  0  0  0  0  0  0
  -20.0657  -23.7816   22.5406 C   0  0  0  0  0  0  0  0  0  0  0  0
  -21.3321  -22.8039   25.0276 C   0  0  0  0  0  0  0  0  0  0  0  0
  -16.5941  -28.1862   24.1954 C   0  0  0  0  0  0  0  0  0  0  0  0
  -29.6169  -11.6125   19.0858 C   0  0  0  0  0  0  0  0  0  0  0  0
  -17.8598  -28.0060   25.0274 C   0  0  0  0  0  0  0  0  0  0  0  0
  -28.1704  -11.5052   19.5738 C   0  0  0  0  0  0  0  0  0  0  0  0
  -30.5079  -12.3218   20.1040 C   0  0  0  0  0  0  0  0  0  0  0  0
  -28.5720  -13.5250   21.0387 C   0  0  0  0  0  0  0  0  0  0  0  0
  -19.0628  -27.6731   24.1366 C   0  0  1  0  0  0  0  0  0  0  0  0
  -19.3704  -23.8942   23.8939 C   0  0  1  0  0  0  0  0  0  0  0  0
  -27.6227  -12.8755   20.0187 C   0  0  2  0  0  0  0  0  0  0  0  0
  -32.3541  -20.7873   22.5780 C   0  0  0  0  0  0  0  0  0  0  0  0
  -19.4320  -16.9562   27.3381 C   0  0  0  0  0  0  0  0  0  0  0  0
  -19.5420  -23.4772   28.4935 C   0  0  0  0  0  0  0  0  0  0  0  0
  -19.8018  -21.1411   29.3558 C   0  0  0  0  0  0  0  0  0  0  0  0
  -17.6129  -21.8873   28.4204 C   0  0  0  0  0  0  0  0  0  0  0  0
  -20.2451  -17.6909   23.6946 C   0  0  0  0  0  0  0  0  0  0  0  0
  -19.5564  -21.4820   26.8549 C   0  0  1  0  0  0  0  0  0  0  0  0
  -19.4427  -17.7777   26.0584 C   0  0  2  0  0  0  0  0  0  0  0  0
  -19.1442  -22.0062   28.2595 C   0  0  0  0  0  0  0  0  0  0  0  0
  -25.8304  -11.6454   21.1831 N   0  0  0  0  0  0  0  0  0  0  0  0
  -26.2049  -12.7692   20.5483 N   0  0  0  0  0  0  0  0  0  0  0  0
  -19.8734  -22.9256   24.8701 N   0  0  0  0  0  0  0  0  0  0  0  0
  -29.9283  -13.6144   20.4754 N   0  0  0  0  0  0  0  0  0  0  0  0
  -25.4254  -14.8954   19.8537 N   0  0  0  0  0  0  0  0  0  0  0  0
  -21.8275  -13.0823   21.8942 N   0  0  0  0  0  0  0  0  0  0  0  0
  -29.4922  -20.5294   22.2281 N   0  0  0  0  0  0  0  0  0  0  0  0
  -30.0100  -15.9657   20.6400 N   0  0  0  0  0  0  0  0  0  0  0  0
  -19.0232  -26.2840   23.7323 N   0  0  0  0  0  0  0  0  0  0  0  0
  -19.1682  -20.0999   26.5953 N   0  0  0  0  0  0  0  0  0  0  0  0
  -20.1773  -17.0101   25.0133 N   0  3  0  0  0  0  0  0  0  0  0  0
  -22.6004  -14.9305   20.7781 O   0  0  0  0  0  0  0  0  0  0  0  0
  -27.3504  -19.6991   21.7388 O   0  0  0  0  0  0  0  0  0  0  0  0
  -20.0435  -25.3658   25.6133 O   0  0  0  0  0  0  0  0  0  0  0  0
  -17.7366  -22.3870   25.6319 O   0  0  0  0  0  0  0  0  0  0  0  0
  -21.3075  -19.3093   26.1765 O   0  0  0  0  0  0  0  0  0  0  0  0
  -31.8137  -14.7708   19.8031 O   0  0  0  0  0  0  0  0  0  0  0  0
  -21.5731   -8.0443   24.2582 O   0  0  0  0  0  0  0  0  0  0  0  0
  -25.7025  -23.3428   22.8952 O   0  0  0  0  0  0  0  0  0  1  0  0
  -21.9227   -2.8182   22.5348 F   0  0  0  0  0  0  0  0  0  0  0  0
  -19.3274   -6.6821   23.3956 F   0  0  0  0  0  0  0  0  0  0  0  0
  1  2  1  0  0  0  0
  1  5  2  0  0  0  0
  2  6  2  0  0  0  0
  3 10  2  0  0  0  0
  3 18  1  0  0  0  0
  4 11  1  0  0  0  0
  4 18  2  0  0  0  0
  5 20  1  0  0  0  0
  6 22  1  0  0  0  0
  7 12  2  0  0  0  0
  7 21  1  0  0  0  0
  8  9  2  0  0  0  0
  8 24  1  0  0  0  0
  9 25  1  0  0  0  0
 10 27  1  0  0  0  0
 11 27  2  0  0  0  0
 12 28  1  0  0  0  0
 13 14  2  0  0  0  0
 13 29  1  0  0  0  0
 14 30  1  0  0  0  0
 15 23  1  0  0  0  0
 15 28  2  0  0  0  0
 16 25  2  0  0  0  0
 16 26  1  0  0  0  0
 17 30  2  0  0  0  0
 17 31  1  0  0  0  0
 18 32  1  0  0  0  0
 19 32  1  0  0  0  0
 19 33  2  0  0  0  0
 19 36  1  0  0  0  0
 20 22  2  0  0  0  0
 20 42  1  0  0  0  0
 21 23  2  0  0  0  0
 21 43  1  0  0  0  0
 22 51  1  0  0  0  0
 23 44  1  0  0  0  0
 24 26  2  0  0  0  0
 24 54  1  0  0  0  0
 25 70  1  0  0  0  0
 26 69  1  0  0  0  0
 27 80  1  0  0  0  0
 28 81  1  0  0  0  0
 29 31  2  0  0  0  0
 29 80  1  0  0  0  0
 30 82  1  0  0  0  0
 31 83  1  0  0  0  0
 32 63  2  0  0  0  0
 33 64  1  0  0  0  0
 33 67  1  0  0  0  0
 34 35  2  0  0  0  0
 34 37  1  0  0  0  0
 35 81  1  0  0  0  0
 36 68  1  0  0  0  0
 36 74  2  0  0  0  0
 37 69  1  0  0  0  0
 37 75  2  0  0  0  0
 38 52  1  0  0  0  0
 38 71  1  0  0  0  0
 38 76  2  0  0  0  0
 39 60  1  0  0  0  0
 39 65  1  0  0  0  0
 39 77  2  0  0  0  0
 40 61  1  0  0  0  0
 40 72  1  0  0  0  0
 40 78  2  0  0  0  0
 41 66  1  0  0  0  0
 41 70  1  0  0  0  0
 41 79  2  0  0  0  0
 42 45  1  0  0  0  0
 43 52  1  0  0  0  0
 44 65  1  0  0  0  0
 45 47  1  0  0  0  0
 46 48  1  0  0  0  0
 46 49  1  0  0  0  0
 47 51  1  0  0  0  0
 48 53  1  0  0  0  0
 49 66  1  0  0  0  0
 50 53  1  0  0  0  0
 50 66  1  0  0  0  0
 51 71  1  0  0  0  0
 52 65  1  0  0  0  0
 53 64  1  0  0  0  0
 55 61  1  0  0  0  0
 56 62  1  0  0  0  0
 57 62  1  0  0  0  0
 58 62  1  0  0  0  0
 59 73  1  0  0  0  0
 60 62  1  0  0  0  0
 60 72  1  0  0  0  0
 61 73  1  0  0  0  0
 63 64  1  0  0  0  0
M  CHG  1  73   1
M  ISO  4  35 101  41 100  70 100  81 101
M  END
> <Batch ID>
0065

> <Smiles>
CNC(C)C(=O)NC(C(=O)N1Cc2cc([101O:1][101CH:1]=CC(=O)Nc3cc([100NH:0][100C:0](=O)N4CCCC(n5nc(-c6ccc(Oc7ccc(F)cc7F)cc6)c(C(N)=O)c5N)C4)ccc3C)ccc2CC1C(=O)NC1CCCc2ccccc21)C(C)(C)C

> <Shape>
0.207

> <Color>
0.161

> <Negative vol penalty>
0.000

$$$$

  -OEChem-04042323183D

 88 97  0     1  0  0  0  0  0999 V2000
  -18.2744  -29.3968   25.7740 C   0  0  0  0  0  0  0  0  0  0  0  0
  -19.6597  -29.4668   25.8819 C   0  0  0  0  0  0  0  0  0  0  0  0
  -23.0666  -12.6867   19.5296 C   0  0  0  0  0  0  0  0  0  0  0  0
  -25.2408  -12.8393   18.4870 C   0  0  0  0  0  0  0  0  0  0  0  0
  -32.0131  -21.1181   18.1728 C   0  0  0  0  0  0  0  0  0  0  0  0
  -17.6932  -28.7217   24.7014 C   0  0  0  0  0  0  0  0  0  0  0  0
  -20.4646  -28.8609   24.9179 C   0  0  0  0  0  0  0  0  0  0  0  0
  -26.7589  -29.6639   21.5933 C   0  0  0  0  0  0  0  0  0  0  0  0
  -31.0660  -20.3939   18.8967 C   0  0  0  0  0  0  0  0  0  0  0  0
  -22.6031  -11.9313   18.4525 C   0  0  0  0  0  0  0  0  0  0  0  0
  -24.7773  -12.0839   17.4099 C   0  0  0  0  0  0  0  0  0  0  0  0
  -27.9241  -28.9538   21.3070 C   0  0  0  0  0  0  0  0  0  0  0  0
  -22.8120   -8.7311   17.3812 C   0  0  0  0  0  0  0  0  0  0  0  0
  -22.0592   -7.5916   17.6648 C   0  0  0  0  0  0  0  0  0  0  0  0
  -26.8092  -27.8827   19.4553 C   0  0  0  0  0  0  0  0  0  0  0  0
  -20.1977   -8.5144   16.4318 C   0  0  0  0  0  0  0  0  0  0  0  0
  -24.3855  -13.1408   19.5468 C   0  0  0  0  0  0  0  0  0  0  0  0
  -32.3609  -22.4080   18.5743 C   0  0  0  0  0  0  0  0  0  0  0  0
  -24.9171  -13.5326   22.0109 C   0  0  0  0  0  0  0  0  0  0  0  0
  -18.4914  -28.1154   23.7185 C   0  0  0  0  0  0  0  0  0  0  0  0
  -25.6049  -29.4803   20.8181 C   0  0  0  0  0  0  0  0  0  0  0  0
  -19.8935  -28.1759   23.8319 C   0  0  0  0  0  0  0  0  0  0  0  0
  -25.6315  -28.5936   19.7322 C   0  0  0  0  0  0  0  0  0  0  0  0
  -31.7613  -22.9736   19.6996 C   0  0  0  0  0  0  0  0  0  0  0  0
  -30.4664  -20.9595   20.0220 C   0  0  0  0  0  0  0  0  0  0  0  0
  -23.4584  -11.6299   17.3926 C   0  0  0  0  0  0  0  0  0  0  0  0
  -27.9485  -28.0609   20.2397 C   0  0  0  0  0  0  0  0  0  0  0  0
  -22.2576   -9.7623   16.6229 C   0  0  0  0  0  0  0  0  0  0  0  0
  -20.7521   -7.4832   17.1901 C   0  0  0  0  0  0  0  0  0  0  0  0
  -20.9505   -9.6540   16.1482 C   0  0  0  0  0  0  0  0  0  0  0  0
  -30.8141  -22.2493   20.4234 C   0  0  0  0  0  0  0  0  0  0  0  0
  -24.8647  -13.9216   20.6589 C   0  0  0  0  0  0  0  0  0  0  0  0
  -25.4474  -14.6202   22.6608 C   0  0  0  0  0  0  0  0  0  0  0  0
  -33.4224  -24.6325   20.4988 C   0  0  0  0  0  0  0  0  0  0  0  0
  -34.5857  -22.6922   17.5820 C   0  0  0  0  0  0  0  0  0  0  0  0
  -33.3552  -23.1333   17.7924 C   0  0  0  0  0  0  0  0  0  0  0  0
  -24.5218  -12.2985   22.6244 C   0  0  0  0  0  0  0  0  0  0  0  0
  -22.6580  -28.4374   21.3943 C   0  0  0  0  0  0  0  0  0  0  0  0
  -22.1565  -29.3388   18.3189 C   0  0  0  0  0  0  0  0  0  0  0  0
  -23.4714  -29.9691   15.2333 C   0  0  0  0  0  0  0  0  0  0  0  0
  -29.0397  -18.9285   20.4950 C   0  0  0  0  0  0  0  0  0  0  0  0
  -17.8177  -27.3564   22.6029 C   0  0  0  0  0  0  0  0  0  0  0  0
  -24.3641  -30.2737   21.1235 C   0  0  0  0  0  0  0  0  0  0  0  0
  -24.4254  -28.3755   18.8568 C   0  0  0  0  0  0  0  0  0  0  0  0
  -33.7417  -26.1090   20.6387 C   0  0  0  0  0  0  0  0  0  0  0  0
  -18.7402  -27.0620   21.4228 C   0  0  0  0  0  0  0  0  0  0  0  0
  -32.6065  -26.9438   21.1895 C   0  0  0  0  0  0  0  0  0  0  0  0
  -25.3829  -19.3372   21.5836 C   0  0  0  0  0  0  0  0  0  0  0  0
  -20.0799  -26.5228   21.9140 C   0  0  0  0  0  0  0  0  0  0  0  0
  -25.1612  -17.9780   22.2429 C   0  0  0  0  0  0  0  0  0  0  0  0
  -26.8555  -19.7253   21.5414 C   0  0  0  0  0  0  0  0  0  0  0  0
  -30.9899  -25.2435   20.3902 C   0  0  0  0  0  0  0  0  0  0  0  0
  -27.0938  -17.3901   20.6776 C   0  0  0  0  0  0  0  0  0  0  0  0
  -20.8002  -27.5525   22.7929 C   0  0  1  0  0  0  0  0  0  0  0  0
  -23.0927  -29.6257   20.5840 C   0  0  1  0  0  0  0  0  0  0  0  0
  -31.3722  -26.7217   20.3311 C   0  0  1  0  0  0  0  0  0  0  0  0
  -26.2509  -16.9483   21.8841 C   0  0  2  0  0  0  0  0  0  0  0  0
  -22.8081  -30.6515   12.9113 C   0  0  0  0  0  0  0  0  0  0  0  0
  -21.0871  -26.5284   17.8010 C   0  0  0  0  0  0  0  0  0  0  0  0
  -21.3395  -26.9598   15.3477 C   0  0  0  0  0  0  0  0  0  0  0  0
  -19.7830  -28.3593   16.7047 C   0  0  0  0  0  0  0  0  0  0  0  0
  -25.1285  -32.4182   15.3548 C   0  0  0  0  0  0  0  0  0  0  0  0
  -30.2140  -27.6009   20.7981 C   0  0  0  0  0  0  0  0  0  1  0  0
  -22.2783  -28.6645   16.9737 C   0  0  1  0  0  0  0  0  0  0  0  0
  -23.2803  -31.1309   14.2751 C   0  0  2  0  0  0  0  0  0  0  0  0
  -21.1443  -27.6305   16.7243 C   0  0  0  0  0  0  0  0  0  0  0  0
  -25.3248  -15.1597   20.4604 N   0  0  0  0  0  0  0  0  0  0  0  0
  -25.6714  -15.5581   21.6962 N   0  0  0  0  0  0  0  0  0  0  0  0
  -32.1028  -24.3101   20.1379 N   0  0  0  0  0  0  0  0  0  0  0  0
  -23.2342  -29.1699   19.1996 N   0  0  0  0  0  0  0  0  0  0  0  0
  -27.7037  -18.7047   20.9089 N   0  0  0  0  0  0  0  0  0  0  0  0
  -25.7392  -14.8562   23.9575 N   0  0  0  0  0  0  0  0  0  0  0  0
  -25.4716  -11.2740   22.7370 N   0  0  0  0  0  0  0  0  0  0  0  0
  -29.5034  -20.2210   20.7541 N   0  0  0  0  0  0  0  0  0  0  0  0
  -21.4113  -28.5771   21.9736 N   0  0  0  0  0  0  0  0  0  0  0  0
  -22.3390  -29.7350   15.9844 N   0  0  0  0  0  0  0  0  0  0  0  0
  -24.5617  -31.8704   14.0956 N   0  3  0  0  0  0  0  0  0  0  0  0
  -34.3421  -23.8237   20.6499 O   0  0  0  0  0  0  0  0  0  0  0  0
  -23.3561  -12.1039   23.0449 O   0  0  0  0  0  0  0  0  0  0  0  0
  -23.3983  -27.4651   21.4858 O   0  0  0  0  0  0  0  0  0  0  0  0
  -21.1455  -29.9973   18.5759 O   0  0  0  0  0  0  0  0  0  0  0  0
  -24.5190  -29.3306   15.3055 O   0  0  0  0  0  0  0  0  0  0  0  0
  -29.7122  -18.0396   19.9683 O   0  0  0  0  0  0  0  0  0  0  0  0
  -23.0066  -10.8926   16.3415 O   0  0  0  0  0  0  0  0  0  0  0  0
  -29.0843  -27.3661   19.9585 O   0  0  0  0  0  0  0  0  0  1  0  0
  -20.0298   -6.3882   17.4612 F   0  0  0  0  0  0  0  0  0  0  0  0
  -20.4130  -10.6409   15.4182 F   0  0  0  0  0  0  0  0  0  0  0  0
  -30.2360  -22.7921   21.5062 F   0  0  0  0  0  0  0  0  0  0  0  0
  1  2  1  0  0  0  0
  1  6  2  0  0  0  0
  2  7  2  0  0  0  0
  3 10  2  0  0  0  0
  3 17  1  0  0  0  0
  4 11  1  0  0  0  0
  4 17  2  0  0  0  0
  5  9  2  0  0  0  0
  5 18  1  0  0  0  0
  6 20  1  0  0  0  0
  7 22  1  0  0  0  0
  8 12  2  0  0  0  0
  8 21  1  0  0  0  0
  9 25  1  0  0  0  0
 10 26  1  0  0  0  0
 11 26  2  0  0  0  0
 12 27  1  0  0  0  0
 13 14  2  0  0  0  0
 13 28  1  0  0  0  0
 14 29  1  0  0  0  0
 15 23  1  0  0  0  0
 15 27  2  0  0  0  0
 16 29  2  0  0  0  0
 16 30  1  0  0  0  0
 17 32  1  0  0  0  0
 18 24  2  0  0  0  0
 18 36  1  0  0  0  0
 19 32  1  0  0  0  0
 19 33  2  0  0  0  0
 19 37  1  0  0  0  0
 20 22  2  0  0  0  0
 20 42  1  0  0  0  0
 21 23  2  0  0  0  0
 21 43  1  0  0  0  0
 22 54  1  0  0  0  0
 23 44  1  0  0  0  0
 24 31  1  0  0  0  0
 24 69  1  0  0  0  0
 25 31  2  0  0  0  0
 25 74  1  0  0  0  0
 26 84  1  0  0  0  0
 27 85  1  0  0  0  0
 28 30  2  0  0  0  0
 28 84  1  0  0  0  0
 29 86  1  0  0  0  0
 30 87  1  0  0  0  0
 31 88  1  0  0  0  0
 32 67  2  0  0  0  0
 33 68  1  0  0  0  0
 33 72  1  0  0  0  0
 34 45  1  0  0  0  0
 34 69  1  0  0  0  0
 34 78  2  0  0  0  0
 35 36  2  0  0  0  0
 37 73  1  0  0  0  0
 37 79  2  0  0  0  0
 38 55  1  0  0  0  0
 38 75  1  0  0  0  0
 38 80  2  0  0  0  0
 39 64  1  0  0  0  0
 39 70  1  0  0  0  0
 39 81  2  0  0  0  0
 40 65  1  0  0  0  0
 40 76  1  0  0  0  0
 40 82  2  0  0  0  0
 41 71  1  0  0  0  0
 41 74  1  0  0  0  0
 41 83  2  0  0  0  0
 42 46  1  0  0  0  0
 43 55  1  0  0  0  0
 44 70  1  0  0  0  0
 45 47  1  0  0  0  0
 46 49  1  0  0  0  0
 47 56  1  0  0  0  0
 48 50  1  0  0  0  0
 48 51  1  0  0  0  0
 49 54  1  0  0  0  0
 50 57  1  0  0  0  0
 51 71  1  0  0  0  0
 52 56  1  0  0  0  0
 52 69  1  0  0  0  0
 53 57  1  0  0  0  0
 53 71  1  0  0  0  0
 54 75  1  0  0  0  0
 55 70  1  0  0  0  0
 56 63  1  0  0  0  0
 57 68  1  0  0  0  0
 58 65  1  0  0  0  0
 59 66  1  0  0  0  0
 60 66  1  0  0  0  0
 61 66  1  0  0  0  0
 62 77  1  0  0  0  0
 63 85  1  0  0  0  0
 64 66  1  0  0  0  0
 64 76  1  0  0  0  0
 65 77  1  0  0  0  0
 67 68  1  0  0  0  0
M  CHG  1  77   1
M  ISO  4  41 100  63 101  74 100  85 101
M  END
> <Batch ID>
0065

> <Smiles>
C=Cc1ccc([100NH:0][100C:0](=O)N2CCCC(n3nc(-c4ccc(Oc5ccc(F)cc5F)cc4)c(C(N)=O)c3N)C2)c(F)c1N1CC([101CH2:1][101O:1]c2ccc3c(c2)CN(C(=O)C(NC(=O)C(C)NC)C(C)(C)C)C(C(=O)NC2CCCc4ccccc42)C3)CCC1=O

> <Shape>
0.199

> <Color>
0.076

> <Negative vol penalty>
0.000

$$$$

  -OEChem-04042323183D

 83 91  0     1  0  0  0  0  0999 V2000
  -21.7335  -35.1508   23.9214 C   0  0  0  0  0  0  0  0  0  0  0  0
  -22.8992  -34.5013   23.5279 C   0  0  0  0  0  0  0  0  0  0  0  0
  -31.8268  -19.3361   18.4245 C   0  0  0  0  0  0  0  0  0  0  0  0
  -23.9553  -12.1283   20.9370 C   0  0  0  0  0  0  0  0  0  0  0  0
  -26.2991  -11.9913   20.3667 C   0  0  0  0  0  0  0  0  0  0  0  0
  -31.9683  -20.7198   18.5291 C   0  0  0  0  0  0  0  0  0  0  0  0
  -20.6368  -34.4088   24.3578 C   0  0  0  0  0  0  0  0  0  0  0  0
  -22.9691  -33.1093   23.5717 C   0  0  0  0  0  0  0  0  0  0  0  0
  -25.9871  -29.4513   19.6966 C   0  0  0  0  0  0  0  0  0  0  0  0
  -30.5554  -18.7702   18.3293 C   0  0  0  0  0  0  0  0  0  0  0  0
  -23.7631  -10.8323   20.4586 C   0  0  0  0  0  0  0  0  0  0  0  0
  -26.1069  -10.6952   19.8884 C   0  0  0  0  0  0  0  0  0  0  0  0
  -27.2319  -28.8280   19.7721 C   0  0  0  0  0  0  0  0  0  0  0  0
  -24.3027   -7.6733   21.5371 C   0  0  0  0  0  0  0  0  0  0  0  0
  -23.5425   -6.8010   22.3159 C   0  0  0  0  0  0  0  0  0  0  0  0
  -29.5670  -20.9718   18.4434 C   0  0  0  0  0  0  0  0  0  0  0  0
  -26.1678  -26.8117   20.5604 C   0  0  0  0  0  0  0  0  0  0  0  0
  -21.9680   -6.5521   20.5003 C   0  0  0  0  0  0  0  0  0  0  0  0
  -25.2233  -12.7078   20.8910 C   0  0  0  0  0  0  0  0  0  0  0  0
  -30.8384  -21.5377   18.5386 C   0  0  0  0  0  0  0  0  0  0  0  0
  -25.7639  -14.4274   22.6961 C   0  0  0  0  0  0  0  0  0  0  0  0
  -20.6899  -33.0066   24.3977 C   0  0  0  0  0  0  0  0  0  0  0  0
  -24.8224  -28.7618   20.0635 C   0  0  0  0  0  0  0  0  0  0  0  0
  -21.8725  -32.3479   24.0103 C   0  0  0  0  0  0  0  0  0  0  0  0
  -24.9091  -27.4277   20.4862 C   0  0  0  0  0  0  0  0  0  0  0  0
  -29.4255  -19.5881   18.3387 C   0  0  0  0  0  0  0  0  0  0  0  0
  -24.8389  -10.1157   19.9343 C   0  0  0  0  0  0  0  0  0  0  0  0
  -27.3227  -27.5089   20.2068 C   0  0  0  0  0  0  0  0  0  0  0  0
  -23.8955   -7.9852   20.2398 C   0  0  0  0  0  0  0  0  0  0  0  0
  -22.3752   -6.2403   21.7975 C   0  0  0  0  0  0  0  0  0  0  0  0
  -22.7282   -7.4245   19.7215 C   0  0  0  0  0  0  0  0  0  0  0  0
  -25.4224  -14.0468   21.3845 C   0  0  0  0  0  0  0  0  0  0  0  0
  -25.8334  -15.7983   22.6488 C   0  0  0  0  0  0  0  0  0  0  0  0
  -30.9905  -23.0108   18.6499 C   0  0  0  0  0  0  0  0  0  0  0  0
  -25.9976  -13.6144   23.8538 C   0  0  0  0  0  0  0  0  0  0  0  0
  -22.5893  -29.1569   22.2907 C   0  0  0  0  0  0  0  0  0  0  0  0
  -21.1671  -26.6821   20.7497 C   0  0  0  0  0  0  0  0  0  0  0  0
  -29.8750  -25.0646   19.4454 C   0  0  0  0  0  0  0  0  0  0  0  0
  -21.5005  -23.9469   18.7361 C   0  0  0  0  0  0  0  0  0  0  0  0
  -26.9101  -19.6812   18.2363 C   0  0  0  0  0  0  0  0  0  0  0  0
  -19.4954  -32.2495   24.9216 C   0  0  0  0  0  0  0  0  0  0  0  0
  -23.4845  -29.4398   19.9509 C   0  0  0  0  0  0  0  0  0  0  0  0
  -23.6867  -26.6370   20.8722 C   0  0  0  0  0  0  0  0  0  0  0  0
  -19.5210  -30.7612   24.5828 C   0  0  0  0  0  0  0  0  0  0  0  0
  -24.0174  -19.5614   20.3087 C   0  0  0  0  0  0  0  0  0  0  0  0
  -20.8962  -30.1704   24.8769 C   0  0  0  0  0  0  0  0  0  0  0  0
  -24.0837  -18.1705   20.9438 C   0  0  0  0  0  0  0  0  0  0  0  0
  -24.5090  -19.5484   18.8624 C   0  0  0  0  0  0  0  0  0  0  0  0
  -25.9045  -17.5656   19.2988 C   0  0  0  0  0  0  0  0  0  0  0  0
  -21.9784  -30.8383   24.0200 C   0  0  1  0  0  0  0  0  0  0  0  0
  -22.4176  -28.8075   20.8395 C   0  0  1  0  0  0  0  0  0  0  0  0
  -25.4804  -17.5406   20.7764 C   0  0  2  0  0  0  0  0  0  0  0  0
  -20.1649  -22.1026   17.6815 C   0  0  0  0  0  0  0  0  0  0  0  0
  -21.0117  -25.2575   23.4435 C   0  0  0  0  0  0  0  0  0  0  0  0
  -20.5721  -23.1231   22.2108 C   0  0  0  0  0  0  0  0  0  0  0  0
  -18.9683  -25.0243   22.0206 C   0  0  0  0  0  0  0  0  0  0  0  0
  -22.2306  -24.8226   16.0050 C   0  0  0  0  0  0  0  0  0  0  0  0
  -28.5667  -25.4859   20.0808 C   0  0  0  0  0  0  0  0  0  1  0  0
  -21.2147  -25.1780   20.8708 C   0  0  1  0  0  0  0  0  0  0  0  0
  -20.7315  -23.5028   17.5049 C   0  0  2  0  0  0  0  0  0  0  0  0
  -20.4651  -24.6610   22.1311 C   0  0  0  0  0  0  0  0  0  0  0  0
  -25.2843  -15.0916   20.5639 N   0  0  0  0  0  0  0  0  0  0  0  0
  -25.5403  -16.1422   21.3619 N   0  0  0  0  0  0  0  0  0  0  0  0
  -22.4020  -27.3459   20.7512 N   0  0  0  0  0  0  0  0  0  0  0  0
  -25.8394  -18.9416   18.7817 N   0  0  0  0  0  0  0  0  0  0  0  0
  -26.1160  -16.7312   23.5828 N   0  0  0  0  0  0  0  0  0  0  0  0
  -25.8846  -12.2232   23.7270 N   0  0  0  0  0  0  0  0  0  0  0  0
  -28.1341  -19.0130   18.2417 N   0  0  0  0  0  0  0  0  0  0  0  0
  -29.9154  -23.6871   19.2239 N   0  0  0  0  0  0  0  0  0  0  0  0
  -21.9454  -30.3195   22.6694 N   0  0  0  0  0  0  0  0  0  0  0  0
  -20.7006  -24.6506   19.6115 N   0  0  0  0  0  0  0  0  0  0  0  0
  -21.6224  -23.5020   16.3102 N   0  3  0  0  0  0  0  0  0  0  0  0
  -32.0334  -23.5347   18.2677 O   0  0  0  0  0  0  0  0  0  0  0  0
  -26.2816  -14.1080   24.9715 O   0  0  0  0  0  0  0  0  0  0  0  0
  -23.2553  -28.4252   23.0137 O   0  0  0  0  0  0  0  0  0  0  0  0
  -20.0748  -27.2465   20.6501 O   0  0  0  0  0  0  0  0  0  0  0  0
  -30.7672  -25.8621   19.1700 O   0  0  0  0  0  0  0  0  0  0  0  0
  -22.6906  -23.6916   18.9062 O   0  0  0  0  0  0  0  0  0  0  0  0
  -26.7584  -20.8332   17.8219 O   0  0  0  0  0  0  0  0  0  0  0  0
  -24.6517   -8.8509   19.4676 O   0  0  0  0  0  0  0  0  0  0  0  0
  -28.5365  -26.8984   20.2820 O   0  0  0  0  0  0  0  0  0  1  0  0
  -21.6461   -5.4013   22.5450 F   0  0  0  0  0  0  0  0  0  0  0  0
  -22.3326   -7.7194   18.4755 F   0  0  0  0  0  0  0  0  0  0  0  0
  1  2  1  0  0  0  0
  1  7  2  0  0  0  0
  2  8  2  0  0  0  0
  3  6  2  0  0  0  0
  3 10  1  0  0  0  0
  4 11  2  0  0  0  0
  4 19  1  0  0  0  0
  5 12  1  0  0  0  0
  5 19  2  0  0  0  0
  6 20  1  0  0  0  0
  7 22  1  0  0  0  0
  8 24  1  0  0  0  0
  9 13  2  0  0  0  0
  9 23  1  0  0  0  0
 10 26  2  0  0  0  0
 11 27  1  0  0  0  0
 12 27  2  0  0  0  0
 13 28  1  0  0  0  0
 14 15  2  0  0  0  0
 14 29  1  0  0  0  0
 15 30  1  0  0  0  0
 16 20  2  0  0  0  0
 16 26  1  0  0  0  0
 17 25  1  0  0  0  0
 17 28  2  0  0  0  0
 18 30  2  0  0  0  0
 18 31  1  0  0  0  0
 19 32  1  0  0  0  0
 20 34  1  0  0  0  0
 21 32  1  0  0  0  0
 21 33  2  0  0  0  0
 21 35  1  0  0  0  0
 22 24  2  0  0  0  0
 22 41  1  0  0  0  0
 23 25  2  0  0  0  0
 23 42  1  0  0  0  0
 24 50  1  0  0  0  0
 25 43  1  0  0  0  0
 26 68  1  0  0  0  0
 27 80  1  0  0  0  0
 28 81  1  0  0  0  0
 29 31  2  0  0  0  0
 29 80  1  0  0  0  0
 30 82  1  0  0  0  0
 31 83  1  0  0  0  0
 32 62  2  0  0  0  0
 33 63  1  0  0  0  0
 33 66  1  0  0  0  0
 34 69  1  0  0  0  0
 34 73  2  0  0  0  0
 35 67  1  0  0  0  0
 35 74  2  0  0  0  0
 36 51  1  0  0  0  0
 36 70  1  0  0  0  0
 36 75  2  0  0  0  0
 37 59  1  0  0  0  0
 37 64  1  0  0  0  0
 37 76  2  0  0  0  0
 38 58  1  0  0  0  0
 38 69  1  0  0  0  0
 38 77  2  0  0  0  0
 39 60  1  0  0  0  0
 39 71  1  0  0  0  0
 39 78  2  0  0  0  0
 40 65  1  0  0  0  0
 40 68  1  0  0  0  0
 40 79  2  0  0  0  0
 41 44  1  0  0  0  0
 42 51  1  0  0  0  0
 43 64  1  0  0  0  0
 44 46  1  0  0  0  0
 45 47  1  0  0  0  0
 45 48  1  0  0  0  0
 46 50  1  0  0  0  0
 47 52  1  0  0  0  0
 48 65  1  0  0  0  0
 49 52  1  0  0  0  0
 49 65  1  0  0  0  0
 50 70  1  0  0  0  0
 51 64  1  0  0  0  0
 52 63  1  0  0  0  0
 53 60  1  0  0  0  0
 54 61  1  0  0  0  0
 55 61  1  0  0  0  0
 56 61  1  0  0  0  0
 57 72  1  0  0  0  0
 58 81  1  0  0  0  0
 59 61  1  0  0  0  0
 59 71  1  0  0  0  0
 60 72  1  0  0  0  0
 62 63  1  0  0  0  0
M  CHG  1  72   1
M  ISO  4  40 100  58 101  68 100  81 101
M  END
> <Batch ID>
0065

> <Smiles>
CNC(C)C(=O)NC(C(=O)N1Cc2cc([101O:1][101CH2:1]C(=O)NC(=O)c3cccc([100NH:0][100C:0](=O)N4CCCC(n5nc(-c6ccc(Oc7ccc(F)cc7F)cc6)c(C(N)=O)c5N)C4)c3)ccc2CC1C(=O)NC1CCCc2ccccc21)C(C)(C)C

> <Shape>
0.206

> <Color>
0.091

> <Negative vol penalty>
0.000

$$$$

  -OEChem-04042323183D

 82 90  0     1  0  0  0  0  0999 V2000
  -18.4661  -31.6189   22.9097 C   0  0  0  0  0  0  0  0  0  0  0  0
  -19.8544  -31.5393   22.8695 C   0  0  0  0  0  0  0  0  0  0  0  0
  -30.4729  -22.9162   17.1667 C   0  0  0  0  0  0  0  0  0  0  0  0
  -28.0160  -12.6991   22.4229 C   0  0  0  0  0  0  0  0  0  0  0  0
  -26.8072  -12.9677   20.3484 C   0  0  0  0  0  0  0  0  0  0  0  0
  -17.6998  -30.4567   22.8330 C   0  0  0  0  0  0  0  0  0  0  0  0
  -20.4773  -30.2971   22.7535 C   0  0  0  0  0  0  0  0  0  0  0  0
  -25.6617  -29.0451   19.7435 C   0  0  0  0  0  0  0  0  0  0  0  0
  -30.7116  -24.1213   17.8272 C   0  0  0  0  0  0  0  0  0  0  0  0
  -29.5335  -22.0177   17.6726 C   0  0  0  0  0  0  0  0  0  0  0  0
  -27.4894  -11.4151   22.5635 C   0  0  0  0  0  0  0  0  0  0  0  0
  -26.2806  -11.6837   20.4890 C   0  0  0  0  0  0  0  0  0  0  0  0
  -26.9808  -28.8957   20.1693 C   0  0  0  0  0  0  0  0  0  0  0  0
  -23.8173  -10.1804   22.2505 C   0  0  0  0  0  0  0  0  0  0  0  0
  -22.4548  -10.0084   22.0064 C   0  0  0  0  0  0  0  0  0  0  0  0
  -26.6729  -26.5050   20.2647 C   0  0  0  0  0  0  0  0  0  0  0  0
  -29.0716  -23.5294   19.4997 C   0  0  0  0  0  0  0  0  0  0  0  0
  -22.9688   -8.4421   20.2402 C   0  0  0  0  0  0  0  0  0  0  0  0
  -27.6748  -13.4754   21.3154 C   0  0  0  0  0  0  0  0  0  0  0  0
  -29.4131  -15.1647   20.5202 C   0  0  0  0  0  0  0  0  0  0  0  0
  -18.3134  -29.2004   22.7064 C   0  0  0  0  0  0  0  0  0  0  0  0
  -24.8336  -27.9246   19.5853 C   0  0  0  0  0  0  0  0  0  0  0  0
  -19.7185  -29.1169   22.6764 C   0  0  0  0  0  0  0  0  0  0  0  0
  -25.3444  -26.6427   19.8343 C   0  0  0  0  0  0  0  0  0  0  0  0
  -30.0109  -24.4279   18.9938 C   0  0  0  0  0  0  0  0  0  0  0  0
  -28.8329  -22.3243   18.8391 C   0  0  0  0  0  0  0  0  0  0  0  0
  -26.6218  -10.9074   21.5966 C   0  0  0  0  0  0  0  0  0  0  0  0
  -27.4858  -27.6257   20.4327 C   0  0  0  0  0  0  0  0  0  0  0  0
  -24.7556   -9.4833   21.4893 C   0  0  0  0  0  0  0  0  0  0  0  0
  -22.0305   -9.1393   21.0013 C   0  0  0  0  0  0  0  0  0  0  0  0
  -24.3313   -8.6142   20.4842 C   0  0  0  0  0  0  0  0  0  0  0  0
  -28.2180  -14.8020   21.1698 C   0  0  0  0  0  0  0  0  0  0  0  0
  -29.4782  -16.5297   20.6581 C   0  0  0  0  0  0  0  0  0  0  0  0
  -30.3781  -14.3414   19.8519 C   0  0  0  0  0  0  0  0  0  0  0  0
  -22.1242  -26.9316   20.9184 C   0  0  0  0  0  0  0  0  0  0  0  0
  -22.3259  -24.6036   18.6685 C   0  0  0  0  0  0  0  0  0  0  0  0
  -31.1474  -26.6547   19.3003 C   0  0  0  0  0  0  0  0  0  0  0  0
  -24.2899  -22.7721   16.5625 C   0  0  0  0  0  0  0  0  0  0  0  0
  -27.0974  -21.5606   20.4978 C   0  0  0  0  0  0  0  0  0  0  0  0
  -17.4445  -27.9681   22.6745 C   0  0  0  0  0  0  0  0  0  0  0  0
  -23.4209  -28.1005   19.0996 C   0  0  0  0  0  0  0  0  0  0  0  0
  -24.5025  -25.4060   19.6604 C   0  0  0  0  0  0  0  0  0  0  0  0
  -18.1724  -26.7224   22.1758 C   0  0  0  0  0  0  0  0  0  0  0  0
  -26.7303  -19.6878   23.5037 C   0  0  0  0  0  0  0  0  0  0  0  0
  -19.5322  -26.5911   22.8543 C   0  0  0  0  0  0  0  0  0  0  0  0
  -27.1830  -18.2796   23.1110 C   0  0  0  0  0  0  0  0  0  0  0  0
  -25.9720  -20.3765   22.3703 C   0  0  0  0  0  0  0  0  0  0  0  0
  -27.1264  -18.9957   20.6880 C   0  0  0  0  0  0  0  0  0  0  0  0
  -20.4304  -27.7899   22.5263 C   0  0  1  0  0  0  0  0  0  0  0  0
  -22.5127  -26.9311   19.4669 C   0  0  1  0  0  0  0  0  0  0  0  0
  -27.9509  -18.2866   21.7747 C   0  0  2  0  0  0  0  0  0  0  0  0
  -24.1749  -20.9175   14.8760 C   0  0  0  0  0  0  0  0  0  0  0  0
  -22.0473  -22.5707   20.9267 C   0  0  0  0  0  0  0  0  0  0  0  0
  -22.8794  -20.8114   19.3518 C   0  0  0  0  0  0  0  0  0  0  0  0
  -20.7523  -22.0180   18.8598 C   0  0  0  0  0  0  0  0  0  0  0  0
  -25.3048  -24.5192   14.4000 C   0  0  0  0  0  0  0  0  0  0  0  0
  -31.0931  -27.8045   20.2997 C   0  0  0  0  0  0  0  0  0  0  0  0
  -29.7175  -28.4466   20.3976 C   0  0  0  0  0  0  0  0  0  1  0  0
  -22.9545  -23.2328   18.6019 C   0  0  1  0  0  0  0  0  0  0  0  0
  -24.1383  -22.4222   15.0932 C   0  0  2  0  0  0  0  0  0  0  0  0
  -22.1739  -22.1815   19.4403 C   0  0  0  0  0  0  0  0  0  0  0  0
  -27.5706  -15.8518   21.6824 N   0  0  0  0  0  0  0  0  0  0  0  0
  -28.3618  -16.8877   21.3550 N   0  0  0  0  0  0  0  0  0  0  0  0
  -23.1258  -25.6305   19.1895 N   0  0  0  0  0  0  0  0  0  0  0  0
  -26.7622  -20.3485   21.1376 N   0  0  0  0  0  0  0  0  0  0  0  0
  -30.3809  -17.4468   20.2499 N   0  0  0  0  0  0  0  0  0  0  0  0
  -30.1567  -12.9584   19.8026 N   0  0  0  0  0  0  0  0  0  0  0  0
  -30.2532  -25.6510   19.6631 N   0  0  0  0  0  0  0  0  0  0  0  0
  -27.8787  -21.4111   19.3525 N   0  0  0  0  0  0  0  0  0  0  0  0
  -20.9821  -27.6587   21.1948 N   0  0  0  0  0  0  0  0  0  0  0  0
  -23.0666  -22.9034   17.1851 N   0  0  0  0  0  0  0  0  0  0  0  0
  -25.2376  -23.0387   14.2978 N   0  3  0  0  0  0  0  0  0  0  0  0
  -31.4144  -14.8163   19.3284 O   0  0  0  0  0  0  0  0  0  0  0  0
  -22.8090  -26.3166   21.7274 O   0  0  0  0  0  0  0  0  0  0  0  0
  -21.1702  -24.7591   18.2662 O   0  0  0  0  0  0  0  0  0  0  0  0
  -31.8968  -26.6684   18.3295 O   0  0  0  0  0  0  0  0  0  0  0  0
  -25.3841  -22.9112   17.1047 O   0  0  0  0  0  0  0  0  0  0  0  0
  -26.7421  -22.6524   20.9491 O   0  0  0  0  0  0  0  0  0  0  0  0
  -26.1079   -9.6545   21.7333 O   0  0  0  0  0  0  0  0  0  0  0  0
  -28.7728  -27.4771   20.8491 O   0  0  0  0  0  0  0  0  0  1  0  0
  -20.7220   -8.9731   20.7681 F   0  0  0  0  0  0  0  0  0  0  0  0
  -25.2280   -7.9408   19.7505 F   0  0  0  0  0  0  0  0  0  0  0  0
  1  2  1  0  0  0  0
  1  6  2  0  0  0  0
  2  7  2  0  0  0  0
  3  9  2  0  0  0  0
  3 10  1  0  0  0  0
  4 11  2  0  0  0  0
  4 19  1  0  0  0  0
  5 12  1  0  0  0  0
  5 19  2  0  0  0  0
  6 21  1  0  0  0  0
  7 23  1  0  0  0  0
  8 13  2  0  0  0  0
  8 22  1  0  0  0  0
  9 25  1  0  0  0  0
 10 26  2  0  0  0  0
 11 27  1  0  0  0  0
 12 27  2  0  0  0  0
 13 28  1  0  0  0  0
 14 15  2  0  0  0  0
 14 29  1  0  0  0  0
 15 30  1  0  0  0  0
 16 24  1  0  0  0  0
 16 28  2  0  0  0  0
 17 25  2  0  0  0  0
 17 26  1  0  0  0  0
 18 30  2  0  0  0  0
 18 31  1  0  0  0  0
 19 32  1  0  0  0  0
 20 32  1  0  0  0  0
 20 33  2  0  0  0  0
 20 34  1  0  0  0  0
 21 23  2  0  0  0  0
 21 40  1  0  0  0  0
 22 24  2  0  0  0  0
 22 41  1  0  0  0  0
 23 49  1  0  0  0  0
 24 42  1  0  0  0  0
 25 68  1  0  0  0  0
 26 69  1  0  0  0  0
 27 79  1  0  0  0  0
 28 80  1  0  0  0  0
 29 31  2  0  0  0  0
 29 79  1  0  0  0  0
 30 81  1  0  0  0  0
 31 82  1  0  0  0  0
 32 62  2  0  0  0  0
 33 63  1  0  0  0  0
 33 66  1  0  0  0  0
 34 67  1  0  0  0  0
 34 73  2  0  0  0  0
 35 50  1  0  0  0  0
 35 70  1  0  0  0  0
 35 74  2  0  0  0  0
 36 59  1  0  0  0  0
 36 64  1  0  0  0  0
 36 75  2  0  0  0  0
 37 57  1  0  0  0  0
 37 68  1  0  0  0  0
 37 76  2  0  0  0  0
 38 60  1  0  0  0  0
 38 71  1  0  0  0  0
 38 77  2  0  0  0  0
 39 65  1  0  0  0  0
 39 69  1  0  0  0  0
 39 78  2  0  0  0  0
 40 43  1  0  0  0  0
 41 50  1  0  0  0  0
 42 64  1  0  0  0  0
 43 45  1  0  0  0  0
 44 46  1  0  0  0  0
 44 47  1  0  0  0  0
 45 49  1  0  0  0  0
 46 51  1  0  0  0  0
 47 65  1  0  0  0  0
 48 51  1  0  0  0  0
 48 65  1  0  0  0  0
 49 70  1  0  0  0  0
 50 64  1  0  0  0  0
 51 63  1  0  0  0  0
 52 60  1  0  0  0  0
 53 61  1  0  0  0  0
 54 61  1  0  0  0  0
 55 61  1  0  0  0  0
 56 72  1  0  0  0  0
 57 58  1  0  0  0  0
 58 80  1  0  0  0  0
 59 61  1  0  0  0  0
 59 71  1  0  0  0  0
 60 72  1  0  0  0  0
 62 63  1  0  0  0  0
M  CHG  1  72   1
M  ISO  4  39 100  58 101  69 100  80 101
M  END
> <Batch ID>
0065

> <Smiles>
CNC(C)C(=O)NC(C(=O)N1Cc2cc([101O:1][101CH2:1]CC(=O)Nc3cccc([100NH:0][100C:0](=O)N4CCCC(n5nc(-c6ccc(Oc7ccc(F)cc7F)cc6)c(C(N)=O)c5N)C4)c3)ccc2CC1C(=O)NC1CCCc2ccccc21)C(C)(C)C

> <Shape>
0.268

> <Color>
0.082

> <Negative vol penalty>
0.000

$$$$

  -OEChem-04042323183D

 86 94  0     1  0  0  0  0  0999 V2000
  -17.4841  -26.2277   22.8972 C   0  0  0  0  0  0  0  0  0  0  0  0
  -18.7652  -25.7605   22.6215 C   0  0  0  0  0  0  0  0  0  0  0  0
  -22.3745  -14.9230   24.0996 C   0  0  0  0  0  0  0  0  0  0  0  0
  -21.8504  -15.8763   21.9424 C   0  0  0  0  0  0  0  0  0  0  0  0
  -17.1720  -27.5698   22.6843 C   0  0  0  0  0  0  0  0  0  0  0  0
  -19.7347  -26.6349   22.1318 C   0  0  0  0  0  0  0  0  0  0  0  0
  -25.7399  -26.5172   23.3274 C   0  0  0  0  0  0  0  0  0  0  0  0
  -27.7042  -19.8390   16.1279 C   0  0  0  0  0  0  0  0  0  0  0  0
  -27.6543  -18.7901   17.0459 C   0  0  0  0  0  0  0  0  0  0  0  0
  -21.2110  -15.4812   24.6290 C   0  0  0  0  0  0  0  0  0  0  0  0
  -20.6869  -16.4345   22.4718 C   0  0  0  0  0  0  0  0  0  0  0  0
  -26.8277  -26.0096   22.6183 C   0  0  0  0  0  0  0  0  0  0  0  0
  -18.1942  -16.3536   26.4601 C   0  0  0  0  0  0  0  0  0  0  0  0
  -17.4007  -15.5468   27.2755 C   0  0  0  0  0  0  0  0  0  0  0  0
  -27.2393  -28.1994   21.6939 C   0  0  0  0  0  0  0  0  0  0  0  0
  -29.6624  -19.6195   18.1027 C   0  0  0  0  0  0  0  0  0  0  0  0
  -17.1049  -13.9924   25.4497 C   0  0  0  0  0  0  0  0  0  0  0  0
  -22.6943  -15.1206   22.7563 C   0  0  0  0  0  0  0  0  0  0  0  0
  -24.0369  -13.2765   21.6142 C   0  0  0  0  0  0  0  0  0  0  0  0
  -18.1409  -28.4632   22.2008 C   0  0  0  0  0  0  0  0  0  0  0  0
  -25.3864  -27.8697   23.2164 C   0  0  0  0  0  0  0  0  0  0  0  0
  -19.4349  -27.9899   21.9110 C   0  0  0  0  0  0  0  0  0  0  0  0
  -26.1482  -28.7223   22.4046 C   0  0  0  0  0  0  0  0  0  0  0  0
  -28.7332  -20.7781   16.1971 C   0  0  0  0  0  0  0  0  0  0  0  0
  -28.6334  -18.6803   18.0333 C   0  0  0  0  0  0  0  0  0  0  0  0
  -20.3672  -16.2369   23.8151 C   0  0  0  0  0  0  0  0  0  0  0  0
  -27.5758  -26.8501   21.7992 C   0  0  0  0  0  0  0  0  0  0  0  0
  -18.4430  -15.9799   25.1394 C   0  0  0  0  0  0  0  0  0  0  0  0
  -16.8560  -14.3662   26.7704 C   0  0  0  0  0  0  0  0  0  0  0  0
  -17.8983  -14.7993   24.6342 C   0  0  0  0  0  0  0  0  0  0  0  0
  -29.7123  -20.6684   17.1845 C   0  0  0  0  0  0  0  0  0  0  0  0
  -23.8963  -14.5447   22.2090 C   0  0  0  0  0  0  0  0  0  0  0  0
  -25.3624  -13.2080   21.2610 C   0  0  0  0  0  0  0  0  0  0  0  0
  -23.0569  -12.2521   21.4001 C   0  0  0  0  0  0  0  0  0  0  0  0
  -22.8218  -29.4408   22.1878 C   0  0  0  0  0  0  0  0  0  0  0  0
  -29.3654  -24.7582   19.4356 C   0  0  0  0  0  0  0  0  0  0  0  0
  -24.4375  -32.0230   23.3032 C   0  0  0  0  0  0  0  0  0  0  0  0
  -27.4361  -33.4345   24.1175 C   0  0  0  0  0  0  0  0  0  0  0  0
  -29.4729  -17.3598   20.0077 C   0  0  0  0  0  0  0  0  0  0  0  0
  -17.7433  -29.8948   21.9418 C   0  0  0  0  0  0  0  0  0  0  0  0
  -24.2265  -28.4076   24.0086 C   0  0  0  0  0  0  0  0  0  0  0  0
  -25.8225  -30.1863   22.2669 C   0  0  0  0  0  0  0  0  0  0  0  0
  -18.9330  -30.8368   21.7753 C   0  0  0  0  0  0  0  0  0  0  0  0
  -29.6694  -14.8653   22.5406 C   0  0  0  0  0  0  0  0  0  0  0  0
  -19.9692  -30.2273   20.8364 C   0  0  0  0  0  0  0  0  0  0  0  0
  -28.2250  -14.3803   22.6846 C   0  0  0  0  0  0  0  0  0  0  0  0
  -29.7390  -16.3672   22.2702 C   0  0  0  0  0  0  0  0  0  0  0  0
  -27.4819  -16.3477   21.2832 C   0  0  0  0  0  0  0  0  0  0  0  0
  -20.5207  -28.9130   21.4021 C   0  0  1  0  0  0  0  0  0  0  0  0
  -23.6443  -29.6892   23.4205 C   0  0  1  0  0  0  0  0  0  0  0  0
  -27.3582  -14.8296   21.4920 C   0  0  2  0  0  0  0  0  0  0  0  0
  -28.7571  -21.8894   15.1992 C   0  0  0  0  0  0  0  0  0  0  0  0
  -28.4417  -35.5713   24.9663 C   0  0  0  0  0  0  0  0  0  0  0  0
  -24.0613  -33.2898   20.5530 C   0  0  0  0  0  0  0  0  0  0  0  0
  -25.8505  -34.9381   21.1445 C   0  0  0  0  0  0  0  0  0  0  0  0
  -23.7425  -34.8568   22.4758 C   0  0  0  0  0  0  0  0  0  0  0  0
  -28.5267  -32.1010   26.5240 C   0  0  0  0  0  0  0  0  0  0  0  0
  -29.3837  -23.3384   18.9265 C   0  0  0  0  0  0  0  0  0  0  0  0
  -28.5753  -24.9875   20.7093 C   0  0  0  0  0  0  0  0  0  1  0  0
  -25.4348  -32.9943   22.7192 C   0  0  1  0  0  0  0  0  0  0  0  0
  -27.8856  -34.2073   25.3444 C   0  0  2  0  0  0  0  0  0  0  0  0
  -24.7775  -33.9918   21.7240 C   0  0  0  0  0  0  0  0  0  0  0  0
  -25.0412  -15.2322   22.2342 N   0  0  0  0  0  0  0  0  0  0  0  0
  -25.9138  -14.3930   21.6508 N   0  0  0  0  0  0  0  0  0  0  0  0
  -24.6753  -30.6634   23.0567 N   0  0  0  0  0  0  0  0  0  0  0  0
  -28.8969  -16.7184   21.1246 N   0  0  0  0  0  0  0  0  0  0  0  0
  -26.0985  -12.2503   20.6581 N   0  0  0  0  0  0  0  0  0  0  0  0
  -21.7417  -12.4864   21.8240 N   0  0  0  0  0  0  0  0  0  0  0  0
  -28.5815  -17.6149   18.9660 N   0  0  0  0  0  0  0  0  0  0  0  0
  -21.4895  -29.1783   22.4440 N   0  0  0  0  0  0  0  0  0  0  0  0
  -26.0971  -33.6304   23.8528 N   0  0  0  0  0  0  0  0  0  0  0  0
  -30.1877  -23.2697   17.6969 N   0  0  0  0  0  0  0  0  0  0  0  0
  -28.9450  -33.4530   26.0722 N   0  3  0  0  0  0  0  0  0  0  0  0
  -23.3427  -11.1546   20.8639 O   0  0  0  0  0  0  0  0  0  0  0  0
  -23.3560  -29.4856   21.0859 O   0  0  0  0  0  0  0  0  0  0  0  0
  -29.9477  -25.6786   18.8632 O   0  0  0  0  0  0  0  0  0  0  0  0
  -23.4867  -32.4543   23.9602 O   0  0  0  0  0  0  0  0  0  0  0  0
  -28.1975  -32.7308   23.4576 O   0  0  0  0  0  0  0  0  0  0  0  0
  -30.6745  -17.6362   19.9663 O   0  0  0  0  0  0  0  0  0  0  0  0
  -31.8712  -21.4587   18.4194 O   0  0  0  0  0  0  0  0  0  0  0  0
  -31.5961  -21.9753   15.9736 O   0  0  0  0  0  0  0  0  0  0  0  0
  -19.2317  -16.7816   24.3313 O   0  0  0  0  0  0  0  0  0  0  0  0
  -28.6377  -26.3570   21.1055 O   0  0  0  0  0  0  0  0  0  1  0  0
  -16.0953  -13.5907   27.5540 F   0  0  0  0  0  0  0  0  0  0  0  0
  -18.1348  -14.4344   23.3667 F   0  0  0  0  0  0  0  0  0  0  0  0
  -31.0294  -21.8416   17.3019 S   0  0  0  0  0  0  0  0  0  0  0  0
  1  2  1  0  0  0  0
  1  5  2  0  0  0  0
  2  6  2  0  0  0  0
  3 10  2  0  0  0  0
  3 18  1  0  0  0  0
  4 11  1  0  0  0  0
  4 18  2  0  0  0  0
  5 20  1  0  0  0  0
  6 22  1  0  0  0  0
  7 12  2  0  0  0  0
  7 21  1  0  0  0  0
  8  9  2  0  0  0  0
  8 24  1  0  0  0  0
  9 25  1  0  0  0  0
 10 26  1  0  0  0  0
 11 26  2  0  0  0  0
 12 27  1  0  0  0  0
 13 14  2  0  0  0  0
 13 28  1  0  0  0  0
 14 29  1  0  0  0  0
 15 23  1  0  0  0  0
 15 27  2  0  0  0  0
 16 25  2  0  0  0  0
 16 31  1  0  0  0  0
 17 29  2  0  0  0  0
 17 30  1  0  0  0  0
 18 32  1  0  0  0  0
 19 32  1  0  0  0  0
 19 33  2  0  0  0  0
 19 34  1  0  0  0  0
 20 22  2  0  0  0  0
 20 40  1  0  0  0  0
 21 23  2  0  0  0  0
 21 41  1  0  0  0  0
 22 49  1  0  0  0  0
 23 42  1  0  0  0  0
 24 31  2  0  0  0  0
 24 52  1  0  0  0  0
 25 69  1  0  0  0  0
 26 82  1  0  0  0  0
 27 83  1  0  0  0  0
 28 30  2  0  0  0  0
 28 82  1  0  0  0  0
 29 84  1  0  0  0  0
 30 85  1  0  0  0  0
 31 86  1  0  0  0  0
 32 63  2  0  0  0  0
 33 64  1  0  0  0  0
 33 67  1  0  0  0  0
 34 68  1  0  0  0  0
 34 74  2  0  0  0  0
 35 50  1  0  0  0  0
 35 70  1  0  0  0  0
 35 75  2  0  0  0  0
 36 58  1  0  0  0  0
 36 59  1  0  0  0  0
 36 76  2  0  0  0  0
 37 60  1  0  0  0  0
 37 65  1  0  0  0  0
 37 77  2  0  0  0  0
 38 61  1  0  0  0  0
 38 71  1  0  0  0  0
 38 78  2  0  0  0  0
 39 66  1  0  0  0  0
 39 69  1  0  0  0  0
 39 79  2  0  0  0  0
 40 43  1  0  0  0  0
 41 50  1  0  0  0  0
 42 65  1  0  0  0  0
 43 45  1  0  0  0  0
 44 46  1  0  0  0  0
 44 47  1  0  0  0  0
 45 49  1  0  0  0  0
 46 51  1  0  0  0  0
 47 66  1  0  0  0  0
 48 51  1  0  0  0  0
 48 66  1  0  0  0  0
 49 70  1  0  0  0  0
 50 65  1  0  0  0  0
 51 64  1  0  0  0  0
 53 61  1  0  0  0  0
 54 62  1  0  0  0  0
 55 62  1  0  0  0  0
 56 62  1  0  0  0  0
 57 73  1  0  0  0  0
 58 72  1  0  0  0  0
 59 83  1  0  0  0  0
 60 62  1  0  0  0  0
 60 71  1  0  0  0  0
 61 73  1  0  0  0  0
 63 64  1  0  0  0  0
 72 86  1  0  0  0  0
 80 86  2  0  0  0  0
 81 86  2  0  0  0  0
M  CHG  1  73   1
M  ISO  4  39 100  59 101  69 100  83 101
M  END
> <Batch ID>
0065

> <Smiles>
CNC(C)C(=O)NC(C(=O)N1Cc2cc([101O:1][101CH2:1]C(=O)CNS(=O)(=O)c3cc([100NH:0][100C:0](=O)N4CCCC(n5nc(-c6ccc(Oc7ccc(F)cc7F)cc6)c(C(N)=O)c5N)C4)ccc3C)ccc2CC1C(=O)NC1CCCc2ccccc21)C(C)(C)C

> <Shape>
0.249

> <Color>
0.112

> <Negative vol penalty>
0.000

$$$$

  -OEChem-04042323183D

 86 95  0     1  0  0  0  0  0999 V2000
  -16.5229  -29.6026   23.3487 C   0  0  0  0  0  0  0  0  0  0  0  0
  -17.5480  -30.5177   23.5602 C   0  0  0  0  0  0  0  0  0  0  0  0
  -21.8904  -16.5700   24.4139 C   0  0  0  0  0  0  0  0  0  0  0  0
  -23.1808  -18.6119   24.4628 C   0  0  0  0  0  0  0  0  0  0  0  0
  -16.8282  -28.2840   23.0179 C   0  0  0  0  0  0  0  0  0  0  0  0
  -18.8783  -30.1176   23.4294 C   0  0  0  0  0  0  0  0  0  0  0  0
  -27.0690  -29.5080   22.0354 C   0  0  0  0  0  0  0  0  0  0  0  0
  -33.2503  -20.2582   21.4806 C   0  0  0  0  0  0  0  0  0  0  0  0
  -32.4252  -19.2541   21.9868 C   0  0  0  0  0  0  0  0  0  0  0  0
  -20.9417  -17.1493   25.2564 C   0  0  0  0  0  0  0  0  0  0  0  0
  -22.2321  -19.1913   25.3054 C   0  0  0  0  0  0  0  0  0  0  0  0
  -27.9059  -28.5162   21.5260 C   0  0  0  0  0  0  0  0  0  0  0  0
  -19.1754  -20.6026   25.0137 C   0  0  0  0  0  0  0  0  0  0  0  0
  -18.7629  -21.9034   24.7252 C   0  0  0  0  0  0  0  0  0  0  0  0
  -26.2406  -27.9706   19.8683 C   0  0  0  0  0  0  0  0  0  0  0  0
  -30.4811  -20.5954   21.4786 C   0  0  0  0  0  0  0  0  0  0  0  0
  -19.5541  -22.6341   26.8878 C   0  0  0  0  0  0  0  0  0  0  0  0
  -23.0100  -17.3012   24.0171 C   0  0  0  0  0  0  0  0  0  0  0  0
  -23.7821  -16.2025   21.8482 C   0  0  0  0  0  0  0  0  0  0  0  0
  -18.1633  -27.8653   22.8954 C   0  0  0  0  0  0  0  0  0  0  0  0
  -25.8049  -29.7317   21.4710 C   0  0  0  0  0  0  0  0  0  0  0  0
  -19.2063  -28.7970   23.0727 C   0  0  0  0  0  0  0  0  0  0  0  0
  -25.3905  -28.9676   20.3707 C   0  0  0  0  0  0  0  0  0  0  0  0
  -32.6909  -21.4311   20.9734 C   0  0  0  0  0  0  0  0  0  0  0  0
  -31.3063  -21.5996   20.9724 C   0  0  0  0  0  0  0  0  0  0  0  0
  -31.0405  -19.4226   21.9858 C   0  0  0  0  0  0  0  0  0  0  0  0
  -21.1125  -18.4599   25.7022 C   0  0  0  0  0  0  0  0  0  0  0  0
  -27.4906  -27.7453   20.4442 C   0  0  0  0  0  0  0  0  0  0  0  0
  -19.7772  -20.3175   26.2394 C   0  0  0  0  0  0  0  0  0  0  0  0
  -18.9523  -22.9192   25.6622 C   0  0  0  0  0  0  0  0  0  0  0  0
  -19.9665  -21.3332   27.1764 C   0  0  0  0  0  0  0  0  0  0  0  0
  -23.9907  -16.7031   23.1473 C   0  0  0  0  0  0  0  0  0  0  0  0
  -25.0161  -15.7463   21.4538 C   0  0  0  0  0  0  0  0  0  0  0  0
  -29.4819  -24.7571   20.3967 C   0  0  0  0  0  0  0  0  0  0  0  0
  -30.8318  -23.2880   19.1463 C   0  0  0  0  0  0  0  0  0  0  0  0
  -28.6841  -25.7620   20.7796 C   0  0  0  0  0  0  0  0  0  1  0  0
  -22.5803  -16.1543   21.0677 C   0  0  0  0  0  0  0  0  0  0  0  0
  -22.8123  -29.5459   22.5264 C   0  0  0  0  0  0  0  0  0  0  0  0
  -22.1207  -30.8032   19.6172 C   0  0  0  0  0  0  0  0  0  0  0  0
  -23.2330  -30.3400   16.2164 C   0  0  0  0  0  0  0  0  0  0  0  0
  -30.5962  -17.1783   23.0402 C   0  0  0  0  0  0  0  0  0  0  0  0
  -18.4367  -26.4282   22.5277 C   0  0  0  0  0  0  0  0  0  0  0  0
  -24.9248  -30.8234   22.0151 C   0  0  0  0  0  0  0  0  0  0  0  0
  -24.0512  -29.1818   19.7159 C   0  0  0  0  0  0  0  0  0  0  0  0
  -29.8993  -23.6486   21.2987 C   0  0  0  0  0  0  0  0  0  0  0  0
  -19.8636  -25.9941   22.8466 C   0  0  0  0  0  0  0  0  0  0  0  0
  -29.0895  -13.9577   23.2265 C   0  0  0  0  0  0  0  0  0  0  0  0
  -20.8518  -27.0109   22.2951 C   0  0  0  0  0  0  0  0  0  0  0  0
  -27.5924  -14.2501   23.1030 C   0  0  0  0  0  0  0  0  0  0  0  0
  -29.8139  -15.0370   24.0291 C   0  0  0  0  0  0  0  0  0  0  0  0
  -28.0994  -16.7036   23.4355 C   0  0  0  0  0  0  0  0  0  0  0  0
  -20.6612  -28.3771   22.9659 C   0  0  1  0  0  0  0  0  0  0  0  0
  -30.0469  -24.5830   19.0219 C   0  0  2  0  0  0  0  0  0  0  0  0
  -23.4486  -30.6191   21.6890 C   0  0  1  0  0  0  0  0  0  0  0  0
  -27.3383  -15.6776   22.5801 C   0  0  2  0  0  0  0  0  0  0  0  0
  -33.5991  -22.4898   20.4375 C   0  0  0  0  0  0  0  0  0  0  0  0
  -30.9572  -25.7189   18.5763 C   0  0  0  0  0  0  0  0  0  0  0  0
  -23.2474  -31.9286   14.2739 C   0  0  0  0  0  0  0  0  0  0  0  0
  -19.4282  -29.5394   18.9366 C   0  0  0  0  0  0  0  0  0  0  0  0
  -20.0568  -29.6709   16.5168 C   0  0  0  0  0  0  0  0  0  0  0  0
  -19.8395  -31.7601   17.8625 C   0  0  0  0  0  0  0  0  0  0  0  0
  -26.1347  -29.9582   15.7763 C   0  0  0  0  0  0  0  0  0  0  0  0
  -21.8183  -30.2352   18.2516 C   0  0  1  0  0  0  0  0  0  0  0  0
  -24.0666  -31.3056   15.3934 C   0  0  2  0  0  0  0  0  0  0  0  0
  -20.3023  -30.2876   17.9104 C   0  0  0  0  0  0  0  0  0  0  0  0
  -25.2575  -16.5768   23.5513 N   0  0  0  0  0  0  0  0  0  0  0  0
  -25.8560  -15.9915   22.5000 N   0  0  0  0  0  0  0  0  0  0  0  0
  -30.7126  -22.7970   20.4559 N   0  0  0  0  0  0  0  0  0  0  0  0
  -23.2240  -30.2569   20.2881 N   0  0  0  0  0  0  0  0  0  0  0  0
  -29.5301  -16.3620   23.4735 N   0  0  0  0  0  0  0  0  0  0  0  0
  -25.4538  -15.1632   20.3176 N   0  0  0  0  0  0  0  0  0  0  0  0
  -22.2805  -17.2409   20.2348 N   0  0  0  0  0  0  0  0  0  0  0  0
  -30.2027  -18.4023   22.5002 N   0  0  0  0  0  0  0  0  0  0  0  0
  -21.4666  -29.3592   22.2741 N   0  0  0  0  0  0  0  0  0  0  0  0
  -22.6677  -30.9585   17.3115 N   0  0  0  0  0  0  0  0  0  0  0  0
  -25.2301  -30.5987   14.7871 N   0  3  0  0  0  0  0  0  0  0  0  0
  -31.4447  -22.8160   18.1963 O   0  0  0  0  0  0  0  0  0  0  0  0
  -21.7873  -15.1838   21.1201 O   0  0  0  0  0  0  0  0  0  0  0  0
  -23.4924  -28.9317   23.3400 O   0  0  0  0  0  0  0  0  0  0  0  0
  -21.4086  -31.7035   20.0690 O   0  0  0  0  0  0  0  0  0  0  0  0
  -23.0940  -29.1565   15.9157 O   0  0  0  0  0  0  0  0  0  0  0  0
  -31.7702  -16.8067   23.1157 O   0  0  0  0  0  0  0  0  0  0  0  0
  -20.1868  -19.0257   26.5241 O   0  0  0  0  0  0  0  0  0  0  0  0
  -28.3053  -26.7761   19.9455 O   0  0  0  0  0  0  0  0  0  1  0  0
  -18.5575  -24.1686   25.3843 F   0  0  0  0  0  0  0  0  0  0  0  0
  -20.5452  -21.0656   28.3552 F   0  0  0  0  0  0  0  0  0  0  0  0
  1  2  1  0  0  0  0
  1  5  2  0  0  0  0
  2  6  2  0  0  0  0
  3 10  2  0  0  0  0
  3 18  1  0  0  0  0
  4 11  1  0  0  0  0
  4 18  2  0  0  0  0
  5 20  1  0  0  0  0
  6 22  1  0  0  0  0
  7 12  2  0  0  0  0
  7 21  1  0  0  0  0
  8  9  2  0  0  0  0
  8 24  1  0  0  0  0
  9 26  1  0  0  0  0
 10 27  1  0  0  0  0
 11 27  2  0  0  0  0
 12 28  1  0  0  0  0
 13 14  2  0  0  0  0
 13 29  1  0  0  0  0
 14 30  1  0  0  0  0
 15 23  1  0  0  0  0
 15 28  2  0  0  0  0
 16 25  1  0  0  0  0
 16 26  2  0  0  0  0
 17 30  2  0  0  0  0
 17 31  1  0  0  0  0
 18 32  1  0  0  0  0
 19 32  1  0  0  0  0
 19 33  2  0  0  0  0
 19 37  1  0  0  0  0
 20 22  2  0  0  0  0
 20 42  1  0  0  0  0
 21 23  2  0  0  0  0
 21 43  1  0  0  0  0
 22 52  1  0  0  0  0
 23 44  1  0  0  0  0
 24 25  2  0  0  0  0
 24 56  1  0  0  0  0
 25 68  1  0  0  0  0
 26 73  1  0  0  0  0
 27 83  1  0  0  0  0
 28 84  1  0  0  0  0
 29 31  2  0  0  0  0
 29 83  1  0  0  0  0
 30 85  1  0  0  0  0
 31 86  1  0  0  0  0
 32 66  2  0  0  0  0
 33 67  1  0  0  0  0
 33 71  1  0  0  0  0
 34 36  2  0  0  0  0
 34 45  1  0  0  0  0
 34 53  1  0  0  0  0
 35 53  1  0  0  0  0
 35 68  1  0  0  0  0
 35 77  2  0  0  0  0
 36 84  1  0  0  0  0
 37 72  1  0  0  0  0
 37 78  2  0  0  0  0
 38 54  1  0  0  0  0
 38 74  1  0  0  0  0
 38 79  2  0  0  0  0
 39 63  1  0  0  0  0
 39 69  1  0  0  0  0
 39 80  2  0  0  0  0
 40 64  1  0  0  0  0
 40 75  1  0  0  0  0
 40 81  2  0  0  0  0
 41 70  1  0  0  0  0
 41 73  1  0  0  0  0
 41 82  2  0  0  0  0
 42 46  1  0  0  0  0
 43 54  1  0  0  0  0
 44 69  1  0  0  0  0
 45 68  1  0  0  0  0
 46 48  1  0  0  0  0
 47 49  1  0  0  0  0
 47 50  1  0  0  0  0
 48 52  1  0  0  0  0
 49 55  1  0  0  0  0
 50 70  1  0  0  0  0
 51 55  1  0  0  0  0
 51 70  1  0  0  0  0
 52 74  1  0  0  0  0
 53 57  1  0  0  0  0
 54 69  1  0  0  0  0
 55 67  1  0  0  0  0
 58 64  1  0  0  0  0
 59 65  1  0  0  0  0
 60 65  1  0  0  0  0
 61 65  1  0  0  0  0
 62 76  1  0  0  0  0
 63 65  1  0  0  0  0
 63 75  1  0  0  0  0
 64 76  1  0  0  0  0
 66 67  1  0  0  0  0
M  CHG  1  76   1
M  ISO  4  36 101  41 100  73 100  84 101
M  END
> <Batch ID>
0065

> <Smiles>
CNC(C)C(=O)NC(C(=O)N1Cc2cc([101O:1][101CH:1]=C3CN(c4cc([100NH:0][100C:0](=O)N5CCCC(n6nc(-c7ccc(Oc8ccc(F)cc8F)cc7)c(C(N)=O)c6N)C5)ccc4C)C(=O)C3C)ccc2CC1C(=O)NC1CCCc2ccccc21)C(C)(C)C

> <Shape>
0.208

> <Color>
0.174

> <Negative vol penalty>
0.000

$$$$

  -OEChem-04042323183D

 86 95  0     1  0  0  0  0  0999 V2000
  -27.5519  -31.1370   28.1197 C   0  0  0  0  0  0  0  0  0  0  0  0
  -27.7305  -30.2291   27.0808 C   0  0  0  0  0  0  0  0  0  0  0  0
  -23.7503   -8.9836   20.2445 C   0  0  0  0  0  0  0  0  0  0  0  0
  -23.1737  -10.8139   21.7124 C   0  0  0  0  0  0  0  0  0  0  0  0
  -26.2782  -31.6276   28.4039 C   0  0  0  0  0  0  0  0  0  0  0  0
  -26.6352  -29.8104   26.3262 C   0  0  0  0  0  0  0  0  0  0  0  0
  -27.5955  -29.7899   21.3541 C   0  0  0  0  0  0  0  0  0  0  0  0
  -28.1902  -19.9701   18.5652 C   0  0  0  0  0  0  0  0  0  0  0  0
  -28.1366  -18.5763   18.5593 C   0  0  0  0  0  0  0  0  0  0  0  0
  -22.9376   -8.1297   20.9901 C   0  0  0  0  0  0  0  0  0  0  0  0
  -22.3609   -9.9600   22.4579 C   0  0  0  0  0  0  0  0  0  0  0  0
  -28.3392  -28.7221   20.8536 C   0  0  0  0  0  0  0  0  0  0  0  0
  -19.6373   -7.4518   21.2764 C   0  0  0  0  0  0  0  0  0  0  0  0
  -18.7881   -6.5926   20.5792 C   0  0  0  0  0  0  0  0  0  0  0  0
  -26.3062  -27.6718   20.0901 C   0  0  0  0  0  0  0  0  0  0  0  0
  -30.2595  -18.4898   19.7096 C   0  0  0  0  0  0  0  0  0  0  0  0
  -19.8792   -4.6907   21.5939 C   0  0  0  0  0  0  0  0  0  0  0  0
  -23.8684  -10.3258   20.6057 C   0  0  0  0  0  0  0  0  0  0  0  0
  -24.3322  -11.9831   18.7227 C   0  0  0  0  0  0  0  0  0  0  0  0
  -25.1682  -31.2222   27.6462 C   0  0  0  0  0  0  0  0  0  0  0  0
  -26.1982  -29.8015   21.2357 C   0  0  0  0  0  0  0  0  0  0  0  0
  -25.3452  -30.2951   26.6014 C   0  0  0  0  0  0  0  0  0  0  0  0
  -25.5473  -28.7421   20.5876 C   0  0  0  0  0  0  0  0  0  0  0  0
  -30.3131  -19.8837   19.7154 C   0  0  0  0  0  0  0  0  0  0  0  0
  -29.2785  -20.6238   19.1432 C   0  0  0  0  0  0  0  0  0  0  0  0
  -29.1712  -17.8362   19.1315 C   0  0  0  0  0  0  0  0  0  0  0  0
  -22.2429   -8.6178   22.0967 C   0  0  0  0  0  0  0  0  0  0  0  0
  -27.6944  -27.6615   20.2241 C   0  0  0  0  0  0  0  0  0  0  0  0
  -20.6076   -6.9305   22.1323 C   0  0  0  0  0  0  0  0  0  0  0  0
  -18.9090   -5.2121   20.7380 C   0  0  0  0  0  0  0  0  0  0  0  0
  -20.7285   -5.5500   22.2911 C   0  0  0  0  0  0  0  0  0  0  0  0
  -24.7082  -11.2083   19.8363 C   0  0  0  0  0  0  0  0  0  0  0  0
  -25.4820  -12.6396   18.3572 C   0  0  0  0  0  0  0  0  0  0  0  0
  -30.2982  -22.8611   18.5444 C   0  0  0  0  0  0  0  0  0  0  0  0
  -23.0576  -12.0992   18.0765 C   0  0  0  0  0  0  0  0  0  0  0  0
  -23.7732  -29.8259   23.2906 C   0  0  0  0  0  0  0  0  0  0  0  0
  -22.0022  -30.1776   20.5957 C   0  0  0  0  0  0  0  0  0  0  0  0
  -21.7411  -29.7339   17.2220 C   0  0  0  0  0  0  0  0  0  0  0  0
  -30.0581  -15.5361   19.6507 C   0  0  0  0  0  0  0  0  0  0  0  0
  -23.8036  -31.7437   28.0212 C   0  0  0  0  0  0  0  0  0  0  0  0
  -25.4126  -30.9734   21.7571 C   0  0  0  0  0  0  0  0  0  0  0  0
  -24.0511  -28.7162   20.4169 C   0  0  0  0  0  0  0  0  0  0  0  0
  -29.8643  -24.3002   18.7156 C   0  0  0  0  0  0  0  0  0  0  0  0
  -22.7524  -31.5368   26.9338 C   0  0  0  0  0  0  0  0  0  0  0  0
  -30.2689  -11.9885   19.8685 C   0  0  0  0  0  0  0  0  0  0  0  0
  -22.8218  -30.1141   26.3880 C   0  0  0  0  0  0  0  0  0  0  0  0
  -28.8101  -11.5330   19.7879 C   0  0  0  0  0  0  0  0  0  0  0  0
  -30.4139  -13.2907   20.6540 C   0  0  0  0  0  0  0  0  0  0  0  0
  -28.0984  -13.9360   20.1142 C   0  0  0  0  0  0  0  0  0  0  0  0
  -28.2455  -22.8518   19.7086 C   0  0  0  0  0  0  0  0  0  0  0  0
  -24.1856  -29.8360   25.7443 C   0  0  1  0  0  0  0  0  0  0  0  0
  -23.9515  -30.6360   22.0377 C   0  0  1  0  0  0  0  0  0  0  0  0
  -27.8944  -12.6627   19.2771 C   0  0  2  0  0  0  0  0  0  0  0  0
  -28.8465  -24.2517   19.8590 C   0  0  1  0  0  0  0  0  0  0  0  0
  -31.4909  -20.5578   20.3409 C   0  0  0  0  0  0  0  0  0  0  0  0
  -29.5517  -24.4008   21.2178 C   0  0  0  0  0  0  0  0  0  0  0  0
  -20.1599  -30.0858   15.3055 C   0  0  0  0  0  0  0  0  0  0  0  0
  -20.3653  -27.7694   21.5073 C   0  0  0  0  0  0  0  0  0  0  0  0
  -19.4650  -27.5876   19.1782 C   0  0  0  0  0  0  0  0  0  0  0  0
  -19.0188  -29.6363   20.5296 C   0  0  0  0  0  0  0  0  0  0  0  0
  -23.6306  -31.5484   15.8449 C   0  0  0  0  0  0  0  0  0  0  0  0
  -27.7822  -25.3403   19.7138 C   0  0  0  0  0  0  0  0  0  1  0  0
  -21.3428  -29.2340   19.6191 C   0  0  1  0  0  0  0  0  0  0  0  0
  -21.3060  -30.6748   16.1130 C   0  0  2  0  0  0  0  0  0  0  0  0
  -20.0760  -28.5561   20.2133 C   0  0  0  0  0  0  0  0  0  0  0  0
  -25.9962  -11.3574   20.1571 N   0  0  0  0  0  0  0  0  0  0  0  0
  -26.4396  -12.2335   19.2395 N   0  0  0  0  0  0  0  0  0  0  0  0
  -29.3143  -22.0506   19.1388 N   0  0  0  0  0  0  0  0  0  0  0  0
  -23.3264  -29.8821   20.9492 N   0  0  0  0  0  0  0  0  0  0  0  0
  -29.5199  -14.3158   20.1110 N   0  0  0  0  0  0  0  0  0  0  0  0
  -25.7573  -13.5186   17.3704 N   0  0  0  0  0  0  0  0  0  0  0  0
  -21.9825  -11.3550   18.5810 N   0  0  0  0  0  0  0  0  0  0  0  0
  -29.1160  -16.4203   19.1260 N   0  0  0  0  0  0  0  0  0  0  0  0
  -24.2568  -30.4391   24.4306 N   0  0  0  0  0  0  0  0  0  0  0  0
  -21.0937  -30.0085   18.4081 N   0  0  0  0  0  0  0  0  0  0  0  0
  -22.4424  -30.9455   15.1878 N   0  3  0  0  0  0  0  0  0  0  0  0
  -31.3097  -22.5505   17.9319 O   0  0  0  0  0  0  0  0  0  0  0  0
  -22.8814  -12.8284   17.0712 O   0  0  0  0  0  0  0  0  0  0  0  0
  -23.2353  -28.7266   23.2278 O   0  0  0  0  0  0  0  0  0  0  0  0
  -21.3682  -31.1453   21.0236 O   0  0  0  0  0  0  0  0  0  0  0  0
  -22.5695  -28.8421   17.0521 O   0  0  0  0  0  0  0  0  0  0  0  0
  -31.2691  -15.7679   19.6920 O   0  0  0  0  0  0  0  0  0  0  0  0
  -21.4495   -7.7849   22.8243 O   0  0  0  0  0  0  0  0  0  0  0  0
  -28.4179  -26.6177   19.7353 O   0  0  0  0  0  0  0  0  0  1  0  0
  -18.0923   -4.3871   20.0696 F   0  0  0  0  0  0  0  0  0  0  0  0
  -21.6580   -5.0434   23.1128 F   0  0  0  0  0  0  0  0  0  0  0  0
  1  2  1  0  0  0  0
  1  5  2  0  0  0  0
  2  6  2  0  0  0  0
  3 10  2  0  0  0  0
  3 18  1  0  0  0  0
  4 11  1  0  0  0  0
  4 18  2  0  0  0  0
  5 20  1  0  0  0  0
  6 22  1  0  0  0  0
  7 12  2  0  0  0  0
  7 21  1  0  0  0  0
  8  9  2  0  0  0  0
  8 25  1  0  0  0  0
  9 26  1  0  0  0  0
 10 27  1  0  0  0  0
 11 27  2  0  0  0  0
 12 28  1  0  0  0  0
 13 14  2  0  0  0  0
 13 29  1  0  0  0  0
 14 30  1  0  0  0  0
 15 23  1  0  0  0  0
 15 28  2  0  0  0  0
 16 24  1  0  0  0  0
 16 26  2  0  0  0  0
 17 30  2  0  0  0  0
 17 31  1  0  0  0  0
 18 32  1  0  0  0  0
 19 32  1  0  0  0  0
 19 33  2  0  0  0  0
 19 35  1  0  0  0  0
 20 22  2  0  0  0  0
 20 40  1  0  0  0  0
 21 23  2  0  0  0  0
 21 41  1  0  0  0  0
 22 51  1  0  0  0  0
 23 42  1  0  0  0  0
 24 25  2  0  0  0  0
 24 55  1  0  0  0  0
 25 68  1  0  0  0  0
 26 73  1  0  0  0  0
 27 83  1  0  0  0  0
 28 84  1  0  0  0  0
 29 31  2  0  0  0  0
 29 83  1  0  0  0  0
 30 85  1  0  0  0  0
 31 86  1  0  0  0  0
 32 66  2  0  0  0  0
 33 67  1  0  0  0  0
 33 71  1  0  0  0  0
 34 43  1  0  0  0  0
 34 68  1  0  0  0  0
 34 77  2  0  0  0  0
 35 72  1  0  0  0  0
 35 78  2  0  0  0  0
 36 52  1  0  0  0  0
 36 74  1  0  0  0  0
 36 79  2  0  0  0  0
 37 63  1  0  0  0  0
 37 69  1  0  0  0  0
 37 80  2  0  0  0  0
 38 64  1  0  0  0  0
 38 75  1  0  0  0  0
 38 81  2  0  0  0  0
 39 70  1  0  0  0  0
 39 73  1  0  0  0  0
 39 82  2  0  0  0  0
 40 44  1  0  0  0  0
 41 52  1  0  0  0  0
 42 69  1  0  0  0  0
 43 54  1  0  0  0  0
 44 46  1  0  0  0  0
 45 47  1  0  0  0  0
 45 48  1  0  0  0  0
 46 51  1  0  0  0  0
 47 53  1  0  0  0  0
 48 70  1  0  0  0  0
 49 53  1  0  0  0  0
 49 70  1  0  0  0  0
 50 54  1  0  0  0  0
 50 68  1  0  0  0  0
 51 74  1  0  0  0  0
 52 69  1  0  0  0  0
 53 67  1  0  0  0  0
 54 56  1  0  0  0  0
 54 62  1  0  0  0  0
 57 64  1  0  0  0  0
 58 65  1  0  0  0  0
 59 65  1  0  0  0  0
 60 65  1  0  0  0  0
 61 76  1  0  0  0  0
 62 84  1  0  0  0  0
 63 65  1  0  0  0  0
 63 75  1  0  0  0  0
 64 76  1  0  0  0  0
 66 67  1  0  0  0  0
M  CHG  1  76   1
M  ISO  4  39 100  62 101  73 100  84 101
M  END
> <Batch ID>
0065

> <Smiles>
CNC(C)C(=O)NC(C(=O)N1Cc2cc([101O:1][101CH2:1]C3(C)CC(=O)N(c4ccc([100NH:0][100C:0](=O)N5CCCC(n6nc(-c7ccc(Oc8ccc(F)cc8F)cc7)c(C(N)=O)c6N)C5)cc4C)C3)ccc2CC1C(=O)NC1CCCc2ccccc21)C(C)(C)C

> <Shape>
0.292

> <Color>
0.116

> <Negative vol penalty>
0.000

$$$$

  -OEChem-04042323183D

 84 92  0     1  0  0  0  0  0999 V2000
  -16.7715  -26.5623   30.9827 C   0  0  0  0  0  0  0  0  0  0  0  0
  -18.0728  -26.3978   30.5192 C   0  0  0  0  0  0  0  0  0  0  0  0
  -23.0755   -9.8687   19.9408 C   0  0  0  0  0  0  0  0  0  0  0  0
  -23.8352   -9.8748   22.2343 C   0  0  0  0  0  0  0  0  0  0  0  0
  -16.0319  -25.4524   31.3889 C   0  0  0  0  0  0  0  0  0  0  0  0
  -18.6357  -25.1233   30.4627 C   0  0  0  0  0  0  0  0  0  0  0  0
  -22.5789  -23.0226   26.2741 C   0  0  0  0  0  0  0  0  0  0  0  0
  -22.3312   -8.7157   20.1904 C   0  0  0  0  0  0  0  0  0  0  0  0
  -23.0908   -8.7219   22.4839 C   0  0  0  0  0  0  0  0  0  0  0  0
  -23.9662  -22.8834   26.2784 C   0  0  0  0  0  0  0  0  0  0  0  0
  -21.1048   -5.9852   23.8196 C   0  0  0  0  0  0  0  0  0  0  0  0
  -20.3484   -5.9416   24.9907 C   0  0  0  0  0  0  0  0  0  0  0  0
  -23.7267  -20.5774   26.9447 C   0  0  0  0  0  0  0  0  0  0  0  0
  -29.8809  -17.4552   23.1409 C   0  0  0  0  0  0  0  0  0  0  0  0
  -32.0648  -16.6064   22.5521 C   0  0  0  0  0  0  0  0  0  0  0  0
  -19.1046   -7.8795   24.2595 C   0  0  0  0  0  0  0  0  0  0  0  0
  -23.8276  -10.4482   20.9627 C   0  0  0  0  0  0  0  0  0  0  0  0
  -24.1703  -12.9732   20.8434 C   0  0  0  0  0  0  0  0  0  0  0  0
  -16.5826  -24.1626   31.3283 C   0  0  0  0  0  0  0  0  0  0  0  0
  -21.7541  -21.9414   26.6162 C   0  0  0  0  0  0  0  0  0  0  0  0
  -17.9033  -23.9953   30.8698 C   0  0  0  0  0  0  0  0  0  0  0  0
  -22.3293  -20.7047   26.9415 C   0  0  0  0  0  0  0  0  0  0  0  0
  -31.8541  -18.3567   24.2041 C   0  0  0  0  0  0  0  0  0  0  0  0
  -30.6791  -16.5889   22.3939 C   0  0  0  0  0  0  0  0  0  0  0  0
  -30.4684  -18.3391   24.0460 C   0  0  0  0  0  0  0  0  0  0  0  0
  -22.3388   -8.1423   21.4619 C   0  0  0  0  0  0  0  0  0  0  0  0
  -24.5404  -21.6615   26.6166 C   0  0  0  0  0  0  0  0  0  0  0  0
  -20.8612   -6.9760   22.8685 C   0  0  0  0  0  0  0  0  0  0  0  0
  -19.3483   -6.8887   25.2107 C   0  0  0  0  0  0  0  0  0  0  0  0
  -32.6524  -17.4903   23.4572 C   0  0  0  0  0  0  0  0  0  0  0  0
  -19.8610   -7.9231   23.0884 C   0  0  0  0  0  0  0  0  0  0  0  0
  -24.5971  -11.6388   20.7054 C   0  0  0  0  0  0  0  0  0  0  0  0
  -25.2628  -13.7224   20.4804 C   0  0  0  0  0  0  0  0  0  0  0  0
  -27.7603  -20.3500   25.6916 C   0  0  0  0  0  0  0  0  0  0  0  0
  -26.4492  -20.5923   25.7897 C   0  0  0  0  0  0  0  0  0  1  0  0
  -22.9000  -13.4894   21.2623 C   0  0  0  0  0  0  0  0  0  0  0  0
  -28.2567  -19.3078   24.7463 C   0  0  0  0  0  0  0  0  0  0  0  0
  -19.6303  -21.3793   28.9135 C   0  0  0  0  0  0  0  0  0  0  0  0
  -19.1141  -18.6537   27.2321 C   0  0  0  0  0  0  0  0  0  0  0  0
  -20.3076  -16.3423   25.0232 C   0  0  0  0  0  0  0  0  0  0  0  0
  -30.7294  -14.7660   20.6559 C   0  0  0  0  0  0  0  0  0  0  0  0
  -15.7611  -22.9985   31.8229 C   0  0  0  0  0  0  0  0  0  0  0  0
  -20.2588  -22.1003   26.5809 C   0  0  0  0  0  0  0  0  0  0  0  0
  -21.4874  -19.5074   27.2968 C   0  0  0  0  0  0  0  0  0  0  0  0
  -16.2995  -21.6408   31.3791 C   0  0  0  0  0  0  0  0  0  0  0  0
  -29.6143  -12.3531   18.2869 C   0  0  0  0  0  0  0  0  0  0  0  0
  -17.8068  -21.5659   31.6009 C   0  0  0  0  0  0  0  0  0  0  0  0
  -28.1745  -12.0620   18.7163 C   0  0  0  0  0  0  0  0  0  0  0  0
  -30.5294  -12.5813   19.4887 C   0  0  0  0  0  0  0  0  0  0  0  0
  -28.6226  -13.3061   20.8700 C   0  0  0  0  0  0  0  0  0  0  0  0
  -18.5401  -22.6261   30.7703 C   0  0  1  0  0  0  0  0  0  0  0  0
  -19.5286  -21.0770   27.4452 C   0  0  1  0  0  0  0  0  0  0  0  0
  -27.6498  -13.1335   19.6920 C   0  0  2  0  0  0  0  0  0  0  0  0
  -32.5073  -19.2933   25.1683 C   0  0  0  0  0  0  0  0  0  0  0  0
  -19.6698  -14.2069   23.8696 C   0  0  0  0  0  0  0  0  0  0  0  0
  -19.5988  -17.1133   29.8210 C   0  0  0  0  0  0  0  0  0  0  0  0
  -19.8924  -15.0391   28.4500 C   0  0  0  0  0  0  0  0  0  0  0  0
  -17.7099  -16.2469   28.4296 C   0  0  0  0  0  0  0  0  0  0  0  0
  -20.5532  -17.5794   22.3458 C   0  0  0  0  0  0  0  0  0  0  0  0
  -19.6996  -17.2623   27.2454 C   0  0  1  0  0  0  0  0  0  0  0  0
  -19.6921  -15.7249   23.7804 C   0  0  2  0  0  0  0  0  0  0  0  0
  -19.2413  -16.4383   28.4817 C   0  0  0  0  0  0  0  0  0  0  0  0
  -25.8620  -11.5427   20.2872 N   0  0  0  0  0  0  0  0  0  0  0  0
  -26.2394  -12.8261   20.1592 N   0  0  0  0  0  0  0  0  0  0  0  0
  -20.0304  -19.7147   27.2540 N   0  0  0  0  0  0  0  0  0  0  0  0
  -29.9707  -13.6121   20.3663 N   0  0  0  0  0  0  0  0  0  0  0  0
  -25.4737  -15.0538   20.4077 N   0  0  0  0  0  0  0  0  0  0  0  0
  -21.8877  -12.5805   21.5992 N   0  0  0  0  0  0  0  0  0  0  0  0
  -29.6410  -19.2114   24.7952 N   0  0  0  0  0  0  0  0  0  0  0  0
  -30.0823  -15.6910   21.4745 N   0  0  0  0  0  0  0  0  0  0  0  0
  -18.6326  -22.2096   29.3874 N   0  0  0  0  0  0  0  0  0  0  0  0
  -19.3503  -16.6603   25.9632 N   0  0  0  0  0  0  0  0  0  0  0  0
  -20.4696  -16.1132   22.5697 N   0  3  0  0  0  0  0  0  0  0  0  0
  -22.6642  -14.7201   21.3199 O   0  0  0  0  0  0  0  0  0  0  0  0
  -27.4827  -18.6614   24.0500 O   0  0  0  0  0  0  0  0  0  0  0  0
  -20.5454  -20.8939   29.5683 O   0  0  0  0  0  0  0  0  0  0  0  0
  -17.8891  -18.7940   27.1963 O   0  0  0  0  0  0  0  0  0  0  0  0
  -21.5171  -16.5209   25.1491 O   0  0  0  0  0  0  0  0  0  0  0  0
  -31.8586  -14.9344   20.1884 O   0  0  0  0  0  0  0  0  0  0  0  0
  -21.6125   -7.0174   21.7059 O   0  0  0  0  0  0  0  0  0  0  0  0
  -25.8941  -21.5232   26.6222 O   0  0  0  0  0  0  0  0  0  1  0  0
  -18.6209   -6.8458   26.3347 F   0  0  0  0  0  0  0  0  0  0  0  0
  -33.9849  -17.4981   23.6029 F   0  0  0  0  0  0  0  0  0  0  0  0
  -19.6216   -8.8766   22.1778 F   0  0  0  0  0  0  0  0  0  0  0  0
  1  2  1  0  0  0  0
  1  5  2  0  0  0  0
  2  6  2  0  0  0  0
  3  8  2  0  0  0  0
  3 17  1  0  0  0  0
  4  9  1  0  0  0  0
  4 17  2  0  0  0  0
  5 19  1  0  0  0  0
  6 21  1  0  0  0  0
  7 10  2  0  0  0  0
  7 20  1  0  0  0  0
  8 26  1  0  0  0  0
  9 26  2  0  0  0  0
 10 27  1  0  0  0  0
 11 12  2  0  0  0  0
 11 28  1  0  0  0  0
 12 29  1  0  0  0  0
 13 22  1  0  0  0  0
 13 27  2  0  0  0  0
 14 24  2  0  0  0  0
 14 25  1  0  0  0  0
 15 24  1  0  0  0  0
 15 30  2  0  0  0  0
 16 29  2  0  0  0  0
 16 31  1  0  0  0  0
 17 32  1  0  0  0  0
 18 32  1  0  0  0  0
 18 33  2  0  0  0  0
 18 36  1  0  0  0  0
 19 21  2  0  0  0  0
 19 42  1  0  0  0  0
 20 22  2  0  0  0  0
 20 43  1  0  0  0  0
 21 51  1  0  0  0  0
 22 44  1  0  0  0  0
 23 25  2  0  0  0  0
 23 30  1  0  0  0  0
 23 54  1  0  0  0  0
 24 70  1  0  0  0  0
 25 69  1  0  0  0  0
 26 80  1  0  0  0  0
 27 81  1  0  0  0  0
 28 31  2  0  0  0  0
 28 80  1  0  0  0  0
 29 82  1  0  0  0  0
 30 83  1  0  0  0  0
 31 84  1  0  0  0  0
 32 63  2  0  0  0  0
 33 64  1  0  0  0  0
 33 67  1  0  0  0  0
 34 35  2  0  0  0  0
 34 37  1  0  0  0  0
 35 81  1  0  0  0  0
 36 68  1  0  0  0  0
 36 74  2  0  0  0  0
 37 69  1  0  0  0  0
 37 75  2  0  0  0  0
 38 52  1  0  0  0  0
 38 71  1  0  0  0  0
 38 76  2  0  0  0  0
 39 60  1  0  0  0  0
 39 65  1  0  0  0  0
 39 77  2  0  0  0  0
 40 61  1  0  0  0  0
 40 72  1  0  0  0  0
 40 78  2  0  0  0  0
 41 66  1  0  0  0  0
 41 70  1  0  0  0  0
 41 79  2  0  0  0  0
 42 45  1  0  0  0  0
 43 52  1  0  0  0  0
 44 65  1  0  0  0  0
 45 47  1  0  0  0  0
 46 48  1  0  0  0  0
 46 49  1  0  0  0  0
 47 51  1  0  0  0  0
 48 53  1  0  0  0  0
 49 66  1  0  0  0  0
 50 53  1  0  0  0  0
 50 66  1  0  0  0  0
 51 71  1  0  0  0  0
 52 65  1  0  0  0  0
 53 64  1  0  0  0  0
 55 61  1  0  0  0  0
 56 62  1  0  0  0  0
 57 62  1  0  0  0  0
 58 62  1  0  0  0  0
 59 73  1  0  0  0  0
 60 62  1  0  0  0  0
 60 72  1  0  0  0  0
 61 73  1  0  0  0  0
 63 64  1  0  0  0  0
M  CHG  1  73   1
M  ISO  4  35 101  41 100  70 100  81 101
M  END
> <Batch ID>
0065

> <Smiles>
CNC(C)C(=O)NC(C(=O)N1Cc2cc([101O:1][101CH:1]=CC(=O)Nc3cc([100NH:0][100C:0](=O)N4CCCC(n5nc(-c6ccc(Oc7ccc(F)cc7F)cc6)c(C(N)=O)c5N)C4)cc(F)c3C)ccc2CC1C(=O)NC1CCCc2ccccc21)C(C)(C)C

> <Shape>
0.160

> <Color>
0.192

> <Negative vol penalty>
0.000

$$$$

  -OEChem-04042323183D

 86 95  0     1  0  0  0  0  0999 V2000
  -18.1646  -23.6817   23.5362 C   0  0  0  0  0  0  0  0  0  0  0  0
  -19.4884  -23.2945   23.7178 C   0  0  0  0  0  0  0  0  0  0  0  0
  -23.0567   -9.9093   19.9280 C   0  0  0  0  0  0  0  0  0  0  0  0
  -23.8579   -9.8506   22.2065 C   0  0  0  0  0  0  0  0  0  0  0  0
  -17.8696  -24.8273   22.7983 C   0  0  0  0  0  0  0  0  0  0  0  0
  -20.5180  -24.0521   23.1608 C   0  0  0  0  0  0  0  0  0  0  0  0
  -26.0786  -25.0191   25.5378 C   0  0  0  0  0  0  0  0  0  0  0  0
  -31.3424  -19.0743   20.6804 C   0  0  0  0  0  0  0  0  0  0  0  0
  -31.1575  -17.6921   20.6513 C   0  0  0  0  0  0  0  0  0  0  0  0
  -22.3158   -8.7502   20.1586 C   0  0  0  0  0  0  0  0  0  0  0  0
  -23.1171   -8.6915   22.4372 C   0  0  0  0  0  0  0  0  0  0  0  0
  -27.3170  -24.4250   25.2990 C   0  0  0  0  0  0  0  0  0  0  0  0
  -19.8992   -7.8798   23.0753 C   0  0  0  0  0  0  0  0  0  0  0  0
  -19.1635   -7.8074   24.2581 C   0  0  0  0  0  0  0  0  0  0  0  0
  -27.8654  -26.2003   23.7607 C   0  0  0  0  0  0  0  0  0  0  0  0
  -29.7497  -19.2493   22.4887 C   0  0  0  0  0  0  0  0  0  0  0  0
  -20.4154   -5.8488   24.9168 C   0  0  0  0  0  0  0  0  0  0  0  0
  -23.8278  -10.4595   20.9519 C   0  0  0  0  0  0  0  0  0  0  0  0
  -24.1709  -12.9867   20.8972 C   0  0  0  0  0  0  0  0  0  0  0  0
  -18.8965  -25.6048   22.2400 C   0  0  0  0  0  0  0  0  0  0  0  0
  -25.7193  -26.2045   24.8804 C   0  0  0  0  0  0  0  0  0  0  0  0
  -20.2364  -25.2085   22.4136 C   0  0  0  0  0  0  0  0  0  0  0  0
  -26.6228  -26.8089   23.9948 C   0  0  0  0  0  0  0  0  0  0  0  0
  -29.5648  -17.8670   22.4595 C   0  0  0  0  0  0  0  0  0  0  0  0
  -30.6386  -19.8529   21.5991 C   0  0  0  0  0  0  0  0  0  0  0  0
  -30.2687  -17.0884   21.5408 C   0  0  0  0  0  0  0  0  0  0  0  0
  -22.3460   -8.1413   21.4132 C   0  0  0  0  0  0  0  0  0  0  0  0
  -28.2095  -25.0140   24.4082 C   0  0  0  0  0  0  0  0  0  0  0  0
  -20.8930   -6.9367   22.8132 C   0  0  0  0  0  0  0  0  0  0  0  0
  -19.4216   -6.7919   25.1789 C   0  0  0  0  0  0  0  0  0  0  0  0
  -21.1510   -5.9212   23.7340 C   0  0  0  0  0  0  0  0  0  0  0  0
  -24.5937  -11.6565   20.7141 C   0  0  0  0  0  0  0  0  0  0  0  0
  -25.2573  -13.7452   20.5355 C   0  0  0  0  0  0  0  0  0  0  0  0
  -31.6894  -22.0183   20.8034 C   0  0  0  0  0  0  0  0  0  0  0  0
  -22.9089  -13.4916   21.3535 C   0  0  0  0  0  0  0  0  0  0  0  0
  -23.4185  -27.0349   22.8505 C   0  0  0  0  0  0  0  0  0  0  0  0
  -24.6486  -30.0056   23.2795 C   0  0  0  0  0  0  0  0  0  0  0  0
  -27.3290  -31.9351   24.1393 C   0  0  0  0  0  0  0  0  0  0  0  0
  -30.7272  -14.7807   20.6407 C   0  0  0  0  0  0  0  0  0  0  0  0
  -18.5264  -26.8087   21.4104 C   0  0  0  0  0  0  0  0  0  0  0  0
  -24.3903  -26.8472   25.1692 C   0  0  0  0  0  0  0  0  0  0  0  0
  -26.2933  -28.0924   23.2790 C   0  0  0  0  0  0  0  0  0  0  0  0
  -19.6924  -27.7640   21.1693 C   0  0  0  0  0  0  0  0  0  0  0  0
  -29.5668  -12.4358   18.2256 C   0  0  0  0  0  0  0  0  0  0  0  0
  -20.9376  -26.9907   20.7469 C   0  0  0  0  0  0  0  0  0  0  0  0
  -28.1348  -12.1335   18.6728 C   0  0  0  0  0  0  0  0  0  0  0  0
  -30.5038  -12.6297   19.4165 C   0  0  0  0  0  0  0  0  0  0  0  0
  -30.0762  -22.1273   22.5240 C   0  0  0  0  0  0  0  0  0  0  0  0
  -28.6232  -13.3165   20.8520 C   0  0  0  0  0  0  0  0  0  0  0  0
  -21.3821  -26.0179   21.8458 C   0  0  1  0  0  0  0  0  0  0  0  0
  -31.4480  -23.4858   21.1258 C   0  0  1  0  0  0  0  0  0  0  0  0
  -23.9223  -27.7784   24.0551 C   0  0  1  0  0  0  0  0  0  0  0  0
  -30.8606  -23.4322   22.5368 C   0  0  1  0  0  0  0  0  0  0  0  0
  -27.6290  -13.1775   19.6876 C   0  0  2  0  0  0  0  0  0  0  0  0
  -28.6080  -17.2467   23.4253 C   0  0  0  0  0  0  0  0  0  0  0  0
  -32.7148  -24.3187   21.0283 C   0  0  0  0  0  0  0  0  0  0  0  0
  -28.0422  -34.3312   24.3581 C   0  0  0  0  0  0  0  0  0  0  0  0
  -24.8862  -30.2095   20.2444 C   0  0  0  0  0  0  0  0  0  0  0  0
  -26.4360  -32.1493   20.5658 C   0  0  0  0  0  0  0  0  0  0  0  0
  -24.0789  -32.2918   21.3698 C   0  0  0  0  0  0  0  0  0  0  0  0
  -27.8681  -31.6315   27.0335 C   0  0  0  0  0  0  0  0  0  0  0  0
  -29.9921  -24.6322   22.8809 C   0  0  0  0  0  0  0  0  0  1  0  0
  -25.7242  -30.8247   22.6077 C   0  0  1  0  0  0  0  0  0  0  0  0
  -27.4555  -33.1246   25.0741 C   0  0  2  0  0  0  0  0  0  0  0  0
  -25.2871  -31.3436   21.2088 C   0  0  0  0  0  0  0  0  0  0  0  0
  -25.8507  -11.5714   20.2704 N   0  0  0  0  0  0  0  0  0  0  0  0
  -26.2270  -12.8578   20.1716 N   0  0  0  0  0  0  0  0  0  0  0  0
  -30.8300  -21.2671   21.6306 N   0  0  0  0  0  0  0  0  0  0  0  0
  -24.9792  -28.6789   23.5898 N   0  0  0  0  0  0  0  0  0  0  0  0
  -29.9623  -13.6358   20.3327 N   0  0  0  0  0  0  0  0  0  0  0  0
  -25.4682  -15.0780   20.4964 N   0  0  0  0  0  0  0  0  0  0  0  0
  -21.9020  -12.5741   21.6832 N   0  0  0  0  0  0  0  0  0  0  0  0
  -30.0961  -15.6827   21.4965 N   0  0  0  0  0  0  0  0  0  0  0  0
  -22.0720  -26.7285   22.9010 N   0  0  0  0  0  0  0  0  0  0  0  0
  -26.0835  -31.8785   23.5505 N   0  0  0  0  0  0  0  0  0  0  0  0
  -28.3384  -32.7865   26.2260 N   0  3  0  0  0  0  0  0  0  0  0  0
  -32.4574  -21.6431   19.9292 O   0  0  0  0  0  0  0  0  0  0  0  0
  -22.6755  -14.7203   21.4499 O   0  0  0  0  0  0  0  0  0  0  0  0
  -24.1936  -26.7609   21.9417 O   0  0  0  0  0  0  0  0  0  0  0  0
  -23.5578  -30.5261   23.5265 O   0  0  0  0  0  0  0  0  0  0  0  0
  -28.2449  -31.1383   23.9476 O   0  0  0  0  0  0  0  0  0  0  0  0
  -31.8479  -14.9616   20.1576 O   0  0  0  0  0  0  0  0  0  0  0  0
  -21.6230   -7.0104   21.6388 O   0  0  0  0  0  0  0  0  0  0  0  0
  -29.4187  -24.4358   24.1728 O   0  0  0  0  0  0  0  0  0  1  0  0
  -18.7161   -6.7234   26.3155 F   0  0  0  0  0  0  0  0  0  0  0  0
  -22.1053   -5.0130   23.4882 F   0  0  0  0  0  0  0  0  0  0  0  0
  1  2  1  0  0  0  0
  1  5  2  0  0  0  0
  2  6  2  0  0  0  0
  3 10  2  0  0  0  0
  3 18  1  0  0  0  0
  4 11  1  0  0  0  0
  4 18  2  0  0  0  0
  5 20  1  0  0  0  0
  6 22  1  0  0  0  0
  7 12  2  0  0  0  0
  7 21  1  0  0  0  0
  8  9  2  0  0  0  0
  8 25  1  0  0  0  0
  9 26  1  0  0  0  0
 10 27  1  0  0  0  0
 11 27  2  0  0  0  0
 12 28  1  0  0  0  0
 13 14  2  0  0  0  0
 13 29  1  0  0  0  0
 14 30  1  0  0  0  0
 15 23  1  0  0  0  0
 15 28  2  0  0  0  0
 16 24  1  0  0  0  0
 16 25  2  0  0  0  0
 17 30  2  0  0  0  0
 17 31  1  0  0  0  0
 18 32  1  0  0  0  0
 19 32  1  0  0  0  0
 19 33  2  0  0  0  0
 19 35  1  0  0  0  0
 20 22  2  0  0  0  0
 20 40  1  0  0  0  0
 21 23  2  0  0  0  0
 21 41  1  0  0  0  0
 22 50  1  0  0  0  0
 23 42  1  0  0  0  0
 24 26  2  0  0  0  0
 24 55  1  0  0  0  0
 25 68  1  0  0  0  0
 26 73  1  0  0  0  0
 27 83  1  0  0  0  0
 28 84  1  0  0  0  0
 29 31  2  0  0  0  0
 29 83  1  0  0  0  0
 30 85  1  0  0  0  0
 31 86  1  0  0  0  0
 32 66  2  0  0  0  0
 33 67  1  0  0  0  0
 33 71  1  0  0  0  0
 34 51  1  0  0  0  0
 34 68  1  0  0  0  0
 34 77  2  0  0  0  0
 35 72  1  0  0  0  0
 35 78  2  0  0  0  0
 36 52  1  0  0  0  0
 36 74  1  0  0  0  0
 36 79  2  0  0  0  0
 37 63  1  0  0  0  0
 37 69  1  0  0  0  0
 37 80  2  0  0  0  0
 38 64  1  0  0  0  0
 38 75  1  0  0  0  0
 38 81  2  0  0  0  0
 39 70  1  0  0  0  0
 39 73  1  0  0  0  0
 39 82  2  0  0  0  0
 40 43  1  0  0  0  0
 41 52  1  0  0  0  0
 42 69  1  0  0  0  0
 43 45  1  0  0  0  0
 44 46  1  0  0  0  0
 44 47  1  0  0  0  0
 45 50  1  0  0  0  0
 46 54  1  0  0  0  0
 47 70  1  0  0  0  0
 48 53  1  0  0  0  0
 48 68  1  0  0  0  0
 49 54  1  0  0  0  0
 49 70  1  0  0  0  0
 50 74  1  0  0  0  0
 51 53  1  0  0  0  0
 51 56  1  0  0  0  0
 52 69  1  0  0  0  0
 53 62  1  0  0  0  0
 54 67  1  0  0  0  0
 57 64  1  0  0  0  0
 58 65  1  0  0  0  0
 59 65  1  0  0  0  0
 60 65  1  0  0  0  0
 61 76  1  0  0  0  0
 62 84  1  0  0  0  0
 63 65  1  0  0  0  0
 63 75  1  0  0  0  0
 64 76  1  0  0  0  0
 66 67  1  0  0  0  0
M  CHG  1  76   1
M  ISO  4  39 100  62 101  73 100  84 101
M  END
> <Batch ID>
0065

> <Smiles>
CNC(C)C(=O)NC(C(=O)N1Cc2cc([101O:1][101CH2:1]C3CN(c4ccc([100NH:0][100C:0](=O)N5CCCC(n6nc(-c7ccc(Oc8ccc(F)cc8F)cc7)c(C(N)=O)c6N)C5)c(C)c4)C(=O)C3C)ccc2CC1C(=O)NC1CCCc2ccccc21)C(C)(C)C

> <Shape>
0.311

> <Color>
0.196

> <Negative vol penalty>
0.000

$$$$

  -OEChem-04042323183D

 89 98  0     1  0  0  0  0  0999 V2000
  -27.2832  -37.9025   24.8325 C   0  0  0  0  0  0  0  0  0  0  0  0
  -27.4885  -36.5565   25.1180 C   0  0  0  0  0  0  0  0  0  0  0  0
  -24.8912   -7.3514   21.3780 C   0  0  0  0  0  0  0  0  0  0  0  0
  -23.7075   -9.4250   21.7470 C   0  0  0  0  0  0  0  0  0  0  0  0
  -26.0513  -38.3290   24.3380 C   0  0  0  0  0  0  0  0  0  0  0  0
  -26.4616  -35.6363   24.9101 C   0  0  0  0  0  0  0  0  0  0  0  0
  -27.3442  -30.0360   20.4661 C   0  0  0  0  0  0  0  0  0  0  0  0
  -27.5473  -19.8712   19.8098 C   0  0  0  0  0  0  0  0  0  0  0  0
  -27.8150  -18.5031   19.8553 C   0  0  0  0  0  0  0  0  0  0  0  0
  -23.6899   -6.6488   21.4725 C   0  0  0  0  0  0  0  0  0  0  0  0
  -22.5062   -8.7224   21.8414 C   0  0  0  0  0  0  0  0  0  0  0  0
  -27.5070  -28.8234   19.7957 C   0  0  0  0  0  0  0  0  0  0  0  0
  -21.6290   -5.5573   23.9190 C   0  0  0  0  0  0  0  0  0  0  0  0
  -21.6172   -4.3961   24.6916 C   0  0  0  0  0  0  0  0  0  0  0  0
  -25.1997  -28.2541   20.2429 C   0  0  0  0  0  0  0  0  0  0  0  0
  -29.0340  -20.0993   17.9191 C   0  0  0  0  0  0  0  0  0  0  0  0
  -20.9720   -3.1109   22.7501 C   0  0  0  0  0  0  0  0  0  0  0  0
  -24.9000   -8.7395   21.5154 C   0  0  0  0  0  0  0  0  0  0  0  0
  -27.2786   -9.3172   22.2339 C   0  0  0  0  0  0  0  0  0  0  0  0
  -25.0120  -37.4121   24.1148 C   0  0  0  0  0  0  0  0  0  0  0  0
  -26.1027  -30.3693   21.0148 C   0  0  0  0  0  0  0  0  0  0  0  0
  -25.2143  -36.0511   24.4133 C   0  0  0  0  0  0  0  0  0  0  0  0
  -25.0272  -29.4727   20.9047 C   0  0  0  0  0  0  0  0  0  0  0  0
  -29.3017  -18.7311   17.9646 C   0  0  0  0  0  0  0  0  0  0  0  0
  -28.1568  -20.6694   18.8416 C   0  0  0  0  0  0  0  0  0  0  0  0
  -28.6922  -17.9330   18.9327 C   0  0  0  0  0  0  0  0  0  0  0  0
  -22.4974   -7.3343   21.7041 C   0  0  0  0  0  0  0  0  0  0  0  0
  -26.4375  -27.9346   19.6846 C   0  0  0  0  0  0  0  0  0  0  0  0
  -21.3121   -5.4954   22.5619 C   0  0  0  0  0  0  0  0  0  0  0  0
  -21.2887   -3.1729   24.1071 C   0  0  0  0  0  0  0  0  0  0  0  0
  -20.9837   -4.2722   21.9775 C   0  0  0  0  0  0  0  0  0  0  0  0
  -26.1407   -9.4657   21.4185 C   0  0  0  0  0  0  0  0  0  0  0  0
  -28.1784  -10.2281   21.7369 C   0  0  0  0  0  0  0  0  0  0  0  0
  -28.8363  -23.0021   18.3286 C   0  0  0  0  0  0  0  0  0  0  0  0
  -26.0198  -23.6115   18.4992 C   0  0  0  0  0  0  0  0  0  0  0  0
  -27.5022   -8.4346   23.3415 C   0  0  0  0  0  0  0  0  0  0  0  0
  -24.0544  -32.8889   22.8942 C   0  0  0  0  0  0  0  0  0  0  0  0
  -22.2588  -31.7527   20.6817 C   0  0  0  0  0  0  0  0  0  0  0  0
  -19.3882  -30.9347   19.0302 C   0  0  0  0  0  0  0  0  0  0  0  0
  -26.3199  -26.8108   17.6518 C   0  0  0  0  0  0  0  0  0  1  0  0
  -28.4214  -15.6128   19.8958 C   0  0  0  0  0  0  0  0  0  0  0  0
  -23.6824  -37.9274   23.6236 C   0  0  0  0  0  0  0  0  0  0  0  0
  -25.8983  -31.6372   21.7987 C   0  0  0  0  0  0  0  0  0  0  0  0
  -23.7194  -29.8581   21.5404 C   0  0  0  0  0  0  0  0  0  0  0  0
  -28.3276  -24.4274   18.2932 C   0  0  0  0  0  0  0  0  0  0  0  0
  -26.6649  -22.6020   19.4272 C   0  0  0  0  0  0  0  0  0  0  0  0
  -22.7690  -36.8330   23.0776 C   0  0  0  0  0  0  0  0  0  0  0  0
  -30.4126  -12.5050   18.8464 C   0  0  0  0  0  0  0  0  0  0  0  0
  -22.7389  -35.6397   24.0274 C   0  0  0  0  0  0  0  0  0  0  0  0
  -29.3227  -11.4453   18.9899 C   0  0  0  0  0  0  0  0  0  0  0  0
  -29.8374  -13.9012   18.6444 C   0  0  0  0  0  0  0  0  0  0  0  0
  -28.4113  -13.2226   20.5839 C   0  0  0  0  0  0  0  0  0  0  0  0
  -24.1330  -35.0189   24.1777 C   0  0  1  0  0  0  0  0  0  0  0  0
  -24.4945  -32.2410   21.6144 C   0  0  1  0  0  0  0  0  0  0  0  0
  -28.1071  -11.9357   19.8011 C   0  0  2  0  0  0  0  0  0  0  0  0
  -30.2439  -18.1467   16.9628 C   0  0  0  0  0  0  0  0  0  0  0  0
  -16.9473  -31.5070   18.9207 C   0  0  0  0  0  0  0  0  0  0  0  0
  -21.7795  -30.1837   23.2531 C   0  0  0  0  0  0  0  0  0  0  0  0
  -19.3739  -29.9728   22.5922 C   0  0  0  0  0  0  0  0  0  0  0  0
  -20.3610  -32.2275   22.9979 C   0  0  0  0  0  0  0  0  0  0  0  0
  -19.5986  -31.7997   16.2077 C   0  0  0  0  0  0  0  0  0  0  0  0
  -26.5138  -25.4834   16.9542 C   0  0  0  0  0  0  0  0  0  0  0  0
  -21.0036  -30.9501   20.9129 C   0  0  1  0  0  0  0  0  0  0  0  0
  -18.3314  -31.7943   18.3601 C   0  0  2  0  0  0  0  0  0  0  0  0
  -20.6501  -30.8242   22.4218 C   0  0  0  0  0  0  0  0  0  0  0  0
  -26.3004  -10.3978   20.4752 N   0  0  0  0  0  0  0  0  0  0  0  0
  -27.5492  -10.8432   20.6949 N   0  0  0  0  0  0  0  0  0  0  0  0
  -27.8784  -22.0798   18.7931 N   0  0  0  0  0  0  0  0  0  0  0  0
  -26.9456  -24.4214   17.8470 N   0  0  0  0  0  0  0  0  0  0  0  0
  -23.4326  -31.2772   21.2788 N   0  0  0  0  0  0  0  0  0  0  0  0
  -28.8808  -14.2886   19.6913 N   0  0  0  0  0  0  0  0  0  0  0  0
  -29.4386  -10.5550   22.0941 N   0  0  0  0  0  0  0  0  0  0  0  0
  -27.1662   -8.8782   24.6278 N   0  0  0  0  0  0  0  0  0  0  0  0
  -28.9499  -16.5407   18.9945 N   0  0  0  0  0  0  0  0  0  0  0  0
  -24.4514  -34.2061   23.0235 N   0  0  0  0  0  0  0  0  0  0  0  0
  -19.9631  -31.5780   20.1058 N   0  0  0  0  0  0  0  0  0  0  0  0
  -18.3072  -31.5353   16.8927 N   0  3  0  0  0  0  0  0  0  0  0  0
  -30.0232  -22.7693   18.1007 O   0  0  0  0  0  0  0  0  0  0  0  0
  -24.7981  -23.7392   18.4424 O   0  0  0  0  0  0  0  0  0  0  0  0
  -28.0010   -7.2927   23.1967 O   0  0  0  0  0  0  0  0  0  0  0  0
  -23.4013  -32.2427   23.7051 O   0  0  0  0  0  0  0  0  0  0  0  0
  -22.2019  -32.7769   19.9954 O   0  0  0  0  0  0  0  0  0  0  0  0
  -19.6724  -29.8042   18.6408 O   0  0  0  0  0  0  0  0  0  0  0  0
  -25.9505  -27.8171   17.0550 O   0  0  0  0  0  0  0  0  0  0  0  0
  -27.6173  -15.8889   20.7886 O   0  0  0  0  0  0  0  0  0  0  0  0
  -21.3250   -6.6491   21.7961 O   0  0  0  0  0  0  0  0  0  0  0  0
  -26.6021  -26.7546   19.0249 O   0  0  0  0  0  0  0  0  0  1  0  0
  -21.2790   -2.0575   24.8489 F   0  0  0  0  0  0  0  0  0  0  0  0
  -20.6795   -4.2063   20.6741 F   0  0  0  0  0  0  0  0  0  0  0  0
  1  2  1  0  0  0  0
  1  5  2  0  0  0  0
  2  6  2  0  0  0  0
  3 10  2  0  0  0  0
  3 18  1  0  0  0  0
  4 11  1  0  0  0  0
  4 18  2  0  0  0  0
  5 20  1  0  0  0  0
  6 22  1  0  0  0  0
  7 12  2  0  0  0  0
  7 21  1  0  0  0  0
  8  9  2  0  0  0  0
  8 25  1  0  0  0  0
  9 26  1  0  0  0  0
 10 27  1  0  0  0  0
 11 27  2  0  0  0  0
 12 28  1  0  0  0  0
 13 14  2  0  0  0  0
 13 29  1  0  0  0  0
 14 30  1  0  0  0  0
 15 23  1  0  0  0  0
 15 28  2  0  0  0  0
 16 24  1  0  0  0  0
 16 25  2  0  0  0  0
 17 30  2  0  0  0  0
 17 31  1  0  0  0  0
 18 32  1  0  0  0  0
 19 32  1  0  0  0  0
 19 33  2  0  0  0  0
 19 36  1  0  0  0  0
 20 22  2  0  0  0  0
 20 42  1  0  0  0  0
 21 23  2  0  0  0  0
 21 43  1  0  0  0  0
 22 53  1  0  0  0  0
 23 44  1  0  0  0  0
 24 26  2  0  0  0  0
 24 56  1  0  0  0  0
 25 68  1  0  0  0  0
 26 74  1  0  0  0  0
 27 86  1  0  0  0  0
 28 87  1  0  0  0  0
 29 31  2  0  0  0  0
 29 86  1  0  0  0  0
 30 88  1  0  0  0  0
 31 89  1  0  0  0  0
 32 66  2  0  0  0  0
 33 67  1  0  0  0  0
 33 72  1  0  0  0  0
 34 45  1  0  0  0  0
 34 68  1  0  0  0  0
 34 78  2  0  0  0  0
 35 46  1  0  0  0  0
 35 69  1  0  0  0  0
 35 79  2  0  0  0  0
 36 73  1  0  0  0  0
 36 80  2  0  0  0  0
 37 54  1  0  0  0  0
 37 75  1  0  0  0  0
 37 81  2  0  0  0  0
 38 63  1  0  0  0  0
 38 70  1  0  0  0  0
 38 82  2  0  0  0  0
 39 64  1  0  0  0  0
 39 76  1  0  0  0  0
 39 83  2  0  0  0  0
 40 62  1  0  0  0  0
 40 84  2  0  0  0  0
 40 87  1  0  0  0  0
 41 71  1  0  0  0  0
 41 74  1  0  0  0  0
 41 85  2  0  0  0  0
 42 47  1  0  0  0  0
 43 54  1  0  0  0  0
 44 70  1  0  0  0  0
 45 69  1  0  0  0  0
 46 68  1  0  0  0  0
 47 49  1  0  0  0  0
 48 50  1  0  0  0  0
 48 51  1  0  0  0  0
 49 53  1  0  0  0  0
 50 55  1  0  0  0  0
 51 71  1  0  0  0  0
 52 55  1  0  0  0  0
 52 71  1  0  0  0  0
 53 75  1  0  0  0  0
 54 70  1  0  0  0  0
 55 67  1  0  0  0  0
 57 64  1  0  0  0  0
 58 65  1  0  0  0  0
 59 65  1  0  0  0  0
 60 65  1  0  0  0  0
 61 77  1  0  0  0  0
 62 69  1  0  0  0  0
 63 65  1  0  0  0  0
 63 76  1  0  0  0  0
 64 77  1  0  0  0  0
 66 67  1  0  0  0  0
M  CHG  1  77   1
M  ISO  4  40 101  41 100  74 100  87 101
M  END
> <Batch ID>
0065

> <Smiles>
CNC(C)C(=O)NC(C(=O)N1Cc2cc([101O:1][101C:1](=O)CN3CC(=O)N(c4ccc([100NH:0][100C:0](=O)N5CCCC(n6nc(-c7ccc(Oc8ccc(F)cc8F)cc7)c(C(N)=O)c6N)C5)c(C)c4)CC3=O)ccc2CC1C(=O)NC1CCCc2ccccc21)C(C)(C)C

> <Shape>
0.296

> <Color>
0.087

> <Negative vol penalty>
0.000

$$$$

  -OEChem-04042323183D

 83 91  0     1  0  0  0  0  0999 V2000
  -32.8788  -24.7844   19.7014 C   0  0  0  0  0  0  0  0  0  0  0  0
  -31.8641  -24.8167   20.6526 C   0  0  0  0  0  0  0  0  0  0  0  0
  -19.2762  -20.3255   17.3019 C   0  0  0  0  0  0  0  0  0  0  0  0
  -25.0663  -30.5102   20.2812 C   0  0  0  0  0  0  0  0  0  0  0  0
  -24.2016  -28.8842   21.8450 C   0  0  0  0  0  0  0  0  0  0  0  0
  -19.2679  -19.9350   18.6410 C   0  0  0  0  0  0  0  0  0  0  0  0
  -32.7081  -24.0537   18.5263 C   0  0  0  0  0  0  0  0  0  0  0  0
  -30.6777  -24.1191   20.4288 C   0  0  0  0  0  0  0  0  0  0  0  0
  -25.5577  -20.5418   23.9368 C   0  0  0  0  0  0  0  0  0  0  0  0
  -19.9439  -21.4887   16.9187 C   0  0  0  0  0  0  0  0  0  0  0  0
  -24.7260  -31.5375   21.1613 C   0  0  0  0  0  0  0  0  0  0  0  0
  -23.8614  -29.9115   22.7251 C   0  0  0  0  0  0  0  0  0  0  0  0
  -24.1705  -20.5014   24.0704 C   0  0  0  0  0  0  0  0  0  0  0  0
  -25.9791  -32.9183   23.9820 C   0  0  0  0  0  0  0  0  0  0  0  0
  -26.9215  -33.9230   24.2009 C   0  0  0  0  0  0  0  0  0  0  0  0
  -24.0186  -19.2084   22.0395 C   0  0  0  0  0  0  0  0  0  0  0  0
  -25.3589  -35.5691   23.3727 C   0  0  0  0  0  0  0  0  0  0  0  0
  -24.8040  -29.1835   20.6231 C   0  0  0  0  0  0  0  0  0  0  0  0
  -19.9272  -20.7078   19.5969 C   0  0  0  0  0  0  0  0  0  0  0  0
  -26.3732  -27.4192   19.6575 C   0  0  0  0  0  0  0  0  0  0  0  0
  -31.5228  -23.3389   18.2923 C   0  0  0  0  0  0  0  0  0  0  0  0
  -26.1860  -19.9241   22.8458 C   0  0  0  0  0  0  0  0  0  0  0  0
  -30.4905  -23.3792   19.2488 C   0  0  0  0  0  0  0  0  0  0  0  0
  -25.4141  -19.2403   21.8957 C   0  0  0  0  0  0  0  0  0  0  0  0
  -20.6032  -22.2615   17.8746 C   0  0  0  0  0  0  0  0  0  0  0  0
  -24.1237  -31.2382   22.3832 C   0  0  0  0  0  0  0  0  0  0  0  0
  -23.4005  -19.8372   23.1202 C   0  0  0  0  0  0  0  0  0  0  0  0
  -24.7266  -33.2389   23.4583 C   0  0  0  0  0  0  0  0  0  0  0  0
  -26.6115  -35.2484   23.8962 C   0  0  0  0  0  0  0  0  0  0  0  0
  -24.4165  -34.5643   23.1537 C   0  0  0  0  0  0  0  0  0  0  0  0
  -20.5949  -21.8711   19.2137 C   0  0  0  0  0  0  0  0  0  0  0  0
  -25.1547  -28.1219   19.7142 C   0  0  0  0  0  0  0  0  0  0  0  0
  -26.2043  -26.5213   18.6319 C   0  0  0  0  0  0  0  0  0  0  0  0
  -19.9156  -20.2875   21.0218 C   0  0  0  0  0  0  0  0  0  0  0  0
  -27.5522  -27.5649   20.4602 C   0  0  0  0  0  0  0  0  0  0  0  0
  -27.9839  -20.9332   20.4265 C   0  0  0  0  0  0  0  0  0  0  0  0
  -28.2662  -17.7586   19.8224 C   0  0  0  0  0  0  0  0  0  0  0  0
  -26.9714  -14.6190   20.1589 C   0  0  0  0  0  0  0  0  0  0  0  0
  -21.3833  -23.9681   16.1938 C   0  0  0  0  0  0  0  0  0  0  0  0
  -31.3655  -22.6018   16.9859 C   0  0  0  0  0  0  0  0  0  0  0  0
  -27.6854  -19.9539   22.7304 C   0  0  0  0  0  0  0  0  0  0  0  0
  -26.0416  -18.5437   20.7170 C   0  0  0  0  0  0  0  0  0  0  0  0
  -30.2268  -21.5852   16.9934 C   0  0  0  0  0  0  0  0  0  0  0  0
  -23.8260  -25.9418   14.5158 C   0  0  0  0  0  0  0  0  0  0  0  0
  -28.9670  -22.1991   17.5958 C   0  0  0  0  0  0  0  0  0  0  0  0
  -24.5588  -26.6562   15.6537 C   0  0  0  0  0  0  0  0  0  0  0  0
  -22.3330  -25.7972   14.8054 C   0  0  0  0  0  0  0  0  0  0  0  0
  -22.7409  -25.8897   17.2332 C   0  0  0  0  0  0  0  0  0  0  0  0
  -29.1988  -22.6152   19.0534 C   0  0  1  0  0  0  0  0  0  0  0  0
  -28.1795  -19.7297   21.3046 C   0  0  1  0  0  0  0  0  0  0  0  0
  -24.2589  -26.0011   17.0162 C   0  0  2  0  0  0  0  0  0  0  0  0
  -27.4072  -12.2302   19.5257 C   0  0  0  0  0  0  0  0  0  0  0  0
  -27.3279  -18.3438   16.9785 C   0  0  0  0  0  0  0  0  0  0  0  0
  -26.8748  -15.8974   16.6991 C   0  0  0  0  0  0  0  0  0  0  0  0
  -29.1980  -16.6912   17.1408 C   0  0  0  0  0  0  0  0  0  0  0  0
  -27.1555  -13.7804   22.9912 C   0  0  0  0  0  0  0  0  0  0  0  0
  -20.0055  -21.0613   23.3774 C   0  0  0  0  0  0  0  0  0  0  0  0
  -21.4221  -20.9021   23.8999 C   0  0  0  0  0  0  0  0  0  1  0  0
  -27.4917  -16.7528   19.0054 C   0  0  1  0  0  0  0  0  0  0  0  0
  -27.6077  -13.3069   20.5808 C   0  0  2  0  0  0  0  0  0  0  0  0
  -27.7108  -16.9360   17.4770 C   0  0  0  0  0  0  0  0  0  0  0  0
  -24.2767  -27.7064   18.7974 N   0  0  0  0  0  0  0  0  0  0  0  0
  -24.9442  -26.7329   18.1549 N   0  0  0  0  0  0  0  0  0  0  0  0
  -27.5107  -18.6065   20.6447 N   0  0  0  0  0  0  0  0  0  0  0  0
  -22.1257  -25.1651   16.1101 N   0  0  0  0  0  0  0  0  0  0  0  0
  -27.0124  -25.5795   18.1004 N   0  0  0  0  0  0  0  0  0  0  0  0
  -27.5566  -28.5358   21.4710 N   0  0  0  0  0  0  0  0  0  0  0  0
  -21.2802  -23.4425   17.4813 N   0  0  0  0  0  0  0  0  0  0  0  0
  -19.9828  -21.3096   21.9603 N   0  0  0  0  0  0  0  0  0  0  0  0
  -29.1582  -21.4583   19.9219 N   0  0  0  0  0  0  0  0  0  0  0  0
  -27.8714  -15.4377   19.5101 N   0  0  0  0  0  0  0  0  0  0  0  0
  -27.0101  -12.8290   21.8596 N   0  3  0  0  0  0  0  0  0  0  0  0
  -19.8695  -19.0907   21.2939 O   0  0  0  0  0  0  0  0  0  0  0  0
  -28.5776  -26.8663   20.2755 O   0  0  0  0  0  0  0  0  0  0  0  0
  -26.8512  -21.3533   20.2208 O   0  0  0  0  0  0  0  0  0  0  0  0
  -29.4966  -17.7861   19.7395 O   0  0  0  0  0  0  0  0  0  0  0  0
  -25.7928  -14.8890   20.3793 O   0  0  0  0  0  0  0  0  0  0  0  0
  -20.8995  -23.4333   15.1929 O   0  0  0  0  0  0  0  0  0  0  0  0
  -23.7918  -32.2403   23.2423 O   0  0  0  0  0  0  0  0  0  0  0  0
  -22.0463  -19.7968   23.2479 O   0  0  0  0  0  0  0  0  0  1  0  0
  -27.5160  -36.2133   24.1080 F   0  0  0  0  0  0  0  0  0  0  0  0
  -23.2145  -34.8786   22.6516 F   0  0  0  0  0  0  0  0  0  0  0  0
  -21.2279  -22.6153   20.1334 F   0  0  0  0  0  0  0  0  0  0  0  0
  1  2  1  0  0  0  0
  1  7  2  0  0  0  0
  2  8  2  0  0  0  0
  3  6  2  0  0  0  0
  3 10  1  0  0  0  0
  4 11  2  0  0  0  0
  4 18  1  0  0  0  0
  5 12  1  0  0  0  0
  5 18  2  0  0  0  0
  6 19  1  0  0  0  0
  7 21  1  0  0  0  0
  8 23  1  0  0  0  0
  9 13  2  0  0  0  0
  9 22  1  0  0  0  0
 10 25  2  0  0  0  0
 11 26  1  0  0  0  0
 12 26  2  0  0  0  0
 13 27  1  0  0  0  0
 14 15  2  0  0  0  0
 14 28  1  0  0  0  0
 15 29  1  0  0  0  0
 16 24  1  0  0  0  0
 16 27  2  0  0  0  0
 17 29  2  0  0  0  0
 17 30  1  0  0  0  0
 18 32  1  0  0  0  0
 19 31  2  0  0  0  0
 19 34  1  0  0  0  0
 20 32  1  0  0  0  0
 20 33  2  0  0  0  0
 20 35  1  0  0  0  0
 21 23  2  0  0  0  0
 21 40  1  0  0  0  0
 22 24  2  0  0  0  0
 22 41  1  0  0  0  0
 23 49  1  0  0  0  0
 24 42  1  0  0  0  0
 25 31  1  0  0  0  0
 25 68  1  0  0  0  0
 26 79  1  0  0  0  0
 27 80  1  0  0  0  0
 28 30  2  0  0  0  0
 28 79  1  0  0  0  0
 29 81  1  0  0  0  0
 30 82  1  0  0  0  0
 31 83  1  0  0  0  0
 32 62  2  0  0  0  0
 33 63  1  0  0  0  0
 33 66  1  0  0  0  0
 34 69  1  0  0  0  0
 34 73  2  0  0  0  0
 35 67  1  0  0  0  0
 35 74  2  0  0  0  0
 36 50  1  0  0  0  0
 36 70  1  0  0  0  0
 36 75  2  0  0  0  0
 37 59  1  0  0  0  0
 37 64  1  0  0  0  0
 37 76  2  0  0  0  0
 38 60  1  0  0  0  0
 38 71  1  0  0  0  0
 38 77  2  0  0  0  0
 39 65  1  0  0  0  0
 39 68  1  0  0  0  0
 39 78  2  0  0  0  0
 40 43  1  0  0  0  0
 41 50  1  0  0  0  0
 42 64  1  0  0  0  0
 43 45  1  0  0  0  0
 44 46  1  0  0  0  0
 44 47  1  0  0  0  0
 45 49  1  0  0  0  0
 46 51  1  0  0  0  0
 47 65  1  0  0  0  0
 48 51  1  0  0  0  0
 48 65  1  0  0  0  0
 49 70  1  0  0  0  0
 50 64  1  0  0  0  0
 51 63  1  0  0  0  0
 52 60  1  0  0  0  0
 53 61  1  0  0  0  0
 54 61  1  0  0  0  0
 55 61  1  0  0  0  0
 56 72  1  0  0  0  0
 57 58  1  0  0  0  0
 57 69  1  0  0  0  0
 58 80  1  0  0  0  0
 59 61  1  0  0  0  0
 59 71  1  0  0  0  0
 60 72  1  0  0  0  0
 62 63  1  0  0  0  0
M  CHG  1  72   1
M  ISO  4  39 100  58 101  68 100  80 101
M  END
> <Batch ID>
0065

> <Smiles>
CNC(C)C(=O)NC(C(=O)N1Cc2cc([101O:1][101CH2:1]CNC(=O)c3cccc([100NH:0][100C:0](=O)N4CCCC(n5nc(-c6ccc(Oc7ccc(F)cc7F)cc6)c(C(N)=O)c5N)C4)c3F)ccc2CC1C(=O)NC1CCCc2ccccc21)C(C)(C)C

> <Shape>
0.207

> <Color>
0.069

> <Negative vol penalty>
0.000

$$$$

  -OEChem-04042323183D

 85 94  0     1  0  0  0  0  0999 V2000
  -28.0452  -23.7433   17.0810 C   0  0  0  0  0  0  0  0  0  0  0  0
  -26.9139  -23.9305   17.8686 C   0  0  0  0  0  0  0  0  0  0  0  0
  -27.6621  -12.8989   19.4765 C   0  0  0  0  0  0  0  0  0  0  0  0
  -27.9287  -13.8620   21.6762 C   0  0  0  0  0  0  0  0  0  0  0  0
  -29.2420  -24.3725   17.4211 C   0  0  0  0  0  0  0  0  0  0  0  0
  -26.9790  -24.7463   18.9976 C   0  0  0  0  0  0  0  0  0  0  0  0
  -23.0172  -27.8794   19.3616 C   0  0  0  0  0  0  0  0  0  0  0  0
  -28.9310  -12.3276   19.5729 C   0  0  0  0  0  0  0  0  0  0  0  0
  -29.1975  -13.2907   21.7726 C   0  0  0  0  0  0  0  0  0  0  0  0
  -21.8197  -27.3400   19.8293 C   0  0  0  0  0  0  0  0  0  0  0  0
  -30.3486   -9.6462   21.0673 C   0  0  0  0  0  0  0  0  0  0  0  0
  -30.4918   -8.3153   20.6751 C   0  0  0  0  0  0  0  0  0  0  0  0
  -22.2705  -28.2515   22.0168 C   0  0  0  0  0  0  0  0  0  0  0  0
  -18.8694  -20.9313   24.5237 C   0  0  0  0  0  0  0  0  0  0  0  0
  -19.8468  -18.9930   23.4633 C   0  0  0  0  0  0  0  0  0  0  0  0
  -20.2807  -21.1999   22.5813 C   0  0  0  0  0  0  0  0  0  0  0  0
  -32.0969   -8.9825   18.9971 C   0  0  0  0  0  0  0  0  0  0  0  0
  -27.1610  -13.6661   20.5282 C   0  0  0  0  0  0  0  0  0  0  0  0
  -24.6277  -13.6848   20.8279 C   0  0  0  0  0  0  0  0  0  0  0  0
  -29.3193  -25.2041   18.5494 C   0  0  0  0  0  0  0  0  0  0  0  0
  -23.8570  -28.6009   20.2222 C   0  0  0  0  0  0  0  0  0  0  0  0
  -28.1783  -25.3862   19.3540 C   0  0  0  0  0  0  0  0  0  0  0  0
  -23.4769  -28.8012   21.5569 C   0  0  0  0  0  0  0  0  0  0  0  0
  -19.0506  -19.5495   24.4643 C   0  0  0  0  0  0  0  0  0  0  0  0
  -19.4845  -21.7565   23.5822 C   0  0  0  0  0  0  0  0  0  0  0  0
  -20.4619  -19.8182   22.5218 C   0  0  0  0  0  0  0  0  0  0  0  0
  -29.6987  -12.5235   20.7209 C   0  0  0  0  0  0  0  0  0  0  0  0
  -21.4476  -27.5235   21.1578 C   0  0  0  0  0  0  0  0  0  0  0  0
  -31.0795  -10.6453   20.4243 C   0  0  0  0  0  0  0  0  0  0  0  0
  -31.3660   -7.9835   19.6400 C   0  0  0  0  0  0  0  0  0  0  0  0
  -31.9536  -10.3134   19.3892 C   0  0  0  0  0  0  0  0  0  0  0  0
  -25.8506  -14.2569   20.4290 C   0  0  0  0  0  0  0  0  0  0  0  0
  -23.6873  -14.6389   20.5250 C   0  0  0  0  0  0  0  0  0  0  0  0
  -19.8497  -24.1306   22.7702 C   0  0  0  0  0  0  0  0  0  0  0  0
  -24.3654  -12.4054   21.4194 C   0  0  0  0  0  0  0  0  0  0  0  0
  -26.8280  -28.2293   21.2895 C   0  0  0  0  0  0  0  0  0  0  0  0
  -26.3088  -31.1526   22.5961 C   0  0  0  0  0  0  0  0  0  0  0  0
  -24.0670  -33.4631   23.7286 C   0  0  0  0  0  0  0  0  0  0  0  0
  -21.9510  -19.9292   20.4928 C   0  0  0  0  0  0  0  0  0  0  0  0
  -30.6472  -25.8253   18.9038 C   0  0  0  0  0  0  0  0  0  0  0  0
  -25.1326  -29.1992   19.6954 C   0  0  0  0  0  0  0  0  0  0  0  0
  -24.3334  -29.5852   22.5162 C   0  0  0  0  0  0  0  0  0  0  0  0
  -30.5353  -26.9724   19.9047 C   0  0  0  0  0  0  0  0  0  0  0  0
  -24.0718  -18.9023   17.8237 C   0  0  0  0  0  0  0  0  0  0  0  0
  -29.6241  -26.5823   21.0641 C   0  0  0  0  0  0  0  0  0  0  0  0
  -24.6230  -17.5552   18.2963 C   0  0  0  0  0  0  0  0  0  0  0  0
  -18.8346  -25.2542   24.6064 C   0  0  0  0  0  0  0  0  0  0  0  0
  -23.9212  -19.8903   18.9790 C   0  0  0  0  0  0  0  0  0  0  0  0
  -18.4356  -23.7922   24.6302 C   0  0  0  0  0  0  0  0  0  0  0  0
  -23.6996  -18.0459   20.5971 C   0  0  0  0  0  0  0  0  0  0  0  0
  -28.2027  -26.2834   20.5724 C   0  0  1  0  0  0  0  0  0  0  0  0
  -19.2570  -25.4748   23.1611 C   0  0  1  0  0  0  0  0  0  0  0  0
  -26.1582  -29.4781   20.7897 C   0  0  1  0  0  0  0  0  0  0  0  0
  -23.8078  -16.9963   19.4789 C   0  0  2  0  0  0  0  0  0  0  0  0
  -18.3916  -18.6674   25.4705 C   0  0  0  0  0  0  0  0  0  0  0  0
  -23.9442  -35.7410   24.7743 C   0  0  0  0  0  0  0  0  0  0  0  0
  -27.1429  -29.9631   25.2792 C   0  0  0  0  0  0  0  0  0  0  0  0
  -26.1105  -31.9488   26.4015 C   0  0  0  0  0  0  0  0  0  0  0  0
  -28.0276  -32.2599   24.8361 C   0  0  0  0  0  0  0  0  0  0  0  0
  -22.5472  -34.5600   21.4382 C   0  0  0  0  0  0  0  0  0  0  0  0
  -20.2320  -26.6250   22.9938 C   0  0  0  0  0  0  0  0  0  1  0  0
  -25.7552  -31.6542   23.9079 C   0  0  1  0  0  0  0  0  0  0  0  0
  -23.9412  -34.9542   23.4729 C   0  0  2  0  0  0  0  0  0  0  0  0
  -26.7436  -31.4401   25.0889 C   0  0  0  0  0  0  0  0  0  0  0  0
  -25.7034  -15.4797   19.9120 N   0  0  0  0  0  0  0  0  0  0  0  0
  -24.3771  -15.6837   19.9839 N   0  0  0  0  0  0  0  0  0  0  0  0
  -19.2986  -23.1702   23.6434 N   0  0  0  0  0  0  0  0  0  0  0  0
  -25.5741  -30.1449   21.9552 N   0  0  0  0  0  0  0  0  0  0  0  0
  -23.1342  -19.2938   20.0605 N   0  0  0  0  0  0  0  0  0  0  0  0
  -22.3458  -14.6777   20.6714 N   0  0  0  0  0  0  0  0  0  0  0  0
  -25.4466  -11.5476   21.6631 N   0  0  0  0  0  0  0  0  0  0  0  0
  -21.2697  -19.2527   21.5042 N   0  0  0  0  0  0  0  0  0  0  0  0
  -27.4897  -27.5149   20.3090 N   0  0  0  0  0  0  0  0  0  0  0  0
  -25.3809  -33.0469   23.6871 N   0  0  0  0  0  0  0  0  0  0  0  0
  -22.6734  -35.2502   22.7476 N   0  3  0  0  0  0  0  0  0  0  0  0
  -20.6068  -23.9831   21.8218 O   0  0  0  0  0  0  0  0  0  0  0  0
  -23.2046  -12.0272   21.7077 O   0  0  0  0  0  0  0  0  0  0  0  0
  -26.7514  -27.9364   22.4769 O   0  0  0  0  0  0  0  0  0  0  0  0
  -27.3507  -31.6419   22.1527 O   0  0  0  0  0  0  0  0  0  0  0  0
  -23.0971  -32.7406   23.9472 O   0  0  0  0  0  0  0  0  0  0  0  0
  -21.5558  -20.9810   19.9833 O   0  0  0  0  0  0  0  0  0  0  0  0
  -30.9368  -11.9661   20.8153 O   0  0  0  0  0  0  0  0  0  0  0  0
  -20.2796  -26.9975   21.6171 O   0  0  0  0  0  0  0  0  0  1  0  0
  -31.5045   -6.7052   19.2646 F   0  0  0  0  0  0  0  0  0  0  0  0
  -32.6593  -11.2687   18.7686 F   0  0  0  0  0  0  0  0  0  0  0  0
  1  2  1  0  0  0  0
  1  5  2  0  0  0  0
  2  6  2  0  0  0  0
  3  8  2  0  0  0  0
  3 18  1  0  0  0  0
  4  9  1  0  0  0  0
  4 18  2  0  0  0  0
  5 20  1  0  0  0  0
  6 22  1  0  0  0  0
  7 10  2  0  0  0  0
  7 21  1  0  0  0  0
  8 27  1  0  0  0  0
  9 27  2  0  0  0  0
 10 28  1  0  0  0  0
 11 12  2  0  0  0  0
 11 29  1  0  0  0  0
 12 30  1  0  0  0  0
 13 23  1  0  0  0  0
 13 28  2  0  0  0  0
 14 24  2  0  0  0  0
 14 25  1  0  0  0  0
 15 24  1  0  0  0  0
 15 26  2  0  0  0  0
 16 25  2  0  0  0  0
 16 26  1  0  0  0  0
 17 30  2  0  0  0  0
 17 31  1  0  0  0  0
 18 32  1  0  0  0  0
 19 32  1  0  0  0  0
 19 33  2  0  0  0  0
 19 35  1  0  0  0  0
 20 22  2  0  0  0  0
 20 40  1  0  0  0  0
 21 23  2  0  0  0  0
 21 41  1  0  0  0  0
 22 51  1  0  0  0  0
 23 42  1  0  0  0  0
 24 55  1  0  0  0  0
 25 67  1  0  0  0  0
 26 72  1  0  0  0  0
 27 82  1  0  0  0  0
 28 83  1  0  0  0  0
 29 31  2  0  0  0  0
 29 82  1  0  0  0  0
 30 84  1  0  0  0  0
 31 85  1  0  0  0  0
 32 65  2  0  0  0  0
 33 66  1  0  0  0  0
 33 70  1  0  0  0  0
 34 52  1  0  0  0  0
 34 67  1  0  0  0  0
 34 76  2  0  0  0  0
 35 71  1  0  0  0  0
 35 77  2  0  0  0  0
 36 53  1  0  0  0  0
 36 73  1  0  0  0  0
 36 78  2  0  0  0  0
 37 62  1  0  0  0  0
 37 68  1  0  0  0  0
 37 79  2  0  0  0  0
 38 63  1  0  0  0  0
 38 74  1  0  0  0  0
 38 80  2  0  0  0  0
 39 69  1  0  0  0  0
 39 72  1  0  0  0  0
 39 81  2  0  0  0  0
 40 43  1  0  0  0  0
 41 53  1  0  0  0  0
 42 68  1  0  0  0  0
 43 45  1  0  0  0  0
 44 46  1  0  0  0  0
 44 48  1  0  0  0  0
 45 51  1  0  0  0  0
 46 54  1  0  0  0  0
 47 49  1  0  0  0  0
 47 52  1  0  0  0  0
 48 69  1  0  0  0  0
 49 67  1  0  0  0  0
 50 54  1  0  0  0  0
 50 69  1  0  0  0  0
 51 73  1  0  0  0  0
 52 61  1  0  0  0  0
 53 68  1  0  0  0  0
 54 66  1  0  0  0  0
 56 63  1  0  0  0  0
 57 64  1  0  0  0  0
 58 64  1  0  0  0  0
 59 64  1  0  0  0  0
 60 75  1  0  0  0  0
 61 83  1  0  0  0  0
 62 64  1  0  0  0  0
 62 74  1  0  0  0  0
 63 75  1  0  0  0  0
 65 66  1  0  0  0  0
M  CHG  1  75   1
M  ISO  4  39 100  61 101  72 100  83 101
M  END
> <Batch ID>
0065

> <Smiles>
CNC(C)C(=O)NC(C(=O)N1Cc2cc([101O:1][101CH2:1]C3CCN(c4cc(C)cc([100NH:0][100C:0](=O)N5CCCC(n6nc(-c7ccc(Oc8ccc(F)cc8F)cc7)c(C(N)=O)c6N)C5)c4)C3=O)ccc2CC1C(=O)NC1CCCc2ccccc21)C(C)(C)C

> <Shape>
0.269

> <Color>
0.080

> <Negative vol penalty>
0.000

$$$$

  -OEChem-04042323183D

 91100  0     1  0  0  0  0  0999 V2000
  -22.4003  -28.9140   15.1325 C   0  0  0  0  0  0  0  0  0  0  0  0
  -22.9469  -28.0231   16.0506 C   0  0  0  0  0  0  0  0  0  0  0  0
  -23.3355   -9.6635   19.9238 C   0  0  0  0  0  0  0  0  0  0  0  0
  -23.8395   -9.9085   22.2739 C   0  0  0  0  0  0  0  0  0  0  0  0
  -30.6401  -19.6328   20.6558 C   0  0  0  0  0  0  0  0  0  0  0  0
  -22.5577  -30.2870   15.3166 C   0  0  0  0  0  0  0  0  0  0  0  0
  -23.6522  -28.5047   17.1528 C   0  0  0  0  0  0  0  0  0  0  0  0
  -22.3859  -26.1464   21.4516 C   0  0  0  0  0  0  0  0  0  0  0  0
  -30.5912  -18.2418   20.7473 C   0  0  0  0  0  0  0  0  0  0  0  0
  -22.6706   -8.4668   20.1912 C   0  0  0  0  0  0  0  0  0  0  0  0
  -23.1746   -8.7118   22.5413 C   0  0  0  0  0  0  0  0  0  0  0  0
  -22.9284  -24.8802   21.6668 C   0  0  0  0  0  0  0  0  0  0  0  0
  -19.9807   -7.6602   22.8778 C   0  0  0  0  0  0  0  0  0  0  0  0
  -19.1078   -7.6345   23.9654 C   0  0  0  0  0  0  0  0  0  0  0  0
  -24.5923  -25.8470   23.1214 C   0  0  0  0  0  0  0  0  0  0  0  0
  -20.4239   -5.8810   24.9803 C   0  0  0  0  0  0  0  0  0  0  0  0
  -23.9200  -10.3843   20.9652 C   0  0  0  0  0  0  0  0  0  0  0  0
  -29.7530  -20.4122   21.3983 C   0  0  0  0  0  0  0  0  0  0  0  0
  -24.0549  -12.9150   20.6733 C   0  0  0  0  0  0  0  0  0  0  0  0
  -23.2571  -30.7860   16.4268 C   0  0  0  0  0  0  0  0  0  0  0  0
  -22.9502  -27.2757   22.0621 C   0  0  0  0  0  0  0  0  0  0  0  0
  -23.8203  -29.8857   17.3512 C   0  0  0  0  0  0  0  0  0  0  0  0
  -24.0535  -27.1261   22.9144 C   0  0  0  0  0  0  0  0  0  0  0  0
  -28.8170  -19.8006   22.2322 C   0  0  0  0  0  0  0  0  0  0  0  0
  -29.6552  -17.6302   21.5812 C   0  0  0  0  0  0  0  0  0  0  0  0
  -22.5902   -7.9909   21.4999 C   0  0  0  0  0  0  0  0  0  0  0  0
  -24.0335  -24.7307   22.4996 C   0  0  0  0  0  0  0  0  0  0  0  0
  -21.0751   -6.7962   22.8414 C   0  0  0  0  0  0  0  0  0  0  0  0
  -19.3294   -6.7450   25.0167 C   0  0  0  0  0  0  0  0  0  0  0  0
  -21.2968   -5.9066   23.8926 C   0  0  0  0  0  0  0  0  0  0  0  0
  -28.7680  -18.4096   22.3237 C   0  0  0  0  0  0  0  0  0  0  0  0
  -24.6074  -11.6203   20.6896 C   0  0  0  0  0  0  0  0  0  0  0  0
  -25.1115  -13.7353   20.3620 C   0  0  0  0  0  0  0  0  0  0  0  0
  -26.9453  -21.4895   22.5035 C   0  0  0  0  0  0  0  0  0  0  0  0
  -29.8312  -21.8629   21.2791 C   0  0  0  0  0  0  0  0  0  0  0  0
  -22.7070  -13.3382   20.9178 C   0  0  0  0  0  0  0  0  0  0  0  0
  -24.3236  -29.9428   21.0113 C   0  0  0  0  0  0  0  0  0  0  0  0
  -24.2917  -30.7356   24.1566 C   0  0  0  0  0  0  0  0  0  0  0  0
  -24.2027  -29.6956   27.4058 C   0  0  0  0  0  0  0  0  0  0  0  0
  -30.4168  -15.2998   21.0021 C   0  0  0  0  0  0  0  0  0  0  0  0
  -23.4418  -32.2771   16.5581 C   0  0  0  0  0  0  0  0  0  0  0  0
  -22.3368  -28.6311   21.8408 C   0  0  0  0  0  0  0  0  0  0  0  0
  -24.6840  -28.3040   23.6096 C   0  0  0  0  0  0  0  0  0  0  0  0
  -23.8818  -32.7158   17.9525 C   0  0  0  0  0  0  0  0  0  0  0  0
  -29.7762  -12.6262   18.7396 C   0  0  0  0  0  0  0  0  0  0  0  0
  -25.0186  -31.8322   18.4562 C   0  0  0  0  0  0  0  0  0  0  0  0
  -28.3289  -12.2326   19.0439 C   0  0  0  0  0  0  0  0  0  0  0  0
  -27.0585  -21.7119   24.8703 C   0  0  0  0  0  0  0  0  0  0  0  0
  -30.5330  -13.0267   20.0048 C   0  0  0  0  0  0  0  0  0  0  0  0
  -27.8220  -20.4734   24.4458 C   0  0  0  0  0  0  0  0  0  0  0  0
  -28.4328  -13.6673   21.1219 C   0  0  0  0  0  0  0  0  0  0  0  0
  -24.5709  -30.3702   18.5727 C   0  0  1  0  0  0  0  0  0  0  0  0
  -26.1279  -21.9660   23.6934 C   0  0  1  0  0  0  0  0  0  0  0  0
  -23.3082  -29.7771   22.1064 C   0  0  1  0  0  0  0  0  0  0  0  0
  -27.6115  -13.3182   19.8700 C   0  0  2  0  0  0  0  0  0  0  0  0
  -24.2268  -30.5736   29.7565 C   0  0  0  0  0  0  0  0  0  0  0  0
  -31.5190  -21.8025   23.2421 C   0  0  0  0  0  0  0  0  0  0  0  0
  -31.7398  -23.4962   21.3921 C   0  0  0  0  0  0  0  0  0  0  0  0
  -29.8632  -23.6405   23.0375 C   0  0  0  0  0  0  0  0  0  0  0  0
  -27.2867  -31.2701   23.9236 C   0  0  0  0  0  0  0  0  0  0  0  0
  -27.4216  -31.2077   26.4229 C   0  0  0  0  0  0  0  0  0  0  0  0
  -26.0317  -32.9442   25.2935 C   0  0  0  0  0  0  0  0  0  0  0  0
  -21.5450  -28.5324   27.9910 C   0  0  0  0  0  0  0  0  0  0  0  0
  -25.6975  -23.4160   23.5758 C   0  0  0  0  0  0  0  0  0  1  0  0
  -25.2381  -30.5439   25.3171 C   0  0  1  0  0  0  0  0  0  0  0  0
  -23.3579  -30.1447   28.5844 C   0  0  2  0  0  0  0  0  0  0  0  0
  -30.7545  -22.6715   22.2312 C   0  0  0  0  0  0  0  0  0  0  0  0
  -26.4841  -31.4693   25.2248 C   0  0  0  0  0  0  0  0  0  0  0  0
  -25.9136  -11.6135   20.4107 N   0  0  0  0  0  0  0  0  0  0  0  0
  -26.1906  -12.9141   20.2161 N   0  0  0  0  0  0  0  0  0  0  0  0
  -27.9019  -20.5807   23.0010 N   0  0  0  0  0  0  0  0  0  0  0  0
  -24.0519  -29.6094   23.3565 N   0  0  0  0  0  0  0  0  0  0  0  0
  -29.7961  -14.0615   20.7334 N   0  0  0  0  0  0  0  0  0  0  0  0
  -25.2136  -15.0718   20.2015 N   0  0  0  0  0  0  0  0  0  0  0  0
  -21.7463  -12.3650   21.2246 N   0  0  0  0  0  0  0  0  0  0  0  0
  -29.6078  -16.2170   21.6720 N   0  0  0  0  0  0  0  0  0  0  0  0
  -23.7742  -30.1792   19.7657 N   0  0  0  0  0  0  0  0  0  0  0  0
  -24.4438  -30.7300   26.5266 N   0  0  0  0  0  0  0  0  0  0  0  0
  -22.4706  -29.0366   29.0379 N   0  3  0  0  0  0  0  0  0  0  0  0
  -26.7122  -21.8285   21.3523 O   0  0  0  0  0  0  0  0  0  0  0  0
  -29.1663  -22.4620   20.4268 O   0  0  0  0  0  0  0  0  0  0  0  0
  -22.3612  -14.5421   20.8496 O   0  0  0  0  0  0  0  0  0  0  0  0
  -25.5172  -29.8635   21.2771 O   0  0  0  0  0  0  0  0  0  0  0  0
  -23.7785  -31.8418   23.9712 O   0  0  0  0  0  0  0  0  0  0  0  0
  -24.6112  -28.5433   27.2798 O   0  0  0  0  0  0  0  0  0  0  0  0
  -31.5712  -15.5394   20.6388 O   0  0  0  0  0  0  0  0  0  0  0  0
  -21.9413   -6.8234   21.7612 O   0  0  0  0  0  0  0  0  0  0  0  0
  -24.5654  -23.4961   22.7109 O   0  0  0  0  0  0  0  0  0  1  0  0
  -18.4919   -6.7215   26.0619 F   0  0  0  0  0  0  0  0  0  0  0  0
  -22.3472   -5.0750   23.8638 F   0  0  0  0  0  0  0  0  0  0  0  0
  -27.8686  -17.8199   23.1265 F   0  0  0  0  0  0  0  0  0  0  0  0
  1  2  1  0  0  0  0
  1  6  2  0  0  0  0
  2  7  2  0  0  0  0
  3 10  2  0  0  0  0
  3 17  1  0  0  0  0
  4 11  1  0  0  0  0
  4 17  2  0  0  0  0
  5  9  1  0  0  0  0
  5 18  2  0  0  0  0
  6 20  1  0  0  0  0
  7 22  1  0  0  0  0
  8 12  2  0  0  0  0
  8 21  1  0  0  0  0
  9 25  2  0  0  0  0
 10 26  1  0  0  0  0
 11 26  2  0  0  0  0
 12 27  1  0  0  0  0
 13 14  2  0  0  0  0
 13 28  1  0  0  0  0
 14 29  1  0  0  0  0
 15 23  1  0  0  0  0
 15 27  2  0  0  0  0
 16 29  2  0  0  0  0
 16 30  1  0  0  0  0
 17 32  1  0  0  0  0
 18 24  1  0  0  0  0
 18 35  1  0  0  0  0
 19 32  1  0  0  0  0
 19 33  2  0  0  0  0
 19 36  1  0  0  0  0
 20 22  2  0  0  0  0
 20 41  1  0  0  0  0
 21 23  2  0  0  0  0
 21 42  1  0  0  0  0
 22 52  1  0  0  0  0
 23 43  1  0  0  0  0
 24 31  2  0  0  0  0
 24 71  1  0  0  0  0
 25 31  1  0  0  0  0
 25 76  1  0  0  0  0
 26 87  1  0  0  0  0
 27 88  1  0  0  0  0
 28 30  2  0  0  0  0
 28 87  1  0  0  0  0
 29 89  1  0  0  0  0
 30 90  1  0  0  0  0
 31 91  1  0  0  0  0
 32 69  2  0  0  0  0
 33 70  1  0  0  0  0
 33 74  1  0  0  0  0
 34 53  1  0  0  0  0
 34 71  1  0  0  0  0
 34 80  2  0  0  0  0
 35 67  1  0  0  0  0
 35 81  2  0  0  0  0
 36 75  1  0  0  0  0
 36 82  2  0  0  0  0
 37 54  1  0  0  0  0
 37 77  1  0  0  0  0
 37 83  2  0  0  0  0
 38 65  1  0  0  0  0
 38 72  1  0  0  0  0
 38 84  2  0  0  0  0
 39 66  1  0  0  0  0
 39 78  1  0  0  0  0
 39 85  2  0  0  0  0
 40 73  1  0  0  0  0
 40 76  1  0  0  0  0
 40 86  2  0  0  0  0
 41 44  1  0  0  0  0
 42 54  1  0  0  0  0
 43 72  1  0  0  0  0
 44 46  1  0  0  0  0
 45 47  1  0  0  0  0
 45 49  1  0  0  0  0
 46 52  1  0  0  0  0
 47 55  1  0  0  0  0
 48 50  1  0  0  0  0
 48 53  1  0  0  0  0
 49 73  1  0  0  0  0
 50 71  1  0  0  0  0
 51 55  1  0  0  0  0
 51 73  1  0  0  0  0
 52 77  1  0  0  0  0
 53 64  1  0  0  0  0
 54 72  1  0  0  0  0
 55 70  1  0  0  0  0
 56 66  1  0  0  0  0
 57 67  1  0  0  0  0
 58 67  1  0  0  0  0
 59 67  1  0  0  0  0
 60 68  1  0  0  0  0
 61 68  1  0  0  0  0
 62 68  1  0  0  0  0
 63 79  1  0  0  0  0
 64 88  1  0  0  0  0
 65 68  1  0  0  0  0
 65 78  1  0  0  0  0
 66 79  1  0  0  0  0
 69 70  1  0  0  0  0
M  CHG  1  79   1
M  ISO  4  40 100  64 101  76 100  88 101
M  END
> <Batch ID>
0065

> <Smiles>
CNC(C)C(=O)NC(C(=O)N1Cc2cc([101O:1][101CH2:1]C3CCN(c4c(C(=O)C(C)(C)C)ccc([100NH:0][100C:0](=O)N5CCCC(n6nc(-c7ccc(Oc8ccc(F)cc8F)cc7)c(C(N)=O)c6N)C5)c4F)C3=O)ccc2CC1C(=O)NC1CCCc2ccccc21)C(C)(C)C

> <Shape>
0.293

> <Color>
0.203

> <Negative vol penalty>
0.000

$$$$

  -OEChem-04042323183D

 85 93  0     1  0  0  0  0  0999 V2000
  -37.2247  -29.1507   16.3055 C   0  0  0  0  0  0  0  0  0  0  0  0
  -36.5973  -28.9707   17.5340 C   0  0  0  0  0  0  0  0  0  0  0  0
  -23.0732   -9.8697   19.9426 C   0  0  0  0  0  0  0  0  0  0  0  0
  -23.8311   -9.8785   22.2367 C   0  0  0  0  0  0  0  0  0  0  0  0
  -30.4659  -18.3416   24.0427 C   0  0  0  0  0  0  0  0  0  0  0  0
  -37.4488  -28.0562   15.4715 C   0  0  0  0  0  0  0  0  0  0  0  0
  -36.1924  -27.6961   17.9288 C   0  0  0  0  0  0  0  0  0  0  0  0
  -36.1643  -25.4408   23.6225 C   0  0  0  0  0  0  0  0  0  0  0  0
  -29.8793  -17.4568   23.1379 C   0  0  0  0  0  0  0  0  0  0  0  0
  -22.3281   -8.7175   20.1931 C   0  0  0  0  0  0  0  0  0  0  0  0
  -23.0859   -8.7263   22.4872 C   0  0  0  0  0  0  0  0  0  0  0  0
  -35.1529  -25.3046   24.5725 C   0  0  0  0  0  0  0  0  0  0  0  0
  -22.8973   -5.3989   20.4881 C   0  0  0  0  0  0  0  0  0  0  0  0
  -22.9641   -4.3682   19.5506 C   0  0  0  0  0  0  0  0  0  0  0  0
  -34.8017  -23.0259   23.8630 C   0  0  0  0  0  0  0  0  0  0  0  0
  -32.0638  -16.6067   22.5528 C   0  0  0  0  0  0  0  0  0  0  0  0
  -20.5800   -4.5357   19.1966 C   0  0  0  0  0  0  0  0  0  0  0  0
  -23.8247  -10.4502   20.9644 C   0  0  0  0  0  0  0  0  0  0  0  0
  -31.8515  -18.3590   24.2025 C   0  0  0  0  0  0  0  0  0  0  0  0
  -24.1689  -12.9750   20.8420 C   0  0  0  0  0  0  0  0  0  0  0  0
  -37.0552  -26.7660   15.8604 C   0  0  0  0  0  0  0  0  0  0  0  0
  -36.4951  -24.3722   22.7769 C   0  0  0  0  0  0  0  0  0  0  0  0
  -36.4103  -26.5834   17.0986 C   0  0  0  0  0  0  0  0  0  0  0  0
  -35.8193  -23.1503   22.9049 C   0  0  0  0  0  0  0  0  0  0  0  0
  -30.6782  -16.5894   22.3930 C   0  0  0  0  0  0  0  0  0  0  0  0
  -22.3344   -8.1458   21.4654 C   0  0  0  0  0  0  0  0  0  0  0  0
  -34.4695  -24.0980   24.6909 C   0  0  0  0  0  0  0  0  0  0  0  0
  -21.6718   -5.9979   20.7799 C   0  0  0  0  0  0  0  0  0  0  0  0
  -21.8055   -3.9367   18.9048 C   0  0  0  0  0  0  0  0  0  0  0  0
  -32.6504  -17.4916   23.4576 C   0  0  0  0  0  0  0  0  0  0  0  0
  -20.5132   -5.5664   20.1341 C   0  0  0  0  0  0  0  0  0  0  0  0
  -24.5951  -11.6402   20.7061 C   0  0  0  0  0  0  0  0  0  0  0  0
  -25.2620  -13.7231   20.4789 C   0  0  0  0  0  0  0  0  0  0  0  0
  -32.4698  -19.2977   25.1611 C   0  0  0  0  0  0  0  0  0  0  0  0
  -22.8985  -13.4923   21.2592 C   0  0  0  0  0  0  0  0  0  0  0  0
  -36.4337  -23.8963   19.6347 C   0  0  0  0  0  0  0  0  0  0  0  0
  -37.8889  -21.1061   20.4217 C   0  0  0  0  0  0  0  0  0  0  0  0
  -38.4814  -18.7123   22.7808 C   0  0  0  0  0  0  0  0  0  0  0  0
  -32.7946  -21.6777   25.7986 C   0  0  0  0  0  0  0  0  0  0  0  0
  -30.7289  -14.7641   20.6574 C   0  0  0  0  0  0  0  0  0  0  0  0
  -37.2762  -25.6206   14.9045 C   0  0  0  0  0  0  0  0  0  0  0  0
  -37.6067  -24.5267   21.7754 C   0  0  0  0  0  0  0  0  0  0  0  0
  -36.1502  -21.9662   22.0349 C   0  0  0  0  0  0  0  0  0  0  0  0
  -37.1537  -24.2476   15.5604 C   0  0  0  0  0  0  0  0  0  0  0  0
  -29.6146  -12.3488   18.2907 C   0  0  0  0  0  0  0  0  0  0  0  0
  -35.9073  -24.1843   16.4375 C   0  0  0  0  0  0  0  0  0  0  0  0
  -28.1743  -12.0589   18.7193 C   0  0  0  0  0  0  0  0  0  0  0  0
  -30.5288  -12.5781   19.4929 C   0  0  0  0  0  0  0  0  0  0  0  0
  -28.6212  -13.3056   20.8717 C   0  0  0  0  0  0  0  0  0  0  0  0
  -35.9788  -25.2126   17.5728 C   0  0  1  0  0  0  0  0  0  0  0  0
  -37.5107  -23.5366   20.6188 C   0  0  1  0  0  0  0  0  0  0  0  0
  -27.6493  -13.1320   19.6932 C   0  0  2  0  0  0  0  0  0  0  0  0
  -39.6776  -16.5322   23.1180 C   0  0  0  0  0  0  0  0  0  0  0  0
  -31.1582  -23.5518   25.9915 C   0  0  0  0  0  0  0  0  0  0  0  0
  -35.7101  -19.6690   18.8412 C   0  0  0  0  0  0  0  0  0  0  0  0
  -36.3835  -17.5433   19.9798 C   0  0  0  0  0  0  0  0  0  0  0  0
  -38.0121  -18.7452   18.5218 C   0  0  0  0  0  0  0  0  0  0  0  0
  -40.1838  -19.8443   24.9208 C   0  0  0  0  0  0  0  0  0  0  0  0
  -37.4164  -19.7174   20.7784 C   0  0  1  0  0  0  0  0  0  0  0  0
  -39.7660  -18.0456   23.2389 C   0  0  2  0  0  0  0  0  0  0  0  0
  -32.4210  -23.0591   25.3077 C   0  0  1  0  0  0  0  0  0  1  0  0
  -36.8727  -18.9414   19.5455 C   0  0  0  0  0  0  0  0  0  0  0  0
  -25.8602  -11.5428   20.2890 N   0  0  0  0  0  0  0  0  0  0  0  0
  -26.2384  -12.8259   20.1597 N   0  0  0  0  0  0  0  0  0  0  0  0
  -37.2405  -22.1689   21.0665 N   0  0  0  0  0  0  0  0  0  0  0  0
  -29.9699  -13.6103   20.3687 N   0  0  0  0  0  0  0  0  0  0  0  0
  -25.4736  -15.0543   20.4046 N   0  0  0  0  0  0  0  0  0  0  0  0
  -21.8855  -12.5844   21.5965 N   0  0  0  0  0  0  0  0  0  0  0  0
  -30.0816  -15.6906   21.4742 N   0  0  0  0  0  0  0  0  0  0  0  0
  -32.2755  -20.6104   24.9740 N   0  0  0  0  0  0  0  0  0  0  0  0
  -36.8531  -24.7426   18.6260 N   0  0  0  0  0  0  0  0  0  0  0  0
  -38.5358  -19.0650   21.4490 N   0  0  0  0  0  0  0  0  0  0  0  0
  -33.1880  -18.7824   26.1584 N   0  3  0  0  0  0  0  0  0  0  0  0
  -40.0484  -18.3878   24.6616 N   0  3  0  0  0  0  0  0  0  0  0  0
  -22.6632  -14.7232   21.3150 O   0  0  0  0  0  0  0  0  0  0  0  0
  -35.3061  -23.4387   19.7789 O   0  0  0  0  0  0  0  0  0  0  0  0
  -38.8045  -21.2425   19.6065 O   0  0  0  0  0  0  0  0  0  0  0  0
  -37.5240  -18.8981   23.5288 O   0  0  0  0  0  0  0  0  0  0  0  0
  -33.4868  -21.4486   26.7808 O   0  0  0  0  0  0  0  0  0  0  0  0
  -31.8586  -14.9314   20.1906 O   0  0  0  0  0  0  0  0  0  0  0  0
  -21.6073   -7.0216   21.7103 O   0  0  0  0  0  0  0  0  0  0  0  0
  -33.4815  -23.9626   25.6168 O   0  0  0  0  0  0  0  0  0  1  0  0
  -21.8700   -2.9480   18.0034 F   0  0  0  0  0  0  0  0  0  0  0  0
  -33.9829  -17.5023   23.6028 F   0  0  0  0  0  0  0  0  0  0  0  0
  -19.3333   -6.1388   20.4094 F   0  0  0  0  0  0  0  0  0  0  0  0
  1  2  1  0  0  0  0
  1  6  2  0  0  0  0
  2  7  2  0  0  0  0
  3 10  2  0  0  0  0
  3 18  1  0  0  0  0
  4 11  1  0  0  0  0
  4 18  2  0  0  0  0
  5  9  2  0  0  0  0
  5 19  1  0  0  0  0
  6 21  1  0  0  0  0
  7 23  1  0  0  0  0
  8 12  2  0  0  0  0
  8 22  1  0  0  0  0
  9 25  1  0  0  0  0
 10 26  1  0  0  0  0
 11 26  2  0  0  0  0
 12 27  1  0  0  0  0
 13 14  2  0  0  0  0
 13 28  1  0  0  0  0
 14 29  1  0  0  0  0
 15 24  1  0  0  0  0
 15 27  2  0  0  0  0
 16 25  2  0  0  0  0
 16 30  1  0  0  0  0
 17 29  2  0  0  0  0
 17 31  1  0  0  0  0
 18 32  1  0  0  0  0
 19 30  2  0  0  0  0
 19 34  1  0  0  0  0
 20 32  1  0  0  0  0
 20 33  2  0  0  0  0
 20 35  1  0  0  0  0
 21 23  2  0  0  0  0
 21 41  1  0  0  0  0
 22 24  2  0  0  0  0
 22 42  1  0  0  0  0
 23 50  1  0  0  0  0
 24 43  1  0  0  0  0
 25 69  1  0  0  0  0
 26 81  1  0  0  0  0
 27 82  1  0  0  0  0
 28 31  2  0  0  0  0
 28 81  1  0  0  0  0
 29 83  1  0  0  0  0
 30 84  1  0  0  0  0
 31 85  1  0  0  0  0
 32 63  2  0  0  0  0
 33 64  1  0  0  0  0
 33 67  1  0  0  0  0
 34 70  1  0  0  0  0
 34 73  2  0  0  0  0
 35 68  1  0  0  0  0
 35 75  2  0  0  0  0
 36 51  1  0  0  0  0
 36 71  1  0  0  0  0
 36 76  2  0  0  0  0
 37 59  1  0  0  0  0
 37 65  1  0  0  0  0
 37 77  2  0  0  0  0
 38 60  1  0  0  0  0
 38 72  1  0  0  0  0
 38 78  2  0  0  0  0
 39 61  1  0  0  0  0
 39 70  1  0  0  0  0
 39 79  2  0  0  0  0
 40 66  1  0  0  0  0
 40 69  1  0  0  0  0
 40 80  2  0  0  0  0
 41 44  1  0  0  0  0
 42 51  1  0  0  0  0
 43 65  1  0  0  0  0
 44 46  1  0  0  0  0
 45 47  1  0  0  0  0
 45 48  1  0  0  0  0
 46 50  1  0  0  0  0
 47 52  1  0  0  0  0
 48 66  1  0  0  0  0
 49 52  1  0  0  0  0
 49 66  1  0  0  0  0
 50 71  1  0  0  0  0
 51 65  1  0  0  0  0
 52 64  1  0  0  0  0
 53 60  1  0  0  0  0
 54 61  1  0  0  0  0
 55 62  1  0  0  0  0
 56 62  1  0  0  0  0
 57 62  1  0  0  0  0
 58 74  1  0  0  0  0
 59 62  1  0  0  0  0
 59 72  1  0  0  0  0
 60 74  1  0  0  0  0
 61 82  1  0  0  0  0
 63 64  1  0  0  0  0
M  CHG  2  73   1  74   1
M  ISO  4  40 100  61 101  69 100  82 101
M  END
> <Batch ID>
0065

> <Smiles>
CNC(C)C(=O)NC(C(=O)N1Cc2cc([101O:1][101CH:1](C)C(=O)NC(=N)c3ccc([100NH:0][100C:0](=O)N4CCCC(n5nc(-c6ccc(Oc7ccc(F)cc7F)cc6)c(C(N)=O)c5N)C4)cc3F)ccc2CC1C(=O)NC1CCCc2ccccc21)C(C)(C)C

> <Shape>
0.149

> <Color>
0.187

> <Negative vol penalty>
0.000

$$$$

  -OEChem-04042323183D

 86 94  0     1  0  0  0  0  0999 V2000
  -16.8856  -27.7971   23.7173 C   0  0  0  0  0  0  0  0  0  0  0  0
  -17.5628  -27.4454   22.5541 C   0  0  0  0  0  0  0  0  0  0  0  0
  -24.5636   -9.1157   21.3631 C   0  0  0  0  0  0  0  0  0  0  0  0
  -22.7190  -10.4331   20.5271 C   0  0  0  0  0  0  0  0  0  0  0  0
  -17.2517  -28.9473   24.4151 C   0  0  0  0  0  0  0  0  0  0  0  0
  -18.6059  -28.2445   22.0874 C   0  0  0  0  0  0  0  0  0  0  0  0
  -22.6346  -25.5347   20.6480 C   0  0  0  0  0  0  0  0  0  0  0  0
  -23.6891   -8.0637   21.6349 C   0  0  0  0  0  0  0  0  0  0  0  0
  -21.8444   -9.3810   20.7989 C   0  0  0  0  0  0  0  0  0  0  0  0
  -22.5687  -24.9071   19.4048 C   0  0  0  0  0  0  0  0  0  0  0  0
  -22.1320   -5.6091   19.9076 C   0  0  0  0  0  0  0  0  0  0  0  0
  -22.5266   -4.3249   19.5326 C   0  0  0  0  0  0  0  0  0  0  0  0
  -26.2033  -20.2178   17.1925 C   0  0  0  0  0  0  0  0  0  0  0  0
  -23.8848  -26.6858   18.4439 C   0  0  0  0  0  0  0  0  0  0  0  0
  -26.3060  -20.4303   19.9723 C   0  0  0  0  0  0  0  0  0  0  0  0
  -22.3933   -3.6112   21.8370 C   0  0  0  0  0  0  0  0  0  0  0  0
  -24.0785  -10.3005   20.8092 C   0  0  0  0  0  0  0  0  0  0  0  0
  -26.0508  -21.4627   17.8029 C   0  0  0  0  0  0  0  0  0  0  0  0
  -25.6880  -11.6192   19.3334 C   0  0  0  0  0  0  0  0  0  0  0  0
  -18.3061  -29.7556   23.9620 C   0  0  0  0  0  0  0  0  0  0  0  0
  -23.3181  -26.7502   20.7964 C   0  0  0  0  0  0  0  0  0  0  0  0
  -18.9856  -29.4073   22.7790 C   0  0  0  0  0  0  0  0  0  0  0  0
  -23.9601  -27.3255   19.6906 C   0  0  0  0  0  0  0  0  0  0  0  0
  -26.4585  -19.1854   19.3618 C   0  0  0  0  0  0  0  0  0  0  0  0
  -22.3295   -8.1963   21.3528 C   0  0  0  0  0  0  0  0  0  0  0  0
  -23.1914  -25.4841   18.3019 C   0  0  0  0  0  0  0  0  0  0  0  0
  -21.8682   -5.8945   21.2472 C   0  0  0  0  0  0  0  0  0  0  0  0
  -22.6572   -3.3259   20.4973 C   0  0  0  0  0  0  0  0  0  0  0  0
  -26.4072  -19.0791   17.9720 C   0  0  0  0  0  0  0  0  0  0  0  0
  -26.1021  -21.5689   19.1928 C   0  0  0  0  0  0  0  0  0  0  0  0
  -21.9988   -4.8955   22.2119 C   0  0  0  0  0  0  0  0  0  0  0  0
  -24.9814  -11.3879   20.5287 C   0  0  0  0  0  0  0  0  0  0  0  0
  -26.3999  -12.7692   19.5724 C   0  0  0  0  0  0  0  0  0  0  0  0
  -25.8350  -22.6664   16.9753 C   0  0  0  0  0  0  0  0  0  0  0  0
  -25.6999  -10.8623   18.1157 C   0  0  0  0  0  0  0  0  0  0  0  0
  -22.4921  -29.6983   21.6509 C   0  0  0  0  0  0  0  0  0  0  0  0
  -25.6897  -30.2209   21.4943 C   0  0  0  0  0  0  0  0  0  0  0  0
  -28.7169  -29.2991   20.2162 C   0  0  0  0  0  0  0  0  0  0  0  0
  -26.7424  -17.9642   21.5469 C   0  0  0  0  0  0  0  0  0  0  0  0
  -18.6347  -31.0149   24.7241 C   0  0  0  0  0  0  0  0  0  0  0  0
  -23.4026  -27.4009   22.1499 C   0  0  0  0  0  0  0  0  0  0  0  0
  -24.7238  -28.6189   19.8014 C   0  0  0  0  0  0  0  0  0  0  0  0
  -19.9967  -31.6049   24.3674 C   0  0  0  0  0  0  0  0  0  0  0  0
  -27.2046  -15.3106   23.8754 C   0  0  0  0  0  0  0  0  0  0  0  0
  -20.1809  -31.6459   22.8538 C   0  0  0  0  0  0  0  0  0  0  0  0
  -26.7256  -14.0725   23.1140 C   0  0  0  0  0  0  0  0  0  0  0  0
  -26.3598  -16.5404   23.5473 C   0  0  0  0  0  0  0  0  0  0  0  0
  -25.7477  -15.6001   21.3540 C   0  0  0  0  0  0  0  0  0  0  0  0
  -20.1387  -30.2351   22.2544 C   0  0  1  0  0  0  0  0  0  0  0  0
  -23.6901  -28.8973   22.0765 C   0  0  1  0  0  0  0  0  0  0  0  0
  -26.6086  -14.3507   21.6025 C   0  0  2  0  0  0  0  0  0  0  0  0
  -31.1431  -29.9394   20.2410 C   0  0  0  0  0  0  0  0  0  0  0  0
  -25.0899  -32.5566   19.6249 C   0  0  0  0  0  0  0  0  0  0  0  0
  -27.5004  -32.5436   18.9485 C   0  0  0  0  0  0  0  0  0  0  0  0
  -26.8742  -33.0073   21.3182 C   0  0  0  0  0  0  0  0  0  0  0  0
  -25.6057  -24.0154   14.3420 C   0  0  0  0  0  0  0  0  0  0  0  0
  -23.1517  -23.5024   14.5633 C   0  0  0  0  0  0  0  0  0  0  0  0
  -29.5132  -26.6903   21.3647 C   0  0  0  0  0  0  0  0  0  0  0  0
  -24.2285  -25.0749   16.2012 C   0  0  0  0  0  0  0  0  0  1  0  0
  -26.6501  -30.6569   20.4142 C   0  0  1  0  0  0  0  0  0  0  0  0
  -30.0646  -29.0774   20.8787 C   0  0  2  0  0  0  0  0  0  0  0  0
  -26.5127  -32.1677   20.0736 C   0  0  0  0  0  0  0  0  0  0  0  0
  -24.4389  -23.8438   15.3136 C   0  0  0  0  0  0  0  0  0  0  0  0
  -25.2225  -12.3162   21.4582 N   0  0  0  0  0  0  0  0  0  0  0  0
  -26.0888  -13.1421   20.8469 N   0  0  0  0  0  0  0  0  0  0  0  0
  -24.7724  -29.2199   21.1445 N   0  0  0  0  0  0  0  0  0  0  0  0
  -26.2975  -16.7440   22.0983 N   0  0  0  0  0  0  0  0  0  0  0  0
  -27.2555  -13.4877   18.8147 N   0  0  0  0  0  0  0  0  0  0  0  0
  -26.7248  -23.6553   17.0609 N   0  0  0  0  0  0  0  0  0  0  0  0
  -24.9102   -9.7069   18.0395 N   0  0  0  0  0  0  0  0  0  0  0  0
  -26.6657  -18.0304   20.1561 N   0  0  0  0  0  0  0  0  0  0  0  0
  -21.3952  -29.5529   22.4787 N   0  0  0  0  0  0  0  0  0  0  0  0
  -27.9801  -30.2652   20.8682 N   0  0  0  0  0  0  0  0  0  0  0  0
  -24.7594  -22.7020   16.1868 N   0  3  0  0  0  0  0  0  0  0  0  0
  -30.4723  -27.6491   20.7582 N   0  3  0  0  0  0  0  0  0  0  0  0
  -26.4029  -11.1915   17.1304 O   0  0  0  0  0  0  0  0  0  0  0  0
  -22.5585  -30.3975   20.6468 O   0  0  0  0  0  0  0  0  0  0  0  0
  -25.7558  -30.7440   22.6095 O   0  0  0  0  0  0  0  0  0  0  0  0
  -28.3554  -28.6800   19.2180 O   0  0  0  0  0  0  0  0  0  0  0  0
  -27.1862  -18.8724   22.2541 O   0  0  0  0  0  0  0  0  0  0  0  0
  -21.4758   -7.1698   21.6177 O   0  0  0  0  0  0  0  0  0  0  0  0
  -23.1280  -24.8740   17.0872 O   0  0  0  0  0  0  0  0  0  1  0  0
  -23.0345   -2.0922   20.1369 F   0  0  0  0  0  0  0  0  0  0  0  0
  -26.5523  -17.8875   17.3746 F   0  0  0  0  0  0  0  0  0  0  0  0
  -25.9564  -22.7608   19.7886 F   0  0  0  0  0  0  0  0  0  0  0  0
  -21.7455   -5.1633   23.5003 F   0  0  0  0  0  0  0  0  0  0  0  0
  1  2  1  0  0  0  0
  1  5  2  0  0  0  0
  2  6  2  0  0  0  0
  3  8  2  0  0  0  0
  3 17  1  0  0  0  0
  4  9  1  0  0  0  0
  4 17  2  0  0  0  0
  5 20  1  0  0  0  0
  6 22  1  0  0  0  0
  7 10  2  0  0  0  0
  7 21  1  0  0  0  0
  8 25  1  0  0  0  0
  9 25  2  0  0  0  0
 10 26  1  0  0  0  0
 11 12  2  0  0  0  0
 11 27  1  0  0  0  0
 12 28  1  0  0  0  0
 13 18  1  0  0  0  0
 13 29  2  0  0  0  0
 14 23  1  0  0  0  0
 14 26  2  0  0  0  0
 15 24  2  0  0  0  0
 15 30  1  0  0  0  0
 16 28  2  0  0  0  0
 16 31  1  0  0  0  0
 17 32  1  0  0  0  0
 18 30  2  0  0  0  0
 18 34  1  0  0  0  0
 19 32  1  0  0  0  0
 19 33  2  0  0  0  0
 19 35  1  0  0  0  0
 20 22  2  0  0  0  0
 20 40  1  0  0  0  0
 21 23  2  0  0  0  0
 21 41  1  0  0  0  0
 22 49  1  0  0  0  0
 23 42  1  0  0  0  0
 24 29  1  0  0  0  0
 24 71  1  0  0  0  0
 25 81  1  0  0  0  0
 26 82  1  0  0  0  0
 27 31  2  0  0  0  0
 27 81  1  0  0  0  0
 28 83  1  0  0  0  0
 29 84  1  0  0  0  0
 30 85  1  0  0  0  0
 31 86  1  0  0  0  0
 32 64  2  0  0  0  0
 33 65  1  0  0  0  0
 33 68  1  0  0  0  0
 34 69  1  0  0  0  0
 34 74  2  0  0  0  0
 35 70  1  0  0  0  0
 35 76  2  0  0  0  0
 36 50  1  0  0  0  0
 36 72  1  0  0  0  0
 36 77  2  0  0  0  0
 37 60  1  0  0  0  0
 37 66  1  0  0  0  0
 37 78  2  0  0  0  0
 38 61  1  0  0  0  0
 38 73  1  0  0  0  0
 38 79  2  0  0  0  0
 39 67  1  0  0  0  0
 39 71  1  0  0  0  0
 39 80  2  0  0  0  0
 40 43  1  0  0  0  0
 41 50  1  0  0  0  0
 42 66  1  0  0  0  0
 43 45  1  0  0  0  0
 44 46  1  0  0  0  0
 44 47  1  0  0  0  0
 45 49  1  0  0  0  0
 46 51  1  0  0  0  0
 47 67  1  0  0  0  0
 48 51  1  0  0  0  0
 48 67  1  0  0  0  0
 49 72  1  0  0  0  0
 50 66  1  0  0  0  0
 51 65  1  0  0  0  0
 52 61  1  0  0  0  0
 53 62  1  0  0  0  0
 54 62  1  0  0  0  0
 55 62  1  0  0  0  0
 56 63  1  0  0  0  0
 57 63  1  0  0  0  0
 58 75  1  0  0  0  0
 59 63  1  0  0  0  0
 59 82  1  0  0  0  0
 60 62  1  0  0  0  0
 60 73  1  0  0  0  0
 61 75  1  0  0  0  0
 63 74  1  0  0  0  0
 64 65  1  0  0  0  0
M  CHG  2  74   1  75   1
M  ISO  4  39 100  59 101  71 100  82 101
M  END
> <Batch ID>
0065

> <Smiles>
CNC(C)C(=O)NC(C(=O)N1Cc2cc([101O:1][101CH2:1]C(C)(C)NC(=N)c3cc(F)c([100NH:0][100C:0](=O)N4CCCC(n5nc(-c6ccc(Oc7ccc(F)cc7F)cc6)c(C(N)=O)c5N)C4)cc3F)ccc2CC1C(=O)NC1CCCc2ccccc21)C(C)(C)C

> <Shape>
0.235

> <Color>
0.079

> <Negative vol penalty>
0.000

$$$$

  -OEChem-04042323183D

 86 95  0     1  0  0  0  0  0999 V2000
  -24.8391  -38.4639   22.6921 C   0  0  0  0  0  0  0  0  0  0  0  0
  -24.9154  -37.3937   21.8065 C   0  0  0  0  0  0  0  0  0  0  0  0
  -26.1647  -13.6819   19.5677 C   0  0  0  0  0  0  0  0  0  0  0  0
  -26.3245  -13.6525   21.9782 C   0  0  0  0  0  0  0  0  0  0  0  0
  -25.3210  -38.3261   23.9932 C   0  0  0  0  0  0  0  0  0  0  0  0
  -25.4746  -36.1855   22.2211 C   0  0  0  0  0  0  0  0  0  0  0  0
  -23.7775  -30.5595   20.4966 C   0  0  0  0  0  0  0  0  0  0  0  0
  -31.8761  -25.2431   21.4170 C   0  0  0  0  0  0  0  0  0  0  0  0
  -31.8704  -23.9192   21.8563 C   0  0  0  0  0  0  0  0  0  0  0  0
  -24.8573  -13.2025   19.6485 C   0  0  0  0  0  0  0  0  0  0  0  0
  -25.0171  -13.1732   22.0590 C   0  0  0  0  0  0  0  0  0  0  0  0
  -24.2870  -29.6762   19.5458 C   0  0  0  0  0  0  0  0  0  0  0  0
  -23.3196  -10.2367   20.1619 C   0  0  0  0  0  0  0  0  0  0  0  0
  -22.9543   -9.2038   19.2986 C   0  0  0  0  0  0  0  0  0  0  0  0
  -25.5609  -28.5669   21.2680 C   0  0  0  0  0  0  0  0  0  0  0  0
  -30.2019  -23.3755   20.1957 C   0  0  0  0  0  0  0  0  0  0  0  0
  -21.2367  -10.6092   18.3438 C   0  0  0  0  0  0  0  0  0  0  0  0
  -26.8983  -13.9069   20.7325 C   0  0  0  0  0  0  0  0  0  0  0  0
  -29.3414  -13.7875   20.0080 C   0  0  0  0  0  0  0  0  0  0  0  0
  -25.8776  -37.1126   24.4269 C   0  0  0  0  0  0  0  0  0  0  0  0
  -24.1650  -30.4598   21.8406 C   0  0  0  0  0  0  0  0  0  0  0  0
  -25.9655  -36.0318   23.5288 C   0  0  0  0  0  0  0  0  0  0  0  0
  -25.0529  -29.4485   22.2342 C   0  0  0  0  0  0  0  0  0  0  0  0
  -31.0447  -25.6332   20.3671 C   0  0  0  0  0  0  0  0  0  0  0  0
  -30.2076  -24.6994   19.7564 C   0  0  0  0  0  0  0  0  0  0  0  0
  -31.0333  -22.9854   21.2456 C   0  0  0  0  0  0  0  0  0  0  0  0
  -24.2835  -12.9482   20.8941 C   0  0  0  0  0  0  0  0  0  0  0  0
  -25.1811  -28.6815   19.9309 C   0  0  0  0  0  0  0  0  0  0  0  0
  -22.6433  -11.4559   20.1162 C   0  0  0  0  0  0  0  0  0  0  0  0
  -21.9129   -9.3901   18.3895 C   0  0  0  0  0  0  0  0  0  0  0  0
  -21.6019  -11.6421   19.2071 C   0  0  0  0  0  0  0  0  0  0  0  0
  -28.2491  -14.4015   20.6497 C   0  0  0  0  0  0  0  0  0  0  0  0
  -30.3901  -14.6500   20.2147 C   0  0  0  0  0  0  0  0  0  0  0  0
  -29.8539  -25.6128   17.4709 C   0  0  0  0  0  0  0  0  0  0  0  0
  -29.4025  -12.5483   19.2894 C   0  0  0  0  0  0  0  0  0  0  0  0
  -25.6770  -32.3655   23.8864 C   0  0  0  0  0  0  0  0  0  0  0  0
  -24.9245  -30.0334   26.0118 C   0  0  0  0  0  0  0  0  0  0  0  0
  -24.1351  -26.7589   26.5611 C   0  0  0  0  0  0  0  0  0  0  0  0
  -30.2610  -20.5800   21.2021 C   0  0  0  0  0  0  0  0  0  0  0  0
  -26.4283  -37.0262   25.8283 C   0  0  0  0  0  0  0  0  0  0  0  0
  -23.5856  -31.4035   22.8585 C   0  0  0  0  0  0  0  0  0  0  0  0
  -25.4848  -29.2863   23.6680 C   0  0  0  0  0  0  0  0  0  0  0  0
  -28.7783  -26.0274   16.4849 C   0  0  0  0  0  0  0  0  0  0  0  0
  -26.6648  -35.5947   26.3027 C   0  0  0  0  0  0  0  0  0  0  0  0
  -27.6988  -26.8090   17.2117 C   0  0  0  0  0  0  0  0  0  0  0  0
  -31.2454  -17.8649   23.7286 C   0  0  0  0  0  0  0  0  0  0  0  0
  -27.3850  -34.7879   25.2269 C   0  0  0  0  0  0  0  0  0  0  0  0
  -31.3080  -16.6593   22.7937 C   0  0  0  0  0  0  0  0  0  0  0  0
  -31.4295  -19.1821   22.9856 C   0  0  0  0  0  0  0  0  0  0  0  0
  -27.9081  -24.7785   18.7471 C   0  0  0  0  0  0  0  0  0  0  0  0
  -29.7325  -18.1629   21.4568 C   0  0  0  0  0  0  0  0  0  0  0  0
  -26.5427  -34.6974   23.9487 C   0  0  1  0  0  0  0  0  0  0  0  0
  -24.4465  -31.5331   24.1113 C   0  0  1  0  0  0  0  0  0  0  0  0
  -27.0220  -25.9516   18.2880 C   0  0  1  0  0  0  0  0  0  0  0  0
  -30.6274  -16.9139   21.4342 C   0  0  2  0  0  0  0  0  0  0  0  0
  -31.0718  -27.0579   19.9174 C   0  0  0  0  0  0  0  0  0  0  0  0
  -23.6128  -25.1415   28.4073 C   0  0  0  0  0  0  0  0  0  0  0  0
  -27.8827  -29.9267   26.7519 C   0  0  0  0  0  0  0  0  0  0  0  0
  -27.4566  -27.7175   27.8502 C   0  0  0  0  0  0  0  0  0  0  0  0
  -26.3151  -29.7687   28.6941 C   0  0  0  0  0  0  0  0  0  0  0  0
  -21.4412  -26.2028   25.4689 C   0  0  0  0  0  0  0  0  0  0  0  0
  -26.5920  -26.8235   19.4691 C   0  0  0  0  0  0  0  0  0  1  0  0
  -25.5915  -28.7659   26.4889 C   0  0  1  0  0  0  0  0  0  0  0  0
  -23.0381  -26.1122   27.3874 C   0  0  2  0  0  0  0  0  0  0  0  0
  -26.8050  -29.0487   27.4188 C   0  0  0  0  0  0  0  0  0  0  0  0
  -28.5739  -15.5641   21.2213 N   0  0  0  0  0  0  0  0  0  0  0  0
  -29.8821  -15.6876   20.9396 N   0  0  0  0  0  0  0  0  0  0  0  0
  -29.3430  -25.0820   18.6725 N   0  0  0  0  0  0  0  0  0  0  0  0
  -24.8955  -30.2374   24.6249 N   0  0  0  0  0  0  0  0  0  0  0  0
  -30.4894  -19.3509   21.8681 N   0  0  0  0  0  0  0  0  0  0  0  0
  -31.6881  -14.6144   19.8453 N   0  0  0  0  0  0  0  0  0  0  0  0
  -29.7117  -11.3794   19.9982 N   0  0  0  0  0  0  0  0  0  0  0  0
  -31.0278  -21.6403   21.6924 N   0  0  0  0  0  0  0  0  0  0  0  0
  -25.4898  -33.7170   24.1056 N   0  0  0  0  0  0  0  0  0  0  0  0
  -24.5428  -27.9592   27.1036 N   0  0  0  0  0  0  0  0  0  0  0  0
  -22.0974  -25.3650   26.5055 N   0  3  0  0  0  0  0  0  0  0  0  0
  -31.0394  -25.7074   17.1548 O   0  0  0  0  0  0  0  0  0  0  0  0
  -29.2055  -12.4822   18.0523 O   0  0  0  0  0  0  0  0  0  0  0  0
  -26.7195  -31.8218   23.5412 O   0  0  0  0  0  0  0  0  0  0  0  0
  -24.4405  -30.8102   26.8388 O   0  0  0  0  0  0  0  0  0  0  0  0
  -24.5877  -26.2485   25.5388 O   0  0  0  0  0  0  0  0  0  0  0  0
  -29.4612  -20.6720   20.2685 O   0  0  0  0  0  0  0  0  0  0  0  0
  -23.0077  -12.4806   20.9734 O   0  0  0  0  0  0  0  0  0  0  0  0
  -25.6804  -27.8184   19.0048 O   0  0  0  0  0  0  0  0  0  1  0  0
  -21.5632   -8.3986   17.5595 F   0  0  0  0  0  0  0  0  0  0  0  0
  -20.9494  -12.8116   19.1577 F   0  0  0  0  0  0  0  0  0  0  0  0
  1  2  1  0  0  0  0
  1  5  2  0  0  0  0
  2  6  2  0  0  0  0
  3 10  2  0  0  0  0
  3 18  1  0  0  0  0
  4 11  1  0  0  0  0
  4 18  2  0  0  0  0
  5 20  1  0  0  0  0
  6 22  1  0  0  0  0
  7 12  2  0  0  0  0
  7 21  1  0  0  0  0
  8  9  2  0  0  0  0
  8 24  1  0  0  0  0
  9 26  1  0  0  0  0
 10 27  1  0  0  0  0
 11 27  2  0  0  0  0
 12 28  1  0  0  0  0
 13 14  2  0  0  0  0
 13 29  1  0  0  0  0
 14 30  1  0  0  0  0
 15 23  1  0  0  0  0
 15 28  2  0  0  0  0
 16 25  1  0  0  0  0
 16 26  2  0  0  0  0
 17 30  2  0  0  0  0
 17 31  1  0  0  0  0
 18 32  1  0  0  0  0
 19 32  1  0  0  0  0
 19 33  2  0  0  0  0
 19 35  1  0  0  0  0
 20 22  2  0  0  0  0
 20 40  1  0  0  0  0
 21 23  2  0  0  0  0
 21 41  1  0  0  0  0
 22 52  1  0  0  0  0
 23 42  1  0  0  0  0
 24 25  2  0  0  0  0
 24 56  1  0  0  0  0
 25 68  1  0  0  0  0
 26 73  1  0  0  0  0
 27 83  1  0  0  0  0
 28 84  1  0  0  0  0
 29 31  2  0  0  0  0
 29 83  1  0  0  0  0
 30 85  1  0  0  0  0
 31 86  1  0  0  0  0
 32 66  2  0  0  0  0
 33 67  1  0  0  0  0
 33 71  1  0  0  0  0
 34 43  1  0  0  0  0
 34 68  1  0  0  0  0
 34 77  2  0  0  0  0
 35 72  1  0  0  0  0
 35 78  2  0  0  0  0
 36 53  1  0  0  0  0
 36 74  1  0  0  0  0
 36 79  2  0  0  0  0
 37 63  1  0  0  0  0
 37 69  1  0  0  0  0
 37 80  2  0  0  0  0
 38 64  1  0  0  0  0
 38 75  1  0  0  0  0
 38 81  2  0  0  0  0
 39 70  1  0  0  0  0
 39 73  1  0  0  0  0
 39 82  2  0  0  0  0
 40 44  1  0  0  0  0
 41 53  1  0  0  0  0
 42 69  1  0  0  0  0
 43 45  1  0  0  0  0
 44 47  1  0  0  0  0
 45 54  1  0  0  0  0
 46 48  1  0  0  0  0
 46 49  1  0  0  0  0
 47 52  1  0  0  0  0
 48 55  1  0  0  0  0
 49 70  1  0  0  0  0
 50 54  1  0  0  0  0
 50 68  1  0  0  0  0
 51 55  1  0  0  0  0
 51 70  1  0  0  0  0
 52 74  1  0  0  0  0
 53 69  1  0  0  0  0
 54 62  1  0  0  0  0
 55 67  1  0  0  0  0
 57 64  1  0  0  0  0
 58 65  1  0  0  0  0
 59 65  1  0  0  0  0
 60 65  1  0  0  0  0
 61 76  1  0  0  0  0
 62 84  1  0  0  0  0
 63 65  1  0  0  0  0
 63 75  1  0  0  0  0
 64 76  1  0  0  0  0
 66 67  1  0  0  0  0
M  CHG  1  76   1
M  ISO  4  39 100  62 101  73 100  84 101
M  END
> <Batch ID>
0065

> <Smiles>
CNC(C)C(=O)NC(C(=O)N1Cc2cc([101O:1][101CH2:1]C3CCC(=O)N(c4cc([100NH:0][100C:0](=O)N5CCCC(n6nc(-c7ccc(Oc8ccc(F)cc8F)cc7)c(C(N)=O)c6N)C5)ccc4C)C3)ccc2CC1C(=O)NC1CCCc2ccccc21)C(C)(C)C

> <Shape>
0.317

> <Color>
0.076

> <Negative vol penalty>
0.000

$$$$

  -OEChem-04042323183D

 86 95  0     1  0  0  0  0  0999 V2000
  -26.3349  -36.0745   16.1692 C   0  0  0  0  0  0  0  0  0  0  0  0
  -26.5059  -34.6953   16.1061 C   0  0  0  0  0  0  0  0  0  0  0  0
  -24.7876   -8.6983   21.6414 C   0  0  0  0  0  0  0  0  0  0  0  0
  -23.2366   -9.8981   20.2301 C   0  0  0  0  0  0  0  0  0  0  0  0
  -26.4450  -36.7341   17.3925 C   0  0  0  0  0  0  0  0  0  0  0  0
  -26.7882  -33.9751   17.2662 C   0  0  0  0  0  0  0  0  0  0  0  0
  -24.9214  -28.3026   18.6241 C   0  0  0  0  0  0  0  0  0  0  0  0
  -23.7317   -8.2940   22.4582 C   0  0  0  0  0  0  0  0  0  0  0  0
  -22.1806   -9.4938   21.0469 C   0  0  0  0  0  0  0  0  0  0  0  0
  -25.5472  -27.0606   18.5264 C   0  0  0  0  0  0  0  0  0  0  0  0
  -21.2860   -5.9600   22.3949 C   0  0  0  0  0  0  0  0  0  0  0  0
  -21.2487   -4.6234   22.7920 C   0  0  0  0  0  0  0  0  0  0  0  0
  -26.1901  -27.2089   20.8468 C   0  0  0  0  0  0  0  0  0  0  0  0
  -24.9227  -19.4274   16.9414 C   0  0  0  0  0  0  0  0  0  0  0  0
  -25.1950  -17.0289   16.8418 C   0  0  0  0  0  0  0  0  0  0  0  0
  -26.8235  -18.3822   18.0051 C   0  0  0  0  0  0  0  0  0  0  0  0
  -21.3620   -5.3079   25.1063 C   0  0  0  0  0  0  0  0  0  0  0  0
  -24.5401   -9.5004   20.5274 C   0  0  0  0  0  0  0  0  0  0  0  0
  -26.1380   -9.2478   18.5550 C   0  0  0  0  0  0  0  0  0  0  0  0
  -26.7193  -36.0204   18.5698 C   0  0  0  0  0  0  0  0  0  0  0  0
  -24.9346  -29.0132   19.8329 C   0  0  0  0  0  0  0  0  0  0  0  0
  -26.9035  -34.6260   18.5063 C   0  0  0  0  0  0  0  0  0  0  0  0
  -25.5615  -28.4585   20.9578 C   0  0  0  0  0  0  0  0  0  0  0  0
  -24.4706  -18.1768   16.5204 C   0  0  0  0  0  0  0  0  0  0  0  0
  -26.0992  -19.5301   17.6837 C   0  0  0  0  0  0  0  0  0  0  0  0
  -26.3715  -17.1316   17.5842 C   0  0  0  0  0  0  0  0  0  0  0  0
  -22.4282   -8.6917   22.1610 C   0  0  0  0  0  0  0  0  0  0  0  0
  -26.1842  -26.5148   19.6371 C   0  0  0  0  0  0  0  0  0  0  0  0
  -21.3614   -6.9706   23.3534 C   0  0  0  0  0  0  0  0  0  0  0  0
  -21.2867   -4.2973   24.1477 C   0  0  0  0  0  0  0  0  0  0  0  0
  -21.3994   -6.6445   24.7091 C   0  0  0  0  0  0  0  0  0  0  0  0
  -25.6305   -9.9189   19.6836 C   0  0  0  0  0  0  0  0  0  0  0  0
  -27.1611  -10.0490   18.1103 C   0  0  0  0  0  0  0  0  0  0  0  0
  -27.9058  -22.5003   18.8096 C   0  0  0  0  0  0  0  0  0  0  0  0
  -27.8848  -21.0954   18.2887 C   0  0  0  0  0  0  0  0  0  0  0  0
  -25.7217   -8.0108   17.9615 C   0  0  0  0  0  0  0  0  0  0  0  0
  -26.0890  -31.8223   20.7710 C   0  0  0  0  0  0  0  0  0  0  0  0
  -24.5369  -31.1007   23.5264 C   0  0  0  0  0  0  0  0  0  0  0  0
  -23.2406  -28.7018   25.5786 C   0  0  0  0  0  0  0  0  0  0  0  0
  -28.2947  -15.8921   18.6382 C   0  0  0  0  0  0  0  0  0  0  0  0
  -26.8759  -36.7833   19.8614 C   0  0  0  0  0  0  0  0  0  0  0  0
  -24.2319  -30.3396   19.9290 C   0  0  0  0  0  0  0  0  0  0  0  0
  -25.5866  -29.1719   22.2841 C   0  0  0  0  0  0  0  0  0  0  0  0
  -26.8065  -35.8986   21.1035 C   0  0  0  0  0  0  0  0  0  0  0  0
  -30.3941  -13.2128   19.6828 C   0  0  0  0  0  0  0  0  0  0  0  0
  -27.6757  -34.6580   20.9246 C   0  0  0  0  0  0  0  0  0  0  0  0
  -29.4584  -12.0018   19.6930 C   0  0  0  0  0  0  0  0  0  0  0  0
  -29.6821  -14.4835   20.1435 C   0  0  0  0  0  0  0  0  0  0  0  0
  -25.6719  -21.9025   18.3985 C   0  0  0  0  0  0  0  0  0  0  0  0
  -27.5011  -13.5803   19.4390 C   0  0  0  0  0  0  0  0  0  0  0  0
  -27.1864  -33.8067   19.7468 C   0  0  1  0  0  0  0  0  0  0  0  0
  -26.5135  -22.9649   19.1107 C   0  0  2  0  0  0  0  0  0  0  0  0
  -24.7504  -31.2091   21.0704 C   0  0  1  0  0  0  0  0  0  0  0  0
  -28.1559  -12.2895   18.9206 C   0  0  2  0  0  0  0  0  0  0  0  0
  -23.2132  -18.0676   15.7255 C   0  0  0  0  0  0  0  0  0  0  0  0
  -22.0679  -28.4151   27.7787 C   0  0  0  0  0  0  0  0  0  0  0  0
  -27.1691  -31.5890   24.9903 C   0  0  0  0  0  0  0  0  0  0  0  0
  -26.2093  -30.3942   26.9700 C   0  0  0  0  0  0  0  0  0  0  0  0
  -25.1471  -32.4966   26.1489 C   0  0  0  0  0  0  0  0  0  0  0  0
  -20.8718  -27.4832   24.2891 C   0  0  0  0  0  0  0  0  0  0  0  0
  -26.2519  -24.3700   18.6120 C   0  0  0  0  0  0  0  0  0  1  0  0
  -24.8994  -30.3735   24.7987 C   0  0  1  0  0  0  0  0  0  0  0  0
  -21.8976  -28.5927   26.2779 C   0  0  2  0  0  0  0  0  0  0  0  0
  -25.8576  -31.2005   25.7016 C   0  0  0  0  0  0  0  0  0  0  0  0
  -26.2780  -11.0586   19.9402 N   0  0  0  0  0  0  0  0  0  0  0  0
  -27.2028  -11.1099   18.9665 N   0  0  0  0  0  0  0  0  0  0  0  0
  -26.5494  -20.7767   18.1028 N   0  0  0  0  0  0  0  0  0  0  0  0
  -24.8910  -30.4688   22.3259 N   0  0  0  0  0  0  0  0  0  0  0  0
  -28.4599  -14.6938   19.3646 N   0  0  0  0  0  0  0  0  0  0  0  0
  -28.0201   -9.9426   17.0744 N   0  0  0  0  0  0  0  0  0  0  0  0
  -24.6539   -7.3156   18.5453 N   0  0  0  0  0  0  0  0  0  0  0  0
  -27.1080  -15.9657   17.9095 N   0  0  0  0  0  0  0  0  0  0  0  0
  -26.0174  -33.0426   20.1266 N   0  0  0  0  0  0  0  0  0  0  0  0
  -23.6377  -30.0146   25.4374 N   0  0  0  0  0  0  0  0  0  0  0  0
  -21.1321  -27.4278   25.7507 N   0  3  0  0  0  0  0  0  0  0  0  0
  -28.9502  -23.0996   18.9679 O   0  0  0  0  0  0  0  0  0  0  0  0
  -28.9022  -20.4613   18.1013 O   0  0  0  0  0  0  0  0  0  0  0  0
  -26.2908   -7.5277   16.9534 O   0  0  0  0  0  0  0  0  0  0  0  0
  -27.1112  -31.2327   21.1015 O   0  0  0  0  0  0  0  0  0  0  0  0
  -23.9544  -32.1859   23.5951 O   0  0  0  0  0  0  0  0  0  0  0  0
  -23.8756  -27.7203   25.1992 O   0  0  0  0  0  0  0  0  0  0  0  0
  -29.1559  -16.7755   18.6392 O   0  0  0  0  0  0  0  0  0  0  0  0
  -21.3976   -8.2971   22.9576 O   0  0  0  0  0  0  0  0  0  0  0  0
  -26.7963  -25.3030   19.5444 O   0  0  0  0  0  0  0  0  0  1  0  0
  -21.2493   -3.0138   24.5289 F   0  0  0  0  0  0  0  0  0  0  0  0
  -21.4706   -7.6110   25.6347 F   0  0  0  0  0  0  0  0  0  0  0  0
  1  2  1  0  0  0  0
  1  5  2  0  0  0  0
  2  6  2  0  0  0  0
  3  8  2  0  0  0  0
  3 18  1  0  0  0  0
  4  9  1  0  0  0  0
  4 18  2  0  0  0  0
  5 20  1  0  0  0  0
  6 22  1  0  0  0  0
  7 10  2  0  0  0  0
  7 21  1  0  0  0  0
  8 27  1  0  0  0  0
  9 27  2  0  0  0  0
 10 28  1  0  0  0  0
 11 12  2  0  0  0  0
 11 29  1  0  0  0  0
 12 30  1  0  0  0  0
 13 23  1  0  0  0  0
 13 28  2  0  0  0  0
 14 24  2  0  0  0  0
 14 25  1  0  0  0  0
 15 24  1  0  0  0  0
 15 26  2  0  0  0  0
 16 25  2  0  0  0  0
 16 26  1  0  0  0  0
 17 30  2  0  0  0  0
 17 31  1  0  0  0  0
 18 32  1  0  0  0  0
 19 32  1  0  0  0  0
 19 33  2  0  0  0  0
 19 36  1  0  0  0  0
 20 22  2  0  0  0  0
 20 41  1  0  0  0  0
 21 23  2  0  0  0  0
 21 42  1  0  0  0  0
 22 51  1  0  0  0  0
 23 43  1  0  0  0  0
 24 55  1  0  0  0  0
 25 67  1  0  0  0  0
 26 72  1  0  0  0  0
 27 83  1  0  0  0  0
 28 84  1  0  0  0  0
 29 31  2  0  0  0  0
 29 83  1  0  0  0  0
 30 85  1  0  0  0  0
 31 86  1  0  0  0  0
 32 65  2  0  0  0  0
 33 66  1  0  0  0  0
 33 70  1  0  0  0  0
 34 35  1  0  0  0  0
 34 52  1  0  0  0  0
 34 76  2  0  0  0  0
 35 67  1  0  0  0  0
 35 77  2  0  0  0  0
 36 71  1  0  0  0  0
 36 78  2  0  0  0  0
 37 53  1  0  0  0  0
 37 73  1  0  0  0  0
 37 79  2  0  0  0  0
 38 62  1  0  0  0  0
 38 68  1  0  0  0  0
 38 80  2  0  0  0  0
 39 63  1  0  0  0  0
 39 74  1  0  0  0  0
 39 81  2  0  0  0  0
 40 69  1  0  0  0  0
 40 72  1  0  0  0  0
 40 82  2  0  0  0  0
 41 44  1  0  0  0  0
 42 53  1  0  0  0  0
 43 68  1  0  0  0  0
 44 46  1  0  0  0  0
 45 47  1  0  0  0  0
 45 48  1  0  0  0  0
 46 51  1  0  0  0  0
 47 54  1  0  0  0  0
 48 69  1  0  0  0  0
 49 52  1  0  0  0  0
 49 67  1  0  0  0  0
 50 54  1  0  0  0  0
 50 69  1  0  0  0  0
 51 73  1  0  0  0  0
 52 61  1  0  0  0  0
 53 68  1  0  0  0  0
 54 66  1  0  0  0  0
 56 63  1  0  0  0  0
 57 64  1  0  0  0  0
 58 64  1  0  0  0  0
 59 64  1  0  0  0  0
 60 75  1  0  0  0  0
 61 84  1  0  0  0  0
 62 64  1  0  0  0  0
 62 74  1  0  0  0  0
 63 75  1  0  0  0  0
 65 66  1  0  0  0  0
M  CHG  1  75   1
M  ISO  4  40 100  61 101  72 100  84 101
M  END
> <Batch ID>
0065

> <Smiles>
CNC(C)C(=O)NC(C(=O)N1Cc2cc([101O:1][101CH2:1]C3CN(c4cc(C)cc([100NH:0][100C:0](=O)N5CCCC(n6nc(-c7ccc(Oc8ccc(F)cc8F)cc7)c(C(N)=O)c6N)C5)c4)C(=O)C3=O)ccc2CC1C(=O)NC1CCCc2ccccc21)C(C)(C)C

> <Shape>
0.239

> <Color>
0.128

> <Negative vol penalty>
0.000

$$$$

  -OEChem-04042323183D

 91100  0     1  0  0  0  0  0999 V2000
  -24.4925  -32.4709   26.5290 C   0  0  0  0  0  0  0  0  0  0  0  0
  -24.5320  -31.0974   26.3114 C   0  0  0  0  0  0  0  0  0  0  0  0
  -23.0414   -9.9575   19.8917 C   0  0  0  0  0  0  0  0  0  0  0  0
  -23.8419   -9.8387   22.1681 C   0  0  0  0  0  0  0  0  0  0  0  0
  -24.5901  -33.3494   25.4508 C   0  0  0  0  0  0  0  0  0  0  0  0
  -24.6680  -30.6016   25.0152 C   0  0  0  0  0  0  0  0  0  0  0  0
  -28.0530  -26.8469   24.7165 C   0  0  0  0  0  0  0  0  0  0  0  0
  -22.2823   -8.8057   20.0985 C   0  0  0  0  0  0  0  0  0  0  0  0
  -23.0828   -8.6870   22.3750 C   0  0  0  0  0  0  0  0  0  0  0  0
  -27.6447  -25.5858   25.1483 C   0  0  0  0  0  0  0  0  0  0  0  0
  -19.8525   -7.9133   22.9975 C   0  0  0  0  0  0  0  0  0  0  0  0
  -19.1159   -7.8280   24.1789 C   0  0  0  0  0  0  0  0  0  0  0  0
  -27.2669  -24.9304   22.8577 C   0  0  0  0  0  0  0  0  0  0  0  0
  -29.6647  -17.7396   22.5912 C   0  0  0  0  0  0  0  0  0  0  0  0
  -31.2605  -17.6125   20.7817 C   0  0  0  0  0  0  0  0  0  0  0  0
  -20.3366   -5.8364   24.7962 C   0  0  0  0  0  0  0  0  0  0  0  0
  -23.8213  -10.4740   20.9265 C   0  0  0  0  0  0  0  0  0  0  0  0
  -24.2044  -12.9960   20.9242 C   0  0  0  0  0  0  0  0  0  0  0  0
  -24.7371  -32.8643   24.1417 C   0  0  0  0  0  0  0  0  0  0  0  0
  -28.0609  -27.1635   23.3504 C   0  0  0  0  0  0  0  0  0  0  0  0
  -24.7663  -31.4745   23.9183 C   0  0  0  0  0  0  0  0  0  0  0  0
  -27.6781  -26.1955   22.4110 C   0  0  0  0  0  0  0  0  0  0  0  0
  -30.7505  -19.7456   21.7950 C   0  0  0  0  0  0  0  0  0  0  0  0
  -29.8566  -19.1193   22.6635 C   0  0  0  0  0  0  0  0  0  0  0  0
  -30.3667  -16.9862   21.6503 C   0  0  0  0  0  0  0  0  0  0  0  0
  -22.3029   -8.1705   21.3402 C   0  0  0  0  0  0  0  0  0  0  0  0
  -27.2488  -24.6282   24.2191 C   0  0  0  0  0  0  0  0  0  0  0  0
  -20.8311   -6.9602   22.7154 C   0  0  0  0  0  0  0  0  0  0  0  0
  -19.3580   -6.7896   25.0783 C   0  0  0  0  0  0  0  0  0  0  0  0
  -21.0732   -5.9218   23.6147 C   0  0  0  0  0  0  0  0  0  0  0  0
  -31.4524  -18.9922   20.8540 C   0  0  0  0  0  0  0  0  0  0  0  0
  -24.6061  -11.6634   20.7133 C   0  0  0  0  0  0  0  0  0  0  0  0
  -25.3027  -13.7446   20.5779 C   0  0  0  0  0  0  0  0  0  0  0  0
  -29.6715  -20.6505   24.6704 C   0  0  0  0  0  0  0  0  0  0  0  0
  -22.9507  -13.5112   21.3915 C   0  0  0  0  0  0  0  0  0  0  0  0
  -26.5573  -29.2940   21.5328 C   0  0  0  0  0  0  0  0  0  0  0  0
  -28.5280  -28.1401   19.2291 C   0  0  0  0  0  0  0  0  0  0  0  0
  -30.4554  -25.5652   18.0881 C   0  0  0  0  0  0  0  0  0  0  0  0
  -30.7884  -14.6907   20.7021 C   0  0  0  0  0  0  0  0  0  0  0  0
  -24.7912  -33.8521   23.0033 C   0  0  0  0  0  0  0  0  0  0  0  0
  -28.5295  -28.5196   22.8991 C   0  0  0  0  0  0  0  0  0  0  0  0
  -27.6879  -26.4786   20.9317 C   0  0  0  0  0  0  0  0  0  0  0  0
  -28.5171  -21.1709   25.4963 C   0  0  0  0  0  0  0  0  0  0  0  0
  -25.3098  -33.2510   21.6995 C   0  0  0  0  0  0  0  0  0  0  0  0
  -29.5906  -12.4153   18.2393 C   0  0  0  0  0  0  0  0  0  0  0  0
  -24.6315  -31.9133   21.4213 C   0  0  0  0  0  0  0  0  0  0  0  0
  -28.1540  -12.1265   18.6807 C   0  0  0  0  0  0  0  0  0  0  0  0
  -30.5307  -12.5695   19.4335 C   0  0  0  0  0  0  0  0  0  0  0  0
  -27.6779  -19.8458   23.6990 C   0  0  0  0  0  0  0  0  0  0  0  0
  -28.6614  -13.2560   20.8839 C   0  0  0  0  0  0  0  0  0  0  0  0
  -24.9377  -30.8985   22.5294 C   0  0  1  0  0  0  0  0  0  0  0  0
  -28.0080  -28.9028   21.5176 C   0  0  1  0  0  0  0  0  0  0  0  0
  -27.3096  -21.0346   24.5767 C   0  0  2  0  0  0  0  0  0  0  0  0
  -27.6650  -13.1570   19.7173 C   0  0  2  0  0  0  0  0  0  0  0  0
  -30.5390  -21.9439   20.5799 C   0  0  0  0  0  0  0  0  0  0  0  0
  -32.3995  -21.5981   22.2455 C   0  0  0  0  0  0  0  0  0  0  0  0
  -31.9136  -24.9018   16.1565 C   0  0  0  0  0  0  0  0  0  0  0  0
  -26.0444  -27.6491   17.5260 C   0  0  0  0  0  0  0  0  0  0  0  0
  -27.4255  -26.1553   16.0668 C   0  0  0  0  0  0  0  0  0  0  0  0
  -28.0019  -28.5734   16.2738 C   0  0  0  0  0  0  0  0  0  0  0  0
  -32.8288  -25.2693   19.8312 C   0  0  0  0  0  0  0  0  0  0  0  0
  -31.9678  -19.3874   18.1146 C   0  0  0  0  0  0  0  0  0  0  0  0
  -27.0827  -22.3021   23.7525 C   0  0  0  0  0  0  0  0  0  1  0  0
  -30.9531  -21.2266   21.8762 C   0  0  0  0  0  0  0  0  0  0  0  0
  -28.4512  -27.0214   18.2183 C   0  0  1  0  0  0  0  0  0  0  0  0
  -31.8706  -25.5325   17.5396 C   0  0  2  0  0  0  0  0  0  0  0  0
  -27.4786  -27.3448   17.0492 C   0  0  0  0  0  0  0  0  0  0  0  0
  -25.8615  -11.5676   20.2673 N   0  0  0  0  0  0  0  0  0  0  0  0
  -33.9166  -18.9683   19.8996 N   0  0  0  0  0  0  0  0  0  0  0  0
  -26.2581  -12.8496   20.1952 N   0  0  0  0  0  0  0  0  0  0  0  0
  -29.1277  -19.8700   23.6340 N   0  0  0  0  0  0  0  0  0  0  0  0
  -28.1483  -27.8212   20.5405 N   0  0  0  0  0  0  0  0  0  0  0  0
  -30.0053  -13.5647   20.3707 N   0  0  0  0  0  0  0  0  0  0  0  0
  -25.5348  -15.0744   20.5665 N   0  0  0  0  0  0  0  0  0  0  0  0
  -21.9294  -12.6032   21.7025 N   0  0  0  0  0  0  0  0  0  0  0  0
  -30.1717  -15.5846   21.5768 N   0  0  0  0  0  0  0  0  0  0  0  0
  -26.2704  -30.3585   22.3659 N   0  0  0  0  0  0  0  0  0  0  0  0
  -29.8228  -26.7557   17.7985 N   0  0  0  0  0  0  0  0  0  0  0  0
  -32.7579  -24.7462   18.4426 N   0  3  0  0  0  0  0  0  0  0  0  0
  -30.8382  -20.8701   24.9624 O   0  0  0  0  0  0  0  0  0  0  0  0
  -22.7368  -14.7412   21.5136 O   0  0  0  0  0  0  0  0  0  0  0  0
  -25.7578  -28.6769   20.8389 O   0  0  0  0  0  0  0  0  0  0  0  0
  -28.9176  -29.2540   18.8698 O   0  0  0  0  0  0  0  0  0  0  0  0
  -29.9594  -24.6270   18.7079 O   0  0  0  0  0  0  0  0  0  0  0  0
  -31.9118  -14.8638   20.2224 O   0  0  0  0  0  0  0  0  0  0  0  0
  -32.4396  -21.1870   19.8891 O   0  0  0  0  0  0  0  0  0  0  0  0
  -21.5621   -7.0467   21.5424 O   0  0  0  0  0  0  0  0  0  0  0  0
  -26.8492  -23.3966   24.6379 O   0  0  0  0  0  0  0  0  0  1  0  0
  -18.6516   -6.7086   26.2135 F   0  0  0  0  0  0  0  0  0  0  0  0
  -22.0128   -5.0038   23.3497 F   0  0  0  0  0  0  0  0  0  0  0  0
  -32.5827  -19.7417   19.7470 S   0  0  2  0  0  0  0  0  0  0  0  0
  1  2  1  0  0  0  0
  1  5  2  0  0  0  0
  2  6  2  0  0  0  0
  3  8  2  0  0  0  0
  3 17  1  0  0  0  0
  4  9  1  0  0  0  0
  4 17  2  0  0  0  0
  5 19  1  0  0  0  0
  6 21  1  0  0  0  0
  7 10  2  0  0  0  0
  7 20  1  0  0  0  0
  8 26  1  0  0  0  0
  9 26  2  0  0  0  0
 10 27  1  0  0  0  0
 11 12  2  0  0  0  0
 11 28  1  0  0  0  0
 12 29  1  0  0  0  0
 13 22  1  0  0  0  0
 13 27  2  0  0  0  0
 14 24  1  0  0  0  0
 14 25  2  0  0  0  0
 15 25  1  0  0  0  0
 15 31  2  0  0  0  0
 16 29  2  0  0  0  0
 16 30  1  0  0  0  0
 17 32  1  0  0  0  0
 18 32  1  0  0  0  0
 18 33  2  0  0  0  0
 18 35  1  0  0  0  0
 19 21  2  0  0  0  0
 19 40  1  0  0  0  0
 20 22  2  0  0  0  0
 20 41  1  0  0  0  0
 21 51  1  0  0  0  0
 22 42  1  0  0  0  0
 23 24  2  0  0  0  0
 23 31  1  0  0  0  0
 23 64  1  0  0  0  0
 24 71  1  0  0  0  0
 25 76  1  0  0  0  0
 26 87  1  0  0  0  0
 27 88  1  0  0  0  0
 28 30  2  0  0  0  0
 28 87  1  0  0  0  0
 29 89  1  0  0  0  0
 30 90  1  0  0  0  0
 31 91  1  0  0  0  0
 32 68  2  0  0  0  0
 33 70  1  0  0  0  0
 33 74  1  0  0  0  0
 34 43  1  0  0  0  0
 34 71  1  0  0  0  0
 34 80  2  0  0  0  0
 35 75  1  0  0  0  0
 35 81  2  0  0  0  0
 36 52  1  0  0  0  0
 36 77  1  0  0  0  0
 36 82  2  0  0  0  0
 37 65  1  0  0  0  0
 37 72  1  0  0  0  0
 37 83  2  0  0  0  0
 38 66  1  0  0  0  0
 38 78  1  0  0  0  0
 38 84  2  0  0  0  0
 39 73  1  0  0  0  0
 39 76  1  0  0  0  0
 39 85  2  0  0  0  0
 40 44  1  0  0  0  0
 41 52  1  0  0  0  0
 42 72  1  0  0  0  0
 43 53  1  0  0  0  0
 44 46  1  0  0  0  0
 45 47  1  0  0  0  0
 45 48  1  0  0  0  0
 46 51  1  0  0  0  0
 47 54  1  0  0  0  0
 48 73  1  0  0  0  0
 49 53  1  0  0  0  0
 49 71  1  0  0  0  0
 50 54  1  0  0  0  0
 50 73  1  0  0  0  0
 51 77  1  0  0  0  0
 52 72  1  0  0  0  0
 53 63  1  0  0  0  0
 54 70  1  0  0  0  0
 55 64  1  0  0  0  0
 56 64  1  0  0  0  0
 57 66  1  0  0  0  0
 58 67  1  0  0  0  0
 59 67  1  0  0  0  0
 60 67  1  0  0  0  0
 61 79  1  0  0  0  0
 62 91  1  0  0  0  0
 63 88  1  0  0  0  0
 65 67  1  0  0  0  0
 65 78  1  0  0  0  0
 66 79  1  0  0  0  0
 68 70  1  0  0  0  0
 69 91  2  0  0  0  0
 86 91  2  0  0  0  0
M  CHG  1  79   1
M  ISO  4  39 100  63 101  76 100  88 101
M  END
> <Batch ID>
0065

> <Smiles>
CNC(C)C(=O)NC(C(=O)N1Cc2cc([101O:1][101CH2:1]C3CC(=O)N(c4cc([100NH:0][100C:0](=O)N5CCCC(n6nc(-c7ccc(Oc8ccc(F)cc8F)cc7)c(C(N)=O)c6N)C5)cc(S(C)(=N)=O)c4C(C)C)C3)ccc2CC1C(=O)NC1CCCc2ccccc21)C(C)(C)C

> <Shape>
0.303

> <Color>
0.186

> <Negative vol penalty>
0.000

$$$$

  -OEChem-04042323183D

 87 95  0     1  0  0  0  0  0999 V2000
  -17.5154  -26.0840   22.6733 C   0  0  0  0  0  0  0  0  0  0  0  0
  -18.7788  -25.7348   22.2073 C   0  0  0  0  0  0  0  0  0  0  0  0
  -26.0692  -10.4462   19.1344 C   0  0  0  0  0  0  0  0  0  0  0  0
  -26.7702  -11.5328   17.0935 C   0  0  0  0  0  0  0  0  0  0  0  0
  -17.1340  -27.4245   22.7125 C   0  0  0  0  0  0  0  0  0  0  0  0
  -19.6613  -26.7260   21.7793 C   0  0  0  0  0  0  0  0  0  0  0  0
  -25.7563  -26.7366   22.3772 C   0  0  0  0  0  0  0  0  0  0  0  0
  -24.9706   -9.9034   18.4681 C   0  0  0  0  0  0  0  0  0  0  0  0
  -25.6715  -10.9899   16.4271 C   0  0  0  0  0  0  0  0  0  0  0  0
  -26.7857  -26.4064   21.4968 C   0  0  0  0  0  0  0  0  0  0  0  0
  -24.3575   -7.3329   16.3587 C   0  0  0  0  0  0  0  0  0  0  0  0
  -24.0696   -5.9853   16.5744 C   0  0  0  0  0  0  0  0  0  0  0  0
  -27.0213  -28.7340   20.9087 C   0  0  0  0  0  0  0  0  0  0  0  0
  -29.4721  -20.4226   18.9531 C   0  0  0  0  0  0  0  0  0  0  0  0
  -30.1002  -18.9532   17.1411 C   0  0  0  0  0  0  0  0  0  0  0  0
  -21.8925   -6.5876   17.4315 C   0  0  0  0  0  0  0  0  0  0  0  0
  -26.9690  -11.2610   18.4471 C   0  0  0  0  0  0  0  0  0  0  0  0
  -29.7377  -21.3043   16.7195 C   0  0  0  0  0  0  0  0  0  0  0  0
  -29.3835  -11.2518   19.2704 C   0  0  0  0  0  0  0  0  0  0  0  0
  -18.0158  -28.4333   22.2939 C   0  0  0  0  0  0  0  0  0  0  0  0
  -25.3436  -28.0690   22.5221 C   0  0  0  0  0  0  0  0  0  0  0  0
  -19.2909  -28.0811   21.8118 C   0  0  0  0  0  0  0  0  0  0  0  0
  -25.9882  -29.0789   21.7935 C   0  0  0  0  0  0  0  0  0  0  0  0
  -29.4398  -21.5002   18.0681 C   0  0  0  0  0  0  0  0  0  0  0  0
  -29.8023  -19.1491   18.4896 C   0  0  0  0  0  0  0  0  0  0  0  0
  -24.7718  -10.1751   17.1145 C   0  0  0  0  0  0  0  0  0  0  0  0
  -27.4165  -27.4048   20.7603 C   0  0  0  0  0  0  0  0  0  0  0  0
  -23.4129   -8.3079   16.6794 C   0  0  0  0  0  0  0  0  0  0  0  0
  -22.8371   -5.6126   17.1108 C   0  0  0  0  0  0  0  0  0  0  0  0
  -30.0679  -20.0308   16.2560 C   0  0  0  0  0  0  0  0  0  0  0  0
  -22.1804   -7.9353   17.2158 C   0  0  0  0  0  0  0  0  0  0  0  0
  -28.1037  -11.8225   19.1349 C   0  0  0  0  0  0  0  0  0  0  0  0
  -30.0937  -12.1713   20.0028 C   0  0  0  0  0  0  0  0  0  0  0  0
  -29.7111  -22.4152   15.7772 C   0  0  0  0  0  0  0  0  0  0  0  0
  -29.8854  -10.0022   18.7780 C   0  0  0  0  0  0  0  0  0  0  0  0
  -22.6324  -29.6462   22.0067 C   0  0  0  0  0  0  0  0  0  0  0  0
  -24.2549  -32.0996   23.3744 C   0  0  0  0  0  0  0  0  0  0  0  0
  -27.2655  -33.5199   24.1267 C   0  0  0  0  0  0  0  0  0  0  0  0
  -29.5668  -18.0755   20.7564 C   0  0  0  0  0  0  0  0  0  0  0  0
  -17.5415  -29.8649   22.3104 C   0  0  0  0  0  0  0  0  0  0  0  0
  -24.2497  -28.4120   23.4957 C   0  0  0  0  0  0  0  0  0  0  0  0
  -25.5963  -30.5269   21.9278 C   0  0  0  0  0  0  0  0  0  0  0  0
  -18.6728  -30.8828   22.1905 C   0  0  0  0  0  0  0  0  0  0  0  0
  -29.5047  -15.5897   23.3047 C   0  0  0  0  0  0  0  0  0  0  0  0
  -19.6317  -30.4860   21.0726 C   0  0  0  0  0  0  0  0  0  0  0  0
  -29.2609  -14.2888   22.5363 C   0  0  0  0  0  0  0  0  0  0  0  0
  -28.7366  -16.7610   22.6950 C   0  0  0  0  0  0  0  0  0  0  0  0
  -28.7113  -15.6647   20.4889 C   0  0  0  0  0  0  0  0  0  0  0  0
  -20.2855  -29.1294   21.3621 C   0  0  1  0  0  0  0  0  0  0  0  0
  -23.5644  -29.7383   23.1816 C   0  0  1  0  0  0  0  0  0  0  0  0
  -29.5152  -14.4697   21.0269 C   0  0  2  0  0  0  0  0  0  0  0  0
  -28.2711  -35.5443   25.2165 C   0  0  0  0  0  0  0  0  0  0  0  0
  -23.5586  -33.7662   20.9152 C   0  0  0  0  0  0  0  0  0  0  0  0
  -25.3357  -35.3915   21.5996 C   0  0  0  0  0  0  0  0  0  0  0  0
  -23.3759  -34.9883   23.0895 C   0  0  0  0  0  0  0  0  0  0  0  0
  -28.6402  -31.8798   26.1711 C   0  0  0  0  0  0  0  0  0  0  0  0
  -29.0809  -22.8599   18.5938 C   0  0  0  0  0  0  0  0  0  0  0  0
  -28.7788  -25.7061   19.8005 C   0  0  0  0  0  0  0  0  0  1  0  0
  -25.1519  -33.2027   22.8670 C   0  0  1  0  0  0  0  0  0  0  0  0
  -27.8065  -34.1101   25.4164 C   0  0  2  0  0  0  0  0  0  0  0  0
  -24.3618  -34.3098   22.1136 C   0  0  0  0  0  0  0  0  0  0  0  0
  -28.0038  -13.0124   19.7334 N   0  0  0  0  0  0  0  0  0  0  0  0
  -29.2298  -13.1968   20.2521 N   0  0  0  0  0  0  0  0  0  0  0  0
  -24.5170  -30.8110   22.8879 N   0  0  0  0  0  0  0  0  0  0  0  0
  -29.0302  -16.8736   21.2646 N   0  0  0  0  0  0  0  0  0  0  0  0
  -31.3667  -12.1946   20.4515 N   0  0  0  0  0  0  0  0  0  0  0  0
  -28.5098  -22.6831   15.1299 N   0  0  0  0  0  0  0  0  0  0  0  0
  -29.0218   -9.1781   18.0436 N   0  0  0  0  0  0  0  0  0  0  0  0
  -29.8354  -18.0540   19.3883 N   0  0  0  0  0  0  0  0  0  0  0  0
  -21.3431  -29.2763   22.3389 N   0  0  0  0  0  0  0  0  0  0  0  0
  -25.9004  -33.6843   24.0230 N   0  0  0  0  0  0  0  0  0  0  0  0
  -30.2624  -23.7325   18.7192 N   0  0  0  0  0  0  0  0  0  0  0  0
  -28.9607  -33.3067   25.9096 N   0  3  0  0  0  0  0  0  0  0  0  0
  -30.7280  -23.0900   15.5457 O   0  0  0  0  0  0  0  0  0  0  0  0
  -31.0599   -9.6202   18.9973 O   0  0  0  0  0  0  0  0  0  0  0  0
  -23.0516  -29.8939   20.8821 O   0  0  0  0  0  0  0  0  0  0  0  0
  -23.3593  -32.3701   24.1783 O   0  0  0  0  0  0  0  0  0  0  0  0
  -27.9826  -32.9713   23.2929 O   0  0  0  0  0  0  0  0  0  0  0  0
  -29.7982  -19.0427   21.4865 O   0  0  0  0  0  0  0  0  0  0  0  0
  -31.2695  -26.0680   19.0708 O   0  0  0  0  0  0  0  0  0  0  0  0
  -29.5231  -25.7507   17.2818 O   0  0  0  0  0  0  0  0  0  0  0  0
  -23.7000   -9.6454   16.4640 O   0  0  0  0  0  0  0  0  0  0  0  0
  -28.4211  -27.0851   19.8998 O   0  0  0  0  0  0  0  0  0  1  0  0
  -22.5601   -4.3183   17.3164 F   0  0  0  0  0  0  0  0  0  0  0  0
  -30.3566  -19.8297   14.9623 F   0  0  0  0  0  0  0  0  0  0  0  0
  -21.2685   -8.8674   17.5248 F   0  0  0  0  0  0  0  0  0  0  0  0
  -30.0635  -25.4235   18.5871 S   0  0  0  0  0  0  0  0  0  0  0  0
  1  2  1  0  0  0  0
  1  5  2  0  0  0  0
  2  6  2  0  0  0  0
  3  8  2  0  0  0  0
  3 17  1  0  0  0  0
  4  9  1  0  0  0  0
  4 17  2  0  0  0  0
  5 20  1  0  0  0  0
  6 22  1  0  0  0  0
  7 10  2  0  0  0  0
  7 21  1  0  0  0  0
  8 26  1  0  0  0  0
  9 26  2  0  0  0  0
 10 27  1  0  0  0  0
 11 12  2  0  0  0  0
 11 28  1  0  0  0  0
 12 29  1  0  0  0  0
 13 23  1  0  0  0  0
 13 27  2  0  0  0  0
 14 24  1  0  0  0  0
 14 25  2  0  0  0  0
 15 25  1  0  0  0  0
 15 30  2  0  0  0  0
 16 29  2  0  0  0  0
 16 31  1  0  0  0  0
 17 32  1  0  0  0  0
 18 24  2  0  0  0  0
 18 30  1  0  0  0  0
 18 34  1  0  0  0  0
 19 32  1  0  0  0  0
 19 33  2  0  0  0  0
 19 35  1  0  0  0  0
 20 22  2  0  0  0  0
 20 40  1  0  0  0  0
 21 23  2  0  0  0  0
 21 41  1  0  0  0  0
 22 49  1  0  0  0  0
 23 42  1  0  0  0  0
 24 57  1  0  0  0  0
 25 69  1  0  0  0  0
 26 82  1  0  0  0  0
 27 83  1  0  0  0  0
 28 31  2  0  0  0  0
 28 82  1  0  0  0  0
 29 84  1  0  0  0  0
 30 85  1  0  0  0  0
 31 86  1  0  0  0  0
 32 62  2  0  0  0  0
 33 63  1  0  0  0  0
 33 66  1  0  0  0  0
 34 67  1  0  0  0  0
 34 74  2  0  0  0  0
 35 68  1  0  0  0  0
 35 75  2  0  0  0  0
 36 50  1  0  0  0  0
 36 70  1  0  0  0  0
 36 76  2  0  0  0  0
 37 59  1  0  0  0  0
 37 64  1  0  0  0  0
 37 77  2  0  0  0  0
 38 60  1  0  0  0  0
 38 71  1  0  0  0  0
 38 78  2  0  0  0  0
 39 65  1  0  0  0  0
 39 69  1  0  0  0  0
 39 79  2  0  0  0  0
 40 43  1  0  0  0  0
 41 50  1  0  0  0  0
 42 64  1  0  0  0  0
 43 45  1  0  0  0  0
 44 46  1  0  0  0  0
 44 47  1  0  0  0  0
 45 49  1  0  0  0  0
 46 51  1  0  0  0  0
 47 65  1  0  0  0  0
 48 51  1  0  0  0  0
 48 65  1  0  0  0  0
 49 70  1  0  0  0  0
 50 64  1  0  0  0  0
 51 63  1  0  0  0  0
 52 60  1  0  0  0  0
 53 61  1  0  0  0  0
 54 61  1  0  0  0  0
 55 61  1  0  0  0  0
 56 73  1  0  0  0  0
 57 72  1  0  0  0  0
 58 83  1  0  0  0  0
 58 87  1  0  0  0  0
 59 61  1  0  0  0  0
 59 71  1  0  0  0  0
 60 73  1  0  0  0  0
 62 63  1  0  0  0  0
 72 87  1  0  0  0  0
 80 87  2  0  0  0  0
 81 87  2  0  0  0  0
M  CHG  1  73   1
M  ISO  4  39 100  58 101  69 100  83 101
M  END
> <Batch ID>
0065

> <Smiles>
CNC(C)C(=O)NC(C(=O)N1Cc2cc([101O:1][101CH2:1]S(=O)(=O)NCc3cc([100NH:0][100C:0](=O)N4CCCC(n5nc(-c6ccc(Oc7ccc(F)cc7F)cc6)c(C(N)=O)c5N)C4)cc(F)c3C(N)=O)ccc2CC1C(=O)NC1CCCc2ccccc21)C(C)(C)C

> <Shape>
0.286

> <Color>
0.095

> <Negative vol penalty>
0.000

$$$$

  -OEChem-04042323183D

 90 99  0     1  0  0  0  0  0999 V2000
  -17.9170  -24.9028   21.1507 C   0  0  0  0  0  0  0  0  0  0  0  0
  -19.2346  -24.8403   20.7087 C   0  0  0  0  0  0  0  0  0  0  0  0
  -22.3046  -14.9142   21.3859 C   0  0  0  0  0  0  0  0  0  0  0  0
  -23.0119  -17.1980   21.0374 C   0  0  0  0  0  0  0  0  0  0  0  0
  -17.5226  -25.9174   22.0219 C   0  0  0  0  0  0  0  0  0  0  0  0
  -20.1584  -25.7930   21.1368 C   0  0  0  0  0  0  0  0  0  0  0  0
  -24.5816  -23.7364   22.4969 C   0  0  0  0  0  0  0  0  0  0  0  0
  -33.2559  -18.7543   21.3015 C   0  0  0  0  0  0  0  0  0  0  0  0
  -32.4762  -17.6502   20.9574 C   0  0  0  0  0  0  0  0  0  0  0  0
  -21.3368  -15.3519   22.2900 C   0  0  0  0  0  0  0  0  0  0  0  0
  -22.0441  -17.6357   21.9415 C   0  0  0  0  0  0  0  0  0  0  0  0
  -25.4517  -23.3631   21.4735 C   0  0  0  0  0  0  0  0  0  0  0  0
  -18.7115  -18.1965   21.9429 C   0  0  0  0  0  0  0  0  0  0  0  0
  -17.9431  -19.3032   21.5820 C   0  0  0  0  0  0  0  0  0  0  0  0
  -26.7122  -25.3916   21.8135 C   0  0  0  0  0  0  0  0  0  0  0  0
  -30.8416  -19.1179   19.9518 C   0  0  0  0  0  0  0  0  0  0  0  0
  -18.7502  -20.4960   23.5219 C   0  0  0  0  0  0  0  0  0  0  0  0
  -23.1422  -15.8373   20.7596 C   0  0  0  0  0  0  0  0  0  0  0  0
  -23.9946  -15.2196   18.4359 C   0  0  0  0  0  0  0  0  0  0  0  0
  -18.4443  -26.8774   22.4685 C   0  0  0  0  0  0  0  0  0  0  0  0
  -24.7642  -24.9473   23.1801 C   0  0  0  0  0  0  0  0  0  0  0  0
  -19.7757  -26.8222   22.0137 C   0  0  0  0  0  0  0  0  0  0  0  0
  -25.8445  -25.7767   22.8469 C   0  0  0  0  0  0  0  0  0  0  0  0
  -32.8285  -20.0403   20.9709 C   0  0  0  0  0  0  0  0  0  0  0  0
  -31.6214  -20.2221   20.2960 C   0  0  0  0  0  0  0  0  0  0  0  0
  -31.2690  -17.8319   20.2826 C   0  0  0  0  0  0  0  0  0  0  0  0
  -21.2065  -16.7126   22.5678 C   0  0  0  0  0  0  0  0  0  0  0  0
  -26.5155  -24.1921   21.1297 C   0  0  0  0  0  0  0  0  0  0  0  0
  -19.4992  -18.2394   23.0933 C   0  0  0  0  0  0  0  0  0  0  0  0
  -17.9625  -20.4530   22.3715 C   0  0  0  0  0  0  0  0  0  0  0  0
  -19.5186  -19.3892   23.8828 C   0  0  0  0  0  0  0  0  0  0  0  0
  -24.1425  -15.3857   19.8260 C   0  0  0  0  0  0  0  0  0  0  0  0
  -25.2227  -14.7752   18.0106 C   0  0  0  0  0  0  0  0  0  0  0  0
  -31.8315  -22.4608   19.1230 C   0  0  0  0  0  0  0  0  0  0  0  0
  -22.8495  -15.4467   17.6035 C   0  0  0  0  0  0  0  0  0  0  0  0
  -23.0472  -27.5971   23.5465 C   0  0  0  0  0  0  0  0  0  0  0  0
  -25.4203  -28.3832   25.6136 C   0  0  0  0  0  0  0  0  0  0  0  0
  -28.6611  -27.9657   26.5983 C   0  0  0  0  0  0  0  0  0  0  0  0
  -30.7561  -15.3674   20.1869 C   0  0  0  0  0  0  0  0  0  0  0  0
  -17.9601  -27.9831   23.3728 C   0  0  0  0  0  0  0  0  0  0  0  0
  -23.8325  -25.3229   24.2996 C   0  0  0  0  0  0  0  0  0  0  0  0
  -26.0962  -27.0774   23.5633 C   0  0  0  0  0  0  0  0  0  0  0  0
  -19.0887  -28.7341   24.0746 C   0  0  0  0  0  0  0  0  0  0  0  0
  -29.0446  -12.3169   19.5218 C   0  0  0  0  0  0  0  0  0  0  0  0
  -20.1928  -29.0868   23.0829 C   0  0  0  0  0  0  0  0  0  0  0  0
  -27.5806  -12.7434   19.3918 C   0  0  0  0  0  0  0  0  0  0  0  0
  -29.7763  -13.1205   20.5953 C   0  0  0  0  0  0  0  0  0  0  0  0
  -29.9324  -22.0797   20.4786 C   0  0  0  0  0  0  0  0  0  0  0  0
  -28.2133  -15.0054   20.3245 C   0  0  0  0  0  0  0  0  0  0  0  0
  -20.8129  -27.8228   22.4752 C   0  0  1  0  0  0  0  0  0  0  0  0
  -23.8116  -26.8219   24.5821 C   0  0  1  0  0  0  0  0  0  0  0  0
  -29.6319  -23.2653   19.5699 C   0  0  2  0  0  0  0  0  0  0  0  0
  -27.4520  -14.2686   19.2104 C   0  0  2  0  0  0  0  0  0  0  0  0
  -31.0329  -23.7667   19.1663 C   0  0  1  0  0  0  0  0  0  0  0  0
  -33.6841  -21.2045   21.3521 C   0  0  0  0  0  0  0  0  0  0  0  0
  -33.1059  -24.9928   19.8363 C   0  0  0  0  0  0  0  0  0  0  0  0
  -30.3234  -28.7721   28.2965 C   0  0  0  0  0  0  0  0  0  0  0  0
  -30.4094  -23.5149   16.7469 C   0  0  0  0  0  0  0  0  0  0  0  0
  -30.2486  -25.7609   17.8575 C   0  0  0  0  0  0  0  0  0  0  0  0
  -25.7411  -30.9888   24.0586 C   0  0  0  0  0  0  0  0  0  0  0  0
  -27.9663  -31.2938   25.1649 C   0  0  0  0  0  0  0  0  0  0  0  0
  -25.8881  -31.2319   26.5433 C   0  0  0  0  0  0  0  0  0  0  0  0
  -29.0018  -25.2503   27.7251 C   0  0  0  0  0  0  0  0  0  0  0  0
  -28.7148  -24.2856   20.2294 C   0  0  0  0  0  0  0  0  0  1  0  0
  -31.6916  -24.6923   20.1989 C   0  0  0  0  0  0  0  0  0  0  0  0
  -26.7462  -29.0958   25.4981 C   0  0  1  0  0  0  0  0  0  0  0  0
  -29.2751  -27.7215   27.9650 C   0  0  2  0  0  0  0  0  0  0  0  0
  -31.0170  -24.4437   17.7947 C   0  0  0  0  0  0  0  0  0  0  0  0
  -26.5798  -30.6291   25.3012 C   0  0  0  0  0  0  0  0  0  0  0  0
  -25.3678  -15.0723   20.2553 N   0  0  0  0  0  0  0  0  0  0  0  0
  -26.0011  -14.7046   19.1284 N   0  0  0  0  0  0  0  0  0  0  0  0
  -31.1667  -21.5304   19.9489 N   0  0  0  0  0  0  0  0  0  0  0  0
  -25.1538  -27.4037   24.6464 N   0  0  0  0  0  0  0  0  0  0  0  0
  -29.6140  -14.5563   20.3563 N   0  0  0  0  0  0  0  0  0  0  0  0
  -25.7018  -14.4418   16.7934 N   0  0  0  0  0  0  0  0  0  0  0  0
  -21.6678  -15.9034   18.2029 N   0  0  0  0  0  0  0  0  0  0  0  0
  -30.4773  -16.7100   19.9332 N   0  0  0  0  0  0  0  0  0  0  0  0
  -21.7281  -27.2080   23.4127 N   0  0  0  0  0  0  0  0  0  0  0  0
  -27.5133  -28.7251   26.6824 N   0  0  0  0  0  0  0  0  0  0  0  0
  -29.9234  -26.3803   28.0094 N   0  3  0  0  0  0  0  0  0  0  0  0
  -32.8837  -22.3430   18.5101 O   0  0  0  0  0  0  0  0  0  0  0  0
  -22.8688  -15.2348   16.3673 O   0  0  0  0  0  0  0  0  0  0  0  0
  -23.6120  -28.4836   22.9166 O   0  0  0  0  0  0  0  0  0  0  0  0
  -24.6525  -28.6797   26.5324 O   0  0  0  0  0  0  0  0  0  0  0  0
  -29.1527  -27.5298   25.5597 O   0  0  0  0  0  0  0  0  0  0  0  0
  -31.8968  -14.9000   20.2343 O   0  0  0  0  0  0  0  0  0  0  0  0
  -20.2621  -17.1401   23.4498 O   0  0  0  0  0  0  0  0  0  0  0  0
  -27.3659  -23.8304   20.1307 O   0  0  0  0  0  0  0  0  0  1  0  0
  -17.2257  -21.5163   22.0240 F   0  0  0  0  0  0  0  0  0  0  0  0
  -20.2743  -19.4368   24.9884 F   0  0  0  0  0  0  0  0  0  0  0  0
  1  2  1  0  0  0  0
  1  5  2  0  0  0  0
  2  6  2  0  0  0  0
  3 10  2  0  0  0  0
  3 18  1  0  0  0  0
  4 11  1  0  0  0  0
  4 18  2  0  0  0  0
  5 20  1  0  0  0  0
  6 22  1  0  0  0  0
  7 12  2  0  0  0  0
  7 21  1  0  0  0  0
  8  9  2  0  0  0  0
  8 24  1  0  0  0  0
  9 26  1  0  0  0  0
 10 27  1  0  0  0  0
 11 27  2  0  0  0  0
 12 28  1  0  0  0  0
 13 14  2  0  0  0  0
 13 29  1  0  0  0  0
 14 30  1  0  0  0  0
 15 23  1  0  0  0  0
 15 28  2  0  0  0  0
 16 25  1  0  0  0  0
 16 26  2  0  0  0  0
 17 30  2  0  0  0  0
 17 31  1  0  0  0  0
 18 32  1  0  0  0  0
 19 32  1  0  0  0  0
 19 33  2  0  0  0  0
 19 35  1  0  0  0  0
 20 22  2  0  0  0  0
 20 40  1  0  0  0  0
 21 23  2  0  0  0  0
 21 41  1  0  0  0  0
 22 50  1  0  0  0  0
 23 42  1  0  0  0  0
 24 25  2  0  0  0  0
 24 55  1  0  0  0  0
 25 72  1  0  0  0  0
 26 77  1  0  0  0  0
 27 87  1  0  0  0  0
 28 88  1  0  0  0  0
 29 31  2  0  0  0  0
 29 87  1  0  0  0  0
 30 89  1  0  0  0  0
 31 90  1  0  0  0  0
 32 70  2  0  0  0  0
 33 71  1  0  0  0  0
 33 75  1  0  0  0  0
 34 54  1  0  0  0  0
 34 72  1  0  0  0  0
 34 81  2  0  0  0  0
 35 76  1  0  0  0  0
 35 82  2  0  0  0  0
 36 51  1  0  0  0  0
 36 78  1  0  0  0  0
 36 83  2  0  0  0  0
 37 66  1  0  0  0  0
 37 73  1  0  0  0  0
 37 84  2  0  0  0  0
 38 67  1  0  0  0  0
 38 79  1  0  0  0  0
 38 85  2  0  0  0  0
 39 74  1  0  0  0  0
 39 77  1  0  0  0  0
 39 86  2  0  0  0  0
 40 43  1  0  0  0  0
 41 51  1  0  0  0  0
 42 73  1  0  0  0  0
 43 45  1  0  0  0  0
 44 46  1  0  0  0  0
 44 47  1  0  0  0  0
 45 50  1  0  0  0  0
 46 53  1  0  0  0  0
 47 74  1  0  0  0  0
 48 52  1  0  0  0  0
 48 72  1  0  0  0  0
 49 53  1  0  0  0  0
 49 74  1  0  0  0  0
 50 78  1  0  0  0  0
 51 73  1  0  0  0  0
 52 54  1  0  0  0  0
 52 64  1  0  0  0  0
 53 71  1  0  0  0  0
 54 65  1  0  0  0  0
 54 68  1  0  0  0  0
 56 65  1  0  0  0  0
 57 67  1  0  0  0  0
 58 68  1  0  0  0  0
 59 68  1  0  0  0  0
 60 69  1  0  0  0  0
 61 69  1  0  0  0  0
 62 69  1  0  0  0  0
 63 80  1  0  0  0  0
 64 88  1  0  0  0  0
 66 69  1  0  0  0  0
 66 79  1  0  0  0  0
 67 80  1  0  0  0  0
 70 71  1  0  0  0  0
M  CHG  1  80   1
M  ISO  4  39 100  64 101  77 100  88 101
M  END
> <Batch ID>
0065

> <Smiles>
CCC1(C(C)C)C(=O)N(c2cc([100NH:0][100C:0](=O)N3CCCC(n4nc(-c5ccc(Oc6ccc(F)cc6F)cc5)c(C(N)=O)c4N)C3)ccc2C)CC1[101CH2:1][101O:1]c1ccc2c(c1)CN(C(=O)C(NC(=O)C(C)NC)C(C)(C)C)C(C(=O)NC1CCCc3ccccc31)C2

> <Shape>
0.200

> <Color>
0.087

> <Negative vol penalty>
0.000

$$$$

  -OEChem-04042323183D

 88 97  0     1  0  0  0  0  0999 V2000
  -28.9723  -25.2996   16.5709 C   0  0  0  0  0  0  0  0  0  0  0  0
  -27.8156  -25.2847   17.3437 C   0  0  0  0  0  0  0  0  0  0  0  0
  -26.3920  -12.1823   21.0935 C   0  0  0  0  0  0  0  0  0  0  0  0
  -23.9798  -12.3087   21.0441 C   0  0  0  0  0  0  0  0  0  0  0  0
  -30.0892  -26.0133   17.0035 C   0  0  0  0  0  0  0  0  0  0  0  0
  -27.7755  -25.9827   18.5502 C   0  0  0  0  0  0  0  0  0  0  0  0
  -23.4946  -28.6266   19.1236 C   0  0  0  0  0  0  0  0  0  0  0  0
  -26.3189  -11.1532   22.0323 C   0  0  0  0  0  0  0  0  0  0  0  0
  -23.9067  -11.2796   21.9829 C   0  0  0  0  0  0  0  0  0  0  0  0
  -22.3552  -27.9188   19.5035 C   0  0  0  0  0  0  0  0  0  0  0  0
  -23.0770   -8.4406   24.0971 C   0  0  0  0  0  0  0  0  0  0  0  0
  -22.1530   -7.4204   23.8715 C   0  0  0  0  0  0  0  0  0  0  0  0
  -20.0975  -19.4190   20.3137 C   0  0  0  0  0  0  0  0  0  0  0  0
  -22.6722  -28.6435   21.7825 C   0  0  0  0  0  0  0  0  0  0  0  0
  -21.2379  -21.3779   21.1498 C   0  0  0  0  0  0  0  0  0  0  0  0
  -23.2498   -6.8884   21.7855 C   0  0  0  0  0  0  0  0  0  0  0  0
  -25.2225  -12.7601   20.5994 C   0  0  0  0  0  0  0  0  0  0  0  0
  -18.8889  -19.9130   20.8046 C   0  0  0  0  0  0  0  0  0  0  0  0
  -25.3192  -13.6960   18.2283 C   0  0  0  0  0  0  0  0  0  0  0  0
  -30.0595  -26.7283   18.2112 C   0  0  0  0  0  0  0  0  0  0  0  0
  -24.2389  -29.3405   20.0739 C   0  0  0  0  0  0  0  0  0  0  0  0
  -28.8935  -26.7055   19.0000 C   0  0  0  0  0  0  0  0  0  0  0  0
  -23.8193  -29.3616   21.4116 C   0  0  0  0  0  0  0  0  0  0  0  0
  -18.8548  -21.1395   21.4680 C   0  0  0  0  0  0  0  0  0  0  0  0
  -20.0293  -21.8720   21.6407 C   0  0  0  0  0  0  0  0  0  0  0  0
  -21.2720  -20.1514   20.4864 C   0  0  0  0  0  0  0  0  0  0  0  0
  -25.0762  -10.7019   22.4769 C   0  0  0  0  0  0  0  0  0  0  0  0
  -21.9454  -27.9247   20.8336 C   0  0  0  0  0  0  0  0  0  0  0  0
  -24.0874   -8.6848   23.1670 C   0  0  0  0  0  0  0  0  0  0  0  0
  -22.2394   -6.6443   22.7157 C   0  0  0  0  0  0  0  0  0  0  0  0
  -24.1738   -7.9087   22.0112 C   0  0  0  0  0  0  0  0  0  0  0  0
  -25.2974  -13.8235   19.6301 C   0  0  0  0  0  0  0  0  0  0  0  0
  -25.3955  -14.9875   17.7672 C   0  0  0  0  0  0  0  0  0  0  0  0
  -19.6124  -23.3638   23.6437 C   0  0  0  0  0  0  0  0  0  0  0  0
  -17.6789  -19.1255   20.6085 C   0  0  0  0  0  0  0  0  0  0  0  0
  -25.2744  -12.5156   17.4156 C   0  0  0  0  0  0  0  0  0  0  0  0
  -27.2161  -29.1767   21.1754 C   0  0  0  0  0  0  0  0  0  0  0  0
  -26.3658  -31.8794   22.7549 C   0  0  0  0  0  0  0  0  0  0  0  0
  -23.8716  -33.8122   24.0549 C   0  0  0  0  0  0  0  0  0  0  0  0
  -23.7554  -20.2496   20.0751 C   0  0  0  0  0  0  0  0  0  0  0  0
  -31.3074  -27.4463   18.6606 C   0  0  0  0  0  0  0  0  0  0  0  0
  -25.4505  -30.1208   19.6432 C   0  0  0  0  0  0  0  0  0  0  0  0
  -24.5718  -30.1290   22.4667 C   0  0  0  0  0  0  0  0  0  0  0  0
  -19.8705  -24.8229   23.9429 C   0  0  0  0  0  0  0  0  0  0  0  0
  -31.0576  -28.4665   19.7683 C   0  0  0  0  0  0  0  0  0  0  0  0
  -27.0222  -19.3172   19.0091 C   0  0  0  0  0  0  0  0  0  0  0  0
  -30.1762  -27.8656   20.8587 C   0  0  0  0  0  0  0  0  0  0  0  0
  -26.9508  -17.7914   18.9139 C   0  0  0  0  0  0  0  0  0  0  0  0
  -26.2057  -19.8509   20.1848 C   0  0  0  0  0  0  0  0  0  0  0  0
  -20.5180  -24.3422   21.6985 C   0  0  0  0  0  0  0  0  0  0  0  0
  -24.7378  -17.8732   20.1318 C   0  0  0  0  0  0  0  0  0  0  0  0
  -28.8029  -27.4705   20.3026 C   0  0  1  0  0  0  0  0  0  0  0  0
  -26.4236  -30.3926   20.7863 C   0  0  1  0  0  0  0  0  0  0  0  0
  -19.9568  -25.4604   22.5635 C   0  0  2  0  0  0  0  0  0  0  0  0
  -25.4921  -17.2938   18.9238 C   0  0  2  0  0  0  0  0  0  0  0  0
  -17.5568  -21.6692   21.9935 C   0  0  0  0  0  0  0  0  0  0  0  0
  -23.4887  -35.9451   25.3205 C   0  0  0  0  0  0  0  0  0  0  0  0
  -27.2822  -30.5156   25.3259 C   0  0  0  0  0  0  0  0  0  0  0  0
  -26.0254  -32.2556   26.6146 C   0  0  0  0  0  0  0  0  0  0  0  0
  -27.9214  -32.9261   25.1387 C   0  0  0  0  0  0  0  0  0  0  0  0
  -22.2775  -34.9719   21.8475 C   0  0  0  0  0  0  0  0  0  0  0  0
  -20.8058  -26.7195   22.5379 C   0  0  0  0  0  0  0  0  0  1  0  0
  -25.7417  -32.1826   24.0956 C   0  0  1  0  0  0  0  0  0  0  0  0
  -23.5901  -35.3000   23.9470 C   0  0  2  0  0  0  0  0  0  0  0  0
  -26.7294  -31.9539   25.2744 C   0  0  0  0  0  0  0  0  0  0  0  0
  -25.3553  -15.0956   20.0331 N   0  0  0  0  0  0  0  0  0  0  0  0
  -25.4144  -15.7792   18.8776 N   0  0  0  0  0  0  0  0  0  0  0  0
  -20.0176  -23.1287   22.3165 N   0  0  0  0  0  0  0  0  0  0  0  0
  -25.7535  -30.8710   21.9972 N   0  0  0  0  0  0  0  0  0  0  0  0
  -24.8340  -19.3413   20.1259 N   0  0  0  0  0  0  0  0  0  0  0  0
  -25.4477  -15.5118   16.5243 N   0  0  0  0  0  0  0  0  0  0  0  0
  -17.3436  -18.2024   21.5930 N   0  0  0  0  0  0  0  0  0  0  0  0
  -25.1968  -11.2691   18.0516 N   0  0  0  0  0  0  0  0  0  0  0  0
  -22.4998  -19.6492   19.9883 N   0  0  0  0  0  0  0  0  0  0  0  0
  -27.9655  -28.6404   20.1457 N   0  0  0  0  0  0  0  0  0  0  0  0
  -25.2231  -33.5433   24.0061 N   0  0  0  0  0  0  0  0  0  0  0  0
  -22.3089  -35.5336   23.2224 N   0  3  0  0  0  0  0  0  0  0  0  0
  -19.1828  -22.5878   24.4852 O   0  0  0  0  0  0  0  0  0  0  0  0
  -16.9790  -19.2598   19.5910 O   0  0  0  0  0  0  0  0  0  0  0  0
  -25.3190  -12.5640   16.1629 O   0  0  0  0  0  0  0  0  0  0  0  0
  -27.1534  -28.7571   22.3250 O   0  0  0  0  0  0  0  0  0  0  0  0
  -27.3556  -32.5188   22.3901 O   0  0  0  0  0  0  0  0  0  0  0  0
  -22.9818  -32.9729   24.1746 O   0  0  0  0  0  0  0  0  0  0  0  0
  -23.9342  -21.4702   20.0788 O   0  0  0  0  0  0  0  0  0  0  0  0
  -25.0045   -9.6976   23.3928 O   0  0  0  0  0  0  0  0  0  0  0  0
  -20.8339  -27.2342   21.2073 O   0  0  0  0  0  0  0  0  0  1  0  0
  -21.3530   -5.6636   22.4999 F   0  0  0  0  0  0  0  0  0  0  0  0
  -25.1430   -8.1378   21.1145 F   0  0  0  0  0  0  0  0  0  0  0  0
  1  2  1  0  0  0  0
  1  5  2  0  0  0  0
  2  6  2  0  0  0  0
  3  8  2  0  0  0  0
  3 17  1  0  0  0  0
  4  9  1  0  0  0  0
  4 17  2  0  0  0  0
  5 20  1  0  0  0  0
  6 22  1  0  0  0  0
  7 10  2  0  0  0  0
  7 21  1  0  0  0  0
  8 27  1  0  0  0  0
  9 27  2  0  0  0  0
 10 28  1  0  0  0  0
 11 12  2  0  0  0  0
 11 29  1  0  0  0  0
 12 30  1  0  0  0  0
 13 18  2  0  0  0  0
 13 26  1  0  0  0  0
 14 23  1  0  0  0  0
 14 28  2  0  0  0  0
 15 25  1  0  0  0  0
 15 26  2  0  0  0  0
 16 30  2  0  0  0  0
 16 31  1  0  0  0  0
 17 32  1  0  0  0  0
 18 24  1  0  0  0  0
 18 35  1  0  0  0  0
 19 32  1  0  0  0  0
 19 33  2  0  0  0  0
 19 36  1  0  0  0  0
 20 22  2  0  0  0  0
 20 41  1  0  0  0  0
 21 23  2  0  0  0  0
 21 42  1  0  0  0  0
 22 52  1  0  0  0  0
 23 43  1  0  0  0  0
 24 25  2  0  0  0  0
 24 56  1  0  0  0  0
 25 68  1  0  0  0  0
 26 74  1  0  0  0  0
 27 85  1  0  0  0  0
 28 86  1  0  0  0  0
 29 31  2  0  0  0  0
 29 85  1  0  0  0  0
 30 87  1  0  0  0  0
 31 88  1  0  0  0  0
 32 66  2  0  0  0  0
 33 67  1  0  0  0  0
 33 71  1  0  0  0  0
 34 44  1  0  0  0  0
 34 68  1  0  0  0  0
 34 78  2  0  0  0  0
 35 72  1  0  0  0  0
 35 79  2  0  0  0  0
 36 73  1  0  0  0  0
 36 80  2  0  0  0  0
 37 53  1  0  0  0  0
 37 75  1  0  0  0  0
 37 81  2  0  0  0  0
 38 63  1  0  0  0  0
 38 69  1  0  0  0  0
 38 82  2  0  0  0  0
 39 64  1  0  0  0  0
 39 76  1  0  0  0  0
 39 83  2  0  0  0  0
 40 70  1  0  0  0  0
 40 74  1  0  0  0  0
 40 84  2  0  0  0  0
 41 45  1  0  0  0  0
 42 53  1  0  0  0  0
 43 69  1  0  0  0  0
 44 54  1  0  0  0  0
 45 47  1  0  0  0  0
 46 48  1  0  0  0  0
 46 49  1  0  0  0  0
 47 52  1  0  0  0  0
 48 55  1  0  0  0  0
 49 70  1  0  0  0  0
 50 54  1  0  0  0  0
 50 68  1  0  0  0  0
 51 55  1  0  0  0  0
 51 70  1  0  0  0  0
 52 75  1  0  0  0  0
 53 69  1  0  0  0  0
 54 62  1  0  0  0  0
 55 67  1  0  0  0  0
 57 64  1  0  0  0  0
 58 65  1  0  0  0  0
 59 65  1  0  0  0  0
 60 65  1  0  0  0  0
 61 77  1  0  0  0  0
 62 86  1  0  0  0  0
 63 65  1  0  0  0  0
 63 76  1  0  0  0  0
 64 77  1  0  0  0  0
 66 67  1  0  0  0  0
M  CHG  1  77   1
M  ISO  4  40 100  62 101  74 100  86 101
M  END
> <Batch ID>
0065

> <Smiles>
CNC(C)C(=O)NC(C(=O)N1Cc2cc([101O:1][101CH2:1]C3CC(=O)N(c4cc([100NH:0][100C:0](=O)N5CCCC(n6nc(-c7ccc(Oc8ccc(F)cc8F)cc7)c(C(N)=O)c6N)C5)cc(C(N)=O)c4C)C3)ccc2CC1C(=O)NC1CCCc2ccccc21)C(C)(C)C

> <Shape>
0.252

> <Color>
0.068

> <Negative vol penalty>
0.000

$$$$

  -OEChem-04042323183D

 88 97  0     1  0  0  0  0  0999 V2000
  -26.6294  -35.1300   24.0434 C   0  0  0  0  0  0  0  0  0  0  0  0
  -27.0761  -33.8638   23.6793 C   0  0  0  0  0  0  0  0  0  0  0  0
  -24.1211  -13.5359   21.5535 C   0  0  0  0  0  0  0  0  0  0  0  0
  -26.5268  -13.3220   21.6139 C   0  0  0  0  0  0  0  0  0  0  0  0
  -25.3293  -35.2996   24.5177 C   0  0  0  0  0  0  0  0  0  0  0  0
  -26.2233  -32.7662   23.7904 C   0  0  0  0  0  0  0  0  0  0  0  0
  -26.3805  -29.7638   19.7153 C   0  0  0  0  0  0  0  0  0  0  0  0
  -24.0322  -12.3367   20.8467 C   0  0  0  0  0  0  0  0  0  0  0  0
  -26.4379  -12.1227   20.9072 C   0  0  0  0  0  0  0  0  0  0  0  0
  -27.4680  -28.8985   19.6036 C   0  0  0  0  0  0  0  0  0  0  0  0
  -23.1476   -9.1485   19.3407 C   0  0  0  0  0  0  0  0  0  0  0  0
  -22.1777   -8.2298   19.7418 C   0  0  0  0  0  0  0  0  0  0  0  0
  -26.1038  -27.0875   20.4273 C   0  0  0  0  0  0  0  0  0  0  0  0
  -32.8621  -21.0493   19.4714 C   0  0  0  0  0  0  0  0  0  0  0  0
  -31.4013  -19.7981   20.9333 C   0  0  0  0  0  0  0  0  0  0  0  0
  -30.5428  -21.6873   19.6961 C   0  0  0  0  0  0  0  0  0  0  0  0
  -31.8820  -26.1498   19.9834 C   0  0  0  0  0  0  0  0  0  0  0  0
  -23.1976   -8.1078   21.9286 C   0  0  0  0  0  0  0  0  0  0  0  0
  -25.3684  -14.0286   21.9371 C   0  0  0  0  0  0  0  0  0  0  0  0
  -25.4409  -15.4347   24.0644 C   0  0  0  0  0  0  0  0  0  0  0  0
  -24.4570  -34.2050   24.6255 C   0  0  0  0  0  0  0  0  0  0  0  0
  -25.1475  -29.2992   20.1950 C   0  0  0  0  0  0  0  0  0  0  0  0
  -24.9108  -32.9210   24.2678 C   0  0  0  0  0  0  0  0  0  0  0  0
  -25.0016  -27.9484   20.5418 C   0  0  0  0  0  0  0  0  0  0  0  0
  -32.6614  -20.0025   20.3711 C   0  0  0  0  0  0  0  0  0  0  0  0
  -31.8028  -21.8917   19.1339 C   0  0  0  0  0  0  0  0  0  0  0  0
  -30.6445  -26.1757   19.2943 C   0  0  0  0  0  0  0  0  0  0  0  0
  -30.3420  -20.6405   20.5958 C   0  0  0  0  0  0  0  0  0  0  0  0
  -25.1906  -11.6301   20.5236 C   0  0  0  0  0  0  0  0  0  0  0  0
  -27.3305  -27.5608   19.9623 C   0  0  0  0  0  0  0  0  0  0  0  0
  -24.1425   -9.5469   20.2336 C   0  0  0  0  0  0  0  0  0  0  0  0
  -22.2027   -7.7094   21.0357 C   0  0  0  0  0  0  0  0  0  0  0  0
  -24.1675   -9.0266   21.5275 C   0  0  0  0  0  0  0  0  0  0  0  0
  -25.4610  -15.2677   22.6667 C   0  0  0  0  0  0  0  0  0  0  0  0
  -25.5577  -16.7906   24.2498 C   0  0  0  0  0  0  0  0  0  0  0  0
  -32.5212  -24.9798   19.6372 C   0  0  0  0  0  0  0  0  0  0  0  0
  -30.5650  -25.0207   18.5480 C   0  0  0  0  0  0  0  0  0  0  0  0
  -25.3270  -14.4521   25.1022 C   0  0  0  0  0  0  0  0  0  0  0  0
  -23.3168  -29.9774   22.7034 C   0  0  0  0  0  0  0  0  0  0  0  0
  -21.2418  -27.9561   21.2436 C   0  0  0  0  0  0  0  0  0  0  0  0
  -20.7633  -25.3599   19.0808 C   0  0  0  0  0  0  0  0  0  0  0  0
  -27.9045  -21.1765   20.9391 C   0  0  0  0  0  0  0  0  0  0  0  0
  -23.0759  -34.4300   25.1882 C   0  0  0  0  0  0  0  0  0  0  0  0
  -23.9768  -30.2393   20.2844 C   0  0  0  0  0  0  0  0  0  0  0  0
  -23.6935  -27.3952   21.0431 C   0  0  0  0  0  0  0  0  0  0  0  0
  -22.1140  -33.2750   24.9219 C   0  0  0  0  0  0  0  0  0  0  0  0
  -24.5531  -20.9615   22.1218 C   0  0  0  0  0  0  0  0  0  0  0  0
  -22.7807  -31.9407   25.2412 C   0  0  0  0  0  0  0  0  0  0  0  0
  -24.4057  -19.4936   22.5287 C   0  0  0  0  0  0  0  0  0  0  0  0
  -25.4210  -21.1200   20.8747 C   0  0  0  0  0  0  0  0  0  0  0  0
  -26.5899  -19.0052   21.3549 C   0  0  0  0  0  0  0  0  0  0  0  0
  -24.0074  -31.7097   24.3505 C   0  0  1  0  0  0  0  0  0  0  0  0
  -22.9106  -29.7738   21.2712 C   0  0  1  0  0  0  0  0  0  0  0  0
  -25.7774  -18.8002   22.6439 C   0  0  2  0  0  0  0  0  0  0  0  0
  -34.5740  -19.6067   21.9433 C   0  0  0  0  0  0  0  0  0  0  0  0
  -18.9600  -23.9026   18.1208 C   0  0  0  0  0  0  0  0  0  0  0  0
  -21.1024  -26.4045   23.8672 C   0  0  0  0  0  0  0  0  0  0  0  0
  -20.0883  -24.4957   22.6037 C   0  0  0  0  0  0  0  0  0  0  0  0
  -18.9059  -26.6899   22.7060 C   0  0  0  0  0  0  0  0  0  0  0  0
  -21.3420  -26.2620   16.3221 C   0  0  0  0  0  0  0  0  0  0  0  0
  -33.7941  -19.1020   20.7320 C   0  0  0  0  0  0  0  0  0  0  0  0
  -32.0196  -23.0209   18.1631 C   0  0  0  0  0  0  0  0  0  0  0  0
  -29.6138  -27.2637   19.3671 C   0  0  0  0  0  0  0  0  0  1  0  0
  -20.9878  -26.4686   21.2887 C   0  0  1  0  0  0  0  0  0  0  0  0
  -19.7825  -25.1686   17.9380 C   0  0  2  0  0  0  0  0  0  0  0  0
  -20.2964  -26.0252   22.6088 C   0  0  0  0  0  0  0  0  0  0  0  0
  -25.5809  -16.4250   22.0107 N   0  0  0  0  0  0  0  0  0  0  0  0
  -25.6371  -17.3322   23.0006 N   0  0  0  0  0  0  0  0  0  0  0  0
  -31.7112  -24.3012   18.7645 N   0  0  0  0  0  0  0  0  0  0  0  0
  -22.5800  -28.3554   21.1187 N   0  0  0  0  0  0  0  0  0  0  0  0
  -26.7059  -20.4417   21.0584 N   0  0  0  0  0  0  0  0  0  0  0  0
  -25.5990  -17.5605   25.3580 N   0  0  0  0  0  0  0  0  0  0  0  0
  -25.2155  -13.1037   24.7364 N   0  0  0  0  0  0  0  0  0  0  0  0
  -29.0619  -20.4327   21.1668 N   0  0  0  0  0  0  0  0  0  0  0  0
  -23.5992  -31.2909   23.0268 N   0  0  0  0  0  0  0  0  0  0  0  0
  -20.2339  -26.1465   20.0819 N   0  0  0  0  0  0  0  0  0  0  0  0
  -20.5105  -25.0730   16.6412 N   0  3  0  0  0  0  0  0  0  0  0  0
  -25.3076  -14.7621   26.3176 O   0  0  0  0  0  0  0  0  0  0  0  0
  -23.3686  -29.0145   23.4595 O   0  0  0  0  0  0  0  0  0  0  0  0
  -20.2874  -28.7348   21.3094 O   0  0  0  0  0  0  0  0  0  0  0  0
  -21.8853  -24.8584   19.0866 O   0  0  0  0  0  0  0  0  0  0  0  0
  -27.9031  -22.3832   20.6825 O   0  0  0  0  0  0  0  0  0  0  0  0
  -33.6967  -24.4910   20.0096 O   0  0  0  0  0  0  0  0  0  0  0  0
  -29.6161  -24.5725   17.7356 O   0  0  0  0  0  0  0  0  0  0  0  0
  -25.1042  -10.4597   19.8341 O   0  0  0  0  0  0  0  0  0  0  0  0
  -28.3905  -26.7142   19.8548 O   0  0  0  0  0  0  0  0  0  1  0  0
  -21.2704   -6.8283   21.4212 F   0  0  0  0  0  0  0  0  0  0  0  0
  -25.1201   -9.4064   22.3901 F   0  0  0  0  0  0  0  0  0  0  0  0
  1  2  1  0  0  0  0
  1  5  2  0  0  0  0
  2  6  2  0  0  0  0
  3  8  2  0  0  0  0
  3 19  1  0  0  0  0
  4  9  1  0  0  0  0
  4 19  2  0  0  0  0
  5 21  1  0  0  0  0
  6 23  1  0  0  0  0
  7 10  2  0  0  0  0
  7 22  1  0  0  0  0
  8 29  1  0  0  0  0
  9 29  2  0  0  0  0
 10 30  1  0  0  0  0
 11 12  2  0  0  0  0
 11 31  1  0  0  0  0
 12 32  1  0  0  0  0
 13 24  1  0  0  0  0
 13 30  2  0  0  0  0
 14 25  1  0  0  0  0
 14 26  2  0  0  0  0
 15 25  2  0  0  0  0
 15 28  1  0  0  0  0
 16 26  1  0  0  0  0
 16 28  2  0  0  0  0
 17 27  1  0  0  0  0
 17 36  2  0  0  0  0
 18 32  2  0  0  0  0
 18 33  1  0  0  0  0
 19 34  1  0  0  0  0
 20 34  1  0  0  0  0
 20 35  2  0  0  0  0
 20 38  1  0  0  0  0
 21 23  2  0  0  0  0
 21 43  1  0  0  0  0
 22 24  2  0  0  0  0
 22 44  1  0  0  0  0
 23 52  1  0  0  0  0
 24 45  1  0  0  0  0
 25 61  1  0  0  0  0
 26 62  1  0  0  0  0
 27 37  2  0  0  0  0
 27 63  1  0  0  0  0
 28 74  1  0  0  0  0
 29 85  1  0  0  0  0
 30 86  1  0  0  0  0
 31 33  2  0  0  0  0
 31 85  1  0  0  0  0
 32 87  1  0  0  0  0
 33 88  1  0  0  0  0
 34 67  2  0  0  0  0
 35 68  1  0  0  0  0
 35 72  1  0  0  0  0
 36 69  1  0  0  0  0
 36 83  1  0  0  0  0
 37 69  1  0  0  0  0
 37 84  1  0  0  0  0
 38 73  1  0  0  0  0
 38 78  2  0  0  0  0
 39 53  1  0  0  0  0
 39 75  1  0  0  0  0
 39 79  2  0  0  0  0
 40 64  1  0  0  0  0
 40 70  1  0  0  0  0
 40 80  2  0  0  0  0
 41 65  1  0  0  0  0
 41 76  1  0  0  0  0
 41 81  2  0  0  0  0
 42 71  1  0  0  0  0
 42 74  1  0  0  0  0
 42 82  2  0  0  0  0
 43 46  1  0  0  0  0
 44 53  1  0  0  0  0
 45 70  1  0  0  0  0
 46 48  1  0  0  0  0
 47 49  1  0  0  0  0
 47 50  1  0  0  0  0
 48 52  1  0  0  0  0
 49 54  1  0  0  0  0
 50 71  1  0  0  0  0
 51 54  1  0  0  0  0
 51 71  1  0  0  0  0
 52 75  1  0  0  0  0
 53 70  1  0  0  0  0
 54 68  1  0  0  0  0
 55 61  1  0  0  0  0
 56 65  1  0  0  0  0
 57 66  1  0  0  0  0
 58 66  1  0  0  0  0
 59 66  1  0  0  0  0
 60 77  1  0  0  0  0
 62 69  1  0  0  0  0
 63 86  1  0  0  0  0
 64 66  1  0  0  0  0
 64 76  1  0  0  0  0
 65 77  1  0  0  0  0
 67 68  1  0  0  0  0
M  CHG  1  77   1
M  ISO  4  42 100  63 101  74 100  86 101
M  END
> <Batch ID>
0065

> <Smiles>
CCc1cc(CN2C(=O)CC([101CH2:1][101O:1]c3ccc4c(c3)CN(C(=O)C(NC(=O)C(C)NC)C(C)(C)C)C(C(=O)NC3CCCc5ccccc53)C4)C2=O)cc([100NH:0][100C:0](=O)N2CCCC(n3nc(-c4ccc(Oc5ccc(F)cc5F)cc4)c(C(N)=O)c3N)C2)c1

> <Shape>
0.271

> <Color>
0.076

> <Negative vol penalty>
0.000

$$$$

  -OEChem-04042323183D

 88 97  0     1  0  0  0  0  0999 V2000
  -27.4763  -37.8696   21.4924 C   0  0  0  0  0  0  0  0  0  0  0  0
  -28.0314  -36.6491   21.1214 C   0  0  0  0  0  0  0  0  0  0  0  0
  -23.7786  -11.9337   19.6542 C   0  0  0  0  0  0  0  0  0  0  0  0
  -26.0599  -12.0168   18.8631 C   0  0  0  0  0  0  0  0  0  0  0  0
  -26.4812  -37.9137   22.4679 C   0  0  0  0  0  0  0  0  0  0  0  0
  -27.5924  -35.4720   21.7266 C   0  0  0  0  0  0  0  0  0  0  0  0
  -27.0837  -29.9568   19.1133 C   0  0  0  0  0  0  0  0  0  0  0  0
  -23.4753  -10.9829   18.6798 C   0  0  0  0  0  0  0  0  0  0  0  0
  -25.7566  -11.0659   17.8887 C   0  0  0  0  0  0  0  0  0  0  0  0
  -27.9132  -28.8362   19.1185 C   0  0  0  0  0  0  0  0  0  0  0  0
  -23.9109   -7.6616   18.2193 C   0  0  0  0  0  0  0  0  0  0  0  0
  -23.1630   -6.5504   18.6085 C   0  0  0  0  0  0  0  0  0  0  0  0
  -31.7850  -21.0620   18.8574 C   0  0  0  0  0  0  0  0  0  0  0  0
  -30.4535  -19.0640   19.1256 C   0  0  0  0  0  0  0  0  0  0  0  0
  -26.6229  -27.8970   20.9274 C   0  0  0  0  0  0  0  0  0  0  0  0
  -31.6842  -25.2617   19.5484 C   0  0  0  0  0  0  0  0  0  0  0  0
  -29.4822  -21.2314   19.5683 C   0  0  0  0  0  0  0  0  0  0  0  0
  -21.4426   -7.1531   17.0230 C   0  0  0  0  0  0  0  0  0  0  0  0
  -25.0709  -12.4507   19.7459 C   0  0  0  0  0  0  0  0  0  0  0  0
  -31.6649  -19.6735   18.7992 C   0  0  0  0  0  0  0  0  0  0  0  0
  -25.8472  -13.1933   22.0597 C   0  0  0  0  0  0  0  0  0  0  0  0
  -26.0229  -36.7356   23.0784 C   0  0  0  0  0  0  0  0  0  0  0  0
  -26.0224  -30.0610   20.0239 C   0  0  0  0  0  0  0  0  0  0  0  0
  -26.5912  -35.5006   22.7121 C   0  0  0  0  0  0  0  0  0  0  0  0
  -25.7798  -29.0187   20.9300 C   0  0  0  0  0  0  0  0  0  0  0  0
  -30.3099  -25.3949   19.2309 C   0  0  0  0  0  0  0  0  0  0  0  0
  -30.6937  -21.8409   19.2420 C   0  0  0  0  0  0  0  0  0  0  0  0
  -29.3621  -19.8430   19.5102 C   0  0  0  0  0  0  0  0  0  0  0  0
  -24.4642  -10.5490   17.7970 C   0  0  0  0  0  0  0  0  0  0  0  0
  -27.6847  -27.8074   20.0276 C   0  0  0  0  0  0  0  0  0  0  0  0
  -23.4246   -8.5186   17.2320 C   0  0  0  0  0  0  0  0  0  0  0  0
  -21.9289   -6.2961   18.0103 C   0  0  0  0  0  0  0  0  0  0  0  0
  -22.1905   -8.2644   16.6339 C   0  0  0  0  0  0  0  0  0  0  0  0
  -25.3847  -13.4334   20.7519 C   0  0  0  0  0  0  0  0  0  0  0  0
  -25.9925  -14.4444   22.6075 C   0  0  0  0  0  0  0  0  0  0  0  0
  -31.9691  -23.9146   19.5854 C   0  0  0  0  0  0  0  0  0  0  0  0
  -29.7968  -24.1250   19.0837 C   0  0  0  0  0  0  0  0  0  0  0  0
  -33.3118  -19.0787   17.1771 C   0  0  0  0  0  0  0  0  0  0  0  0
  -32.8029  -18.8611   18.3982 C   0  0  0  0  0  0  0  0  0  0  0  0
  -26.1209  -11.9505   22.7201 C   0  0  0  0  0  0  0  0  0  0  0  0
  -25.2709  -32.0662   22.3729 C   0  0  0  0  0  0  0  0  0  0  0  0
  -22.5249  -30.3408   22.4419 C   0  0  0  0  0  0  0  0  0  0  0  0
  -20.9317  -27.4021   21.7546 C   0  0  0  0  0  0  0  0  0  0  0  0
  -26.9527  -19.8486   20.2458 C   0  0  0  0  0  0  0  0  0  0  0  0
  -24.9786  -36.8382   24.1617 C   0  0  0  0  0  0  0  0  0  0  0  0
  -25.1204  -31.2641   19.9875 C   0  0  0  0  0  0  0  0  0  0  0  0
  -24.6414  -29.0729   21.9146 C   0  0  0  0  0  0  0  0  0  0  0  0
  -24.3048  -35.5075   24.4862 C   0  0  0  0  0  0  0  0  0  0  0  0
  -24.2249  -18.8860   22.3217 C   0  0  0  0  0  0  0  0  0  0  0  0
  -25.3470  -34.4035   24.6342 C   0  0  0  0  0  0  0  0  0  0  0  0
  -24.2586  -17.3566   22.2786 C   0  0  0  0  0  0  0  0  0  0  0  0
  -24.6028  -19.4998   20.9748 C   0  0  0  0  0  0  0  0  0  0  0  0
  -25.9098  -17.5007   20.3709 C   0  0  0  0  0  0  0  0  0  0  0  0
  -26.1239  -34.1996   23.3279 C   0  0  1  0  0  0  0  0  0  0  0  0
  -24.3829  -31.4979   21.3023 C   0  0  1  0  0  0  0  0  0  0  0  0
  -25.5993  -16.8379   21.7229 C   0  0  2  0  0  0  0  0  0  0  0  0
  -33.4013  -17.8048   19.2852 C   0  0  0  0  0  0  0  0  0  0  0  0
  -18.6974  -26.2779   21.9590 C   0  0  0  0  0  0  0  0  0  0  0  0
  -23.0141  -29.9158   25.4235 C   0  0  0  0  0  0  0  0  0  0  0  0
  -21.3369  -28.0580   25.3629 C   0  0  0  0  0  0  0  0  0  0  0  0
  -20.6352  -30.3880   24.8136 C   0  0  0  0  0  0  0  0  0  0  0  0
  -20.6981  -27.0753   18.8225 C   0  0  0  0  0  0  0  0  0  0  0  0
  -29.5568  -26.6843   19.0844 C   0  0  0  0  0  0  0  0  0  1  0  0
  -22.0589  -29.1016   23.1673 C   0  0  1  0  0  0  0  0  0  0  0  0
  -19.6088  -27.1096   21.0699 C   0  0  2  0  0  0  0  0  0  0  0  0
  -21.7840  -29.3654   24.6747 C   0  0  0  0  0  0  0  0  0  0  0  0
  -25.2453  -14.7346   20.4850 N   0  0  0  0  0  0  0  0  0  0  0  0
  -30.8143  -23.2332   19.3018 N   0  0  0  0  0  0  0  0  0  0  0  0
  -25.6224  -15.3235   21.6327 N   0  0  0  0  0  0  0  0  0  0  0  0
  -23.7913  -30.2728   21.8441 N   0  0  0  0  0  0  0  0  0  0  0  0
  -25.8856  -18.9650   20.5130 N   0  0  0  0  0  0  0  0  0  0  0  0
  -26.3994  -14.8672   23.8232 N   0  0  0  0  0  0  0  0  0  0  0  0
  -25.9178  -10.7584   22.0117 N   0  0  0  0  0  0  0  0  0  0  0  0
  -28.1326  -19.2230   19.8444 N   0  0  0  0  0  0  0  0  0  0  0  0
  -25.3304  -33.4468   22.3802 N   0  0  0  0  0  0  0  0  0  0  0  0
  -20.9037  -28.6055   22.4271 N   0  0  0  0  0  0  0  0  0  0  0  0
  -19.8365  -26.3626   19.8006 N   0  3  0  0  0  0  0  0  0  0  0  0
  -26.5178  -11.8982   23.9090 O   0  0  0  0  0  0  0  0  0  0  0  0
  -25.8574  -31.3084   23.1367 O   0  0  0  0  0  0  0  0  0  0  0  0
  -21.7893  -31.3302   22.4009 O   0  0  0  0  0  0  0  0  0  0  0  0
  -21.8925  -26.6375   21.7016 O   0  0  0  0  0  0  0  0  0  0  0  0
  -26.8371  -21.0683   20.3906 O   0  0  0  0  0  0  0  0  0  0  0  0
  -33.1091  -23.2825   19.8375 O   0  0  0  0  0  0  0  0  0  0  0  0
  -28.5671  -23.7178   18.7904 O   0  0  0  0  0  0  0  0  0  0  0  0
  -24.1687   -9.6210   16.8462 O   0  0  0  0  0  0  0  0  0  0  0  0
  -28.4932  -26.7128   20.0353 O   0  0  0  0  0  0  0  0  0  1  0  0
  -21.2115   -5.2281   18.3830 F   0  0  0  0  0  0  0  0  0  0  0  0
  -21.7186   -9.0834   15.6840 F   0  0  0  0  0  0  0  0  0  0  0  0
  1  2  1  0  0  0  0
  1  5  2  0  0  0  0
  2  6  2  0  0  0  0
  3  8  2  0  0  0  0
  3 19  1  0  0  0  0
  4  9  1  0  0  0  0
  4 19  2  0  0  0  0
  5 22  1  0  0  0  0
  6 24  1  0  0  0  0
  7 10  2  0  0  0  0
  7 23  1  0  0  0  0
  8 29  1  0  0  0  0
  9 29  2  0  0  0  0
 10 30  1  0  0  0  0
 11 12  2  0  0  0  0
 11 31  1  0  0  0  0
 12 32  1  0  0  0  0
 13 20  2  0  0  0  0
 13 27  1  0  0  0  0
 14 20  1  0  0  0  0
 14 28  2  0  0  0  0
 15 25  1  0  0  0  0
 15 30  2  0  0  0  0
 16 26  1  0  0  0  0
 16 36  2  0  0  0  0
 17 27  2  0  0  0  0
 17 28  1  0  0  0  0
 18 32  2  0  0  0  0
 18 33  1  0  0  0  0
 19 34  1  0  0  0  0
 20 39  1  0  0  0  0
 21 34  1  0  0  0  0
 21 35  2  0  0  0  0
 21 40  1  0  0  0  0
 22 24  2  0  0  0  0
 22 45  1  0  0  0  0
 23 25  2  0  0  0  0
 23 46  1  0  0  0  0
 24 54  1  0  0  0  0
 25 47  1  0  0  0  0
 26 37  2  0  0  0  0
 26 63  1  0  0  0  0
 27 68  1  0  0  0  0
 28 74  1  0  0  0  0
 29 85  1  0  0  0  0
 30 86  1  0  0  0  0
 31 33  2  0  0  0  0
 31 85  1  0  0  0  0
 32 87  1  0  0  0  0
 33 88  1  0  0  0  0
 34 67  2  0  0  0  0
 35 69  1  0  0  0  0
 35 72  1  0  0  0  0
 36 68  1  0  0  0  0
 36 83  1  0  0  0  0
 37 68  1  0  0  0  0
 37 84  1  0  0  0  0
 38 39  2  0  0  0  0
 39 57  1  0  0  0  0
 40 73  1  0  0  0  0
 40 78  2  0  0  0  0
 41 55  1  0  0  0  0
 41 75  1  0  0  0  0
 41 79  2  0  0  0  0
 42 64  1  0  0  0  0
 42 70  1  0  0  0  0
 42 80  2  0  0  0  0
 43 65  1  0  0  0  0
 43 76  1  0  0  0  0
 43 81  2  0  0  0  0
 44 71  1  0  0  0  0
 44 74  1  0  0  0  0
 44 82  2  0  0  0  0
 45 48  1  0  0  0  0
 46 55  1  0  0  0  0
 47 70  1  0  0  0  0
 48 50  1  0  0  0  0
 49 51  1  0  0  0  0
 49 52  1  0  0  0  0
 50 54  1  0  0  0  0
 51 56  1  0  0  0  0
 52 71  1  0  0  0  0
 53 56  1  0  0  0  0
 53 71  1  0  0  0  0
 54 75  1  0  0  0  0
 55 70  1  0  0  0  0
 56 69  1  0  0  0  0
 58 65  1  0  0  0  0
 59 66  1  0  0  0  0
 60 66  1  0  0  0  0
 61 66  1  0  0  0  0
 62 77  1  0  0  0  0
 63 86  1  0  0  0  0
 64 66  1  0  0  0  0
 64 76  1  0  0  0  0
 65 77  1  0  0  0  0
 67 69  1  0  0  0  0
M  CHG  1  77   1
M  ISO  4  44 100  63 101  74 100  86 101
M  END
> <Batch ID>
0065

> <Smiles>
C=C(C)c1cc([100NH:0][100C:0](=O)N2CCCC(n3nc(-c4ccc(Oc5ccc(F)cc5F)cc4)c(C(N)=O)c3N)C2)cc(N2C(=O)CC([101CH2:1][101O:1]c3ccc4c(c3)CN(C(=O)C(NC(=O)C(C)NC)C(C)(C)C)C(C(=O)NC3CCCc5ccccc53)C4)C2=O)c1

> <Shape>
0.257

> <Color>
0.074

> <Negative vol penalty>
0.000

$$$$

  -OEChem-04042323183D

 87 95  0     1  0  0  0  0  0999 V2000
  -22.7134  -11.2704   18.6209 C   0  0  0  0  0  0  0  0  0  0  0  0
  -22.1030  -12.4820   18.9289 C   0  0  0  0  0  0  0  0  0  0  0  0
  -29.9922  -28.6016   24.0302 C   0  0  0  0  0  0  0  0  0  0  0  0
  -28.6205  -26.6367   24.3380 C   0  0  0  0  0  0  0  0  0  0  0  0
  -23.9762  -10.9771   19.1340 C   0  0  0  0  0  0  0  0  0  0  0  0
  -22.7546  -13.4006   19.7511 C   0  0  0  0  0  0  0  0  0  0  0  0
  -22.5231  -19.5076   19.3552 C   0  0  0  0  0  0  0  0  0  0  0  0
  -30.7791  -28.2226   25.1177 C   0  0  0  0  0  0  0  0  0  0  0  0
  -29.4074  -26.2577   25.4255 C   0  0  0  0  0  0  0  0  0  0  0  0
  -21.7774  -20.4645   20.0423 C   0  0  0  0  0  0  0  0  0  0  0  0
  -30.8358  -24.9589   28.5050 C   0  0  0  0  0  0  0  0  0  0  0  0
  -30.1823  -24.5200   29.6564 C   0  0  0  0  0  0  0  0  0  0  0  0
  -18.0766  -26.6766   22.4852 C   0  0  0  0  0  0  0  0  0  0  0  0
  -20.4861  -26.7557   22.6425 C   0  0  0  0  0  0  0  0  0  0  0  0
  -23.6271  -20.8140   21.5508 C   0  0  0  0  0  0  0  0  0  0  0  0
  -19.2349  -28.7823   22.2371 C   0  0  0  0  0  0  0  0  0  0  0  0
  -29.0683  -26.6561   29.8384 C   0  0  0  0  0  0  0  0  0  0  0  0
  -28.9128  -27.8086   23.6404 C   0  0  0  0  0  0  0  0  0  0  0  0
  -19.2968  -26.0274   22.6728 C   0  0  0  0  0  0  0  0  0  0  0  0
  -28.2917  -27.8536   21.1665 C   0  0  0  0  0  0  0  0  0  0  0  0
  -24.6478  -11.8966   19.9550 C   0  0  0  0  0  0  0  0  0  0  0  0
  -23.8246  -19.1883   19.7681 C   0  0  0  0  0  0  0  0  0  0  0  0
  -24.0270  -13.1187   20.2767 C   0  0  0  0  0  0  0  0  0  0  0  0
  -24.3881  -19.8545   20.8657 C   0  0  0  0  0  0  0  0  0  0  0  0
  -18.0456  -28.0540   22.2673 C   0  0  0  0  0  0  0  0  0  0  0  0
  -20.4551  -28.1331   22.4247 C   0  0  0  0  0  0  0  0  0  0  0  0
  -30.4868  -27.0507   25.8154 C   0  0  0  0  0  0  0  0  0  0  0  0
  -22.3283  -21.1158   21.1420 C   0  0  0  0  0  0  0  0  0  0  0  0
  -30.6056  -26.2464   28.0202 C   0  0  0  0  0  0  0  0  0  0  0  0
  -29.2985  -25.3686   30.3232 C   0  0  0  0  0  0  0  0  0  0  0  0
  -29.7219  -27.0950   28.6869 C   0  0  0  0  0  0  0  0  0  0  0  0
  -28.0992  -28.1999   22.5174 C   0  0  0  0  0  0  0  0  0  0  0  0
  -27.2587  -28.4699   20.5035 C   0  0  0  0  0  0  0  0  0  0  0  0
  -19.3297  -24.5604   22.9047 C   0  0  0  0  0  0  0  0  0  0  0  0
  -29.3129  -27.0470   20.5648 C   0  0  0  0  0  0  0  0  0  0  0  0
  -25.2596  -16.5580   20.8291 C   0  0  0  0  0  0  0  0  0  0  0  0
  -27.9203  -18.4043   20.6447 C   0  0  0  0  0  0  0  0  0  0  0  0
  -29.2784  -21.5351   20.6223 C   0  0  0  0  0  0  0  0  0  0  0  0
  -21.8080  -30.2452   22.1897 C   0  0  0  0  0  0  0  0  0  0  0  0
  -25.9913  -11.5152   20.5244 C   0  0  0  0  0  0  0  0  0  0  0  0
  -24.6256  -18.1730   19.0000 C   0  0  0  0  0  0  0  0  0  0  0  0
  -25.7886  -19.5628   21.3369 C   0  0  0  0  0  0  0  0  0  0  0  0
  -26.7745  -12.7002   21.0835 C   0  0  0  0  0  0  0  0  0  0  0  0
  -24.3709  -32.2798   20.7865 C   0  0  0  0  0  0  0  0  0  0  0  0
  -25.8759  -13.5697   21.9572 C   0  0  0  0  0  0  0  0  0  0  0  0
  -25.6344  -31.4304   20.9427 C   0  0  0  0  0  0  0  0  0  0  0  0
  -23.4278  -32.1177   21.9773 C   0  0  0  0  0  0  0  0  0  0  0  0
  -24.3395  -29.8810   22.4625 C   0  0  0  0  0  0  0  0  0  0  0  0
  -24.7125  -14.1514   21.1449 C   0  0  1  0  0  0  0  0  0  0  0  0
  -25.7540  -17.5567   19.8213 C   0  0  1  0  0  0  0  0  0  0  0  0
  -25.2904  -29.9612   21.2571 C   0  0  2  0  0  0  0  0  0  0  0  0
  -16.7409  -28.7484   22.0666 C   0  0  0  0  0  0  0  0  0  0  0  0
  -31.4845  -22.7246   20.4976 C   0  0  0  0  0  0  0  0  0  0  0  0
  -28.4720  -17.6813   23.5572 C   0  0  0  0  0  0  0  0  0  0  0  0
  -30.0869  -19.5921   23.6530 C   0  0  0  0  0  0  0  0  0  0  0  0
  -30.4935  -17.6952   22.0848 C   0  0  0  0  0  0  0  0  0  0  0  0
  -20.6197  -20.8704   25.7041 C   0  0  0  0  0  0  0  0  0  0  0  0
  -21.7770  -23.0279   26.1494 C   0  0  0  0  0  0  0  0  0  0  0  0
  -19.2782  -22.9450   26.1160 C   0  0  0  0  0  0  0  0  0  0  0  0
  -28.5251  -22.9132   18.1139 C   0  0  0  0  0  0  0  0  0  0  0  0
  -21.8704  -22.2006   23.2083 C   0  0  0  0  0  0  0  0  0  1  0  0
  -28.6396  -19.3401   21.5859 C   0  0  1  0  0  0  0  0  0  0  0  0
  -30.3033  -22.1820   19.7083 C   0  0  2  0  0  0  0  0  0  0  0  0
  -20.5983  -22.6832   23.9161 C   0  0  1  0  0  0  0  0  0  0  0  0
  -29.3959  -18.5815   22.7128 C   0  0  0  0  0  0  0  0  0  0  0  0
  -20.5544  -22.3934   25.4532 C   0  0  0  0  0  0  0  0  0  0  0  0
  -27.0282  -28.9761   22.7032 N   0  0  0  0  0  0  0  0  0  0  0  0
  -26.5385  -29.1227   21.4603 N   0  0  0  0  0  0  0  0  0  0  0  0
  -26.5294  -18.5576   20.5569 N   0  0  0  0  0  0  0  0  0  0  0  0
  -23.1433  -30.7005   22.2129 N   0  0  0  0  0  0  0  0  0  0  0  0
  -26.9053  -28.5117   19.2013 N   0  0  0  0  0  0  0  0  0  0  0  0
  -30.2980  -26.4897   21.3916 N   0  0  0  0  0  0  0  0  0  0  0  0
  -21.6629  -28.8734   22.3942 N   0  0  0  0  0  0  0  0  0  0  0  0
  -20.4113  -24.0940   23.6281 N   0  0  0  0  0  0  0  0  0  0  0  0
  -25.1646  -15.2680   20.3429 N   0  0  0  0  0  0  0  0  0  0  0  0
  -29.4941  -20.1795   20.7530 N   0  0  0  0  0  0  0  0  0  0  0  0
  -29.6857  -23.3084   18.9528 N   0  3  0  0  0  0  0  0  0  0  0  0
  -18.4350  -23.8592   22.4396 O   0  0  0  0  0  0  0  0  0  0  0  0
  -29.3603  -26.8403   19.3285 O   0  0  0  0  0  0  0  0  0  0  0  0
  -24.9862  -16.9299   21.9643 O   0  0  0  0  0  0  0  0  0  0  0  0
  -28.5696  -17.5728   20.0053 O   0  0  0  0  0  0  0  0  0  0  0  0
  -28.3788  -22.1696   21.1689 O   0  0  0  0  0  0  0  0  0  0  0  0
  -20.8649  -31.0110   21.9752 O   0  0  0  0  0  0  0  0  0  0  0  0
  -31.2546  -26.6804   26.8765 O   0  0  0  0  0  0  0  0  0  0  0  0
  -21.6024  -22.0497   21.8148 O   0  0  0  0  0  0  0  0  0  1  0  0
  -28.6699  -24.9465   31.4280 F   0  0  0  0  0  0  0  0  0  0  0  0
  -29.4958  -28.3326   28.2254 F   0  0  0  0  0  0  0  0  0  0  0  0
  1  2  1  0  0  0  0
  1  5  2  0  0  0  0
  2  6  2  0  0  0  0
  3  8  2  0  0  0  0
  3 18  1  0  0  0  0
  4  9  1  0  0  0  0
  4 18  2  0  0  0  0
  5 21  1  0  0  0  0
  6 23  1  0  0  0  0
  7 10  2  0  0  0  0
  7 22  1  0  0  0  0
  8 27  1  0  0  0  0
  9 27  2  0  0  0  0
 10 28  1  0  0  0  0
 11 12  2  0  0  0  0
 11 29  1  0  0  0  0
 12 30  1  0  0  0  0
 13 19  1  0  0  0  0
 13 25  2  0  0  0  0
 14 19  2  0  0  0  0
 14 26  1  0  0  0  0
 15 24  1  0  0  0  0
 15 28  2  0  0  0  0
 16 25  1  0  0  0  0
 16 26  2  0  0  0  0
 17 30  2  0  0  0  0
 17 31  1  0  0  0  0
 18 32  1  0  0  0  0
 19 34  1  0  0  0  0
 20 32  1  0  0  0  0
 20 33  2  0  0  0  0
 20 35  1  0  0  0  0
 21 23  2  0  0  0  0
 21 40  1  0  0  0  0
 22 24  2  0  0  0  0
 22 41  1  0  0  0  0
 23 49  1  0  0  0  0
 24 42  1  0  0  0  0
 25 52  1  0  0  0  0
 26 73  1  0  0  0  0
 27 84  1  0  0  0  0
 28 85  1  0  0  0  0
 29 31  2  0  0  0  0
 29 84  1  0  0  0  0
 30 86  1  0  0  0  0
 31 87  1  0  0  0  0
 32 67  2  0  0  0  0
 33 68  1  0  0  0  0
 33 71  1  0  0  0  0
 34 74  1  0  0  0  0
 34 78  2  0  0  0  0
 35 72  1  0  0  0  0
 35 79  2  0  0  0  0
 36 50  1  0  0  0  0
 36 75  1  0  0  0  0
 36 80  2  0  0  0  0
 37 62  1  0  0  0  0
 37 69  1  0  0  0  0
 37 81  2  0  0  0  0
 38 63  1  0  0  0  0
 38 76  1  0  0  0  0
 38 82  2  0  0  0  0
 39 70  1  0  0  0  0
 39 73  1  0  0  0  0
 39 83  2  0  0  0  0
 40 43  1  0  0  0  0
 41 50  1  0  0  0  0
 42 69  1  0  0  0  0
 43 45  1  0  0  0  0
 44 46  1  0  0  0  0
 44 47  1  0  0  0  0
 45 49  1  0  0  0  0
 46 51  1  0  0  0  0
 47 70  1  0  0  0  0
 48 51  1  0  0  0  0
 48 70  1  0  0  0  0
 49 75  1  0  0  0  0
 50 69  1  0  0  0  0
 51 68  1  0  0  0  0
 53 63  1  0  0  0  0
 54 65  1  0  0  0  0
 55 65  1  0  0  0  0
 56 65  1  0  0  0  0
 57 66  1  0  0  0  0
 58 66  1  0  0  0  0
 59 66  1  0  0  0  0
 60 77  1  0  0  0  0
 61 64  1  0  0  0  0
 61 85  1  0  0  0  0
 62 65  1  0  0  0  0
 62 76  1  0  0  0  0
 63 77  1  0  0  0  0
 64 66  1  0  0  0  0
 64 74  1  0  0  0  0
 67 68  1  0  0  0  0
M  CHG  1  77   1
M  ISO  4  39 100  61 101  73 100  85 101
M  END
> <Batch ID>
0065

> <Smiles>
CNC(C)C(=O)NC(C(=O)N1Cc2cc([101O:1][101CH2:1]C(NC(=O)c3cc(C)cc([100NH:0][100C:0](=O)N4CCCC(n5nc(-c6ccc(Oc7ccc(F)cc7F)cc6)c(C(N)=O)c5N)C4)c3)C(C)(C)C)ccc2CC1C(=O)NC1CCCc2ccccc21)C(C)(C)C

> <Shape>
0.226

> <Color>
0.078

> <Negative vol penalty>
0.000

$$$$

  -OEChem-04042323183D

 84 92  0     1  0  0  0  0  0999 V2000
  -34.0302  -32.1004   18.9150 C   0  0  0  0  0  0  0  0  0  0  0  0
  -33.4996  -30.8262   19.0887 C   0  0  0  0  0  0  0  0  0  0  0  0
  -32.6536  -17.4910   23.4512 C   0  0  0  0  0  0  0  0  0  0  0  0
  -23.0762   -9.8676   19.9411 C   0  0  0  0  0  0  0  0  0  0  0  0
  -23.8355   -9.8753   22.2347 C   0  0  0  0  0  0  0  0  0  0  0  0
  -35.4124  -32.2826   18.9001 C   0  0  0  0  0  0  0  0  0  0  0  0
  -34.3510  -29.7332   19.2465 C   0  0  0  0  0  0  0  0  0  0  0  0
  -32.8833  -26.6513   22.9871 C   0  0  0  0  0  0  0  0  0  0  0  0
  -31.8576  -18.3593   24.1983 C   0  0  0  0  0  0  0  0  0  0  0  0
  -32.0636  -16.6070   22.5478 C   0  0  0  0  0  0  0  0  0  0  0  0
  -22.3322   -8.7146   20.1913 C   0  0  0  0  0  0  0  0  0  0  0  0
  -23.0914   -8.7223   22.4849 C   0  0  0  0  0  0  0  0  0  0  0  0
  -31.8278  -25.7811   22.7180 C   0  0  0  0  0  0  0  0  0  0  0  0
  -21.1059   -5.9859   23.8220 C   0  0  0  0  0  0  0  0  0  0  0  0
  -20.3493   -5.9428   24.9930 C   0  0  0  0  0  0  0  0  0  0  0  0
  -33.4036  -23.9901   22.3596 C   0  0  0  0  0  0  0  0  0  0  0  0
  -19.1051   -7.8799   24.2604 C   0  0  0  0  0  0  0  0  0  0  0  0
  -23.8280  -10.4479   20.9628 C   0  0  0  0  0  0  0  0  0  0  0  0
  -24.1700  -12.9730   20.8420 C   0  0  0  0  0  0  0  0  0  0  0  0
  -36.2811  -31.1927   19.0674 C   0  0  0  0  0  0  0  0  0  0  0  0
  -34.2097  -26.1993   22.9337 C   0  0  0  0  0  0  0  0  0  0  0  0
  -35.7462  -29.9008   19.2324 C   0  0  0  0  0  0  0  0  0  0  0  0
  -34.4740  -24.8560   22.6309 C   0  0  0  0  0  0  0  0  0  0  0  0
  -30.4716  -18.3436   24.0420 C   0  0  0  0  0  0  0  0  0  0  0  0
  -30.6776  -16.5913   22.3915 C   0  0  0  0  0  0  0  0  0  0  0  0
  -22.3397   -8.1419   21.4632 C   0  0  0  0  0  0  0  0  0  0  0  0
  -32.0880  -24.4510   22.4013 C   0  0  0  0  0  0  0  0  0  0  0  0
  -20.8621   -6.9760   22.8702 C   0  0  0  0  0  0  0  0  0  0  0  0
  -19.3489   -6.8898   25.2122 C   0  0  0  0  0  0  0  0  0  0  0  0
  -19.8617   -7.9230   23.0894 C   0  0  0  0  0  0  0  0  0  0  0  0
  -29.8816  -17.4596   23.1386 C   0  0  0  0  0  0  0  0  0  0  0  0
  -24.5972  -11.6386   20.7049 C   0  0  0  0  0  0  0  0  0  0  0  0
  -25.2624  -13.7222   20.4788 C   0  0  0  0  0  0  0  0  0  0  0  0
  -22.8995  -13.4891   21.2604 C   0  0  0  0  0  0  0  0  0  0  0  0
  -36.7601  -26.9313   21.1836 C   0  0  0  0  0  0  0  0  0  0  0  0
  -38.2543  -24.8873   23.2113 C   0  0  0  0  0  0  0  0  0  0  0  0
  -29.8345  -21.5681   23.8852 C   0  0  0  0  0  0  0  0  0  0  0  0
  -38.0147  -22.2506   25.3647 C   0  0  0  0  0  0  0  0  0  0  0  0
  -30.7286  -14.7674   20.6546 C   0  0  0  0  0  0  0  0  0  0  0  0
  -37.7685  -31.4323   18.9968 C   0  0  0  0  0  0  0  0  0  0  0  0
  -35.3357  -27.1441   23.2528 C   0  0  0  0  0  0  0  0  0  0  0  0
  -35.8792  -24.3161   22.5804 C   0  0  0  0  0  0  0  0  0  0  0  0
  -38.5987  -30.2748   19.5456 C   0  0  0  0  0  0  0  0  0  0  0  0
  -29.6146  -12.3528   18.2868 C   0  0  0  0  0  0  0  0  0  0  0  0
  -38.0869  -28.9452   19.0004 C   0  0  0  0  0  0  0  0  0  0  0  0
  -28.1748  -12.0615   18.7161 C   0  0  0  0  0  0  0  0  0  0  0  0
  -30.5294  -12.5820   19.4887 C   0  0  0  0  0  0  0  0  0  0  0  0
  -28.6222  -13.3071   20.8692 C   0  0  0  0  0  0  0  0  0  0  0  0
  -36.6369  -28.6937   19.4315 C   0  0  1  0  0  0  0  0  0  0  0  0
  -36.6722  -26.7007   22.6657 C   0  0  1  0  0  0  0  0  0  0  0  0
  -27.6496  -13.1335   19.6911 C   0  0  2  0  0  0  0  0  0  0  0  0
  -39.4126  -20.7795   26.8409 C   0  0  0  0  0  0  0  0  0  0  0  0
  -39.2665  -23.3877   20.7543 C   0  0  0  0  0  0  0  0  0  0  0  0
  -39.8233  -21.4572   22.2481 C   0  0  0  0  0  0  0  0  0  0  0  0
  -40.9534  -23.6561   22.5809 C   0  0  0  0  0  0  0  0  0  0  0  0
  -36.5491  -23.0970   27.7925 C   0  0  0  0  0  0  0  0  0  0  0  0
  -29.6179  -19.2798   24.8476 C   0  0  0  0  0  0  0  0  0  0  0  0
  -29.0761  -22.5464   23.0017 C   0  0  0  0  0  0  0  0  0  0  0  0
  -29.8187  -23.8572   22.7934 C   0  0  0  0  0  0  0  0  0  1  0  0
  -38.5223  -23.4017   23.2265 C   0  0  1  0  0  0  0  0  0  0  0  0
  -38.5646  -22.0395   26.7638 C   0  0  2  0  0  0  0  0  0  0  0  0
  -39.6149  -22.9860   22.2014 C   0  0  0  0  0  0  0  0  0  0  0  0
  -25.8622  -11.5425   20.2870 N   0  0  0  0  0  0  0  0  0  0  0  0
  -26.2392  -12.8260   20.1583 N   0  0  0  0  0  0  0  0  0  0  0  0
  -36.9465  -25.2806   22.8939 N   0  0  0  0  0  0  0  0  0  0  0  0
  -29.9703  -13.6132   20.3655 N   0  0  0  0  0  0  0  0  0  0  0  0
  -25.4729  -15.0537   20.4054 N   0  0  0  0  0  0  0  0  0  0  0  0
  -21.8874  -12.5801   21.5977 N   0  0  0  0  0  0  0  0  0  0  0  0
  -30.0811  -15.6928   21.4725 N   0  0  0  0  0  0  0  0  0  0  0  0
  -36.5886  -28.2501   20.8082 N   0  0  0  0  0  0  0  0  0  0  0  0
  -29.1300  -20.3848   24.0542 N   0  0  0  0  0  0  0  0  0  0  0  0
  -38.8380  -23.0580   24.6087 N   0  0  0  0  0  0  0  0  0  0  0  0
  -37.4500  -21.9166   27.7453 N   0  3  0  0  0  0  0  0  0  0  0  0
  -22.6634  -14.7197   21.3173 O   0  0  0  0  0  0  0  0  0  0  0  0
  -36.9696  -25.9832   20.4360 O   0  0  0  0  0  0  0  0  0  0  0  0
  -39.1699  -25.6696   23.4783 O   0  0  0  0  0  0  0  0  0  0  0  0
  -30.9321  -21.8158   24.3767 O   0  0  0  0  0  0  0  0  0  0  0  0
  -36.9621  -21.7463   24.9796 O   0  0  0  0  0  0  0  0  0  0  0  0
  -31.8578  -14.9358   20.1872 O   0  0  0  0  0  0  0  0  0  0  0  0
  -21.6136   -7.0170   21.7077 O   0  0  0  0  0  0  0  0  0  0  0  0
  -31.0596  -23.5996   22.1376 O   0  0  0  0  0  0  0  0  0  1  0  0
  -18.6214   -6.8473   26.3361 F   0  0  0  0  0  0  0  0  0  0  0  0
  -19.6222   -8.8759   22.1781 F   0  0  0  0  0  0  0  0  0  0  0  0
  -28.5485  -17.4461   22.9879 F   0  0  0  0  0  0  0  0  0  0  0  0
  1  2  1  0  0  0  0
  1  6  2  0  0  0  0
  2  7  2  0  0  0  0
  3  9  2  0  0  0  0
  3 10  1  0  0  0  0
  4 11  2  0  0  0  0
  4 18  1  0  0  0  0
  5 12  1  0  0  0  0
  5 18  2  0  0  0  0
  6 20  1  0  0  0  0
  7 22  1  0  0  0  0
  8 13  2  0  0  0  0
  8 21  1  0  0  0  0
  9 24  1  0  0  0  0
 10 25  2  0  0  0  0
 11 26  1  0  0  0  0
 12 26  2  0  0  0  0
 13 27  1  0  0  0  0
 14 15  2  0  0  0  0
 14 28  1  0  0  0  0
 15 29  1  0  0  0  0
 16 23  1  0  0  0  0
 16 27  2  0  0  0  0
 17 29  2  0  0  0  0
 17 30  1  0  0  0  0
 18 32  1  0  0  0  0
 19 32  1  0  0  0  0
 19 33  2  0  0  0  0
 19 34  1  0  0  0  0
 20 22  2  0  0  0  0
 20 40  1  0  0  0  0
 21 23  2  0  0  0  0
 21 41  1  0  0  0  0
 22 49  1  0  0  0  0
 23 42  1  0  0  0  0
 24 31  2  0  0  0  0
 24 57  1  0  0  0  0
 25 31  1  0  0  0  0
 25 69  1  0  0  0  0
 26 80  1  0  0  0  0
 27 81  1  0  0  0  0
 28 30  2  0  0  0  0
 28 80  1  0  0  0  0
 29 82  1  0  0  0  0
 30 83  1  0  0  0  0
 31 84  1  0  0  0  0
 32 63  2  0  0  0  0
 33 64  1  0  0  0  0
 33 67  1  0  0  0  0
 34 68  1  0  0  0  0
 34 74  2  0  0  0  0
 35 50  1  0  0  0  0
 35 70  1  0  0  0  0
 35 75  2  0  0  0  0
 36 60  1  0  0  0  0
 36 65  1  0  0  0  0
 36 76  2  0  0  0  0
 37 58  1  0  0  0  0
 37 71  1  0  0  0  0
 37 77  2  0  0  0  0
 38 61  1  0  0  0  0
 38 72  1  0  0  0  0
 38 78  2  0  0  0  0
 39 66  1  0  0  0  0
 39 69  1  0  0  0  0
 39 79  2  0  0  0  0
 40 43  1  0  0  0  0
 41 50  1  0  0  0  0
 42 65  1  0  0  0  0
 43 45  1  0  0  0  0
 44 46  1  0  0  0  0
 44 47  1  0  0  0  0
 45 49  1  0  0  0  0
 46 51  1  0  0  0  0
 47 66  1  0  0  0  0
 48 51  1  0  0  0  0
 48 66  1  0  0  0  0
 49 70  1  0  0  0  0
 50 65  1  0  0  0  0
 51 64  1  0  0  0  0
 52 61  1  0  0  0  0
 53 62  1  0  0  0  0
 54 62  1  0  0  0  0
 55 62  1  0  0  0  0
 56 73  1  0  0  0  0
 57 71  1  0  0  0  0
 58 59  1  0  0  0  0
 59 81  1  0  0  0  0
 60 62  1  0  0  0  0
 60 72  1  0  0  0  0
 61 73  1  0  0  0  0
 63 64  1  0  0  0  0
M  CHG  1  73   1
M  ISO  4  39 100  59 101  69 100  81 101
M  END
> <Batch ID>
0065

> <Smiles>
CNC(C)C(=O)NC(C(=O)N1Cc2cc([101O:1][101CH2:1]CC(=O)NCc3cccc([100NH:0][100C:0](=O)N4CCCC(n5nc(-c6ccc(Oc7ccc(F)cc7F)cc6)c(C(N)=O)c5N)C4)c3F)ccc2CC1C(=O)NC1CCCc2ccccc21)C(C)(C)C

> <Shape>
0.165

> <Color>
0.192

> <Negative vol penalty>
0.000

$$$$

  -OEChem-04042323183D

 90 99  0     1  0  0  0  0  0999 V2000
  -30.3810  -32.6841   24.6662 C   0  0  0  0  0  0  0  0  0  0  0  0
  -30.2017  -31.3191   24.4663 C   0  0  0  0  0  0  0  0  0  0  0  0
  -31.3499  -19.0470   20.5674 C   0  0  0  0  0  0  0  0  0  0  0  0
  -23.0762   -9.8670   19.9405 C   0  0  0  0  0  0  0  0  0  0  0  0
  -23.8349   -9.8745   22.2343 C   0  0  0  0  0  0  0  0  0  0  0  0
  -30.9068  -33.4740   23.6446 C   0  0  0  0  0  0  0  0  0  0  0  0
  -30.5472  -30.7433   23.2442 C   0  0  0  0  0  0  0  0  0  0  0  0
  -33.0997  -26.4042   23.7935 C   0  0  0  0  0  0  0  0  0  0  0  0
  -30.6337  -19.8630   21.4430 C   0  0  0  0  0  0  0  0  0  0  0  0
  -31.1579  -17.6655   20.5868 C   0  0  0  0  0  0  0  0  0  0  0  0
  -22.3324   -8.7138   20.1903 C   0  0  0  0  0  0  0  0  0  0  0  0
  -23.0910   -8.7213   22.4841 C   0  0  0  0  0  0  0  0  0  0  0  0
  -32.3599  -25.2663   24.1123 C   0  0  0  0  0  0  0  0  0  0  0  0
  -19.8626   -7.9232   23.0851 C   0  0  0  0  0  0  0  0  0  0  0  0
  -19.1050   -7.8834   24.2556 C   0  0  0  0  0  0  0  0  0  0  0  0
  -32.4264  -24.5826   21.7998 C   0  0  0  0  0  0  0  0  0  0  0  0
  -20.3463   -5.9463   24.9931 C   0  0  0  0  0  0  0  0  0  0  0  0
  -23.8276  -10.4473   20.9625 C   0  0  0  0  0  0  0  0  0  0  0  0
  -29.5337  -17.9161   22.3577 C   0  0  0  0  0  0  0  0  0  0  0  0
  -24.1692  -12.9725   20.8421 C   0  0  0  0  0  0  0  0  0  0  0  0
  -31.2679  -32.9059   22.4128 C   0  0  0  0  0  0  0  0  0  0  0  0
  -33.4997  -26.6458   22.4713 C   0  0  0  0  0  0  0  0  0  0  0  0
  -31.0771  -31.5265   22.2047 C   0  0  0  0  0  0  0  0  0  0  0  0
  -33.1733  -25.7230   21.4673 C   0  0  0  0  0  0  0  0  0  0  0  0
  -29.7256  -19.2976   22.3382 C   0  0  0  0  0  0  0  0  0  0  0  0
  -30.2498  -17.1001   21.4820 C   0  0  0  0  0  0  0  0  0  0  0  0
  -22.3397   -8.1410   21.4621 C   0  0  0  0  0  0  0  0  0  0  0  0
  -32.0207  -24.3568   23.1149 C   0  0  0  0  0  0  0  0  0  0  0  0
  -20.8620   -6.9745   22.8685 C   0  0  0  0  0  0  0  0  0  0  0  0
  -19.3469   -6.8950   25.2096 C   0  0  0  0  0  0  0  0  0  0  0  0
  -21.1038   -5.9861   23.8225 C   0  0  0  0  0  0  0  0  0  0  0  0
  -24.5966  -11.6382   20.7049 C   0  0  0  0  0  0  0  0  0  0  0  0
  -25.2614  -13.7220   20.4793 C   0  0  0  0  0  0  0  0  0  0  0  0
  -29.7239  -20.9748   24.1345 C   0  0  0  0  0  0  0  0  0  0  0  0
  -27.5952  -20.1976   23.1719 C   0  0  0  0  0  0  0  0  0  0  0  0
  -28.9023  -16.9576   24.5251 C   0  0  0  0  0  0  0  0  0  0  0  0
  -28.5818  -17.3235   23.2962 C   0  0  0  0  0  0  0  0  0  0  0  0
  -22.8984  -13.4882   21.2603 C   0  0  0  0  0  0  0  0  0  0  0  0
  -32.9283  -28.9309   20.3369 C   0  0  0  0  0  0  0  0  0  0  0  0
  -35.1319  -27.3119   18.5919 C   0  0  0  0  0  0  0  0  0  0  0  0
  -36.7344  -24.3649   17.9642 C   0  0  0  0  0  0  0  0  0  0  0  0
  -30.7274  -14.7683   20.6567 C   0  0  0  0  0  0  0  0  0  0  0  0
  -31.7883  -33.8082   21.3220 C   0  0  0  0  0  0  0  0  0  0  0  0
  -34.3201  -27.8644   22.1484 C   0  0  0  0  0  0  0  0  0  0  0  0
  -33.5959  -25.9259   20.0360 C   0  0  0  0  0  0  0  0  0  0  0  0
  -32.4786  -33.0561   20.1870 C   0  0  0  0  0  0  0  0  0  0  0  0
  -29.6145  -12.3539   18.2883 C   0  0  0  0  0  0  0  0  0  0  0  0
  -31.6389  -31.8595   19.7513 C   0  0  0  0  0  0  0  0  0  0  0  0
  -28.1747  -12.0622   18.7172 C   0  0  0  0  0  0  0  0  0  0  0  0
  -30.5290  -12.5830   19.4904 C   0  0  0  0  0  0  0  0  0  0  0  0
  -28.6212  -13.3076   20.8705 C   0  0  0  0  0  0  0  0  0  0  0  0
  -28.1875  -22.5447   25.4036 C   0  0  0  0  0  0  0  0  0  0  0  0
  -31.4629  -30.8608   20.9016 C   0  0  1  0  0  0  0  0  0  0  0  0
  -29.1993  -22.4101   24.2651 C   0  0  1  0  0  0  0  0  0  0  0  0
  -26.9185  -20.2440   24.5365 C   0  0  2  0  0  0  0  0  0  0  0  0
  -34.2338  -28.2711   20.6806 C   0  0  1  0  0  0  0  0  0  0  0  0
  -27.6490  -13.1339   19.6922 C   0  0  2  0  0  0  0  0  0  0  0  0
  -25.6251  -19.4339   24.5161 C   0  0  0  0  0  0  0  0  0  0  0  0
  -38.4571  -23.3423   16.4528 C   0  0  0  0  0  0  0  0  0  0  0  0
  -33.0873  -27.2180   16.3289 C   0  0  0  0  0  0  0  0  0  0  0  0
  -34.4597  -25.4191   15.2571 C   0  0  0  0  0  0  0  0  0  0  0  0
  -35.4317  -27.6911   15.5978 C   0  0  0  0  0  0  0  0  0  0  0  0
  -38.5102  -23.7099   20.2394 C   0  0  0  0  0  0  0  0  0  0  0  0
  -30.3871  -23.3461   24.5170 C   0  0  0  0  0  0  0  0  0  1  0  0
  -35.0839  -26.1797   17.5944 C   0  0  1  0  0  0  0  0  0  0  0  0
  -38.2054  -24.0371   17.7820 C   0  0  2  0  0  0  0  0  0  0  0  0
  -34.5059  -26.6238   16.2211 C   0  0  0  0  0  0  0  0  0  0  0  0
  -25.8617  -11.5425   20.2873 N   0  0  0  0  0  0  0  0  0  0  0  0
  -26.2385  -12.8261   20.1589 N   0  0  0  0  0  0  0  0  0  0  0  0
  -29.0009  -20.1735   23.2316 N   0  0  0  0  0  0  0  0  0  0  0  0
  -34.3913  -27.1358   19.7693 N   0  0  0  0  0  0  0  0  0  0  0  0
  -29.9694  -13.6140   20.3673 N   0  0  0  0  0  0  0  0  0  0  0  0
  -25.4717  -15.0535   20.4061 N   0  0  0  0  0  0  0  0  0  0  0  0
  -21.8864  -12.5790   21.5972 N   0  0  0  0  0  0  0  0  0  0  0  0
  -30.0795  -15.6935   21.4746 N   0  0  0  0  0  0  0  0  0  0  0  0
  -32.6629  -30.0702   21.0725 N   0  0  0  0  0  0  0  0  0  0  0  0
  -36.4368  -25.6381   17.5263 N   0  0  0  0  0  0  0  0  0  0  0  0
  -38.6761  -23.1421   18.8767 N   0  3  0  0  0  0  0  0  0  0  0  0
  -30.6772  -20.5735   24.8049 O   0  0  0  0  0  0  0  0  0  0  0  0
  -26.9450  -20.2142   22.1250 O   0  0  0  0  0  0  0  0  0  0  0  0
  -22.6619  -14.7188   21.3172 O   0  0  0  0  0  0  0  0  0  0  0  0
  -32.2153  -28.4434   19.4677 O   0  0  0  0  0  0  0  0  0  0  0  0
  -35.8075  -28.3125   18.3389 O   0  0  0  0  0  0  0  0  0  0  0  0
  -35.9291  -23.5696   18.4433 O   0  0  0  0  0  0  0  0  0  0  0  0
  -31.8567  -14.9371   20.1896 O   0  0  0  0  0  0  0  0  0  0  0  0
  -21.6138   -7.0158   21.7063 O   0  0  0  0  0  0  0  0  0  0  0  0
  -31.2981  -23.2456   23.4233 O   0  0  0  0  0  0  0  0  0  1  0  0
  -18.6204   -6.8579   26.3343 F   0  0  0  0  0  0  0  0  0  0  0  0
  -22.0634   -5.0727   23.6206 F   0  0  0  0  0  0  0  0  0  0  0  0
  -26.5254  -21.9701   24.9388 S   0  0  0  0  0  0  0  0  0  0  0  0
  1  2  1  0  0  0  0
  1  6  2  0  0  0  0
  2  7  2  0  0  0  0
  3  9  2  0  0  0  0
  3 10  1  0  0  0  0
  4 11  2  0  0  0  0
  4 18  1  0  0  0  0
  5 12  1  0  0  0  0
  5 18  2  0  0  0  0
  6 21  1  0  0  0  0
  7 23  1  0  0  0  0
  8 13  2  0  0  0  0
  8 22  1  0  0  0  0
  9 25  1  0  0  0  0
 10 26  2  0  0  0  0
 11 27  1  0  0  0  0
 12 27  2  0  0  0  0
 13 28  1  0  0  0  0
 14 15  2  0  0  0  0
 14 29  1  0  0  0  0
 15 30  1  0  0  0  0
 16 24  1  0  0  0  0
 16 28  2  0  0  0  0
 17 30  2  0  0  0  0
 17 31  1  0  0  0  0
 18 32  1  0  0  0  0
 19 25  2  0  0  0  0
 19 26  1  0  0  0  0
 19 37  1  0  0  0  0
 20 32  1  0  0  0  0
 20 33  2  0  0  0  0
 20 38  1  0  0  0  0
 21 23  2  0  0  0  0
 21 43  1  0  0  0  0
 22 24  2  0  0  0  0
 22 44  1  0  0  0  0
 23 53  1  0  0  0  0
 24 45  1  0  0  0  0
 25 70  1  0  0  0  0
 26 75  1  0  0  0  0
 27 86  1  0  0  0  0
 28 87  1  0  0  0  0
 29 31  2  0  0  0  0
 29 86  1  0  0  0  0
 30 88  1  0  0  0  0
 31 89  1  0  0  0  0
 32 68  2  0  0  0  0
 33 69  1  0  0  0  0
 33 73  1  0  0  0  0
 34 54  1  0  0  0  0
 34 70  1  0  0  0  0
 34 79  2  0  0  0  0
 35 55  1  0  0  0  0
 35 70  1  0  0  0  0
 35 80  2  0  0  0  0
 36 37  2  0  0  0  0
 38 74  1  0  0  0  0
 38 81  2  0  0  0  0
 39 56  1  0  0  0  0
 39 76  1  0  0  0  0
 39 82  2  0  0  0  0
 40 65  1  0  0  0  0
 40 71  1  0  0  0  0
 40 83  2  0  0  0  0
 41 66  1  0  0  0  0
 41 77  1  0  0  0  0
 41 84  2  0  0  0  0
 42 72  1  0  0  0  0
 42 75  1  0  0  0  0
 42 85  2  0  0  0  0
 43 46  1  0  0  0  0
 44 56  1  0  0  0  0
 45 71  1  0  0  0  0
 46 48  1  0  0  0  0
 47 49  1  0  0  0  0
 47 50  1  0  0  0  0
 48 53  1  0  0  0  0
 49 57  1  0  0  0  0
 50 72  1  0  0  0  0
 51 57  1  0  0  0  0
 51 72  1  0  0  0  0
 52 54  1  0  0  0  0
 52 90  1  0  0  0  0
 53 76  1  0  0  0  0
 54 64  1  0  0  0  0
 55 58  1  0  0  0  0
 55 90  1  0  0  0  0
 56 71  1  0  0  0  0
 57 69  1  0  0  0  0
 59 66  1  0  0  0  0
 60 67  1  0  0  0  0
 61 67  1  0  0  0  0
 62 67  1  0  0  0  0
 63 78  1  0  0  0  0
 64 87  1  0  0  0  0
 65 67  1  0  0  0  0
 65 77  1  0  0  0  0
 66 78  1  0  0  0  0
 68 69  1  0  0  0  0
M  CHG  1  78   1
M  ISO  4  42 100  64 101  75 100  87 101
M  END
> <Batch ID>
0065

> <Smiles>
C=Cc1c([100NH:0][100C:0](=O)N2CCCC(n3nc(-c4ccc(Oc5ccc(F)cc5F)cc4)c(C(N)=O)c3N)C2)cccc1N1C(=O)C(C)SCC([101CH2:1][101O:1]c2ccc3c(c2)CN(C(=O)C(NC(=O)C(C)NC)C(C)(C)C)C(C(=O)NC2CCCc4ccccc42)C3)C1=O

> <Shape>
0.178

> <Color>
0.184

> <Negative vol penalty>
0.000

$$$$

  -OEChem-04042323183D

 87 96  0     1  0  0  0  0  0999 V2000
  -16.1620  -31.6392   20.7865 C   0  0  0  0  0  0  0  0  0  0  0  0
  -17.4131  -32.2262   20.6261 C   0  0  0  0  0  0  0  0  0  0  0  0
  -26.7124  -12.1620   19.5697 C   0  0  0  0  0  0  0  0  0  0  0  0
  -25.0932  -12.8155   21.2395 C   0  0  0  0  0  0  0  0  0  0  0  0
  -15.9781  -30.6439   21.7454 C   0  0  0  0  0  0  0  0  0  0  0  0
  -18.4807  -31.8190   21.4254 C   0  0  0  0  0  0  0  0  0  0  0  0
  -25.5070  -29.0890   19.3749 C   0  0  0  0  0  0  0  0  0  0  0  0
  -25.8927  -11.0989   19.1909 C   0  0  0  0  0  0  0  0  0  0  0  0
  -24.2735  -11.7524   20.8607 C   0  0  0  0  0  0  0  0  0  0  0  0
  -26.7225  -28.4467   19.1376 C   0  0  0  0  0  0  0  0  0  0  0  0
  -24.1252   -8.4143   21.3763 C   0  0  0  0  0  0  0  0  0  0  0  0
  -23.5564   -7.6418   22.3889 C   0  0  0  0  0  0  0  0  0  0  0  0
  -26.5857  -27.3669   21.2971 C   0  0  0  0  0  0  0  0  0  0  0  0
  -29.0325  -21.7706   17.5635 C   0  0  0  0  0  0  0  0  0  0  0  0
  -28.9341  -19.7746   16.2058 C   0  0  0  0  0  0  0  0  0  0  0  0
  -21.3505   -8.2228   21.5928 C   0  0  0  0  0  0  0  0  0  0  0  0
  -26.3127  -13.0203   20.5940 C   0  0  0  0  0  0  0  0  0  0  0  0
  -28.4751  -14.0428   21.4807 C   0  0  0  0  0  0  0  0  0  0  0  0
  -17.0463  -30.2175   22.5502 C   0  0  0  0  0  0  0  0  0  0  0  0
  -24.8179  -28.8605   20.5692 C   0  0  0  0  0  0  0  0  0  0  0  0
  -18.3105  -30.8180   22.3969 C   0  0  0  0  0  0  0  0  0  0  0  0
  -25.3617  -27.9978   21.5350 C   0  0  0  0  0  0  0  0  0  0  0  0
  -30.4032  -21.5885   15.5824 C   0  0  0  0  0  0  0  0  0  0  0  0
  -29.9791  -22.3145   16.6954 C   0  0  0  0  0  0  0  0  0  0  0  0
  -28.5101  -20.5006   17.3188 C   0  0  0  0  0  0  0  0  0  0  0  0
  -24.6732  -10.8941   19.8364 C   0  0  0  0  0  0  0  0  0  0  0  0
  -27.2605  -27.5880   20.0964 C   0  0  0  0  0  0  0  0  0  0  0  0
  -23.3067   -9.0911   20.4720 C   0  0  0  0  0  0  0  0  0  0  0  0
  -22.1690   -7.5461   22.4971 C   0  0  0  0  0  0  0  0  0  0  0  0
  -29.8807  -20.3185   15.3376 C   0  0  0  0  0  0  0  0  0  0  0  0
  -21.9194   -8.9953   20.5803 C   0  0  0  0  0  0  0  0  0  0  0  0
  -27.1592  -14.1183   20.9862 C   0  0  0  0  0  0  0  0  0  0  0  0
  -28.8346  -15.3499   21.7013 C   0  0  0  0  0  0  0  0  0  0  0  0
  -31.8804  -23.8514   17.1808 C   0  0  0  0  0  0  0  0  0  0  0  0
  -29.2988  -12.8937   21.7193 C   0  0  0  0  0  0  0  0  0  0  0  0
  -21.7856  -29.5891   22.6549 C   0  0  0  0  0  0  0  0  0  0  0  0
  -22.3742  -26.5934   22.9542 C   0  0  0  0  0  0  0  0  0  0  0  0
  -23.1096  -23.2733   22.6838 C   0  0  0  0  0  0  0  0  0  0  0  0
  -27.0205  -20.5350   19.3501 C   0  0  0  0  0  0  0  0  0  0  0  0
  -16.7877  -29.1716   23.6056 C   0  0  0  0  0  0  0  0  0  0  0  0
  -23.5360  -29.5783   20.8934 C   0  0  0  0  0  0  0  0  0  0  0  0
  -24.6024  -27.8089   22.8198 C   0  0  0  0  0  0  0  0  0  0  0  0
  -32.2382  -25.2956   17.4616 C   0  0  0  0  0  0  0  0  0  0  0  0
  -18.0607  -28.5335   24.1557 C   0  0  0  0  0  0  0  0  0  0  0  0
  -26.9551  -19.6180   22.7899 C   0  0  0  0  0  0  0  0  0  0  0  0
  -19.0958  -29.6047   24.4842 C   0  0  0  0  0  0  0  0  0  0  0  0
  -27.1259  -18.0974   22.7630 C   0  0  0  0  0  0  0  0  0  0  0  0
  -26.1049  -20.1140   21.6216 C   0  0  0  0  0  0  0  0  0  0  0  0
  -26.7245  -18.1508   20.2684 C   0  0  0  0  0  0  0  0  0  0  0  0
  -29.5853  -24.7671   17.0638 C   0  0  0  0  0  0  0  0  0  0  0  0
  -19.4992  -30.3859   23.2278 C   0  0  1  0  0  0  0  0  0  0  0  0
  -22.5501  -28.7170   21.7028 C   0  0  1  0  0  0  0  0  0  0  0  0
  -27.6277  -17.6109   21.3893 C   0  0  2  0  0  0  0  0  0  0  0  0
  -29.6344  -25.4163   18.4483 C   0  0  2  0  0  0  0  0  0  0  0  0
  -31.4151  -22.1499   14.6366 C   0  0  0  0  0  0  0  0  0  0  0  0
  -22.3697  -21.0189   23.5009 C   0  0  0  0  0  0  0  0  0  0  0  0
  -23.6895  -27.1432   25.6508 C   0  0  0  0  0  0  0  0  0  0  0  0
  -23.7753  -24.6704   26.0332 C   0  0  0  0  0  0  0  0  0  0  0  0
  -21.5741  -25.8148   25.7730 C   0  0  0  0  0  0  0  0  0  0  0  0
  -22.4946  -22.3517   19.9394 C   0  0  0  0  0  0  0  0  0  0  0  0
  -28.7582  -26.6642   18.4960 C   0  0  0  0  0  0  0  0  0  1  0  0
  -23.0606  -25.5125   23.7504 C   0  0  1  0  0  0  0  0  0  0  0  0
  -22.2318  -22.0662   22.4068 C   0  0  2  0  0  0  0  0  0  0  0  0
  -23.0370  -25.7967   25.2789 C   0  0  0  0  0  0  0  0  0  0  0  0
  -26.7129  -15.3741   20.8978 N   0  0  0  0  0  0  0  0  0  0  0  0
  -27.7542  -16.0997   21.3399 N   0  0  0  0  0  0  0  0  0  0  0  0
  -30.5062  -23.6258   16.9650 N   0  0  0  0  0  0  0  0  0  0  0  0
  -23.1649  -27.6714   22.5382 N   0  0  0  0  0  0  0  0  0  0  0  0
  -26.6426  -19.6174   20.3530 N   0  0  0  0  0  0  0  0  0  0  0  0
  -29.9663  -15.9195   22.1674 N   0  0  0  0  0  0  0  0  0  0  0  0
  -29.2462  -12.2842   22.9803 N   0  0  0  0  0  0  0  0  0  0  0  0
  -27.5486  -19.9480   18.2007 N   0  0  0  0  0  0  0  0  0  0  0  0
  -20.4230  -29.6120   22.4264 N   0  0  0  0  0  0  0  0  0  0  0  0
  -22.4253  -24.2567   23.3663 N   0  0  0  0  0  0  0  0  0  0  0  0
  -22.6065  -21.4403   21.1073 N   0  3  0  0  0  0  0  0  0  0  0  0
  -32.7705  -23.0007   17.1864 O   0  0  0  0  0  0  0  0  0  0  0  0
  -30.0711  -12.4314   20.8457 O   0  0  0  0  0  0  0  0  0  0  0  0
  -22.3865  -30.1961   23.5336 O   0  0  0  0  0  0  0  0  0  0  0  0
  -21.1685  -26.4901   22.7112 O   0  0  0  0  0  0  0  0  0  0  0  0
  -24.2859  -23.3359   22.3332 O   0  0  0  0  0  0  0  0  0  0  0  0
  -26.9109  -21.7533   19.5106 O   0  0  0  0  0  0  0  0  0  0  0  0
  -23.8730   -9.8569   19.4668 O   0  0  0  0  0  0  0  0  0  0  0  0
  -28.4453  -26.9607   19.8564 O   0  0  0  0  0  0  0  0  0  1  0  0
  -21.6229   -6.8030   23.4686 F   0  0  0  0  0  0  0  0  0  0  0  0
  -30.2803  -19.6132   14.2700 F   0  0  0  0  0  0  0  0  0  0  0  0
  -21.1279   -9.6423   19.7137 F   0  0  0  0  0  0  0  0  0  0  0  0
  -31.3447  -25.8717   18.9292 S   0  0  0  0  0  0  0  0  0  0  0  0
  1  2  1  0  0  0  0
  1  5  2  0  0  0  0
  2  6  2  0  0  0  0
  3  8  2  0  0  0  0
  3 17  1  0  0  0  0
  4  9  1  0  0  0  0
  4 17  2  0  0  0  0
  5 19  1  0  0  0  0
  6 21  1  0  0  0  0
  7 10  2  0  0  0  0
  7 20  1  0  0  0  0
  8 26  1  0  0  0  0
  9 26  2  0  0  0  0
 10 27  1  0  0  0  0
 11 12  2  0  0  0  0
 11 28  1  0  0  0  0
 12 29  1  0  0  0  0
 13 22  1  0  0  0  0
 13 27  2  0  0  0  0
 14 24  1  0  0  0  0
 14 25  2  0  0  0  0
 15 25  1  0  0  0  0
 15 30  2  0  0  0  0
 16 29  2  0  0  0  0
 16 31  1  0  0  0  0
 17 32  1  0  0  0  0
 18 32  1  0  0  0  0
 18 33  2  0  0  0  0
 18 35  1  0  0  0  0
 19 21  2  0  0  0  0
 19 40  1  0  0  0  0
 20 22  2  0  0  0  0
 20 41  1  0  0  0  0
 21 51  1  0  0  0  0
 22 42  1  0  0  0  0
 23 24  2  0  0  0  0
 23 30  1  0  0  0  0
 23 55  1  0  0  0  0
 24 67  1  0  0  0  0
 25 72  1  0  0  0  0
 26 82  1  0  0  0  0
 27 83  1  0  0  0  0
 28 31  2  0  0  0  0
 28 82  1  0  0  0  0
 29 84  1  0  0  0  0
 30 85  1  0  0  0  0
 31 86  1  0  0  0  0
 32 65  2  0  0  0  0
 33 66  1  0  0  0  0
 33 70  1  0  0  0  0
 34 43  1  0  0  0  0
 34 67  1  0  0  0  0
 34 76  2  0  0  0  0
 35 71  1  0  0  0  0
 35 77  2  0  0  0  0
 36 52  1  0  0  0  0
 36 73  1  0  0  0  0
 36 78  2  0  0  0  0
 37 62  1  0  0  0  0
 37 68  1  0  0  0  0
 37 79  2  0  0  0  0
 38 63  1  0  0  0  0
 38 74  1  0  0  0  0
 38 80  2  0  0  0  0
 39 69  1  0  0  0  0
 39 72  1  0  0  0  0
 39 81  2  0  0  0  0
 40 44  1  0  0  0  0
 41 52  1  0  0  0  0
 42 68  1  0  0  0  0
 43 87  1  0  0  0  0
 44 46  1  0  0  0  0
 45 47  1  0  0  0  0
 45 48  1  0  0  0  0
 46 51  1  0  0  0  0
 47 53  1  0  0  0  0
 48 69  1  0  0  0  0
 49 53  1  0  0  0  0
 49 69  1  0  0  0  0
 50 54  1  0  0  0  0
 50 67  1  0  0  0  0
 51 73  1  0  0  0  0
 52 68  1  0  0  0  0
 53 66  1  0  0  0  0
 54 61  1  0  0  0  0
 54 87  1  0  0  0  0
 56 63  1  0  0  0  0
 57 64  1  0  0  0  0
 58 64  1  0  0  0  0
 59 64  1  0  0  0  0
 60 75  1  0  0  0  0
 61 83  1  0  0  0  0
 62 64  1  0  0  0  0
 62 74  1  0  0  0  0
 63 75  1  0  0  0  0
 65 66  1  0  0  0  0
M  CHG  1  75   1
M  ISO  4  39 100  61 101  72 100  83 101
M  END
> <Batch ID>
0065

> <Smiles>
CNC(C)C(=O)NC(C(=O)N1Cc2cc([101O:1][101CH2:1]C3CN(c4cc([100NH:0][100C:0](=O)N5CCCC(n6nc(-c7ccc(Oc8ccc(F)cc8F)cc7)c(C(N)=O)c6N)C5)cc(F)c4C)C(=O)CS3)ccc2CC1C(=O)NC1CCCc2ccccc21)C(C)(C)C

> <Shape>
0.247

> <Color>
0.078

> <Negative vol penalty>
0.000

$$$$

  -OEChem-04042323183D

 87 96  0     1  0  0  0  0  0999 V2000
  -27.8160  -33.5931   26.5407 C   0  0  0  0  0  0  0  0  0  0  0  0
  -28.0203  -32.4282   25.8082 C   0  0  0  0  0  0  0  0  0  0  0  0
  -23.9606  -13.2607   23.6078 C   0  0  0  0  0  0  0  0  0  0  0  0
  -25.9806  -13.8646   22.4281 C   0  0  0  0  0  0  0  0  0  0  0  0
  -26.5212  -33.9853   26.8776 C   0  0  0  0  0  0  0  0  0  0  0  0
  -26.9299  -31.6540   25.4132 C   0  0  0  0  0  0  0  0  0  0  0  0
  -27.2621  -30.1479   20.5897 C   0  0  0  0  0  0  0  0  0  0  0  0
  -23.6142  -12.3941   22.5712 C   0  0  0  0  0  0  0  0  0  0  0  0
  -25.6343  -12.9980   21.3914 C   0  0  0  0  0  0  0  0  0  0  0  0
  -28.1123  -29.0780   20.3138 C   0  0  0  0  0  0  0  0  0  0  0  0
  -24.4671   -9.2934   21.5266 C   0  0  0  0  0  0  0  0  0  0  0  0
  -24.0051   -8.0231   21.8706 C   0  0  0  0  0  0  0  0  0  0  0  0
  -26.2138  -27.5908   20.2606 C   0  0  0  0  0  0  0  0  0  0  0  0
  -29.9913  -21.8864   21.6827 C   0  0  0  0  0  0  0  0  0  0  0  0
  -30.0138  -19.6460   20.7789 C   0  0  0  0  0  0  0  0  0  0  0  0
  -21.9154   -8.4787   20.7471 C   0  0  0  0  0  0  0  0  0  0  0  0
  -25.1438  -13.9960   23.5363 C   0  0  0  0  0  0  0  0  0  0  0  0
  -25.7194  -14.5587   25.9569 C   0  0  0  0  0  0  0  0  0  0  0  0
  -25.4137  -33.2207   26.4783 C   0  0  0  0  0  0  0  0  0  0  0  0
  -25.8801  -29.9451   20.7141 C   0  0  0  0  0  0  0  0  0  0  0  0
  -25.6191  -32.0356   25.7463 C   0  0  0  0  0  0  0  0  0  0  0  0
  -25.3479  -28.6602   20.5356 C   0  0  0  0  0  0  0  0  0  0  0  0
  -31.3591  -21.3739   19.7584 C   0  0  0  0  0  0  0  0  0  0  0  0
  -30.8957  -22.2916   20.7012 C   0  0  0  0  0  0  0  0  0  0  0  0
  -29.5504  -20.5636   21.7216 C   0  0  0  0  0  0  0  0  0  0  0  0
  -24.4511  -12.2627   21.4630 C   0  0  0  0  0  0  0  0  0  0  0  0
  -27.5886  -27.7987   20.1521 C   0  0  0  0  0  0  0  0  0  0  0  0
  -23.6531  -10.1565   20.7928 C   0  0  0  0  0  0  0  0  0  0  0  0
  -22.7293   -7.6157   21.4809 C   0  0  0  0  0  0  0  0  0  0  0  0
  -30.9182  -20.0511   19.7972 C   0  0  0  0  0  0  0  0  0  0  0  0
  -22.3773   -9.7491   20.4031 C   0  0  0  0  0  0  0  0  0  0  0  0
  -25.5019  -14.8918   24.6065 C   0  0  0  0  0  0  0  0  0  0  0  0
  -26.0315  -15.7530   26.5591 C   0  0  0  0  0  0  0  0  0  0  0  0
  -32.7069  -23.9771   20.8174 C   0  0  0  0  0  0  0  0  0  0  0  0
  -25.6459  -13.2838   26.6087 C   0  0  0  0  0  0  0  0  0  0  0  0
  -23.7580  -30.3279   23.0494 C   0  0  0  0  0  0  0  0  0  0  0  0
  -21.6360  -29.5642   20.7179 C   0  0  0  0  0  0  0  0  0  0  0  0
  -21.0439  -28.0246   17.7303 C   0  0  0  0  0  0  0  0  0  0  0  0
  -28.0678  -20.9295   23.7336 C   0  0  0  0  0  0  0  0  0  0  0  0
  -24.0359  -33.6598   26.9067 C   0  0  0  0  0  0  0  0  0  0  0  0
  -24.9735  -31.1142   20.9854 C   0  0  0  0  0  0  0  0  0  0  0  0
  -23.8692  -28.3930   20.6390 C   0  0  0  0  0  0  0  0  0  0  0  0
  -22.9112  -32.9822   26.1283 C   0  0  0  0  0  0  0  0  0  0  0  0
  -25.0771  -20.4517   25.8517 C   0  0  0  0  0  0  0  0  0  0  0  0
  -23.1583  -31.4800   26.0319 C   0  0  0  0  0  0  0  0  0  0  0  0
  -24.9811  -18.9484   26.1166 C   0  0  0  0  0  0  0  0  0  0  0  0
  -26.5106  -20.9303   25.6678 C   0  0  0  0  0  0  0  0  0  0  0  0
  -30.3343  -24.7382   20.6436 C   0  0  0  0  0  0  0  0  0  0  0  0
  -26.8906  -18.7789   24.4440 C   0  0  0  0  0  0  0  0  0  0  0  0
  -32.0410  -26.0144   19.1847 C   0  0  0  0  0  0  0  0  0  0  0  0
  -24.4602  -31.1824   25.2783 C   0  0  1  0  0  0  0  0  0  0  0  0
  -23.6385  -30.7051   21.5999 C   0  0  1  0  0  0  0  0  0  0  0  0
  -30.5662  -25.7358   19.4925 C   0  0  2  0  0  0  0  0  0  0  0  0
  -26.2490  -18.1811   25.7059 C   0  0  2  0  0  0  0  0  0  0  0  0
  -32.3270  -21.7837   18.6960 C   0  0  0  0  0  0  0  0  0  0  0  0
  -19.2027  -27.5366   16.0965 C   0  0  0  0  0  0  0  0  0  0  0  0
  -20.5649  -27.3946   22.5768 C   0  0  0  0  0  0  0  0  0  0  0  0
  -19.4310  -26.3582   20.5999 C   0  0  0  0  0  0  0  0  0  0  0  0
  -18.8060  -28.6606   21.3286 C   0  0  0  0  0  0  0  0  0  0  0  0
  -22.4074  -29.5185   15.5697 C   0  0  0  0  0  0  0  0  0  0  0  0
  -29.8108  -27.0374   19.7807 C   0  0  0  0  0  0  0  0  0  1  0  0
  -21.0351  -28.2807   20.1978 C   0  0  1  0  0  0  0  0  0  0  0  0
  -20.3198  -28.4940   16.4813 C   0  0  2  0  0  0  0  0  0  0  0  0
  -19.9874  -27.6779   21.1757 C   0  0  0  0  0  0  0  0  0  0  0  0
  -25.6621  -16.1955   24.3647 N   0  0  0  0  0  0  0  0  0  0  0  0
  -25.9836  -16.6923   25.5714 N   0  0  0  0  0  0  0  0  0  0  0  0
  -31.3392  -23.6621   20.6777 N   0  0  0  0  0  0  0  0  0  0  0  0
  -23.0246  -29.5675   20.9119 N   0  0  0  0  0  0  0  0  0  0  0  0
  -27.1792  -20.2173   24.5755 N   0  0  0  0  0  0  0  0  0  0  0  0
  -26.3396  -16.0809   27.8319 N   0  0  0  0  0  0  0  0  0  0  0  0
  -26.8050  -12.4985   26.6731 N   0  0  0  0  0  0  0  0  0  0  0  0
  -28.6316  -20.1519   22.7190 N   0  0  0  0  0  0  0  0  0  0  0  0
  -24.2643  -31.3322   23.8522 N   0  0  0  0  0  0  0  0  0  0  0  0
  -20.5091  -28.5843   18.8713 N   0  0  0  0  0  0  0  0  0  0  0  0
  -21.2701  -28.5914   15.3374 N   0  3  0  0  0  0  0  0  0  0  0  0
  -33.6160  -23.1998   21.0874 O   0  0  0  0  0  0  0  0  0  0  0  0
  -24.5798  -12.8465   27.1045 O   0  0  0  0  0  0  0  0  0  0  0  0
  -23.4149  -29.2090   23.4129 O   0  0  0  0  0  0  0  0  0  0  0  0
  -20.9013  -30.5306   20.9370 O   0  0  0  0  0  0  0  0  0  0  0  0
  -21.9869  -27.2372   17.6973 O   0  0  0  0  0  0  0  0  0  0  0  0
  -28.2917  -22.1309   23.8970 O   0  0  0  0  0  0  0  0  0  0  0  0
  -24.1135  -11.4171   20.4513 O   0  0  0  0  0  0  0  0  0  0  0  0
  -28.4163  -26.7525   19.8835 O   0  0  0  0  0  0  0  0  0  1  0  0
  -22.2864   -6.3951   21.8100 F   0  0  0  0  0  0  0  0  0  0  0  0
  -31.3562  -19.1618   18.8950 F   0  0  0  0  0  0  0  0  0  0  0  0
  -21.5912  -10.5733   19.6970 F   0  0  0  0  0  0  0  0  0  0  0  0
  -33.1054  -25.6929   20.6130 S   0  0  0  0  0  0  0  0  0  0  0  0
  1  2  1  0  0  0  0
  1  5  2  0  0  0  0
  2  6  2  0  0  0  0
  3  8  2  0  0  0  0
  3 17  1  0  0  0  0
  4  9  1  0  0  0  0
  4 17  2  0  0  0  0
  5 19  1  0  0  0  0
  6 21  1  0  0  0  0
  7 10  2  0  0  0  0
  7 20  1  0  0  0  0
  8 26  1  0  0  0  0
  9 26  2  0  0  0  0
 10 27  1  0  0  0  0
 11 12  2  0  0  0  0
 11 28  1  0  0  0  0
 12 29  1  0  0  0  0
 13 22  1  0  0  0  0
 13 27  2  0  0  0  0
 14 24  1  0  0  0  0
 14 25  2  0  0  0  0
 15 25  1  0  0  0  0
 15 30  2  0  0  0  0
 16 29  2  0  0  0  0
 16 31  1  0  0  0  0
 17 32  1  0  0  0  0
 18 32  1  0  0  0  0
 18 33  2  0  0  0  0
 18 35  1  0  0  0  0
 19 21  2  0  0  0  0
 19 40  1  0  0  0  0
 20 22  2  0  0  0  0
 20 41  1  0  0  0  0
 21 51  1  0  0  0  0
 22 42  1  0  0  0  0
 23 24  2  0  0  0  0
 23 30  1  0  0  0  0
 23 55  1  0  0  0  0
 24 67  1  0  0  0  0
 25 72  1  0  0  0  0
 26 82  1  0  0  0  0
 27 83  1  0  0  0  0
 28 31  2  0  0  0  0
 28 82  1  0  0  0  0
 29 84  1  0  0  0  0
 30 85  1  0  0  0  0
 31 86  1  0  0  0  0
 32 65  2  0  0  0  0
 33 66  1  0  0  0  0
 33 70  1  0  0  0  0
 34 67  1  0  0  0  0
 34 76  2  0  0  0  0
 34 87  1  0  0  0  0
 35 71  1  0  0  0  0
 35 77  2  0  0  0  0
 36 52  1  0  0  0  0
 36 73  1  0  0  0  0
 36 78  2  0  0  0  0
 37 62  1  0  0  0  0
 37 68  1  0  0  0  0
 37 79  2  0  0  0  0
 38 63  1  0  0  0  0
 38 74  1  0  0  0  0
 38 80  2  0  0  0  0
 39 69  1  0  0  0  0
 39 72  1  0  0  0  0
 39 81  2  0  0  0  0
 40 43  1  0  0  0  0
 41 52  1  0  0  0  0
 42 68  1  0  0  0  0
 43 45  1  0  0  0  0
 44 46  1  0  0  0  0
 44 47  1  0  0  0  0
 45 51  1  0  0  0  0
 46 54  1  0  0  0  0
 47 69  1  0  0  0  0
 48 53  1  0  0  0  0
 48 67  1  0  0  0  0
 49 54  1  0  0  0  0
 49 69  1  0  0  0  0
 50 53  1  0  0  0  0
 50 87  1  0  0  0  0
 51 73  1  0  0  0  0
 52 68  1  0  0  0  0
 53 61  1  0  0  0  0
 54 66  1  0  0  0  0
 56 63  1  0  0  0  0
 57 64  1  0  0  0  0
 58 64  1  0  0  0  0
 59 64  1  0  0  0  0
 60 75  1  0  0  0  0
 61 83  1  0  0  0  0
 62 64  1  0  0  0  0
 62 74  1  0  0  0  0
 63 75  1  0  0  0  0
 65 66  1  0  0  0  0
M  CHG  1  75   1
M  ISO  4  39 100  61 101  72 100  83 101
M  END
> <Batch ID>
0065

> <Smiles>
CNC(C)C(=O)NC(C(=O)N1Cc2cc([101O:1][101CH2:1]C3CSC(=O)N(c4cc([100NH:0][100C:0](=O)N5CCCC(n6nc(-c7ccc(Oc8ccc(F)cc8F)cc7)c(C(N)=O)c6N)C5)cc(F)c4C)C3)ccc2CC1C(=O)NC1CCCc2ccccc21)C(C)(C)C

> <Shape>
0.245

> <Color>
0.077

> <Negative vol penalty>
0.000

$$$$

  -OEChem-04042323183D

 83 91  0     1  0  0  0  0  0999 V2000
  -25.0593   -9.9824   25.5744 C   0  0  0  0  0  0  0  0  0  0  0  0
  -25.3675  -11.3377   25.5140 C   0  0  0  0  0  0  0  0  0  0  0  0
  -22.6656  -10.1824   20.1258 C   0  0  0  0  0  0  0  0  0  0  0  0
  -24.2815   -9.4430   21.7627 C   0  0  0  0  0  0  0  0  0  0  0  0
  -23.7610   -9.5768   25.8805 C   0  0  0  0  0  0  0  0  0  0  0  0
  -24.3771  -12.2883   25.7587 C   0  0  0  0  0  0  0  0  0  0  0  0
  -25.9683  -16.0134   28.7978 C   0  0  0  0  0  0  0  0  0  0  0  0
  -31.2640  -19.0976   20.8794 C   0  0  0  0  0  0  0  0  0  0  0  0
  -31.1064  -17.7136   20.8074 C   0  0  0  0  0  0  0  0  0  0  0  0
  -21.9314   -9.0128   20.3222 C   0  0  0  0  0  0  0  0  0  0  0  0
  -23.5472   -8.2734   21.9592 C   0  0  0  0  0  0  0  0  0  0  0  0
  -26.7673  -17.0033   28.2271 C   0  0  0  0  0  0  0  0  0  0  0  0
  -20.7620   -7.3335   23.6263 C   0  0  0  0  0  0  0  0  0  0  0  0
  -20.5465   -6.9184   24.9404 C   0  0  0  0  0  0  0  0  0  0  0  0
  -24.8464  -18.4539   28.0687 C   0  0  0  0  0  0  0  0  0  0  0  0
  -29.4784  -17.8062   22.5902 C   0  0  0  0  0  0  0  0  0  0  0  0
  -21.6915   -4.8430   24.4726 C   0  0  0  0  0  0  0  0  0  0  0  0
  -23.8407  -10.3975   20.8459 C   0  0  0  0  0  0  0  0  0  0  0  0
  -24.1627  -12.9281   20.8444 C   0  0  0  0  0  0  0  0  0  0  0  0
  -22.7564  -10.5229   26.1386 C   0  0  0  0  0  0  0  0  0  0  0  0
  -24.5979  -16.2328   28.9985 C   0  0  0  0  0  0  0  0  0  0  0  0
  -23.0637  -11.8950   26.0673 C   0  0  0  0  0  0  0  0  0  0  0  0
  -24.0328  -17.4662   28.6444 C   0  0  0  0  0  0  0  0  0  0  0  0
  -30.5288  -19.8360   21.8069 C   0  0  0  0  0  0  0  0  0  0  0  0
  -30.2136  -17.0679   21.6628 C   0  0  0  0  0  0  0  0  0  0  0  0
  -29.6360  -19.1903   22.6622 C   0  0  0  0  0  0  0  0  0  0  0  0
  -22.3722   -8.0583   21.2390 C   0  0  0  0  0  0  0  0  0  0  0  0
  -26.2058  -18.2227   27.8598 C   0  0  0  0  0  0  0  0  0  0  0  0
  -21.4421   -6.5032   22.7352 C   0  0  0  0  0  0  0  0  0  0  0  0
  -21.0113   -5.6732   25.3635 C   0  0  0  0  0  0  0  0  0  0  0  0
  -21.9069   -5.2580   23.1584 C   0  0  0  0  0  0  0  0  0  0  0  0
  -24.5999  -11.6052   20.6430 C   0  0  0  0  0  0  0  0  0  0  0  0
  -25.2481  -13.7024   20.5145 C   0  0  0  0  0  0  0  0  0  0  0  0
  -22.8893  -13.4136   21.2898 C   0  0  0  0  0  0  0  0  0  0  0  0
  -21.9290  -14.8807   27.9249 C   0  0  0  0  0  0  0  0  0  0  0  0
  -20.5200  -16.8922   30.0442 C   0  0  0  0  0  0  0  0  0  0  0  0
  -27.9575  -19.4252   24.5254 C   0  0  0  0  0  0  0  0  0  0  0  0
  -20.6934  -19.7820   31.8512 C   0  0  0  0  0  0  0  0  0  0  0  0
  -30.7064  -14.7815   20.7268 C   0  0  0  0  0  0  0  0  0  0  0  0
  -21.3564  -10.0370   26.4189 C   0  0  0  0  0  0  0  0  0  0  0  0
  -23.7551  -15.1647   29.6398 C   0  0  0  0  0  0  0  0  0  0  0  0
  -22.5708  -17.7590   28.8576 C   0  0  0  0  0  0  0  0  0  0  0  0
  -20.4532  -11.1034   27.0332 C   0  0  0  0  0  0  0  0  0  0  0  0
  -29.6049  -12.4733   18.2497 C   0  0  0  0  0  0  0  0  0  0  0  0
  -20.5882  -12.4194   26.2738 C   0  0  0  0  0  0  0  0  0  0  0  0
  -28.1686  -12.1505   18.6681 C   0  0  0  0  0  0  0  0  0  0  0  0
  -30.5211  -12.6524   19.4588 C   0  0  0  0  0  0  0  0  0  0  0  0
  -28.6121  -13.2960   20.8768 C   0  0  0  0  0  0  0  0  0  0  0  0
  -22.0226  -12.9561   26.3508 C   0  0  1  0  0  0  0  0  0  0  0  0
  -22.2691  -15.3069   29.3251 C   0  0  1  0  0  0  0  0  0  0  0  0
  -27.6377  -13.1708   19.6941 C   0  0  2  0  0  0  0  0  0  0  0  0
  -30.7180  -21.3172   21.8617 C   0  0  0  0  0  0  0  0  0  0  0  0
  -19.3726  -21.1792   33.4639 C   0  0  0  0  0  0  0  0  0  0  0  0
  -18.7729  -17.8860   27.7485 C   0  0  0  0  0  0  0  0  0  0  0  0
  -18.1789  -19.8720   29.1525 C   0  0  0  0  0  0  0  0  0  0  0  0
  -17.5683  -17.5778   29.9184 C   0  0  0  0  0  0  0  0  0  0  0  0
  -22.7492  -19.4977   33.9612 C   0  0  0  0  0  0  0  0  0  0  0  0
  -27.3717  -20.5583   25.3603 C   0  0  0  0  0  0  0  0  0  0  0  0
  -26.3520  -20.0813   26.3833 C   0  0  0  0  0  0  0  0  0  1  0  0
  -19.9890  -18.3042   29.9873 C   0  0  1  0  0  0  0  0  0  0  0  0
  -20.4070  -20.0747   33.3130 C   0  0  2  0  0  0  0  0  0  0  0  0
  -18.6545  -18.4041   29.1958 C   0  0  0  0  0  0  0  0  0  0  0  0
  -25.8644  -11.5391   20.2180 N   0  0  0  0  0  0  0  0  0  0  0  0
  -26.2310  -12.8302   20.1495 N   0  0  0  0  0  0  0  0  0  0  0  0
  -21.7870  -16.6806   29.4822 N   0  0  0  0  0  0  0  0  0  0  0  0
  -29.9564  -13.6363   20.3850 N   0  0  0  0  0  0  0  0  0  0  0  0
  -25.4480  -15.0375   20.5039 N   0  0  0  0  0  0  0  0  0  0  0  0
  -22.6857  -13.5910   22.6651 N   0  0  0  0  0  0  0  0  0  0  0  0
  -28.8814  -19.9220   23.6098 N   0  0  0  0  0  0  0  0  0  0  0  0
  -30.0539  -15.6619   21.5892 N   0  0  0  0  0  0  0  0  0  0  0  0
  -22.2637  -13.5710   27.6386 N   0  0  0  0  0  0  0  0  0  0  0  0
  -19.8997  -18.7627   31.3694 N   0  0  0  0  0  0  0  0  0  0  0  0
  -21.6537  -20.5000   34.0100 N   0  3  0  0  0  0  0  0  0  0  0  0
  -21.9540  -13.6666   20.4931 O   0  0  0  0  0  0  0  0  0  0  0  0
  -21.4006  -15.6805   27.1615 O   0  0  0  0  0  0  0  0  0  0  0  0
  -19.8389  -16.0108   30.5742 O   0  0  0  0  0  0  0  0  0  0  0  0
  -27.6215  -18.2564   24.6839 O   0  0  0  0  0  0  0  0  0  0  0  0
  -21.5343  -20.3987   31.2007 O   0  0  0  0  0  0  0  0  0  0  0  0
  -31.8330  -14.9810   20.2652 O   0  0  0  0  0  0  0  0  0  0  0  0
  -21.6559   -6.9171   21.4311 O   0  0  0  0  0  0  0  0  0  0  0  0
  -26.9833  -19.1903   27.3020 O   0  0  0  0  0  0  0  0  0  1  0  0
  -20.8057   -5.2754   26.6259 F   0  0  0  0  0  0  0  0  0  0  0  0
  -22.5620   -4.4566   22.3073 F   0  0  0  0  0  0  0  0  0  0  0  0
  1  2  1  0  0  0  0
  1  5  2  0  0  0  0
  2  6  2  0  0  0  0
  3 10  2  0  0  0  0
  3 18  1  0  0  0  0
  4 11  1  0  0  0  0
  4 18  2  0  0  0  0
  5 20  1  0  0  0  0
  6 22  1  0  0  0  0
  7 12  2  0  0  0  0
  7 21  1  0  0  0  0
  8  9  2  0  0  0  0
  8 24  1  0  0  0  0
  9 25  1  0  0  0  0
 10 27  1  0  0  0  0
 11 27  2  0  0  0  0
 12 28  1  0  0  0  0
 13 14  2  0  0  0  0
 13 29  1  0  0  0  0
 14 30  1  0  0  0  0
 15 23  1  0  0  0  0
 15 28  2  0  0  0  0
 16 25  2  0  0  0  0
 16 26  1  0  0  0  0
 17 30  2  0  0  0  0
 17 31  1  0  0  0  0
 18 32  1  0  0  0  0
 19 32  1  0  0  0  0
 19 33  2  0  0  0  0
 19 34  1  0  0  0  0
 20 22  2  0  0  0  0
 20 40  1  0  0  0  0
 21 23  2  0  0  0  0
 21 41  1  0  0  0  0
 22 49  1  0  0  0  0
 23 42  1  0  0  0  0
 24 26  2  0  0  0  0
 24 52  1  0  0  0  0
 25 70  1  0  0  0  0
 26 69  1  0  0  0  0
 27 80  1  0  0  0  0
 28 81  1  0  0  0  0
 29 31  2  0  0  0  0
 29 80  1  0  0  0  0
 30 82  1  0  0  0  0
 31 83  1  0  0  0  0
 32 63  2  0  0  0  0
 33 64  1  0  0  0  0
 33 67  1  0  0  0  0
 34 68  1  0  0  0  0
 34 74  2  0  0  0  0
 35 50  1  0  0  0  0
 35 71  1  0  0  0  0
 35 75  2  0  0  0  0
 36 60  1  0  0  0  0
 36 65  1  0  0  0  0
 36 76  2  0  0  0  0
 37 58  1  0  0  0  0
 37 69  1  0  0  0  0
 37 77  2  0  0  0  0
 38 61  1  0  0  0  0
 38 72  1  0  0  0  0
 38 78  2  0  0  0  0
 39 66  1  0  0  0  0
 39 70  1  0  0  0  0
 39 79  2  0  0  0  0
 40 43  1  0  0  0  0
 41 50  1  0  0  0  0
 42 65  1  0  0  0  0
 43 45  1  0  0  0  0
 44 46  1  0  0  0  0
 44 47  1  0  0  0  0
 45 49  1  0  0  0  0
 46 51  1  0  0  0  0
 47 66  1  0  0  0  0
 48 51  1  0  0  0  0
 48 66  1  0  0  0  0
 49 71  1  0  0  0  0
 50 65  1  0  0  0  0
 51 64  1  0  0  0  0
 53 61  1  0  0  0  0
 54 62  1  0  0  0  0
 55 62  1  0  0  0  0
 56 62  1  0  0  0  0
 57 73  1  0  0  0  0
 58 59  1  0  0  0  0
 59 81  1  0  0  0  0
 60 62  1  0  0  0  0
 60 72  1  0  0  0  0
 61 73  1  0  0  0  0
 63 64  1  0  0  0  0
M  CHG  1  73   1
M  ISO  4  39 100  59 101  70 100  81 101
M  END
> <Batch ID>
0065

> <Smiles>
CNC(C)C(=O)NC(C(=O)N1Cc2cc([101O:1][101CH2:1]CC(=O)Nc3cc([100NH:0][100C:0](=O)N4CCCC(n5nc(-c6ccc(Oc7ccc(F)cc7F)cc6)c(C(N)=O)c5N)C4)ccc3C)ccc2CC1C(=O)NC1CCCc2ccccc21)C(C)(C)C

> <Shape>
0.192

> <Color>
0.178

> <Negative vol penalty>
0.000

$$$$

  -OEChem-04042323183D

 90 99  0     1  0  0  0  0  0999 V2000
  -26.3470  -36.0773   16.1771 C   0  0  0  0  0  0  0  0  0  0  0  0
  -26.5169  -34.6980   16.1130 C   0  0  0  0  0  0  0  0  0  0  0  0
  -24.7854   -8.7042   21.6439 C   0  0  0  0  0  0  0  0  0  0  0  0
  -23.2358   -9.9017   20.2291 C   0  0  0  0  0  0  0  0  0  0  0  0
  -26.4560  -36.7358   17.4011 C   0  0  0  0  0  0  0  0  0  0  0  0
  -26.7972  -33.9766   17.2729 C   0  0  0  0  0  0  0  0  0  0  0  0
  -24.9241  -28.3044   18.6234 C   0  0  0  0  0  0  0  0  0  0  0  0
  -23.7286   -8.3004   22.4597 C   0  0  0  0  0  0  0  0  0  0  0  0
  -22.1789   -9.4978   21.0449 C   0  0  0  0  0  0  0  0  0  0  0  0
  -25.5491  -27.0620   18.5255 C   0  0  0  0  0  0  0  0  0  0  0  0
  -21.3949   -6.6557   24.7101 C   0  0  0  0  0  0  0  0  0  0  0  0
  -21.3594   -5.3205   25.1119 C   0  0  0  0  0  0  0  0  0  0  0  0
  -26.1890  -27.2078   20.8468 C   0  0  0  0  0  0  0  0  0  0  0  0
  -25.1957  -17.0292   16.8352 C   0  0  0  0  0  0  0  0  0  0  0  0
  -26.8213  -18.3848   17.9999 C   0  0  0  0  0  0  0  0  0  0  0  0
  -21.2494   -4.6277   22.8000 C   0  0  0  0  0  0  0  0  0  0  0  0
  -24.5391   -9.5050   20.5287 C   0  0  0  0  0  0  0  0  0  0  0  0
  -26.1398   -9.2508   18.5587 C   0  0  0  0  0  0  0  0  0  0  0  0
  -26.7282  -36.0209   18.5781 C   0  0  0  0  0  0  0  0  0  0  0  0
  -24.9363  -29.0140   19.8329 C   0  0  0  0  0  0  0  0  0  0  0  0
  -26.9114  -34.6263   18.5137 C   0  0  0  0  0  0  0  0  0  0  0  0
  -25.5613  -28.4578   20.9581 C   0  0  0  0  0  0  0  0  0  0  0  0
  -24.4705  -18.1762   16.5124 C   0  0  0  0  0  0  0  0  0  0  0  0
  -26.0962  -19.5318   17.6770 C   0  0  0  0  0  0  0  0  0  0  0  0
  -26.3711  -17.1335   17.5791 C   0  0  0  0  0  0  0  0  0  0  0  0
  -22.4253   -8.6972   22.1602 C   0  0  0  0  0  0  0  0  0  0  0  0
  -26.1842  -26.5148   19.6365 C   0  0  0  0  0  0  0  0  0  0  0  0
  -21.3576   -6.9770   23.3532 C   0  0  0  0  0  0  0  0  0  0  0  0
  -21.2867   -4.3065   24.1569 C   0  0  0  0  0  0  0  0  0  0  0  0
  -21.2849   -5.9630   22.3982 C   0  0  0  0  0  0  0  0  0  0  0  0
  -24.9208  -19.4275   16.9332 C   0  0  0  0  0  0  0  0  0  0  0  0
  -25.6304   -9.9229   19.6859 C   0  0  0  0  0  0  0  0  0  0  0  0
  -27.1631  -10.0519   18.1145 C   0  0  0  0  0  0  0  0  0  0  0  0
  -27.9037  -22.4996   18.8078 C   0  0  0  0  0  0  0  0  0  0  0  0
  -27.8823  -21.0951   18.2857 C   0  0  0  0  0  0  0  0  0  0  0  0
  -25.7249   -8.0128   17.9661 C   0  0  0  0  0  0  0  0  0  0  0  0
  -26.0918  -31.8214   20.7749 C   0  0  0  0  0  0  0  0  0  0  0  0
  -24.5354  -31.0986   23.5277 C   0  0  0  0  0  0  0  0  0  0  0  0
  -23.2345  -28.6989   25.5761 C   0  0  0  0  0  0  0  0  0  0  0  0
  -28.2934  -15.8961   18.6372 C   0  0  0  0  0  0  0  0  0  0  0  0
  -26.8838  -36.7825   19.8706 C   0  0  0  0  0  0  0  0  0  0  0  0
  -24.2346  -30.3409   19.9292 C   0  0  0  0  0  0  0  0  0  0  0  0
  -25.5852  -29.1701   22.2850 C   0  0  0  0  0  0  0  0  0  0  0  0
  -26.8120  -35.8968   21.1119 C   0  0  0  0  0  0  0  0  0  0  0  0
  -30.3925  -13.2190   19.6879 C   0  0  0  0  0  0  0  0  0  0  0  0
  -27.6804  -34.6556   20.9331 C   0  0  0  0  0  0  0  0  0  0  0  0
  -29.4573  -12.0076   19.6981 C   0  0  0  0  0  0  0  0  0  0  0  0
  -29.6794  -14.4899   20.1461 C   0  0  0  0  0  0  0  0  0  0  0  0
  -25.6699  -21.9039   18.3933 C   0  0  0  0  0  0  0  0  0  0  0  0
  -27.4997  -13.5849   19.4396 C   0  0  0  0  0  0  0  0  0  0  0  0
  -27.1920  -33.8057   19.7538 C   0  0  1  0  0  0  0  0  0  0  0  0
  -26.5114  -22.9650   19.1075 C   0  0  2  0  0  0  0  0  0  0  0  0
  -24.7522  -31.2090   21.0720 C   0  0  1  0  0  0  0  0  0  0  0  0
  -28.1559  -12.2938   18.9236 C   0  0  2  0  0  0  0  0  0  0  0  0
  -22.0588  -28.4113   27.7744 C   0  0  0  0  0  0  0  0  0  0  0  0
  -27.1661  -31.5836   24.9954 C   0  0  0  0  0  0  0  0  0  0  0  0
  -26.2028  -30.3878   26.9729 C   0  0  0  0  0  0  0  0  0  0  0  0
  -25.1433  -32.4917   26.1521 C   0  0  0  0  0  0  0  0  0  0  0  0
  -20.8665  -27.4833   24.2825 C   0  0  0  0  0  0  0  0  0  0  0  0
  -26.2515  -24.3707   18.6097 C   0  0  0  0  0  0  0  0  0  1  0  0
  -24.8957  -30.3700   24.7998 C   0  0  1  0  0  0  0  0  0  0  0  0
  -21.8906  -28.5904   26.2736 C   0  0  2  0  0  0  0  0  0  0  0  0
  -23.2145  -18.0607   15.7160 C   0  0  0  0  0  0  0  0  0  0  0  0
  -25.8534  -31.1955   25.7047 C   0  0  0  0  0  0  0  0  0  0  0  0
  -26.2770  -11.0633   19.9420 N   0  0  0  0  0  0  0  0  0  0  0  0
  -27.2032  -11.1138   18.9696 N   0  0  0  0  0  0  0  0  0  0  0  0
  -26.5468  -20.7777   18.0978 N   0  0  0  0  0  0  0  0  0  0  0  0
  -24.8906  -30.4675   22.3271 N   0  0  0  0  0  0  0  0  0  0  0  0
  -28.4581  -14.6988   19.3652 N   0  0  0  0  0  0  0  0  0  0  0  0
  -28.0237   -9.9446   17.0799 N   0  0  0  0  0  0  0  0  0  0  0  0
  -24.6566   -7.3179   18.5493 N   0  0  0  0  0  0  0  0  0  0  0  0
  -27.1077  -15.9684   17.9068 N   0  0  0  0  0  0  0  0  0  0  0  0
  -26.0220  -33.0423   20.1315 N   0  0  0  0  0  0  0  0  0  0  0  0
  -23.6329  -30.0116   25.4365 N   0  0  0  0  0  0  0  0  0  0  0  0
  -21.1249  -27.4265   25.7443 N   0  3  0  0  0  0  0  0  0  0  0  0
  -28.9484  -23.0980   18.9681 O   0  0  0  0  0  0  0  0  0  0  0  0
  -28.8995  -20.4604   18.0991 O   0  0  0  0  0  0  0  0  0  0  0  0
  -26.2956   -7.5289   16.9593 O   0  0  0  0  0  0  0  0  0  0  0  0
  -27.1130  -31.2306   21.1062 O   0  0  0  0  0  0  0  0  0  0  0  0
  -23.9537  -32.1842   23.5965 O   0  0  0  0  0  0  0  0  0  0  0  0
  -23.8693  -27.7173   25.1967 O   0  0  0  0  0  0  0  0  0  0  0  0
  -29.1542  -16.7799   18.6383 O   0  0  0  0  0  0  0  0  0  0  0  0
  -21.3937   -8.3031   22.9559 O   0  0  0  0  0  0  0  0  0  0  0  0
  -26.7955  -25.3026   19.5436 O   0  0  0  0  0  0  0  0  0  1  0  0
  -21.2541   -3.0242   24.5428 F   0  0  0  0  0  0  0  0  0  0  0  0
  -21.2499   -6.2654   21.0931 F   0  0  0  0  0  0  0  0  0  0  0  0
  -24.2214  -20.5292   16.6219 F   0  0  0  0  0  0  0  0  0  0  0  0
  -22.8993  -16.7763   15.3744 F   0  0  0  0  0  0  0  0  0  0  0  0
  -22.1109  -18.5382   16.3637 F   0  0  0  0  0  0  0  0  0  0  0  0
  -23.2745  -18.7485   14.5386 F   0  0  0  0  0  0  0  0  0  0  0  0
  1  2  1  0  0  0  0
  1  5  2  0  0  0  0
  2  6  2  0  0  0  0
  3  8  2  0  0  0  0
  3 17  1  0  0  0  0
  4  9  1  0  0  0  0
  4 17  2  0  0  0  0
  5 19  1  0  0  0  0
  6 21  1  0  0  0  0
  7 10  2  0  0  0  0
  7 20  1  0  0  0  0
  8 26  1  0  0  0  0
  9 26  2  0  0  0  0
 10 27  1  0  0  0  0
 11 12  2  0  0  0  0
 11 28  1  0  0  0  0
 12 29  1  0  0  0  0
 13 22  1  0  0  0  0
 13 27  2  0  0  0  0
 14 23  2  0  0  0  0
 14 25  1  0  0  0  0
 15 24  1  0  0  0  0
 15 25  2  0  0  0  0
 16 29  2  0  0  0  0
 16 30  1  0  0  0  0
 17 32  1  0  0  0  0
 18 32  1  0  0  0  0
 18 33  2  0  0  0  0
 18 36  1  0  0  0  0
 19 21  2  0  0  0  0
 19 41  1  0  0  0  0
 20 22  2  0  0  0  0
 20 42  1  0  0  0  0
 21 51  1  0  0  0  0
 22 43  1  0  0  0  0
 23 31  1  0  0  0  0
 23 63  1  0  0  0  0
 24 31  2  0  0  0  0
 24 67  1  0  0  0  0
 25 72  1  0  0  0  0
 26 83  1  0  0  0  0
 27 84  1  0  0  0  0
 28 30  2  0  0  0  0
 28 83  1  0  0  0  0
 29 85  1  0  0  0  0
 30 86  1  0  0  0  0
 31 87  1  0  0  0  0
 32 65  2  0  0  0  0
 33 66  1  0  0  0  0
 33 70  1  0  0  0  0
 34 35  1  0  0  0  0
 34 52  1  0  0  0  0
 34 76  2  0  0  0  0
 35 67  1  0  0  0  0
 35 77  2  0  0  0  0
 36 71  1  0  0  0  0
 36 78  2  0  0  0  0
 37 53  1  0  0  0  0
 37 73  1  0  0  0  0
 37 79  2  0  0  0  0
 38 61  1  0  0  0  0
 38 68  1  0  0  0  0
 38 80  2  0  0  0  0
 39 62  1  0  0  0  0
 39 74  1  0  0  0  0
 39 81  2  0  0  0  0
 40 69  1  0  0  0  0
 40 72  1  0  0  0  0
 40 82  2  0  0  0  0
 41 44  1  0  0  0  0
 42 53  1  0  0  0  0
 43 68  1  0  0  0  0
 44 46  1  0  0  0  0
 45 47  1  0  0  0  0
 45 48  1  0  0  0  0
 46 51  1  0  0  0  0
 47 54  1  0  0  0  0
 48 69  1  0  0  0  0
 49 52  1  0  0  0  0
 49 67  1  0  0  0  0
 50 54  1  0  0  0  0
 50 69  1  0  0  0  0
 51 73  1  0  0  0  0
 52 60  1  0  0  0  0
 53 68  1  0  0  0  0
 54 66  1  0  0  0  0
 55 62  1  0  0  0  0
 56 64  1  0  0  0  0
 57 64  1  0  0  0  0
 58 64  1  0  0  0  0
 59 75  1  0  0  0  0
 60 84  1  0  0  0  0
 61 64  1  0  0  0  0
 61 74  1  0  0  0  0
 62 75  1  0  0  0  0
 63 88  1  0  0  0  0
 63 89  1  0  0  0  0
 63 90  1  0  0  0  0
 65 66  1  0  0  0  0
M  CHG  1  75   1
M  ISO  4  40 100  60 101  72 100  84 101
M  END
> <Batch ID>
0065

> <Smiles>
CNC(C)C(=O)NC(C(=O)N1Cc2cc([101O:1][101CH2:1]C3CN(c4cc([100NH:0][100C:0](=O)N5CCCC(n6nc(-c7ccc(Oc8ccc(F)cc8F)cc7)c(C(N)=O)c6N)C5)cc(C(F)(F)F)c4F)C(=O)C3=O)ccc2CC1C(=O)NC1CCCc2ccccc21)C(C)(C)C

> <Shape>
0.236

> <Color>
0.128

> <Negative vol penalty>
0.000

$$$$

  -OEChem-04042323182D

  0  0  0     0  0  0  0  0  0999 V2000
M  END
$$$$

  -OEChem-04042323183D

 90 99  0     1  0  0  0  0  0999 V2000
  -27.0052  -34.6632   24.7134 C   0  0  0  0  0  0  0  0  0  0  0  0
  -27.5953  -33.4083   24.6014 C   0  0  0  0  0  0  0  0  0  0  0  0
  -24.5437   -9.1419   21.6304 C   0  0  0  0  0  0  0  0  0  0  0  0
  -22.6875  -10.4167   20.7549 C   0  0  0  0  0  0  0  0  0  0  0  0
  -25.6447  -34.8183   24.4511 C   0  0  0  0  0  0  0  0  0  0  0  0
  -26.8250  -32.3076   24.2280 C   0  0  0  0  0  0  0  0  0  0  0  0
  -28.6186  -27.5431   20.8240 C   0  0  0  0  0  0  0  0  0  0  0  0
  -26.8073  -20.4024   18.4283 C   0  0  0  0  0  0  0  0  0  0  0  0
  -23.7394   -8.0033   21.6779 C   0  0  0  0  0  0  0  0  0  0  0  0
  -21.8832   -9.2781   20.8024 C   0  0  0  0  0  0  0  0  0  0  0  0
  -29.0470  -26.2593   21.1590 C   0  0  0  0  0  0  0  0  0  0  0  0
  -21.3375   -6.7331   23.6883 C   0  0  0  0  0  0  0  0  0  0  0  0
  -21.3919   -5.9497   24.8411 C   0  0  0  0  0  0  0  0  0  0  0  0
  -25.7629  -19.8075   17.7206 C   0  0  0  0  0  0  0  0  0  0  0  0
  -26.8082  -25.4292   20.8154 C   0  0  0  0  0  0  0  0  0  0  0  0
  -26.1444  -19.2007   20.4167 C   0  0  0  0  0  0  0  0  0  0  0  0
  -22.1273   -4.0625   23.5239 C   0  0  0  0  0  0  0  0  0  0  0  0
  -24.0178  -10.3486   21.1690 C   0  0  0  0  0  0  0  0  0  0  0  0
  -25.4986  -12.1519   22.1999 C   0  0  0  0  0  0  0  0  0  0  0  0
  -24.8592  -33.7207   24.0649 C   0  0  0  0  0  0  0  0  0  0  0  0
  -27.2773  -27.7819   20.4921 C   0  0  0  0  0  0  0  0  0  0  0  0
  -25.4524  -32.4480   23.9616 C   0  0  0  0  0  0  0  0  0  0  0  0
  -26.3660  -26.7164   20.4740 C   0  0  0  0  0  0  0  0  0  0  0  0
  -25.0999  -18.6059   19.7090 C   0  0  0  0  0  0  0  0  0  0  0  0
  -26.9981  -20.0989   19.7764 C   0  0  0  0  0  0  0  0  0  0  0  0
  -22.4091   -8.0714   21.2639 C   0  0  0  0  0  0  0  0  0  0  0  0
  -28.1412  -25.2026   21.1576 C   0  0  0  0  0  0  0  0  0  0  0  0
  -21.6779   -6.1812   22.4533 C   0  0  0  0  0  0  0  0  0  0  0  0
  -21.7869   -4.6144   24.7589 C   0  0  0  0  0  0  0  0  0  0  0  0
  -22.0728   -4.8459   22.3711 C   0  0  0  0  0  0  0  0  0  0  0  0
  -24.9092  -18.9093   18.3609 C   0  0  0  0  0  0  0  0  0  0  0  0
  -24.8480  -11.5253   21.1202 C   0  0  0  0  0  0  0  0  0  0  0  0
  -26.1531  -13.2187   21.6341 C   0  0  0  0  0  0  0  0  0  0  0  0
  -29.5653  -21.3507   22.1367 C   0  0  0  0  0  0  0  0  0  0  0  0
  -28.3711  -20.4997   21.8354 C   0  0  0  0  0  0  0  0  0  0  0  0
  -25.5104  -11.8011   23.5901 C   0  0  0  0  0  0  0  0  0  0  0  0
  -24.9421  -29.5509   21.7256 C   0  0  0  0  0  0  0  0  0  0  0  0
  -23.3426  -28.5925   19.0713 C   0  0  0  0  0  0  0  0  0  0  0  0
  -22.9600  -25.5404   17.1857 C   0  0  0  0  0  0  0  0  0  0  0  0
  -25.1450  -16.3847   16.6305 C   0  0  0  0  0  0  0  0  0  0  0  0
  -23.3828  -33.9287   23.8377 C   0  0  0  0  0  0  0  0  0  0  0  0
  -26.8368  -29.1676   20.1072 C   0  0  0  0  0  0  0  0  0  0  0  0
  -24.9194  -26.9163   20.1055 C   0  0  0  0  0  0  0  0  0  0  0  0
  -22.7151  -32.7816   23.0837 C   0  0  0  0  0  0  0  0  0  0  0  0
  -28.1530  -14.6491   17.5350 C   0  0  0  0  0  0  0  0  0  0  0  0
  -23.1412  -31.4388   23.6685 C   0  0  0  0  0  0  0  0  0  0  0  0
  -27.7021  -13.6947   18.6406 C   0  0  0  0  0  0  0  0  0  0  0  0
  -27.0770  -14.8159   16.4661 C   0  0  0  0  0  0  0  0  0  0  0  0
  -25.2984  -14.2919   18.1059 C   0  0  0  0  0  0  0  0  0  0  0  0
  -28.9799  -21.6537   19.8637 C   0  0  0  0  0  0  0  0  0  0  0  0
  -24.6552  -31.2344   23.5351 C   0  0  1  0  0  0  0  0  0  0  0  0
  -25.3379  -29.3892   20.2851 C   0  0  1  0  0  0  0  0  0  0  0  0
  -26.3430  -14.1226   19.2228 C   0  0  1  0  0  0  0  0  0  0  0  0
  -30.0052  -22.1138   20.9168 C   0  0  2  0  0  0  0  0  0  0  0  0
  -24.2031  -17.6488   20.4239 C   0  0  0  0  0  0  0  0  0  0  0  0
  -31.4285  -21.7081   20.5402 C   0  0  0  0  0  0  0  0  0  0  0  0
  -22.4264  -25.1768   14.7607 C   0  0  0  0  0  0  0  0  0  0  0  0
  -20.4549  -28.3897   20.0358 C   0  0  0  0  0  0  0  0  0  0  0  0
  -20.0967  -26.5645   18.3599 C   0  0  0  0  0  0  0  0  0  0  0  0
  -20.7081  -28.8579   17.5922 C   0  0  0  0  0  0  0  0  0  0  0  0
  -25.3769  -23.8804   16.7831 C   0  0  0  0  0  0  0  0  0  0  0  0
  -29.9110  -23.6143   21.1852 C   0  0  0  0  0  0  0  0  0  1  0  0
  -22.4557  -27.4219   18.7219 C   0  0  1  0  0  0  0  0  0  0  0  0
  -23.5266  -25.2460   15.8084 C   0  0  2  0  0  0  0  0  0  0  0  0
  -20.9494  -27.8063   18.6971 C   0  0  0  0  0  0  0  0  0  0  0  0
  -25.0689  -12.1425   19.9565 N   0  0  0  0  0  0  0  0  0  0  0  0
  -23.9898  -16.6304   17.2609 N   0  5  0  0  0  0  0  0  0  0  0  0
  -25.8656  -13.1683   20.3018 N   0  0  0  0  0  0  0  0  0  0  0  0
  -28.0688  -20.7093   20.5013 N   0  0  0  0  0  0  0  0  0  0  0  0
  -24.5359  -28.2907   19.7427 N   0  0  0  0  0  0  0  0  0  0  0  0
  -25.7995  -15.2101   17.0662 N   0  0  0  0  0  0  0  0  0  0  0  0
  -26.9406  -14.1855   22.1511 N   0  0  0  0  0  0  0  0  0  0  0  0
  -24.7844  -10.6749   24.0011 N   0  0  0  0  0  0  0  0  0  0  0  0
  -24.9965  -30.8544   22.1810 N   0  0  0  0  0  0  0  0  0  0  0  0
  -22.9580  -26.8919   17.4589 N   0  0  0  0  0  0  0  0  0  0  0  0
  -24.2525  -23.9445   15.8143 N   0  3  0  0  0  0  0  0  0  0  0  0
  -30.0584  -21.3684   23.2478 O   0  0  0  0  0  0  0  0  0  0  0  0
  -27.8840  -19.8150   22.7114 O   0  0  0  0  0  0  0  0  0  0  0  0
  -26.1325  -12.4761   24.4450 O   0  0  0  0  0  0  0  0  0  0  0  0
  -24.6105  -28.5663   22.3753 O   0  0  0  0  0  0  0  0  0  0  0  0
  -22.9930  -29.7321   18.7536 O   0  0  0  0  0  0  0  0  0  0  0  0
  -22.5560  -24.6598   17.9419 O   0  0  0  0  0  0  0  0  0  0  0  0
  -25.6392  -17.0884   15.7441 O   0  0  0  0  0  0  0  0  0  0  0  0
  -22.4052  -18.4019   18.2636 O   0  0  0  0  0  0  0  0  0  0  0  0
  -23.5840  -18.9383   16.1789 O   0  0  0  0  0  0  0  0  0  0  0  0
  -21.6241   -6.9605   21.3099 O   0  0  0  0  0  0  0  0  0  0  0  0
  -28.5565  -23.9487   21.4848 O   0  0  0  0  0  0  0  0  0  1  0  0
  -21.8406   -3.8626   25.8662 F   0  0  0  0  0  0  0  0  0  0  0  0
  -22.4021   -4.3105   21.1876 F   0  0  0  0  0  0  0  0  0  0  0  0
  -23.5703  -18.1602   17.4157 S   0  0  0  0  0  0  0  0  0  0  0  0
  1  2  1  0  0  0  0
  1  5  2  0  0  0  0
  2  6  2  0  0  0  0
  3  9  2  0  0  0  0
  3 18  1  0  0  0  0
  4 10  1  0  0  0  0
  4 18  2  0  0  0  0
  5 20  1  0  0  0  0
  6 22  1  0  0  0  0
  7 11  2  0  0  0  0
  7 21  1  0  0  0  0
  8 14  2  0  0  0  0
  8 25  1  0  0  0  0
  9 26  1  0  0  0  0
 10 26  2  0  0  0  0
 11 27  1  0  0  0  0
 12 13  2  0  0  0  0
 12 28  1  0  0  0  0
 13 29  1  0  0  0  0
 14 31  1  0  0  0  0
 15 23  1  0  0  0  0
 15 27  2  0  0  0  0
 16 24  1  0  0  0  0
 16 25  2  0  0  0  0
 17 29  2  0  0  0  0
 17 30  1  0  0  0  0
 18 32  1  0  0  0  0
 19 32  1  0  0  0  0
 19 33  2  0  0  0  0
 19 36  1  0  0  0  0
 20 22  2  0  0  0  0
 20 41  1  0  0  0  0
 21 23  2  0  0  0  0
 21 42  1  0  0  0  0
 22 51  1  0  0  0  0
 23 43  1  0  0  0  0
 24 31  2  0  0  0  0
 24 55  1  0  0  0  0
 25 69  1  0  0  0  0
 26 86  1  0  0  0  0
 27 87  1  0  0  0  0
 28 30  2  0  0  0  0
 28 86  1  0  0  0  0
 29 88  1  0  0  0  0
 30 89  1  0  0  0  0
 31 90  1  0  0  0  0
 32 66  2  0  0  0  0
 33 68  1  0  0  0  0
 33 72  1  0  0  0  0
 34 35  1  0  0  0  0
 34 54  1  0  0  0  0
 34 77  2  0  0  0  0
 35 69  1  0  0  0  0
 35 78  2  0  0  0  0
 36 73  1  0  0  0  0
 36 79  2  0  0  0  0
 37 52  1  0  0  0  0
 37 74  1  0  0  0  0
 37 80  2  0  0  0  0
 38 63  1  0  0  0  0
 38 70  1  0  0  0  0
 38 81  2  0  0  0  0
 39 64  1  0  0  0  0
 39 75  1  0  0  0  0
 39 82  2  0  0  0  0
 40 67  1  0  0  0  0
 40 71  1  0  0  0  0
 40 83  2  0  0  0  0
 41 44  1  0  0  0  0
 42 52  1  0  0  0  0
 43 70  1  0  0  0  0
 44 46  1  0  0  0  0
 45 47  1  0  0  0  0
 45 48  1  0  0  0  0
 46 51  1  0  0  0  0
 47 53  1  0  0  0  0
 48 71  1  0  0  0  0
 49 53  1  0  0  0  0
 49 71  1  0  0  0  0
 50 54  1  0  0  0  0
 50 69  1  0  0  0  0
 51 74  1  0  0  0  0
 52 70  1  0  0  0  0
 53 68  1  0  0  0  0
 54 56  1  0  0  0  0
 54 62  1  0  0  0  0
 57 64  1  0  0  0  0
 58 65  1  0  0  0  0
 59 65  1  0  0  0  0
 60 65  1  0  0  0  0
 61 76  1  0  0  0  0
 62 87  1  0  0  0  0
 63 65  1  0  0  0  0
 63 75  1  0  0  0  0
 64 76  1  0  0  0  0
 66 68  1  0  0  0  0
 67 90  1  0  0  0  0
 84 90  2  0  0  0  0
 85 90  2  0  0  0  0
M  CHG  2  67  -1  76   1
M  ISO  4  40 100  62 101  67 100  87 101
M  END
> <Batch ID>
0065

> <Smiles>
CNC(C)C(=O)NC(C(=O)N1Cc2cc([101O:1][101CH2:1]C3(C)CN(c4ccc(S(=O)(=O)[100NH:0][100C:0](=O)N5CCCC(n6nc(-c7ccc(Oc8ccc(F)cc8F)cc7)c(C(N)=O)c6N)C5)c(C)c4)C(=O)C3=O)ccc2CC1C(=O)NC1CCCc2ccccc21)C(C)(C)C

> <Shape>
0.269

> <Color>
0.093

> <Negative vol penalty>
0.000

$$$$

  -OEChem-04042323183D

 84 92  0     1  0  0  0  0  0999 V2000
  -32.7512  -19.1695   14.6413 C   0  0  0  0  0  0  0  0  0  0  0  0
  -31.7873  -19.2905   15.6371 C   0  0  0  0  0  0  0  0  0  0  0  0
  -23.0744   -9.8673   19.9436 C   0  0  0  0  0  0  0  0  0  0  0  0
  -23.8313   -9.8793   22.2380 C   0  0  0  0  0  0  0  0  0  0  0  0
  -34.0675  -19.5518   14.8967 C   0  0  0  0  0  0  0  0  0  0  0  0
  -32.1394  -19.7930   16.8893 C   0  0  0  0  0  0  0  0  0  0  0  0
  -28.6819  -23.2563   20.5713 C   0  0  0  0  0  0  0  0  0  0  0  0
  -32.0608  -16.6113   22.5482 C   0  0  0  0  0  0  0  0  0  0  0  0
  -32.6478  -17.4994   23.4494 C   0  0  0  0  0  0  0  0  0  0  0  0
  -22.3298   -8.7150   20.1953 C   0  0  0  0  0  0  0  0  0  0  0  0
  -23.0866   -8.7270   22.4897 C   0  0  0  0  0  0  0  0  0  0  0  0
  -27.8948  -22.9499   21.6805 C   0  0  0  0  0  0  0  0  0  0  0  0
  -19.3794   -7.9229   21.6445 C   0  0  0  0  0  0  0  0  0  0  0  0
  -18.0731   -7.8761   21.1577 C   0  0  0  0  0  0  0  0  0  0  0  0
  -29.7233  -23.5485   23.1357 C   0  0  0  0  0  0  0  0  0  0  0  0
  -29.8766  -17.4641   23.1303 C   0  0  0  0  0  0  0  0  0  0  0  0
  -18.6338   -5.9297   19.8407 C   0  0  0  0  0  0  0  0  0  0  0  0
  -23.8253  -10.4494   20.9649 C   0  0  0  0  0  0  0  0  0  0  0  0
  -24.1683  -12.9741   20.8395 C   0  0  0  0  0  0  0  0  0  0  0  0
  -34.4338  -20.0682   16.1496 C   0  0  0  0  0  0  0  0  0  0  0  0
  -30.0014  -23.7014   20.7359 C   0  0  0  0  0  0  0  0  0  0  0  0
  -33.4620  -20.1813   17.1621 C   0  0  0  0  0  0  0  0  0  0  0  0
  -30.5241  -23.8623   22.0270 C   0  0  0  0  0  0  0  0  0  0  0  0
  -30.6752  -16.5936   22.3886 C   0  0  0  0  0  0  0  0  0  0  0  0
  -31.8492  -18.3699   24.1911 C   0  0  0  0  0  0  0  0  0  0  0  0
  -30.4636  -18.3522   24.0316 C   0  0  0  0  0  0  0  0  0  0  0  0
  -22.3359   -8.1449   21.4683 C   0  0  0  0  0  0  0  0  0  0  0  0
  -28.4164  -23.0932   22.9629 C   0  0  0  0  0  0  0  0  0  0  0  0
  -20.3129   -6.9732   21.2294 C   0  0  0  0  0  0  0  0  0  0  0  0
  -17.7003   -6.8795   20.2558 C   0  0  0  0  0  0  0  0  0  0  0  0
  -19.9401   -5.9766   20.3276 C   0  0  0  0  0  0  0  0  0  0  0  0
  -24.5952  -11.6394   20.7054 C   0  0  0  0  0  0  0  0  0  0  0  0
  -25.2612  -13.7223   20.4759 C   0  0  0  0  0  0  0  0  0  0  0  0
  -22.8974  -13.4914   21.2555 C   0  0  0  0  0  0  0  0  0  0  0  0
  -32.8612  -22.6050   19.8856 C   0  0  0  0  0  0  0  0  0  0  0  0
  -33.8738  -25.4463   21.0788 C   0  0  0  0  0  0  0  0  0  0  0  0
  -28.2456  -19.3251   24.7220 C   0  0  0  0  0  0  0  0  0  0  0  0
  -33.2994  -28.0794   23.1725 C   0  0  0  0  0  0  0  0  0  0  0  0
  -30.7275  -14.7662   20.6553 C   0  0  0  0  0  0  0  0  0  0  0  0
  -35.8790  -20.4239   16.3938 C   0  0  0  0  0  0  0  0  0  0  0  0
  -30.8285  -24.0533   19.5299 C   0  0  0  0  0  0  0  0  0  0  0  0
  -31.9281  -24.3561   22.2583 C   0  0  0  0  0  0  0  0  0  0  0  0
  -36.0912  -21.2973   17.6276 C   0  0  0  0  0  0  0  0  0  0  0  0
  -29.6153  -12.3473   18.2912 C   0  0  0  0  0  0  0  0  0  0  0  0
  -35.3059  -20.7460   18.8134 C   0  0  0  0  0  0  0  0  0  0  0  0
  -28.1750  -12.0573   18.7196 C   0  0  0  0  0  0  0  0  0  0  0  0
  -30.5289  -12.5786   19.4935 C   0  0  0  0  0  0  0  0  0  0  0  0
  -28.6204  -13.3070   20.8706 C   0  0  0  0  0  0  0  0  0  0  0  0
  -33.7998  -20.7451   18.5252 C   0  0  1  0  0  0  0  0  0  0  0  0
  -32.3292  -24.0076   19.8006 C   0  0  1  0  0  0  0  0  0  0  0  0
  -27.6491  -13.1314   19.6919 C   0  0  2  0  0  0  0  0  0  0  0  0
  -34.3248  -30.2302   23.9599 C   0  0  0  0  0  0  0  0  0  0  0  0
  -35.8154  -23.8759   22.8320 C   0  0  0  0  0  0  0  0  0  0  0  0
  -36.1077  -25.9325   24.2296 C   0  0  0  0  0  0  0  0  0  0  0  0
  -36.7689  -25.9568   21.8245 C   0  0  0  0  0  0  0  0  0  0  0  0
  -31.0285  -29.6739   22.1432 C   0  0  0  0  0  0  0  0  0  0  0  0
  -27.7513  -20.3962   25.6843 C   0  0  0  0  0  0  0  0  0  0  0  0
  -26.4645  -21.0630   25.2104 C   0  0  0  0  0  0  0  0  0  0  0  0
  -26.6592  -21.7810   23.8829 C   0  0  0  0  0  0  0  0  0  1  0  0
  -34.3156  -25.9397   22.4354 C   0  0  1  0  0  0  0  0  0  0  0  0
  -33.3893  -29.5789   22.9533 C   0  0  2  0  0  0  0  0  0  0  0  0
  -35.7261  -25.4150   22.8263 C   0  0  0  0  0  0  0  0  0  0  0  0
  -25.8605  -11.5421   20.2890 N   0  0  0  0  0  0  0  0  0  0  0  0
  -26.2381  -12.8252   20.1582 N   0  0  0  0  0  0  0  0  0  0  0  0
  -32.6994  -24.6810   21.0470 N   0  0  0  0  0  0  0  0  0  0  0  0
  -29.9692  -13.6117   20.3678 N   0  0  0  0  0  0  0  0  0  0  0  0
  -32.4649  -19.2597   25.0999 N   0  0  0  0  0  0  0  0  0  0  0  0
  -25.4722  -15.0536   20.4001 N   0  0  0  0  0  0  0  0  0  0  0  0
  -21.8847  -12.5834   21.5936 N   0  0  0  0  0  0  0  0  0  0  0  0
  -29.6332  -19.2264   24.7726 N   0  0  0  0  0  0  0  0  0  0  0  0
  -30.0795  -15.6934   21.4707 N   0  0  0  0  0  0  0  0  0  0  0  0
  -33.2566  -22.0786   18.6707 N   0  0  0  0  0  0  0  0  0  0  0  0
  -34.2091  -27.3942   22.3953 N   0  0  0  0  0  0  0  0  0  0  0  0
  -32.0433  -30.2039   23.0898 N   0  3  0  0  0  0  0  0  0  0  0  0
  -22.6616  -14.7223   21.3097 O   0  0  0  0  0  0  0  0  0  0  0  0
  -32.9108  -22.0425   20.9732 O   0  0  0  0  0  0  0  0  0  0  0  0
  -34.5420  -25.7355   20.0830 O   0  0  0  0  0  0  0  0  0  0  0  0
  -27.4771  -18.6721   24.0239 O   0  0  0  0  0  0  0  0  0  0  0  0
  -32.5044  -27.5675   23.9576 O   0  0  0  0  0  0  0  0  0  0  0  0
  -31.8573  -14.9334   20.1888 O   0  0  0  0  0  0  0  0  0  0  0  0
  -21.6092   -7.0206   21.7143 O   0  0  0  0  0  0  0  0  0  0  0  0
  -27.6505  -22.7942   24.0473 O   0  0  0  0  0  0  0  0  0  1  0  0
  -16.4454   -6.8337   19.7895 F   0  0  0  0  0  0  0  0  0  0  0  0
  -20.8322   -5.0608   19.9260 F   0  0  0  0  0  0  0  0  0  0  0  0
  1  2  1  0  0  0  0
  1  5  2  0  0  0  0
  2  6  2  0  0  0  0
  3 10  2  0  0  0  0
  3 18  1  0  0  0  0
  4 11  1  0  0  0  0
  4 18  2  0  0  0  0
  5 20  1  0  0  0  0
  6 22  1  0  0  0  0
  7 12  2  0  0  0  0
  7 21  1  0  0  0  0
  8  9  2  0  0  0  0
  8 24  1  0  0  0  0
  9 25  1  0  0  0  0
 10 27  1  0  0  0  0
 11 27  2  0  0  0  0
 12 28  1  0  0  0  0
 13 14  2  0  0  0  0
 13 29  1  0  0  0  0
 14 30  1  0  0  0  0
 15 23  1  0  0  0  0
 15 28  2  0  0  0  0
 16 24  2  0  0  0  0
 16 26  1  0  0  0  0
 17 30  2  0  0  0  0
 17 31  1  0  0  0  0
 18 32  1  0  0  0  0
 19 32  1  0  0  0  0
 19 33  2  0  0  0  0
 19 34  1  0  0  0  0
 20 22  2  0  0  0  0
 20 40  1  0  0  0  0
 21 23  2  0  0  0  0
 21 41  1  0  0  0  0
 22 49  1  0  0  0  0
 23 42  1  0  0  0  0
 24 71  1  0  0  0  0
 25 26  2  0  0  0  0
 25 67  1  0  0  0  0
 26 70  1  0  0  0  0
 27 81  1  0  0  0  0
 28 82  1  0  0  0  0
 29 31  2  0  0  0  0
 29 81  1  0  0  0  0
 30 83  1  0  0  0  0
 31 84  1  0  0  0  0
 32 63  2  0  0  0  0
 33 64  1  0  0  0  0
 33 68  1  0  0  0  0
 34 69  1  0  0  0  0
 34 75  2  0  0  0  0
 35 50  1  0  0  0  0
 35 72  1  0  0  0  0
 35 76  2  0  0  0  0
 36 60  1  0  0  0  0
 36 65  1  0  0  0  0
 36 77  2  0  0  0  0
 37 57  1  0  0  0  0
 37 70  1  0  0  0  0
 37 78  2  0  0  0  0
 38 61  1  0  0  0  0
 38 73  1  0  0  0  0
 38 79  2  0  0  0  0
 39 66  1  0  0  0  0
 39 71  1  0  0  0  0
 39 80  2  0  0  0  0
 40 43  1  0  0  0  0
 41 50  1  0  0  0  0
 42 65  1  0  0  0  0
 43 45  1  0  0  0  0
 44 46  1  0  0  0  0
 44 47  1  0  0  0  0
 45 49  1  0  0  0  0
 46 51  1  0  0  0  0
 47 66  1  0  0  0  0
 48 51  1  0  0  0  0
 48 66  1  0  0  0  0
 49 72  1  0  0  0  0
 50 65  1  0  0  0  0
 51 64  1  0  0  0  0
 52 61  1  0  0  0  0
 53 62  1  0  0  0  0
 54 62  1  0  0  0  0
 55 62  1  0  0  0  0
 56 74  1  0  0  0  0
 57 58  1  0  0  0  0
 58 59  1  0  0  0  0
 59 82  1  0  0  0  0
 60 62  1  0  0  0  0
 60 73  1  0  0  0  0
 61 74  1  0  0  0  0
 63 64  1  0  0  0  0
M  CHG  1  74   1
M  ISO  4  39 100  59 101  71 100  82 101
M  END
> <Batch ID>
0065

> <Smiles>
CNC(C)C(=O)NC(C(=O)N1Cc2cc([101O:1][101CH2:1]CCC(=O)Nc3cc([100NH:0][100C:0](=O)N4CCCC(n5nc(-c6ccc(Oc7ccc(F)cc7F)cc6)c(C(N)=O)c5N)C4)ccc3N)ccc2CC1C(=O)NC1CCCc2ccccc21)C(C)(C)C

> <Shape>
0.170

> <Color>
0.184

> <Negative vol penalty>
0.000

$$$$

  -OEChem-04042323183D

 89 98  0     1  0  0  0  0  0999 V2000
  -21.5140  -33.1008   26.5346 C   0  0  0  0  0  0  0  0  0  0  0  0
  -22.2744  -31.9395   26.4414 C   0  0  0  0  0  0  0  0  0  0  0  0
  -23.1340   -9.7342   20.0841 C   0  0  0  0  0  0  0  0  0  0  0  0
  -23.7608  -10.0137   22.4006 C   0  0  0  0  0  0  0  0  0  0  0  0
  -31.2953  -19.0453   20.1421 C   0  0  0  0  0  0  0  0  0  0  0  0
  -20.3443  -33.2286   25.7867 C   0  0  0  0  0  0  0  0  0  0  0  0
  -21.8649  -30.9049   25.6011 C   0  0  0  0  0  0  0  0  0  0  0  0
  -25.4608  -27.1288   22.3892 C   0  0  0  0  0  0  0  0  0  0  0  0
  -31.1320  -17.6674   20.2852 C   0  0  0  0  0  0  0  0  0  0  0  0
  -22.3808   -8.6104   20.4235 C   0  0  0  0  0  0  0  0  0  0  0  0
  -23.0075   -8.8899   22.7400 C   0  0  0  0  0  0  0  0  0  0  0  0
  -25.9093  -25.8307   22.6290 C   0  0  0  0  0  0  0  0  0  0  0  0
  -19.7527   -8.1351   23.2470 C   0  0  0  0  0  0  0  0  0  0  0  0
  -18.9298   -8.2233   24.3698 C   0  0  0  0  0  0  0  0  0  0  0  0
  -24.1052  -24.9650   21.2816 C   0  0  0  0  0  0  0  0  0  0  0  0
  -29.4017  -18.0432   21.9290 C   0  0  0  0  0  0  0  0  0  0  0  0
  -20.1332   -6.3964   25.3951 C   0  0  0  0  0  0  0  0  0  0  0  0
  -23.8241  -10.4359   21.0726 C   0  0  0  0  0  0  0  0  0  0  0  0
  -30.5118  -19.9221   20.8925 C   0  0  0  0  0  0  0  0  0  0  0  0
  -24.1639  -12.9335   20.6802 C   0  0  0  0  0  0  0  0  0  0  0  0
  -19.9253  -32.1989   24.9295 C   0  0  0  0  0  0  0  0  0  0  0  0
  -24.3228  -27.3546   21.6014 C   0  0  0  0  0  0  0  0  0  0  0  0
  -20.6877  -31.0184   24.8421 C   0  0  0  0  0  0  0  0  0  0  0  0
  -23.6458  -26.2670   21.0313 C   0  0  0  0  0  0  0  0  0  0  0  0
  -29.5650  -19.4210   21.7859 C   0  0  0  0  0  0  0  0  0  0  0  0
  -30.1852  -17.1664   21.1786 C   0  0  0  0  0  0  0  0  0  0  0  0
  -22.3175   -8.1882   21.7515 C   0  0  0  0  0  0  0  0  0  0  0  0
  -25.2298  -24.7483   22.0776 C   0  0  0  0  0  0  0  0  0  0  0  0
  -20.7658   -7.1775   23.1982 C   0  0  0  0  0  0  0  0  0  0  0  0
  -19.1201   -7.3539   25.4439 C   0  0  0  0  0  0  0  0  0  0  0  0
  -20.9561   -6.3082   24.2723 C   0  0  0  0  0  0  0  0  0  0  0  0
  -24.6028  -11.5966   20.7226 C   0  0  0  0  0  0  0  0  0  0  0  0
  -25.2727  -13.6468   20.2950 C   0  0  0  0  0  0  0  0  0  0  0  0
  -27.8561  -21.2717   22.0751 C   0  0  0  0  0  0  0  0  0  0  0  0
  -30.7005  -21.3486   20.7259 C   0  0  0  0  0  0  0  0  0  0  0  0
  -22.8698  -13.4817   20.9638 C   0  0  0  0  0  0  0  0  0  0  0  0
  -21.4702  -28.6636   22.1043 C   0  0  0  0  0  0  0  0  0  0  0  0
  -21.1372  -28.2231   18.9079 C   0  0  0  0  0  0  0  0  0  0  0  0
  -22.0702  -26.5121   16.1063 C   0  0  0  0  0  0  0  0  0  0  0  0
  -30.7164  -14.7597   20.6569 C   0  0  0  0  0  0  0  0  0  0  0  0
  -18.6288  -32.3634   24.1767 C   0  0  0  0  0  0  0  0  0  0  0  0
  -23.8675  -28.7622   21.3303 C   0  0  0  0  0  0  0  0  0  0  0  0
  -22.4308  -26.4568   20.1617 C   0  0  0  0  0  0  0  0  0  0  0  0
  -18.4627  -31.3740   23.0262 C   0  0  0  0  0  0  0  0  0  0  0  0
  -29.7478  -12.0774   18.5252 C   0  0  0  0  0  0  0  0  0  0  0  0
  -18.8238  -29.9629   23.4792 C   0  0  0  0  0  0  0  0  0  0  0  0
  -28.2868  -11.8232   18.9033 C   0  0  0  0  0  0  0  0  0  0  0  0
  -28.0946  -21.5601   24.4255 C   0  0  0  0  0  0  0  0  0  0  0  0
  -30.5916  -12.4526   19.7422 C   0  0  0  0  0  0  0  0  0  0  0  0
  -28.7313  -20.2477   24.0140 C   0  0  0  0  0  0  0  0  0  0  0  0
  -28.6061  -13.3129   20.9197 C   0  0  0  0  0  0  0  0  0  0  0  0
  -20.2896  -29.8841   23.9229 C   0  0  1  0  0  0  0  0  0  0  0  0
  -27.1363  -21.8546   23.2806 C   0  0  1  0  0  0  0  0  0  0  0  0
  -22.3964  -28.8489   20.9358 C   0  0  1  0  0  0  0  0  0  0  0  0
  -27.7031  -12.9951   19.7167 C   0  0  2  0  0  0  0  0  0  0  0  0
  -21.5959  -26.3505   13.6474 C   0  0  0  0  0  0  0  0  0  0  0  0
  -18.5370  -26.7442   19.5090 C   0  0  0  0  0  0  0  0  0  0  0  0
  -18.6130  -25.8100   17.1874 C   0  0  0  0  0  0  0  0  0  0  0  0
  -18.4342  -28.2740   17.5333 C   0  0  0  0  0  0  0  0  0  0  0  0
  -32.4172  -21.3916   22.5217 C   0  0  0  0  0  0  0  0  0  0  0  0
  -31.7734  -23.5001   21.2905 C   0  0  0  0  0  0  0  0  0  0  0  0
  -24.8558  -27.2239   15.4043 C   0  0  0  0  0  0  0  0  0  0  0  0
  -26.8244  -23.3316   23.1291 C   0  0  0  0  0  0  0  0  0  1  0  0
  -20.6219  -27.1081   18.0302 C   0  0  1  0  0  0  0  0  0  0  0  0
  -22.4652  -26.9882   14.7200 C   0  0  2  0  0  0  0  0  0  0  0  0
  -19.0733  -26.9801   18.0829 C   0  0  0  0  0  0  0  0  0  0  0  0
  -25.8899  -11.4656   20.3906 N   0  0  0  0  0  0  0  0  0  0  0  0
  -26.2693  -12.7294   20.1359 N   0  0  0  0  0  0  0  0  0  0  0  0
  -28.7545  -20.3010   22.5641 N   0  0  0  0  0  0  0  0  0  0  0  0
  -22.0210  -27.8519   19.9311 N   0  0  0  0  0  0  0  0  0  0  0  0
  -29.9798  -13.5723   20.4610 N   0  0  0  0  0  0  0  0  0  0  0  0
  -25.4826  -14.9629   20.0801 N   0  0  0  0  0  0  0  0  0  0  0  0
  -21.8432  -12.6076   21.3462 N   0  0  0  0  0  0  0  0  0  0  0  0
  -30.0200  -15.7667   21.3245 N   0  0  0  0  0  0  0  0  0  0  0  0
  -21.1643  -29.8346   22.7710 N   0  0  0  0  0  0  0  0  0  0  0  0
  -21.1557  -27.3590   16.6959 N   0  0  0  0  0  0  0  0  0  0  0  0
  -31.5921  -22.0474   21.4854 N   0  0  0  0  0  0  0  0  0  0  0  0
  -29.9385  -21.9464   19.7911 N   0  3  0  0  0  0  0  0  0  0  0  0
  -23.8874  -26.6425   14.4393 N   0  3  0  0  0  0  0  0  0  0  0  0
  -27.6004  -21.5920   20.9234 O   0  0  0  0  0  0  0  0  0  0  0  0
  -22.6266  -14.7083   20.8645 O   0  0  0  0  0  0  0  0  0  0  0  0
  -21.0621  -27.5414   22.3798 O   0  0  0  0  0  0  0  0  0  0  0  0
  -20.7748  -29.3817   18.6889 O   0  0  0  0  0  0  0  0  0  0  0  0
  -22.5245  -25.4890   16.6138 O   0  0  0  0  0  0  0  0  0  0  0  0
  -31.8699  -14.8844   20.2377 O   0  0  0  0  0  0  0  0  0  0  0  0
  -21.5824   -7.0918   22.0831 O   0  0  0  0  0  0  0  0  0  0  0  0
  -25.6650  -23.4802   22.3106 O   0  0  0  0  0  0  0  0  0  1  0  0
  -18.3308   -7.4397   26.5227 F   0  0  0  0  0  0  0  0  0  0  0  0
  -21.9284   -5.3869   24.2317 F   0  0  0  0  0  0  0  0  0  0  0  0
  1  2  1  0  0  0  0
  1  6  2  0  0  0  0
  2  7  2  0  0  0  0
  3 10  2  0  0  0  0
  3 18  1  0  0  0  0
  4 11  1  0  0  0  0
  4 18  2  0  0  0  0
  5  9  2  0  0  0  0
  5 19  1  0  0  0  0
  6 21  1  0  0  0  0
  7 23  1  0  0  0  0
  8 12  2  0  0  0  0
  8 22  1  0  0  0  0
  9 26  1  0  0  0  0
 10 27  1  0  0  0  0
 11 27  2  0  0  0  0
 12 28  1  0  0  0  0
 13 14  2  0  0  0  0
 13 29  1  0  0  0  0
 14 30  1  0  0  0  0
 15 24  1  0  0  0  0
 15 28  2  0  0  0  0
 16 25  1  0  0  0  0
 16 26  2  0  0  0  0
 17 30  2  0  0  0  0
 17 31  1  0  0  0  0
 18 32  1  0  0  0  0
 19 25  2  0  0  0  0
 19 35  1  0  0  0  0
 20 32  1  0  0  0  0
 20 33  2  0  0  0  0
 20 36  1  0  0  0  0
 21 23  2  0  0  0  0
 21 41  1  0  0  0  0
 22 24  2  0  0  0  0
 22 42  1  0  0  0  0
 23 52  1  0  0  0  0
 24 43  1  0  0  0  0
 25 69  1  0  0  0  0
 26 74  1  0  0  0  0
 27 86  1  0  0  0  0
 28 87  1  0  0  0  0
 29 31  2  0  0  0  0
 29 86  1  0  0  0  0
 30 88  1  0  0  0  0
 31 89  1  0  0  0  0
 32 67  2  0  0  0  0
 33 68  1  0  0  0  0
 33 72  1  0  0  0  0
 34 53  1  0  0  0  0
 34 69  1  0  0  0  0
 34 80  2  0  0  0  0
 35 77  1  0  0  0  0
 35 78  2  0  0  0  0
 36 73  1  0  0  0  0
 36 81  2  0  0  0  0
 37 54  1  0  0  0  0
 37 75  1  0  0  0  0
 37 82  2  0  0  0  0
 38 64  1  0  0  0  0
 38 70  1  0  0  0  0
 38 83  2  0  0  0  0
 39 65  1  0  0  0  0
 39 76  1  0  0  0  0
 39 84  2  0  0  0  0
 40 71  1  0  0  0  0
 40 74  1  0  0  0  0
 40 85  2  0  0  0  0
 41 44  1  0  0  0  0
 42 54  1  0  0  0  0
 43 70  1  0  0  0  0
 44 46  1  0  0  0  0
 45 47  1  0  0  0  0
 45 49  1  0  0  0  0
 46 52  1  0  0  0  0
 47 55  1  0  0  0  0
 48 50  1  0  0  0  0
 48 53  1  0  0  0  0
 49 71  1  0  0  0  0
 50 69  1  0  0  0  0
 51 55  1  0  0  0  0
 51 71  1  0  0  0  0
 52 75  1  0  0  0  0
 53 63  1  0  0  0  0
 54 70  1  0  0  0  0
 55 68  1  0  0  0  0
 56 65  1  0  0  0  0
 57 66  1  0  0  0  0
 58 66  1  0  0  0  0
 59 66  1  0  0  0  0
 60 77  1  0  0  0  0
 61 77  1  0  0  0  0
 62 79  1  0  0  0  0
 63 87  1  0  0  0  0
 64 66  1  0  0  0  0
 64 76  1  0  0  0  0
 65 79  1  0  0  0  0
 67 68  1  0  0  0  0
M  CHG  2  78   1  79   1
M  ISO  4  40 100  63 101  74 100  87 101
M  END
> <Batch ID>
0065

> <Smiles>
CNC(C)C(=O)NC(C(=O)N1Cc2cc([101O:1][101CH2:1]C3CCN(c4cc([100NH:0][100C:0](=O)N5CCCC(n6nc(-c7ccc(Oc8ccc(F)cc8F)cc7)c(C(N)=O)c6N)C5)ccc4C(=N)N(C)C)C3=O)ccc2CC1C(=O)NC1CCCc2ccccc21)C(C)(C)C

> <Shape>
0.250

> <Color>
0.187

> <Negative vol penalty>
0.000

$$$$

  -OEChem-04042323183D

 85 94  0     1  0  0  0  0  0999 V2000
  -26.2811  -37.2895   21.1607 C   0  0  0  0  0  0  0  0  0  0  0  0
  -26.9549  -36.0969   20.9176 C   0  0  0  0  0  0  0  0  0  0  0  0
  -24.7381   -9.4202   21.8464 C   0  0  0  0  0  0  0  0  0  0  0  0
  -23.3318  -11.3046   22.4016 C   0  0  0  0  0  0  0  0  0  0  0  0
  -25.1915  -37.3085   22.0303 C   0  0  0  0  0  0  0  0  0  0  0  0
  -26.5399  -34.9226   21.5448 C   0  0  0  0  0  0  0  0  0  0  0  0
  -26.6853  -29.2583   19.2210 C   0  0  0  0  0  0  0  0  0  0  0  0
  -26.2285  -20.0786   16.6104 C   0  0  0  0  0  0  0  0  0  0  0  0
  -26.5663  -18.8334   17.1403 C   0  0  0  0  0  0  0  0  0  0  0  0
  -24.0360   -8.6284   22.7551 C   0  0  0  0  0  0  0  0  0  0  0  0
  -22.6296  -10.5128   23.3103 C   0  0  0  0  0  0  0  0  0  0  0  0
  -27.5861  -28.2051   19.3726 C   0  0  0  0  0  0  0  0  0  0  0  0
  -22.3812   -6.0151   24.6649 C   0  0  0  0  0  0  0  0  0  0  0  0
  -22.0068   -4.7352   24.2559 C   0  0  0  0  0  0  0  0  0  0  0  0
  -26.1875  -27.2652   21.0987 C   0  0  0  0  0  0  0  0  0  0  0  0
  -28.2768  -19.8731   18.4932 C   0  0  0  0  0  0  0  0  0  0  0  0
  -20.7159   -5.6898   22.4505 C   0  0  0  0  0  0  0  0  0  0  0  0
  -24.3861  -10.7583   21.6697 C   0  0  0  0  0  0  0  0  0  0  0  0
  -24.8231  -11.7641   19.3664 C   0  0  0  0  0  0  0  0  0  0  0  0
  -24.7569  -36.1320   22.6610 C   0  0  0  0  0  0  0  0  0  0  0  0
  -25.5323  -29.3288   20.0160 C   0  0  0  0  0  0  0  0  0  0  0  0
  -25.4442  -34.9261   22.4246 C   0  0  0  0  0  0  0  0  0  0  0  0
  -25.2723  -28.3189   20.9535 C   0  0  0  0  0  0  0  0  0  0  0  0
  -26.9148  -21.2212   17.0218 C   0  0  0  0  0  0  0  0  0  0  0  0
  -27.9390  -21.1184   17.9632 C   0  0  0  0  0  0  0  0  0  0  0  0
  -27.5904  -18.7306   18.0817 C   0  0  0  0  0  0  0  0  0  0  0  0
  -22.9817   -9.1747   23.4870 C   0  0  0  0  0  0  0  0  0  0  0  0
  -27.3388  -27.2099   20.3135 C   0  0  0  0  0  0  0  0  0  0  0  0
  -21.9229   -7.1324   23.9668 C   0  0  0  0  0  0  0  0  0  0  0  0
  -21.1742   -4.5726   23.1487 C   0  0  0  0  0  0  0  0  0  0  0  0
  -21.0903   -6.9698   22.8596 C   0  0  0  0  0  0  0  0  0  0  0  0
  -25.1114  -11.5768   20.7316 C   0  0  0  0  0  0  0  0  0  0  0  0
  -25.7988  -12.6237   18.9242 C   0  0  0  0  0  0  0  0  0  0  0  0
  -28.1097  -23.4114   19.0318 C   0  0  0  0  0  0  0  0  0  0  0  0
  -23.7676  -11.2107   18.5693 C   0  0  0  0  0  0  0  0  0  0  0  0
  -24.4081  -31.3893   22.1594 C   0  0  0  0  0  0  0  0  0  0  0  0
  -21.7964  -29.4679   22.0608 C   0  0  0  0  0  0  0  0  0  0  0  0
  -20.4902  -26.3863   21.3943 C   0  0  0  0  0  0  0  0  0  0  0  0
  -28.9232  -17.1882   19.5619 C   0  0  0  0  0  0  0  0  0  0  0  0
  -23.6034  -36.2110   23.6294 C   0  0  0  0  0  0  0  0  0  0  0  0
  -24.5570  -30.4572   19.8217 C   0  0  0  0  0  0  0  0  0  0  0  0
  -24.0388  -28.3376   21.8175 C   0  0  0  0  0  0  0  0  0  0  0  0
  -22.9946  -34.8517   23.9638 C   0  0  0  0  0  0  0  0  0  0  0  0
  -30.0491  -14.2153   21.1656 C   0  0  0  0  0  0  0  0  0  0  0  0
  -24.0909  -33.8383   24.2769 C   0  0  0  0  0  0  0  0  0  0  0  0
  -28.8411  -13.2793   21.0833 C   0  0  0  0  0  0  0  0  0  0  0  0
  -30.3745  -23.8625   18.4563 C   0  0  0  0  0  0  0  0  0  0  0  0
  -29.6280  -15.6658   21.3951 C   0  0  0  0  0  0  0  0  0  0  0  0
  -30.0942  -22.3848   18.2695 C   0  0  0  0  0  0  0  0  0  0  0  0
  -27.4331  -15.2483   20.3571 C   0  0  0  0  0  0  0  0  0  0  0  0
  -25.0087  -33.6269   23.0668 C   0  0  1  0  0  0  0  0  0  0  0  0
  -29.2785  -24.3048   19.4149 C   0  0  1  0  0  0  0  0  0  0  0  0
  -23.6752  -30.7017   21.0423 C   0  0  1  0  0  0  0  0  0  0  0  0
  -27.8041  -13.7859   20.0618 C   0  0  2  0  0  0  0  0  0  0  0  0
  -26.5316  -22.5418   16.4373 C   0  0  0  0  0  0  0  0  0  0  0  0
  -18.3307  -25.1091   21.4450 C   0  0  0  0  0  0  0  0  0  0  0  0
  -22.0088  -29.2340   25.0957 C   0  0  0  0  0  0  0  0  0  0  0  0
  -20.4801  -27.2546   24.9803 C   0  0  0  0  0  0  0  0  0  0  0  0
  -19.6770  -29.4940   24.2301 C   0  0  0  0  0  0  0  0  0  0  0  0
  -20.5789  -25.8933   18.4774 C   0  0  0  0  0  0  0  0  0  0  0  0
  -28.9553  -25.7834   19.3095 C   0  0  0  0  0  0  0  0  0  1  0  0
  -21.3467  -28.2359   22.8084 C   0  0  1  0  0  0  0  0  0  0  0  0
  -19.2673  -25.9605   20.6020 C   0  0  2  0  0  0  0  0  0  0  0  0
  -20.9025  -28.5550   24.2638 C   0  0  0  0  0  0  0  0  0  0  0  0
  -26.1862  -12.2621   21.1303 N   0  0  0  0  0  0  0  0  0  0  0  0
  -26.5820  -12.8884   20.0090 N   0  0  0  0  0  0  0  0  0  0  0  0
  -28.6529  -22.2756   18.3967 N   0  0  0  0  0  0  0  0  0  0  0  0
  -23.1186  -29.4649   21.5945 N   0  0  0  0  0  0  0  0  0  0  0  0
  -28.6481  -16.0776   20.3875 N   0  0  0  0  0  0  0  0  0  0  0  0
  -26.0548  -13.1713   17.7171 N   0  0  0  0  0  0  0  0  0  0  0  0
  -22.8511  -10.3453   19.1820 N   0  0  0  0  0  0  0  0  0  0  0  0
  -27.9333  -17.4654   18.6197 N   0  0  0  0  0  0  0  0  0  0  0  0
  -24.3701  -32.7690   22.0918 N   0  0  0  0  0  0  0  0  0  0  0  0
  -20.3101  -27.6170   21.9894 N   0  0  0  0  0  0  0  0  0  0  0  0
  -19.6743  -25.1688   19.4068 N   0  3  0  0  0  0  0  0  0  0  0  0
  -26.9488  -23.6697   19.3149 O   0  0  0  0  0  0  0  0  0  0  0  0
  -23.6506  -11.4628   17.3461 O   0  0  0  0  0  0  0  0  0  0  0  0
  -24.9655  -30.7179   23.0197 O   0  0  0  0  0  0  0  0  0  0  0  0
  -21.0015  -30.3957   21.8906 O   0  0  0  0  0  0  0  0  0  0  0  0
  -21.5024  -25.6945   21.4800 O   0  0  0  0  0  0  0  0  0  0  0  0
  -29.9729  -17.8283   19.6637 O   0  0  0  0  0  0  0  0  0  0  0  0
  -22.2962   -8.4024   24.3736 O   0  0  0  0  0  0  0  0  0  0  0  0
  -28.2168  -26.1811   20.4640 O   0  0  0  0  0  0  0  0  0  1  0  0
  -20.8160   -3.3434   22.7551 F   0  0  0  0  0  0  0  0  0  0  0  0
  -20.6479   -8.0393   22.1841 F   0  0  0  0  0  0  0  0  0  0  0  0
  1  2  1  0  0  0  0
  1  5  2  0  0  0  0
  2  6  2  0  0  0  0
  3 10  2  0  0  0  0
  3 18  1  0  0  0  0
  4 11  1  0  0  0  0
  4 18  2  0  0  0  0
  5 20  1  0  0  0  0
  6 22  1  0  0  0  0
  7 12  2  0  0  0  0
  7 21  1  0  0  0  0
  8  9  2  0  0  0  0
  8 24  1  0  0  0  0
  9 26  1  0  0  0  0
 10 27  1  0  0  0  0
 11 27  2  0  0  0  0
 12 28  1  0  0  0  0
 13 14  2  0  0  0  0
 13 29  1  0  0  0  0
 14 30  1  0  0  0  0
 15 23  1  0  0  0  0
 15 28  2  0  0  0  0
 16 25  1  0  0  0  0
 16 26  2  0  0  0  0
 17 30  2  0  0  0  0
 17 31  1  0  0  0  0
 18 32  1  0  0  0  0
 19 32  1  0  0  0  0
 19 33  2  0  0  0  0
 19 35  1  0  0  0  0
 20 22  2  0  0  0  0
 20 40  1  0  0  0  0
 21 23  2  0  0  0  0
 21 41  1  0  0  0  0
 22 51  1  0  0  0  0
 23 42  1  0  0  0  0
 24 25  2  0  0  0  0
 24 55  1  0  0  0  0
 25 67  1  0  0  0  0
 26 72  1  0  0  0  0
 27 82  1  0  0  0  0
 28 83  1  0  0  0  0
 29 31  2  0  0  0  0
 29 82  1  0  0  0  0
 30 84  1  0  0  0  0
 31 85  1  0  0  0  0
 32 65  2  0  0  0  0
 33 66  1  0  0  0  0
 33 70  1  0  0  0  0
 34 52  1  0  0  0  0
 34 67  1  0  0  0  0
 34 76  2  0  0  0  0
 35 71  1  0  0  0  0
 35 77  2  0  0  0  0
 36 53  1  0  0  0  0
 36 73  1  0  0  0  0
 36 78  2  0  0  0  0
 37 62  1  0  0  0  0
 37 68  1  0  0  0  0
 37 79  2  0  0  0  0
 38 63  1  0  0  0  0
 38 74  1  0  0  0  0
 38 80  2  0  0  0  0
 39 69  1  0  0  0  0
 39 72  1  0  0  0  0
 39 81  2  0  0  0  0
 40 43  1  0  0  0  0
 41 53  1  0  0  0  0
 42 68  1  0  0  0  0
 43 45  1  0  0  0  0
 44 46  1  0  0  0  0
 44 48  1  0  0  0  0
 45 51  1  0  0  0  0
 46 54  1  0  0  0  0
 47 49  1  0  0  0  0
 47 52  1  0  0  0  0
 48 69  1  0  0  0  0
 49 67  1  0  0  0  0
 50 54  1  0  0  0  0
 50 69  1  0  0  0  0
 51 73  1  0  0  0  0
 52 61  1  0  0  0  0
 53 68  1  0  0  0  0
 54 66  1  0  0  0  0
 56 63  1  0  0  0  0
 57 64  1  0  0  0  0
 58 64  1  0  0  0  0
 59 64  1  0  0  0  0
 60 75  1  0  0  0  0
 61 83  1  0  0  0  0
 62 64  1  0  0  0  0
 62 74  1  0  0  0  0
 63 75  1  0  0  0  0
 65 66  1  0  0  0  0
M  CHG  1  75   1
M  ISO  4  39 100  61 101  72 100  83 101
M  END
> <Batch ID>
0065

> <Smiles>
CNC(C)C(=O)NC(C(=O)N1Cc2cc([101O:1][101CH2:1]C3CCN(c4cc([100NH:0][100C:0](=O)N5CCCC(n6nc(-c7ccc(Oc8ccc(F)cc8F)cc7)c(C(N)=O)c6N)C5)ccc4C)C3=O)ccc2CC1C(=O)NC1CCCc2ccccc21)C(C)(C)C

> <Shape>
0.336

> <Color>
0.087

> <Negative vol penalty>
0.000

$$$$

  -OEChem-04042323183D

 83 91  0     1  0  0  0  0  0999 V2000
  -18.0573  -25.6517   22.9035 C   0  0  0  0  0  0  0  0  0  0  0  0
  -19.3937  -25.3076   22.7276 C   0  0  0  0  0  0  0  0  0  0  0  0
  -32.3575  -19.9076   18.4131 C   0  0  0  0  0  0  0  0  0  0  0  0
  -24.0709  -12.3554   21.9263 C   0  0  0  0  0  0  0  0  0  0  0  0
  -25.0161  -11.7385   19.7902 C   0  0  0  0  0  0  0  0  0  0  0  0
  -32.3308  -21.2854   18.6284 C   0  0  0  0  0  0  0  0  0  0  0  0
  -17.6259  -26.9432   22.6039 C   0  0  0  0  0  0  0  0  0  0  0  0
  -20.2994  -26.2546   22.2509 C   0  0  0  0  0  0  0  0  0  0  0  0
  -26.1982  -26.8136   23.7996 C   0  0  0  0  0  0  0  0  0  0  0  0
  -31.1716  -19.2181   18.1602 C   0  0  0  0  0  0  0  0  0  0  0  0
  -23.2975  -11.1946   21.9194 C   0  0  0  0  0  0  0  0  0  0  0  0
  -24.2428  -10.5777   19.7832 C   0  0  0  0  0  0  0  0  0  0  0  0
  -27.3742  -26.3897   23.1824 C   0  0  0  0  0  0  0  0  0  0  0  0
  -23.7387   -7.9037   22.5582 C   0  0  0  0  0  0  0  0  0  0  0  0
  -23.6809   -7.1562   23.7344 C   0  0  0  0  0  0  0  0  0  0  0  0
  -29.9323  -21.2843   18.3382 C   0  0  0  0  0  0  0  0  0  0  0  0
  -27.6213  -28.5663   22.1720 C   0  0  0  0  0  0  0  0  0  0  0  0
  -21.2859   -7.4645   23.8125 C   0  0  0  0  0  0  0  0  0  0  0  0
  -24.9301  -12.6274   20.8617 C   0  0  0  0  0  0  0  0  0  0  0  0
  -31.1182  -21.9738   18.5910 C   0  0  0  0  0  0  0  0  0  0  0  0
  -27.0244  -13.9823   21.3962 C   0  0  0  0  0  0  0  0  0  0  0  0
  -18.5287  -27.9093   22.1325 C   0  0  0  0  0  0  0  0  0  0  0  0
  -25.7182  -28.1158   23.5986 C   0  0  0  0  0  0  0  0  0  0  0  0
  -19.8795  -27.5599   21.9435 C   0  0  0  0  0  0  0  0  0  0  0  0
  -26.4403  -29.0050   22.7899 C   0  0  0  0  0  0  0  0  0  0  0  0
  -29.9590  -19.9064   18.1228 C   0  0  0  0  0  0  0  0  0  0  0  0
  -23.3835  -10.3057   20.8478 C   0  0  0  0  0  0  0  0  0  0  0  0
  -28.0844  -27.2652   22.3661 C   0  0  0  0  0  0  0  0  0  0  0  0
  -22.5702   -8.4316   22.0091 C   0  0  0  0  0  0  0  0  0  0  0  0
  -22.4544   -6.9366   24.3616 C   0  0  0  0  0  0  0  0  0  0  0  0
  -21.3437   -8.2120   22.6362 C   0  0  0  0  0  0  0  0  0  0  0  0
  -25.7288  -13.8266   20.8681 C   0  0  0  0  0  0  0  0  0  0  0  0
  -27.3381  -15.2975   21.1543 C   0  0  0  0  0  0  0  0  0  0  0  0
  -31.0889  -23.4333   18.8184 C   0  0  0  0  0  0  0  0  0  0  0  0
  -27.8690  -13.0238   22.0472 C   0  0  0  0  0  0  0  0  0  0  0  0
  -23.0789  -29.3647   22.3425 C   0  0  0  0  0  0  0  0  0  0  0  0
  -24.3528  -32.1482   23.4158 C   0  0  0  0  0  0  0  0  0  0  0  0
  -30.2087  -25.2832   20.2233 C   0  0  0  0  0  0  0  0  0  0  0  0
  -27.1365  -33.8980   24.3300 C   0  0  0  0  0  0  0  0  0  0  0  0
  -27.4671  -19.7356   17.7943 C   0  0  0  0  0  0  0  0  0  0  0  0
  -18.0064  -29.2789   21.7772 C   0  0  0  0  0  0  0  0  0  0  0  0
  -24.4622  -28.5660   24.2930 C   0  0  0  0  0  0  0  0  0  0  0  0
  -25.9784  -30.4197   22.5581 C   0  0  0  0  0  0  0  0  0  0  0  0
  -19.1034  -30.3304   21.6322 C   0  0  0  0  0  0  0  0  0  0  0  0
  -24.4428  -19.1377   19.5757 C   0  0  0  0  0  0  0  0  0  0  0  0
  -20.2531  -29.7896   20.7881 C   0  0  0  0  0  0  0  0  0  0  0  0
  -24.6144  -17.7155   20.1141 C   0  0  0  0  0  0  0  0  0  0  0  0
  -25.0529  -19.2946   18.1839 C   0  0  0  0  0  0  0  0  0  0  0  0
  -26.6246  -17.4452   18.6065 C   0  0  0  0  0  0  0  0  0  0  0  0
  -20.8971  -28.5664   21.4519 C   0  0  1  0  0  0  0  0  0  0  0  0
  -23.7925  -29.7525   23.6066 C   0  0  1  0  0  0  0  0  0  0  0  0
  -26.0832  -17.2554   20.0329 C   0  0  2  0  0  0  0  0  0  0  0  0
  -27.8664  -36.1636   25.1248 C   0  0  0  0  0  0  0  0  0  0  0  0
  -24.0261  -33.2433   20.5867 C   0  0  0  0  0  0  0  0  0  0  0  0
  -25.5994  -35.0932   21.1959 C   0  0  0  0  0  0  0  0  0  0  0  0
  -23.4301  -34.8544   22.4042 C   0  0  0  0  0  0  0  0  0  0  0  0
  -28.2011  -32.7950   26.8615 C   0  0  0  0  0  0  0  0  0  0  0  0
  -29.3332  -25.4687   21.4339 C   0  0  0  0  0  0  0  0  0  1  0  0
  -25.2823  -33.1900   22.8417 C   0  0  1  0  0  0  0  0  0  0  0  0
  -27.4274  -34.7679   25.5396 C   0  0  2  0  0  0  0  0  0  0  0  0
  -24.5924  -34.0680   21.7597 C   0  0  0  0  0  0  0  0  0  0  0  0
  -25.2520  -14.9529   20.3313 N   0  0  0  0  0  0  0  0  0  0  0  0
  -26.2534  -15.8289   20.5209 N   0  0  0  0  0  0  0  0  0  0  0  0
  -24.7412  -30.8107   23.2540 N   0  0  0  0  0  0  0  0  0  0  0  0
  -26.4461  -18.8433   18.1843 N   0  0  0  0  0  0  0  0  0  0  0  0
  -28.4331  -16.0396   21.4237 N   0  0  0  0  0  0  0  0  0  0  0  0
  -27.3912  -11.7168   22.2140 N   0  0  0  0  0  0  0  0  0  0  0  0
  -28.7548  -19.2052   17.8659 N   0  0  0  0  0  0  0  0  0  0  0  0
  -30.3686  -23.8979   19.8486 N   0  0  0  0  0  0  0  0  0  0  0  0
  -21.7663  -28.9775   22.5336 N   0  0  0  0  0  0  0  0  0  0  0  0
  -25.8041  -33.9420   23.9778 N   0  0  0  0  0  0  0  0  0  0  0  0
  -31.7852  -24.2049   17.9842 N   0  3  0  0  0  0  0  0  0  0  0  0
  -28.5091  -34.1612   26.3659 N   0  3  0  0  0  0  0  0  0  0  0  0
  -29.0068  -13.3219   22.4830 O   0  0  0  0  0  0  0  0  0  0  0  0
  -23.6746  -29.4146   21.2728 O   0  0  0  0  0  0  0  0  0  0  0  0
  -23.3238  -32.5080   23.9930 O   0  0  0  0  0  0  0  0  0  0  0  0
  -30.7453  -26.1864   19.5980 O   0  0  0  0  0  0  0  0  0  0  0  0
  -28.0052  -33.2477   23.7528 O   0  0  0  0  0  0  0  0  0  0  0  0
  -27.2199  -20.8942   17.4502 O   0  0  0  0  0  0  0  0  0  0  0  0
  -22.6292   -9.1728   20.8408 O   0  0  0  0  0  0  0  0  0  0  0  0
  -29.2323  -26.8538   21.7619 O   0  0  0  0  0  0  0  0  0  1  0  0
  -22.3988   -6.2175   25.4903 F   0  0  0  0  0  0  0  0  0  0  0  0
  -20.2176   -8.7156   22.1128 F   0  0  0  0  0  0  0  0  0  0  0  0
  1  2  1  0  0  0  0
  1  7  2  0  0  0  0
  2  8  2  0  0  0  0
  3  6  2  0  0  0  0
  3 10  1  0  0  0  0
  4 11  2  0  0  0  0
  4 19  1  0  0  0  0
  5 12  1  0  0  0  0
  5 19  2  0  0  0  0
  6 20  1  0  0  0  0
  7 22  1  0  0  0  0
  8 24  1  0  0  0  0
  9 13  2  0  0  0  0
  9 23  1  0  0  0  0
 10 26  2  0  0  0  0
 11 27  1  0  0  0  0
 12 27  2  0  0  0  0
 13 28  1  0  0  0  0
 14 15  2  0  0  0  0
 14 29  1  0  0  0  0
 15 30  1  0  0  0  0
 16 20  2  0  0  0  0
 16 26  1  0  0  0  0
 17 25  1  0  0  0  0
 17 28  2  0  0  0  0
 18 30  2  0  0  0  0
 18 31  1  0  0  0  0
 19 32  1  0  0  0  0
 20 34  1  0  0  0  0
 21 32  1  0  0  0  0
 21 33  2  0  0  0  0
 21 35  1  0  0  0  0
 22 24  2  0  0  0  0
 22 41  1  0  0  0  0
 23 25  2  0  0  0  0
 23 42  1  0  0  0  0
 24 50  1  0  0  0  0
 25 43  1  0  0  0  0
 26 68  1  0  0  0  0
 27 80  1  0  0  0  0
 28 81  1  0  0  0  0
 29 31  2  0  0  0  0
 29 80  1  0  0  0  0
 30 82  1  0  0  0  0
 31 83  1  0  0  0  0
 32 62  2  0  0  0  0
 33 63  1  0  0  0  0
 33 66  1  0  0  0  0
 34 69  1  0  0  0  0
 34 72  2  0  0  0  0
 35 67  1  0  0  0  0
 35 74  2  0  0  0  0
 36 51  1  0  0  0  0
 36 70  1  0  0  0  0
 36 75  2  0  0  0  0
 37 59  1  0  0  0  0
 37 64  1  0  0  0  0
 37 76  2  0  0  0  0
 38 58  1  0  0  0  0
 38 69  1  0  0  0  0
 38 77  2  0  0  0  0
 39 60  1  0  0  0  0
 39 71  1  0  0  0  0
 39 78  2  0  0  0  0
 40 65  1  0  0  0  0
 40 68  1  0  0  0  0
 40 79  2  0  0  0  0
 41 44  1  0  0  0  0
 42 51  1  0  0  0  0
 43 64  1  0  0  0  0
 44 46  1  0  0  0  0
 45 47  1  0  0  0  0
 45 48  1  0  0  0  0
 46 50  1  0  0  0  0
 47 52  1  0  0  0  0
 48 65  1  0  0  0  0
 49 52  1  0  0  0  0
 49 65  1  0  0  0  0
 50 70  1  0  0  0  0
 51 64  1  0  0  0  0
 52 63  1  0  0  0  0
 53 60  1  0  0  0  0
 54 61  1  0  0  0  0
 55 61  1  0  0  0  0
 56 61  1  0  0  0  0
 57 73  1  0  0  0  0
 58 81  1  0  0  0  0
 59 61  1  0  0  0  0
 59 71  1  0  0  0  0
 60 73  1  0  0  0  0
 62 63  1  0  0  0  0
M  CHG  2  72   1  73   1
M  ISO  4  40 100  58 101  68 100  81 101
M  END
> <Batch ID>
0065

> <Smiles>
CNC(C)C(=O)NC(C(=O)N1Cc2cc([101O:1][101CH2:1]C(=O)NC(=N)c3cccc([100NH:0][100C:0](=O)N4CCCC(n5nc(-c6ccc(Oc7ccc(F)cc7F)cc6)c(C(N)=O)c5N)C4)c3)ccc2CC1C(=O)NC1CCCc2ccccc21)C(C)(C)C

> <Shape>
0.284

> <Color>
0.082

> <Negative vol penalty>
0.000

$$$$

  -OEChem-04042323183D

 94103  0     1  0  0  0  0  0999 V2000
  -27.2957  -38.7832   22.9273 C   0  0  0  0  0  0  0  0  0  0  0  0
  -28.1916  -37.7351   23.1116 C   0  0  0  0  0  0  0  0  0  0  0  0
  -23.3426   -9.7844   21.5722 C   0  0  0  0  0  0  0  0  0  0  0  0
  -23.3242  -12.1125   22.2176 C   0  0  0  0  0  0  0  0  0  0  0  0
  -25.9841  -38.6664   23.3857 C   0  0  0  0  0  0  0  0  0  0  0  0
  -27.7768  -36.5698   23.7554 C   0  0  0  0  0  0  0  0  0  0  0  0
  -28.1708  -30.1739   20.4647 C   0  0  0  0  0  0  0  0  0  0  0  0
  -29.9566  -19.9096   19.3335 C   0  0  0  0  0  0  0  0  0  0  0  0
  -29.9182  -18.5287   19.5262 C   0  0  0  0  0  0  0  0  0  0  0  0
  -22.4675   -9.4878   22.6171 C   0  0  0  0  0  0  0  0  0  0  0  0
  -22.4491  -11.8159   23.2625 C   0  0  0  0  0  0  0  0  0  0  0  0
  -28.4108  -28.8876   19.9809 C   0  0  0  0  0  0  0  0  0  0  0  0
  -19.1554   -9.7528   23.2438 C   0  0  0  0  0  0  0  0  0  0  0  0
  -18.0742   -8.9165   22.9662 C   0  0  0  0  0  0  0  0  0  0  0  0
  -27.3691  -27.9420   21.9478 C   0  0  0  0  0  0  0  0  0  0  0  0
  -27.5435  -19.9888   19.4203 C   0  0  0  0  0  0  0  0  0  0  0  0
  -18.8702   -7.3401   24.6149 C   0  0  0  0  0  0  0  0  0  0  0  0
  -23.7710  -11.0968   21.3724 C   0  0  0  0  0  0  0  0  0  0  0  0
  -24.4570  -11.2014   18.9176 C   0  0  0  0  0  0  0  0  0  0  0  0
  -25.5504  -37.4954   24.0269 C   0  0  0  0  0  0  0  0  0  0  0  0
  -27.5145  -30.3495   21.6861 C   0  0  0  0  0  0  0  0  0  0  0  0
  -26.4586  -36.4377   24.2240 C   0  0  0  0  0  0  0  0  0  0  0  0
  -27.1149  -29.2281   22.4315 C   0  0  0  0  0  0  0  0  0  0  0  0
  -27.5051  -18.6079   19.6129 C   0  0  0  0  0  0  0  0  0  0  0  0
  -28.7692  -20.6397   19.2807 C   0  0  0  0  0  0  0  0  0  0  0  0
  -28.6925  -17.8778   19.6658 C   0  0  0  0  0  0  0  0  0  0  0  0
  -22.0208  -10.5035   23.4623 C   0  0  0  0  0  0  0  0  0  0  0  0
  -28.0111  -27.7745   20.7208 C   0  0  0  0  0  0  0  0  0  0  0  0
  -20.0942   -9.3828   24.2069 C   0  0  0  0  0  0  0  0  0  0  0  0
  -17.9316   -7.7102   23.6518 C   0  0  0  0  0  0  0  0  0  0  0  0
  -19.9515   -8.1764   24.8925 C   0  0  0  0  0  0  0  0  0  0  0  0
  -24.6754  -11.4037   20.2936 C   0  0  0  0  0  0  0  0  0  0  0  0
  -25.6072  -11.6524   18.3175 C   0  0  0  0  0  0  0  0  0  0  0  0
  -27.7625  -22.7362   18.4252 C   0  0  0  0  0  0  0  0  0  0  0  0
  -23.3164  -10.6548   18.2424 C   0  0  0  0  0  0  0  0  0  0  0  0
  -26.1521  -32.7555   24.2220 C   0  0  0  0  0  0  0  0  0  0  0  0
  -29.7681  -24.9060   17.2796 C   0  0  0  0  0  0  0  0  0  0  0  0
  -24.1195  -30.4707   23.9794 C   0  0  0  0  0  0  0  0  0  0  0  0
  -21.3105  -28.5363   23.9116 C   0  0  0  0  0  0  0  0  0  0  0  0
  -24.9528  -16.6300   21.3024 C   0  0  0  0  0  0  0  0  0  0  0  0
  -29.7726  -15.6182   19.9382 C   0  0  0  0  0  0  0  0  0  0  0  0
  -24.1361  -37.4339   24.5472 C   0  0  0  0  0  0  0  0  0  0  0  0
  -27.2900  -31.7157   22.2750 C   0  0  0  0  0  0  0  0  0  0  0  0
  -26.4430  -29.4647   23.7565 C   0  0  0  0  0  0  0  0  0  0  0  0
  -27.7272  -24.2517   18.5431 C   0  0  0  0  0  0  0  0  0  0  0  0
  -23.6726  -36.0194   24.8859 C   0  0  0  0  0  0  0  0  0  0  0  0
  -30.2952  -12.1891   19.1352 C   0  0  0  0  0  0  0  0  0  0  0  0
  -24.7386  -35.2879   25.6955 C   0  0  0  0  0  0  0  0  0  0  0  0
  -28.8926  -11.5814   19.2099 C   0  0  0  0  0  0  0  0  0  0  0  0
  -29.9283  -24.2502   19.6848 C   0  0  0  0  0  0  0  0  0  0  0  0
  -30.5073  -13.2594   20.2044 C   0  0  0  0  0  0  0  0  0  0  0  0
  -30.0687  -22.7618   19.4016 C   0  0  0  0  0  0  0  0  0  0  0  0
  -28.0876  -13.7105   20.3081 C   0  0  0  0  0  0  0  0  0  0  0  0
  -26.0395  -35.1480   24.8957 C   0  0  1  0  0  0  0  0  0  0  0  0
  -25.9698  -31.8255   23.0587 C   0  0  1  0  0  0  0  0  0  0  0  0
  -27.8047  -12.6731   19.2092 C   0  0  2  0  0  0  0  0  0  0  0  0
  -29.0832  -24.9415   18.6229 C   0  0  1  0  0  0  0  0  0  0  0  0
  -25.0327  -16.0006   22.6602 C   0  0  0  0  0  0  0  0  0  0  0  0
  -19.3487  -27.8619   25.3238 C   0  0  0  0  0  0  0  0  0  0  0  0
  -25.9238  -28.6146   25.5929 C   0  0  0  0  0  0  0  0  0  0  0  0
  -23.8820  -27.3327   26.2680 C   0  0  0  0  0  0  0  0  0  0  0  0
  -24.1200  -29.7289   26.9191 C   0  0  0  0  0  0  0  0  0  0  0  0
  -19.3799  -29.6758   21.9794 C   0  0  0  0  0  0  0  0  0  0  0  0
  -31.7408  -25.5648   16.1578 C   0  0  0  0  0  0  0  0  0  0  0  0
  -26.1782  -17.9369   19.7616 C   0  0  0  0  0  0  0  0  0  0  0  0
  -28.9006  -26.4232   18.9771 C   0  0  0  0  0  0  0  0  0  1  0  0
  -23.6414  -29.1416   24.5070 C   0  0  1  0  0  0  0  0  0  0  0  0
  -19.8696  -28.8390   24.2813 C   0  0  2  0  0  0  0  0  0  0  0  0
  -24.3981  -28.7082   25.7943 C   0  0  0  0  0  0  0  0  0  0  0  0
  -25.8704  -11.9412   20.5524 N   0  0  0  0  0  0  0  0  0  0  0  0
  -26.4133  -12.0804   19.3310 N   0  0  0  0  0  0  0  0  0  0  0  0
  -28.8094  -22.0733   19.0836 N   0  0  0  0  0  0  0  0  0  0  0  0
  -25.4744  -30.5658   23.6391 N   0  0  0  0  0  0  0  0  0  0  0  0
  -29.4414  -14.2617   20.1407 N   0  0  0  0  0  0  0  0  0  0  0  0
  -25.9975  -11.7205   17.0270 N   0  0  0  0  0  0  0  0  0  0  0  0
  -22.2201  -10.2404   19.0110 N   0  0  0  0  0  0  0  0  0  0  0  0
  -28.6746  -16.4746   19.8624 N   0  0  0  0  0  0  0  0  0  0  0  0
  -25.9219  -34.0844   23.9213 N   0  0  0  0  0  0  0  0  0  0  0  0
  -22.1976  -29.2648   24.6756 N   0  0  0  0  0  0  0  0  0  0  0  0
  -18.9963  -28.7509   23.0769 N   0  3  0  0  0  0  0  0  0  0  0  0
  -26.8435  -22.1853   17.8118 O   0  0  0  0  0  0  0  0  0  0  0  0
  -23.2773  -10.5221   16.9956 O   0  0  0  0  0  0  0  0  0  0  0  0
  -26.4763  -32.3018   25.3132 O   0  0  0  0  0  0  0  0  0  0  0  0
  -29.2875  -24.3916   16.2788 O   0  0  0  0  0  0  0  0  0  0  0  0
  -23.3169  -31.4026   23.8761 O   0  0  0  0  0  0  0  0  0  0  0  0
  -21.6183  -27.7312   23.0356 O   0  0  0  0  0  0  0  0  0  0  0  0
  -23.9782  -16.5507   20.5668 O   0  0  0  0  0  0  0  0  0  0  0  0
  -30.9425  -15.9888   19.8121 O   0  0  0  0  0  0  0  0  0  0  0  0
  -21.1667  -10.2145   24.4818 O   0  0  0  0  0  0  0  0  0  0  0  0
  -28.2445  -26.5216   20.2405 O   0  0  0  0  0  0  0  0  0  1  0  0
  -30.9790  -25.5264   17.3687 O   0  0  0  0  0  0  0  0  0  0  0  0
  -26.1180  -17.2906   21.0261 O   0  0  0  0  0  0  0  0  0  0  0  0
  -16.8923   -6.9079   23.3862 F   0  0  0  0  0  0  0  0  0  0  0  0
  -20.8495   -7.8161   25.8196 F   0  0  0  0  0  0  0  0  0  0  0  0
  1  2  1  0  0  0  0
  1  5  2  0  0  0  0
  2  6  2  0  0  0  0
  3 10  2  0  0  0  0
  3 18  1  0  0  0  0
  4 11  1  0  0  0  0
  4 18  2  0  0  0  0
  5 20  1  0  0  0  0
  6 22  1  0  0  0  0
  7 12  2  0  0  0  0
  7 21  1  0  0  0  0
  8  9  2  0  0  0  0
  8 25  1  0  0  0  0
  9 26  1  0  0  0  0
 10 27  1  0  0  0  0
 11 27  2  0  0  0  0
 12 28  1  0  0  0  0
 13 14  2  0  0  0  0
 13 29  1  0  0  0  0
 14 30  1  0  0  0  0
 15 23  1  0  0  0  0
 15 28  2  0  0  0  0
 16 24  1  0  0  0  0
 16 25  2  0  0  0  0
 17 30  2  0  0  0  0
 17 31  1  0  0  0  0
 18 32  1  0  0  0  0
 19 32  1  0  0  0  0
 19 33  2  0  0  0  0
 19 35  1  0  0  0  0
 20 22  2  0  0  0  0
 20 42  1  0  0  0  0
 21 23  2  0  0  0  0
 21 43  1  0  0  0  0
 22 54  1  0  0  0  0
 23 44  1  0  0  0  0
 24 26  2  0  0  0  0
 24 65  1  0  0  0  0
 25 72  1  0  0  0  0
 26 77  1  0  0  0  0
 27 89  1  0  0  0  0
 28 90  1  0  0  0  0
 29 31  2  0  0  0  0
 29 89  1  0  0  0  0
 30 93  1  0  0  0  0
 31 94  1  0  0  0  0
 32 70  2  0  0  0  0
 33 71  1  0  0  0  0
 33 75  1  0  0  0  0
 34 45  1  0  0  0  0
 34 72  1  0  0  0  0
 34 81  2  0  0  0  0
 35 76  1  0  0  0  0
 35 82  2  0  0  0  0
 36 55  1  0  0  0  0
 36 78  1  0  0  0  0
 36 83  2  0  0  0  0
 37 57  1  0  0  0  0
 37 84  2  0  0  0  0
 37 91  1  0  0  0  0
 38 67  1  0  0  0  0
 38 73  1  0  0  0  0
 38 85  2  0  0  0  0
 39 68  1  0  0  0  0
 39 79  1  0  0  0  0
 39 86  2  0  0  0  0
 40 58  1  0  0  0  0
 40 87  2  0  0  0  0
 40 92  1  0  0  0  0
 41 74  1  0  0  0  0
 41 77  1  0  0  0  0
 41 88  2  0  0  0  0
 42 46  1  0  0  0  0
 43 55  1  0  0  0  0
 44 73  1  0  0  0  0
 45 57  1  0  0  0  0
 46 48  1  0  0  0  0
 47 49  1  0  0  0  0
 47 51  1  0  0  0  0
 48 54  1  0  0  0  0
 49 56  1  0  0  0  0
 50 52  1  0  0  0  0
 50 57  1  0  0  0  0
 51 74  1  0  0  0  0
 52 72  1  0  0  0  0
 53 56  1  0  0  0  0
 53 74  1  0  0  0  0
 54 78  1  0  0  0  0
 55 73  1  0  0  0  0
 56 71  1  0  0  0  0
 57 66  1  0  0  0  0
 59 68  1  0  0  0  0
 60 69  1  0  0  0  0
 61 69  1  0  0  0  0
 62 69  1  0  0  0  0
 63 80  1  0  0  0  0
 64 91  1  0  0  0  0
 65 92  1  0  0  0  0
 66 90  1  0  0  0  0
 67 69  1  0  0  0  0
 67 79  1  0  0  0  0
 68 80  1  0  0  0  0
 70 71  1  0  0  0  0
M  CHG  1  80   1
M  ISO  4  41 100  66 101  77 100  90 101
M  END
> <Batch ID>
0065

> <Smiles>
CNC(C)C(=O)NC(C(=O)N1Cc2cc([101O:1][101CH2:1]C3(C(=O)OC)CCN(c4ccc([100NH:0][100C:0](=O)N5CCCC(n6nc(-c7ccc(Oc8ccc(F)cc8F)cc7)c(C(N)=O)c6N)C5)c(COC(C)=O)c4)C(=O)C3)ccc2CC1C(=O)NC1CCCc2ccccc21)C(C)(C)C

> <Shape>
0.330

> <Color>
0.081

> <Negative vol penalty>
0.000

$$$$

  -OEChem-04042323183D

 85 94  0     1  0  0  0  0  0999 V2000
  -16.8909  -25.6330   22.7959 C   0  0  0  0  0  0  0  0  0  0  0  0
  -18.1562  -25.1741   22.4443 C   0  0  0  0  0  0  0  0  0  0  0  0
  -22.4330  -13.0529   21.5501 C   0  0  0  0  0  0  0  0  0  0  0  0
  -23.5921  -11.1539   22.4920 C   0  0  0  0  0  0  0  0  0  0  0  0
  -16.7184  -26.9552   23.2033 C   0  0  0  0  0  0  0  0  0  0  0  0
  -19.2498  -26.0375   22.4989 C   0  0  0  0  0  0  0  0  0  0  0  0
  -23.3057  -23.9017   24.6515 C   0  0  0  0  0  0  0  0  0  0  0  0
  -31.8224  -18.9825   19.6248 C   0  0  0  0  0  0  0  0  0  0  0  0
  -31.4285  -17.6562   19.8016 C   0  0  0  0  0  0  0  0  0  0  0  0
  -21.4972  -12.9940   22.5827 C   0  0  0  0  0  0  0  0  0  0  0  0
  -22.6563  -11.0949   23.5247 C   0  0  0  0  0  0  0  0  0  0  0  0
  -24.0506  -23.0193   23.8703 C   0  0  0  0  0  0  0  0  0  0  0  0
  -19.5029   -9.9587   23.9674 C   0  0  0  0  0  0  0  0  0  0  0  0
  -18.9920   -8.7064   24.3083 C   0  0  0  0  0  0  0  0  0  0  0  0
  -25.6582  -24.7659   23.4411 C   0  0  0  0  0  0  0  0  0  0  0  0
  -29.1159  -18.3522   19.8700 C   0  0  0  0  0  0  0  0  0  0  0  0
  -19.8552   -8.9645   26.5501 C   0  0  0  0  0  0  0  0  0  0  0  0
  -23.4804  -12.1328   21.5046 C   0  0  0  0  0  0  0  0  0  0  0  0
  -24.1987  -12.0696   19.0576 C   0  0  0  0  0  0  0  0  0  0  0  0
  -17.8120  -27.8326   23.2722 C   0  0  0  0  0  0  0  0  0  0  0  0
  -23.7264  -25.2281   24.8247 C   0  0  0  0  0  0  0  0  0  0  0  0
  -19.0916  -27.3730   22.9064 C   0  0  0  0  0  0  0  0  0  0  0  0
  -24.9182  -25.6624   24.2270 C   0  0  0  0  0  0  0  0  0  0  0  0
  -30.8631  -19.9937   19.5707 C   0  0  0  0  0  0  0  0  0  0  0  0
  -29.5099  -19.6786   19.6933 C   0  0  0  0  0  0  0  0  0  0  0  0
  -30.0752  -17.3411   19.9242 C   0  0  0  0  0  0  0  0  0  0  0  0
  -21.6088  -12.0150   23.5700 C   0  0  0  0  0  0  0  0  0  0  0  0
  -25.2255  -23.4521   23.2626 C   0  0  0  0  0  0  0  0  0  0  0  0
  -20.1901  -10.7139   24.9178 C   0  0  0  0  0  0  0  0  0  0  0  0
  -19.1681   -8.2093   25.5996 C   0  0  0  0  0  0  0  0  0  0  0  0
  -20.3662  -10.2168   26.2091 C   0  0  0  0  0  0  0  0  0  0  0  0
  -24.4471  -12.1928   20.4378 C   0  0  0  0  0  0  0  0  0  0  0  0
  -25.4352  -12.1974   18.4735 C   0  0  0  0  0  0  0  0  0  0  0  0
  -26.8563  -22.1435   20.3443 C   0  0  0  0  0  0  0  0  0  0  0  0
  -28.2692  -21.5773   18.5684 C   0  0  0  0  0  0  0  0  0  0  0  0
  -26.1569  -22.9129   21.1860 C   0  0  0  0  0  0  0  0  0  1  0  0
  -22.9609  -11.8587   18.3655 C   0  0  0  0  0  0  0  0  0  0  0  0
  -22.5139  -28.0777   24.1082 C   0  0  0  0  0  0  0  0  0  0  0  0
  -25.0784  -29.1554   25.7768 C   0  0  0  0  0  0  0  0  0  0  0  0
  -28.5763  -28.3177   26.0611 C   0  0  0  0  0  0  0  0  0  0  0  0
  -30.4994  -14.8710   20.1795 C   0  0  0  0  0  0  0  0  0  0  0  0
  -17.5686  -29.2660   23.6732 C   0  0  0  0  0  0  0  0  0  0  0  0
  -22.9257  -26.1601   25.6922 C   0  0  0  0  0  0  0  0  0  0  0  0
  -25.4239  -27.0707   24.3983 C   0  0  0  0  0  0  0  0  0  0  0  0
  -27.0945  -22.4642   18.9100 C   0  0  0  0  0  0  0  0  0  0  0  0
  -27.5886  -20.9089   20.7393 C   0  0  0  0  0  0  0  0  0  0  0  0
  -18.8409  -30.0139   24.0629 C   0  0  0  0  0  0  0  0  0  0  0  0
  -30.0830  -11.4359   19.3405 C   0  0  0  0  0  0  0  0  0  0  0  0
  -19.9435  -29.7610   23.0396 C   0  0  0  0  0  0  0  0  0  0  0  0
  -28.5675  -11.2305   19.3951 C   0  0  0  0  0  0  0  0  0  0  0  0
  -30.5643  -12.3990   20.4243 C   0  0  0  0  0  0  0  0  0  0  0  0
  -28.3562  -13.4881   20.5111 C   0  0  0  0  0  0  0  0  0  0  0  0
  -20.3066  -28.2725   22.9765 C   0  0  1  0  0  0  0  0  0  0  0  0
  -23.1781  -27.6319   25.3801 C   0  0  1  0  0  0  0  0  0  0  0  0
  -27.8161  -12.5762   19.3974 C   0  0  2  0  0  0  0  0  0  0  0  0
  -31.3141  -21.4056   19.3805 C   0  0  0  0  0  0  0  0  0  0  0  0
  -30.1820  -28.6409   27.9623 C   0  0  0  0  0  0  0  0  0  0  0  0
  -25.7904  -31.7580   24.3521 C   0  0  0  0  0  0  0  0  0  0  0  0
  -28.1811  -31.3697   24.9862 C   0  0  0  0  0  0  0  0  0  0  0  0
  -26.4550  -31.6721   26.7615 C   0  0  0  0  0  0  0  0  0  0  0  0
  -29.2861  -25.4449   26.1026 C   0  0  0  0  0  0  0  0  0  0  0  0
  -26.5013  -29.5227   25.4311 C   0  0  1  0  0  0  0  0  0  0  0  0
  -29.2607  -27.6643   27.2482 C   0  0  2  0  0  0  0  0  0  0  0  0
  -26.7176  -31.0611   25.3678 C   0  0  0  0  0  0  0  0  0  0  0  0
  -25.7398  -12.3839   20.7140 N   0  0  0  0  0  0  0  0  0  0  0  0
  -26.3148  -12.3817   19.4994 N   0  0  0  0  0  0  0  0  0  0  0  0
  -28.5106  -20.7020   19.6404 N   0  0  0  0  0  0  0  0  0  0  0  0
  -24.6025  -27.9460   25.2508 N   0  0  0  0  0  0  0  0  0  0  0  0
  -29.8107  -13.6532   20.3628 N   0  0  0  0  0  0  0  0  0  0  0  0
  -25.8449  -12.1688   17.1875 N   0  0  0  0  0  0  0  0  0  0  0  0
  -22.5473  -10.5419   18.1223 N   0  0  0  0  0  0  0  0  0  0  0  0
  -29.6756  -15.9936   20.1038 N   0  0  0  0  0  0  0  0  0  0  0  0
  -21.1426  -27.9080   24.1002 N   0  0  0  0  0  0  0  0  0  0  0  0
  -27.3471  -28.8399   26.4041 N   0  0  0  0  0  0  0  0  0  0  0  0
  -30.0704  -26.4959   26.8006 N   0  3  0  0  0  0  0  0  0  0  0  0
  -28.8384  -21.6615   17.4875 O   0  0  0  0  0  0  0  0  0  0  0  0
  -22.2509  -12.8100   17.9598 O   0  0  0  0  0  0  0  0  0  0  0  0
  -23.1950  -28.5427   23.2018 O   0  0  0  0  0  0  0  0  0  0  0  0
  -24.4161  -29.9101   26.4933 O   0  0  0  0  0  0  0  0  0  0  0  0
  -29.0831  -28.3639   24.9424 O   0  0  0  0  0  0  0  0  0  0  0  0
  -31.7274  -14.9117   20.0685 O   0  0  0  0  0  0  0  0  0  0  0  0
  -20.6960  -11.9574   24.5780 O   0  0  0  0  0  0  0  0  0  0  0  0
  -25.9541  -22.5930   22.4991 O   0  0  0  0  0  0  0  0  0  1  0  0
  -18.6761   -7.0073   25.9273 F   0  0  0  0  0  0  0  0  0  0  0  0
  -21.0244  -10.9382   27.1268 F   0  0  0  0  0  0  0  0  0  0  0  0
  1  2  1  0  0  0  0
  1  5  2  0  0  0  0
  2  6  2  0  0  0  0
  3 10  2  0  0  0  0
  3 18  1  0  0  0  0
  4 11  1  0  0  0  0
  4 18  2  0  0  0  0
  5 20  1  0  0  0  0
  6 22  1  0  0  0  0
  7 12  2  0  0  0  0
  7 21  1  0  0  0  0
  8  9  2  0  0  0  0
  8 24  1  0  0  0  0
  9 26  1  0  0  0  0
 10 27  1  0  0  0  0
 11 27  2  0  0  0  0
 12 28  1  0  0  0  0
 13 14  2  0  0  0  0
 13 29  1  0  0  0  0
 14 30  1  0  0  0  0
 15 23  1  0  0  0  0
 15 28  2  0  0  0  0
 16 25  1  0  0  0  0
 16 26  2  0  0  0  0
 17 30  2  0  0  0  0
 17 31  1  0  0  0  0
 18 32  1  0  0  0  0
 19 32  1  0  0  0  0
 19 33  2  0  0  0  0
 19 37  1  0  0  0  0
 20 22  2  0  0  0  0
 20 42  1  0  0  0  0
 21 23  2  0  0  0  0
 21 43  1  0  0  0  0
 22 53  1  0  0  0  0
 23 44  1  0  0  0  0
 24 25  2  0  0  0  0
 24 56  1  0  0  0  0
 25 67  1  0  0  0  0
 26 72  1  0  0  0  0
 27 82  1  0  0  0  0
 28 83  1  0  0  0  0
 29 31  2  0  0  0  0
 29 82  1  0  0  0  0
 30 84  1  0  0  0  0
 31 85  1  0  0  0  0
 32 65  2  0  0  0  0
 33 66  1  0  0  0  0
 33 70  1  0  0  0  0
 34 36  2  0  0  0  0
 34 45  1  0  0  0  0
 34 46  1  0  0  0  0
 35 45  1  0  0  0  0
 35 67  1  0  0  0  0
 35 76  2  0  0  0  0
 36 83  1  0  0  0  0
 37 71  1  0  0  0  0
 37 77  2  0  0  0  0
 38 54  1  0  0  0  0
 38 73  1  0  0  0  0
 38 78  2  0  0  0  0
 39 62  1  0  0  0  0
 39 68  1  0  0  0  0
 39 79  2  0  0  0  0
 40 63  1  0  0  0  0
 40 74  1  0  0  0  0
 40 80  2  0  0  0  0
 41 69  1  0  0  0  0
 41 72  1  0  0  0  0
 41 81  2  0  0  0  0
 42 47  1  0  0  0  0
 43 54  1  0  0  0  0
 44 68  1  0  0  0  0
 46 67  1  0  0  0  0
 47 49  1  0  0  0  0
 48 50  1  0  0  0  0
 48 51  1  0  0  0  0
 49 53  1  0  0  0  0
 50 55  1  0  0  0  0
 51 69  1  0  0  0  0
 52 55  1  0  0  0  0
 52 69  1  0  0  0  0
 53 73  1  0  0  0  0
 54 68  1  0  0  0  0
 55 66  1  0  0  0  0
 57 63  1  0  0  0  0
 58 64  1  0  0  0  0
 59 64  1  0  0  0  0
 60 64  1  0  0  0  0
 61 75  1  0  0  0  0
 62 64  1  0  0  0  0
 62 74  1  0  0  0  0
 63 75  1  0  0  0  0
 65 66  1  0  0  0  0
M  CHG  1  75   1
M  ISO  4  36 101  41 100  72 100  83 101
M  END
> <Batch ID>
0065

> <Smiles>
CNC(C)C(=O)NC(C(=O)N1Cc2cc([101O:1][101CH:1]=C3CC(=O)N(c4cc([100NH:0][100C:0](=O)N5CCCC(n6nc(-c7ccc(Oc8ccc(F)cc8F)cc7)c(C(N)=O)c6N)C5)ccc4C)C3)ccc2CC1C(=O)NC1CCCc2ccccc21)C(C)(C)C

> <Shape>
0.233

> <Color>
0.095

> <Negative vol penalty>
0.000

$$$$

  -OEChem-04042323183D

 85 93  0     1  0  0  0  0  0999 V2000
  -30.6797  -35.6440   20.3530 C   0  0  0  0  0  0  0  0  0  0  0  0
  -30.4802  -34.3679   19.8363 C   0  0  0  0  0  0  0  0  0  0  0  0
  -24.4234   -9.6387   19.8962 C   0  0  0  0  0  0  0  0  0  0  0  0
  -24.4910   -9.8875   22.2984 C   0  0  0  0  0  0  0  0  0  0  0  0
  -30.2619  -35.9432   21.6491 C   0  0  0  0  0  0  0  0  0  0  0  0
  -29.8638  -33.3897   20.6158 C   0  0  0  0  0  0  0  0  0  0  0  0
  -26.1216  -28.9494   18.6703 C   0  0  0  0  0  0  0  0  0  0  0  0
  -24.0365   -8.3069   20.0450 C   0  0  0  0  0  0  0  0  0  0  0  0
  -24.1040   -8.5557   22.4473 C   0  0  0  0  0  0  0  0  0  0  0  0
  -26.3357  -27.6029   18.3790 C   0  0  0  0  0  0  0  0  0  0  0  0
  -21.2482   -6.7581   22.2655 C   0  0  0  0  0  0  0  0  0  0  0  0
  -20.2533   -6.4745   23.2011 C   0  0  0  0  0  0  0  0  0  0  0  0
  -25.5894  -27.0110   20.5953 C   0  0  0  0  0  0  0  0  0  0  0  0
  -29.0323  -20.6400   19.9400 C   0  0  0  0  0  0  0  0  0  0  0  0
  -27.8920  -20.8119   17.8170 C   0  0  0  0  0  0  0  0  0  0  0  0
  -21.7866   -5.0403   24.3967 C   0  0  0  0  0  0  0  0  0  0  0  0
  -24.6507  -10.4290   21.0229 C   0  0  0  0  0  0  0  0  0  0  0  0
  -24.2095  -12.9296   20.7772 C   0  0  0  0  0  0  0  0  0  0  0  0
  -29.6313  -34.9710   22.4415 C   0  0  0  0  0  0  0  0  0  0  0  0
  -25.6493  -29.3383   19.9321 C   0  0  0  0  0  0  0  0  0  0  0  0
  -29.4384  -33.6758   21.9242 C   0  0  0  0  0  0  0  0  0  0  0  0
  -25.3677  -28.3628   20.8992 C   0  0  0  0  0  0  0  0  0  0  0  0
  -29.9096  -19.7036   19.3930 C   0  0  0  0  0  0  0  0  0  0  0  0
  -28.0234  -21.1941   19.1520 C   0  0  0  0  0  0  0  0  0  0  0  0
  -23.8768   -7.7654   21.3205 C   0  0  0  0  0  0  0  0  0  0  0  0
  -26.0724  -26.6336   19.3425 C   0  0  0  0  0  0  0  0  0  0  0  0
  -22.5122   -6.1827   22.3954 C   0  0  0  0  0  0  0  0  0  0  0  0
  -20.5225   -5.6156   24.2668 C   0  0  0  0  0  0  0  0  0  0  0  0
  -28.7693  -19.8755   17.2700 C   0  0  0  0  0  0  0  0  0  0  0  0
  -22.7814   -5.3239   23.4610 C   0  0  0  0  0  0  0  0  0  0  0  0
  -29.7781  -19.3214   18.0580 C   0  0  0  0  0  0  0  0  0  0  0  0
  -25.0509  -11.8047   20.8699 C   0  0  0  0  0  0  0  0  0  0  0  0
  -25.0699  -13.9918   20.6438 C   0  0  0  0  0  0  0  0  0  0  0  0
  -27.5053  -23.3736   19.6070 C   0  0  0  0  0  0  0  0  0  0  0  0
  -22.7782  -13.0073   20.8090 C   0  0  0  0  0  0  0  0  0  0  0  0
  -26.7868  -31.1298   22.2986 C   0  0  0  0  0  0  0  0  0  0  0  0
  -23.8392  -30.6432   23.5623 C   0  0  0  0  0  0  0  0  0  0  0  0
  -21.0353  -28.7035   23.7121 C   0  0  0  0  0  0  0  0  0  0  0  0
  -29.4673  -16.2711   18.2164 C   0  0  0  0  0  0  0  0  0  0  0  0
  -29.2397  -35.3278   23.8536 C   0  0  0  0  0  0  0  0  0  0  0  0
  -25.3982  -30.7928   20.2216 C   0  0  0  0  0  0  0  0  0  0  0  0
  -24.8401  -28.7266   22.2622 C   0  0  0  0  0  0  0  0  0  0  0  0
  -28.2569  -34.3422   24.4805 C   0  0  0  0  0  0  0  0  0  0  0  0
  -30.0794  -14.2742   21.2148 C   0  0  0  0  0  0  0  0  0  0  0  0
  -28.7080  -32.9066   24.2309 C   0  0  0  0  0  0  0  0  0  0  0  0
  -28.7563  -13.5240   21.3611 C   0  0  0  0  0  0  0  0  0  0  0  0
  -30.4550  -14.4684   19.7483 C   0  0  0  0  0  0  0  0  0  0  0  0
  -28.0694  -14.3958   19.0848 C   0  0  0  0  0  0  0  0  0  0  0  0
  -28.7510  -32.5949   22.7301 C   0  0  1  0  0  0  0  0  0  0  0  0
  -25.4033  -31.1148   21.7127 C   0  0  1  0  0  0  0  0  0  0  0  0
  -27.6414  -14.2066   20.5499 C   0  0  1  0  0  0  0  0  0  0  0  0
  -30.9794  -19.1306   20.2642 C   0  0  0  0  0  0  0  0  0  0  0  0
  -18.8117  -28.5408   24.8639 C   0  0  0  0  0  0  0  0  0  0  0  0
  -25.2252  -29.6495   26.0924 C   0  0  0  0  0  0  0  0  0  0  0  0
  -23.0485  -28.6370   26.8034 C   0  0  0  0  0  0  0  0  0  0  0  0
  -23.2329  -31.1059   26.4977 C   0  0  0  0  0  0  0  0  0  0  0  0
  -19.5640  -28.9067   21.1522 C   0  0  0  0  0  0  0  0  0  0  0  0
  -26.6392  -24.4701   20.1510 C   0  0  0  0  0  0  0  0  0  1  0  0
  -23.2214  -29.6027   24.4649 C   0  0  1  0  0  0  0  0  0  0  0  0
  -19.5607  -29.0577   23.6454 C   0  0  2  0  0  0  0  0  0  0  0  0
  -23.6938  -29.7417   25.9397 C   0  0  0  0  0  0  0  0  0  0  0  0
  -26.3463  -12.1227   20.8010 N   0  0  0  0  0  0  0  0  0  0  0  0
  -30.6995  -16.7942   18.1918 N   0  5  0  0  0  0  0  0  0  0  0  0
  -27.1396  -22.1372   19.7032 N   0  0  0  0  0  0  0  0  0  0  0  0
  -26.3254  -13.4594   20.6636 N   0  0  0  0  0  0  0  0  0  0  0  0
  -24.6168  -30.1624   22.4993 N   0  0  0  0  0  0  0  0  0  0  0  0
  -29.3534  -15.1014   19.0024 N   0  0  0  0  0  0  0  0  0  0  0  0
  -24.8673  -15.3201   20.5127 N   0  0  0  0  0  0  0  0  0  0  0  0
  -22.0476  -11.8197   20.9518 N   0  0  0  0  0  0  0  0  0  0  0  0
  -27.4158  -32.3580   22.2246 N   0  0  0  0  0  0  0  0  0  0  0  0
  -21.7776  -29.7133   24.2869 N   0  0  0  0  0  0  0  0  0  0  0  0
  -18.9404  -28.4658   22.4264 N   0  3  0  0  0  0  0  0  0  0  0  0
  -22.1648  -14.0957   20.6971 O   0  0  0  0  0  0  0  0  0  0  0  0
  -27.2489  -30.1035   22.7832 O   0  0  0  0  0  0  0  0  0  0  0  0
  -23.6333  -31.8384   23.7877 O   0  0  0  0  0  0  0  0  0  0  0  0
  -21.4833  -27.6361   23.2992 O   0  0  0  0  0  0  0  0  0  0  0  0
  -28.4847  -16.7297   17.6252 O   0  0  0  0  0  0  0  0  0  0  0  0
  -32.1987  -18.7652   17.4651 O   0  0  0  0  0  0  0  0  0  0  0  0
  -30.4166  -18.0318   15.9457 O   0  0  0  0  0  0  0  0  0  0  0  0
  -23.4991   -6.4659   21.4661 O   0  0  0  0  0  0  0  0  0  0  0  0
  -26.2811  -25.3187   19.0610 O   0  0  0  0  0  0  0  0  0  1  0  0
  -19.5675   -5.3446   25.1660 F   0  0  0  0  0  0  0  0  0  0  0  0
  -28.6334  -19.5188   15.9850 F   0  0  0  0  0  0  0  0  0  0  0  0
  -23.9942   -4.7691   23.5918 F   0  0  0  0  0  0  0  0  0  0  0  0
  -30.8975  -18.1158   17.3229 S   0  0  0  0  0  0  0  0  0  0  0  0
  1  2  1  0  0  0  0
  1  5  2  0  0  0  0
  2  6  2  0  0  0  0
  3  8  2  0  0  0  0
  3 17  1  0  0  0  0
  4  9  1  0  0  0  0
  4 17  2  0  0  0  0
  5 19  1  0  0  0  0
  6 21  1  0  0  0  0
  7 10  2  0  0  0  0
  7 20  1  0  0  0  0
  8 25  1  0  0  0  0
  9 25  2  0  0  0  0
 10 26  1  0  0  0  0
 11 12  2  0  0  0  0
 11 27  1  0  0  0  0
 12 28  1  0  0  0  0
 13 22  1  0  0  0  0
 13 26  2  0  0  0  0
 14 23  2  0  0  0  0
 14 24  1  0  0  0  0
 15 24  2  0  0  0  0
 15 29  1  0  0  0  0
 16 28  2  0  0  0  0
 16 30  1  0  0  0  0
 17 32  1  0  0  0  0
 18 32  1  0  0  0  0
 18 33  2  0  0  0  0
 18 35  1  0  0  0  0
 19 21  2  0  0  0  0
 19 40  1  0  0  0  0
 20 22  2  0  0  0  0
 20 41  1  0  0  0  0
 21 49  1  0  0  0  0
 22 42  1  0  0  0  0
 23 31  1  0  0  0  0
 23 52  1  0  0  0  0
 24 64  1  0  0  0  0
 25 80  1  0  0  0  0
 26 81  1  0  0  0  0
 27 30  2  0  0  0  0
 27 80  1  0  0  0  0
 28 82  1  0  0  0  0
 29 31  2  0  0  0  0
 29 83  1  0  0  0  0
 30 84  1  0  0  0  0
 31 85  1  0  0  0  0
 32 62  2  0  0  0  0
 33 65  1  0  0  0  0
 33 68  1  0  0  0  0
 34 58  1  0  0  0  0
 34 64  2  0  0  0  0
 35 69  1  0  0  0  0
 35 73  2  0  0  0  0
 36 50  1  0  0  0  0
 36 70  1  0  0  0  0
 36 74  2  0  0  0  0
 37 59  1  0  0  0  0
 37 66  1  0  0  0  0
 37 75  2  0  0  0  0
 38 60  1  0  0  0  0
 38 71  1  0  0  0  0
 38 76  2  0  0  0  0
 39 63  1  0  0  0  0
 39 67  1  0  0  0  0
 39 77  2  0  0  0  0
 40 43  1  0  0  0  0
 41 50  1  0  0  0  0
 42 66  1  0  0  0  0
 43 45  1  0  0  0  0
 44 46  1  0  0  0  0
 44 47  1  0  0  0  0
 45 49  1  0  0  0  0
 46 51  1  0  0  0  0
 47 67  1  0  0  0  0
 48 51  1  0  0  0  0
 48 67  1  0  0  0  0
 49 70  1  0  0  0  0
 50 66  1  0  0  0  0
 51 65  1  0  0  0  0
 53 60  1  0  0  0  0
 54 61  1  0  0  0  0
 55 61  1  0  0  0  0
 56 61  1  0  0  0  0
 57 72  1  0  0  0  0
 58 81  1  0  0  0  0
 59 61  1  0  0  0  0
 59 71  1  0  0  0  0
 60 72  1  0  0  0  0
 62 65  1  0  0  0  0
 63 85  1  0  0  0  0
 78 85  2  0  0  0  0
 79 85  2  0  0  0  0
M  CHG  2  63  -1  72   1
M  ISO  4  39 100  58 101  63 100  81 101
M  END
> <Batch ID>
0065

> <Smiles>
CNC(C)C(=O)NC(C(=O)N1Cc2cc([101O:1][101CH:1]=CNc3cc(C)c(S(=O)(=O)[100NH:0][100C:0](=O)N4CCCC(n5nc(-c6ccc(Oc7ccc(F)cc7F)cc6)c(C(N)=O)c5N)C4)c(F)c3)ccc2CC1C(=O)NC1CCCc2ccccc21)C(C)(C)C

> <Shape>
0.285

> <Color>
0.144

> <Negative vol penalty>
0.000

$$$$
