
  -OEChem-04042323213D

 82 90  0     1  0  0  0  0  0999 V2000
  -28.5138  -24.2484   17.2250 C   0  0  0  0  0  0  0  0  0  0  0  0
  -27.3295  -24.4192   17.9348 C   0  0  0  0  0  0  0  0  0  0  0  0
  -26.3927  -13.6328   20.6260 C   0  0  0  0  0  0  0  0  0  0  0  0
  -24.0592  -13.6197   20.0003 C   0  0  0  0  0  0  0  0  0  0  0  0
  -18.2189  -22.0075   20.1066 C   0  0  0  0  0  0  0  0  0  0  0  0
  -29.6827  -24.8704   17.6616 C   0  0  0  0  0  0  0  0  0  0  0  0
  -27.3138  -25.2113   19.0823 C   0  0  0  0  0  0  0  0  0  0  0  0
  -23.3316  -28.3361   19.2316 C   0  0  0  0  0  0  0  0  0  0  0  0
  -26.1912  -12.4911   21.4016 C   0  0  0  0  0  0  0  0  0  0  0  0
  -23.8576  -12.4780   20.7759 C   0  0  0  0  0  0  0  0  0  0  0  0
  -22.1050  -27.7870   19.6026 C   0  0  0  0  0  0  0  0  0  0  0  0
  -22.8066   -9.3506   22.3032 C   0  0  0  0  0  0  0  0  0  0  0  0
  -18.5150  -20.8780   19.3436 C   0  0  0  0  0  0  0  0  0  0  0  0
  -22.0563   -8.3134   21.7492 C   0  0  0  0  0  0  0  0  0  0  0  0
  -20.5798  -22.4234   20.4072 C   0  0  0  0  0  0  0  0  0  0  0  0
  -22.3994  -28.6528   21.8348 C   0  0  0  0  0  0  0  0  0  0  0  0
  -23.6579   -8.1153   19.9512 C   0  0  0  0  0  0  0  0  0  0  0  0
  -25.3267  -14.1971   19.9254 C   0  0  0  0  0  0  0  0  0  0  0  0
  -19.2513  -22.7803   20.6384 C   0  0  0  0  0  0  0  0  0  0  0  0
  -25.8980  -15.4286   17.7656 C   0  0  0  0  0  0  0  0  0  0  0  0
  -29.6792  -25.6784   18.8095 C   0  0  0  0  0  0  0  0  0  0  0  0
  -24.1077  -29.0395   20.1639 C   0  0  0  0  0  0  0  0  0  0  0  0
  -28.4841  -25.8437   19.5354 C   0  0  0  0  0  0  0  0  0  0  0  0
  -23.6343  -29.2120   21.4725 C   0  0  0  0  0  0  0  0  0  0  0  0
  -20.8759  -21.2938   19.6443 C   0  0  0  0  0  0  0  0  0  0  0  0
  -24.9237  -11.9136   21.4765 C   0  0  0  0  0  0  0  0  0  0  0  0
  -21.6400  -27.9428   20.9051 C   0  0  0  0  0  0  0  0  0  0  0  0
  -23.9825   -9.7702   21.6813 C   0  0  0  0  0  0  0  0  0  0  0  0
  -22.4819   -7.6958   20.5732 C   0  0  0  0  0  0  0  0  0  0  0  0
  -19.8434  -20.5211   19.1125 C   0  0  0  0  0  0  0  0  0  0  0  0
  -24.4082   -9.1525   20.5053 C   0  0  0  0  0  0  0  0  0  0  0  0
  -25.5341  -15.3768   19.1246 C   0  0  0  0  0  0  0  0  0  0  0  0
  -25.9664  -16.7702   17.4793 C   0  0  0  0  0  0  0  0  0  0  0  0
  -18.9383  -23.9729   21.4437 C   0  0  0  0  0  0  0  0  0  0  0  0
  -26.1514  -14.3596   16.8444 C   0  0  0  0  0  0  0  0  0  0  0  0
  -26.9968  -28.6458   21.4297 C   0  0  0  0  0  0  0  0  0  0  0  0
  -26.3826  -31.5413   22.7570 C   0  0  0  0  0  0  0  0  0  0  0  0
  -24.0633  -33.8277   23.7767 C   0  0  0  0  0  0  0  0  0  0  0  0
  -23.3674  -21.5916   19.8678 C   0  0  0  0  0  0  0  0  0  0  0  0
  -30.9779  -26.2921   19.2693 C   0  0  0  0  0  0  0  0  0  0  0  0
  -25.4163  -29.6486   19.7408 C   0  0  0  0  0  0  0  0  0  0  0  0
  -24.4200  -29.9759   22.5058 C   0  0  0  0  0  0  0  0  0  0  0  0
  -30.7942  -27.4181   20.2834 C   0  0  0  0  0  0  0  0  0  0  0  0
  -26.8629  -20.9984   19.5416 C   0  0  0  0  0  0  0  0  0  0  0  0
  -29.8043  -27.0039   21.3676 C   0  0  0  0  0  0  0  0  0  0  0  0
  -26.9516  -19.4952   19.2679 C   0  0  0  0  0  0  0  0  0  0  0  0
  -25.7477  -21.3297   20.5316 C   0  0  0  0  0  0  0  0  0  0  0  0
  -24.5152  -19.2901   19.9072 C   0  0  0  0  0  0  0  0  0  0  0  0
  -28.4215  -26.7153   20.7709 C   0  0  1  0  0  0  0  0  0  0  0  0
  -26.3620  -29.9047   20.9101 C   0  0  1  0  0  0  0  0  0  0  0  0
  -25.5819  -18.9139   18.8660 C   0  0  2  0  0  0  0  0  0  0  0  0
  -23.8638  -36.0833   24.8582 C   0  0  0  0  0  0  0  0  0  0  0  0
  -27.0276  -30.2962   25.4669 C   0  0  0  0  0  0  0  0  0  0  0  0
  -25.9159  -32.2581   26.5547 C   0  0  0  0  0  0  0  0  0  0  0  0
  -27.9379  -32.6018   25.1349 C   0  0  0  0  0  0  0  0  0  0  0  0
  -22.7067  -34.9720   21.4083 C   0  0  0  0  0  0  0  0  0  0  0  0
  -19.3258  -25.8451   22.7145 C   0  0  0  0  0  0  0  0  0  0  0  0
  -20.2996  -27.0063   22.6320 C   0  0  0  0  0  0  0  0  0  1  0  0
  -25.7374  -32.0155   24.0367 C   0  0  1  0  0  0  0  0  0  0  0  0
  -23.9536  -35.3238   23.5438 C   0  0  2  0  0  0  0  0  0  0  0  0
  -26.6406  -31.7768   25.2796 C   0  0  0  0  0  0  0  0  0  0  0  0
  -25.3821  -16.5891   19.6642 N   0  0  0  0  0  0  0  0  0  0  0  0
  -19.8605  -24.7142   21.9513 N   0  0  0  0  0  0  0  0  0  0  0  0
  -25.6519  -17.4153   18.6391 N   0  0  0  0  0  0  0  0  0  0  0  0
  -25.6963  -30.5472   22.0452 N   0  0  0  0  0  0  0  0  0  0  0  0
  -24.4795  -20.7504   20.0834 N   0  0  0  0  0  0  0  0  0  0  0  0
  -26.2643  -17.4491   16.3512 N   0  0  0  0  0  0  0  0  0  0  0  0
  -26.0364  -13.0404   17.3037 N   0  0  0  0  0  0  0  0  0  0  0  0
  -22.2262  -20.9329   19.4114 N   0  0  0  0  0  0  0  0  0  0  0  0
  -27.7268  -27.9520   20.4836 N   0  0  0  0  0  0  0  0  0  0  0  0
  -25.3774  -33.4124   23.8191 N   0  0  0  0  0  0  0  0  0  0  0  0
  -22.7395  -35.6348   22.7374 N   0  3  0  0  0  0  0  0  0  0  0  0
  -26.4864  -14.5680   15.6537 O   0  0  0  0  0  0  0  0  0  0  0  0
  -26.8372  -28.3283   22.6025 O   0  0  0  0  0  0  0  0  0  0  0  0
  -27.4524  -32.0397   22.3983 O   0  0  0  0  0  0  0  0  0  0  0  0
  -23.0815  -33.1008   23.9114 O   0  0  0  0  0  0  0  0  0  0  0  0
  -23.4313  -22.8105   20.0469 O   0  0  0  0  0  0  0  0  0  0  0  0
  -24.7267  -10.7994   22.2330 O   0  0  0  0  0  0  0  0  0  0  0  0
  -20.4434  -27.4073   21.2701 O   0  0  0  0  0  0  0  0  0  1  0  0
  -21.7621   -6.6988   20.0421 F   0  0  0  0  0  0  0  0  0  0  0  0
  -20.1162  -19.4337   18.3776 F   0  0  0  0  0  0  0  0  0  0  0  0
  -25.5377   -9.5504   19.9038 F   0  0  0  0  0  0  0  0  0  0  0  0
  1  2  1  0  0  0  0
  1  6  2  0  0  0  0
  2  7  2  0  0  0  0
  3  9  2  0  0  0  0
  3 18  1  0  0  0  0
  4 10  1  0  0  0  0
  4 18  2  0  0  0  0
  5 13  2  0  0  0  0
  5 19  1  0  0  0  0
  6 21  1  0  0  0  0
  7 23  1  0  0  0  0
  8 11  2  0  0  0  0
  8 22  1  0  0  0  0
  9 26  1  0  0  0  0
 10 26  2  0  0  0  0
 11 27  1  0  0  0  0
 12 14  2  0  0  0  0
 12 28  1  0  0  0  0
 13 30  1  0  0  0  0
 14 29  1  0  0  0  0
 15 19  2  0  0  0  0
 15 25  1  0  0  0  0
 16 24  1  0  0  0  0
 16 27  2  0  0  0  0
 17 29  2  0  0  0  0
 17 31  1  0  0  0  0
 18 32  1  0  0  0  0
 19 34  1  0  0  0  0
 20 32  1  0  0  0  0
 20 33  2  0  0  0  0
 20 35  1  0  0  0  0
 21 23  2  0  0  0  0
 21 40  1  0  0  0  0
 22 24  2  0  0  0  0
 22 41  1  0  0  0  0
 23 49  1  0  0  0  0
 24 42  1  0  0  0  0
 25 30  2  0  0  0  0
 25 69  1  0  0  0  0
 26 78  1  0  0  0  0
 27 79  1  0  0  0  0
 28 31  2  0  0  0  0
 28 78  1  0  0  0  0
 29 80  1  0  0  0  0
 30 81  1  0  0  0  0
 31 82  1  0  0  0  0
 32 62  2  0  0  0  0
 33 64  1  0  0  0  0
 33 67  1  0  0  0  0
 34 63  2  0  0  0  0
 35 68  1  0  0  0  0
 35 73  2  0  0  0  0
 36 50  1  0  0  0  0
 36 70  1  0  0  0  0
 36 74  2  0  0  0  0
 37 59  1  0  0  0  0
 37 65  1  0  0  0  0
 37 75  2  0  0  0  0
 38 60  1  0  0  0  0
 38 71  1  0  0  0  0
 38 76  2  0  0  0  0
 39 66  1  0  0  0  0
 39 69  1  0  0  0  0
 39 77  2  0  0  0  0
 40 43  1  0  0  0  0
 41 50  1  0  0  0  0
 42 65  1  0  0  0  0
 43 45  1  0  0  0  0
 44 46  1  0  0  0  0
 44 47  1  0  0  0  0
 45 49  1  0  0  0  0
 46 51  1  0  0  0  0
 47 66  1  0  0  0  0
 48 51  1  0  0  0  0
 48 66  1  0  0  0  0
 49 70  1  0  0  0  0
 50 65  1  0  0  0  0
 51 64  1  0  0  0  0
 52 60  1  0  0  0  0
 53 61  1  0  0  0  0
 54 61  1  0  0  0  0
 55 61  1  0  0  0  0
 56 72  1  0  0  0  0
 57 58  1  0  0  0  0
 57 63  1  0  0  0  0
 58 79  1  0  0  0  0
 59 61  1  0  0  0  0
 59 71  1  0  0  0  0
 60 72  1  0  0  0  0
 62 64  1  0  0  0  0
M  CHG  1  72   1
M  ISO  4  39 100  58 101  69 100  79 101
M  END
> <Batch ID>
0066

> <Smiles>
CNC(C)C(=O)NC(C(=O)N1Cc2cc([101O:1][101CH2:1]CN=Cc3ccc(F)c([100NH:0][100C:0](=O)N4CCCC(n5nc(-c6ccc(Oc7ccc(F)cc7F)cc6)c(C(N)=O)c5N)C4)c3)ccc2CC1C(=O)NC1CCCc2ccccc21)C(C)(C)C

> <Shape>
0.272

> <Color>
0.085

> <Negative vol penalty>
0.000

$$$$

  -OEChem-04042323213D

 90 99  0     1  0  0  0  0  0999 V2000
  -29.5268  -34.2272   25.6173 C   0  0  0  0  0  0  0  0  0  0  0  0
  -29.6183  -33.0485   24.8840 C   0  0  0  0  0  0  0  0  0  0  0  0
  -24.6592   -8.9042   21.5676 C   0  0  0  0  0  0  0  0  0  0  0  0
  -23.1453  -10.3920   20.4137 C   0  0  0  0  0  0  0  0  0  0  0  0
  -28.3175  -34.5849   26.2119 C   0  0  0  0  0  0  0  0  0  0  0  0
  -28.5007  -32.2262   24.7458 C   0  0  0  0  0  0  0  0  0  0  0  0
  -26.9927  -28.8541   19.8610 C   0  0  0  0  0  0  0  0  0  0  0  0
  -23.6261   -8.5136   22.4195 C   0  0  0  0  0  0  0  0  0  0  0  0
  -22.1121  -10.0013   21.2655 C   0  0  0  0  0  0  0  0  0  0  0  0
  -27.1664  -27.5030   19.5641 C   0  0  0  0  0  0  0  0  0  0  0  0
  -20.9570   -6.4407   22.3106 C   0  0  0  0  0  0  0  0  0  0  0  0
  -20.8112   -5.0780   22.5703 C   0  0  0  0  0  0  0  0  0  0  0  0
  -25.5609  -20.0233   17.9988 C   0  0  0  0  0  0  0  0  0  0  0  0
  -25.5823  -17.6357   17.6299 C   0  0  0  0  0  0  0  0  0  0  0  0
  -24.9276  -27.0508   20.3403 C   0  0  0  0  0  0  0  0  0  0  0  0
  -27.4150  -18.6945   18.7950 C   0  0  0  0  0  0  0  0  0  0  0  0
  -21.1519   -5.4907   24.9264 C   0  0  0  0  0  0  0  0  0  0  0  0
  -24.4189   -9.8435   20.5647 C   0  0  0  0  0  0  0  0  0  0  0  0
  -24.9572  -18.8745   17.4875 C   0  0  0  0  0  0  0  0  0  0  0  0
  -25.8438   -9.6599   18.4568 C   0  0  0  0  0  0  0  0  0  0  0  0
  -27.1819  -33.7713   26.0728 C   0  0  0  0  0  0  0  0  0  0  0  0
  -25.7870  -29.3127   20.4109 C   0  0  0  0  0  0  0  0  0  0  0  0
  -27.2754  -32.5726   25.3402 C   0  0  0  0  0  0  0  0  0  0  0  0
  -24.7402  -28.4086   20.6410 C   0  0  0  0  0  0  0  0  0  0  0  0
  -26.7899  -19.9333   18.6525 C   0  0  0  0  0  0  0  0  0  0  0  0
  -26.8113  -17.5457   18.2837 C   0  0  0  0  0  0  0  0  0  0  0  0
  -22.3526   -9.0621   22.2684 C   0  0  0  0  0  0  0  0  0  0  0  0
  -26.1348  -26.6007   19.8064 C   0  0  0  0  0  0  0  0  0  0  0  0
  -21.2004   -7.3284   23.3587 C   0  0  0  0  0  0  0  0  0  0  0  0
  -20.9086   -4.6030   23.8782 C   0  0  0  0  0  0  0  0  0  0  0  0
  -21.2978   -6.8534   24.6666 C   0  0  0  0  0  0  0  0  0  0  0  0
  -25.4858  -10.2478   19.6848 C   0  0  0  0  0  0  0  0  0  0  0  0
  -26.9103  -10.4055   18.0172 C   0  0  0  0  0  0  0  0  0  0  0  0
  -28.6379  -21.1779   19.8555 C   0  0  0  0  0  0  0  0  0  0  0  0
  -23.6759  -18.9683   16.8061 C   0  0  0  0  0  0  0  0  0  0  0  0
  -25.2642   -8.5401   17.7744 C   0  0  0  0  0  0  0  0  0  0  0  0
  -24.9574  -30.7225   23.1364 C   0  0  0  0  0  0  0  0  0  0  0  0
  -22.0565  -30.9202   21.6983 C   0  0  0  0  0  0  0  0  0  0  0  0
  -21.5641  -20.2828   16.6641 C   0  0  0  0  0  0  0  0  0  0  0  0
  -19.8949  -29.7006   19.3559 C   0  0  0  0  0  0  0  0  0  0  0  0
  -28.6661  -16.0230   19.0500 C   0  0  0  0  0  0  0  0  0  0  0  0
  -25.9089  -34.1758   26.7732 C   0  0  0  0  0  0  0  0  0  0  0  0
  -25.6058  -30.7775   20.7007 C   0  0  0  0  0  0  0  0  0  0  0  0
  -23.4190  -28.8534   21.2111 C   0  0  0  0  0  0  0  0  0  0  0  0
  -28.9226  -22.6376   20.1260 C   0  0  0  0  0  0  0  0  0  0  0  0
  -24.6732  -33.4372   26.2655 C   0  0  0  0  0  0  0  0  0  0  0  0
  -30.5485  -13.0600   19.6455 C   0  0  0  0  0  0  0  0  0  0  0  0
  -24.9539  -31.9422   26.1521 C   0  0  0  0  0  0  0  0  0  0  0  0
  -29.4973  -11.9485   19.6054 C   0  0  0  0  0  0  0  0  0  0  0  0
  -30.0028  -14.3337   20.2887 C   0  0  0  0  0  0  0  0  0  0  0  0
  -26.8386  -22.4295   18.9853 C   0  0  0  0  0  0  0  0  0  0  0  0
  -27.6981  -13.7220   19.6698 C   0  0  0  0  0  0  0  0  0  0  0  0
  -26.0787  -31.6667   25.1468 C   0  0  1  0  0  0  0  0  0  0  0  0
  -24.5204  -31.0518   21.7370 C   0  0  1  0  0  0  0  0  0  0  0  0
  -27.5550  -23.2956   20.0100 C   0  0  2  0  0  0  0  0  0  0  0  0
  -28.1811  -12.4402   18.9718 C   0  0  2  0  0  0  0  0  0  0  0  0
  -20.9468  -21.5184   17.2627 C   0  0  0  0  0  0  0  0  0  0  0  0
  -17.5837  -30.0433   18.4402 C   0  0  0  0  0  0  0  0  0  0  0  0
  -20.8805  -29.5624   24.1648 C   0  0  0  0  0  0  0  0  0  0  0  0
  -18.8181  -29.0799   22.8299 C   0  0  0  0  0  0  0  0  0  0  0  0
  -19.5044  -31.4407   23.2521 C   0  0  0  0  0  0  0  0  0  0  0  0
  -20.9313  -30.3119   16.6520 C   0  0  0  0  0  0  0  0  0  0  0  0
  -27.6268  -24.7591   19.6102 C   0  0  0  0  0  0  0  0  0  1  0  0
  -20.8361  -30.0345   21.6268 C   0  0  1  0  0  0  0  0  0  0  0  0
  -19.0560  -30.3972   18.2997 C   0  0  2  0  0  0  0  0  0  0  0  0
  -20.0352  -30.0204   22.9595 C   0  0  0  0  0  0  0  0  0  0  0  0
  -26.2619  -11.2866   20.0049 N   0  0  0  0  0  0  0  0  0  0  0  0
  -27.1183  -11.3573   18.9716 N   0  0  0  0  0  0  0  0  0  0  0  0
  -27.4075  -21.1085   19.1756 N   0  0  0  0  0  0  0  0  0  0  0  0
  -23.2928  -30.2947   21.4837 N   0  0  0  0  0  0  0  0  0  0  0  0
  -28.7578  -14.7420   19.6345 N   0  0  0  0  0  0  0  0  0  0  0  0
  -27.6811  -10.3332   16.9113 N   0  0  0  0  0  0  0  0  0  0  0  0
  -24.1737   -7.8884   18.3664 N   0  0  0  0  0  0  0  0  0  0  0  0
  -27.4459  -16.2872   18.4287 N   0  0  0  0  0  0  0  0  0  0  0  0
  -22.8373  -20.0364   17.1758 N   0  0  0  0  0  0  0  0  0  0  0  0
  -25.5811  -31.7671   23.7916 N   0  0  0  0  0  0  0  0  0  0  0  0
  -20.0681  -30.4900   20.4730 N   0  0  0  0  0  0  0  0  0  0  0  0
  -19.5067  -30.0005   16.9357 N   0  3  0  0  0  0  0  0  0  0  0  0
  -29.4228  -20.2900   20.1561 O   0  0  0  0  0  0  0  0  0  0  0  0
  -23.3492  -18.1168   15.9610 O   0  0  0  0  0  0  0  0  0  0  0  0
  -25.7107   -8.1193   16.6803 O   0  0  0  0  0  0  0  0  0  0  0  0
  -24.7431  -29.6039   23.5888 O   0  0  0  0  0  0  0  0  0  0  0  0
  -21.9174  -32.1240   21.9287 O   0  0  0  0  0  0  0  0  0  0  0  0
  -20.9823  -19.6102   15.8175 O   0  0  0  0  0  0  0  0  0  0  0  0
  -20.3477  -28.5679   19.2065 O   0  0  0  0  0  0  0  0  0  0  0  0
  -29.6107  -16.8162   19.0735 O   0  0  0  0  0  0  0  0  0  0  0  0
  -21.3441   -8.6810   23.0993 O   0  0  0  0  0  0  0  0  0  0  0  0
  -26.3020  -25.2813   19.5181 O   0  0  0  0  0  0  0  0  0  1  0  0
  -20.7670   -3.2946   24.1277 F   0  0  0  0  0  0  0  0  0  0  0  0
  -21.5302   -7.7015   25.6778 F   0  0  0  0  0  0  0  0  0  0  0  0
  1  2  1  0  0  0  0
  1  5  2  0  0  0  0
  2  6  2  0  0  0  0
  3  8  2  0  0  0  0
  3 18  1  0  0  0  0
  4  9  1  0  0  0  0
  4 18  2  0  0  0  0
  5 21  1  0  0  0  0
  6 23  1  0  0  0  0
  7 10  2  0  0  0  0
  7 22  1  0  0  0  0
  8 27  1  0  0  0  0
  9 27  2  0  0  0  0
 10 28  1  0  0  0  0
 11 12  2  0  0  0  0
 11 29  1  0  0  0  0
 12 30  1  0  0  0  0
 13 19  1  0  0  0  0
 13 25  2  0  0  0  0
 14 19  2  0  0  0  0
 14 26  1  0  0  0  0
 15 24  1  0  0  0  0
 15 28  2  0  0  0  0
 16 25  1  0  0  0  0
 16 26  2  0  0  0  0
 17 30  2  0  0  0  0
 17 31  1  0  0  0  0
 18 32  1  0  0  0  0
 19 35  1  0  0  0  0
 20 32  1  0  0  0  0
 20 33  2  0  0  0  0
 20 36  1  0  0  0  0
 21 23  2  0  0  0  0
 21 42  1  0  0  0  0
 22 24  2  0  0  0  0
 22 43  1  0  0  0  0
 23 53  1  0  0  0  0
 24 44  1  0  0  0  0
 25 69  1  0  0  0  0
 26 74  1  0  0  0  0
 27 87  1  0  0  0  0
 28 88  1  0  0  0  0
 29 31  2  0  0  0  0
 29 87  1  0  0  0  0
 30 89  1  0  0  0  0
 31 90  1  0  0  0  0
 32 67  2  0  0  0  0
 33 68  1  0  0  0  0
 33 72  1  0  0  0  0
 34 45  1  0  0  0  0
 34 69  1  0  0  0  0
 34 79  2  0  0  0  0
 35 75  1  0  0  0  0
 35 80  2  0  0  0  0
 36 73  1  0  0  0  0
 36 81  2  0  0  0  0
 37 54  1  0  0  0  0
 37 76  1  0  0  0  0
 37 82  2  0  0  0  0
 38 64  1  0  0  0  0
 38 70  1  0  0  0  0
 38 83  2  0  0  0  0
 39 57  1  0  0  0  0
 39 75  1  0  0  0  0
 39 84  2  0  0  0  0
 40 65  1  0  0  0  0
 40 77  1  0  0  0  0
 40 85  2  0  0  0  0
 41 71  1  0  0  0  0
 41 74  1  0  0  0  0
 41 86  2  0  0  0  0
 42 46  1  0  0  0  0
 43 54  1  0  0  0  0
 44 70  1  0  0  0  0
 45 55  1  0  0  0  0
 46 48  1  0  0  0  0
 47 49  1  0  0  0  0
 47 50  1  0  0  0  0
 48 53  1  0  0  0  0
 49 56  1  0  0  0  0
 50 71  1  0  0  0  0
 51 55  1  0  0  0  0
 51 69  1  0  0  0  0
 52 56  1  0  0  0  0
 52 71  1  0  0  0  0
 53 76  1  0  0  0  0
 54 70  1  0  0  0  0
 55 63  1  0  0  0  0
 56 68  1  0  0  0  0
 58 65  1  0  0  0  0
 59 66  1  0  0  0  0
 60 66  1  0  0  0  0
 61 66  1  0  0  0  0
 62 78  1  0  0  0  0
 63 88  1  0  0  0  0
 64 66  1  0  0  0  0
 64 77  1  0  0  0  0
 65 78  1  0  0  0  0
 67 68  1  0  0  0  0
M  CHG  1  78   1
M  ISO  4  41 100  63 101  74 100  88 101
M  END
> <Batch ID>
0066

> <Smiles>
CNC(C)C(=O)NC(C(=O)N1Cc2cc([101O:1][101CH2:1]C3CC(=O)N(c4cc([100NH:0][100C:0](=O)N5CCCC(n6nc(-c7ccc(Oc8ccc(F)cc8F)cc7)c(C(N)=O)c6N)C5)cc(C(=O)NC(C)=O)c4)C3)ccc2CC1C(=O)NC1CCCc2ccccc21)C(C)(C)C

> <Shape>
0.294

> <Color>
0.102

> <Negative vol penalty>
0.000

$$$$

  -OEChem-04042323213D

 86 95  0     1  0  0  0  0  0999 V2000
  -41.8024  -29.9605   23.5293 C   0  0  0  0  0  0  0  0  0  0  0  0
  -41.5824  -28.5921   23.6498 C   0  0  0  0  0  0  0  0  0  0  0  0
  -23.0849   -9.8574   19.9485 C   0  0  0  0  0  0  0  0  0  0  0  0
  -23.8389   -9.8821   22.2437 C   0  0  0  0  0  0  0  0  0  0  0  0
  -40.7300  -30.8477   23.6111 C   0  0  0  0  0  0  0  0  0  0  0  0
  -40.2898  -28.1102   23.8532 C   0  0  0  0  0  0  0  0  0  0  0  0
  -37.9315  -22.8795   21.7121 C   0  0  0  0  0  0  0  0  0  0  0  0
  -30.4308  -18.3864   24.0142 C   0  0  0  0  0  0  0  0  0  0  0  0
  -29.8499  -17.4935   23.1138 C   0  0  0  0  0  0  0  0  0  0  0  0
  -22.3448   -8.7031   20.2040 C   0  0  0  0  0  0  0  0  0  0  0  0
  -23.0988   -8.7278   22.4992 C   0  0  0  0  0  0  0  0  0  0  0  0
  -37.7494  -21.6254   22.2934 C   0  0  0  0  0  0  0  0  0  0  0  0
  -19.8722   -7.9215   23.0987 C   0  0  0  0  0  0  0  0  0  0  0  0
  -19.1124   -7.8862   24.2679 C   0  0  0  0  0  0  0  0  0  0  0  0
  -35.4750  -22.2153   22.8393 C   0  0  0  0  0  0  0  0  0  0  0  0
  -32.0395  -16.6512   22.5364 C   0  0  0  0  0  0  0  0  0  0  0  0
  -20.3593   -5.9583   25.0200 C   0  0  0  0  0  0  0  0  0  0  0  0
  -23.8320  -10.4470   20.9683 C   0  0  0  0  0  0  0  0  0  0  0  0
  -24.1645  -12.9726   20.8328 C   0  0  0  0  0  0  0  0  0  0  0  0
  -39.4223  -30.3757   23.8060 C   0  0  0  0  0  0  0  0  0  0  0  0
  -36.8882  -23.8165   21.6997 C   0  0  0  0  0  0  0  0  0  0  0  0
  -39.1990  -28.9920   23.9390 C   0  0  0  0  0  0  0  0  0  0  0  0
  -35.6455  -23.4797   22.2550 C   0  0  0  0  0  0  0  0  0  0  0  0
  -31.8161  -18.4118   24.1757 C   0  0  0  0  0  0  0  0  0  0  0  0
  -32.6204  -17.5442   23.4368 C   0  0  0  0  0  0  0  0  0  0  0  0
  -30.6542  -16.6259   22.3749 C   0  0  0  0  0  0  0  0  0  0  0  0
  -22.3517   -8.1382   21.4794 C   0  0  0  0  0  0  0  0  0  0  0  0
  -36.5219  -21.2942   22.8597 C   0  0  0  0  0  0  0  0  0  0  0  0
  -20.8755   -6.9751   22.8901 C   0  0  0  0  0  0  0  0  0  0  0  0
  -19.3560   -6.9046   25.2286 C   0  0  0  0  0  0  0  0  0  0  0  0
  -21.1191   -5.9936   23.8507 C   0  0  0  0  0  0  0  0  0  0  0  0
  -24.5972  -11.6391   20.7048 C   0  0  0  0  0  0  0  0  0  0  0  0
  -25.2547  -13.7239   20.4675 C   0  0  0  0  0  0  0  0  0  0  0  0
  -34.7096  -17.3156   24.7258 C   0  0  0  0  0  0  0  0  0  0  0  0
  -36.0306  -17.3767   24.5222 C   0  0  0  0  0  0  0  0  0  0  0  0
  -36.8985  -17.5798   26.7585 C   0  0  0  0  0  0  0  0  0  0  0  0
  -37.0488  -17.1320   25.4935 C   0  0  0  0  0  0  0  0  0  0  0  0
  -22.8910  -13.4862   21.2452 C   0  0  0  0  0  0  0  0  0  0  0  0
  -36.4680  -26.7217   22.9191 C   0  0  0  0  0  0  0  0  0  0  0  0
  -33.7062  -26.6100   21.2213 C   0  0  0  0  0  0  0  0  0  0  0  0
  -31.2877  -24.7078   19.7452 C   0  0  0  0  0  0  0  0  0  0  0  0
  -30.7164  -14.7916   20.6492 C   0  0  0  0  0  0  0  0  0  0  0  0
  -38.3012  -31.3762   23.9351 C   0  0  0  0  0  0  0  0  0  0  0  0
  -37.0923  -25.1552   21.0450 C   0  0  0  0  0  0  0  0  0  0  0  0
  -34.4873  -24.4425   22.2494 C   0  0  0  0  0  0  0  0  0  0  0  0
  -36.9136  -30.7598   23.7774 C   0  0  0  0  0  0  0  0  0  0  0  0
  -29.6172  -12.3583   18.2938 C   0  0  0  0  0  0  0  0  0  0  0  0
  -36.7990  -29.4838   24.6053 C   0  0  0  0  0  0  0  0  0  0  0  0
  -28.1776  -12.0639   18.7216 C   0  0  0  0  0  0  0  0  0  0  0  0
  -30.5284  -12.5983   19.4963 C   0  0  0  0  0  0  0  0  0  0  0  0
  -34.8938  -17.8072   22.4520 C   0  0  0  0  0  0  0  0  0  0  0  0
  -28.6152  -13.3244   20.8680 C   0  0  0  0  0  0  0  0  0  0  0  0
  -37.8082  -28.4290   24.1356 C   0  0  1  0  0  0  0  0  0  0  0  0
  -36.3175  -17.7026   23.0751 C   0  0  1  0  0  0  0  0  0  0  0  0
  -36.1211  -26.2197   21.5461 C   0  0  1  0  0  0  0  0  0  0  0  0
  -27.6460  -13.1398   19.6889 C   0  0  2  0  0  0  0  0  0  0  0  0
  -32.4116  -19.3781   25.1472 C   0  0  0  0  0  0  0  0  0  0  0  0
  -29.1366  -24.9002   18.4672 C   0  0  0  0  0  0  0  0  0  0  0  0
  -32.2370  -27.3044   23.8037 C   0  0  0  0  0  0  0  0  0  0  0  0
  -30.1109  -26.5572   22.7130 C   0  0  0  0  0  0  0  0  0  0  0  0
  -31.3848  -28.4832   21.7694 C   0  0  0  0  0  0  0  0  0  0  0  0
  -32.4284  -23.3253   17.3900 C   0  0  0  0  0  0  0  0  0  0  0  0
  -37.0972  -18.9868   22.8897 C   0  0  0  0  0  0  0  0  0  1  0  0
  -32.2985  -26.1413   21.4995 C   0  0  1  0  0  0  0  0  0  0  0  0
  -30.6495  -24.7795   18.3697 C   0  0  2  0  0  0  0  0  0  0  0  0
  -31.5300  -27.1039   22.4484 C   0  0  0  0  0  0  0  0  0  0  0  0
  -25.8635  -11.5454   20.2904 N   0  0  0  0  0  0  0  0  0  0  0  0
  -26.2358  -12.8296   20.1547 N   0  0  0  0  0  0  0  0  0  0  0  0
  -33.9846  -17.5568   23.5829 N   0  0  0  0  0  0  0  0  0  0  0  0
  -34.7383  -25.7412   21.6031 N   0  0  0  0  0  0  0  0  0  0  0  0
  -29.9632  -13.6327   20.3655 N   0  0  0  0  0  0  0  0  0  0  0  0
  -25.4602  -15.0557   20.3864 N   0  0  0  0  0  0  0  0  0  0  0  0
  -21.8817  -12.5753   21.5858 N   0  0  0  0  0  0  0  0  0  0  0  0
  -30.0634  -15.7194   21.4600 N   0  0  0  0  0  0  0  0  0  0  0  0
  -37.3440  -27.7903   22.9227 N   0  0  0  0  0  0  0  0  0  0  0  0
  -31.6659  -25.9539   20.1983 N   0  0  0  0  0  0  0  0  0  0  0  0
  -30.9735  -23.5554   17.5838 N   0  3  0  0  0  0  0  0  0  0  0  0
  -22.6499  -14.7162   21.2940 O   0  0  0  0  0  0  0  0  0  0  0  0
  -35.9760  -26.1806   23.9024 O   0  0  0  0  0  0  0  0  0  0  0  0
  -33.8834  -27.7035   20.6785 O   0  0  0  0  0  0  0  0  0  0  0  0
  -31.4326  -23.6523   20.3580 O   0  0  0  0  0  0  0  0  0  0  0  0
  -31.8460  -14.9616   20.1834 O   0  0  0  0  0  0  0  0  0  0  0  0
  -21.6295   -7.0120   21.7291 O   0  0  0  0  0  0  0  0  0  0  0  0
  -36.3418  -20.0711   23.4283 O   0  0  0  0  0  0  0  0  0  1  0  0
  -18.6273   -6.8718   26.3521 F   0  0  0  0  0  0  0  0  0  0  0  0
  -22.0824   -5.0825   23.6565 F   0  0  0  0  0  0  0  0  0  0  0  0
  1  2  1  0  0  0  0
  1  5  2  0  0  0  0
  2  6  2  0  0  0  0
  3 10  2  0  0  0  0
  3 18  1  0  0  0  0
  4 11  1  0  0  0  0
  4 18  2  0  0  0  0
  5 20  1  0  0  0  0
  6 22  1  0  0  0  0
  7 12  2  0  0  0  0
  7 21  1  0  0  0  0
  8  9  2  0  0  0  0
  8 24  1  0  0  0  0
  9 26  1  0  0  0  0
 10 27  1  0  0  0  0
 11 27  2  0  0  0  0
 12 28  1  0  0  0  0
 13 14  2  0  0  0  0
 13 29  1  0  0  0  0
 14 30  1  0  0  0  0
 15 23  1  0  0  0  0
 15 28  2  0  0  0  0
 16 25  1  0  0  0  0
 16 26  2  0  0  0  0
 17 30  2  0  0  0  0
 17 31  1  0  0  0  0
 18 32  1  0  0  0  0
 19 32  1  0  0  0  0
 19 33  2  0  0  0  0
 19 38  1  0  0  0  0
 20 22  2  0  0  0  0
 20 43  1  0  0  0  0
 21 23  2  0  0  0  0
 21 44  1  0  0  0  0
 22 53  1  0  0  0  0
 23 45  1  0  0  0  0
 24 25  2  0  0  0  0
 24 57  1  0  0  0  0
 25 69  1  0  0  0  0
 26 74  1  0  0  0  0
 27 83  1  0  0  0  0
 28 84  1  0  0  0  0
 29 31  2  0  0  0  0
 29 83  1  0  0  0  0
 30 85  1  0  0  0  0
 31 86  1  0  0  0  0
 32 67  2  0  0  0  0
 33 68  1  0  0  0  0
 33 72  1  0  0  0  0
 34 35  2  0  0  0  0
 34 69  1  0  0  0  0
 35 37  1  0  0  0  0
 35 54  1  0  0  0  0
 36 37  2  0  0  0  0
 38 73  1  0  0  0  0
 38 78  2  0  0  0  0
 39 55  1  0  0  0  0
 39 75  1  0  0  0  0
 39 79  2  0  0  0  0
 40 64  1  0  0  0  0
 40 70  1  0  0  0  0
 40 80  2  0  0  0  0
 41 65  1  0  0  0  0
 41 76  1  0  0  0  0
 41 81  2  0  0  0  0
 42 71  1  0  0  0  0
 42 74  1  0  0  0  0
 42 82  2  0  0  0  0
 43 46  1  0  0  0  0
 44 55  1  0  0  0  0
 45 70  1  0  0  0  0
 46 48  1  0  0  0  0
 47 49  1  0  0  0  0
 47 50  1  0  0  0  0
 48 53  1  0  0  0  0
 49 56  1  0  0  0  0
 50 71  1  0  0  0  0
 51 54  1  0  0  0  0
 51 69  1  0  0  0  0
 52 56  1  0  0  0  0
 52 71  1  0  0  0  0
 53 75  1  0  0  0  0
 54 63  1  0  0  0  0
 55 70  1  0  0  0  0
 56 68  1  0  0  0  0
 58 65  1  0  0  0  0
 59 66  1  0  0  0  0
 60 66  1  0  0  0  0
 61 66  1  0  0  0  0
 62 77  1  0  0  0  0
 63 84  1  0  0  0  0
 64 66  1  0  0  0  0
 64 76  1  0  0  0  0
 65 77  1  0  0  0  0
 67 68  1  0  0  0  0
M  CHG  1  77   1
M  ISO  4  42 100  63 101  74 100  84 101
M  END
> <Batch ID>
0066

> <Smiles>
C=CC1=CN(c2cc([100NH:0][100C:0](=O)N3CCCC(n4nc(-c5ccc(Oc6ccc(F)cc6F)cc5)c(C(N)=O)c4N)C3)ccc2C)CC1[101CH2:1][101O:1]c1ccc2c(c1)CN(C(=O)C(NC(=O)C(C)NC)C(C)(C)C)C(C(=O)NC1CCCc3ccccc31)C2

> <Shape>
0.201

> <Color>
0.192

> <Negative vol penalty>
0.000

$$$$

  -OEChem-04042323213D

 89 98  0     1  0  0  0  0  0999 V2000
  -17.4811  -29.9682   19.5961 C   0  0  0  0  0  0  0  0  0  0  0  0
  -18.5307  -29.0663   19.4536 C   0  0  0  0  0  0  0  0  0  0  0  0
  -23.3554   -9.7119   21.4603 C   0  0  0  0  0  0  0  0  0  0  0  0
  -24.0856  -10.7172   23.5323 C   0  0  0  0  0  0  0  0  0  0  0  0
  -17.0601  -30.3506   20.8691 C   0  0  0  0  0  0  0  0  0  0  0  0
  -19.1608  -28.5473   20.5841 C   0  0  0  0  0  0  0  0  0  0  0  0
  -21.4830  -22.9192   21.2467 C   0  0  0  0  0  0  0  0  0  0  0  0
  -22.7461   -8.6808   22.1753 C   0  0  0  0  0  0  0  0  0  0  0  0
  -23.4762   -9.6861   24.2473 C   0  0  0  0  0  0  0  0  0  0  0  0
  -22.7812  -22.4219   21.1421 C   0  0  0  0  0  0  0  0  0  0  0  0
  -23.6920   -5.8389   23.7415 C   0  0  0  0  0  0  0  0  0  0  0  0
  -23.8862   -4.5341   23.2883 C   0  0  0  0  0  0  0  0  0  0  0  0
  -23.0406  -22.6133   23.5328 C   0  0  0  0  0  0  0  0  0  0  0  0
  -30.6859  -20.4535   20.0113 C   0  0  0  0  0  0  0  0  0  0  0  0
  -31.2134  -18.1238   19.6494 C   0  0  0  0  0  0  0  0  0  0  0  0
  -21.5022   -4.2841   22.9865 C   0  0  0  0  0  0  0  0  0  0  0  0
  -24.0252  -10.7301   22.1388 C   0  0  0  0  0  0  0  0  0  0  0  0
  -24.0765  -13.0180   21.0117 C   0  0  0  0  0  0  0  0  0  0  0  0
  -17.6790  -29.8286   22.0159 C   0  0  0  0  0  0  0  0  0  0  0  0
  -20.9567  -23.2782   22.4960 C   0  0  0  0  0  0  0  0  0  0  0  0
  -18.7486  -28.9241   21.8736 C   0  0  0  0  0  0  0  0  0  0  0  0
  -21.7345  -23.1125   23.6508 C   0  0  0  0  0  0  0  0  0  0  0  0
  -31.5644  -19.4706   19.5558 C   0  0  0  0  0  0  0  0  0  0  0  0
  -29.4563  -20.0898   20.5605 C   0  0  0  0  0  0  0  0  0  0  0  0
  -29.9837  -17.7601   20.1985 C   0  0  0  0  0  0  0  0  0  0  0  0
  -22.8065   -8.6679   23.5688 C   0  0  0  0  0  0  0  0  0  0  0  0
  -23.5613  -22.2716   22.2849 C   0  0  0  0  0  0  0  0  0  0  0  0
  -22.4029   -6.3663   23.8173 C   0  0  0  0  0  0  0  0  0  0  0  0
  -22.7914   -3.7567   22.9107 C   0  0  0  0  0  0  0  0  0  0  0  0
  -21.3080   -5.5889   23.4398 C   0  0  0  0  0  0  0  0  0  0  0  0
  -29.1052  -18.7431   20.6540 C   0  0  0  0  0  0  0  0  0  0  0  0
  -24.6553  -11.7952   21.4008 C   0  0  0  0  0  0  0  0  0  0  0  0
  -25.0792  -13.6744   20.3408 C   0  0  0  0  0  0  0  0  0  0  0  0
  -28.4352  -22.4098   20.5256 C   0  0  0  0  0  0  0  0  0  0  0  0
  -22.7510  -13.5160   21.2367 C   0  0  0  0  0  0  0  0  0  0  0  0
  -19.8945  -25.9802   23.7901 C   0  0  0  0  0  0  0  0  0  0  0  0
  -19.0788  -24.0259   26.2472 C   0  0  0  0  0  0  0  0  0  0  0  0
  -19.6075  -21.0978   27.9187 C   0  0  0  0  0  0  0  0  0  0  0  0
  -30.3874  -15.2931   19.8864 C   0  0  0  0  0  0  0  0  0  0  0  0
  -17.2203  -30.3080   23.3703 C   0  0  0  0  0  0  0  0  0  0  0  0
  -19.5451  -23.7880   22.5949 C   0  0  0  0  0  0  0  0  0  0  0  0
  -21.2092  -23.4641   25.0179 C   0  0  0  0  0  0  0  0  0  0  0  0
  -17.6940  -29.4246   24.5216 C   0  0  0  0  0  0  0  0  0  0  0  0
  -29.5818  -12.0283   18.7162 C   0  0  0  0  0  0  0  0  0  0  0  0
  -19.1766  -29.0995   24.3699 C   0  0  0  0  0  0  0  0  0  0  0  0
  -28.1806  -11.7772   19.2783 C   0  0  0  0  0  0  0  0  0  0  0  0
  -30.4521  -12.8165   19.6935 C   0  0  0  0  0  0  0  0  0  0  0  0
  -27.5908  -20.8424   22.0764 C   0  0  0  0  0  0  0  0  0  0  0  0
  -28.4604  -13.8193   20.7408 C   0  0  0  0  0  0  0  0  0  0  0  0
  -19.4410  -28.3201   23.0761 C   0  0  1  0  0  0  0  0  0  0  0  0
  -27.2636  -23.0548   21.2516 C   0  0  1  0  0  0  0  0  0  0  0  0
  -19.2922  -24.6053   23.8581 C   0  0  1  0  0  0  0  0  0  0  0  0
  -27.1624  -22.2296   22.5353 C   0  0  1  0  0  0  0  0  0  0  0  0
  -27.5261  -13.0849   19.7653 C   0  0  2  0  0  0  0  0  0  0  0  0
  -32.8792  -19.8595   18.9684 C   0  0  0  0  0  0  0  0  0  0  0  0
  -18.8127  -19.7958   29.9113 C   0  0  0  0  0  0  0  0  0  0  0  0
  -28.9184  -24.8136   21.9401 C   0  0  0  0  0  0  0  0  0  0  0  0
  -27.1402  -25.3550   20.2523 C   0  0  0  0  0  0  0  0  0  0  0  0
  -20.6353  -25.8969   28.0875 C   0  0  0  0  0  0  0  0  0  0  0  0
  -20.6155  -24.0928   29.8234 C   0  0  0  0  0  0  0  0  0  0  0  0
  -18.4667  -25.0771   29.0255 C   0  0  0  0  0  0  0  0  0  0  0  0
  -18.7246  -18.8321   26.2317 C   0  0  0  0  0  0  0  0  0  0  0  0
  -25.7740  -22.2365   23.1558 C   0  0  0  0  0  0  0  0  0  1  0  0
  -19.7673  -23.5376   27.4988 C   0  0  1  0  0  0  0  0  0  0  0  0
  -18.6453  -20.0356   28.4189 C   0  0  2  0  0  0  0  0  0  0  0  0
  -27.4790  -24.5380   21.5006 C   0  0  0  0  0  0  0  0  0  0  0  0
  -19.8821  -24.6462   28.5830 C   0  0  0  0  0  0  0  0  0  0  0  0
  -25.9271  -11.6790   21.0096 N   0  0  0  0  0  0  0  0  0  0  0  0
  -26.1557  -12.8373   20.3675 N   0  0  0  0  0  0  0  0  0  0  0  0
  -28.5589  -21.0977   21.0257 N   0  0  0  0  0  0  0  0  0  0  0  0
  -19.8253  -23.9646   25.0620 N   0  0  0  0  0  0  0  0  0  0  0  0
  -29.7695  -14.0441   20.1080 N   0  0  0  0  0  0  0  0  0  0  0  0
  -25.1363  -14.8802   19.7365 N   0  0  0  0  0  0  0  0  0  0  0  0
  -21.8465  -12.7126   21.9443 N   0  0  0  0  0  0  0  0  0  0  0  0
  -29.6298  -16.3913   20.2921 N   0  0  0  0  0  0  0  0  0  0  0  0
  -19.0612  -26.9327   23.2353 N   0  0  0  0  0  0  0  0  0  0  0  0
  -19.0352  -22.3522   27.9315 N   0  0  0  0  0  0  0  0  0  0  0  0
  -18.8796  -18.7477   27.7068 N   0  3  0  0  0  0  0  0  0  0  0  0
  -29.0629  -22.9704   19.6387 O   0  0  0  0  0  0  0  0  0  0  0  0
  -22.3746  -14.6333   20.8082 O   0  0  0  0  0  0  0  0  0  0  0  0
  -21.0306  -26.1636   24.2112 O   0  0  0  0  0  0  0  0  0  0  0  0
  -17.9188  -24.4395   26.3173 O   0  0  0  0  0  0  0  0  0  0  0  0
  -20.7536  -20.8411   27.5566 O   0  0  0  0  0  0  0  0  0  0  0  0
  -31.4945  -15.3833   19.3496 O   0  0  0  0  0  0  0  0  0  0  0  0
  -22.2118   -7.6621   24.2668 O   0  0  0  0  0  0  0  0  0  0  0  0
  -24.8290  -21.7870   22.1856 O   0  0  0  0  0  0  0  0  0  1  0  0
  -22.9781   -2.5043   22.4740 F   0  0  0  0  0  0  0  0  0  0  0  0
  -20.0673   -6.0905   23.5093 F   0  0  0  0  0  0  0  0  0  0  0  0
  -27.9227  -18.3931   21.1830 F   0  0  0  0  0  0  0  0  0  0  0  0
  1  2  1  0  0  0  0
  1  5  2  0  0  0  0
  2  6  2  0  0  0  0
  3  8  2  0  0  0  0
  3 17  1  0  0  0  0
  4  9  1  0  0  0  0
  4 17  2  0  0  0  0
  5 19  1  0  0  0  0
  6 21  1  0  0  0  0
  7 10  2  0  0  0  0
  7 20  1  0  0  0  0
  8 26  1  0  0  0  0
  9 26  2  0  0  0  0
 10 27  1  0  0  0  0
 11 12  2  0  0  0  0
 11 28  1  0  0  0  0
 12 29  1  0  0  0  0
 13 22  1  0  0  0  0
 13 27  2  0  0  0  0
 14 23  2  0  0  0  0
 14 24  1  0  0  0  0
 15 23  1  0  0  0  0
 15 25  2  0  0  0  0
 16 29  2  0  0  0  0
 16 30  1  0  0  0  0
 17 32  1  0  0  0  0
 18 32  1  0  0  0  0
 18 33  2  0  0  0  0
 18 35  1  0  0  0  0
 19 21  2  0  0  0  0
 19 40  1  0  0  0  0
 20 22  2  0  0  0  0
 20 41  1  0  0  0  0
 21 50  1  0  0  0  0
 22 42  1  0  0  0  0
 23 55  1  0  0  0  0
 24 31  2  0  0  0  0
 24 70  1  0  0  0  0
 25 31  1  0  0  0  0
 25 75  1  0  0  0  0
 26 85  1  0  0  0  0
 27 86  1  0  0  0  0
 28 30  2  0  0  0  0
 28 85  1  0  0  0  0
 29 87  1  0  0  0  0
 30 88  1  0  0  0  0
 31 89  1  0  0  0  0
 32 68  2  0  0  0  0
 33 69  1  0  0  0  0
 33 73  1  0  0  0  0
 34 51  1  0  0  0  0
 34 70  1  0  0  0  0
 34 79  2  0  0  0  0
 35 74  1  0  0  0  0
 35 80  2  0  0  0  0
 36 52  1  0  0  0  0
 36 76  1  0  0  0  0
 36 81  2  0  0  0  0
 37 64  1  0  0  0  0
 37 71  1  0  0  0  0
 37 82  2  0  0  0  0
 38 65  1  0  0  0  0
 38 77  1  0  0  0  0
 38 83  2  0  0  0  0
 39 72  1  0  0  0  0
 39 75  1  0  0  0  0
 39 84  2  0  0  0  0
 40 43  1  0  0  0  0
 41 52  1  0  0  0  0
 42 71  1  0  0  0  0
 43 45  1  0  0  0  0
 44 46  1  0  0  0  0
 44 47  1  0  0  0  0
 45 50  1  0  0  0  0
 46 54  1  0  0  0  0
 47 72  1  0  0  0  0
 48 53  1  0  0  0  0
 48 70  1  0  0  0  0
 49 54  1  0  0  0  0
 49 72  1  0  0  0  0
 50 76  1  0  0  0  0
 51 53  1  0  0  0  0
 51 66  1  0  0  0  0
 52 71  1  0  0  0  0
 53 63  1  0  0  0  0
 54 69  1  0  0  0  0
 56 65  1  0  0  0  0
 57 66  1  0  0  0  0
 58 66  1  0  0  0  0
 59 67  1  0  0  0  0
 60 67  1  0  0  0  0
 61 67  1  0  0  0  0
 62 78  1  0  0  0  0
 63 86  1  0  0  0  0
 64 67  1  0  0  0  0
 64 77  1  0  0  0  0
 65 78  1  0  0  0  0
 68 69  1  0  0  0  0
M  CHG  1  78   1
M  ISO  4  39 100  63 101  75 100  86 101
M  END
> <Batch ID>
0066

> <Smiles>
CNC(C)C(=O)NC(C(=O)N1Cc2cc([101O:1][101CH2:1]C3CN(c4cc(C)cc([100NH:0][100C:0](=O)N5CCCC(n6nc(-c7ccc(Oc8ccc(F)cc8F)cc7)c(C(N)=O)c6N)C5)c4F)C(=O)C3C(C)C)ccc2CC1C(=O)NC1CCCc2ccccc21)C(C)(C)C

> <Shape>
0.234

> <Color>
0.158

> <Negative vol penalty>
0.000

$$$$

  -OEChem-04042323213D

 89 98  0     1  0  0  0  0  0999 V2000
  -24.1638  -38.4644   19.9390 C   0  0  0  0  0  0  0  0  0  0  0  0
  -25.1298  -37.6416   20.5093 C   0  0  0  0  0  0  0  0  0  0  0  0
  -22.8335  -10.1511   20.6720 C   0  0  0  0  0  0  0  0  0  0  0  0
  -24.5945   -8.6506   21.3682 C   0  0  0  0  0  0  0  0  0  0  0  0
  -22.8112  -38.1905   20.1373 C   0  0  0  0  0  0  0  0  0  0  0  0
  -24.7437  -36.5450   21.2793 C   0  0  0  0  0  0  0  0  0  0  0  0
  -26.7807  -29.8670   19.5057 C   0  0  0  0  0  0  0  0  0  0  0  0
  -27.0497  -19.0718   20.4306 C   0  0  0  0  0  0  0  0  0  0  0  0
  -29.4578  -19.2657   20.4114 C   0  0  0  0  0  0  0  0  0  0  0  0
  -27.1609  -17.6833   20.3590 C   0  0  0  0  0  0  0  0  0  0  0  0
  -29.5690  -17.8771   20.3398 C   0  0  0  0  0  0  0  0  0  0  0  0
  -21.9758   -9.5809   21.6126 C   0  0  0  0  0  0  0  0  0  0  0  0
  -23.7367   -8.0804   22.3089 C   0  0  0  0  0  0  0  0  0  0  0  0
  -27.3037  -28.5828   19.3520 C   0  0  0  0  0  0  0  0  0  0  0  0
  -21.2041   -5.8408   22.3363 C   0  0  0  0  0  0  0  0  0  0  0  0
  -21.1779   -4.4494   22.4301 C   0  0  0  0  0  0  0  0  0  0  0  0
  -25.9761  -27.8072   21.2185 C   0  0  0  0  0  0  0  0  0  0  0  0
  -21.8756   -4.5919   24.7388 C   0  0  0  0  0  0  0  0  0  0  0  0
  -24.1429   -9.6859   20.5497 C   0  0  0  0  0  0  0  0  0  0  0  0
  -24.8507  -10.3194   18.1822 C   0  0  0  0  0  0  0  0  0  0  0  0
  -22.4083  -37.0844   20.9021 C   0  0  0  0  0  0  0  0  0  0  0  0
  -25.8407  -30.1228   20.5078 C   0  0  0  0  0  0  0  0  0  0  0  0
  -23.3845  -36.2569   21.4891 C   0  0  0  0  0  0  0  0  0  0  0  0
  -25.4394  -29.0886   21.3693 C   0  0  0  0  0  0  0  0  0  0  0  0
  -28.1981  -19.8631   20.4568 C   0  0  0  0  0  0  0  0  0  0  0  0
  -28.4206  -17.0859   20.3136 C   0  0  0  0  0  0  0  0  0  0  0  0
  -22.4274   -8.5456   22.4311 C   0  0  0  0  0  0  0  0  0  0  0  0
  -26.9026  -27.5556   20.2064 C   0  0  0  0  0  0  0  0  0  0  0  0
  -21.5660   -6.6078   23.4437 C   0  0  0  0  0  0  0  0  0  0  0  0
  -21.5137   -3.8249   23.6313 C   0  0  0  0  0  0  0  0  0  0  0  0
  -21.9018   -5.9834   24.6450 C   0  0  0  0  0  0  0  0  0  0  0  0
  -25.0292  -10.2740   19.5778 C   0  0  0  0  0  0  0  0  0  0  0  0
  -25.9611  -10.9792   17.7153 C   0  0  0  0  0  0  0  0  0  0  0  0
  -27.4331  -21.9102   19.5445 C   0  0  0  0  0  0  0  0  0  0  0  0
  -23.7770   -9.8107   17.3796 C   0  0  0  0  0  0  0  0  0  0  0  0
  -23.6041  -32.6325   22.1737 C   0  0  0  0  0  0  0  0  0  0  0  0
  -22.0231  -30.0097   21.9955 C   0  0  0  0  0  0  0  0  0  0  0  0
  -20.4793  -27.0660   21.2281 C   0  0  0  0  0  0  0  0  0  0  0  0
  -29.7068  -14.9234   20.1888 C   0  0  0  0  0  0  0  0  0  0  0  0
  -20.9347  -36.8560   21.1278 C   0  0  0  0  0  0  0  0  0  0  0  0
  -25.2969  -31.5048   20.7491 C   0  0  0  0  0  0  0  0  0  0  0  0
  -24.4519  -29.4180   22.4552 C   0  0  0  0  0  0  0  0  0  0  0  0
  -20.6074  -35.4580   21.6462 C   0  0  0  0  0  0  0  0  0  0  0  0
  -30.5647  -11.7727   18.7696 C   0  0  0  0  0  0  0  0  0  0  0  0
  -21.5476  -35.0776   22.7856 C   0  0  0  0  0  0  0  0  0  0  0  0
  -29.2254  -11.0372   18.6832 C   0  0  0  0  0  0  0  0  0  0  0  0
  -28.1201  -23.2246   22.0168 C   0  0  0  0  0  0  0  0  0  0  0  0
  -30.6588  -12.6337   20.0280 C   0  0  0  0  0  0  0  0  0  0  0  0
  -28.7148  -21.8707   21.7146 C   0  0  0  0  0  0  0  0  0  0  0  0
  -28.2059  -12.8353   20.1374 C   0  0  0  0  0  0  0  0  0  0  0  0
  -23.0051  -35.0436   22.3102 C   0  0  1  0  0  0  0  0  0  0  0  0
  -23.8287  -31.5034   21.2113 C   0  0  1  0  0  0  0  0  0  0  0  0
  -28.0386  -12.0057   18.8538 C   0  0  2  0  0  0  0  0  0  0  0  0
  -27.1212  -23.4066   19.6891 C   0  0  0  0  0  0  0  0  0  0  0  0
  -28.0555  -24.1062   20.7585 C   0  0  2  0  0  0  0  0  0  0  0  0
  -25.6223  -23.4935   20.0838 C   0  0  0  0  0  0  0  0  0  0  0  0
  -27.2678  -24.1244   18.3171 C   0  0  0  0  0  0  0  0  0  0  0  0
  -29.4878  -24.3249   20.2063 C   0  0  0  0  0  0  0  0  0  0  0  0
  -18.2883  -25.8679   21.4755 C   0  0  0  0  0  0  0  0  0  0  0  0
  -28.4919  -26.1254   22.1903 C   0  0  0  0  0  0  0  0  0  0  0  0
  -22.6647  -29.4489   24.9242 C   0  0  0  0  0  0  0  0  0  0  0  0
  -21.0371  -27.5483   24.8433 C   0  0  0  0  0  0  0  0  0  0  0  0
  -20.2477  -29.8816   24.4498 C   0  0  0  0  0  0  0  0  0  0  0  0
  -20.1161  -26.8829   18.2966 C   0  0  0  0  0  0  0  0  0  0  0  0
  -21.6259  -28.7235   22.6746 C   0  0  1  0  0  0  0  0  0  0  0  0
  -19.1338  -26.7703   20.5904 C   0  0  2  0  0  0  0  0  0  0  0  0
  -27.5341  -25.4930   21.2088 C   0  0  1  0  0  0  0  0  0  1  0  0
  -21.4157  -28.9017   24.2048 C   0  0  0  0  0  0  0  0  0  0  0  0
  -26.1639  -10.8583   19.9718 N   0  0  0  0  0  0  0  0  0  0  0  0
  -26.7084  -11.2770   18.8167 N   0  0  0  0  0  0  0  0  0  0  0  0
  -28.0874  -21.2453   20.5280 N   0  0  0  0  0  0  0  0  0  0  0  0
  -23.3930  -30.2902   21.9235 N   0  0  0  0  0  0  0  0  0  0  0  0
  -29.5034  -13.5289   20.1206 N   0  0  0  0  0  0  0  0  0  0  0  0
  -26.3616  -11.3278   16.4741 N   0  0  0  0  0  0  0  0  0  0  0  0
  -22.7142   -9.1595   18.0205 N   0  0  0  0  0  0  0  0  0  0  0  0
  -28.5335  -15.6753   20.2409 N   0  0  0  0  0  0  0  0  0  0  0  0
  -23.2668  -33.8284   21.5691 N   0  0  0  0  0  0  0  0  0  0  0  0
  -20.4508  -28.2322   21.9633 N   0  0  0  0  0  0  0  0  0  0  0  0
  -26.9872  -21.3484   18.4116 N   0  3  0  0  0  0  0  0  0  0  0  0
  -19.3212  -26.0962   19.2745 N   0  3  0  0  0  0  0  0  0  0  0  0
  -23.7685   -9.9157   16.1296 O   0  0  0  0  0  0  0  0  0  0  0  0
  -23.7260  -32.4342   23.3768 O   0  0  0  0  0  0  0  0  0  0  0  0
  -21.1444  -30.7503   21.5452 O   0  0  0  0  0  0  0  0  0  0  0  0
  -21.4568  -26.3337   21.0910 O   0  0  0  0  0  0  0  0  0  0  0  0
  -30.8378  -15.4158   20.1725 O   0  0  0  0  0  0  0  0  0  0  0  0
  -21.5907   -7.9892   23.3493 O   0  0  0  0  0  0  0  0  0  0  0  0
  -27.4185  -26.2915   20.0465 O   0  0  0  0  0  0  0  0  0  1  0  0
  -21.4870   -2.4888   23.7216 F   0  0  0  0  0  0  0  0  0  0  0  0
  -22.2492   -6.7150   25.7126 F   0  0  0  0  0  0  0  0  0  0  0  0
  1  2  1  0  0  0  0
  1  5  2  0  0  0  0
  2  6  2  0  0  0  0
  3 12  2  0  0  0  0
  3 19  1  0  0  0  0
  4 13  1  0  0  0  0
  4 19  2  0  0  0  0
  5 21  1  0  0  0  0
  6 23  1  0  0  0  0
  7 14  2  0  0  0  0
  7 22  1  0  0  0  0
  8 10  2  0  0  0  0
  8 25  1  0  0  0  0
  9 11  1  0  0  0  0
  9 25  2  0  0  0  0
 10 26  1  0  0  0  0
 11 26  2  0  0  0  0
 12 27  1  0  0  0  0
 13 27  2  0  0  0  0
 14 28  1  0  0  0  0
 15 16  2  0  0  0  0
 15 29  1  0  0  0  0
 16 30  1  0  0  0  0
 17 24  1  0  0  0  0
 17 28  2  0  0  0  0
 18 30  2  0  0  0  0
 18 31  1  0  0  0  0
 19 32  1  0  0  0  0
 20 32  1  0  0  0  0
 20 33  2  0  0  0  0
 20 35  1  0  0  0  0
 21 23  2  0  0  0  0
 21 40  1  0  0  0  0
 22 24  2  0  0  0  0
 22 41  1  0  0  0  0
 23 51  1  0  0  0  0
 24 42  1  0  0  0  0
 25 71  1  0  0  0  0
 26 76  1  0  0  0  0
 27 86  1  0  0  0  0
 28 87  1  0  0  0  0
 29 31  2  0  0  0  0
 29 86  1  0  0  0  0
 30 88  1  0  0  0  0
 31 89  1  0  0  0  0
 32 69  2  0  0  0  0
 33 70  1  0  0  0  0
 33 74  1  0  0  0  0
 34 54  1  0  0  0  0
 34 71  1  0  0  0  0
 34 79  2  0  0  0  0
 35 75  1  0  0  0  0
 35 81  2  0  0  0  0
 36 52  1  0  0  0  0
 36 77  1  0  0  0  0
 36 82  2  0  0  0  0
 37 65  1  0  0  0  0
 37 72  1  0  0  0  0
 37 83  2  0  0  0  0
 38 66  1  0  0  0  0
 38 78  1  0  0  0  0
 38 84  2  0  0  0  0
 39 73  1  0  0  0  0
 39 76  1  0  0  0  0
 39 85  2  0  0  0  0
 40 43  1  0  0  0  0
 41 52  1  0  0  0  0
 42 72  1  0  0  0  0
 43 45  1  0  0  0  0
 44 46  1  0  0  0  0
 44 48  1  0  0  0  0
 45 51  1  0  0  0  0
 46 53  1  0  0  0  0
 47 49  1  0  0  0  0
 47 55  1  0  0  0  0
 48 73  1  0  0  0  0
 49 71  1  0  0  0  0
 50 53  1  0  0  0  0
 50 73  1  0  0  0  0
 51 77  1  0  0  0  0
 52 72  1  0  0  0  0
 53 70  1  0  0  0  0
 54 55  1  0  0  0  0
 54 56  1  0  0  0  0
 54 57  1  0  0  0  0
 55 58  1  0  0  0  0
 55 67  1  0  0  0  0
 59 66  1  0  0  0  0
 60 67  1  0  0  0  0
 61 68  1  0  0  0  0
 62 68  1  0  0  0  0
 63 68  1  0  0  0  0
 64 80  1  0  0  0  0
 65 68  1  0  0  0  0
 65 78  1  0  0  0  0
 66 80  1  0  0  0  0
 67 87  1  0  0  0  0
 69 70  1  0  0  0  0
M  CHG  2  79   1  80   1
M  ISO  4  39 100  67 101  76 100  87 101
M  END
> <Batch ID>
0066

> <Smiles>
CNC(C)C(=O)NC(C(=O)N1Cc2cc([101O:1][101CH:1](C)C3(C)CCN(c4ccc([100NH:0][100C:0](=O)N5CCCC(n6nc(-c7ccc(Oc8ccc(F)cc8F)cc7)c(C(N)=O)c6N)C5)cc4)C(=N)C3(C)C)ccc2CC1C(=O)NC1CCCc2ccccc21)C(C)(C)C

> <Shape>
0.311

> <Color>
0.110

> <Negative vol penalty>
0.000

$$$$

  -OEChem-04042323213D

 82 90  0     1  0  0  0  0  0999 V2000
  -24.7388  -25.0154   31.7486 C   0  0  0  0  0  0  0  0  0  0  0  0
  -25.2755  -24.4163   30.6136 C   0  0  0  0  0  0  0  0  0  0  0  0
  -32.8728  -17.1724   23.3671 C   0  0  0  0  0  0  0  0  0  0  0  0
  -22.9135   -9.9719   20.0302 C   0  0  0  0  0  0  0  0  0  0  0  0
  -23.6729   -9.9958   22.3237 C   0  0  0  0  0  0  0  0  0  0  0  0
  -23.5960  -25.8070   31.6434 C   0  0  0  0  0  0  0  0  0  0  0  0
  -24.6690  -24.6075   29.3726 C   0  0  0  0  0  0  0  0  0  0  0  0
  -28.0167  -25.6108   25.7078 C   0  0  0  0  0  0  0  0  0  0  0  0
  -32.2403  -16.2980   22.4834 C   0  0  0  0  0  0  0  0  0  0  0  0
  -22.1106   -8.8657   20.3076 C   0  0  0  0  0  0  0  0  0  0  0  0
  -22.8699   -8.8895   22.6010 C   0  0  0  0  0  0  0  0  0  0  0  0
  -28.7303  -24.5332   25.1848 C   0  0  0  0  0  0  0  0  0  0  0  0
  -22.9871   -5.5441   22.1260 C   0  0  0  0  0  0  0  0  0  0  0  0
  -23.5483   -4.5061   22.8697 C   0  0  0  0  0  0  0  0  0  0  0  0
  -32.1205  -18.0969   24.0917 C   0  0  0  0  0  0  0  0  0  0  0  0
  -27.2353  -24.4694   23.2927 C   0  0  0  0  0  0  0  0  0  0  0  0
  -30.1031  -17.2729   23.0486 C   0  0  0  0  0  0  0  0  0  0  0  0
  -21.8583   -4.8102   24.5693 C   0  0  0  0  0  0  0  0  0  0  0  0
  -23.6948  -10.5370   21.0383 C   0  0  0  0  0  0  0  0  0  0  0  0
  -24.1679  -13.0371   20.8565 C   0  0  0  0  0  0  0  0  0  0  0  0
  -22.9806  -26.0159   30.3991 C   0  0  0  0  0  0  0  0  0  0  0  0
  -26.8987  -26.1196   25.0314 C   0  0  0  0  0  0  0  0  0  0  0  0
  -23.5160  -25.4016   29.2509 C   0  0  0  0  0  0  0  0  0  0  0  0
  -26.5109  -25.5551   23.8079 C   0  0  0  0  0  0  0  0  0  0  0  0
  -30.8554  -16.3483   22.3240 C   0  0  0  0  0  0  0  0  0  0  0  0
  -22.0887   -8.3245   21.5930 C   0  0  0  0  0  0  0  0  0  0  0  0
  -28.3379  -23.9605   23.9785 C   0  0  0  0  0  0  0  0  0  0  0  0
  -21.8615   -6.2153   22.6039 C   0  0  0  0  0  0  0  0  0  0  0  0
  -22.9839   -4.1391   24.0913 C   0  0  0  0  0  0  0  0  0  0  0  0
  -21.2971   -5.8483   23.8256 C   0  0  0  0  0  0  0  0  0  0  0  0
  -30.7357  -18.1472   23.9324 C   0  0  0  0  0  0  0  0  0  0  0  0
  -24.5249  -11.6794   20.7522 C   0  0  0  0  0  0  0  0  0  0  0  0
  -25.2976  -13.7195   20.4763 C   0  0  0  0  0  0  0  0  0  0  0  0
  -29.1132  -21.7662   24.2125 C   0  0  0  0  0  0  0  0  0  1  0  0
  -29.7688  -20.6812   23.8009 C   0  0  0  0  0  0  0  0  0  0  0  0
  -22.9261  -13.6287   21.2611 C   0  0  0  0  0  0  0  0  0  0  0  0
  -23.8044  -26.3965   25.7040 C   0  0  0  0  0  0  0  0  0  0  0  0
  -23.7410  -28.0329   22.9039 C   0  0  0  0  0  0  0  0  0  0  0  0
  -25.1730  -28.6302   19.8643 C   0  0  0  0  0  0  0  0  0  0  0  0
  -30.8109  -14.4825   20.6319 C   0  0  0  0  0  0  0  0  0  0  0  0
  -21.7196  -26.8413   30.3423 C   0  0  0  0  0  0  0  0  0  0  0  0
  -26.1557  -27.2995   25.5955 C   0  0  0  0  0  0  0  0  0  0  0  0
  -25.3300  -26.0773   23.0325 C   0  0  0  0  0  0  0  0  0  0  0  0
  -21.3541  -27.2989   28.9326 C   0  0  0  0  0  0  0  0  0  0  0  0
  -29.5720  -12.0725   18.3224 C   0  0  0  0  0  0  0  0  0  0  0  0
  -21.4645  -26.1381   27.9491 C   0  0  0  0  0  0  0  0  0  0  0  0
  -28.1191  -11.8671   18.7572 C   0  0  0  0  0  0  0  0  0  0  0  0
  -30.4978  -12.2828   19.5191 C   0  0  0  0  0  0  0  0  0  0  0  0
  -28.6314  -13.1396   20.8798 C   0  0  0  0  0  0  0  0  0  0  0  0
  -22.9010  -25.6055   27.8833 C   0  0  1  0  0  0  0  0  0  0  0  0
  -24.7243  -27.4068   25.0790 C   0  0  1  0  0  0  0  0  0  0  0  0
  -27.6507  -12.9883   19.7054 C   0  0  2  0  0  0  0  0  0  0  0  0
  -24.8724  -29.9933   17.7788 C   0  0  0  0  0  0  0  0  0  0  0  0
  -21.5083  -26.1583   22.0034 C   0  0  0  0  0  0  0  0  0  0  0  0
  -21.9086  -26.9235   19.6534 C   0  0  0  0  0  0  0  0  0  0  0  0
  -21.1681  -28.5579   21.3863 C   0  0  0  0  0  0  0  0  0  0  0  0
  -27.7621  -30.0099   20.2538 C   0  0  0  0  0  0  0  0  0  0  0  0
  -23.5323  -27.6645   21.4549 C   0  0  1  0  0  0  0  0  0  0  0  0
  -25.5221  -29.9246   19.1522 C   0  0  2  0  0  0  0  0  0  0  0  0
  -22.0505  -27.3147   21.1398 C   0  0  0  0  0  0  0  0  0  0  0  0
  -25.7830  -11.5075   20.3380 N   0  0  0  0  0  0  0  0  0  0  0  0
  -26.2264  -12.7661   20.1786 N   0  0  0  0  0  0  0  0  0  0  0  0
  -24.6320  -27.2285   23.6285 N   0  0  0  0  0  0  0  0  0  0  0  0
  -29.9935  -13.3627   20.3702 N   0  0  0  0  0  0  0  0  0  0  0  0
  -25.5772  -15.0359   20.3708 N   0  0  0  0  0  0  0  0  0  0  0  0
  -21.8681  -12.7821   21.6194 N   0  0  0  0  0  0  0  0  0  0  0  0
  -30.2127  -15.4600   21.4265 N   0  0  0  0  0  0  0  0  0  0  0  0
  -23.7284  -26.4811   27.0812 N   0  0  0  0  0  0  0  0  0  0  0  0
  -24.0640  -28.7741   20.6710 N   0  0  0  0  0  0  0  0  0  0  0  0
  -26.9979  -30.0394   18.9802 N   0  3  0  0  0  0  0  0  0  0  0  0
  -22.7543  -14.8710   21.2878 O   0  0  0  0  0  0  0  0  0  0  0  0
  -23.2066  -25.6002   24.9897 O   0  0  0  0  0  0  0  0  0  0  0  0
  -23.1412  -29.0030   23.3737 O   0  0  0  0  0  0  0  0  0  0  0  0
  -25.8173  -27.5940   19.7166 O   0  0  0  0  0  0  0  0  0  0  0  0
  -31.9472  -14.5806   20.1616 O   0  0  0  0  0  0  0  0  0  0  0  0
  -28.4331  -18.7896   24.9700 O   0  0  0  0  0  0  0  0  0  0  0  0
  -30.5413  -19.6271   26.0534 O   0  0  0  0  0  0  0  0  0  0  0  0
  -21.3050   -7.2451   21.8640 O   0  0  0  0  0  0  0  0  0  0  0  0
  -29.0322  -22.9083   23.4662 O   0  0  0  0  0  0  0  0  0  1  0  0
  -23.5220   -3.1413   24.8047 F   0  0  0  0  0  0  0  0  0  0  0  0
  -20.2151   -6.4886   24.2894 F   0  0  0  0  0  0  0  0  0  0  0  0
  -29.7809  -19.3221   24.8520 S   0  0  0  0  0  0  0  0  0  0  0  0
  1  2  1  0  0  0  0
  1  6  2  0  0  0  0
  2  7  2  0  0  0  0
  3  9  1  0  0  0  0
  3 15  2  0  0  0  0
  4 10  2  0  0  0  0
  4 19  1  0  0  0  0
  5 11  1  0  0  0  0
  5 19  2  0  0  0  0
  6 21  1  0  0  0  0
  7 23  1  0  0  0  0
  8 12  2  0  0  0  0
  8 22  1  0  0  0  0
  9 25  2  0  0  0  0
 10 26  1  0  0  0  0
 11 26  2  0  0  0  0
 12 27  1  0  0  0  0
 13 14  2  0  0  0  0
 13 28  1  0  0  0  0
 14 29  1  0  0  0  0
 15 31  1  0  0  0  0
 16 24  1  0  0  0  0
 16 27  2  0  0  0  0
 17 25  1  0  0  0  0
 17 31  2  0  0  0  0
 18 29  2  0  0  0  0
 18 30  1  0  0  0  0
 19 32  1  0  0  0  0
 20 32  1  0  0  0  0
 20 33  2  0  0  0  0
 20 36  1  0  0  0  0
 21 23  2  0  0  0  0
 21 41  1  0  0  0  0
 22 24  2  0  0  0  0
 22 42  1  0  0  0  0
 23 50  1  0  0  0  0
 24 43  1  0  0  0  0
 25 67  1  0  0  0  0
 26 78  1  0  0  0  0
 27 79  1  0  0  0  0
 28 30  2  0  0  0  0
 28 78  1  0  0  0  0
 29 80  1  0  0  0  0
 30 81  1  0  0  0  0
 31 82  1  0  0  0  0
 32 61  2  0  0  0  0
 33 62  1  0  0  0  0
 33 65  1  0  0  0  0
 34 35  2  0  0  0  0
 34 79  1  0  0  0  0
 35 82  1  0  0  0  0
 36 66  1  0  0  0  0
 36 71  2  0  0  0  0
 37 51  1  0  0  0  0
 37 68  1  0  0  0  0
 37 72  2  0  0  0  0
 38 58  1  0  0  0  0
 38 63  1  0  0  0  0
 38 73  2  0  0  0  0
 39 59  1  0  0  0  0
 39 69  1  0  0  0  0
 39 74  2  0  0  0  0
 40 64  1  0  0  0  0
 40 67  1  0  0  0  0
 40 75  2  0  0  0  0
 41 44  1  0  0  0  0
 42 51  1  0  0  0  0
 43 63  1  0  0  0  0
 44 46  1  0  0  0  0
 45 47  1  0  0  0  0
 45 48  1  0  0  0  0
 46 50  1  0  0  0  0
 47 52  1  0  0  0  0
 48 64  1  0  0  0  0
 49 52  1  0  0  0  0
 49 64  1  0  0  0  0
 50 68  1  0  0  0  0
 51 63  1  0  0  0  0
 52 62  1  0  0  0  0
 53 59  1  0  0  0  0
 54 60  1  0  0  0  0
 55 60  1  0  0  0  0
 56 60  1  0  0  0  0
 57 70  1  0  0  0  0
 58 60  1  0  0  0  0
 58 69  1  0  0  0  0
 59 70  1  0  0  0  0
 61 62  1  0  0  0  0
 76 82  2  0  0  0  0
 77 82  2  0  0  0  0
M  CHG  1  70   1
M  ISO  4  34 101  40 100  67 100  79 101
M  END
> <Batch ID>
0066

> <Smiles>
CNC(C)C(=O)NC(C(=O)N1Cc2cc([101O:1][101CH:1]=CS(=O)(=O)c3cccc([100NH:0][100C:0](=O)N4CCCC(n5nc(-c6ccc(Oc7ccc(F)cc7F)cc6)c(C(N)=O)c5N)C4)c3)ccc2CC1C(=O)NC1CCCc2ccccc21)C(C)(C)C

> <Shape>
0.231

> <Color>
0.217

> <Negative vol penalty>
0.000

$$$$

  -OEChem-04042323213D

 88 96  0     1  0  0  0  0  0999 V2000
  -28.3921  -33.3600   28.6054 C   0  0  0  0  0  0  0  0  0  0  0  0
  -28.2046  -32.3325   27.6865 C   0  0  0  0  0  0  0  0  0  0  0  0
  -24.2144   -9.5185   21.5217 C   0  0  0  0  0  0  0  0  0  0  0  0
  -24.7727  -10.6923   23.5583 C   0  0  0  0  0  0  0  0  0  0  0  0
  -30.8157  -20.3962   20.9968 C   0  0  0  0  0  0  0  0  0  0  0  0
  -27.4880  -34.4201   28.6581 C   0  0  0  0  0  0  0  0  0  0  0  0
  -27.1123  -32.3639   26.8204 C   0  0  0  0  0  0  0  0  0  0  0  0
  -28.3720  -31.1785   22.0609 C   0  0  0  0  0  0  0  0  0  0  0  0
  -30.5834  -19.0872   20.5747 C   0  0  0  0  0  0  0  0  0  0  0  0
  -23.8309   -8.4047   22.2687 C   0  0  0  0  0  0  0  0  0  0  0  0
  -24.3892   -9.5785   24.3053 C   0  0  0  0  0  0  0  0  0  0  0  0
  -28.5558  -29.8278   21.7685 C   0  0  0  0  0  0  0  0  0  0  0  0
  -21.1570   -7.4306   24.0947 C   0  0  0  0  0  0  0  0  0  0  0  0
  -19.9609   -6.8005   23.7515 C   0  0  0  0  0  0  0  0  0  0  0  0
  -26.3427  -29.7398   20.8126 C   0  0  0  0  0  0  0  0  0  0  0  0
  -28.2096  -19.4061   20.8922 C   0  0  0  0  0  0  0  0  0  0  0  0
  -21.1652   -4.7519   23.3152 C   0  0  0  0  0  0  0  0  0  0  0  0
  -24.6854  -10.6623   22.1665 C   0  0  0  0  0  0  0  0  0  0  0  0
  -29.7449  -21.2101   21.3667 C   0  0  0  0  0  0  0  0  0  0  0  0
  -24.2692  -12.8910   20.9971 C   0  0  0  0  0  0  0  0  0  0  0  0
  -26.3894  -34.4695   27.7857 C   0  0  0  0  0  0  0  0  0  0  0  0
  -27.1660  -31.8184   21.7406 C   0  0  0  0  0  0  0  0  0  0  0  0
  -26.1919  -33.4250   26.8623 C   0  0  0  0  0  0  0  0  0  0  0  0
  -26.1471  -31.0994   21.0997 C   0  0  0  0  0  0  0  0  0  0  0  0
  -28.4419  -20.7151   21.3144 C   0  0  0  0  0  0  0  0  0  0  0  0
  -29.2804  -18.5921   20.5224 C   0  0  0  0  0  0  0  0  0  0  0  0
  -23.9183   -8.4347   23.6605 C   0  0  0  0  0  0  0  0  0  0  0  0
  -27.5400  -29.1075   21.1469 C   0  0  0  0  0  0  0  0  0  0  0  0
  -22.3573   -6.7214   24.0480 C   0  0  0  0  0  0  0  0  0  0  0  0
  -19.9650   -5.4611   23.3618 C   0  0  0  0  0  0  0  0  0  0  0  0
  -22.3614   -5.3821   23.6583 C   0  0  0  0  0  0  0  0  0  0  0  0
  -25.0822  -11.8129   21.3953 C   0  0  0  0  0  0  0  0  0  0  0  0
  -25.1123  -13.7148   20.2922 C   0  0  0  0  0  0  0  0  0  0  0  0
  -30.0129  -22.5931   21.8098 C   0  0  0  0  0  0  0  0  0  0  0  0
  -22.8764  -13.1266   21.2425 C   0  0  0  0  0  0  0  0  0  0  0  0
  -24.8796  -33.2614   23.4121 C   0  0  0  0  0  0  0  0  0  0  0  0
  -28.9935  -25.7328   20.8677 C   0  0  0  0  0  0  0  0  0  0  0  0
  -23.7320  -33.9972   20.4687 C   0  0  0  0  0  0  0  0  0  0  0  0
  -23.5835  -33.2398   17.1443 C   0  0  0  0  0  0  0  0  0  0  0  0
  -29.9941  -16.3241   19.6899 C   0  0  0  0  0  0  0  0  0  0  0  0
  -25.4128  -35.6118   27.9120 C   0  0  0  0  0  0  0  0  0  0  0  0
  -26.9936  -33.2826   22.0385 C   0  0  0  0  0  0  0  0  0  0  0  0
  -24.8412  -31.7448   20.7168 C   0  0  0  0  0  0  0  0  0  0  0  0
  -24.4889  -35.7596   26.7058 C   0  0  0  0  0  0  0  0  0  0  0  0
  -29.8186  -12.9399   18.5975 C   0  0  0  0  0  0  0  0  0  0  0  0
  -23.9175  -34.4042   26.3019 C   0  0  0  0  0  0  0  0  0  0  0  0
  -28.5039  -12.4337   19.1953 C   0  0  0  0  0  0  0  0  0  0  0  0
  -30.5365  -13.9037   19.5406 C   0  0  0  0  0  0  0  0  0  0  0  0
  -28.4072  -14.5231   20.6138 C   0  0  0  0  0  0  0  0  0  0  0  0
  -25.0329  -33.4360   25.8894 C   0  0  1  0  0  0  0  0  0  0  0  0
  -25.5307  -33.7050   22.1326 C   0  0  1  0  0  0  0  0  0  0  0  0
  -27.6161  -13.5996   19.6729 C   0  0  2  0  0  0  0  0  0  0  0  0
  -27.2789  -21.5681   21.7027 C   0  0  0  0  0  0  0  0  0  0  0  0
  -22.5346  -34.0010   14.9955 C   0  0  0  0  0  0  0  0  0  0  0  0
  -31.3509  -25.4200   18.9317 C   0  0  0  0  0  0  0  0  0  0  0  0
  -32.7596  -24.7327   20.8884 C   0  0  0  0  0  0  0  0  0  0  0  0
  -21.0720  -32.7821   21.3394 C   0  0  0  0  0  0  0  0  0  0  0  0
  -20.3995  -32.7015   18.9291 C   0  0  0  0  0  0  0  0  0  0  0  0
  -20.8706  -34.8958   20.0180 C   0  0  0  0  0  0  0  0  0  0  0  0
  -26.2211  -33.7511   15.9031 C   0  0  0  0  0  0  0  0  0  0  0  0
  -28.9674  -27.2069   21.2256 C   0  0  0  0  0  0  0  0  0  1  0  0
  -30.2656  -24.9743   21.2074 C   0  0  2  0  0  0  0  0  0  0  0  0
  -22.7893  -33.3356   19.4926 C   0  0  1  0  0  0  0  0  0  0  0  0
  -23.7482  -34.1027   15.9063 C   0  0  2  0  0  0  0  0  0  0  0  0
  -31.5015  -25.4904   20.4544 C   0  0  0  0  0  0  0  0  0  0  0  0
  -21.3066  -33.4158   19.9536 C   0  0  0  0  0  0  0  0  0  0  0  0
  -26.3448  -11.9376   20.9779 N   0  0  0  0  0  0  0  0  0  0  0  0
  -26.3315  -13.1037   20.3100 N   0  0  0  0  0  0  0  0  0  0  0  0
  -24.7182  -33.1770   21.0347 N   0  0  0  0  0  0  0  0  0  0  0  0
  -29.6355  -14.9841   19.9479 N   0  0  0  0  0  0  0  0  0  0  0  0
  -24.9223  -14.8950   19.6649 N   0  0  0  0  0  0  0  0  0  0  0  0
  -22.1589  -12.1786   21.9847 N   0  0  0  0  0  0  0  0  0  0  0  0
  -29.0446  -17.2627   20.0924 N   0  0  0  0  0  0  0  0  0  0  0  0
  -30.0301  -23.5667   20.8895 N   0  0  0  0  0  0  0  0  0  0  0  0
  -25.4966  -33.7393   24.5524 N   0  0  0  0  0  0  0  0  0  0  0  0
  -23.0460  -33.9521   18.1955 N   0  0  0  0  0  0  0  0  0  0  0  0
  -30.2280  -22.8063   23.1081 N   0  3  0  0  0  0  0  0  0  0  0  0
  -24.9512  -33.6786   15.1356 N   0  3  0  0  0  0  0  0  0  0  0  0
  -22.2817  -14.1396   20.8024 O   0  0  0  0  0  0  0  0  0  0  0  0
  -23.8898  -32.5403   23.3680 O   0  0  0  0  0  0  0  0  0  0  0  0
  -28.0281  -25.1845   20.3351 O   0  0  0  0  0  0  0  0  0  0  0  0
  -23.6026  -35.1992   20.7142 O   0  0  0  0  0  0  0  0  0  0  0  0
  -23.8967  -32.0517   17.1747 O   0  0  0  0  0  0  0  0  0  0  0  0
  -31.0523  -16.6159   19.1269 O   0  0  0  0  0  0  0  0  0  0  0  0
  -23.5439   -7.3482   24.3898 O   0  0  0  0  0  0  0  0  0  0  0  0
  -27.7165  -27.7888   20.8609 O   0  0  0  0  0  0  0  0  0  1  0  0
  -18.8160   -4.8557   23.0338 F   0  0  0  0  0  0  0  0  0  0  0  0
  -23.5112   -4.6953   23.6128 F   0  0  0  0  0  0  0  0  0  0  0  0
  1  2  1  0  0  0  0
  1  6  2  0  0  0  0
  2  7  2  0  0  0  0
  3 10  2  0  0  0  0
  3 18  1  0  0  0  0
  4 11  1  0  0  0  0
  4 18  2  0  0  0  0
  5  9  2  0  0  0  0
  5 19  1  0  0  0  0
  6 21  1  0  0  0  0
  7 23  1  0  0  0  0
  8 12  2  0  0  0  0
  8 22  1  0  0  0  0
  9 26  1  0  0  0  0
 10 27  1  0  0  0  0
 11 27  2  0  0  0  0
 12 28  1  0  0  0  0
 13 14  2  0  0  0  0
 13 29  1  0  0  0  0
 14 30  1  0  0  0  0
 15 24  1  0  0  0  0
 15 28  2  0  0  0  0
 16 25  1  0  0  0  0
 16 26  2  0  0  0  0
 17 30  2  0  0  0  0
 17 31  1  0  0  0  0
 18 32  1  0  0  0  0
 19 25  2  0  0  0  0
 19 34  1  0  0  0  0
 20 32  1  0  0  0  0
 20 33  2  0  0  0  0
 20 35  1  0  0  0  0
 21 23  2  0  0  0  0
 21 41  1  0  0  0  0
 22 24  2  0  0  0  0
 22 42  1  0  0  0  0
 23 50  1  0  0  0  0
 24 43  1  0  0  0  0
 25 53  1  0  0  0  0
 26 73  1  0  0  0  0
 27 85  1  0  0  0  0
 28 86  1  0  0  0  0
 29 31  2  0  0  0  0
 29 85  1  0  0  0  0
 30 87  1  0  0  0  0
 31 88  1  0  0  0  0
 32 67  2  0  0  0  0
 33 68  1  0  0  0  0
 33 71  1  0  0  0  0
 34 74  1  0  0  0  0
 34 77  2  0  0  0  0
 35 72  1  0  0  0  0
 35 79  2  0  0  0  0
 36 51  1  0  0  0  0
 36 75  1  0  0  0  0
 36 80  2  0  0  0  0
 37 61  1  0  0  0  0
 37 62  1  0  0  0  0
 37 81  2  0  0  0  0
 38 63  1  0  0  0  0
 38 69  1  0  0  0  0
 38 82  2  0  0  0  0
 39 64  1  0  0  0  0
 39 76  1  0  0  0  0
 39 83  2  0  0  0  0
 40 70  1  0  0  0  0
 40 73  1  0  0  0  0
 40 84  2  0  0  0  0
 41 44  1  0  0  0  0
 42 51  1  0  0  0  0
 43 69  1  0  0  0  0
 44 46  1  0  0  0  0
 45 47  1  0  0  0  0
 45 48  1  0  0  0  0
 46 50  1  0  0  0  0
 47 52  1  0  0  0  0
 48 70  1  0  0  0  0
 49 52  1  0  0  0  0
 49 70  1  0  0  0  0
 50 75  1  0  0  0  0
 51 69  1  0  0  0  0
 52 68  1  0  0  0  0
 54 64  1  0  0  0  0
 55 65  1  0  0  0  0
 56 65  1  0  0  0  0
 57 66  1  0  0  0  0
 58 66  1  0  0  0  0
 59 66  1  0  0  0  0
 60 78  1  0  0  0  0
 61 86  1  0  0  0  0
 62 65  1  0  0  0  0
 62 74  1  0  0  0  0
 63 66  1  0  0  0  0
 63 76  1  0  0  0  0
 64 78  1  0  0  0  0
 67 68  1  0  0  0  0
M  CHG  2  77   1  78   1
M  ISO  4  40 100  61 101  73 100  86 101
M  END
> <Batch ID>
0066

> <Smiles>
CNC(C)C(=O)NC(C(=O)N1Cc2cc([101O:1][101CH2:1]C(=O)C(NC(=N)c3ccc([100NH:0][100C:0](=O)N4CCCC(n5nc(-c6ccc(Oc7ccc(F)cc7F)cc6)c(C(N)=O)c5N)C4)cc3C)C(C)C)ccc2CC1C(=O)NC1CCCc2ccccc21)C(C)(C)C

> <Shape>
0.275

> <Color>
0.123

> <Negative vol penalty>
0.000

$$$$

  -OEChem-04042323213D

 86 94  0     1  0  0  0  0  0999 V2000
  -30.2449  -26.4671   16.3658 C   0  0  0  0  0  0  0  0  0  0  0  0
  -28.8782  -26.3333   16.5885 C   0  0  0  0  0  0  0  0  0  0  0  0
  -26.2285  -16.8232   20.4673 C   0  0  0  0  0  0  0  0  0  0  0  0
  -27.4281  -15.5283   22.1170 C   0  0  0  0  0  0  0  0  0  0  0  0
  -31.0753  -26.9236   17.3885 C   0  0  0  0  0  0  0  0  0  0  0  0
  -28.3413  -26.6548   17.8346 C   0  0  0  0  0  0  0  0  0  0  0  0
  -22.8525  -29.1317   18.9501 C   0  0  0  0  0  0  0  0  0  0  0  0
  -27.4095  -17.4819   20.1255 C   0  0  0  0  0  0  0  0  0  0  0  0
  -28.6091  -16.1870   21.7752 C   0  0  0  0  0  0  0  0  0  0  0  0
  -21.6338  -28.5760   19.3372 C   0  0  0  0  0  0  0  0  0  0  0  0
  -29.3115  -19.9871   21.3629 C   0  0  0  0  0  0  0  0  0  0  0  0
  -29.2591  -21.3725   21.2101 C   0  0  0  0  0  0  0  0  0  0  0  0
  -22.1344  -29.0965   21.6389 C   0  0  0  0  0  0  0  0  0  0  0  0
  -17.0070  -21.3377   22.6232 C   0  0  0  0  0  0  0  0  0  0  0  0
  -17.0763  -18.9550   23.0170 C   0  0  0  0  0  0  0  0  0  0  0  0
  -29.9869  -21.1471   18.9173 C   0  0  0  0  0  0  0  0  0  0  0  0
  -26.2377  -15.8464   21.4631 C   0  0  0  0  0  0  0  0  0  0  0  0
  -24.5123  -13.9792   21.2533 C   0  0  0  0  0  0  0  0  0  0  0  0
  -30.5469  -27.2601   18.6447 C   0  0  0  0  0  0  0  0  0  0  0  0
  -23.7276  -29.6650   19.9073 C   0  0  0  0  0  0  0  0  0  0  0  0
  -29.1656  -27.1150   18.8755 C   0  0  0  0  0  0  0  0  0  0  0  0
  -23.3624  -29.6607   21.2611 C   0  0  0  0  0  0  0  0  0  0  0  0
  -19.0788  -20.2813   23.2775 C   0  0  0  0  0  0  0  0  0  0  0  0
  -18.3651  -21.4277   22.9282 C   0  0  0  0  0  0  0  0  0  0  0  0
  -18.4345  -19.0450   23.3219 C   0  0  0  0  0  0  0  0  0  0  0  0
  -28.5998  -17.1638   20.7794 C   0  0  0  0  0  0  0  0  0  0  0  0
  -21.2759  -28.5557   20.6820 C   0  0  0  0  0  0  0  0  0  0  0  0
  -29.7017  -19.1816   20.2930 C   0  0  0  0  0  0  0  0  0  0  0  0
  -29.5967  -21.9526   19.9873 C   0  0  0  0  0  0  0  0  0  0  0  0
  -16.3626  -20.1014   22.6677 C   0  0  0  0  0  0  0  0  0  0  0  0
  -30.0394  -19.7617   19.0702 C   0  0  0  0  0  0  0  0  0  0  0  0
  -25.0179  -15.1660   21.8169 C   0  0  0  0  0  0  0  0  0  0  0  0
  -23.3385  -13.7511   21.9291 C   0  0  0  0  0  0  0  0  0  0  0  0
  -19.4259  -25.0144   22.6077 C   0  0  0  0  0  0  0  0  0  0  0  0
  -19.0716  -26.2753   22.3241 C   0  0  0  0  0  0  0  0  0  0  0  0
  -25.0551  -13.1564   20.2122 C   0  0  0  0  0  0  0  0  0  0  0  0
  -18.4204  -23.9122   22.5465 C   0  0  0  0  0  0  0  0  0  0  0  0
  -26.6831  -28.9939   20.8654 C   0  0  0  0  0  0  0  0  0  0  0  0
  -26.3018  -31.6839   22.6378 C   0  0  0  0  0  0  0  0  0  0  0  0
  -24.1713  -33.8739   24.1581 C   0  0  0  0  0  0  0  0  0  0  0  0
  -19.7871  -17.7166   24.9346 C   0  0  0  0  0  0  0  0  0  0  0  0
  -31.4909  -27.7043   19.7340 C   0  0  0  0  0  0  0  0  0  0  0  0
  -25.0266  -30.2849   19.4707 C   0  0  0  0  0  0  0  0  0  0  0  0
  -24.2574  -30.2388   22.3257 C   0  0  0  0  0  0  0  0  0  0  0  0
  -30.7896  -28.3802   20.9094 C   0  0  0  0  0  0  0  0  0  0  0  0
  -21.2139  -14.5340   26.1370 C   0  0  0  0  0  0  0  0  0  0  0  0
  -29.5700  -27.5716   21.3400 C   0  0  0  0  0  0  0  0  0  0  0  0
  -22.3496  -14.2750   25.1485 C   0  0  0  0  0  0  0  0  0  0  0  0
  -20.9517  -16.0258   26.3209 C   0  0  0  0  0  0  0  0  0  0  0  0
  -21.8326  -16.4935   24.0548 C   0  0  0  0  0  0  0  0  0  0  0  0
  -28.5421  -27.4773   20.2060 C   0  0  1  0  0  0  0  0  0  0  0  0
  -26.0684  -30.3358   20.5841 C   0  0  1  0  0  0  0  0  0  0  0  0
  -22.0923  -14.9985   23.8153 C   0  0  1  0  0  0  0  0  0  0  0  0
  -20.5369  -20.3780   23.6041 C   0  0  0  0  0  0  0  0  0  0  0  0
  -24.1557  -35.9531   25.5631 C   0  0  0  0  0  0  0  0  0  0  0  0
  -27.0925  -30.0359   25.0809 C   0  0  0  0  0  0  0  0  0  0  0  0
  -26.1554  -31.8544   26.5242 C   0  0  0  0  0  0  0  0  0  0  0  0
  -28.0781  -32.3333   25.0087 C   0  0  0  0  0  0  0  0  0  0  0  0
  -19.0133  -16.6634   22.8224 C   0  0  0  0  0  0  0  0  0  0  0  0
  -22.6930  -35.3964   22.0951 C   0  0  0  0  0  0  0  0  0  0  0  0
  -20.0286  -27.4230   22.3605 C   0  0  0  0  0  0  0  0  0  1  0  0
  -25.7769  -31.9878   24.0202 C   0  0  1  0  0  0  0  0  0  0  0  0
  -24.1118  -35.3908   24.1508 C   0  0  2  0  0  0  0  0  0  0  0  0
  -26.7595  -31.5401   25.1389 C   0  0  0  0  0  0  0  0  0  0  0  0
  -24.2298  -15.6576   22.7767 N   0  0  0  0  0  0  0  0  0  0  0  0
  -23.2170  -14.7754   22.8214 N   0  0  0  0  0  0  0  0  0  0  0  0
  -25.5198  -30.8279   21.8494 N   0  0  0  0  0  0  0  0  0  0  0  0
  -20.7556  -16.6977   25.0357 N   0  0  0  0  0  0  0  0  0  0  0  0
  -22.4087  -12.7763   21.8411 N   0  0  0  0  0  0  0  0  0  0  0  0
  -26.2701  -13.5360   19.6256 N   0  0  0  0  0  0  0  0  0  0  0  0
  -18.9989  -22.6935   22.8761 N   0  0  0  0  0  0  0  0  0  0  0  0
  -27.7960  -28.7125   20.0961 N   0  0  0  0  0  0  0  0  0  0  0  0
  -25.4648  -33.4129   24.0341 N   0  0  0  0  0  0  0  0  0  0  0  0
  -19.1533  -17.8450   23.6798 N   0  0  0  0  0  0  0  0  0  0  0  0
  -22.8557  -35.8568   23.4982 N   0  3  0  0  0  0  0  0  0  0  0  0
  -24.4716  -12.1244   19.8024 O   0  0  0  0  0  0  0  0  0  0  0  0
  -17.2549  -24.1306   22.2378 O   0  0  0  0  0  0  0  0  0  0  0  0
  -26.1856  -28.2683   21.7184 O   0  0  0  0  0  0  0  0  0  0  0  0
  -27.3629  -32.1930   22.2683 O   0  0  0  0  0  0  0  0  0  0  0  0
  -23.1707  -33.1686   24.2668 O   0  0  0  0  0  0  0  0  0  0  0  0
  -19.4918  -18.4339   25.8979 O   0  0  0  0  0  0  0  0  0  0  0  0
  -29.7525  -17.8062   20.4460 O   0  0  0  0  0  0  0  0  0  0  0  0
  -20.0872  -28.0133   21.0626 O   0  0  0  0  0  0  0  0  0  1  0  0
  -29.5448  -23.2829   19.8403 F   0  0  0  0  0  0  0  0  0  0  0  0
  -15.0582  -20.0155   22.3750 F   0  0  0  0  0  0  0  0  0  0  0  0
  -30.4138  -18.9930   18.0383 F   0  0  0  0  0  0  0  0  0  0  0  0
  1  2  1  0  0  0  0
  1  5  2  0  0  0  0
  2  6  2  0  0  0  0
  3  8  2  0  0  0  0
  3 17  1  0  0  0  0
  4  9  1  0  0  0  0
  4 17  2  0  0  0  0
  5 19  1  0  0  0  0
  6 21  1  0  0  0  0
  7 10  2  0  0  0  0
  7 20  1  0  0  0  0
  8 26  1  0  0  0  0
  9 26  2  0  0  0  0
 10 27  1  0  0  0  0
 11 12  2  0  0  0  0
 11 28  1  0  0  0  0
 12 29  1  0  0  0  0
 13 22  1  0  0  0  0
 13 27  2  0  0  0  0
 14 24  1  0  0  0  0
 14 30  2  0  0  0  0
 15 25  2  0  0  0  0
 15 30  1  0  0  0  0
 16 29  2  0  0  0  0
 16 31  1  0  0  0  0
 17 32  1  0  0  0  0
 18 32  1  0  0  0  0
 18 33  2  0  0  0  0
 18 36  1  0  0  0  0
 19 21  2  0  0  0  0
 19 42  1  0  0  0  0
 20 22  2  0  0  0  0
 20 43  1  0  0  0  0
 21 51  1  0  0  0  0
 22 44  1  0  0  0  0
 23 24  2  0  0  0  0
 23 25  1  0  0  0  0
 23 54  1  0  0  0  0
 24 71  1  0  0  0  0
 25 74  1  0  0  0  0
 26 82  1  0  0  0  0
 27 83  1  0  0  0  0
 28 31  2  0  0  0  0
 28 82  1  0  0  0  0
 29 84  1  0  0  0  0
 30 85  1  0  0  0  0
 31 86  1  0  0  0  0
 32 65  2  0  0  0  0
 33 66  1  0  0  0  0
 33 69  1  0  0  0  0
 34 35  2  0  0  0  0
 34 37  1  0  0  0  0
 35 61  1  0  0  0  0
 36 70  1  0  0  0  0
 36 76  2  0  0  0  0
 37 71  1  0  0  0  0
 37 77  2  0  0  0  0
 38 52  1  0  0  0  0
 38 72  1  0  0  0  0
 38 78  2  0  0  0  0
 39 62  1  0  0  0  0
 39 67  1  0  0  0  0
 39 79  2  0  0  0  0
 40 63  1  0  0  0  0
 40 73  1  0  0  0  0
 40 80  2  0  0  0  0
 41 68  1  0  0  0  0
 41 74  1  0  0  0  0
 41 81  2  0  0  0  0
 42 45  1  0  0  0  0
 43 52  1  0  0  0  0
 44 67  1  0  0  0  0
 45 47  1  0  0  0  0
 46 48  1  0  0  0  0
 46 49  1  0  0  0  0
 47 51  1  0  0  0  0
 48 53  1  0  0  0  0
 49 68  1  0  0  0  0
 50 53  1  0  0  0  0
 50 68  1  0  0  0  0
 51 72  1  0  0  0  0
 52 67  1  0  0  0  0
 53 66  1  0  0  0  0
 55 63  1  0  0  0  0
 56 64  1  0  0  0  0
 57 64  1  0  0  0  0
 58 64  1  0  0  0  0
 59 74  1  0  0  0  0
 60 75  1  0  0  0  0
 61 83  1  0  0  0  0
 62 64  1  0  0  0  0
 62 73  1  0  0  0  0
 63 75  1  0  0  0  0
 65 66  1  0  0  0  0
M  CHG  1  75   1
M  ISO  4  41 100  61 101  74 100  83 101
M  END
> <Batch ID>
0066

> <Smiles>
CNC(C)C(=O)NC(C(=O)N1Cc2cc([101O:1][101CH2:1]C=CC(=O)Nc3cc(F)cc([100N:0](C)[100C:0](=O)N4CCCC(n5nc(-c6ccc(Oc7ccc(F)cc7F)cc6)c(C(N)=O)c5N)C4)c3C)ccc2CC1C(=O)NC1CCCc2ccccc21)C(C)(C)C

> <Shape>
0.285

> <Color>
0.085

> <Negative vol penalty>
0.000

$$$$

  -OEChem-04042323213D

 87 96  0     1  0  0  0  0  0999 V2000
  -32.4711  -28.5387   14.7066 C   0  0  0  0  0  0  0  0  0  0  0  0
  -31.9482  -27.4351   15.3730 C   0  0  0  0  0  0  0  0  0  0  0  0
  -23.0313   -9.8376   20.1552 C   0  0  0  0  0  0  0  0  0  0  0  0
  -23.6065  -10.2261   22.4693 C   0  0  0  0  0  0  0  0  0  0  0  0
  -32.5052  -29.7813   15.3381 C   0  0  0  0  0  0  0  0  0  0  0  0
  -31.4599  -27.5733   16.6719 C   0  0  0  0  0  0  0  0  0  0  0  0
  -26.7189  -24.5992   19.1585 C   0  0  0  0  0  0  0  0  0  0  0  0
  -22.2505   -8.7451   20.5326 C   0  0  0  0  0  0  0  0  0  0  0  0
  -22.8257   -9.1336   22.8468 C   0  0  0  0  0  0  0  0  0  0  0  0
  -26.6437  -23.4803   19.9868 C   0  0  0  0  0  0  0  0  0  0  0  0
  -23.1037   -5.7642   22.8764 C   0  0  0  0  0  0  0  0  0  0  0  0
  -23.6428   -4.8716   23.8028 C   0  0  0  0  0  0  0  0  0  0  0  0
  -26.5155  -24.9239   21.9152 C   0  0  0  0  0  0  0  0  0  0  0  0
  -29.6859  -17.8329   22.5847 C   0  0  0  0  0  0  0  0  0  0  0  0
  -31.8953  -16.8906   22.3248 C   0  0  0  0  0  0  0  0  0  0  0  0
  -21.8143   -5.3343   25.3126 C   0  0  0  0  0  0  0  0  0  0  0  0
  -23.7094  -10.5781   21.1235 C   0  0  0  0  0  0  0  0  0  0  0  0
  -24.1023  -13.0463   20.6124 C   0  0  0  0  0  0  0  0  0  0  0  0
  -32.0083  -29.9368   16.6418 C   0  0  0  0  0  0  0  0  0  0  0  0
  -26.7040  -25.8910   19.7041 C   0  0  0  0  0  0  0  0  0  0  0  0
  -31.4886  -28.8189   17.3219 C   0  0  0  0  0  0  0  0  0  0  0  0
  -26.5881  -26.0577   21.0915 C   0  0  0  0  0  0  0  0  0  0  0  0
  -31.5832  -18.8936   23.6391 C   0  0  0  0  0  0  0  0  0  0  0  0
  -30.2143  -18.8541   23.3743 C   0  0  0  0  0  0  0  0  0  0  0  0
  -30.5264  -16.8511   22.0600 C   0  0  0  0  0  0  0  0  0  0  0  0
  -22.1477   -8.3931   21.8784 C   0  0  0  0  0  0  0  0  0  0  0  0
  -26.5448  -23.6425   21.3656 C   0  0  0  0  0  0  0  0  0  0  0  0
  -21.9200   -6.4420   23.1681 C   0  0  0  0  0  0  0  0  0  0  0  0
  -22.9980   -4.6566   25.0209 C   0  0  0  0  0  0  0  0  0  0  0  0
  -32.4238  -17.9119   23.1143 C   0  0  0  0  0  0  0  0  0  0  0  0
  -21.2752   -6.2270   24.3862 C   0  0  0  0  0  0  0  0  0  0  0  0
  -24.5165  -11.7063   20.7342 C   0  0  0  0  0  0  0  0  0  0  0  0
  -25.2324  -13.7206   20.2192 C   0  0  0  0  0  0  0  0  0  0  0  0
  -29.1215  -20.1433   25.2637 C   0  0  0  0  0  0  0  0  0  0  0  0
  -22.8114  -13.6292   20.8349 C   0  0  0  0  0  0  0  0  0  0  0  0
  -28.7365  -28.3346   19.7394 C   0  0  0  0  0  0  0  0  0  0  0  0
  -26.2614  -29.8676   21.1698 C   0  0  0  0  0  0  0  0  0  0  0  0
  -23.3844  -29.6519   22.9928 C   0  0  0  0  0  0  0  0  0  0  0  0
  -30.6843  -14.7623   20.6605 C   0  0  0  0  0  0  0  0  0  0  0  0
  -32.1097  -31.2896   17.3007 C   0  0  0  0  0  0  0  0  0  0  0  0
  -26.7591  -27.0880   18.7950 C   0  0  0  0  0  0  0  0  0  0  0  0
  -26.5476  -27.4233   21.7255 C   0  0  0  0  0  0  0  0  0  0  0  0
  -31.2291  -31.4313   18.5396 C   0  0  0  0  0  0  0  0  0  0  0  0
  -29.7210  -11.9896   18.6452 C   0  0  0  0  0  0  0  0  0  0  0  0
  -31.3774  -30.2107   19.4423 C   0  0  0  0  0  0  0  0  0  0  0  0
  -28.2471  -11.7790   18.9990 C   0  0  0  0  0  0  0  0  0  0  0  0
  -30.5415  -12.4134   19.8622 C   0  0  0  0  0  0  0  0  0  0  0  0
  -28.5859  -20.7473   23.0449 C   0  0  0  0  0  0  0  0  0  0  0  0
  -28.5433  -13.3654   20.9439 C   0  0  0  0  0  0  0  0  0  0  0  0
  -30.9267  -28.9340   18.7223 C   0  0  1  0  0  0  0  0  0  0  0  0
  -28.2088  -21.3598   25.3176 C   0  0  1  0  0  0  0  0  0  0  0  0
  -27.2537  -28.3490   19.4969 C   0  0  1  0  0  0  0  0  0  0  0  0
  -27.5110  -21.3224   23.9572 C   0  0  1  0  0  0  0  0  0  0  0  0
  -27.6644  -13.0006   19.7363 C   0  0  2  0  0  0  0  0  0  0  0  0
  -32.1738  -19.9782   24.4808 C   0  0  0  0  0  0  0  0  0  0  0  0
  -27.2471  -21.3138   26.4929 C   0  0  0  0  0  0  0  0  0  0  0  0
  -21.6053  -31.0775   24.0415 C   0  0  0  0  0  0  0  0  0  0  0  0
  -28.1828  -30.6038   23.4229 C   0  0  0  0  0  0  0  0  0  0  0  0
  -26.1964  -31.1685   24.8384 C   0  0  0  0  0  0  0  0  0  0  0  0
  -26.6289  -32.4389   22.7356 C   0  0  0  0  0  0  0  0  0  0  0  0
  -21.2616  -28.4265   21.3341 C   0  0  0  0  0  0  0  0  0  0  0  0
  -27.0145  -22.6818   23.4898 C   0  0  0  0  0  0  0  0  0  1  0  0
  -25.7997  -30.0546   22.5949 C   0  0  1  0  0  0  0  0  0  0  0  0
  -22.0225  -30.2959   22.8055 C   0  0  2  0  0  0  0  0  0  0  0  0
  -26.7046  -31.0406   23.3865 C   0  0  0  0  0  0  0  0  0  0  0  0
  -25.8088  -11.5375   20.4419 N   0  0  0  0  0  0  0  0  0  0  0  0
  -26.2164  -12.7802   20.1324 N   0  0  0  0  0  0  0  0  0  0  0  0
  -29.3380  -19.8496   23.9021 N   0  0  0  0  0  0  0  0  0  0  0  0
  -26.6108  -28.5625   20.7951 N   0  0  0  0  0  0  0  0  0  0  0  0
  -29.9320  -13.5785   20.5071 N   0  0  0  0  0  0  0  0  0  0  0  0
  -25.4704  -15.0203   19.9426 N   0  0  0  0  0  0  0  0  0  0  0  0
  -21.7607  -12.7928   21.2357 N   0  0  0  0  0  0  0  0  0  0  0  0
  -29.9897  -15.8135   21.2580 N   0  0  0  0  0  0  0  0  0  0  0  0
  -29.4821  -28.8511   18.6969 N   0  0  0  0  0  0  0  0  0  0  0  0
  -24.3994  -30.4571   22.5209 N   0  0  0  0  0  0  0  0  0  0  0  0
  -20.9900  -29.2554   22.5366 N   0  3  0  0  0  0  0  0  0  0  0  0
  -29.5905  -19.6144   26.2613 O   0  0  0  0  0  0  0  0  0  0  0  0
  -22.5922  -14.8528   20.6670 O   0  0  0  0  0  0  0  0  0  0  0  0
  -29.1718  -27.8893   20.7948 O   0  0  0  0  0  0  0  0  0  0  0  0
  -26.3034  -30.8422   20.4149 O   0  0  0  0  0  0  0  0  0  0  0  0
  -23.5332  -28.5468   23.5097 O   0  0  0  0  0  0  0  0  0  0  0  0
  -31.8497  -14.8465   20.2646 O   0  0  0  0  0  0  0  0  0  0  0  0
  -21.3857   -7.3273   22.2471 O   0  0  0  0  0  0  0  0  0  0  0  0
  -26.4719  -22.5520   22.1764 O   0  0  0  0  0  0  0  0  0  1  0  0
  -23.5150   -3.7982   25.9098 F   0  0  0  0  0  0  0  0  0  0  0  0
  -33.7409  -17.9416   23.3615 F   0  0  0  0  0  0  0  0  0  0  0  0
  -20.1371   -6.8743   24.6716 F   0  0  0  0  0  0  0  0  0  0  0  0
  1  2  1  0  0  0  0
  1  5  2  0  0  0  0
  2  6  2  0  0  0  0
  3  8  2  0  0  0  0
  3 17  1  0  0  0  0
  4  9  1  0  0  0  0
  4 17  2  0  0  0  0
  5 19  1  0  0  0  0
  6 21  1  0  0  0  0
  7 10  2  0  0  0  0
  7 20  1  0  0  0  0
  8 26  1  0  0  0  0
  9 26  2  0  0  0  0
 10 27  1  0  0  0  0
 11 12  2  0  0  0  0
 11 28  1  0  0  0  0
 12 29  1  0  0  0  0
 13 22  1  0  0  0  0
 13 27  2  0  0  0  0
 14 24  1  0  0  0  0
 14 25  2  0  0  0  0
 15 25  1  0  0  0  0
 15 30  2  0  0  0  0
 16 29  2  0  0  0  0
 16 31  1  0  0  0  0
 17 32  1  0  0  0  0
 18 32  1  0  0  0  0
 18 33  2  0  0  0  0
 18 35  1  0  0  0  0
 19 21  2  0  0  0  0
 19 40  1  0  0  0  0
 20 22  2  0  0  0  0
 20 41  1  0  0  0  0
 21 50  1  0  0  0  0
 22 42  1  0  0  0  0
 23 24  2  0  0  0  0
 23 30  1  0  0  0  0
 23 55  1  0  0  0  0
 24 68  1  0  0  0  0
 25 73  1  0  0  0  0
 26 83  1  0  0  0  0
 27 84  1  0  0  0  0
 28 31  2  0  0  0  0
 28 83  1  0  0  0  0
 29 85  1  0  0  0  0
 30 86  1  0  0  0  0
 31 87  1  0  0  0  0
 32 66  2  0  0  0  0
 33 67  1  0  0  0  0
 33 71  1  0  0  0  0
 34 51  1  0  0  0  0
 34 68  1  0  0  0  0
 34 77  2  0  0  0  0
 35 72  1  0  0  0  0
 35 78  2  0  0  0  0
 36 52  1  0  0  0  0
 36 74  1  0  0  0  0
 36 79  2  0  0  0  0
 37 63  1  0  0  0  0
 37 69  1  0  0  0  0
 37 80  2  0  0  0  0
 38 64  1  0  0  0  0
 38 75  1  0  0  0  0
 38 81  2  0  0  0  0
 39 70  1  0  0  0  0
 39 73  1  0  0  0  0
 39 82  2  0  0  0  0
 40 43  1  0  0  0  0
 41 52  1  0  0  0  0
 42 69  1  0  0  0  0
 43 45  1  0  0  0  0
 44 46  1  0  0  0  0
 44 47  1  0  0  0  0
 45 50  1  0  0  0  0
 46 54  1  0  0  0  0
 47 70  1  0  0  0  0
 48 53  1  0  0  0  0
 48 68  1  0  0  0  0
 49 54  1  0  0  0  0
 49 70  1  0  0  0  0
 50 74  1  0  0  0  0
 51 53  1  0  0  0  0
 51 56  1  0  0  0  0
 52 69  1  0  0  0  0
 53 62  1  0  0  0  0
 54 67  1  0  0  0  0
 57 64  1  0  0  0  0
 58 65  1  0  0  0  0
 59 65  1  0  0  0  0
 60 65  1  0  0  0  0
 61 76  1  0  0  0  0
 62 84  1  0  0  0  0
 63 65  1  0  0  0  0
 63 75  1  0  0  0  0
 64 76  1  0  0  0  0
 66 67  1  0  0  0  0
M  CHG  1  76   1
M  ISO  4  39 100  62 101  73 100  84 101
M  END
> <Batch ID>
0066

> <Smiles>
CNC(C)C(=O)NC(C(=O)N1Cc2cc([101O:1][101CH2:1]C3CN(c4cc([100NH:0][100C:0](=O)N5CCCC(n6nc(-c7ccc(Oc8ccc(F)cc8F)cc7)c(C(N)=O)c6N)C5)cc(F)c4C)C(=O)C3C)ccc2CC1C(=O)NC1CCCc2ccccc21)C(C)(C)C

> <Shape>
0.294

> <Color>
0.225

> <Negative vol penalty>
0.000

$$$$

  -OEChem-04042323213D

 88 97  0     1  0  0  0  0  0999 V2000
  -28.5419  -35.6286   23.6735 C   0  0  0  0  0  0  0  0  0  0  0  0
  -28.7378  -34.2842   23.3744 C   0  0  0  0  0  0  0  0  0  0  0  0
  -23.9701  -11.8743   23.9080 C   0  0  0  0  0  0  0  0  0  0  0  0
  -24.7817   -9.8788   22.8141 C   0  0  0  0  0  0  0  0  0  0  0  0
  -27.3251  -36.0531   24.2054 C   0  0  0  0  0  0  0  0  0  0  0  0
  -27.7173  -33.3632   23.6081 C   0  0  0  0  0  0  0  0  0  0  0  0
  -27.0827  -30.1458   19.7492 C   0  0  0  0  0  0  0  0  0  0  0  0
  -23.6286  -11.1201   25.0305 C   0  0  0  0  0  0  0  0  0  0  0  0
  -24.4402   -9.1246   23.9366 C   0  0  0  0  0  0  0  0  0  0  0  0
  -27.9943  -29.0967   19.6384 C   0  0  0  0  0  0  0  0  0  0  0  0
  -21.1304   -9.0472   25.9721 C   0  0  0  0  0  0  0  0  0  0  0  0
  -19.8834   -9.2787   26.5527 C   0  0  0  0  0  0  0  0  0  0  0  0
  -26.3950  -27.6073   20.6597 C   0  0  0  0  0  0  0  0  0  0  0  0
  -27.7049  -20.4185   18.0672 C   0  0  0  0  0  0  0  0  0  0  0  0
  -29.9527  -18.7662   18.0627 C   0  0  0  0  0  0  0  0  0  0  0  0
  -20.9624   -9.8930   28.6252 C   0  0  0  0  0  0  0  0  0  0  0  0
  -24.5466  -11.2537   22.7997 C   0  0  0  0  0  0  0  0  0  0  0  0
  -24.0347  -12.7997   20.8362 C   0  0  0  0  0  0  0  0  0  0  0  0
  -26.2857  -35.1384   24.4368 C   0  0  0  0  0  0  0  0  0  0  0  0
  -25.8224  -29.9356   20.3270 C   0  0  0  0  0  0  0  0  0  0  0  0
  -26.4858  -33.7756   24.1449 C   0  0  0  0  0  0  0  0  0  0  0  0
  -25.4683  -28.6548   20.7743 C   0  0  0  0  0  0  0  0  0  0  0  0
  -27.5557  -19.0378   18.1971 C   0  0  0  0  0  0  0  0  0  0  0  0
  -28.9779  -20.9732   17.9351 C   0  0  0  0  0  0  0  0  0  0  0  0
  -28.6796  -18.2116   18.1949 C   0  0  0  0  0  0  0  0  0  0  0  0
  -23.8636   -9.7452   25.0449 C   0  0  0  0  0  0  0  0  0  0  0  0
  -27.6516  -27.8279   20.0963 C   0  0  0  0  0  0  0  0  0  0  0  0
  -22.2934   -9.2385   26.7182 C   0  0  0  0  0  0  0  0  0  0  0  0
  -19.7994   -9.7016   27.8792 C   0  0  0  0  0  0  0  0  0  0  0  0
  -22.2094   -9.6614   28.0447 C   0  0  0  0  0  0  0  0  0  0  0  0
  -30.1018  -20.1470   17.9329 C   0  0  0  0  0  0  0  0  0  0  0  0
  -24.8991  -12.0322   21.6397 C   0  0  0  0  0  0  0  0  0  0  0  0
  -24.8507  -13.3391   19.8720 C   0  0  0  0  0  0  0  0  0  0  0  0
  -29.6885  -22.9732   16.6603 C   0  0  0  0  0  0  0  0  0  0  0  0
  -22.6206  -13.0065   20.9512 C   0  0  0  0  0  0  0  0  0  0  0  0
  -24.3067  -31.0735   22.8788 C   0  0  0  0  0  0  0  0  0  0  0  0
  -21.8214  -29.3687   21.6791 C   0  0  0  0  0  0  0  0  0  0  0  0
  -21.3383  -26.1331   20.1577 C   0  0  0  0  0  0  0  0  0  0  0  0
  -29.5730  -15.8607   18.3407 C   0  0  0  0  0  0  0  0  0  0  0  0
  -25.0046  -35.6369   25.0573 C   0  0  0  0  0  0  0  0  0  0  0  0
  -24.8405  -31.0716   20.4148 C   0  0  0  0  0  0  0  0  0  0  0  0
  -24.1203  -28.3722   21.3839 C   0  0  0  0  0  0  0  0  0  0  0  0
  -30.0468  -24.4463   16.7313 C   0  0  0  0  0  0  0  0  0  0  0  0
  -23.8420  -34.6565   24.9252 C   0  0  0  0  0  0  0  0  0  0  0  0
  -29.1597  -25.2858   17.6268 C   0  0  0  0  0  0  0  0  0  0  0  0
  -29.6632  -12.3176   18.6810 C   0  0  0  0  0  0  0  0  0  0  0  0
  -24.2875  -33.2465   25.2995 C   0  0  0  0  0  0  0  0  0  0  0  0
  -28.3607  -11.9907   19.4150 C   0  0  0  0  0  0  0  0  0  0  0  0
  -30.2774  -13.6274   19.1720 C   0  0  0  0  0  0  0  0  0  0  0  0
  -28.0700  -14.4567   19.8852 C   0  0  0  0  0  0  0  0  0  0  0  0
  -28.3825  -23.2422   18.7864 C   0  0  0  0  0  0  0  0  0  0  0  0
  -25.3941  -32.7502   24.3611 C   0  0  1  0  0  0  0  0  0  0  0  0
  -23.7775  -30.8609   21.4887 C   0  0  1  0  0  0  0  0  0  0  0  0
  -27.3801  -13.1793   19.3794 C   0  0  2  0  0  0  0  0  0  0  0  0
  -28.9798  -24.6415   19.0030 C   0  0  1  0  0  0  0  0  0  0  0  0
  -26.1802  -18.4711   18.3368 C   0  0  0  0  0  0  0  0  0  0  0  0
  -30.3109  -24.5491   19.7719 C   0  0  0  0  0  0  0  0  0  0  0  0
  -19.5929  -25.3346   18.5411 C   0  0  0  0  0  0  0  0  0  0  0  0
  -20.3423  -28.4420   24.1819 C   0  0  0  0  0  0  0  0  0  0  0  0
  -19.6270  -26.4019   22.9192 C   0  0  0  0  0  0  0  0  0  0  0  0
  -18.9090  -28.6617   22.1443 C   0  0  0  0  0  0  0  0  0  0  0  0
  -23.3824  -25.2242   18.2201 C   0  0  0  0  0  0  0  0  0  0  0  0
  -28.0009  -25.4901   19.8344 C   0  0  0  0  0  0  0  0  0  1  0  0
  -21.3175  -27.9549   21.8414 C   0  0  1  0  0  0  0  0  0  0  0  0
  -21.0135  -25.8530   18.7015 C   0  0  2  0  0  0  0  0  0  0  0  0
  -20.0766  -27.8715   22.7744 C   0  0  0  0  0  0  0  0  0  0  0  0
  -26.1671  -12.0773   21.2221 N   0  0  0  0  0  0  0  0  0  0  0  0
  -26.1053  -12.8796   20.1457 N   0  0  0  0  0  0  0  0  0  0  0  0
  -29.0969  -22.4087   17.8024 N   0  0  0  0  0  0  0  0  0  0  0  0
  -23.1972  -29.5170   21.4535 N   0  0  0  0  0  0  0  0  0  0  0  0
  -29.2921  -14.7088   19.1057 N   0  0  0  0  0  0  0  0  0  0  0  0
  -24.6102  -14.1570   18.8253 N   0  0  0  0  0  0  0  0  0  0  0  0
  -21.9365  -12.3777   22.0004 N   0  0  0  0  0  0  0  0  0  0  0  0
  -28.5487  -16.8068   18.3258 N   0  0  0  0  0  0  0  0  0  0  0  0
  -24.8328  -32.3330   23.0940 N   0  0  0  0  0  0  0  0  0  0  0  0
  -21.0868  -27.4466   20.4935 N   0  0  0  0  0  0  0  0  0  0  0  0
  -21.9506  -24.8346   18.1484 N   0  3  0  0  0  0  0  0  0  0  0  0
  -29.9893  -22.3557   15.6344 O   0  0  0  0  0  0  0  0  0  0  0  0
  -21.9799  -13.7145   20.1377 O   0  0  0  0  0  0  0  0  0  0  0  0
  -24.2411  -30.1627   23.6961 O   0  0  0  0  0  0  0  0  0  0  0  0
  -21.0226  -30.3065   21.7428 O   0  0  0  0  0  0  0  0  0  0  0  0
  -21.7682  -25.2719   20.9219 O   0  0  0  0  0  0  0  0  0  0  0  0
  -30.6323  -15.9856   17.7208 O   0  0  0  0  0  0  0  0  0  0  0  0
  -23.5307   -9.0089   26.1401 O   0  0  0  0  0  0  0  0  0  0  0  0
  -28.5397  -26.8023   19.9900 O   0  0  0  0  0  0  0  0  0  1  0  0
  -18.6019   -9.9254   28.4361 F   0  0  0  0  0  0  0  0  0  0  0  0
  -23.3232   -9.8481   28.7661 F   0  0  0  0  0  0  0  0  0  0  0  0
  -31.6962  -20.7925   17.7706 Cl  0  0  0  0  0  0  0  0  0  0  0  0
  1  2  1  0  0  0  0
  1  5  2  0  0  0  0
  2  6  2  0  0  0  0
  3  8  2  0  0  0  0
  3 17  1  0  0  0  0
  4  9  1  0  0  0  0
  4 17  2  0  0  0  0
  5 19  1  0  0  0  0
  6 21  1  0  0  0  0
  7 10  2  0  0  0  0
  7 20  1  0  0  0  0
  8 26  1  0  0  0  0
  9 26  2  0  0  0  0
 10 27  1  0  0  0  0
 11 12  2  0  0  0  0
 11 28  1  0  0  0  0
 12 29  1  0  0  0  0
 13 22  1  0  0  0  0
 13 27  2  0  0  0  0
 14 23  2  0  0  0  0
 14 24  1  0  0  0  0
 15 25  2  0  0  0  0
 15 31  1  0  0  0  0
 16 29  2  0  0  0  0
 16 30  1  0  0  0  0
 17 32  1  0  0  0  0
 18 32  1  0  0  0  0
 18 33  2  0  0  0  0
 18 35  1  0  0  0  0
 19 21  2  0  0  0  0
 19 40  1  0  0  0  0
 20 22  2  0  0  0  0
 20 41  1  0  0  0  0
 21 52  1  0  0  0  0
 22 42  1  0  0  0  0
 23 25  1  0  0  0  0
 23 56  1  0  0  0  0
 24 31  2  0  0  0  0
 24 69  1  0  0  0  0
 25 74  1  0  0  0  0
 26 84  1  0  0  0  0
 27 85  1  0  0  0  0
 28 30  2  0  0  0  0
 28 84  1  0  0  0  0
 29 86  1  0  0  0  0
 30 87  1  0  0  0  0
 31 88  1  0  0  0  0
 32 67  2  0  0  0  0
 33 68  1  0  0  0  0
 33 72  1  0  0  0  0
 34 43  1  0  0  0  0
 34 69  1  0  0  0  0
 34 78  2  0  0  0  0
 35 73  1  0  0  0  0
 35 79  2  0  0  0  0
 36 53  1  0  0  0  0
 36 75  1  0  0  0  0
 36 80  2  0  0  0  0
 37 64  1  0  0  0  0
 37 70  1  0  0  0  0
 37 81  2  0  0  0  0
 38 65  1  0  0  0  0
 38 76  1  0  0  0  0
 38 82  2  0  0  0  0
 39 71  1  0  0  0  0
 39 74  1  0  0  0  0
 39 83  2  0  0  0  0
 40 44  1  0  0  0  0
 41 53  1  0  0  0  0
 42 70  1  0  0  0  0
 43 45  1  0  0  0  0
 44 47  1  0  0  0  0
 45 55  1  0  0  0  0
 46 48  1  0  0  0  0
 46 49  1  0  0  0  0
 47 52  1  0  0  0  0
 48 54  1  0  0  0  0
 49 71  1  0  0  0  0
 50 54  1  0  0  0  0
 50 71  1  0  0  0  0
 51 55  1  0  0  0  0
 51 69  1  0  0  0  0
 52 75  1  0  0  0  0
 53 70  1  0  0  0  0
 54 68  1  0  0  0  0
 55 57  1  0  0  0  0
 55 63  1  0  0  0  0
 58 65  1  0  0  0  0
 59 66  1  0  0  0  0
 60 66  1  0  0  0  0
 61 66  1  0  0  0  0
 62 77  1  0  0  0  0
 63 85  1  0  0  0  0
 64 66  1  0  0  0  0
 64 76  1  0  0  0  0
 65 77  1  0  0  0  0
 67 68  1  0  0  0  0
M  CHG  1  77   1
M  ISO  4  39 100  63 101  74 100  85 101
M  END
> <Batch ID>
0066

> <Smiles>
CNC(C)C(=O)NC(C(=O)N1Cc2cc([101O:1][101CH2:1]C3(C)CCC(=O)N(c4cc(C)c([100NH:0][100C:0](=O)N5CCCC(n6nc(-c7ccc(Oc8ccc(F)cc8F)cc7)c(C(N)=O)c6N)C5)cc4Cl)C3)ccc2CC1C(=O)NC1CCCc2ccccc21)C(C)(C)C

> <Shape>
0.299

> <Color>
0.111

> <Negative vol penalty>
0.000

$$$$

  -OEChem-04042323213D

 89 98  0     1  0  0  0  0  0999 V2000
  -22.0461  -29.7215   13.6316 C   0  0  0  0  0  0  0  0  0  0  0  0
  -23.0660  -29.1803   14.4076 C   0  0  0  0  0  0  0  0  0  0  0  0
  -21.4729  -11.0091   21.6993 C   0  0  0  0  0  0  0  0  0  0  0  0
  -23.8649  -11.2839   21.4995 C   0  0  0  0  0  0  0  0  0  0  0  0
  -21.7466  -31.0800   13.7250 C   0  0  0  0  0  0  0  0  0  0  0  0
  -23.7879  -29.9976   15.2767 C   0  0  0  0  0  0  0  0  0  0  0  0
  -24.4524  -27.8832   19.8300 C   0  0  0  0  0  0  0  0  0  0  0  0
  -30.1090  -18.1998   20.6843 C   0  0  0  0  0  0  0  0  0  0  0  0
  -30.2879  -19.5717   20.5073 C   0  0  0  0  0  0  0  0  0  0  0  0
  -21.6210   -9.6279   21.5737 C   0  0  0  0  0  0  0  0  0  0  0  0
  -24.0130   -9.9026   21.3739 C   0  0  0  0  0  0  0  0  0  0  0  0
  -25.4405  -26.9058   19.9401 C   0  0  0  0  0  0  0  0  0  0  0  0
  -22.5358   -7.0319   23.5377 C   0  0  0  0  0  0  0  0  0  0  0  0
  -21.8221   -6.2206   24.4197 C   0  0  0  0  0  0  0  0  0  0  0  0
  -26.9415  -28.5385   20.8890 C   0  0  0  0  0  0  0  0  0  0  0  0
  -20.6892   -5.1874   22.5525 C   0  0  0  0  0  0  0  0  0  0  0  0
  -22.5948  -11.8372   21.6621 C   0  0  0  0  0  0  0  0  0  0  0  0
  -21.8863  -13.9647   22.8783 C   0  0  0  0  0  0  0  0  0  0  0  0
  -22.4587  -31.9125   14.6027 C   0  0  0  0  0  0  0  0  0  0  0  0
  -24.7055  -29.2004   20.2392 C   0  0  0  0  0  0  0  0  0  0  0  0
  -23.4986  -31.3688   15.3809 C   0  0  0  0  0  0  0  0  0  0  0  0
  -25.9541  -29.5302   20.7854 C   0  0  0  0  0  0  0  0  0  0  0  0
  -28.8661  -17.6199   20.4296 C   0  0  0  0  0  0  0  0  0  0  0  0
  -29.2240  -20.3639   20.0758 C   0  0  0  0  0  0  0  0  0  0  0  0
  -27.8022  -18.4121   19.9980 C   0  0  0  0  0  0  0  0  0  0  0  0
  -22.8911   -9.0746   21.4110 C   0  0  0  0  0  0  0  0  0  0  0  0
  -26.6862  -27.2340   20.4669 C   0  0  0  0  0  0  0  0  0  0  0  0
  -22.3261   -6.9211   22.1631 C   0  0  0  0  0  0  0  0  0  0  0  0
  -20.8989   -5.2983   23.9271 C   0  0  0  0  0  0  0  0  0  0  0  0
  -21.4029   -5.9988   21.6705 C   0  0  0  0  0  0  0  0  0  0  0  0
  -27.9811  -19.7840   19.8211 C   0  0  0  0  0  0  0  0  0  0  0  0
  -22.4424  -13.2641   21.7912 C   0  0  0  0  0  0  0  0  0  0  0  0
  -21.9723  -15.2865   22.5150 C   0  0  0  0  0  0  0  0  0  0  0  0
  -30.6630  -22.3108   19.5248 C   0  0  0  0  0  0  0  0  0  0  0  0
  -21.3408  -13.4654   24.1066 C   0  0  0  0  0  0  0  0  0  0  0  0
  -24.7710  -32.0271   18.7869 C   0  0  0  0  0  0  0  0  0  0  0  0
  -25.1808  -33.1335   21.8085 C   0  0  0  0  0  0  0  0  0  0  0  0
  -26.2089  -32.5193   25.0042 C   0  0  0  0  0  0  0  0  0  0  0  0
  -25.5847  -18.2752   18.8106 C   0  0  0  0  0  0  0  0  0  0  0  0
  -22.1304  -33.3841   14.6344 C   0  0  0  0  0  0  0  0  0  0  0  0
  -23.6203  -30.2370   20.1387 C   0  0  0  0  0  0  0  0  0  0  0  0
  -26.2695  -30.9251   21.2580 C   0  0  0  0  0  0  0  0  0  0  0  0
  -22.6934  -34.1077   15.8549 C   0  0  0  0  0  0  0  0  0  0  0  0
  -22.0317  -18.1112   18.6482 C   0  0  0  0  0  0  0  0  0  0  0  0
  -24.1517  -33.7207   16.0794 C   0  0  0  0  0  0  0  0  0  0  0  0
  -21.6828  -16.9171   19.5396 C   0  0  0  0  0  0  0  0  0  0  0  0
  -23.3218  -17.8761   17.8645 C   0  0  0  0  0  0  0  0  0  0  0  0
  -24.1317  -16.2934   19.5699 C   0  0  0  0  0  0  0  0  0  0  0  0
  -28.2264  -22.6427   19.8669 C   0  0  0  0  0  0  0  0  0  0  0  0
  -24.2877  -32.2181   16.3536 C   0  0  1  0  0  0  0  0  0  0  0  0
  -24.1581  -31.6643   20.1099 C   0  0  1  0  0  0  0  0  0  0  0  0
  -22.8746  -16.5098   20.4281 C   0  0  2  0  0  0  0  0  0  0  0  0
  -28.5314  -24.0606   20.3179 C   0  0  2  0  0  0  0  0  0  0  0  0
  -30.7960  -23.8449   19.6345 C   0  0  0  0  0  0  0  0  0  0  0  0
  -28.7039  -16.1476   20.6274 C   0  0  0  0  0  0  0  0  0  0  0  0
  -31.6873  -24.3537   18.4926 C   0  0  0  0  0  0  0  0  0  0  0  0
  -31.4772  -24.1730   20.9719 C   0  0  0  0  0  0  0  0  0  0  0  0
  -26.4579  -33.6292   27.2411 C   0  0  0  0  0  0  0  0  0  0  0  0
  -27.6567  -34.6043   20.8004 C   0  0  0  0  0  0  0  0  0  0  0  0
  -28.3719  -34.8894   23.1827 C   0  0  0  0  0  0  0  0  0  0  0  0
  -26.2402  -35.9150   22.3909 C   0  0  0  0  0  0  0  0  0  0  0  0
  -24.3412  -30.6151   26.2866 C   0  0  0  0  0  0  0  0  0  0  0  0
  -27.3220  -24.9674   20.1290 C   0  0  0  0  0  0  0  0  0  1  0  0
  -26.3721  -33.4085   22.6940 C   0  0  1  0  0  0  0  0  0  0  0  0
  -25.5530  -32.7984   26.3445 C   0  0  2  0  0  0  0  0  0  0  0  0
  -27.1553  -34.6784   22.2564 C   0  0  0  0  0  0  0  0  0  0  0  0
  -22.8513  -14.0738   20.8108 N   0  0  0  0  0  0  0  0  0  0  0  0
  -22.5518  -15.2968   21.2804 N   0  0  0  0  0  0  0  0  0  0  0  0
  -29.4134  -21.7827   19.8928 N   0  0  0  0  0  0  0  0  0  0  0  0
  -25.1777  -31.9049   21.1331 N   0  0  0  0  0  0  0  0  0  0  0  0
  -24.4076  -17.4983   18.7718 N   0  0  0  0  0  0  0  0  0  0  0  0
  -21.6079  -16.4293   23.1344 N   0  0  0  0  0  0  0  0  0  0  0  0
  -22.1997  -13.3042   25.2024 N   0  0  0  0  0  0  0  0  0  0  0  0
  -26.5335  -17.8387   19.7345 N   0  0  0  0  0  0  0  0  0  0  0  0
  -23.9046  -31.9162   17.7161 N   0  0  0  0  0  0  0  0  0  0  0  0
  -25.8619  -33.4621   24.0597 N   0  0  0  0  0  0  0  0  0  0  0  0
  -25.2423  -31.5204   27.0452 N   0  3  0  0  0  0  0  0  0  0  0  0
  -31.6391  -21.6405   19.1777 O   0  0  0  0  0  0  0  0  0  0  0  0
  -20.1310  -13.1553   24.2240 O   0  0  0  0  0  0  0  0  0  0  0  0
  -25.9428  -32.3827   18.7410 O   0  0  0  0  0  0  0  0  0  0  0  0
  -24.2825  -33.9748   21.7249 O   0  0  0  0  0  0  0  0  0  0  0  0
  -26.9573  -31.5630   24.8151 O   0  0  0  0  0  0  0  0  0  0  0  0
  -25.7283  -19.2717   18.0975 O   0  0  0  0  0  0  0  0  0  0  0  0
  -29.5835  -24.5690   19.5115 O   0  0  0  0  0  0  0  0  0  0  0  0
  -23.0360   -7.7268   21.2887 O   0  0  0  0  0  0  0  0  0  0  0  0
  -27.6526  -26.2820   20.5749 O   0  0  0  0  0  0  0  0  0  1  0  0
  -20.2147   -4.5181   24.7742 F   0  0  0  0  0  0  0  0  0  0  0  0
  -21.1980   -5.8869   20.3509 F   0  0  0  0  0  0  0  0  0  0  0  0
  -26.9587  -20.5473   19.4052 F   0  0  0  0  0  0  0  0  0  0  0  0
  1  2  1  0  0  0  0
  1  5  2  0  0  0  0
  2  6  2  0  0  0  0
  3 10  2  0  0  0  0
  3 17  1  0  0  0  0
  4 11  1  0  0  0  0
  4 17  2  0  0  0  0
  5 19  1  0  0  0  0
  6 21  1  0  0  0  0
  7 12  2  0  0  0  0
  7 20  1  0  0  0  0
  8  9  2  0  0  0  0
  8 23  1  0  0  0  0
  9 24  1  0  0  0  0
 10 26  1  0  0  0  0
 11 26  2  0  0  0  0
 12 27  1  0  0  0  0
 13 14  2  0  0  0  0
 13 28  1  0  0  0  0
 14 29  1  0  0  0  0
 15 22  1  0  0  0  0
 15 27  2  0  0  0  0
 16 29  2  0  0  0  0
 16 30  1  0  0  0  0
 17 32  1  0  0  0  0
 18 32  1  0  0  0  0
 18 33  2  0  0  0  0
 18 35  1  0  0  0  0
 19 21  2  0  0  0  0
 19 40  1  0  0  0  0
 20 22  2  0  0  0  0
 20 41  1  0  0  0  0
 21 50  1  0  0  0  0
 22 42  1  0  0  0  0
 23 25  2  0  0  0  0
 23 55  1  0  0  0  0
 24 31  2  0  0  0  0
 24 69  1  0  0  0  0
 25 31  1  0  0  0  0
 25 74  1  0  0  0  0
 26 85  1  0  0  0  0
 27 86  1  0  0  0  0
 28 30  2  0  0  0  0
 28 85  1  0  0  0  0
 29 87  1  0  0  0  0
 30 88  1  0  0  0  0
 31 89  1  0  0  0  0
 32 67  2  0  0  0  0
 33 68  1  0  0  0  0
 33 72  1  0  0  0  0
 34 54  1  0  0  0  0
 34 69  1  0  0  0  0
 34 78  2  0  0  0  0
 35 73  1  0  0  0  0
 35 79  2  0  0  0  0
 36 51  1  0  0  0  0
 36 75  1  0  0  0  0
 36 80  2  0  0  0  0
 37 64  1  0  0  0  0
 37 70  1  0  0  0  0
 37 81  2  0  0  0  0
 38 65  1  0  0  0  0
 38 76  1  0  0  0  0
 38 82  2  0  0  0  0
 39 71  1  0  0  0  0
 39 74  1  0  0  0  0
 39 83  2  0  0  0  0
 40 43  1  0  0  0  0
 41 51  1  0  0  0  0
 42 70  1  0  0  0  0
 43 45  1  0  0  0  0
 44 46  1  0  0  0  0
 44 47  1  0  0  0  0
 45 50  1  0  0  0  0
 46 52  1  0  0  0  0
 47 71  1  0  0  0  0
 48 52  1  0  0  0  0
 48 71  1  0  0  0  0
 49 53  1  0  0  0  0
 49 69  1  0  0  0  0
 50 75  1  0  0  0  0
 51 70  1  0  0  0  0
 52 68  1  0  0  0  0
 53 63  1  0  0  0  0
 53 84  1  0  0  0  0
 54 56  1  0  0  0  0
 54 57  1  0  0  0  0
 54 84  1  0  0  0  0
 58 65  1  0  0  0  0
 59 66  1  0  0  0  0
 60 66  1  0  0  0  0
 61 66  1  0  0  0  0
 62 77  1  0  0  0  0
 63 86  1  0  0  0  0
 64 66  1  0  0  0  0
 64 76  1  0  0  0  0
 65 77  1  0  0  0  0
 67 68  1  0  0  0  0
M  CHG  1  77   1
M  ISO  4  39 100  63 101  74 100  86 101
M  END
> <Batch ID>
0066

> <Smiles>
CNC(C)C(=O)NC(C(=O)N1Cc2cc([101O:1][101CH2:1]C3CN(c4ccc(C)c([100NH:0][100C:0](=O)N5CCCC(n6nc(-c7ccc(Oc8ccc(F)cc8F)cc7)c(C(N)=O)c6N)C5)c4F)C(=O)C(C)(C)O3)ccc2CC1C(=O)NC1CCCc2ccccc21)C(C)(C)C

> <Shape>
0.276

> <Color>
0.073

> <Negative vol penalty>
0.000

$$$$

  -OEChem-04042323213D

 91100  0     1  0  0  0  0  0999 V2000
  -26.3756  -38.5679   22.8929 C   0  0  0  0  0  0  0  0  0  0  0  0
  -27.0678  -37.6780   22.0779 C   0  0  0  0  0  0  0  0  0  0  0  0
  -25.7933  -11.6226   19.2621 C   0  0  0  0  0  0  0  0  0  0  0  0
  -26.4565  -11.6550   21.5850 C   0  0  0  0  0  0  0  0  0  0  0  0
  -25.6578  -38.0930   23.9898 C   0  0  0  0  0  0  0  0  0  0  0  0
  -27.0435  -36.3126   22.3600 C   0  0  0  0  0  0  0  0  0  0  0  0
  -27.1644  -29.9352   19.0995 C   0  0  0  0  0  0  0  0  0  0  0  0
  -24.4950  -11.2777   19.6375 C   0  0  0  0  0  0  0  0  0  0  0  0
  -25.1581  -11.3101   21.9605 C   0  0  0  0  0  0  0  0  0  0  0  0
  -27.8551  -28.7245   19.1268 C   0  0  0  0  0  0  0  0  0  0  0  0
  -21.0927  -10.0365   19.9657 C   0  0  0  0  0  0  0  0  0  0  0  0
  -20.4583   -9.0193   19.2526 C   0  0  0  0  0  0  0  0  0  0  0  0
  -26.5166  -28.0102   21.0022 C   0  0  0  0  0  0  0  0  0  0  0  0
  -28.5138  -20.2579   16.1134 C   0  0  0  0  0  0  0  0  0  0  0  0
  -30.1408  -20.5064   18.3658 C   0  0  0  0  0  0  0  0  0  0  0  0
  -22.2030   -7.4781   19.8989 C   0  0  0  0  0  0  0  0  0  0  0  0
  -26.7741  -11.8112   20.2358 C   0  0  0  0  0  0  0  0  0  0  0  0
  -28.9875  -11.4276   19.0270 C   0  0  0  0  0  0  0  0  0  0  0  0
  -25.6168  -36.7201   24.2799 C   0  0  0  0  0  0  0  0  0  0  0  0
  -26.1502  -30.1973   20.0318 C   0  0  0  0  0  0  0  0  0  0  0  0
  -26.3256  -35.8190   23.4626 C   0  0  0  0  0  0  0  0  0  0  0  0
  -25.8127  -29.2240   20.9830 C   0  0  0  0  0  0  0  0  0  0  0  0
  -28.8164  -21.5221   16.6190 C   0  0  0  0  0  0  0  0  0  0  0  0
  -29.6299  -21.6464   17.7452 C   0  0  0  0  0  0  0  0  0  0  0  0
  -29.8382  -19.2422   17.8602 C   0  0  0  0  0  0  0  0  0  0  0  0
  -24.1774  -11.1215   20.9868 C   0  0  0  0  0  0  0  0  0  0  0  0
  -27.5332  -27.7629   20.0801 C   0  0  0  0  0  0  0  0  0  0  0  0
  -22.2823   -9.7745   20.6453 C   0  0  0  0  0  0  0  0  0  0  0  0
  -21.0134   -7.7401   19.2192 C   0  0  0  0  0  0  0  0  0  0  0  0
  -29.0246  -19.1179   16.7340 C   0  0  0  0  0  0  0  0  0  0  0  0
  -22.8374   -8.4952   20.6120 C   0  0  0  0  0  0  0  0  0  0  0  0
  -28.1156  -12.1669   19.8486 C   0  0  0  0  0  0  0  0  0  0  0  0
  -30.1294  -12.1884   18.9660 C   0  0  0  0  0  0  0  0  0  0  0  0
  -29.0405  -23.8931   18.7621 C   0  0  0  0  0  0  0  0  0  0  0  0
  -28.7834  -10.1661   18.3770 C   0  0  0  0  0  0  0  0  0  0  0  0
  -25.7112  -32.3591   22.3203 C   0  0  0  0  0  0  0  0  0  0  0  0
  -22.7834  -30.9776   22.5245 C   0  0  0  0  0  0  0  0  0  0  0  0
  -20.8337  -28.2279   21.9906 C   0  0  0  0  0  0  0  0  0  0  0  0
  -31.1794  -18.0346   19.6178 C   0  0  0  0  0  0  0  0  0  0  0  0
  -24.8661  -36.2589   25.5040 C   0  0  0  0  0  0  0  0  0  0  0  0
  -25.3964  -31.4976   19.9720 C   0  0  0  0  0  0  0  0  0  0  0  0
  -24.7183  -29.4482   21.9932 C   0  0  0  0  0  0  0  0  0  0  0  0
  -24.5839  -34.7587   25.5161 C   0  0  0  0  0  0  0  0  0  0  0  0
  -32.6381  -15.3865   21.4984 C   0  0  0  0  0  0  0  0  0  0  0  0
  -25.8383  -33.9765   25.1399 C   0  0  0  0  0  0  0  0  0  0  0  0
  -31.7268  -14.1916   21.2092 C   0  0  0  0  0  0  0  0  0  0  0  0
  -31.2026  -24.8790   18.6297 C   0  0  0  0  0  0  0  0  0  0  0  0
  -31.8489  -16.6907   21.5979 C   0  0  0  0  0  0  0  0  0  0  0  0
  -31.3215  -23.3809   18.4329 C   0  0  0  0  0  0  0  0  0  0  0  0
  -30.0643  -15.7819   20.1632 C   0  0  0  0  0  0  0  0  0  0  0  0
  -26.3031  -34.3282   23.7215 C   0  0  1  0  0  0  0  0  0  0  0  0
  -29.8662  -25.0302   19.3418 C   0  0  1  0  0  0  0  0  0  0  0  0
  -24.7309  -31.8637   21.2950 C   0  0  1  0  0  0  0  0  0  0  0  0
  -30.8217  -14.4553   19.9898 C   0  0  2  0  0  0  0  0  0  0  0  0
  -18.4891  -27.3866   22.2940 C   0  0  0  0  0  0  0  0  0  0  0  0
  -23.3067  -30.6020   25.5069 C   0  0  0  0  0  0  0  0  0  0  0  0
  -21.4201  -28.9569   25.5597 C   0  0  0  0  0  0  0  0  0  0  0  0
  -20.9834  -31.3332   24.9394 C   0  0  0  0  0  0  0  0  0  0  0  0
  -20.4766  -27.8287   19.0799 C   0  0  0  0  0  0  0  0  0  0  0  0
  -28.6186  -24.5288   13.0225 C   0  0  0  0  0  0  0  0  0  0  0  0
  -28.2547  -22.7255   15.9341 C   0  0  0  0  0  0  0  0  0  0  0  0
  -29.2306  -26.3919   19.1339 C   0  0  0  0  0  0  0  0  0  1  0  0
  -22.1955  -29.8291   23.3083 C   0  0  1  0  0  0  0  0  0  0  0  0
  -19.4659  -28.0718   21.3511 C   0  0  2  0  0  0  0  0  0  0  0  0
  -21.9984  -30.1765   24.8109 C   0  0  0  0  0  0  0  0  0  0  0  0
  -28.6572  -13.3095   20.2788 N   0  0  0  0  0  0  0  0  0  0  0  0
  -29.8818  -13.2939   19.7255 N   0  0  0  0  0  0  0  0  0  0  0  0
  -29.9507  -22.9310   18.2778 N   0  0  0  0  0  0  0  0  0  0  0  0
  -24.0146  -30.7379   21.8981 N   0  0  0  0  0  0  0  0  0  0  0  0
  -31.0179  -16.8757   20.4062 N   0  0  0  0  0  0  0  0  0  0  0  0
  -31.3112  -12.0128   18.3375 N   0  0  0  0  0  0  0  0  0  0  0  0
  -27.5513   -9.5195   18.5449 N   0  0  0  0  0  0  0  0  0  0  0  0
  -30.3578  -18.0853   18.4922 N   0  0  0  0  0  0  0  0  0  0  0  0
  -25.4805  -33.6557   22.7389 N   0  0  0  0  0  0  0  0  0  0  0  0
  -20.9683  -29.4489   22.6169 N   0  0  0  0  0  0  0  0  0  0  0  0
  -29.2846  -23.6120   15.4582 N   0  0  0  0  0  0  0  0  0  0  0  0
  -19.5660  -27.2589   20.1060 N   0  3  0  0  0  0  0  0  0  0  0  0
  -27.8191  -23.8634   18.8046 O   0  0  0  0  0  0  0  0  0  0  0  0
  -29.6734   -9.6203   17.6816 O   0  0  0  0  0  0  0  0  0  0  0  0
  -26.6094  -31.6193   22.7045 O   0  0  0  0  0  0  0  0  0  0  0  0
  -22.1692  -32.0457   22.4641 O   0  0  0  0  0  0  0  0  0  0  0  0
  -21.6953  -27.3527   21.9428 O   0  0  0  0  0  0  0  0  0  0  0  0
  -32.0064  -18.9042   19.9040 O   0  0  0  0  0  0  0  0  0  0  0  0
  -30.0157  -25.9779   14.6954 O   0  0  0  0  0  0  0  0  0  0  0  0
  -27.5796  -25.5518   15.1857 O   0  0  0  0  0  0  0  0  0  0  0  0
  -22.9105  -10.7851   21.3535 O   0  0  0  0  0  0  0  0  0  0  0  0
  -28.2063  -26.5805   20.1094 O   0  0  0  0  0  0  0  0  0  1  0  0
  -20.4033   -6.7631   18.5356 F   0  0  0  0  0  0  0  0  0  0  0  0
  -28.7272  -17.9078   16.2392 F   0  0  0  0  0  0  0  0  0  0  0  0
  -23.9794   -8.2372   21.2639 F   0  0  0  0  0  0  0  0  0  0  0  0
  -28.8643  -25.0969   14.6895 S   0  0  0  0  0  0  0  0  0  0  0  0
  1  2  1  0  0  0  0
  1  5  2  0  0  0  0
  2  6  2  0  0  0  0
  3  8  2  0  0  0  0
  3 17  1  0  0  0  0
  4  9  1  0  0  0  0
  4 17  2  0  0  0  0
  5 19  1  0  0  0  0
  6 21  1  0  0  0  0
  7 10  2  0  0  0  0
  7 20  1  0  0  0  0
  8 26  1  0  0  0  0
  9 26  2  0  0  0  0
 10 27  1  0  0  0  0
 11 12  2  0  0  0  0
 11 28  1  0  0  0  0
 12 29  1  0  0  0  0
 13 22  1  0  0  0  0
 13 27  2  0  0  0  0
 14 23  1  0  0  0  0
 14 30  2  0  0  0  0
 15 24  1  0  0  0  0
 15 25  2  0  0  0  0
 16 29  2  0  0  0  0
 16 31  1  0  0  0  0
 17 32  1  0  0  0  0
 18 32  1  0  0  0  0
 18 33  2  0  0  0  0
 18 35  1  0  0  0  0
 19 21  2  0  0  0  0
 19 40  1  0  0  0  0
 20 22  2  0  0  0  0
 20 41  1  0  0  0  0
 21 51  1  0  0  0  0
 22 42  1  0  0  0  0
 23 24  2  0  0  0  0
 23 61  1  0  0  0  0
 24 68  1  0  0  0  0
 25 30  1  0  0  0  0
 25 73  1  0  0  0  0
 26 86  1  0  0  0  0
 27 87  1  0  0  0  0
 28 31  2  0  0  0  0
 28 86  1  0  0  0  0
 29 88  1  0  0  0  0
 30 89  1  0  0  0  0
 31 90  1  0  0  0  0
 32 66  2  0  0  0  0
 33 67  1  0  0  0  0
 33 71  1  0  0  0  0
 34 52  1  0  0  0  0
 34 68  1  0  0  0  0
 34 78  2  0  0  0  0
 35 72  1  0  0  0  0
 35 79  2  0  0  0  0
 36 53  1  0  0  0  0
 36 74  1  0  0  0  0
 36 80  2  0  0  0  0
 37 63  1  0  0  0  0
 37 69  1  0  0  0  0
 37 81  2  0  0  0  0
 38 64  1  0  0  0  0
 38 75  1  0  0  0  0
 38 82  2  0  0  0  0
 39 70  1  0  0  0  0
 39 73  1  0  0  0  0
 39 83  2  0  0  0  0
 40 43  1  0  0  0  0
 41 53  1  0  0  0  0
 42 69  1  0  0  0  0
 43 45  1  0  0  0  0
 44 46  1  0  0  0  0
 44 48  1  0  0  0  0
 45 51  1  0  0  0  0
 46 54  1  0  0  0  0
 47 49  1  0  0  0  0
 47 52  1  0  0  0  0
 48 70  1  0  0  0  0
 49 68  1  0  0  0  0
 50 54  1  0  0  0  0
 50 70  1  0  0  0  0
 51 74  1  0  0  0  0
 52 62  1  0  0  0  0
 53 69  1  0  0  0  0
 54 67  1  0  0  0  0
 55 64  1  0  0  0  0
 56 65  1  0  0  0  0
 57 65  1  0  0  0  0
 58 65  1  0  0  0  0
 59 77  1  0  0  0  0
 60 91  1  0  0  0  0
 61 76  1  0  0  0  0
 62 87  1  0  0  0  0
 63 65  1  0  0  0  0
 63 75  1  0  0  0  0
 64 77  1  0  0  0  0
 66 67  1  0  0  0  0
 76 91  1  0  0  0  0
 84 91  2  0  0  0  0
 85 91  2  0  0  0  0
M  CHG  1  77   1
M  ISO  4  39 100  62 101  73 100  87 101
M  END
> <Batch ID>
0066

> <Smiles>
CNC(C)C(=O)NC(C(=O)N1Cc2cc([101O:1][101CH2:1]C3CCN(c4cc([100NH:0][100C:0](=O)N5CCCC(n6nc(-c7ccc(Oc8ccc(F)cc8F)cc7)c(C(N)=O)c6N)C5)c(F)cc4CNS(C)(=O)=O)C3=O)ccc2CC1C(=O)NC1CCCc2ccccc21)C(C)(C)C

> <Shape>
0.339

> <Color>
0.076

> <Negative vol penalty>
0.000

$$$$

  -OEChem-04042323213D

 88 96  0     1  0  0  0  0  0999 V2000
  -21.2783  -16.5339   25.8804 C   0  0  0  0  0  0  0  0  0  0  0  0
  -21.3580  -17.9219   25.9305 C   0  0  0  0  0  0  0  0  0  0  0  0
  -29.2028  -17.4425   19.3071 C   0  0  0  0  0  0  0  0  0  0  0  0
  -30.6121  -17.9011   21.2151 C   0  0  0  0  0  0  0  0  0  0  0  0
  -21.5985  -15.8605   24.7023 C   0  0  0  0  0  0  0  0  0  0  0  0
  -21.7590  -18.6373   24.8028 C   0  0  0  0  0  0  0  0  0  0  0  0
  -19.7753  -24.1593   23.0483 C   0  0  0  0  0  0  0  0  0  0  0  0
  -26.6580  -31.4442   23.5986 C   0  0  0  0  0  0  0  0  0  0  0  0
  -25.6632  -30.5370   23.2340 C   0  0  0  0  0  0  0  0  0  0  0  0
  -29.7397  -16.1582   19.2192 C   0  0  0  0  0  0  0  0  0  0  0  0
  -31.1490  -16.6167   21.1272 C   0  0  0  0  0  0  0  0  0  0  0  0
  -20.3075  -25.4390   23.1998 C   0  0  0  0  0  0  0  0  0  0  0  0
  -30.4783  -12.6347   18.7148 C   0  0  0  0  0  0  0  0  0  0  0  0
  -29.5942  -11.5744   18.5156 C   0  0  0  0  0  0  0  0  0  0  0  0
  -21.2794  -25.2891   20.9971 C   0  0  0  0  0  0  0  0  0  0  0  0
  -26.9276  -29.9428   21.2628 C   0  0  0  0  0  0  0  0  0  0  0  0
  -28.4703  -12.1233   20.5827 C   0  0  0  0  0  0  0  0  0  0  0  0
  -29.6390  -18.3141   20.3050 C   0  0  0  0  0  0  0  0  0  0  0  0
  -27.9556  -20.0421   21.1342 C   0  0  0  0  0  0  0  0  0  0  0  0
  -21.9943  -16.5687   23.5567 C   0  0  0  0  0  0  0  0  0  0  0  0
  -20.0006  -23.4294   21.8723 C   0  0  0  0  0  0  0  0  0  0  0  0
  -22.0861  -17.9727   23.6087 C   0  0  0  0  0  0  0  0  0  0  0  0
  -20.7467  -24.0014   20.8320 C   0  0  0  0  0  0  0  0  0  0  0  0
  -27.7876  -31.6009   22.7953 C   0  0  0  0  0  0  0  0  0  0  0  0
  -27.9224  -30.8501   21.6274 C   0  0  0  0  0  0  0  0  0  0  0  0
  -25.7981  -29.7863   22.0661 C   0  0  0  0  0  0  0  0  0  0  0  0
  -30.7127  -15.7452   20.1292 C   0  0  0  0  0  0  0  0  0  0  0  0
  -21.0621  -26.0029   22.1753 C   0  0  0  0  0  0  0  0  0  0  0  0
  -30.3586  -13.4392   19.8480 C   0  0  0  0  0  0  0  0  0  0  0  0
  -28.5901  -11.3187   19.4495 C   0  0  0  0  0  0  0  0  0  0  0  0
  -29.3545  -13.1835   20.7819 C   0  0  0  0  0  0  0  0  0  0  0  0
  -29.0852  -19.6411   20.3960 C   0  0  0  0  0  0  0  0  0  0  0  0
  -27.8474  -21.3896   20.8914 C   0  0  0  0  0  0  0  0  0  0  0  0
  -29.7293  -33.0845   19.4736 C   0  0  0  0  0  0  0  0  0  0  0  0
  -28.9381  -32.0199   19.6524 C   0  0  0  0  0  0  0  0  0  0  0  0
  -27.0823  -19.2660   21.9653 C   0  0  0  0  0  0  0  0  0  0  0  0
  -21.4378  -20.6802   21.1793 C   0  0  0  0  0  0  0  0  0  0  0  0
  -30.2205  -26.3431   20.5610 C   0  0  0  0  0  0  0  0  0  0  0  0
  -20.2512  -21.2559   18.2157 C   0  0  0  0  0  0  0  0  0  0  0  0
  -30.3728  -28.8608   20.7640 C   0  0  0  0  0  0  0  0  0  0  0  0
  -23.6093  -28.5832   22.3757 C   0  0  0  0  0  0  0  0  0  0  0  0
  -19.1203  -23.5337   15.9398 C   0  0  0  0  0  0  0  0  0  0  0  0
  -22.3761  -15.7940   22.3202 C   0  0  0  0  0  0  0  0  0  0  0  0
  -19.3971  -22.0608   21.7137 C   0  0  0  0  0  0  0  0  0  0  0  0
  -21.0006  -23.2674   19.5416 C   0  0  0  0  0  0  0  0  0  0  0  0
  -22.4314  -16.6504   21.0578 C   0  0  0  0  0  0  0  0  0  0  0  0
  -30.1916  -24.3378   17.5271 C   0  0  0  0  0  0  0  0  0  0  0  0
  -23.1928  -17.9451   21.3239 C   0  0  0  0  0  0  0  0  0  0  0  0
  -29.8350  -22.9573   18.0766 C   0  0  0  0  0  0  0  0  0  0  0  0
  -31.0693  -25.1199   18.5007 C   0  0  0  0  0  0  0  0  0  0  0  0
  -30.1238  -23.8750   20.4191 C   0  0  0  0  0  0  0  0  0  0  0  0
  -22.4932  -18.7856   22.3988 C   0  0  1  0  0  0  0  0  0  0  0  0
  -20.1214  -21.2046   20.6794 C   0  0  1  0  0  0  0  0  0  0  0  0
  -29.2138  -23.0655   19.4801 C   0  0  2  0  0  0  0  0  0  0  0  0
  -28.8389  -32.5789   23.2058 C   0  0  0  0  0  0  0  0  0  0  0  0
  -18.2556  -23.7085   13.5905 C   0  0  0  0  0  0  0  0  0  0  0  0
  -23.0878  -20.9041   17.1480 C   0  0  0  0  0  0  0  0  0  0  0  0
  -22.3494  -22.0023   15.0227 C   0  0  0  0  0  0  0  0  0  0  0  0
  -21.3062  -19.8536   15.7421 C   0  0  0  0  0  0  0  0  0  0  0  0
  -16.5261  -24.6273   16.8525 C   0  0  0  0  0  0  0  0  0  0  0  0
  -30.6326  -27.6403   19.9118 C   0  0  0  0  0  0  0  0  0  0  0  0
  -22.8051  -27.5290   21.6378 C   0  0  0  0  0  0  0  0  0  1  0  0
  -29.1239  -30.9995   20.7530 C   0  0  2  0  0  0  0  0  0  0  0  0
  -20.7468  -21.9812   16.9880 C   0  0  1  0  0  0  0  0  0  0  0  0
  -17.8856  -23.5476   15.0568 C   0  0  2  0  0  0  0  0  0  0  0  0
  -21.8696  -21.1986   16.2502 C   0  0  0  0  0  0  0  0  0  0  0  0
  -29.6538  -20.6521   19.7336 N   0  0  0  0  0  0  0  0  0  0  0  0
  -28.8783  -21.7016   20.0548 N   0  0  0  0  0  0  0  0  0  0  0  0
  -20.3947  -21.9296   19.4369 N   0  0  0  0  0  0  0  0  0  0  0  0
  -30.4557  -25.1767   19.8328 N   0  0  0  0  0  0  0  0  0  0  0  0
  -26.9718  -22.3262   21.3140 N   0  0  0  0  0  0  0  0  0  0  0  0
  -27.3373  -17.8950   22.1055 N   0  0  0  0  0  0  0  0  0  0  0  0
  -24.7900  -28.8643   21.6968 N   0  0  0  0  0  0  0  0  0  0  0  0
  -21.3471  -19.4695   21.8391 N   0  0  0  0  0  0  0  0  0  0  0  0
  -29.5240  -29.7482   20.1314 N   0  0  0  0  0  0  0  0  0  0  0  0
  -19.5694  -22.2505   16.1698 N   0  0  0  0  0  0  0  0  0  0  0  0
  -16.9867  -24.6725   15.4409 N   0  3  0  0  0  0  0  0  0  0  0  0
  -26.0952  -19.7700   22.5526 O   0  0  0  0  0  0  0  0  0  0  0  0
  -22.4603  -21.3255   20.9797 O   0  0  0  0  0  0  0  0  0  0  0  0
  -29.7028  -26.3682   21.6806 O   0  0  0  0  0  0  0  0  0  0  0  0
  -19.7486  -20.1360   18.0947 O   0  0  0  0  0  0  0  0  0  0  0  0
  -30.8676  -29.0174   21.8773 O   0  0  0  0  0  0  0  0  0  0  0  0
  -23.2106  -29.0776   23.4251 O   0  0  0  0  0  0  0  0  0  0  0  0
  -19.6371  -24.5589   16.3784 O   0  0  0  0  0  0  0  0  0  0  0  0
  -31.2367  -14.4919   20.0439 O   0  0  0  0  0  0  0  0  0  0  0  0
  -21.5833  -27.2515   22.3209 O   0  0  0  0  0  0  0  0  0  1  0  0
  -27.7401  -10.3015   19.2573 F   0  0  0  0  0  0  0  0  0  0  0  0
  -29.2338  -13.9537   21.8719 F   0  0  0  0  0  0  0  0  0  0  0  0
  1  2  1  0  0  0  0
  1  5  2  0  0  0  0
  2  6  2  0  0  0  0
  3 10  2  0  0  0  0
  3 18  1  0  0  0  0
  4 11  1  0  0  0  0
  4 18  2  0  0  0  0
  5 20  1  0  0  0  0
  6 22  1  0  0  0  0
  7 12  2  0  0  0  0
  7 21  1  0  0  0  0
  8  9  2  0  0  0  0
  8 24  1  0  0  0  0
  9 26  1  0  0  0  0
 10 27  1  0  0  0  0
 11 27  2  0  0  0  0
 12 28  1  0  0  0  0
 13 14  2  0  0  0  0
 13 29  1  0  0  0  0
 14 30  1  0  0  0  0
 15 23  1  0  0  0  0
 15 28  2  0  0  0  0
 16 25  1  0  0  0  0
 16 26  2  0  0  0  0
 17 30  2  0  0  0  0
 17 31  1  0  0  0  0
 18 32  1  0  0  0  0
 19 32  1  0  0  0  0
 19 33  2  0  0  0  0
 19 36  1  0  0  0  0
 20 22  2  0  0  0  0
 20 43  1  0  0  0  0
 21 23  2  0  0  0  0
 21 44  1  0  0  0  0
 22 52  1  0  0  0  0
 23 45  1  0  0  0  0
 24 25  2  0  0  0  0
 24 55  1  0  0  0  0
 25 63  1  0  0  0  0
 26 73  1  0  0  0  0
 27 85  1  0  0  0  0
 28 86  1  0  0  0  0
 29 31  2  0  0  0  0
 29 85  1  0  0  0  0
 30 87  1  0  0  0  0
 31 88  1  0  0  0  0
 32 67  2  0  0  0  0
 33 68  1  0  0  0  0
 33 71  1  0  0  0  0
 34 35  2  0  0  0  0
 35 63  1  0  0  0  0
 36 72  1  0  0  0  0
 36 78  2  0  0  0  0
 37 53  1  0  0  0  0
 37 74  1  0  0  0  0
 37 79  2  0  0  0  0
 38 61  1  0  0  0  0
 38 70  1  0  0  0  0
 38 80  2  0  0  0  0
 39 64  1  0  0  0  0
 39 69  1  0  0  0  0
 39 81  2  0  0  0  0
 40 61  1  0  0  0  0
 40 75  1  0  0  0  0
 40 82  2  0  0  0  0
 41 62  1  0  0  0  0
 41 73  1  0  0  0  0
 41 83  2  0  0  0  0
 42 65  1  0  0  0  0
 42 76  1  0  0  0  0
 42 84  2  0  0  0  0
 43 46  1  0  0  0  0
 44 53  1  0  0  0  0
 45 69  1  0  0  0  0
 46 48  1  0  0  0  0
 47 49  1  0  0  0  0
 47 50  1  0  0  0  0
 48 52  1  0  0  0  0
 49 54  1  0  0  0  0
 50 70  1  0  0  0  0
 51 54  1  0  0  0  0
 51 70  1  0  0  0  0
 52 74  1  0  0  0  0
 53 69  1  0  0  0  0
 54 68  1  0  0  0  0
 56 65  1  0  0  0  0
 57 66  1  0  0  0  0
 58 66  1  0  0  0  0
 59 66  1  0  0  0  0
 60 77  1  0  0  0  0
 62 86  1  0  0  0  0
 63 75  1  0  0  0  0
 64 66  1  0  0  0  0
 64 76  1  0  0  0  0
 65 77  1  0  0  0  0
 67 68  1  0  0  0  0
M  CHG  1  77   1
M  ISO  4  38 100  61 100  62 101  86 101
M  END
> <Batch ID>
0066

> <Smiles>
C=CC(NC(=O)[100CH2:0][100C:0](=O)N1CCCC(n2nc(-c3ccc(Oc4ccc(F)cc4F)cc3)c(C(N)=O)c2N)C1)c1cc(NC(=O)[101CH2:1][101O:1]c2ccc3c(c2)CN(C(=O)C(NC(=O)C(C)NC)C(C)(C)C)C(C(=O)NC2CCCc4ccccc42)C3)ccc1C

> <Shape>
0.218

> <Color>
0.056

> <Negative vol penalty>
0.000

$$$$

  -OEChem-04042323213D

 87 96  0     1  0  0  0  0  0999 V2000
  -24.5723  -24.3156   28.5253 C   0  0  0  0  0  0  0  0  0  0  0  0
  -24.9214  -24.3454   27.1790 C   0  0  0  0  0  0  0  0  0  0  0  0
  -24.3230   -9.7056   21.4809 C   0  0  0  0  0  0  0  0  0  0  0  0
  -24.6671  -10.7859   23.6143 C   0  0  0  0  0  0  0  0  0  0  0  0
  -23.6696  -25.2500   29.0311 C   0  0  0  0  0  0  0  0  0  0  0  0
  -24.3671  -25.3092   26.3374 C   0  0  0  0  0  0  0  0  0  0  0  0
  -27.8089  -27.4469   23.2994 C   0  0  0  0  0  0  0  0  0  0  0  0
  -29.5518  -20.5968   18.7865 C   0  0  0  0  0  0  0  0  0  0  0  0
  -29.7533  -19.3295   19.3331 C   0  0  0  0  0  0  0  0  0  0  0  0
  -23.8906   -8.5520   22.1347 C   0  0  0  0  0  0  0  0  0  0  0  0
  -24.2346   -9.6322   24.2682 C   0  0  0  0  0  0  0  0  0  0  0  0
  -28.2146  -26.7162   22.1835 C   0  0  0  0  0  0  0  0  0  0  0  0
  -21.0744   -7.4556   23.6514 C   0  0  0  0  0  0  0  0  0  0  0  0
  -19.9269   -6.8276   23.1672 C   0  0  0  0  0  0  0  0  0  0  0  0
  -26.7272  -28.0162   20.7990 C   0  0  0  0  0  0  0  0  0  0  0  0
  -27.6599  -20.9282   20.2521 C   0  0  0  0  0  0  0  0  0  0  0  0
  -21.2024   -4.8185   22.7505 C   0  0  0  0  0  0  0  0  0  0  0  0
  -24.7114  -10.8226   22.2207 C   0  0  0  0  0  0  0  0  0  0  0  0
  -24.3680  -13.1001   21.1239 C   0  0  0  0  0  0  0  0  0  0  0  0
  -23.1112  -26.2317   28.1973 C   0  0  0  0  0  0  0  0  0  0  0  0
  -26.8496  -28.4621   23.1751 C   0  0  0  0  0  0  0  0  0  0  0  0
  -23.4550  -26.2568   26.8322 C   0  0  0  0  0  0  0  0  0  0  0  0
  -26.3129  -28.7600   21.9144 C   0  0  0  0  0  0  0  0  0  0  0  0
  -27.8614  -19.6608   20.7987 C   0  0  0  0  0  0  0  0  0  0  0  0
  -28.5051  -21.3962   19.2460 C   0  0  0  0  0  0  0  0  0  0  0  0
  -28.9081  -18.8614   20.3392 C   0  0  0  0  0  0  0  0  0  0  0  0
  -23.8463   -8.5152   23.5284 C   0  0  0  0  0  0  0  0  0  0  0  0
  -27.6717  -26.9988   20.9336 C   0  0  0  0  0  0  0  0  0  0  0  0
  -22.2860   -6.7651   23.6851 C   0  0  0  0  0  0  0  0  0  0  0  0
  -19.9909   -5.5090   22.7168 C   0  0  0  0  0  0  0  0  0  0  0  0
  -22.3499   -5.4465   23.2346 C   0  0  0  0  0  0  0  0  0  0  0  0
  -25.1587  -12.0145   21.5458 C   0  0  0  0  0  0  0  0  0  0  0  0
  -25.2591  -13.9681   20.5416 C   0  0  0  0  0  0  0  0  0  0  0  0
  -27.2931  -23.6149   19.0451 C   0  0  0  0  0  0  0  0  0  0  0  0
  -22.9544  -13.3056   21.2473 C   0  0  0  0  0  0  0  0  0  0  0  0
  -23.9397  -28.9554   24.3553 C   0  0  0  0  0  0  0  0  0  0  0  0
  -24.2595  -31.8342   22.8948 C   0  0  0  0  0  0  0  0  0  0  0  0
  -25.7544  -33.6955   20.4561 C   0  0  0  0  0  0  0  0  0  0  0  0
  -30.1297  -16.6663   20.5279 C   0  0  0  0  0  0  0  0  0  0  0  0
  -22.1036  -27.1910   28.7794 C   0  0  0  0  0  0  0  0  0  0  0  0
  -26.4423  -29.2591   24.3840 C   0  0  0  0  0  0  0  0  0  0  0  0
  -25.2950  -29.8536   21.7241 C   0  0  0  0  0  0  0  0  0  0  0  0
  -21.8482  -28.4132   27.9012 C   0  0  0  0  0  0  0  0  0  0  0  0
  -30.1165  -13.3373   19.2650 C   0  0  0  0  0  0  0  0  0  0  0  0
  -21.6433  -27.9937   26.4490 C   0  0  0  0  0  0  0  0  0  0  0  0
  -28.7605  -12.7857   19.7111 C   0  0  0  0  0  0  0  0  0  0  0  0
  -30.7258  -14.2632   20.3164 C   0  0  0  0  0  0  0  0  0  0  0  0
  -29.1244  -23.2041   17.6074 C   0  0  0  0  0  0  0  0  0  0  0  0
  -28.4947  -14.8021   21.2113 C   0  0  0  0  0  0  0  0  0  0  0  0
  -22.8939  -27.3022   25.8928 C   0  0  1  0  0  0  0  0  0  0  0  0
  -25.0793  -29.9264   24.2282 C   0  0  1  0  0  0  0  0  0  0  0  0
  -28.8516  -24.7032   17.6057 C   0  0  2  0  0  0  0  0  0  0  0  0
  -27.8117  -13.9155   20.1573 C   0  0  2  0  0  0  0  0  0  0  0  0
  -27.3865  -24.7974   18.0767 C   0  0  1  0  0  0  0  0  0  0  0  0
  -26.9421  -19.1856   21.8767 C   0  0  0  0  0  0  0  0  0  0  0  0
  -29.1721  -25.3510   16.2660 C   0  0  0  0  0  0  0  0  0  0  0  0
  -26.3523  -24.5820   16.9628 C   0  0  0  0  0  0  0  0  0  0  0  0
  -25.7848  -36.0086   19.4835 C   0  0  0  0  0  0  0  0  0  0  0  0
  -21.6082  -31.2764   21.4915 C   0  0  0  0  0  0  0  0  0  0  0  0
  -22.1587  -33.1069   19.8746 C   0  0  0  0  0  0  0  0  0  0  0  0
  -21.8868  -33.6268   22.2992 C   0  0  0  0  0  0  0  0  0  0  0  0
  -28.6161  -34.0610   21.1165 C   0  0  0  0  0  0  0  0  0  0  0  0
  -27.1089  -26.1178   18.7974 C   0  0  0  0  0  0  0  0  0  1  0  0
  -23.9431  -32.3778   21.5225 C   0  0  1  0  0  0  0  0  0  0  0  0
  -26.4141  -35.0622   20.4940 C   0  0  2  0  0  0  0  0  0  0  0  0
  -22.4169  -32.5750   21.3005 C   0  0  0  0  0  0  0  0  0  0  0  0
  -26.4526  -12.1756   21.2561 N   0  0  0  0  0  0  0  0  0  0  0  0
  -26.4817  -13.3726   20.6458 N   0  0  0  0  0  0  0  0  0  0  0  0
  -28.3007  -22.6946   18.6882 N   0  0  0  0  0  0  0  0  0  0  0  0
  -24.9242  -30.6004   22.9375 N   0  0  0  0  0  0  0  0  0  0  0  0
  -29.7719  -15.3108   20.6872 N   0  0  0  0  0  0  0  0  0  0  0  0
  -25.1083  -15.1749   19.9557 N   0  0  0  0  0  0  0  0  0  0  0  0
  -22.1871  -12.3133   21.8726 N   0  0  0  0  0  0  0  0  0  0  0  0
  -29.1304  -17.5719   20.8828 N   0  0  0  0  0  0  0  0  0  0  0  0
  -23.9071  -28.2809   25.5608 N   0  0  0  0  0  0  0  0  0  0  0  0
  -24.7309  -33.5968   21.3747 N   0  0  0  0  0  0  0  0  0  0  0  0
  -27.8675  -34.9446   20.1860 N   0  3  0  0  0  0  0  0  0  0  0  0
  -26.4299  -23.5262   19.9075 O   0  0  0  0  0  0  0  0  0  0  0  0
  -22.3862  -14.3311   20.8013 O   0  0  0  0  0  0  0  0  0  0  0  0
  -23.1477  -28.8288   23.4288 O   0  0  0  0  0  0  0  0  0  0  0  0
  -23.9355  -32.4839   23.8921 O   0  0  0  0  0  0  0  0  0  0  0  0
  -26.1091  -32.8058   19.6859 O   0  0  0  0  0  0  0  0  0  0  0  0
  -31.2309  -16.9988   20.0820 O   0  0  0  0  0  0  0  0  0  0  0  0
  -23.4241   -7.3897   24.1668 O   0  0  0  0  0  0  0  0  0  0  0  0
  -28.0654  -26.2867   19.8428 O   0  0  0  0  0  0  0  0  0  1  0  0
  -18.8886   -4.9055   22.2533 F   0  0  0  0  0  0  0  0  0  0  0  0
  -23.5107   -4.7776   23.2656 F   0  0  0  0  0  0  0  0  0  0  0  0
  1  2  1  0  0  0  0
  1  5  2  0  0  0  0
  2  6  2  0  0  0  0
  3 10  2  0  0  0  0
  3 18  1  0  0  0  0
  4 11  1  0  0  0  0
  4 18  2  0  0  0  0
  5 20  1  0  0  0  0
  6 22  1  0  0  0  0
  7 12  2  0  0  0  0
  7 21  1  0  0  0  0
  8  9  2  0  0  0  0
  8 25  1  0  0  0  0
  9 26  1  0  0  0  0
 10 27  1  0  0  0  0
 11 27  2  0  0  0  0
 12 28  1  0  0  0  0
 13 14  2  0  0  0  0
 13 29  1  0  0  0  0
 14 30  1  0  0  0  0
 15 23  1  0  0  0  0
 15 28  2  0  0  0  0
 16 24  1  0  0  0  0
 16 25  2  0  0  0  0
 17 30  2  0  0  0  0
 17 31  1  0  0  0  0
 18 32  1  0  0  0  0
 19 32  1  0  0  0  0
 19 33  2  0  0  0  0
 19 35  1  0  0  0  0
 20 22  2  0  0  0  0
 20 40  1  0  0  0  0
 21 23  2  0  0  0  0
 21 41  1  0  0  0  0
 22 50  1  0  0  0  0
 23 42  1  0  0  0  0
 24 26  2  0  0  0  0
 24 55  1  0  0  0  0
 25 69  1  0  0  0  0
 26 74  1  0  0  0  0
 27 84  1  0  0  0  0
 28 85  1  0  0  0  0
 29 31  2  0  0  0  0
 29 84  1  0  0  0  0
 30 86  1  0  0  0  0
 31 87  1  0  0  0  0
 32 67  2  0  0  0  0
 33 68  1  0  0  0  0
 33 72  1  0  0  0  0
 34 54  1  0  0  0  0
 34 69  1  0  0  0  0
 34 78  2  0  0  0  0
 35 73  1  0  0  0  0
 35 79  2  0  0  0  0
 36 51  1  0  0  0  0
 36 75  1  0  0  0  0
 36 80  2  0  0  0  0
 37 64  1  0  0  0  0
 37 70  1  0  0  0  0
 37 81  2  0  0  0  0
 38 65  1  0  0  0  0
 38 76  1  0  0  0  0
 38 82  2  0  0  0  0
 39 71  1  0  0  0  0
 39 74  1  0  0  0  0
 39 83  2  0  0  0  0
 40 43  1  0  0  0  0
 41 51  1  0  0  0  0
 42 70  1  0  0  0  0
 43 45  1  0  0  0  0
 44 46  1  0  0  0  0
 44 47  1  0  0  0  0
 45 50  1  0  0  0  0
 46 53  1  0  0  0  0
 47 71  1  0  0  0  0
 48 52  1  0  0  0  0
 48 69  1  0  0  0  0
 49 53  1  0  0  0  0
 49 71  1  0  0  0  0
 50 75  1  0  0  0  0
 51 70  1  0  0  0  0
 52 54  1  0  0  0  0
 52 56  1  0  0  0  0
 53 68  1  0  0  0  0
 54 57  1  0  0  0  0
 54 63  1  0  0  0  0
 58 65  1  0  0  0  0
 59 66  1  0  0  0  0
 60 66  1  0  0  0  0
 61 66  1  0  0  0  0
 62 77  1  0  0  0  0
 63 85  1  0  0  0  0
 64 66  1  0  0  0  0
 64 76  1  0  0  0  0
 65 77  1  0  0  0  0
 67 68  1  0  0  0  0
M  CHG  1  77   1
M  ISO  4  39 100  63 101  74 100  85 101
M  END
> <Batch ID>
0066

> <Smiles>
CNC(C)C(=O)NC(C(=O)N1Cc2cc([101O:1][101CH2:1]C3(C)C(=O)N(c4ccc([100NH:0][100C:0](=O)N5CCCC(n6nc(-c7ccc(Oc8ccc(F)cc8F)cc7)c(C(N)=O)c6N)C5)c(C)c4)CC3C)ccc2CC1C(=O)NC1CCCc2ccccc21)C(C)(C)C

> <Shape>
0.261

> <Color>
0.151

> <Negative vol penalty>
0.000

$$$$

  -OEChem-04042323213D

 84 92  0     1  0  0  0  0  0999 V2000
  -25.9743  -31.4384   28.8307 C   0  0  0  0  0  0  0  0  0  0  0  0
  -27.0872  -30.6490   28.5590 C   0  0  0  0  0  0  0  0  0  0  0  0
  -23.0760   -9.8675   19.9412 C   0  0  0  0  0  0  0  0  0  0  0  0
  -23.8344   -9.8759   22.2351 C   0  0  0  0  0  0  0  0  0  0  0  0
  -30.4637  -18.3429   24.0429 C   0  0  0  0  0  0  0  0  0  0  0  0
  -24.8202  -30.8575   29.3545 C   0  0  0  0  0  0  0  0  0  0  0  0
  -27.0470  -29.2784   28.8122 C   0  0  0  0  0  0  0  0  0  0  0  0
  -29.7877  -24.8560   25.5816 C   0  0  0  0  0  0  0  0  0  0  0  0
  -29.8775  -17.4581   23.1379 C   0  0  0  0  0  0  0  0  0  0  0  0
  -22.3317   -8.7147   20.1914 C   0  0  0  0  0  0  0  0  0  0  0  0
  -23.0901   -8.7230   22.4853 C   0  0  0  0  0  0  0  0  0  0  0  0
  -30.9791  -24.1570   25.7710 C   0  0  0  0  0  0  0  0  0  0  0  0
  -19.8614   -7.9261   23.0863 C   0  0  0  0  0  0  0  0  0  0  0  0
  -19.1037   -7.8870   24.2567 C   0  0  0  0  0  0  0  0  0  0  0  0
  -29.7551  -22.3709   26.8344 C   0  0  0  0  0  0  0  0  0  0  0  0
  -32.0624  -16.6098   22.5519 C   0  0  0  0  0  0  0  0  0  0  0  0
  -20.3443   -5.9499   24.9952 C   0  0  0  0  0  0  0  0  0  0  0  0
  -23.8273  -10.4481   20.9630 C   0  0  0  0  0  0  0  0  0  0  0  0
  -31.8493  -18.3613   24.2023 C   0  0  0  0  0  0  0  0  0  0  0  0
  -24.1696  -12.9731   20.8416 C   0  0  0  0  0  0  0  0  0  0  0  0
  -24.7624  -29.4775   29.6051 C   0  0  0  0  0  0  0  0  0  0  0  0
  -28.5704  -24.3216   26.0277 C   0  0  0  0  0  0  0  0  0  0  0  0
  -25.8914  -28.6787   29.3411 C   0  0  0  0  0  0  0  0  0  0  0  0
  -28.5494  -23.0638   26.6471 C   0  0  0  0  0  0  0  0  0  0  0  0
  -30.6768  -16.5915   22.3925 C   0  0  0  0  0  0  0  0  0  0  0  0
  -22.3388   -8.1424   21.4635 C   0  0  0  0  0  0  0  0  0  0  0  0
  -30.9633  -22.9156   26.4001 C   0  0  0  0  0  0  0  0  0  0  0  0
  -20.8606   -6.9770   22.8702 C   0  0  0  0  0  0  0  0  0  0  0  0
  -19.3452   -6.8990   25.2112 C   0  0  0  0  0  0  0  0  0  0  0  0
  -32.6487  -17.4947   23.4569 C   0  0  0  0  0  0  0  0  0  0  0  0
  -21.1020   -5.9889   23.8247 C   0  0  0  0  0  0  0  0  0  0  0  0
  -24.5968  -11.6387   20.7050 C   0  0  0  0  0  0  0  0  0  0  0  0
  -25.2622  -13.7222   20.4785 C   0  0  0  0  0  0  0  0  0  0  0  0
  -32.4670  -19.2996   25.1608 C   0  0  0  0  0  0  0  0  0  0  0  0
  -22.8990  -13.4894   21.2593 C   0  0  0  0  0  0  0  0  0  0  0  0
  -26.3635  -25.2192   28.1319 C   0  0  0  0  0  0  0  0  0  0  0  0
  -24.7588  -22.6574   26.9552 C   0  0  0  0  0  0  0  0  0  0  0  0
  -24.8863  -19.6324   25.3805 C   0  0  0  0  0  0  0  0  0  0  0  0
  -30.7284  -14.7670   20.6561 C   0  0  0  0  0  0  0  0  0  0  0  0
  -23.5091  -28.9025   30.2160 C   0  0  0  0  0  0  0  0  0  0  0  0
  -27.2907  -25.0760   25.7919 C   0  0  0  0  0  0  0  0  0  0  0  0
  -27.2664  -22.4371   27.1262 C   0  0  0  0  0  0  0  0  0  0  0  0
  -23.4191  -27.3827   30.1047 C   0  0  0  0  0  0  0  0  0  0  0  0
  -29.6151  -12.3518   18.2887 C   0  0  0  0  0  0  0  0  0  0  0  0
  -24.7419  -26.7386   30.5076 C   0  0  0  0  0  0  0  0  0  0  0  0
  -28.1752  -12.0608   18.7175 C   0  0  0  0  0  0  0  0  0  0  0  0
  -30.5295  -12.5813   19.4907 C   0  0  0  0  0  0  0  0  0  0  0  0
  -28.6218  -13.3070   20.8703 C   0  0  0  0  0  0  0  0  0  0  0  0
  -25.8779  -27.1842   29.5789 C   0  0  1  0  0  0  0  0  0  0  0  0
  -26.1726  -24.6692   26.7467 C   0  0  1  0  0  0  0  0  0  0  0  0
  -27.6497  -13.1331   19.6920 C   0  0  2  0  0  0  0  0  0  0  0  0
  -23.4151  -17.7587   24.5915 C   0  0  0  0  0  0  0  0  0  0  0  0
  -35.3814  -21.4673   24.9366 C   0  0  0  0  0  0  0  0  0  0  0  0
  -24.4773  -21.6716   29.8291 C   0  0  0  0  0  0  0  0  0  0  0  0
  -23.8773  -19.4161   28.9229 C   0  0  0  0  0  0  0  0  0  0  0  0
  -22.4294  -21.3848   28.4225 C   0  0  0  0  0  0  0  0  0  0  0  0
  -25.6978  -20.0272   22.5619 C   0  0  0  0  0  0  0  0  0  0  0  0
  -33.1599  -22.4348   25.6257 C   0  0  0  0  0  0  0  0  0  1  0  0
  -24.6871  -21.1897   27.3013 C   0  0  1  0  0  0  0  0  0  0  0  0
  -24.0913  -19.0683   24.2167 C   0  0  2  0  0  0  0  0  0  0  0  0
  -34.0195  -21.1803   25.5469 C   0  0  1  0  0  0  0  0  0  0  0  0
  -23.8923  -20.9280   28.6118 C   0  0  0  0  0  0  0  0  0  0  0  0
  -25.8619  -11.5424   20.2876 N   0  0  0  0  0  0  0  0  0  0  0  0
  -26.2391  -12.8258   20.1587 N   0  0  0  0  0  0  0  0  0  0  0  0
  -26.0423  -23.2166   26.8783 N   0  0  0  0  0  0  0  0  0  0  0  0
  -29.9701  -13.6128   20.3671 N   0  0  0  0  0  0  0  0  0  0  0  0
  -25.4728  -15.0536   20.4048 N   0  0  0  0  0  0  0  0  0  0  0  0
  -32.1222  -19.2034   26.4448 N   0  0  0  0  0  0  0  0  0  0  0  0
  -21.8867  -12.5806   21.5965 N   0  0  0  0  0  0  0  0  0  0  0  0
  -30.0807  -15.6927   21.4735 N   0  0  0  0  0  0  0  0  0  0  0  0
  -25.8113  -26.4717   28.3210 N   0  0  0  0  0  0  0  0  0  0  0  0
  -24.1397  -20.5197   26.1266 N   0  0  0  0  0  0  0  0  0  0  0  0
  -33.3373  -20.1978   24.6922 N   0  3  0  0  0  0  0  0  0  0  0  0
  -24.9857  -18.8187   23.0511 N   0  3  0  0  0  0  0  0  0  0  0  0
  -22.6629  -14.7201   21.3157 O   0  0  0  0  0  0  0  0  0  0  0  0
  -26.9659  -24.5557   28.9677 O   0  0  0  0  0  0  0  0  0  0  0  0
  -23.7150  -23.2829   26.7534 O   0  0  0  0  0  0  0  0  0  0  0  0
  -26.0516  -19.3146   25.6073 O   0  0  0  0  0  0  0  0  0  0  0  0
  -31.8578  -14.9353   20.1891 O   0  0  0  0  0  0  0  0  0  0  0  0
  -21.6125   -7.0176   21.7081 O   0  0  0  0  0  0  0  0  0  0  0  0
  -32.1248  -22.2316   26.5868 O   0  0  0  0  0  0  0  0  0  1  0  0
  -18.6185   -6.8625   26.3358 F   0  0  0  0  0  0  0  0  0  0  0  0
  -33.9812  -17.5062   23.6018 F   0  0  0  0  0  0  0  0  0  0  0  0
  -22.0613   -5.0752   23.6233 F   0  0  0  0  0  0  0  0  0  0  0  0
  1  2  1  0  0  0  0
  1  6  2  0  0  0  0
  2  7  2  0  0  0  0
  3 10  2  0  0  0  0
  3 18  1  0  0  0  0
  4 11  1  0  0  0  0
  4 18  2  0  0  0  0
  5  9  2  0  0  0  0
  5 19  1  0  0  0  0
  6 21  1  0  0  0  0
  7 23  1  0  0  0  0
  8 12  2  0  0  0  0
  8 22  1  0  0  0  0
  9 25  1  0  0  0  0
 10 26  1  0  0  0  0
 11 26  2  0  0  0  0
 12 27  1  0  0  0  0
 13 14  2  0  0  0  0
 13 28  1  0  0  0  0
 14 29  1  0  0  0  0
 15 24  1  0  0  0  0
 15 27  2  0  0  0  0
 16 25  2  0  0  0  0
 16 30  1  0  0  0  0
 17 29  2  0  0  0  0
 17 31  1  0  0  0  0
 18 32  1  0  0  0  0
 19 30  2  0  0  0  0
 19 34  1  0  0  0  0
 20 32  1  0  0  0  0
 20 33  2  0  0  0  0
 20 35  1  0  0  0  0
 21 23  2  0  0  0  0
 21 40  1  0  0  0  0
 22 24  2  0  0  0  0
 22 41  1  0  0  0  0
 23 49  1  0  0  0  0
 24 42  1  0  0  0  0
 25 70  1  0  0  0  0
 26 80  1  0  0  0  0
 27 81  1  0  0  0  0
 28 31  2  0  0  0  0
 28 80  1  0  0  0  0
 29 82  1  0  0  0  0
 30 83  1  0  0  0  0
 31 84  1  0  0  0  0
 32 63  2  0  0  0  0
 33 64  1  0  0  0  0
 33 67  1  0  0  0  0
 34 68  1  0  0  0  0
 34 73  2  0  0  0  0
 35 69  1  0  0  0  0
 35 75  2  0  0  0  0
 36 50  1  0  0  0  0
 36 71  1  0  0  0  0
 36 76  2  0  0  0  0
 37 59  1  0  0  0  0
 37 65  1  0  0  0  0
 37 77  2  0  0  0  0
 38 60  1  0  0  0  0
 38 72  1  0  0  0  0
 38 78  2  0  0  0  0
 39 66  1  0  0  0  0
 39 70  1  0  0  0  0
 39 79  2  0  0  0  0
 40 43  1  0  0  0  0
 41 50  1  0  0  0  0
 42 65  1  0  0  0  0
 43 45  1  0  0  0  0
 44 46  1  0  0  0  0
 44 47  1  0  0  0  0
 45 49  1  0  0  0  0
 46 51  1  0  0  0  0
 47 66  1  0  0  0  0
 48 51  1  0  0  0  0
 48 66  1  0  0  0  0
 49 71  1  0  0  0  0
 50 65  1  0  0  0  0
 51 64  1  0  0  0  0
 52 60  1  0  0  0  0
 53 61  1  0  0  0  0
 54 62  1  0  0  0  0
 55 62  1  0  0  0  0
 56 62  1  0  0  0  0
 57 74  1  0  0  0  0
 58 61  1  0  0  0  0
 58 81  1  0  0  0  0
 59 62  1  0  0  0  0
 59 72  1  0  0  0  0
 60 74  1  0  0  0  0
 61 73  1  0  0  0  0
 63 64  1  0  0  0  0
M  CHG  2  73   1  74   1
M  ISO  4  39 100  58 101  70 100  81 101
M  END
> <Batch ID>
0066

> <Smiles>
CNC(C)C(=O)NC(C(=O)N1Cc2cc([101O:1][101CH2:1]C(C)NC(=N)c3ccc([100NH:0][100C:0](=O)N4CCCC(n5nc(-c6ccc(Oc7ccc(F)cc7F)cc6)c(C(N)=O)c5N)C4)cc3F)ccc2CC1C(=O)NC1CCCc2ccccc21)C(C)(C)C

> <Shape>
0.167

> <Color>
0.187

> <Negative vol penalty>
0.000

$$$$

  -OEChem-04042323213D

 88 97  0     1  0  0  0  0  0999 V2000
  -22.7435  -33.0048   24.9222 C   0  0  0  0  0  0  0  0  0  0  0  0
  -23.6857  -32.0612   24.5254 C   0  0  0  0  0  0  0  0  0  0  0  0
  -26.4265  -12.6439   21.4692 C   0  0  0  0  0  0  0  0  0  0  0  0
  -25.8715  -13.8241   19.4355 C   0  0  0  0  0  0  0  0  0  0  0  0
  -21.3895  -32.6728   24.9368 C   0  0  0  0  0  0  0  0  0  0  0  0
  -23.2743  -30.7846   24.1440 C   0  0  0  0  0  0  0  0  0  0  0  0
  -25.5765  -29.1803   19.9285 C   0  0  0  0  0  0  0  0  0  0  0  0
  -25.0808  -12.3258   21.6519 C   0  0  0  0  0  0  0  0  0  0  0  0
  -24.5257  -13.5060   19.6182 C   0  0  0  0  0  0  0  0  0  0  0  0
  -26.8840  -28.7132   20.0554 C   0  0  0  0  0  0  0  0  0  0  0  0
  -22.8614  -10.0883   20.4269 C   0  0  0  0  0  0  0  0  0  0  0  0
  -22.5483   -8.7778   20.7875 C   0  0  0  0  0  0  0  0  0  0  0  0
  -29.5575  -23.0872   17.1869 C   0  0  0  0  0  0  0  0  0  0  0  0
  -29.6976  -20.6782   17.3044 C   0  0  0  0  0  0  0  0  0  0  0  0
  -26.0689  -26.4429   20.0316 C   0  0  0  0  0  0  0  0  0  0  0  0
  -30.5990  -22.0294   19.0930 C   0  0  0  0  0  0  0  0  0  0  0  0
  -21.5244   -9.5824   22.8225 C   0  0  0  0  0  0  0  0  0  0  0  0
  -26.8219  -13.3931   20.3610 C   0  0  0  0  0  0  0  0  0  0  0  0
  -29.3038  -21.8339   16.6298 C   0  0  0  0  0  0  0  0  0  0  0  0
  -29.1759  -12.9717   19.4729 C   0  0  0  0  0  0  0  0  0  0  0  0
  -20.9605  -31.3945   24.5462 C   0  0  0  0  0  0  0  0  0  0  0  0
  -24.5026  -28.2809   19.8630 C   0  0  0  0  0  0  0  0  0  0  0  0
  -21.9134  -30.4348   24.1547 C   0  0  0  0  0  0  0  0  0  0  0  0
  -24.7489  -26.9011   19.9013 C   0  0  0  0  0  0  0  0  0  0  0  0
  -30.2052  -23.1850   18.4184 C   0  0  0  0  0  0  0  0  0  0  0  0
  -30.3452  -20.7760   18.5360 C   0  0  0  0  0  0  0  0  0  0  0  0
  -24.1304  -12.7569   20.7264 C   0  0  0  0  0  0  0  0  0  0  0  0
  -27.1301  -27.3444   20.1099 C   0  0  0  0  0  0  0  0  0  0  0  0
  -22.5062  -11.1459   21.2641 C   0  0  0  0  0  0  0  0  0  0  0  0
  -21.8797   -8.5248   21.9853 C   0  0  0  0  0  0  0  0  0  0  0  0
  -21.8376  -10.8930   22.4619 C   0  0  0  0  0  0  0  0  0  0  0  0
  -28.2118  -13.7225   20.1720 C   0  0  0  0  0  0  0  0  0  0  0  0
  -30.3305  -13.7073   19.5837 C   0  0  0  0  0  0  0  0  0  0  0  0
  -31.0773  -24.6961   20.1604 C   0  0  0  0  0  0  0  0  0  0  0  0
  -31.1910  -26.0094   20.3898 C   0  0  0  0  0  0  0  0  0  0  0  0
  -31.6701  -26.0916   22.7476 C   0  0  0  0  0  0  0  0  0  0  0  0
  -31.8248  -26.6201   21.5147 C   0  0  0  0  0  0  0  0  0  0  0  0
  -28.6273  -21.7322   15.3463 C   0  0  0  0  0  0  0  0  0  0  0  0
  -29.0399  -11.7212   18.7848 C   0  0  0  0  0  0  0  0  0  0  0  0
  -21.9399  -27.7132   21.6557 C   0  0  0  0  0  0  0  0  0  0  0  0
  -21.1846  -25.6801   19.2436 C   0  0  0  0  0  0  0  0  0  0  0  0
  -22.2529  -23.7500   16.6396 C   0  0  0  0  0  0  0  0  0  0  0  0
  -31.3984  -19.5223   20.4505 C   0  0  0  0  0  0  0  0  0  0  0  0
  -19.4903  -31.0671   24.6236 C   0  0  0  0  0  0  0  0  0  0  0  0
  -23.1005  -28.8001   19.6993 C   0  0  0  0  0  0  0  0  0  0  0  0
  -23.6328  -25.8936   19.8146 C   0  0  0  0  0  0  0  0  0  0  0  0
  -19.1043  -29.8110   23.8466 C   0  0  0  0  0  0  0  0  0  0  0  0
  -32.5205  -16.8247   22.4855 C   0  0  0  0  0  0  0  0  0  0  0  0
  -20.0808  -28.6777   24.1448 C   0  0  0  0  0  0  0  0  0  0  0  0
  -31.6348  -15.6532   22.0552 C   0  0  0  0  0  0  0  0  0  0  0  0
  -31.7524  -18.1452   22.4885 C   0  0  0  0  0  0  0  0  0  0  0  0
  -30.0999  -25.6703   18.2785 C   0  0  0  0  0  0  0  0  0  0  0  0
  -30.1708  -17.2900   20.8044 C   0  0  0  0  0  0  0  0  0  0  0  0
  -21.5042  -29.0473   23.7102 C   0  0  1  0  0  0  0  0  0  0  0  0
  -30.5848  -26.7897   19.2469 C   0  0  1  0  0  0  0  0  0  0  0  0
  -22.0379  -27.8067   20.1593 C   0  0  1  0  0  0  0  0  0  0  0  0
  -30.9174  -15.9485   20.7234 C   0  0  2  0  0  0  0  0  0  0  0  0
  -27.6494  -22.8140   14.9904 C   0  0  0  0  0  0  0  0  0  0  0  0
  -21.4076  -22.1742   14.8791 C   0  0  0  0  0  0  0  0  0  0  0  0
  -20.8852  -23.4921   21.3491 C   0  0  0  0  0  0  0  0  0  0  0  0
  -20.9878  -21.8010   19.5057 C   0  0  0  0  0  0  0  0  0  0  0  0
  -19.1337  -23.4688   19.5641 C   0  0  0  0  0  0  0  0  0  0  0  0
  -23.2097  -25.4977   14.4512 C   0  0  0  0  0  0  0  0  0  0  0  0
  -29.4419  -27.6877   19.6696 C   0  0  0  0  0  0  0  0  0  1  0  0
  -21.4641  -24.2273   18.9428 C   0  0  1  0  0  0  0  0  0  0  0  0
  -21.7526  -23.6173   15.2126 C   0  0  2  0  0  0  0  0  0  0  0  0
  -20.6388  -23.2661   19.8440 C   0  0  0  0  0  0  0  0  0  0  0  0
  -28.7105  -14.8486   20.6888 N   0  0  0  0  0  0  0  0  0  0  0  0
  -30.0007  -14.8109   20.3143 N   0  0  0  0  0  0  0  0  0  0  0  0
  -30.4552  -24.4178   18.9664 N   0  0  0  0  0  0  0  0  0  0  0  0
  -22.2787  -26.4508   19.6615 N   0  0  0  0  0  0  0  0  0  0  0  0
  -31.1027  -18.3599   21.1936 N   0  0  0  0  0  0  0  0  0  0  0  0
  -31.5855  -13.5114   19.1266 N   0  0  0  0  0  0  0  0  0  0  0  0
  -27.7833  -11.1007   18.7686 N   0  0  0  0  0  0  0  0  0  0  0  0
  -30.7459  -19.6019   19.2207 N   0  0  0  0  0  0  0  0  0  0  0  0
  -21.6460  -28.9123   22.2763 N   0  0  0  0  0  0  0  0  0  0  0  0
  -21.2303  -24.0542   17.5132 N   0  0  0  0  0  0  0  0  0  0  0  0
  -22.7926  -24.0856   14.2534 N   0  3  0  0  0  0  0  0  0  0  0  0
  -28.7925  -20.8226   14.5309 O   0  0  0  0  0  0  0  0  0  0  0  0
  -30.0080  -11.1623   18.2157 O   0  0  0  0  0  0  0  0  0  0  0  0
  -22.1162  -26.6327   22.2063 O   0  0  0  0  0  0  0  0  0  0  0  0
  -20.0391  -26.1166   19.1057 O   0  0  0  0  0  0  0  0  0  0  0  0
  -23.4322  -23.5954   16.9491 O   0  0  0  0  0  0  0  0  0  0  0  0
  -32.1943  -20.3704   20.8617 O   0  0  0  0  0  0  0  0  0  0  0  0
  -22.8171  -12.4465   20.9043 O   0  0  0  0  0  0  0  0  0  0  0  0
  -28.4053  -26.8859   20.2344 O   0  0  0  0  0  0  0  0  0  1  0  0
  -21.5777   -7.2664   22.3307 F   0  0  0  0  0  0  0  0  0  0  0  0
  -21.4927  -11.9050   23.2697 F   0  0  0  0  0  0  0  0  0  0  0  0
  1  2  1  0  0  0  0
  1  5  2  0  0  0  0
  2  6  2  0  0  0  0
  3  8  2  0  0  0  0
  3 18  1  0  0  0  0
  4  9  1  0  0  0  0
  4 18  2  0  0  0  0
  5 21  1  0  0  0  0
  6 23  1  0  0  0  0
  7 10  2  0  0  0  0
  7 22  1  0  0  0  0
  8 27  1  0  0  0  0
  9 27  2  0  0  0  0
 10 28  1  0  0  0  0
 11 12  2  0  0  0  0
 11 29  1  0  0  0  0
 12 30  1  0  0  0  0
 13 19  1  0  0  0  0
 13 25  2  0  0  0  0
 14 19  2  0  0  0  0
 14 26  1  0  0  0  0
 15 24  1  0  0  0  0
 15 28  2  0  0  0  0
 16 25  1  0  0  0  0
 16 26  2  0  0  0  0
 17 30  2  0  0  0  0
 17 31  1  0  0  0  0
 18 32  1  0  0  0  0
 19 38  1  0  0  0  0
 20 32  1  0  0  0  0
 20 33  2  0  0  0  0
 20 39  1  0  0  0  0
 21 23  2  0  0  0  0
 21 44  1  0  0  0  0
 22 24  2  0  0  0  0
 22 45  1  0  0  0  0
 23 54  1  0  0  0  0
 24 46  1  0  0  0  0
 25 70  1  0  0  0  0
 26 75  1  0  0  0  0
 27 85  1  0  0  0  0
 28 86  1  0  0  0  0
 29 31  2  0  0  0  0
 29 85  1  0  0  0  0
 30 87  1  0  0  0  0
 31 88  1  0  0  0  0
 32 68  2  0  0  0  0
 33 69  1  0  0  0  0
 33 73  1  0  0  0  0
 34 35  2  0  0  0  0
 34 70  1  0  0  0  0
 35 37  1  0  0  0  0
 35 55  1  0  0  0  0
 36 37  2  0  0  0  0
 38 58  1  0  0  0  0
 38 79  2  0  0  0  0
 39 74  1  0  0  0  0
 39 80  2  0  0  0  0
 40 56  1  0  0  0  0
 40 76  1  0  0  0  0
 40 81  2  0  0  0  0
 41 65  1  0  0  0  0
 41 71  1  0  0  0  0
 41 82  2  0  0  0  0
 42 66  1  0  0  0  0
 42 77  1  0  0  0  0
 42 83  2  0  0  0  0
 43 72  1  0  0  0  0
 43 75  1  0  0  0  0
 43 84  2  0  0  0  0
 44 47  1  0  0  0  0
 45 56  1  0  0  0  0
 46 71  1  0  0  0  0
 47 49  1  0  0  0  0
 48 50  1  0  0  0  0
 48 51  1  0  0  0  0
 49 54  1  0  0  0  0
 50 57  1  0  0  0  0
 51 72  1  0  0  0  0
 52 55  1  0  0  0  0
 52 70  1  0  0  0  0
 53 57  1  0  0  0  0
 53 72  1  0  0  0  0
 54 76  1  0  0  0  0
 55 64  1  0  0  0  0
 56 71  1  0  0  0  0
 57 69  1  0  0  0  0
 59 66  1  0  0  0  0
 60 67  1  0  0  0  0
 61 67  1  0  0  0  0
 62 67  1  0  0  0  0
 63 78  1  0  0  0  0
 64 86  1  0  0  0  0
 65 67  1  0  0  0  0
 65 77  1  0  0  0  0
 66 78  1  0  0  0  0
 68 69  1  0  0  0  0
M  CHG  1  78   1
M  ISO  4  43 100  64 101  75 100  86 101
M  END
> <Batch ID>
0066

> <Smiles>
C=CC1=CN(c2cc([100NH:0][100C:0](=O)N3CCCC(n4nc(-c5ccc(Oc6ccc(F)cc6F)cc5)c(C(N)=O)c4N)C3)cc(C(C)=O)c2)CC1[101CH2:1][101O:1]c1ccc2c(c1)CN(C(=O)C(NC(=O)C(C)NC)C(C)(C)C)C(C(=O)NC1CCCc3ccccc31)C2

> <Shape>
0.288

> <Color>
0.070

> <Negative vol penalty>
0.000

$$$$

  -OEChem-04042323213D

 88 96  0     1  0  0  0  0  0999 V2000
  -28.2791  -35.6180   22.9470 C   0  0  0  0  0  0  0  0  0  0  0  0
  -28.4622  -34.2468   22.8000 C   0  0  0  0  0  0  0  0  0  0  0  0
  -24.8557   -8.6657   21.0304 C   0  0  0  0  0  0  0  0  0  0  0  0
  -23.1398   -9.9653   19.9332 C   0  0  0  0  0  0  0  0  0  0  0  0
  -27.0570  -36.1122   23.4010 C   0  0  0  0  0  0  0  0  0  0  0  0
  -27.4235  -33.3688   23.1079 C   0  0  0  0  0  0  0  0  0  0  0  0
  -26.8283  -29.7591   19.6064 C   0  0  0  0  0  0  0  0  0  0  0  0
  -25.7397  -20.7721   17.2947 C   0  0  0  0  0  0  0  0  0  0  0  0
  -26.5434  -21.8433   17.6849 C   0  0  0  0  0  0  0  0  0  0  0  0
  -23.8853   -7.7808   21.5002 C   0  0  0  0  0  0  0  0  0  0  0  0
  -22.1693   -9.0804   20.4030 C   0  0  0  0  0  0  0  0  0  0  0  0
  -27.7269  -28.6934   19.6314 C   0  0  0  0  0  0  0  0  0  0  0  0
  -21.5956   -7.6854   23.9847 C   0  0  0  0  0  0  0  0  0  0  0  0
  -21.6717   -7.2906   25.3203 C   0  0  0  0  0  0  0  0  0  0  0  0
  -26.0841  -27.3429   20.7701 C   0  0  0  0  0  0  0  0  0  0  0  0
  -28.4656  -20.3807   17.7405 C   0  0  0  0  0  0  0  0  0  0  0  0
  -21.8961   -4.9872   24.6267 C   0  0  0  0  0  0  0  0  0  0  0  0
  -24.4830   -9.7580   20.2470 C   0  0  0  0  0  0  0  0  0  0  0  0
  -26.1967  -10.5897   18.5501 C   0  0  0  0  0  0  0  0  0  0  0  0
  -25.9996  -35.2405   23.7054 C   0  0  0  0  0  0  0  0  0  0  0  0
  -25.5526  -29.6280   20.1737 C   0  0  0  0  0  0  0  0  0  0  0  0
  -26.1865  -33.8518   23.5677 C   0  0  0  0  0  0  0  0  0  0  0  0
  -25.1703  -28.4076   20.7486 C   0  0  0  0  0  0  0  0  0  0  0  0
  -26.2989  -19.5052   17.1275 C   0  0  0  0  0  0  0  0  0  0  0  0
  -27.6618  -19.3095   17.3504 C   0  0  0  0  0  0  0  0  0  0  0  0
  -27.9063  -21.6476   17.9078 C   0  0  0  0  0  0  0  0  0  0  0  0
  -22.5420   -7.9881   21.1864 C   0  0  0  0  0  0  0  0  0  0  0  0
  -27.3559  -27.4860   20.2159 C   0  0  0  0  0  0  0  0  0  0  0  0
  -21.6697   -6.7311   22.9700 C   0  0  0  0  0  0  0  0  0  0  0  0
  -21.8219   -5.9415   25.6413 C   0  0  0  0  0  0  0  0  0  0  0  0
  -21.8199   -5.3820   23.2910 C   0  0  0  0  0  0  0  0  0  0  0  0
  -25.4850  -10.6728   19.7619 C   0  0  0  0  0  0  0  0  0  0  0  0
  -27.0211  -11.6882   18.5601 C   0  0  0  0  0  0  0  0  0  0  0  0
  -26.1194   -9.6074   17.5086 C   0  0  0  0  0  0  0  0  0  0  0  0
  -23.9973  -31.0543   22.5507 C   0  0  0  0  0  0  0  0  0  0  0  0
  -21.5149  -29.2590   21.4845 C   0  0  0  0  0  0  0  0  0  0  0  0
  -28.3345  -24.0550   18.5119 C   0  0  0  0  0  0  0  0  0  0  0  0
  -20.4585  -26.4824   19.8048 C   0  0  0  0  0  0  0  0  0  0  0  0
  -27.8705  -17.1274   19.4760 C   0  0  0  0  0  0  0  0  0  0  0  0
  -24.7125  -35.8187   24.2380 C   0  0  0  0  0  0  0  0  0  0  0  0
  -24.5854  -30.7785   20.1147 C   0  0  0  0  0  0  0  0  0  0  0  0
  -23.8052  -28.2090   21.3533 C   0  0  0  0  0  0  0  0  0  0  0  0
  -23.5390  -34.8437   24.1854 C   0  0  0  0  0  0  0  0  0  0  0  0
  -28.1286  -14.9398   22.2732 C   0  0  0  0  0  0  0  0  0  0  0  0
  -23.9558  -33.4775   24.7207 C   0  0  0  0  0  0  0  0  0  0  0  0
  -27.5171  -13.6305   21.7712 C   0  0  0  0  0  0  0  0  0  0  0  0
  -27.4007  -16.1566   21.7060 C   0  0  0  0  0  0  0  0  0  0  0  0
  -26.6732  -14.8699   19.7340 C   0  0  0  0  0  0  0  0  0  0  0  0
  -25.0756  -32.8690   23.8679 C   0  0  1  0  0  0  0  0  0  0  0  0
  -23.4960  -30.6983   21.1797 C   0  0  1  0  0  0  0  0  0  0  0  0
  -27.4088  -13.6151   20.2346 C   0  0  2  0  0  0  0  0  0  0  0  0
  -25.4181  -18.3736   16.7100 C   0  0  0  0  0  0  0  0  0  0  0  0
  -18.3714  -25.2629   19.1309 C   0  0  0  0  0  0  0  0  0  0  0  0
  -28.6649  -15.9753   15.5369 C   0  0  0  0  0  0  0  0  0  0  0  0
  -28.6626  -18.2815   14.5819 C   0  0  0  0  0  0  0  0  0  0  0  0
  -29.8122  -18.0439   17.4894 C   0  0  0  0  0  0  0  0  0  0  0  0
  -21.2034  -28.2210   24.3367 C   0  0  0  0  0  0  0  0  0  0  0  0
  -19.7917  -26.3619   23.4317 C   0  0  0  0  0  0  0  0  0  0  0  0
  -19.0502  -28.7293   23.1706 C   0  0  0  0  0  0  0  0  0  0  0  0
  -21.0724  -26.7850   16.9255 C   0  0  0  0  0  0  0  0  0  0  0  0
  -29.5311  -24.9029   18.9282 C   0  0  0  0  0  0  0  0  0  0  0  0
  -29.1737  -26.3609   19.1740 C   0  0  0  0  0  0  0  0  0  1  0  0
  -20.9872  -27.8774   21.7870 C   0  0  1  0  0  0  0  0  0  0  0  0
  -19.4089  -26.2976   18.7238 C   0  0  2  0  0  0  0  0  0  0  0  0
  -28.0917  -17.3940   15.6998 C   0  0  0  0  0  0  0  0  0  0  0  0
  -28.2828  -17.9625   17.1756 C   0  0  2  0  0  0  0  0  0  0  0  0
  -20.2846  -27.8014   23.1719 C   0  0  0  0  0  0  0  0  0  0  0  0
  -25.8275  -11.7396   20.4889 N   0  0  0  0  0  0  0  0  0  0  0  0
  -26.7634  -12.3370   19.7317 N   0  0  0  0  0  0  0  0  0  0  0  0
  -22.8974  -29.3655   21.2767 N   0  0  0  0  0  0  0  0  0  0  0  0
  -27.3337  -16.0814   20.2446 N   0  0  0  0  0  0  0  0  0  0  0  0
  -27.9341  -12.1527   17.6808 N   0  0  0  0  0  0  0  0  0  0  0  0
  -25.2190   -8.5439   17.6587 N   0  0  0  0  0  0  0  0  0  0  0  0
  -28.7226  -22.7345   18.3017 N   0  0  0  0  0  0  0  0  0  0  0  0
  -24.5366  -32.3234   22.6406 N   0  0  0  0  0  0  0  0  0  0  0  0
  -20.1326  -27.5116   20.6626 N   0  0  0  0  0  0  0  0  0  0  0  0
  -27.7712  -16.9740   18.0985 N   0  0  0  0  0  0  0  0  0  0  0  0
  -20.0467  -25.8491   17.4537 N   0  3  0  0  0  0  0  0  0  0  0  0
  -26.8395   -9.6620   16.4829 O   0  0  0  0  0  0  0  0  0  0  0  0
  -23.9005  -30.2386   23.4600 O   0  0  0  0  0  0  0  0  0  0  0  0
  -20.7284  -30.2076   21.4274 O   0  0  0  0  0  0  0  0  0  0  0  0
  -27.2088  -24.5276   18.3944 O   0  0  0  0  0  0  0  0  0  0  0  0
  -21.4650  -25.7813   19.8828 O   0  0  0  0  0  0  0  0  0  0  0  0
  -28.4038  -18.1217   19.9798 O   0  0  0  0  0  0  0  0  0  0  0  0
  -21.5948   -7.1247   21.6444 O   0  0  0  0  0  0  0  0  0  0  0  0
  -28.2312  -26.4444   20.2422 O   0  0  0  0  0  0  0  0  0  1  0  0
  -21.8965   -5.5627   26.9239 F   0  0  0  0  0  0  0  0  0  0  0  0
  -21.8929   -4.4607   22.3206 F   0  0  0  0  0  0  0  0  0  0  0  0
  1  2  1  0  0  0  0
  1  5  2  0  0  0  0
  2  6  2  0  0  0  0
  3 10  2  0  0  0  0
  3 18  1  0  0  0  0
  4 11  1  0  0  0  0
  4 18  2  0  0  0  0
  5 20  1  0  0  0  0
  6 22  1  0  0  0  0
  7 12  2  0  0  0  0
  7 21  1  0  0  0  0
  8  9  2  0  0  0  0
  8 24  1  0  0  0  0
  9 26  1  0  0  0  0
 10 27  1  0  0  0  0
 11 27  2  0  0  0  0
 12 28  1  0  0  0  0
 13 14  2  0  0  0  0
 13 29  1  0  0  0  0
 14 30  1  0  0  0  0
 15 23  1  0  0  0  0
 15 28  2  0  0  0  0
 16 25  1  0  0  0  0
 16 26  2  0  0  0  0
 17 30  2  0  0  0  0
 17 31  1  0  0  0  0
 18 32  1  0  0  0  0
 19 32  1  0  0  0  0
 19 33  2  0  0  0  0
 19 34  1  0  0  0  0
 20 22  2  0  0  0  0
 20 40  1  0  0  0  0
 21 23  2  0  0  0  0
 21 41  1  0  0  0  0
 22 49  1  0  0  0  0
 23 42  1  0  0  0  0
 24 25  2  0  0  0  0
 24 52  1  0  0  0  0
 25 66  1  0  0  0  0
 26 74  1  0  0  0  0
 27 85  1  0  0  0  0
 28 86  1  0  0  0  0
 29 31  2  0  0  0  0
 29 85  1  0  0  0  0
 30 87  1  0  0  0  0
 31 88  1  0  0  0  0
 32 68  2  0  0  0  0
 33 69  1  0  0  0  0
 33 72  1  0  0  0  0
 34 73  1  0  0  0  0
 34 79  2  0  0  0  0
 35 50  1  0  0  0  0
 35 75  1  0  0  0  0
 35 80  2  0  0  0  0
 36 63  1  0  0  0  0
 36 70  1  0  0  0  0
 36 81  2  0  0  0  0
 37 61  1  0  0  0  0
 37 74  1  0  0  0  0
 37 82  2  0  0  0  0
 38 64  1  0  0  0  0
 38 76  1  0  0  0  0
 38 83  2  0  0  0  0
 39 71  1  0  0  0  0
 39 77  1  0  0  0  0
 39 84  2  0  0  0  0
 40 43  1  0  0  0  0
 41 50  1  0  0  0  0
 42 70  1  0  0  0  0
 43 45  1  0  0  0  0
 44 46  1  0  0  0  0
 44 47  1  0  0  0  0
 45 49  1  0  0  0  0
 46 51  1  0  0  0  0
 47 71  1  0  0  0  0
 48 51  1  0  0  0  0
 48 71  1  0  0  0  0
 49 75  1  0  0  0  0
 50 70  1  0  0  0  0
 51 69  1  0  0  0  0
 53 64  1  0  0  0  0
 54 65  1  0  0  0  0
 55 65  1  0  0  0  0
 56 66  1  0  0  0  0
 57 67  1  0  0  0  0
 58 67  1  0  0  0  0
 59 67  1  0  0  0  0
 60 78  1  0  0  0  0
 61 62  1  0  0  0  0
 62 86  1  0  0  0  0
 63 67  1  0  0  0  0
 63 76  1  0  0  0  0
 64 78  1  0  0  0  0
 65 66  1  0  0  0  0
 66 77  1  0  0  0  0
 68 69  1  0  0  0  0
M  CHG  1  78   1
M  ISO  4  39 100  62 101  77 100  86 101
M  END
> <Batch ID>
0066

> <Smiles>
CNC(C)C(=O)NC(C(=O)N1Cc2cc([101O:1][101CH2:1]CC(=O)Nc3ccc(C)c(C(C)([100NH:0][100C:0](=O)N4CCCC(n5nc(-c6ccc(Oc7ccc(F)cc7F)cc6)c(C(N)=O)c5N)C4)C(C)C)c3)ccc2CC1C(=O)NC1CCCc2ccccc21)C(C)(C)C

> <Shape>
0.316

> <Color>
0.096

> <Negative vol penalty>
0.000

$$$$

  -OEChem-04042323213D

 88 97  0     1  0  0  0  0  0999 V2000
  -32.8020  -31.3927   17.8815 C   0  0  0  0  0  0  0  0  0  0  0  0
  -33.6884  -30.3827   18.2415 C   0  0  0  0  0  0  0  0  0  0  0  0
  -23.2707   -9.8072   19.9217 C   0  0  0  0  0  0  0  0  0  0  0  0
  -23.7278   -9.9496   22.2898 C   0  0  0  0  0  0  0  0  0  0  0  0
  -31.5206  -31.4223   18.4301 C   0  0  0  0  0  0  0  0  0  0  0  0
  -33.2941  -29.4023   19.1514 C   0  0  0  0  0  0  0  0  0  0  0  0
  -34.2755  -22.4688   20.6616 C   0  0  0  0  0  0  0  0  0  0  0  0
  -22.5322   -8.6432   20.1342 C   0  0  0  0  0  0  0  0  0  0  0  0
  -22.9892   -8.7856   22.5023 C   0  0  0  0  0  0  0  0  0  0  0  0
  -34.6259  -21.6371   21.7242 C   0  0  0  0  0  0  0  0  0  0  0  0
  -19.4439   -7.8191   21.2369 C   0  0  0  0  0  0  0  0  0  0  0  0
  -18.2123   -7.7059   20.5920 C   0  0  0  0  0  0  0  0  0  0  0  0
  -32.3608  -21.7439   22.5470 C   0  0  0  0  0  0  0  0  0  0  0  0
  -32.2389  -14.5288   23.5744 C   0  0  0  0  0  0  0  0  0  0  0  0
  -18.9902   -5.7214   19.4546 C   0  0  0  0  0  0  0  0  0  0  0  0
  -30.6989  -13.4741   25.0484 C   0  0  0  0  0  0  0  0  0  0  0  0
  -23.8685  -10.4604   20.9995 C   0  0  0  0  0  0  0  0  0  0  0  0
  -24.1547  -12.9869   20.7932 C   0  0  0  0  0  0  0  0  0  0  0  0
  -31.1072  -30.4363   19.3398 C   0  0  0  0  0  0  0  0  0  0  0  0
  -32.9654  -22.9540   20.5396 C   0  0  0  0  0  0  0  0  0  0  0  0
  -32.0064  -29.4195   19.7137 C   0  0  0  0  0  0  0  0  0  0  0  0
  -31.9957  -22.5796   21.4806 C   0  0  0  0  0  0  0  0  0  0  0  0
  -32.7175  -15.2666   24.6513 C   0  0  0  0  0  0  0  0  0  0  0  0
  -31.2105  -13.6133   23.7683 C   0  0  0  0  0  0  0  0  0  0  0  0
  -22.3914   -8.1324   21.4245 C   0  0  0  0  0  0  0  0  0  0  0  0
  -33.6693  -21.2768   22.6687 C   0  0  0  0  0  0  0  0  0  0  0  0
  -20.4487   -6.8834   20.9906 C   0  0  0  0  0  0  0  0  0  0  0  0
  -17.9854   -6.6571   19.7008 C   0  0  0  0  0  0  0  0  0  0  0  0
  -20.2218   -5.8346   20.0995 C   0  0  0  0  0  0  0  0  0  0  0  0
  -24.6320  -11.6626   20.7805 C   0  0  0  0  0  0  0  0  0  0  0  0
  -32.1383  -15.0536   25.8918 C   0  0  0  0  0  0  0  0  0  0  0  0
  -25.2640  -13.7542   20.5338 C   0  0  0  0  0  0  0  0  0  0  0  0
  -35.1532  -15.9533   24.5660 C   0  0  0  0  0  0  0  0  0  0  0  0
  -22.8274  -13.4795   21.0193 C   0  0  0  0  0  0  0  0  0  0  0  0
  -31.6322  -25.8395   20.5483 C   0  0  0  0  0  0  0  0  0  0  0  0
  -28.9492  -24.1744   19.8060 C   0  0  0  0  0  0  0  0  0  0  0  0
  -27.2633  -21.2084   19.8924 C   0  0  0  0  0  0  0  0  0  0  0  0
  -31.1169  -12.8792   21.3602 C   0  0  0  0  0  0  0  0  0  0  0  0
  -29.7283  -30.5369   19.9424 C   0  0  0  0  0  0  0  0  0  0  0  0
  -32.5969  -23.8287   19.3727 C   0  0  0  0  0  0  0  0  0  0  0  0
  -30.5705  -23.0571   21.3835 C   0  0  0  0  0  0  0  0  0  0  0  0
  -35.8771  -17.2238   24.1828 C   0  0  0  0  0  0  0  0  0  0  0  0
  -29.2613  -29.2478   20.6135 C   0  0  0  0  0  0  0  0  0  0  0  0
  -29.4849  -13.5925   18.2772 C   0  0  0  0  0  0  0  0  0  0  0  0
  -30.3633  -28.6790   21.5018 C   0  0  0  0  0  0  0  0  0  0  0  0
  -28.0110  -13.3049   18.5722 C   0  0  0  0  0  0  0  0  0  0  0  0
  -30.4090  -12.6093   18.9936 C   0  0  0  0  0  0  0  0  0  0  0  0
  -33.5223  -17.5755   24.0468 C   0  0  0  0  0  0  0  0  0  0  0  0
  -28.7148  -12.2044   20.7357 C   0  0  0  0  0  0  0  0  0  0  0  0
  -31.6074  -28.3241   20.6786 C   0  0  1  0  0  0  0  0  0  0  0  0
  -31.3582  -24.6804   19.6322 C   0  0  1  0  0  0  0  0  0  0  0  0
  -34.8200  -18.3044   24.3600 C   0  0  2  0  0  0  0  0  0  0  0  0
  -27.7479  -13.2089   20.0879 C   0  0  2  0  0  0  0  0  0  0  0  0
  -25.0754  -20.1664   19.2407 C   0  0  0  0  0  0  0  0  0  0  0  0
  -27.5945  -25.5457   22.1712 C   0  0  0  0  0  0  0  0  0  0  0  0
  -25.7935  -23.8104   22.0563 C   0  0  0  0  0  0  0  0  0  0  0  0
  -26.1696  -25.3448   20.1258 C   0  0  0  0  0  0  0  0  0  0  0  0
  -28.5896  -19.2733   18.0880 C   0  0  0  0  0  0  0  0  0  0  0  0
  -35.0516  -19.5188   23.4778 C   0  0  0  0  0  0  0  0  0  1  0  0
  -27.8474  -23.5136   20.5988 C   0  0  1  0  0  0  0  0  0  0  0  0
  -26.5089  -20.4469   18.8174 C   0  0  2  0  0  0  0  0  0  0  0  0
  -32.6074  -15.8184   27.0869 C   0  0  0  0  0  0  0  0  0  0  0  0
  -26.8785  -24.5460   21.2412 C   0  0  0  0  0  0  0  0  0  0  0  0
  -31.1379  -14.1731   26.1190 N   0  0  0  0  0  0  0  0  0  0  0  0
  -25.9424  -11.5891   20.5325 N   0  0  0  0  0  0  0  0  0  0  0  0
  -26.2980  -12.8770   20.3869 N   0  0  0  0  0  0  0  0  0  0  0  0
  -33.7730  -16.2080   24.4615 N   0  0  0  0  0  0  0  0  0  0  0  0
  -30.2609  -23.9154   20.2281 N   0  0  0  0  0  0  0  0  0  0  0  0
  -30.1046  -12.5747   20.4257 N   0  0  0  0  0  0  0  0  0  0  0  0
  -25.4461  -15.0869   20.4193 N   0  0  0  0  0  0  0  0  0  0  0  0
  -21.8053  -12.5543   21.2715 N   0  0  0  0  0  0  0  0  0  0  0  0
  -30.7020  -12.8459   22.6911 N   0  0  0  0  0  0  0  0  0  0  0  0
  -31.4079  -27.0760   19.9737 N   0  0  0  0  0  0  0  0  0  0  0  0
  -27.2009  -22.5712   19.6921 N   0  0  0  0  0  0  0  0  0  0  0  0
  -27.1792  -19.1458   18.5371 N   0  3  0  0  0  0  0  0  0  0  0  0
  -35.7445  -14.9199   24.8440 O   0  0  0  0  0  0  0  0  0  0  0  0
  -22.5526  -14.7029   20.9821 O   0  0  0  0  0  0  0  0  0  0  0  0
  -32.0172  -25.6276   21.6922 O   0  0  0  0  0  0  0  0  0  0  0  0
  -28.6570  -24.8880   18.8433 O   0  0  0  0  0  0  0  0  0  0  0  0
  -27.8464  -20.6502   20.8192 O   0  0  0  0  0  0  0  0  0  0  0  0
  -32.2603  -13.1762   21.0047 O   0  0  0  0  0  0  0  0  0  0  0  0
  -21.6706   -6.9967   21.6323 O   0  0  0  0  0  0  0  0  0  0  0  0
  -34.0089  -20.4656   23.7072 O   0  0  0  0  0  0  0  0  0  1  0  0
  -16.8021   -6.5477   19.0828 F   0  0  0  0  0  0  0  0  0  0  0  0
  -21.1829   -4.9320   19.8597 F   0  0  0  0  0  0  0  0  0  0  0  0
  -33.6154  -16.6961   26.8104 F   0  0  0  0  0  0  0  0  0  0  0  0
  -31.6285  -16.5689   27.6708 F   0  0  0  0  0  0  0  0  0  0  0  0
  -33.0861  -15.0058   28.0720 F   0  0  0  0  0  0  0  0  0  0  0  0
  1  2  1  0  0  0  0
  1  5  2  0  0  0  0
  2  6  2  0  0  0  0
  3  8  2  0  0  0  0
  3 17  1  0  0  0  0
  4  9  1  0  0  0  0
  4 17  2  0  0  0  0
  5 19  1  0  0  0  0
  6 21  1  0  0  0  0
  7 10  2  0  0  0  0
  7 20  1  0  0  0  0
  8 25  1  0  0  0  0
  9 25  2  0  0  0  0
 10 26  1  0  0  0  0
 11 12  2  0  0  0  0
 11 27  1  0  0  0  0
 12 28  1  0  0  0  0
 13 22  1  0  0  0  0
 13 26  2  0  0  0  0
 14 23  1  0  0  0  0
 14 24  2  0  0  0  0
 15 28  2  0  0  0  0
 15 29  1  0  0  0  0
 16 24  1  0  0  0  0
 16 64  2  0  0  0  0
 17 30  1  0  0  0  0
 18 30  1  0  0  0  0
 18 32  2  0  0  0  0
 18 34  1  0  0  0  0
 19 21  2  0  0  0  0
 19 39  1  0  0  0  0
 20 22  2  0  0  0  0
 20 40  1  0  0  0  0
 21 50  1  0  0  0  0
 22 41  1  0  0  0  0
 23 31  2  0  0  0  0
 23 67  1  0  0  0  0
 24 72  1  0  0  0  0
 25 82  1  0  0  0  0
 26 83  1  0  0  0  0
 27 29  2  0  0  0  0
 27 82  1  0  0  0  0
 28 84  1  0  0  0  0
 29 85  1  0  0  0  0
 30 65  2  0  0  0  0
 31 62  1  0  0  0  0
 31 64  1  0  0  0  0
 32 66  1  0  0  0  0
 32 70  1  0  0  0  0
 33 42  1  0  0  0  0
 33 67  1  0  0  0  0
 33 76  2  0  0  0  0
 34 71  1  0  0  0  0
 34 77  2  0  0  0  0
 35 51  1  0  0  0  0
 35 73  1  0  0  0  0
 35 78  2  0  0  0  0
 36 60  1  0  0  0  0
 36 68  1  0  0  0  0
 36 79  2  0  0  0  0
 37 61  1  0  0  0  0
 37 74  1  0  0  0  0
 37 80  2  0  0  0  0
 38 69  1  0  0  0  0
 38 72  1  0  0  0  0
 38 81  2  0  0  0  0
 39 43  1  0  0  0  0
 40 51  1  0  0  0  0
 41 68  1  0  0  0  0
 42 52  1  0  0  0  0
 43 45  1  0  0  0  0
 44 46  1  0  0  0  0
 44 47  1  0  0  0  0
 45 50  1  0  0  0  0
 46 53  1  0  0  0  0
 47 69  1  0  0  0  0
 48 52  1  0  0  0  0
 48 67  1  0  0  0  0
 49 53  1  0  0  0  0
 49 69  1  0  0  0  0
 50 73  1  0  0  0  0
 51 68  1  0  0  0  0
 52 59  1  0  0  0  0
 53 66  1  0  0  0  0
 54 61  1  0  0  0  0
 55 63  1  0  0  0  0
 56 63  1  0  0  0  0
 57 63  1  0  0  0  0
 58 75  1  0  0  0  0
 59 83  1  0  0  0  0
 60 63  1  0  0  0  0
 60 74  1  0  0  0  0
 61 75  1  0  0  0  0
 62 86  1  0  0  0  0
 62 87  1  0  0  0  0
 62 88  1  0  0  0  0
 65 66  1  0  0  0  0
M  CHG  1  75   1
M  ISO  4  38 100  59 101  72 100  83 101
M  END
> <Batch ID>
0066

> <Smiles>
CNC(C)C(=O)NC(C(=O)N1Cc2cc([101O:1][101CH2:1]C3CC(=O)N(c4cc([100NH:0][100C:0](=O)N5CCCC(n6nc(-c7ccc(Oc8ccc(F)cc8F)cc7)c(C(N)=O)c6N)C5)cnc4C(F)(F)F)C3)ccc2CC1C(=O)NC1CCCc2ccccc21)C(C)(C)C

> <Shape>
0.183

> <Color>
0.172

> <Negative vol penalty>
0.000

$$$$

  -OEChem-04042323213D

 89 98  0     1  0  0  0  0  0999 V2000
  -26.9617  -37.8637   22.5950 C   0  0  0  0  0  0  0  0  0  0  0  0
  -27.5840  -36.8705   21.8456 C   0  0  0  0  0  0  0  0  0  0  0  0
  -24.0307   -9.2428   21.4609 C   0  0  0  0  0  0  0  0  0  0  0  0
  -23.2546  -11.5307   21.4460 C   0  0  0  0  0  0  0  0  0  0  0  0
  -26.1587  -37.5163   23.6806 C   0  0  0  0  0  0  0  0  0  0  0  0
  -27.4045  -35.5292   22.1820 C   0  0  0  0  0  0  0  0  0  0  0  0
  -26.9627  -29.0345   19.1921 C   0  0  0  0  0  0  0  0  0  0  0  0
  -23.0322   -8.9100   22.3761 C   0  0  0  0  0  0  0  0  0  0  0  0
  -22.2560  -11.1979   22.3613 C   0  0  0  0  0  0  0  0  0  0  0  0
  -27.5193  -27.7605   19.2966 C   0  0  0  0  0  0  0  0  0  0  0  0
  -19.7150   -8.2575   22.3160 C   0  0  0  0  0  0  0  0  0  0  0  0
  -18.9887   -7.0890   22.0865 C   0  0  0  0  0  0  0  0  0  0  0  0
  -26.0461  -27.2752   21.1442 C   0  0  0  0  0  0  0  0  0  0  0  0
  -26.2401  -20.6989   18.9511 C   0  0  0  0  0  0  0  0  0  0  0  0
  -27.9868  -19.1224   19.4995 C   0  0  0  0  0  0  0  0  0  0  0  0
  -25.9556  -18.3547   18.4404 C   0  0  0  0  0  0  0  0  0  0  0  0
  -19.7325   -6.2096   24.2104 C   0  0  0  0  0  0  0  0  0  0  0  0
  -24.1420  -10.5532   20.9958 C   0  0  0  0  0  0  0  0  0  0  0  0
  -25.3607  -10.3606   18.7631 C   0  0  0  0  0  0  0  0  0  0  0  0
  -25.9615  -36.1697   24.0246 C   0  0  0  0  0  0  0  0  0  0  0  0
  -25.9495  -29.4430   20.0713 C   0  0  0  0  0  0  0  0  0  0  0  0
  -26.5992  -35.1635   23.2740 C   0  0  0  0  0  0  0  0  0  0  0  0
  -25.4765  -28.5539   21.0470 C   0  0  0  0  0  0  0  0  0  0  0  0
  -27.4994  -20.4293   19.4869 C   0  0  0  0  0  0  0  0  0  0  0  0
  -25.4682  -19.6615   18.4279 C   0  0  0  0  0  0  0  0  0  0  0  0
  -27.2149  -18.0851   18.9762 C   0  0  0  0  0  0  0  0  0  0  0  0
  -22.1448   -9.8875   22.8263 C   0  0  0  0  0  0  0  0  0  0  0  0
  -27.0630  -26.8817   20.2747 C   0  0  0  0  0  0  0  0  0  0  0  0
  -20.4501   -8.4020   23.4926 C   0  0  0  0  0  0  0  0  0  0  0  0
  -18.9973   -6.0651   23.0337 C   0  0  0  0  0  0  0  0  0  0  0  0
  -20.4588   -7.3781   24.4398 C   0  0  0  0  0  0  0  0  0  0  0  0
  -25.1736  -10.8977   20.0508 C   0  0  0  0  0  0  0  0  0  0  0  0
  -26.4669  -11.0130   18.2762 C   0  0  0  0  0  0  0  0  0  0  0  0
  -29.2046  -21.2702   21.0792 C   0  0  0  0  0  0  0  0  0  0  0  0
  -24.6022   -9.3613   18.0689 C   0  0  0  0  0  0  0  0  0  0  0  0
  -25.6614  -31.7393   22.2501 C   0  0  0  0  0  0  0  0  0  0  0  0
  -22.5978  -30.6827   22.3922 C   0  0  0  0  0  0  0  0  0  0  0  0
  -23.5576  -21.1676   17.7909 C   0  0  0  0  0  0  0  0  0  0  0  0
  -20.3870  -28.1312   21.8929 C   0  0  0  0  0  0  0  0  0  0  0  0
  -28.9375  -16.3182   19.4833 C   0  0  0  0  0  0  0  0  0  0  0  0
  -25.1227  -35.8450   25.2352 C   0  0  0  0  0  0  0  0  0  0  0  0
  -25.3409  -30.8110   19.9281 C   0  0  0  0  0  0  0  0  0  0  0  0
  -24.3768  -28.9367   22.0023 C   0  0  0  0  0  0  0  0  0  0  0  0
  -30.2101  -22.3702   21.3631 C   0  0  0  0  0  0  0  0  0  0  0  0
  -24.6822  -34.3847   25.2972 C   0  0  0  0  0  0  0  0  0  0  0  0
  -29.6785  -23.7712   21.1545 C   0  0  0  0  0  0  0  0  0  0  0  0
  -30.5072  -13.1321   19.7322 C   0  0  0  0  0  0  0  0  0  0  0  0
  -25.8589  -33.4593   25.0041 C   0  0  0  0  0  0  0  0  0  0  0  0
  -29.3350  -12.1484   19.7189 C   0  0  0  0  0  0  0  0  0  0  0  0
  -30.1662  -14.4104   20.4961 C   0  0  0  0  0  0  0  0  0  0  0  0
  -27.9792  -22.8756   19.5881 C   0  0  0  0  0  0  0  0  0  0  0  0
  -27.7637  -14.1002   20.0478 C   0  0  0  0  0  0  0  0  0  0  0  0
  -26.4089  -33.6964   23.5925 C   0  0  1  0  0  0  0  0  0  0  0  0
  -24.6712  -31.3039   21.2072 C   0  0  1  0  0  0  0  0  0  0  0  0
  -29.1201  -23.8797   19.7452 C   0  0  1  0  0  0  0  0  0  0  0  0
  -28.0373  -12.8245   19.2346 C   0  0  2  0  0  0  0  0  0  0  0  0
  -22.2014  -21.0346   17.1447 C   0  0  0  0  0  0  0  0  0  0  0  0
  -17.9568  -27.5546   22.1356 C   0  0  0  0  0  0  0  0  0  0  0  0
  -22.9711  -30.3885   25.4062 C   0  0  0  0  0  0  0  0  0  0  0  0
  -20.9195  -28.9541   25.4500 C   0  0  0  0  0  0  0  0  0  0  0  0
  -20.7606  -31.3329   24.7161 C   0  0  0  0  0  0  0  0  0  0  0  0
  -20.0938  -27.6415   18.9890 C   0  0  0  0  0  0  0  0  0  0  0  0
  -28.6376  -25.2993   19.4544 C   0  0  0  0  0  0  0  0  0  1  0  0
  -21.8633  -29.6384   23.1980 C   0  0  1  0  0  0  0  0  0  0  0  0
  -19.0340  -28.0907   21.2057 C   0  0  2  0  0  0  0  0  0  0  0  0
  -21.6507  -30.0716   24.6760 C   0  0  0  0  0  0  0  0  0  0  0  0
  -26.0879  -11.8202   20.3625 N   0  0  0  0  0  0  0  0  0  0  0  0
  -26.8601  -11.8678   19.2637 N   0  0  0  0  0  0  0  0  0  0  0  0
  -28.3004  -21.5060   20.0292 N   0  0  0  0  0  0  0  0  0  0  0  0
  -23.8181  -30.2874   21.8263 N   0  0  0  0  0  0  0  0  0  0  0  0
  -28.9278  -14.9975   19.9799 N   0  0  0  0  0  0  0  0  0  0  0  0
  -27.1320  -10.9332   17.1042 N   0  0  0  0  0  0  0  0  0  0  0  0
  -23.4954   -8.7940   18.7150 N   0  0  0  0  0  0  0  0  0  0  0  0
  -24.2087  -19.9309   17.8911 N   0  0  0  0  0  0  0  0  0  0  0  0
  -27.7097  -16.7574   18.9892 N   0  0  0  0  0  0  0  0  0  0  0  0
  -25.5552  -33.0704   22.6057 N   0  0  0  0  0  0  0  0  0  0  0  0
  -20.6282  -29.3583   22.4738 N   0  0  0  0  0  0  0  0  0  0  0  0
  -19.0915  -27.2168   19.9999 N   0  3  0  0  0  0  0  0  0  0  0  0
  -29.2819  -20.2300   21.7385 O   0  0  0  0  0  0  0  0  0  0  0  0
  -24.9071   -8.9708   16.9165 O   0  0  0  0  0  0  0  0  0  0  0  0
  -26.4614  -30.9274   22.7000 O   0  0  0  0  0  0  0  0  0  0  0  0
  -22.1033  -31.8054   22.2636 O   0  0  0  0  0  0  0  0  0  0  0  0
  -23.9746  -22.2619   18.1563 O   0  0  0  0  0  0  0  0  0  0  0  0
  -21.1516  -27.1693   21.9157 O   0  0  0  0  0  0  0  0  0  0  0  0
  -29.9661  -16.9992   19.4706 O   0  0  0  0  0  0  0  0  0  0  0  0
  -21.1701   -9.5630   23.7192 O   0  0  0  0  0  0  0  0  0  0  0  0
  -27.6050  -25.6378   20.3794 O   0  0  0  0  0  0  0  0  0  1  0  0
  -18.2986   -4.9437   22.8139 F   0  0  0  0  0  0  0  0  0  0  0  0
  -21.1622   -7.5117   25.5725 F   0  0  0  0  0  0  0  0  0  0  0  0
  1  2  1  0  0  0  0
  1  5  2  0  0  0  0
  2  6  2  0  0  0  0
  3  8  2  0  0  0  0
  3 18  1  0  0  0  0
  4  9  1  0  0  0  0
  4 18  2  0  0  0  0
  5 20  1  0  0  0  0
  6 22  1  0  0  0  0
  7 10  2  0  0  0  0
  7 21  1  0  0  0  0
  8 27  1  0  0  0  0
  9 27  2  0  0  0  0
 10 28  1  0  0  0  0
 11 12  2  0  0  0  0
 11 29  1  0  0  0  0
 12 30  1  0  0  0  0
 13 23  1  0  0  0  0
 13 28  2  0  0  0  0
 14 24  1  0  0  0  0
 14 25  2  0  0  0  0
 15 24  2  0  0  0  0
 15 26  1  0  0  0  0
 16 25  1  0  0  0  0
 16 26  2  0  0  0  0
 17 30  2  0  0  0  0
 17 31  1  0  0  0  0
 18 32  1  0  0  0  0
 19 32  1  0  0  0  0
 19 33  2  0  0  0  0
 19 35  1  0  0  0  0
 20 22  2  0  0  0  0
 20 41  1  0  0  0  0
 21 23  2  0  0  0  0
 21 42  1  0  0  0  0
 22 53  1  0  0  0  0
 23 43  1  0  0  0  0
 24 69  1  0  0  0  0
 25 74  1  0  0  0  0
 26 75  1  0  0  0  0
 27 86  1  0  0  0  0
 28 87  1  0  0  0  0
 29 31  2  0  0  0  0
 29 86  1  0  0  0  0
 30 88  1  0  0  0  0
 31 89  1  0  0  0  0
 32 67  2  0  0  0  0
 33 68  1  0  0  0  0
 33 72  1  0  0  0  0
 34 44  1  0  0  0  0
 34 69  1  0  0  0  0
 34 79  2  0  0  0  0
 35 73  1  0  0  0  0
 35 80  2  0  0  0  0
 36 54  1  0  0  0  0
 36 76  1  0  0  0  0
 36 81  2  0  0  0  0
 37 64  1  0  0  0  0
 37 70  1  0  0  0  0
 37 82  2  0  0  0  0
 38 57  1  0  0  0  0
 38 74  1  0  0  0  0
 38 83  2  0  0  0  0
 39 65  1  0  0  0  0
 39 77  1  0  0  0  0
 39 84  2  0  0  0  0
 40 71  1  0  0  0  0
 40 75  1  0  0  0  0
 40 85  2  0  0  0  0
 41 45  1  0  0  0  0
 42 54  1  0  0  0  0
 43 70  1  0  0  0  0
 44 46  1  0  0  0  0
 45 48  1  0  0  0  0
 46 55  1  0  0  0  0
 47 49  1  0  0  0  0
 47 50  1  0  0  0  0
 48 53  1  0  0  0  0
 49 56  1  0  0  0  0
 50 71  1  0  0  0  0
 51 55  1  0  0  0  0
 51 69  1  0  0  0  0
 52 56  1  0  0  0  0
 52 71  1  0  0  0  0
 53 76  1  0  0  0  0
 54 70  1  0  0  0  0
 55 63  1  0  0  0  0
 56 68  1  0  0  0  0
 58 65  1  0  0  0  0
 59 66  1  0  0  0  0
 60 66  1  0  0  0  0
 61 66  1  0  0  0  0
 62 78  1  0  0  0  0
 63 87  1  0  0  0  0
 64 66  1  0  0  0  0
 64 77  1  0  0  0  0
 65 78  1  0  0  0  0
 67 68  1  0  0  0  0
M  CHG  1  78   1
M  ISO  4  40 100  63 101  75 100  87 101
M  END
> <Batch ID>
0066

> <Smiles>
CNC(C)C(=O)NC(C(=O)N1Cc2cc([101O:1][101CH2:1]C3CCC(=O)N(c4cc(NC(C)=O)cc([100NH:0][100C:0](=O)N5CCCC(n6nc(-c7ccc(Oc8ccc(F)cc8F)cc7)c(C(N)=O)c6N)C5)c4)C3)ccc2CC1C(=O)NC1CCCc2ccccc21)C(C)(C)C

> <Shape>
0.322

> <Color>
0.084

> <Negative vol penalty>
0.000

$$$$

  -OEChem-04042323213D

 87 96  0     1  0  0  0  0  0999 V2000
  -27.5203  -33.4483   26.9344 C   0  0  0  0  0  0  0  0  0  0  0  0
  -27.5989  -32.1363   26.4783 C   0  0  0  0  0  0  0  0  0  0  0  0
  -22.0581  -12.9982   21.6882 C   0  0  0  0  0  0  0  0  0  0  0  0
  -23.4764  -12.5100   23.5821 C   0  0  0  0  0  0  0  0  0  0  0  0
  -26.3434  -34.1756   26.7621 C   0  0  0  0  0  0  0  0  0  0  0  0
  -26.5002  -31.5506   25.8505 C   0  0  0  0  0  0  0  0  0  0  0  0
  -27.7841  -28.9993   21.6687 C   0  0  0  0  0  0  0  0  0  0  0  0
  -26.3502  -20.5586   17.6582 C   0  0  0  0  0  0  0  0  0  0  0  0
  -26.6091  -19.2449   18.0490 C   0  0  0  0  0  0  0  0  0  0  0  0
  -20.9504  -13.0603   22.5336 C   0  0  0  0  0  0  0  0  0  0  0  0
  -22.3688  -12.5722   24.4276 C   0  0  0  0  0  0  0  0  0  0  0  0
  -28.3493  -27.7366   21.8416 C   0  0  0  0  0  0  0  0  0  0  0  0
  -19.7751  -10.5806   25.2863 C   0  0  0  0  0  0  0  0  0  0  0  0
  -19.6348   -9.5776   26.2453 C   0  0  0  0  0  0  0  0  0  0  0  0
  -26.2147  -26.7217   21.3592 C   0  0  0  0  0  0  0  0  0  0  0  0
  -28.6525  -19.9656   19.1178 C   0  0  0  0  0  0  0  0  0  0  0  0
  -19.7176  -11.2403   27.9963 C   0  0  0  0  0  0  0  0  0  0  0  0
  -23.3211  -12.7230   22.2124 C   0  0  0  0  0  0  0  0  0  0  0  0
  -24.6584  -11.7823   20.2543 C   0  0  0  0  0  0  0  0  0  0  0  0
  -25.2329  -33.6017   26.1232 C   0  0  0  0  0  0  0  0  0  0  0  0
  -26.4251  -29.1332   21.3500 C   0  0  0  0  0  0  0  0  0  0  0  0
  -25.3069  -32.2706   25.6707 C   0  0  0  0  0  0  0  0  0  0  0  0
  -25.6353  -27.9871   21.1803 C   0  0  0  0  0  0  0  0  0  0  0  0
  -27.2425  -21.5759   17.9971 C   0  0  0  0  0  0  0  0  0  0  0  0
  -28.3936  -21.2793   18.7269 C   0  0  0  0  0  0  0  0  0  0  0  0
  -27.7602  -18.9484   18.7788 C   0  0  0  0  0  0  0  0  0  0  0  0
  -21.1057  -12.8474   23.9034 C   0  0  0  0  0  0  0  0  0  0  0  0
  -27.5640  -26.5976   21.6897 C   0  0  0  0  0  0  0  0  0  0  0  0
  -19.8867  -11.9135   25.6822 C   0  0  0  0  0  0  0  0  0  0  0  0
  -19.6060   -9.9074   27.6003 C   0  0  0  0  0  0  0  0  0  0  0  0
  -19.8580  -12.2433   27.0372 C   0  0  0  0  0  0  0  0  0  0  0  0
  -24.4656  -12.6581   21.3394 C   0  0  0  0  0  0  0  0  0  0  0  0
  -25.8926  -12.1204   19.7553 C   0  0  0  0  0  0  0  0  0  0  0  0
  -30.6755  -22.3035   18.6746 C   0  0  0  0  0  0  0  0  0  0  0  0
  -23.7988  -10.7550   19.7430 C   0  0  0  0  0  0  0  0  0  0  0  0
  -23.9097  -30.4645   22.7656 C   0  0  0  0  0  0  0  0  0  0  0  0
  -22.4273  -29.6928   19.9855 C   0  0  0  0  0  0  0  0  0  0  0  0
  -22.3240  -27.7083   17.2110 C   0  0  0  0  0  0  0  0  0  0  0  0
  -29.1177  -17.1485   19.9030 C   0  0  0  0  0  0  0  0  0  0  0  0
  -23.9664  -34.4116   26.0021 C   0  0  0  0  0  0  0  0  0  0  0  0
  -25.8368  -30.5016   21.1406 C   0  0  0  0  0  0  0  0  0  0  0  0
  -24.1760  -28.0762   20.8185 C   0  0  0  0  0  0  0  0  0  0  0  0
  -31.4701  -23.4824   19.2098 C   0  0  0  0  0  0  0  0  0  0  0  0
  -22.9735  -33.8421   24.9921 C   0  0  0  0  0  0  0  0  0  0  0  0
  -31.2527  -23.6015   20.7144 C   0  0  0  0  0  0  0  0  0  0  0  0
  -30.1069  -13.9481   21.1096 C   0  0  0  0  0  0  0  0  0  0  0  0
  -22.8150  -32.3379   25.1893 C   0  0  0  0  0  0  0  0  0  0  0  0
  -28.7908  -13.1724   21.2009 C   0  0  0  0  0  0  0  0  0  0  0  0
  -29.9273  -15.4166   21.4904 C   0  0  0  0  0  0  0  0  0  0  0  0
  -27.5486  -15.3457   20.8534 C   0  0  0  0  0  0  0  0  0  0  0  0
  -28.8621  -23.4805   19.8507 C   0  0  0  0  0  0  0  0  0  0  0  0
  -24.1447  -31.6086   24.9626 C   0  0  1  0  0  0  0  0  0  0  0  0
  -24.3225  -30.5352   21.3226 C   0  0  1  0  0  0  0  0  0  0  0  0
  -27.6661  -13.8764   20.4165 C   0  0  2  0  0  0  0  0  0  0  0  0
  -29.7557  -23.7739   21.0768 C   0  0  1  0  0  0  0  0  0  0  0  0
  -26.9396  -22.9739   17.5651 C   0  0  0  0  0  0  0  0  0  0  0  0
  -29.3923  -22.8241   22.2321 C   0  0  0  0  0  0  0  0  0  0  0  0
  -20.9734  -27.2893   15.1379 C   0  0  0  0  0  0  0  0  0  0  0  0
  -20.3115  -28.2634   21.6559 C   0  0  0  0  0  0  0  0  0  0  0  0
  -19.5578  -27.0945   19.5741 C   0  0  0  0  0  0  0  0  0  0  0  0
  -19.4072  -29.5795   19.7312 C   0  0  0  0  0  0  0  0  0  0  0  0
  -24.6094  -28.3658   15.4492 C   0  0  0  0  0  0  0  0  0  0  0  0
  -29.4963  -25.2194   21.5390 C   0  0  0  0  0  0  0  0  0  1  0  0
  -21.6736  -28.4889   19.4742 C   0  0  1  0  0  0  0  0  0  0  0  0
  -22.1499  -28.0414   15.7402 C   0  0  2  0  0  0  0  0  0  0  0  0
  -20.2645  -28.3546   20.1176 C   0  0  0  0  0  0  0  0  0  0  0  0
  -25.4948  -13.4900   21.5199 N   0  0  0  0  0  0  0  0  0  0  0  0
  -26.3464  -13.1383   20.5415 N   0  0  0  0  0  0  0  0  0  0  0  0
  -29.3263  -22.3146   19.0861 N   0  0  0  0  0  0  0  0  0  0  0  0
  -23.6455  -29.4366   20.6306 N   0  0  0  0  0  0  0  0  0  0  0  0
  -28.8484  -16.0188   20.7042 N   0  0  0  0  0  0  0  0  0  0  0  0
  -26.6231  -11.6433   18.7252 N   0  0  0  0  0  0  0  0  0  0  0  0
  -23.9272   -9.4582   20.2590 N   0  0  0  0  0  0  0  0  0  0  0  0
  -28.0228  -17.6137   19.1755 N   0  0  0  0  0  0  0  0  0  0  0  0
  -24.4182  -31.4846   23.5469 N   0  0  0  0  0  0  0  0  0  0  0  0
  -21.6579  -28.6045   18.0200 N   0  0  0  0  0  0  0  0  0  0  0  0
  -23.3786  -27.6799   14.9782 N   0  3  0  0  0  0  0  0  0  0  0  0
  -31.2398  -21.4517   17.9908 O   0  0  0  0  0  0  0  0  0  0  0  0
  -22.9535  -10.9768   18.8431 O   0  0  0  0  0  0  0  0  0  0  0  0
  -23.1824  -29.5529   23.1421 O   0  0  0  0  0  0  0  0  0  0  0  0
  -21.9560  -30.8196   19.8125 O   0  0  0  0  0  0  0  0  0  0  0  0
  -22.9819  -26.7470   17.6029 O   0  0  0  0  0  0  0  0  0  0  0  0
  -30.2439  -17.6488   19.8441 O   0  0  0  0  0  0  0  0  0  0  0  0
  -20.0252  -12.9082   24.7287 O   0  0  0  0  0  0  0  0  0  0  0  0
  -28.1130  -25.3639   21.8585 O   0  0  0  0  0  0  0  0  0  1  0  0
  -19.4698   -8.9443   28.5212 F   0  0  0  0  0  0  0  0  0  0  0  0
  -19.9636  -13.5221   27.4235 F   0  0  0  0  0  0  0  0  0  0  0  0
  1  2  1  0  0  0  0
  1  5  2  0  0  0  0
  2  6  2  0  0  0  0
  3 10  2  0  0  0  0
  3 18  1  0  0  0  0
  4 11  1  0  0  0  0
  4 18  2  0  0  0  0
  5 20  1  0  0  0  0
  6 22  1  0  0  0  0
  7 12  2  0  0  0  0
  7 21  1  0  0  0  0
  8  9  2  0  0  0  0
  8 24  1  0  0  0  0
  9 26  1  0  0  0  0
 10 27  1  0  0  0  0
 11 27  2  0  0  0  0
 12 28  1  0  0  0  0
 13 14  2  0  0  0  0
 13 29  1  0  0  0  0
 14 30  1  0  0  0  0
 15 23  1  0  0  0  0
 15 28  2  0  0  0  0
 16 25  1  0  0  0  0
 16 26  2  0  0  0  0
 17 30  2  0  0  0  0
 17 31  1  0  0  0  0
 18 32  1  0  0  0  0
 19 32  1  0  0  0  0
 19 33  2  0  0  0  0
 19 35  1  0  0  0  0
 20 22  2  0  0  0  0
 20 40  1  0  0  0  0
 21 23  2  0  0  0  0
 21 41  1  0  0  0  0
 22 52  1  0  0  0  0
 23 42  1  0  0  0  0
 24 25  2  0  0  0  0
 24 56  1  0  0  0  0
 25 69  1  0  0  0  0
 26 74  1  0  0  0  0
 27 84  1  0  0  0  0
 28 85  1  0  0  0  0
 29 31  2  0  0  0  0
 29 84  1  0  0  0  0
 30 86  1  0  0  0  0
 31 87  1  0  0  0  0
 32 67  2  0  0  0  0
 33 68  1  0  0  0  0
 33 72  1  0  0  0  0
 34 43  1  0  0  0  0
 34 69  1  0  0  0  0
 34 78  2  0  0  0  0
 35 73  1  0  0  0  0
 35 79  2  0  0  0  0
 36 53  1  0  0  0  0
 36 75  1  0  0  0  0
 36 80  2  0  0  0  0
 37 64  1  0  0  0  0
 37 70  1  0  0  0  0
 37 81  2  0  0  0  0
 38 65  1  0  0  0  0
 38 76  1  0  0  0  0
 38 82  2  0  0  0  0
 39 71  1  0  0  0  0
 39 74  1  0  0  0  0
 39 83  2  0  0  0  0
 40 44  1  0  0  0  0
 41 53  1  0  0  0  0
 42 70  1  0  0  0  0
 43 45  1  0  0  0  0
 44 47  1  0  0  0  0
 45 55  1  0  0  0  0
 46 48  1  0  0  0  0
 46 49  1  0  0  0  0
 47 52  1  0  0  0  0
 48 54  1  0  0  0  0
 49 71  1  0  0  0  0
 50 54  1  0  0  0  0
 50 71  1  0  0  0  0
 51 55  1  0  0  0  0
 51 69  1  0  0  0  0
 52 75  1  0  0  0  0
 53 70  1  0  0  0  0
 54 68  1  0  0  0  0
 55 57  1  0  0  0  0
 55 63  1  0  0  0  0
 58 65  1  0  0  0  0
 59 66  1  0  0  0  0
 60 66  1  0  0  0  0
 61 66  1  0  0  0  0
 62 77  1  0  0  0  0
 63 85  1  0  0  0  0
 64 66  1  0  0  0  0
 64 76  1  0  0  0  0
 65 77  1  0  0  0  0
 67 68  1  0  0  0  0
M  CHG  1  77   1
M  ISO  4  39 100  63 101  74 100  85 101
M  END
> <Batch ID>
0066

> <Smiles>
CNC(C)C(=O)NC(C(=O)N1Cc2cc([101O:1][101CH2:1]C3(C)CCC(=O)N(c4cc([100NH:0][100C:0](=O)N5CCCC(n6nc(-c7ccc(Oc8ccc(F)cc8F)cc7)c(C(N)=O)c6N)C5)ccc4C)C3)ccc2CC1C(=O)NC1CCCc2ccccc21)C(C)(C)C

> <Shape>
0.265

> <Color>
0.059

> <Negative vol penalty>
0.000

$$$$

  -OEChem-04042323213D

 87 96  0     1  0  0  0  0  0999 V2000
  -32.3771  -28.4643   15.6469 C   0  0  0  0  0  0  0  0  0  0  0  0
  -31.4345  -27.8120   16.4352 C   0  0  0  0  0  0  0  0  0  0  0  0
  -22.7752  -11.4715   18.9006 C   0  0  0  0  0  0  0  0  0  0  0  0
  -23.1721   -9.9056   20.6970 C   0  0  0  0  0  0  0  0  0  0  0  0
  -28.2967  -18.5991   21.8953 C   0  0  0  0  0  0  0  0  0  0  0  0
  -33.0130  -29.6088   16.1260 C   0  0  0  0  0  0  0  0  0  0  0  0
  -31.1281  -28.3033   17.7038 C   0  0  0  0  0  0  0  0  0  0  0  0
  -26.1456  -28.3822   18.6053 C   0  0  0  0  0  0  0  0  0  0  0  0
  -27.3541  -19.5739   22.2220 C   0  0  0  0  0  0  0  0  0  0  0  0
  -21.8034  -10.6209   18.3737 C   0  0  0  0  0  0  0  0  0  0  0  0
  -22.2003   -9.0549   20.1702 C   0  0  0  0  0  0  0  0  0  0  0  0
  -25.5390  -27.1711   18.9357 C   0  0  0  0  0  0  0  0  0  0  0  0
  -18.8274   -8.8480   20.1356 C   0  0  0  0  0  0  0  0  0  0  0  0
  -17.9097   -8.2864   21.0233 C   0  0  0  0  0  0  0  0  0  0  0  0
  -25.5962  -27.7857   21.2677 C   0  0  0  0  0  0  0  0  0  0  0  0
  -28.1412  -20.9468   20.3964 C   0  0  0  0  0  0  0  0  0  0  0  0
  -18.6501   -6.0755   20.3903 C   0  0  0  0  0  0  0  0  0  0  0  0
  -23.4596  -11.1139   20.0622 C   0  0  0  0  0  0  0  0  0  0  0  0
  -29.1617  -18.7981   20.8192 C   0  0  0  0  0  0  0  0  0  0  0  0
  -24.2732  -13.0221   21.5470 C   0  0  0  0  0  0  0  0  0  0  0  0
  -32.7072  -30.1199   17.3972 C   0  0  0  0  0  0  0  0  0  0  0  0
  -26.4925  -29.3010   19.6062 C   0  0  0  0  0  0  0  0  0  0  0  0
  -31.7615  -29.4550   18.2009 C   0  0  0  0  0  0  0  0  0  0  0  0
  -26.2047  -29.0088   20.9471 C   0  0  0  0  0  0  0  0  0  0  0  0
  -29.0839  -19.9719   20.0697 C   0  0  0  0  0  0  0  0  0  0  0  0
  -27.2763  -20.7478   21.4725 C   0  0  0  0  0  0  0  0  0  0  0  0
  -21.5159   -9.4126   19.0085 C   0  0  0  0  0  0  0  0  0  0  0  0
  -25.2669  -26.8715   20.2674 C   0  0  0  0  0  0  0  0  0  0  0  0
  -19.6564   -8.0233   19.3752 C   0  0  0  0  0  0  0  0  0  0  0  0
  -17.8210   -6.9002   21.1507 C   0  0  0  0  0  0  0  0  0  0  0  0
  -19.5678   -6.6371   19.5025 C   0  0  0  0  0  0  0  0  0  0  0  0
  -24.4639  -11.9919   20.6066 C   0  0  0  0  0  0  0  0  0  0  0  0
  -25.5262  -13.5527   21.7338 C   0  0  0  0  0  0  0  0  0  0  0  0
  -26.1102  -22.9761   21.1507 C   0  0  0  0  0  0  0  0  0  0  0  0
  -30.1561  -17.7434   20.4943 C   0  0  0  0  0  0  0  0  0  0  0  0
  -23.0709  -13.4601   22.1938 C   0  0  0  0  0  0  0  0  0  0  0  0
  -29.2165  -30.5769   20.6334 C   0  0  0  0  0  0  0  0  0  0  0  0
  -27.2324  -32.3587   22.4804 C   0  0  0  0  0  0  0  0  0  0  0  0
  -24.1950  -32.6709   24.0046 C   0  0  0  0  0  0  0  0  0  0  0  0
  -30.3844  -15.3803   19.7960 C   0  0  0  0  0  0  0  0  0  0  0  0
  -33.4551  -31.3329   17.8911 C   0  0  0  0  0  0  0  0  0  0  0  0
  -27.1219  -30.6145   19.2309 C   0  0  0  0  0  0  0  0  0  0  0  0
  -26.5388  -29.9701   22.0575 C   0  0  0  0  0  0  0  0  0  0  0  0
  -32.8003  -32.0034   19.0961 C   0  0  0  0  0  0  0  0  0  0  0  0
  -30.0691  -11.8870   20.2368 C   0  0  0  0  0  0  0  0  0  0  0  0
  -32.4087  -30.9616   20.1392 C   0  0  0  0  0  0  0  0  0  0  0  0
  -28.5676  -11.6850   20.4580 C   0  0  0  0  0  0  0  0  0  0  0  0
  -24.8244  -22.9542   23.1533 C   0  0  0  0  0  0  0  0  0  0  0  0
  -30.3487  -12.9742   19.2001 C   0  0  0  0  0  0  0  0  0  0  0  0
  -25.3535  -21.5601   22.8816 C   0  0  0  0  0  0  0  0  0  0  0  0
  -28.1877  -14.0551   19.6691 C   0  0  0  0  0  0  0  0  0  0  0  0
  -31.3841  -29.9714   19.5724 C   0  0  1  0  0  0  0  0  0  0  0  0
  -24.8906  -23.6225   21.7877 C   0  0  1  0  0  0  0  0  0  0  0  0
  -27.8996  -31.2536   20.3773 C   0  0  1  0  0  0  0  0  0  0  0  0
  -27.8551  -13.0197   20.7555 C   0  0  1  0  0  0  0  0  0  0  0  0
  -29.9990  -20.2107   18.9133 C   0  0  0  0  0  0  0  0  0  0  0  0
  -22.8794  -34.2206   25.4760 C   0  0  0  0  0  0  0  0  0  0  0  0
  -28.8696  -31.4553   24.8916 C   0  0  0  0  0  0  0  0  0  0  0  0
  -26.9966  -32.2252   26.3638 C   0  0  0  0  0  0  0  0  0  0  0  0
  -28.2055  -33.8662   24.9255 C   0  0  0  0  0  0  0  0  0  0  0  0
  -22.0976  -33.0304   21.9477 C   0  0  0  0  0  0  0  0  0  0  0  0
  -24.9933  -25.1339   21.8680 C   0  0  0  0  0  0  0  0  0  1  0  0
  -26.6273  -32.2063   23.8550 C   0  0  1  0  0  0  0  0  0  0  0  0
  -23.2016  -33.8180   24.0453 C   0  0  2  0  0  0  0  0  0  0  0  0
  -27.6701  -32.4191   24.9885 C   0  0  0  0  0  0  0  0  0  0  0  0
  -25.7378  -11.8736   20.2227 N   0  0  0  0  0  0  0  0  0  0  0  0
  -26.3588  -12.8363   20.9253 N   0  0  0  0  0  0  0  0  0  0  0  0
  -26.3115  -21.7446   21.8075 N   0  0  0  0  0  0  0  0  0  0  0  0
  -27.1590  -31.2385   21.6404 N   0  0  0  0  0  0  0  0  0  0  0  0
  -29.6463  -14.2075   19.5593 N   0  0  0  0  0  0  0  0  0  0  0  0
  -25.9859  -14.5576   22.5092 N   0  0  0  0  0  0  0  0  0  0  0  0
  -21.8704  -12.8050   21.8870 N   0  0  0  0  0  0  0  0  0  0  0  0
  -29.6254  -16.4934   20.1744 N   0  0  0  0  0  0  0  0  0  0  0  0
  -30.0662  -30.5688   19.5437 N   0  0  0  0  0  0  0  0  0  0  0  0
  -25.4938  -33.1233   23.9060 N   0  0  0  0  0  0  0  0  0  0  0  0
  -21.9319  -33.4279   23.3695 N   0  3  0  0  0  0  0  0  0  0  0  0
  -26.7110  -23.4666   20.2058 O   0  0  0  0  0  0  0  0  0  0  0  0
  -31.3502  -18.0294   20.4861 O   0  0  0  0  0  0  0  0  0  0  0  0
  -23.0587  -14.4151   23.0070 O   0  0  0  0  0  0  0  0  0  0  0  0
  -29.4454  -30.0990   21.7384 O   0  0  0  0  0  0  0  0  0  0  0  0
  -27.7449  -33.4343   22.1611 O   0  0  0  0  0  0  0  0  0  0  0  0
  -23.8533  -31.4915   24.0590 O   0  0  0  0  0  0  0  0  0  0  0  0
  -31.6160  -15.4236   19.7149 O   0  0  0  0  0  0  0  0  0  0  0  0
  -20.5676   -8.5823   18.4948 O   0  0  0  0  0  0  0  0  0  0  0  0
  -24.6756  -25.6898   20.5927 O   0  0  0  0  0  0  0  0  0  1  0  0
  -16.9407   -6.3612   22.0044 F   0  0  0  0  0  0  0  0  0  0  0  0
  -20.3624   -5.8397   18.7755 F   0  0  0  0  0  0  0  0  0  0  0  0
  1  2  1  0  0  0  0
  1  6  2  0  0  0  0
  2  7  2  0  0  0  0
  3 10  2  0  0  0  0
  3 18  1  0  0  0  0
  4 11  1  0  0  0  0
  4 18  2  0  0  0  0
  5  9  2  0  0  0  0
  5 19  1  0  0  0  0
  6 21  1  0  0  0  0
  7 23  1  0  0  0  0
  8 12  2  0  0  0  0
  8 22  1  0  0  0  0
  9 26  1  0  0  0  0
 10 27  1  0  0  0  0
 11 27  2  0  0  0  0
 12 28  1  0  0  0  0
 13 14  2  0  0  0  0
 13 29  1  0  0  0  0
 14 30  1  0  0  0  0
 15 24  1  0  0  0  0
 15 28  2  0  0  0  0
 16 25  1  0  0  0  0
 16 26  2  0  0  0  0
 17 30  2  0  0  0  0
 17 31  1  0  0  0  0
 18 32  1  0  0  0  0
 19 25  2  0  0  0  0
 19 35  1  0  0  0  0
 20 32  1  0  0  0  0
 20 33  2  0  0  0  0
 20 36  1  0  0  0  0
 21 23  2  0  0  0  0
 21 41  1  0  0  0  0
 22 24  2  0  0  0  0
 22 42  1  0  0  0  0
 23 52  1  0  0  0  0
 24 43  1  0  0  0  0
 25 56  1  0  0  0  0
 26 68  1  0  0  0  0
 27 84  1  0  0  0  0
 28 85  1  0  0  0  0
 29 31  2  0  0  0  0
 29 84  1  0  0  0  0
 30 86  1  0  0  0  0
 31 87  1  0  0  0  0
 32 66  2  0  0  0  0
 33 67  1  0  0  0  0
 33 71  1  0  0  0  0
 34 53  1  0  0  0  0
 34 68  1  0  0  0  0
 34 77  2  0  0  0  0
 35 73  1  0  0  0  0
 35 78  2  0  0  0  0
 36 72  1  0  0  0  0
 36 79  2  0  0  0  0
 37 54  1  0  0  0  0
 37 74  1  0  0  0  0
 37 80  2  0  0  0  0
 38 63  1  0  0  0  0
 38 69  1  0  0  0  0
 38 81  2  0  0  0  0
 39 64  1  0  0  0  0
 39 75  1  0  0  0  0
 39 82  2  0  0  0  0
 40 70  1  0  0  0  0
 40 73  1  0  0  0  0
 40 83  2  0  0  0  0
 41 44  1  0  0  0  0
 42 54  1  0  0  0  0
 43 69  1  0  0  0  0
 44 46  1  0  0  0  0
 45 47  1  0  0  0  0
 45 49  1  0  0  0  0
 46 52  1  0  0  0  0
 47 55  1  0  0  0  0
 48 50  1  0  0  0  0
 48 53  1  0  0  0  0
 49 70  1  0  0  0  0
 50 68  1  0  0  0  0
 51 55  1  0  0  0  0
 51 70  1  0  0  0  0
 52 74  1  0  0  0  0
 53 62  1  0  0  0  0
 54 69  1  0  0  0  0
 55 67  1  0  0  0  0
 57 64  1  0  0  0  0
 58 65  1  0  0  0  0
 59 65  1  0  0  0  0
 60 65  1  0  0  0  0
 61 76  1  0  0  0  0
 62 85  1  0  0  0  0
 63 65  1  0  0  0  0
 63 75  1  0  0  0  0
 64 76  1  0  0  0  0
 66 67  1  0  0  0  0
M  CHG  1  76   1
M  ISO  4  40 100  62 101  73 100  85 101
M  END
> <Batch ID>
0066

> <Smiles>
CNC(C)C(=O)NC(C(=O)N1Cc2cc([101O:1][101CH2:1]C3CCN(c4ccc(C(=O)[100NH:0][100C:0](=O)N5CCCC(n6nc(-c7ccc(Oc8ccc(F)cc8F)cc7)c(C(N)=O)c6N)C5)c(C)c4)C3=O)ccc2CC1C(=O)NC1CCCc2ccccc21)C(C)(C)C

> <Shape>
0.233

> <Color>
0.125

> <Negative vol penalty>
0.000

$$$$

  -OEChem-04042323213D

 86 95  0     1  0  0  0  0  0999 V2000
  -27.5519  -31.1370   28.1197 C   0  0  0  0  0  0  0  0  0  0  0  0
  -27.7305  -30.2291   27.0808 C   0  0  0  0  0  0  0  0  0  0  0  0
  -23.7503   -8.9836   20.2445 C   0  0  0  0  0  0  0  0  0  0  0  0
  -23.1737  -10.8139   21.7124 C   0  0  0  0  0  0  0  0  0  0  0  0
  -26.2782  -31.6276   28.4039 C   0  0  0  0  0  0  0  0  0  0  0  0
  -26.6352  -29.8104   26.3262 C   0  0  0  0  0  0  0  0  0  0  0  0
  -27.5955  -29.7899   21.3541 C   0  0  0  0  0  0  0  0  0  0  0  0
  -28.1902  -19.9701   18.5652 C   0  0  0  0  0  0  0  0  0  0  0  0
  -28.1366  -18.5763   18.5593 C   0  0  0  0  0  0  0  0  0  0  0  0
  -22.9376   -8.1297   20.9901 C   0  0  0  0  0  0  0  0  0  0  0  0
  -22.3609   -9.9600   22.4579 C   0  0  0  0  0  0  0  0  0  0  0  0
  -28.3392  -28.7221   20.8536 C   0  0  0  0  0  0  0  0  0  0  0  0
  -19.6373   -7.4518   21.2764 C   0  0  0  0  0  0  0  0  0  0  0  0
  -18.7881   -6.5926   20.5792 C   0  0  0  0  0  0  0  0  0  0  0  0
  -26.3062  -27.6718   20.0901 C   0  0  0  0  0  0  0  0  0  0  0  0
  -30.2595  -18.4898   19.7096 C   0  0  0  0  0  0  0  0  0  0  0  0
  -19.8792   -4.6907   21.5939 C   0  0  0  0  0  0  0  0  0  0  0  0
  -23.8684  -10.3258   20.6057 C   0  0  0  0  0  0  0  0  0  0  0  0
  -24.3322  -11.9831   18.7227 C   0  0  0  0  0  0  0  0  0  0  0  0
  -25.1682  -31.2222   27.6462 C   0  0  0  0  0  0  0  0  0  0  0  0
  -26.1982  -29.8015   21.2357 C   0  0  0  0  0  0  0  0  0  0  0  0
  -25.3452  -30.2951   26.6014 C   0  0  0  0  0  0  0  0  0  0  0  0
  -25.5473  -28.7421   20.5876 C   0  0  0  0  0  0  0  0  0  0  0  0
  -30.3131  -19.8837   19.7154 C   0  0  0  0  0  0  0  0  0  0  0  0
  -29.2785  -20.6238   19.1432 C   0  0  0  0  0  0  0  0  0  0  0  0
  -29.1712  -17.8362   19.1315 C   0  0  0  0  0  0  0  0  0  0  0  0
  -22.2429   -8.6178   22.0967 C   0  0  0  0  0  0  0  0  0  0  0  0
  -27.6944  -27.6615   20.2241 C   0  0  0  0  0  0  0  0  0  0  0  0
  -20.6076   -6.9305   22.1323 C   0  0  0  0  0  0  0  0  0  0  0  0
  -18.9090   -5.2121   20.7380 C   0  0  0  0  0  0  0  0  0  0  0  0
  -20.7285   -5.5500   22.2911 C   0  0  0  0  0  0  0  0  0  0  0  0
  -24.7082  -11.2083   19.8363 C   0  0  0  0  0  0  0  0  0  0  0  0
  -25.4820  -12.6396   18.3572 C   0  0  0  0  0  0  0  0  0  0  0  0
  -30.2982  -22.8611   18.5444 C   0  0  0  0  0  0  0  0  0  0  0  0
  -23.0576  -12.0992   18.0765 C   0  0  0  0  0  0  0  0  0  0  0  0
  -23.7732  -29.8259   23.2906 C   0  0  0  0  0  0  0  0  0  0  0  0
  -22.0022  -30.1776   20.5957 C   0  0  0  0  0  0  0  0  0  0  0  0
  -21.7411  -29.7339   17.2220 C   0  0  0  0  0  0  0  0  0  0  0  0
  -30.0581  -15.5361   19.6507 C   0  0  0  0  0  0  0  0  0  0  0  0
  -23.8036  -31.7437   28.0212 C   0  0  0  0  0  0  0  0  0  0  0  0
  -25.4126  -30.9734   21.7571 C   0  0  0  0  0  0  0  0  0  0  0  0
  -24.0511  -28.7162   20.4169 C   0  0  0  0  0  0  0  0  0  0  0  0
  -29.8643  -24.3002   18.7156 C   0  0  0  0  0  0  0  0  0  0  0  0
  -22.7524  -31.5368   26.9338 C   0  0  0  0  0  0  0  0  0  0  0  0
  -30.2689  -11.9885   19.8685 C   0  0  0  0  0  0  0  0  0  0  0  0
  -22.8218  -30.1141   26.3880 C   0  0  0  0  0  0  0  0  0  0  0  0
  -28.8101  -11.5330   19.7879 C   0  0  0  0  0  0  0  0  0  0  0  0
  -30.4139  -13.2907   20.6540 C   0  0  0  0  0  0  0  0  0  0  0  0
  -28.0984  -13.9360   20.1142 C   0  0  0  0  0  0  0  0  0  0  0  0
  -28.2455  -22.8518   19.7086 C   0  0  0  0  0  0  0  0  0  0  0  0
  -24.1856  -29.8360   25.7443 C   0  0  1  0  0  0  0  0  0  0  0  0
  -23.9515  -30.6360   22.0377 C   0  0  1  0  0  0  0  0  0  0  0  0
  -27.8944  -12.6627   19.2771 C   0  0  2  0  0  0  0  0  0  0  0  0
  -28.8465  -24.2517   19.8590 C   0  0  1  0  0  0  0  0  0  0  0  0
  -31.4909  -20.5578   20.3409 C   0  0  0  0  0  0  0  0  0  0  0  0
  -29.5517  -24.4008   21.2178 C   0  0  0  0  0  0  0  0  0  0  0  0
  -20.1599  -30.0858   15.3055 C   0  0  0  0  0  0  0  0  0  0  0  0
  -20.3653  -27.7694   21.5073 C   0  0  0  0  0  0  0  0  0  0  0  0
  -19.4650  -27.5876   19.1782 C   0  0  0  0  0  0  0  0  0  0  0  0
  -19.0188  -29.6363   20.5296 C   0  0  0  0  0  0  0  0  0  0  0  0
  -23.6306  -31.5484   15.8449 C   0  0  0  0  0  0  0  0  0  0  0  0
  -27.7822  -25.3403   19.7138 C   0  0  0  0  0  0  0  0  0  1  0  0
  -21.3428  -29.2340   19.6191 C   0  0  1  0  0  0  0  0  0  0  0  0
  -21.3060  -30.6748   16.1130 C   0  0  2  0  0  0  0  0  0  0  0  0
  -20.0760  -28.5561   20.2133 C   0  0  0  0  0  0  0  0  0  0  0  0
  -25.9962  -11.3574   20.1571 N   0  0  0  0  0  0  0  0  0  0  0  0
  -26.4396  -12.2335   19.2395 N   0  0  0  0  0  0  0  0  0  0  0  0
  -29.3143  -22.0506   19.1388 N   0  0  0  0  0  0  0  0  0  0  0  0
  -23.3264  -29.8821   20.9492 N   0  0  0  0  0  0  0  0  0  0  0  0
  -29.5199  -14.3158   20.1110 N   0  0  0  0  0  0  0  0  0  0  0  0
  -25.7573  -13.5186   17.3704 N   0  0  0  0  0  0  0  0  0  0  0  0
  -21.9825  -11.3550   18.5810 N   0  0  0  0  0  0  0  0  0  0  0  0
  -29.1160  -16.4203   19.1260 N   0  0  0  0  0  0  0  0  0  0  0  0
  -24.2568  -30.4391   24.4306 N   0  0  0  0  0  0  0  0  0  0  0  0
  -21.0937  -30.0085   18.4081 N   0  0  0  0  0  0  0  0  0  0  0  0
  -22.4424  -30.9455   15.1878 N   0  3  0  0  0  0  0  0  0  0  0  0
  -31.3097  -22.5505   17.9319 O   0  0  0  0  0  0  0  0  0  0  0  0
  -22.8814  -12.8284   17.0712 O   0  0  0  0  0  0  0  0  0  0  0  0
  -23.2353  -28.7266   23.2278 O   0  0  0  0  0  0  0  0  0  0  0  0
  -21.3682  -31.1453   21.0236 O   0  0  0  0  0  0  0  0  0  0  0  0
  -22.5695  -28.8421   17.0521 O   0  0  0  0  0  0  0  0  0  0  0  0
  -31.2691  -15.7679   19.6920 O   0  0  0  0  0  0  0  0  0  0  0  0
  -21.4495   -7.7849   22.8243 O   0  0  0  0  0  0  0  0  0  0  0  0
  -28.4179  -26.6177   19.7353 O   0  0  0  0  0  0  0  0  0  1  0  0
  -18.0923   -4.3871   20.0696 F   0  0  0  0  0  0  0  0  0  0  0  0
  -21.6580   -5.0434   23.1128 F   0  0  0  0  0  0  0  0  0  0  0  0
  1  2  1  0  0  0  0
  1  5  2  0  0  0  0
  2  6  2  0  0  0  0
  3 10  2  0  0  0  0
  3 18  1  0  0  0  0
  4 11  1  0  0  0  0
  4 18  2  0  0  0  0
  5 20  1  0  0  0  0
  6 22  1  0  0  0  0
  7 12  2  0  0  0  0
  7 21  1  0  0  0  0
  8  9  2  0  0  0  0
  8 25  1  0  0  0  0
  9 26  1  0  0  0  0
 10 27  1  0  0  0  0
 11 27  2  0  0  0  0
 12 28  1  0  0  0  0
 13 14  2  0  0  0  0
 13 29  1  0  0  0  0
 14 30  1  0  0  0  0
 15 23  1  0  0  0  0
 15 28  2  0  0  0  0
 16 24  1  0  0  0  0
 16 26  2  0  0  0  0
 17 30  2  0  0  0  0
 17 31  1  0  0  0  0
 18 32  1  0  0  0  0
 19 32  1  0  0  0  0
 19 33  2  0  0  0  0
 19 35  1  0  0  0  0
 20 22  2  0  0  0  0
 20 40  1  0  0  0  0
 21 23  2  0  0  0  0
 21 41  1  0  0  0  0
 22 51  1  0  0  0  0
 23 42  1  0  0  0  0
 24 25  2  0  0  0  0
 24 55  1  0  0  0  0
 25 68  1  0  0  0  0
 26 73  1  0  0  0  0
 27 83  1  0  0  0  0
 28 84  1  0  0  0  0
 29 31  2  0  0  0  0
 29 83  1  0  0  0  0
 30 85  1  0  0  0  0
 31 86  1  0  0  0  0
 32 66  2  0  0  0  0
 33 67  1  0  0  0  0
 33 71  1  0  0  0  0
 34 43  1  0  0  0  0
 34 68  1  0  0  0  0
 34 77  2  0  0  0  0
 35 72  1  0  0  0  0
 35 78  2  0  0  0  0
 36 52  1  0  0  0  0
 36 74  1  0  0  0  0
 36 79  2  0  0  0  0
 37 63  1  0  0  0  0
 37 69  1  0  0  0  0
 37 80  2  0  0  0  0
 38 64  1  0  0  0  0
 38 75  1  0  0  0  0
 38 81  2  0  0  0  0
 39 70  1  0  0  0  0
 39 73  1  0  0  0  0
 39 82  2  0  0  0  0
 40 44  1  0  0  0  0
 41 52  1  0  0  0  0
 42 69  1  0  0  0  0
 43 54  1  0  0  0  0
 44 46  1  0  0  0  0
 45 47  1  0  0  0  0
 45 48  1  0  0  0  0
 46 51  1  0  0  0  0
 47 53  1  0  0  0  0
 48 70  1  0  0  0  0
 49 53  1  0  0  0  0
 49 70  1  0  0  0  0
 50 54  1  0  0  0  0
 50 68  1  0  0  0  0
 51 74  1  0  0  0  0
 52 69  1  0  0  0  0
 53 67  1  0  0  0  0
 54 56  1  0  0  0  0
 54 62  1  0  0  0  0
 57 64  1  0  0  0  0
 58 65  1  0  0  0  0
 59 65  1  0  0  0  0
 60 65  1  0  0  0  0
 61 76  1  0  0  0  0
 62 84  1  0  0  0  0
 63 65  1  0  0  0  0
 63 75  1  0  0  0  0
 64 76  1  0  0  0  0
 66 67  1  0  0  0  0
M  CHG  1  76   1
M  ISO  4  39 100  62 101  73 100  84 101
M  END
> <Batch ID>
0066

> <Smiles>
CNC(C)C(=O)NC(C(=O)N1Cc2cc([101O:1][101CH2:1]C3(C)CC(=O)N(c4ccc([100NH:0][100C:0](=O)N5CCCC(n6nc(-c7ccc(Oc8ccc(F)cc8F)cc7)c(C(N)=O)c6N)C5)cc4C)C3)ccc2CC1C(=O)NC1CCCc2ccccc21)C(C)(C)C

> <Shape>
0.292

> <Color>
0.116

> <Negative vol penalty>
0.000

$$$$

  -OEChem-04042323213D

 87 96  0     1  0  0  0  0  0999 V2000
  -30.7417  -25.3284   17.4848 C   0  0  0  0  0  0  0  0  0  0  0  0
  -29.3615  -25.2144   17.6169 C   0  0  0  0  0  0  0  0  0  0  0  0
  -24.9637  -14.8256   20.1318 C   0  0  0  0  0  0  0  0  0  0  0  0
  -23.5720  -15.9475   21.7572 C   0  0  0  0  0  0  0  0  0  0  0  0
  -31.4913  -25.9218   18.4997 C   0  0  0  0  0  0  0  0  0  0  0  0
  -28.7302  -25.6928   18.7644 C   0  0  0  0  0  0  0  0  0  0  0  0
  -23.1775  -28.2521   19.1159 C   0  0  0  0  0  0  0  0  0  0  0  0
  -24.7909  -13.6218   20.8148 C   0  0  0  0  0  0  0  0  0  0  0  0
  -23.3992  -14.7436   22.4402 C   0  0  0  0  0  0  0  0  0  0  0  0
  -21.9310  -27.7427   19.4773 C   0  0  0  0  0  0  0  0  0  0  0  0
  -22.4126  -11.2343   21.0923 C   0  0  0  0  0  0  0  0  0  0  0  0
  -22.1276  -10.0962   20.3380 C   0  0  0  0  0  0  0  0  0  0  0  0
  -22.2525  -28.5652   21.7222 C   0  0  0  0  0  0  0  0  0  0  0  0
  -21.4215  -25.0729   25.1200 C   0  0  0  0  0  0  0  0  0  0  0  0
  -23.6055  -24.7907   24.1263 C   0  0  0  0  0  0  0  0  0  0  0  0
  -21.7310  -23.5044   23.3086 C   0  0  0  0  0  0  0  0  0  0  0  0
  -24.1344   -9.0408   21.1724 C   0  0  0  0  0  0  0  0  0  0  0  0
  -24.3542  -15.9885   20.6031 C   0  0  0  0  0  0  0  0  0  0  0  0
  -24.1764  -17.5133   18.5656 C   0  0  0  0  0  0  0  0  0  0  0  0
  -30.8677  -26.4165   19.6560 C   0  0  0  0  0  0  0  0  0  0  0  0
  -23.9768  -28.9135   20.0593 C   0  0  0  0  0  0  0  0  0  0  0  0
  -29.4722  -26.2922   19.7963 C   0  0  0  0  0  0  0  0  0  0  0  0
  -23.5075  -29.0844   21.3696 C   0  0  0  0  0  0  0  0  0  0  0  0
  -22.7743  -25.4076   25.0613 C   0  0  0  0  0  0  0  0  0  0  0  0
  -20.8998  -24.1212   24.2437 C   0  0  0  0  0  0  0  0  0  0  0  0
  -23.0838  -23.8391   23.2499 C   0  0  0  0  0  0  0  0  0  0  0  0
  -24.0086  -13.5807   21.9690 C   0  0  0  0  0  0  0  0  0  0  0  0
  -21.4696  -27.8967   20.7814 C   0  0  0  0  0  0  0  0  0  0  0  0
  -23.5585  -11.2758   21.8866 C   0  0  0  0  0  0  0  0  0  0  0  0
  -22.9885   -8.9994   20.3780 C   0  0  0  0  0  0  0  0  0  0  0  0
  -24.4194  -10.1790   21.9267 C   0  0  0  0  0  0  0  0  0  0  0  0
  -24.5328  -17.2325   19.8983 C   0  0  0  0  0  0  0  0  0  0  0  0
  -24.5511  -18.8213   18.3783 C   0  0  0  0  0  0  0  0  0  0  0  0
  -17.7050  -25.3637   25.0561 C   0  0  0  0  0  0  0  0  0  0  0  0
  -23.5615  -16.6674   17.5848 C   0  0  0  0  0  0  0  0  0  0  0  0
  -26.8473  -28.3972   21.3233 C   0  0  0  0  0  0  0  0  0  0  0  0
  -26.3361  -31.2938   22.6911 C   0  0  0  0  0  0  0  0  0  0  0  0
  -24.0993  -33.6481   23.7402 C   0  0  0  0  0  0  0  0  0  0  0  0
  -25.2923  -23.4297   22.1091 C   0  0  0  0  0  0  0  0  0  0  0  0
  -31.7252  -27.0074   20.7470 C   0  0  0  0  0  0  0  0  0  0  0  0
  -25.3074  -29.4807   19.6467 C   0  0  0  0  0  0  0  0  0  0  0  0
  -24.3185  -29.8044   22.4148 C   0  0  0  0  0  0  0  0  0  0  0  0
  -16.8766  -26.5538   24.6170 C   0  0  0  0  0  0  0  0  0  0  0  0
  -30.9364  -27.8265   21.7654 C   0  0  0  0  0  0  0  0  0  0  0  0
  -17.7778  -27.5698   23.9306 C   0  0  0  0  0  0  0  0  0  0  0  0
  -27.7305  -22.0612   19.9047 C   0  0  0  0  0  0  0  0  0  0  0  0
  -29.6849  -27.0721   22.2030 C   0  0  0  0  0  0  0  0  0  0  0  0
  -27.1518  -20.6957   19.5268 C   0  0  0  0  0  0  0  0  0  0  0  0
  -27.4354  -22.4191   21.3602 C   0  0  0  0  0  0  0  0  0  0  0  0
  -18.5194  -25.4472   22.7182 C   0  0  0  0  0  0  0  0  0  0  0  0
  -25.4420  -20.9715   21.3673 C   0  0  0  0  0  0  0  0  0  0  0  0
  -28.7481  -26.8215   21.0152 C   0  0  1  0  0  0  0  0  0  0  0  0
  -26.2596  -29.6856   20.8209 C   0  0  1  0  0  0  0  0  0  0  0  0
  -18.4549  -26.9816   22.6817 C   0  0  2  0  0  0  0  0  0  0  0  0
  -25.6577  -20.5961   19.8921 C   0  0  2  0  0  0  0  0  0  0  0  0
  -23.3320  -26.4250   25.9984 C   0  0  0  0  0  0  0  0  0  0  0  0
  -23.9797  -35.8938   24.8537 C   0  0  0  0  0  0  0  0  0  0  0  0
  -26.9304  -29.9876   25.3838 C   0  0  0  0  0  0  0  0  0  0  0  0
  -25.8884  -31.9728   26.4981 C   0  0  0  0  0  0  0  0  0  0  0  0
  -27.9243  -32.2631   25.0861 C   0  0  0  0  0  0  0  0  0  0  0  0
  -22.7896  -34.8746   21.3866 C   0  0  0  0  0  0  0  0  0  0  0  0
  -19.4436  -23.7612   24.3069 C   0  0  0  0  0  0  0  0  0  0  0  0
  -19.8433  -27.5934   22.4899 C   0  0  0  0  0  0  0  0  0  1  0  0
  -25.7061  -31.7728   23.9766 C   0  0  1  0  0  0  0  0  0  0  0  0
  -24.0443  -35.1503   23.5286 C   0  0  2  0  0  0  0  0  0  0  0  0
  -26.5976  -31.4837   25.2172 C   0  0  0  0  0  0  0  0  0  0  0  0
  -25.0912  -18.2780   20.5139 N   0  0  0  0  0  0  0  0  0  0  0  0
  -25.0886  -19.2285   19.5639 N   0  0  0  0  0  0  0  0  0  0  0  0
  -18.5882  -24.9125   24.0744 N   0  0  0  0  0  0  0  0  0  0  0  0
  -25.6155  -30.3355   21.9642 N   0  0  0  0  0  0  0  0  0  0  0  0
  -26.0007  -22.3066   21.6319 N   0  0  0  0  0  0  0  0  0  0  0  0
  -24.4701  -19.6514   17.3168 N   0  0  0  0  0  0  0  0  0  0  0  0
  -23.2418  -15.3509   17.9439 N   0  0  0  0  0  0  0  0  0  0  0  0
  -23.9281  -23.2125   22.3000 N   0  0  0  0  0  0  0  0  0  0  0  0
  -28.0158  -28.0257   20.6862 N   0  0  0  0  0  0  0  0  0  0  0  0
  -25.3974  -33.1849   23.7785 N   0  0  0  0  0  0  0  0  0  0  0  0
  -22.8439  -35.5167   22.7251 N   0  3  0  0  0  0  0  0  0  0  0  0
  -17.5631  -24.8666   26.1718 O   0  0  0  0  0  0  0  0  0  0  0  0
  -23.3181  -17.0622   16.4193 O   0  0  0  0  0  0  0  0  0  0  0  0
  -26.2831  -27.7862   22.2234 O   0  0  0  0  0  0  0  0  0  0  0  0
  -27.4239  -31.7582   22.3410 O   0  0  0  0  0  0  0  0  0  0  0  0
  -23.0915  -32.9555   23.8632 O   0  0  0  0  0  0  0  0  0  0  0  0
  -25.8494  -24.5127   22.3061 O   0  0  0  0  0  0  0  0  0  0  0  0
  -23.8396  -12.4061   22.6355 O   0  0  0  0  0  0  0  0  0  0  0  0
  -20.2536  -27.3998   21.1369 O   0  0  0  0  0  0  0  0  0  1  0  0
  -22.7139   -7.9059   19.6548 F   0  0  0  0  0  0  0  0  0  0  0  0
  -25.5211  -10.2124   22.6888 F   0  0  0  0  0  0  0  0  0  0  0  0
  1  2  1  0  0  0  0
  1  5  2  0  0  0  0
  2  6  2  0  0  0  0
  3  8  2  0  0  0  0
  3 18  1  0  0  0  0
  4  9  1  0  0  0  0
  4 18  2  0  0  0  0
  5 20  1  0  0  0  0
  6 22  1  0  0  0  0
  7 10  2  0  0  0  0
  7 21  1  0  0  0  0
  8 27  1  0  0  0  0
  9 27  2  0  0  0  0
 10 28  1  0  0  0  0
 11 12  2  0  0  0  0
 11 29  1  0  0  0  0
 12 30  1  0  0  0  0
 13 23  1  0  0  0  0
 13 28  2  0  0  0  0
 14 24  2  0  0  0  0
 14 25  1  0  0  0  0
 15 24  1  0  0  0  0
 15 26  2  0  0  0  0
 16 25  2  0  0  0  0
 16 26  1  0  0  0  0
 17 30  2  0  0  0  0
 17 31  1  0  0  0  0
 18 32  1  0  0  0  0
 19 32  1  0  0  0  0
 19 33  2  0  0  0  0
 19 35  1  0  0  0  0
 20 22  2  0  0  0  0
 20 40  1  0  0  0  0
 21 23  2  0  0  0  0
 21 41  1  0  0  0  0
 22 52  1  0  0  0  0
 23 42  1  0  0  0  0
 24 56  1  0  0  0  0
 25 62  1  0  0  0  0
 26 74  1  0  0  0  0
 27 84  1  0  0  0  0
 28 85  1  0  0  0  0
 29 31  2  0  0  0  0
 29 84  1  0  0  0  0
 30 86  1  0  0  0  0
 31 87  1  0  0  0  0
 32 67  2  0  0  0  0
 33 68  1  0  0  0  0
 33 72  1  0  0  0  0
 34 43  1  0  0  0  0
 34 69  1  0  0  0  0
 34 78  2  0  0  0  0
 35 73  1  0  0  0  0
 35 79  2  0  0  0  0
 36 53  1  0  0  0  0
 36 75  1  0  0  0  0
 36 80  2  0  0  0  0
 37 64  1  0  0  0  0
 37 70  1  0  0  0  0
 37 81  2  0  0  0  0
 38 65  1  0  0  0  0
 38 76  1  0  0  0  0
 38 82  2  0  0  0  0
 39 71  1  0  0  0  0
 39 74  1  0  0  0  0
 39 83  2  0  0  0  0
 40 44  1  0  0  0  0
 41 53  1  0  0  0  0
 42 70  1  0  0  0  0
 43 45  1  0  0  0  0
 44 47  1  0  0  0  0
 45 54  1  0  0  0  0
 46 48  1  0  0  0  0
 46 49  1  0  0  0  0
 47 52  1  0  0  0  0
 48 55  1  0  0  0  0
 49 71  1  0  0  0  0
 50 54  1  0  0  0  0
 50 69  1  0  0  0  0
 51 55  1  0  0  0  0
 51 71  1  0  0  0  0
 52 75  1  0  0  0  0
 53 70  1  0  0  0  0
 54 63  1  0  0  0  0
 55 68  1  0  0  0  0
 57 65  1  0  0  0  0
 58 66  1  0  0  0  0
 59 66  1  0  0  0  0
 60 66  1  0  0  0  0
 61 77  1  0  0  0  0
 62 69  1  0  0  0  0
 63 85  1  0  0  0  0
 64 66  1  0  0  0  0
 64 76  1  0  0  0  0
 65 77  1  0  0  0  0
 67 68  1  0  0  0  0
M  CHG  1  77   1
M  ISO  4  39 100  63 101  74 100  85 101
M  END
> <Batch ID>
0066

> <Smiles>
CNC(C)C(=O)NC(C(=O)N1Cc2cc([101O:1][101CH2:1]C3CCC(=O)N(Cc4cc(C)cc([100NH:0][100C:0](=O)N5CCCC(n6nc(-c7ccc(Oc8ccc(F)cc8F)cc7)c(C(N)=O)c6N)C5)c4)C3)ccc2CC1C(=O)NC1CCCc2ccccc21)C(C)(C)C

> <Shape>
0.273

> <Color>
0.057

> <Negative vol penalty>
0.000

$$$$

  -OEChem-04042323213D

 84 92  0     1  0  0  0  0  0999 V2000
  -23.9340   -8.0453   22.0627 C   0  0  0  0  0  0  0  0  0  0  0  0
  -24.6207   -9.0694   21.4184 C   0  0  0  0  0  0  0  0  0  0  0  0
  -21.9878  -28.3502   21.3632 C   0  0  0  0  0  0  0  0  0  0  0  0
  -22.9547  -27.3729   23.3499 C   0  0  0  0  0  0  0  0  0  0  0  0
  -22.5746   -8.1851   22.3388 C   0  0  0  0  0  0  0  0  0  0  0  0
  -23.9479  -10.2335   21.0486 C   0  0  0  0  0  0  0  0  0  0  0  0
  -26.5547  -14.4257   22.1776 C   0  0  0  0  0  0  0  0  0  0  0  0
  -20.7169  -28.2394   21.9272 C   0  0  0  0  0  0  0  0  0  0  0  0
  -21.6838  -27.2621   23.9139 C   0  0  0  0  0  0  0  0  0  0  0  0
  -27.6044  -14.7711   21.3276 C   0  0  0  0  0  0  0  0  0  0  0  0
  -18.8469  -29.9030   24.2005 C   0  0  0  0  0  0  0  0  0  0  0  0
  -17.9933  -31.0012   24.0960 C   0  0  0  0  0  0  0  0  0  0  0  0
  -26.1845  -16.3913   20.2422 C   0  0  0  0  0  0  0  0  0  0  0  0
  -30.0144  -19.9877   23.0561 C   0  0  0  0  0  0  0  0  0  0  0  0
  -29.2935  -22.2912   22.9497 C   0  0  0  0  0  0  0  0  0  0  0  0
  -29.5398  -21.0074   20.9179 C   0  0  0  0  0  0  0  0  0  0  0  0
  -16.3993  -29.6471   22.8866 C   0  0  0  0  0  0  0  0  0  0  0  0
  -23.1068  -27.9169   22.0745 C   0  0  0  0  0  0  0  0  0  0  0  0
  -25.3050  -29.1201   21.5976 C   0  0  0  0  0  0  0  0  0  0  0  0
  -21.8870   -9.3554   21.9809 C   0  0  0  0  0  0  0  0  0  0  0  0
  -25.3066  -15.0540   22.0590 C   0  0  0  0  0  0  0  0  0  0  0  0
  -22.5776  -10.3885   21.3189 C   0  0  0  0  0  0  0  0  0  0  0  0
  -25.1214  -16.0539   21.0937 C   0  0  0  0  0  0  0  0  0  0  0  0
  -29.6920  -21.1835   23.6979 C   0  0  0  0  0  0  0  0  0  0  0  0
  -29.9383  -19.8997   21.6661 C   0  0  0  0  0  0  0  0  0  0  0  0
  -29.2173  -22.2031   21.5596 C   0  0  0  0  0  0  0  0  0  0  0  0
  -20.5649  -27.6954   23.2025 C   0  0  0  0  0  0  0  0  0  0  0  0
  -27.4186  -15.7519   20.3578 C   0  0  0  0  0  0  0  0  0  0  0  0
  -18.4767  -28.6769   23.6480 C   0  0  0  0  0  0  0  0  0  0  0  0
  -16.7695  -30.8733   23.4391 C   0  0  0  0  0  0  0  0  0  0  0  0
  -17.2529  -28.5489   22.9911 C   0  0  0  0  0  0  0  0  0  0  0  0
  -24.4198  -28.0306   21.4922 C   0  0  0  0  0  0  0  0  0  0  0  0
  -26.4079  -28.7376   20.8737 C   0  0  0  0  0  0  0  0  0  0  0  0
  -25.1448  -30.3664   22.2881 C   0  0  0  0  0  0  0  0  0  0  0  0
  -22.3585  -14.0764   21.3834 C   0  0  0  0  0  0  0  0  0  0  0  0
  -21.5957  -17.1481   22.0940 C   0  0  0  0  0  0  0  0  0  0  0  0
  -30.2453  -18.4239   19.6482 C   0  0  0  0  0  0  0  0  0  0  0  0
  -22.6010  -20.4000   22.3416 C   0  0  0  0  0  0  0  0  0  0  0  0
  -28.6858  -23.4100   19.4132 C   0  0  0  0  0  0  0  0  0  0  0  0
  -20.4069   -9.4413   22.2578 C   0  0  0  0  0  0  0  0  0  0  0  0
  -24.1924  -14.6890   23.0012 C   0  0  0  0  0  0  0  0  0  0  0  0
  -23.8069  -16.7728   20.9387 C   0  0  0  0  0  0  0  0  0  0  0  0
  -19.8518  -10.8605   22.1685 C   0  0  0  0  0  0  0  0  0  0  0  0
  -27.6853  -25.9861   17.1681 C   0  0  0  0  0  0  0  0  0  0  0  0
  -20.3598  -11.5541   20.9085 C   0  0  0  0  0  0  0  0  0  0  0  0
  -26.8199  -26.9051   18.0333 C   0  0  0  0  0  0  0  0  0  0  0  0
  -27.4928  -24.5155   17.5344 C   0  0  0  0  0  0  0  0  0  0  0  0
  -26.8088  -25.1203   19.8226 C   0  0  0  0  0  0  0  0  0  0  0  0
  -21.8883  -11.6766   20.9243 C   0  0  1  0  0  0  0  0  0  0  0  0
  -22.8103  -15.0302   22.4528 C   0  0  1  0  0  0  0  0  0  0  0  0
  -27.0171  -26.6161   19.5344 C   0  0  2  0  0  0  0  0  0  0  0  0
  -28.4617  -20.8984   25.8639 C   0  0  0  0  0  0  0  0  0  0  0  0
  -21.7440  -22.6890   22.9103 C   0  0  0  0  0  0  0  0  0  0  0  0
  -20.2054  -17.2987   19.3821 C   0  0  0  0  0  0  0  0  0  0  0  0
  -20.2140  -19.7933   19.5943 C   0  0  0  0  0  0  0  0  0  0  0  0
  -18.9679  -18.4066   21.2518 C   0  0  0  0  0  0  0  0  0  0  0  0
  -24.4914  -20.6729   24.6023 C   0  0  0  0  0  0  0  0  0  0  0  0
  -29.7748  -21.2775   25.1843 C   0  0  0  0  0  0  0  0  0  0  0  0
  -30.6703  -16.9856   19.3747 C   0  0  0  0  0  0  0  0  0  0  0  0
  -29.7663  -15.9586   20.0396 C   0  0  0  0  0  0  0  0  0  1  0  0
  -21.4954  -18.4338   21.3092 C   0  0  1  0  0  0  0  0  0  0  0  0
  -22.4146  -21.4311   23.4401 C   0  0  2  0  0  0  0  0  0  0  0  0
  -20.2450  -18.4684   20.3857 C   0  0  0  0  0  0  0  0  0  0  0  0
  -24.9172  -27.0310   20.7590 N   0  0  0  0  0  0  0  0  0  0  0  0
  -26.1270  -27.4910   20.3971 N   0  0  0  0  0  0  0  0  0  0  0  0
  -22.7462  -16.3761   21.8794 N   0  0  0  0  0  0  0  0  0  0  0  0
  -27.6995  -24.3167   18.9706 N   0  0  0  0  0  0  0  0  0  0  0  0
  -27.5808  -29.3495   20.6047 N   0  0  0  0  0  0  0  0  0  0  0  0
  -23.9493  -30.5967   22.9823 N   0  0  0  0  0  0  0  0  0  0  0  0
  -30.2657  -18.6863   21.0154 N   0  0  0  0  0  0  0  0  0  0  0  0
  -28.8138  -23.3287   20.7994 N   0  0  0  0  0  0  0  0  0  0  0  0
  -22.2997  -12.7581   21.7935 N   0  0  0  0  0  0  0  0  0  0  0  0
  -21.5454  -19.5145   22.2879 N   0  0  0  0  0  0  0  0  0  0  0  0
  -23.7326  -21.8111   24.0228 N   0  3  0  0  0  0  0  0  0  0  0  0
  -26.0288  -31.2563   22.2757 O   0  0  0  0  0  0  0  0  0  0  0  0
  -22.0821  -14.5049   20.2691 O   0  0  0  0  0  0  0  0  0  0  0  0
  -20.6900  -16.8437   22.8743 O   0  0  0  0  0  0  0  0  0  0  0  0
  -29.9384  -19.1966   18.7466 O   0  0  0  0  0  0  0  0  0  0  0  0
  -23.5828  -20.3841   21.6025 O   0  0  0  0  0  0  0  0  0  0  0  0
  -29.3853  -22.7742   18.6205 O   0  0  0  0  0  0  0  0  0  0  0  0
  -19.3249  -27.5873   23.7533 O   0  0  0  0  0  0  0  0  0  0  0  0
  -28.4413  -16.0904   19.5264 O   0  0  0  0  0  0  0  0  0  1  0  0
  -15.9492  -31.9276   23.3401 F   0  0  0  0  0  0  0  0  0  0  0  0
  -16.8913  -27.3732   22.4593 F   0  0  0  0  0  0  0  0  0  0  0  0
  1  2  1  0  0  0  0
  1  5  2  0  0  0  0
  2  6  2  0  0  0  0
  3  8  2  0  0  0  0
  3 18  1  0  0  0  0
  4  9  1  0  0  0  0
  4 18  2  0  0  0  0
  5 20  1  0  0  0  0
  6 22  1  0  0  0  0
  7 10  2  0  0  0  0
  7 21  1  0  0  0  0
  8 27  1  0  0  0  0
  9 27  2  0  0  0  0
 10 28  1  0  0  0  0
 11 12  2  0  0  0  0
 11 29  1  0  0  0  0
 12 30  1  0  0  0  0
 13 23  1  0  0  0  0
 13 28  2  0  0  0  0
 14 24  1  0  0  0  0
 14 25  2  0  0  0  0
 15 24  2  0  0  0  0
 15 26  1  0  0  0  0
 16 25  1  0  0  0  0
 16 26  2  0  0  0  0
 17 30  2  0  0  0  0
 17 31  1  0  0  0  0
 18 32  1  0  0  0  0
 19 32  1  0  0  0  0
 19 33  2  0  0  0  0
 19 34  1  0  0  0  0
 20 22  2  0  0  0  0
 20 40  1  0  0  0  0
 21 23  2  0  0  0  0
 21 41  1  0  0  0  0
 22 49  1  0  0  0  0
 23 42  1  0  0  0  0
 24 58  1  0  0  0  0
 25 70  1  0  0  0  0
 26 71  1  0  0  0  0
 27 81  1  0  0  0  0
 28 82  1  0  0  0  0
 29 31  2  0  0  0  0
 29 81  1  0  0  0  0
 30 83  1  0  0  0  0
 31 84  1  0  0  0  0
 32 64  2  0  0  0  0
 33 65  1  0  0  0  0
 33 68  1  0  0  0  0
 34 69  1  0  0  0  0
 34 75  2  0  0  0  0
 35 50  1  0  0  0  0
 35 72  1  0  0  0  0
 35 76  2  0  0  0  0
 36 61  1  0  0  0  0
 36 66  1  0  0  0  0
 36 77  2  0  0  0  0
 37 59  1  0  0  0  0
 37 70  1  0  0  0  0
 37 78  2  0  0  0  0
 38 62  1  0  0  0  0
 38 73  1  0  0  0  0
 38 79  2  0  0  0  0
 39 67  1  0  0  0  0
 39 71  1  0  0  0  0
 39 80  2  0  0  0  0
 40 43  1  0  0  0  0
 41 50  1  0  0  0  0
 42 66  1  0  0  0  0
 43 45  1  0  0  0  0
 44 46  1  0  0  0  0
 44 47  1  0  0  0  0
 45 49  1  0  0  0  0
 46 51  1  0  0  0  0
 47 67  1  0  0  0  0
 48 51  1  0  0  0  0
 48 67  1  0  0  0  0
 49 72  1  0  0  0  0
 50 66  1  0  0  0  0
 51 65  1  0  0  0  0
 52 58  1  0  0  0  0
 53 62  1  0  0  0  0
 54 63  1  0  0  0  0
 55 63  1  0  0  0  0
 56 63  1  0  0  0  0
 57 74  1  0  0  0  0
 59 60  1  0  0  0  0
 60 82  1  0  0  0  0
 61 63  1  0  0  0  0
 61 73  1  0  0  0  0
 62 74  1  0  0  0  0
 64 65  1  0  0  0  0
M  CHG  1  74   1
M  ISO  4  39 100  60 101  71 100  82 101
M  END
> <Batch ID>
0066

> <Smiles>
CCc1cc(NC(=O)C[101CH2:1][101O:1]c2ccc3c(c2)CN(C(=O)C(NC(=O)C(C)NC)C(C)(C)C)C(C(=O)NC2CCCc4ccccc42)C3)cc([100NH:0][100C:0](=O)N2CCCC(n3nc(-c4ccc(Oc5ccc(F)cc5F)cc4)c(C(N)=O)c3N)C2)c1

> <Shape>
0.247

> <Color>
0.084

> <Negative vol penalty>
0.000

$$$$

  -OEChem-04042323213D

 86 95  0     1  0  0  0  0  0999 V2000
  -24.8391  -38.4639   22.6921 C   0  0  0  0  0  0  0  0  0  0  0  0
  -24.9154  -37.3937   21.8065 C   0  0  0  0  0  0  0  0  0  0  0  0
  -26.1647  -13.6819   19.5677 C   0  0  0  0  0  0  0  0  0  0  0  0
  -26.3245  -13.6525   21.9782 C   0  0  0  0  0  0  0  0  0  0  0  0
  -25.3210  -38.3261   23.9932 C   0  0  0  0  0  0  0  0  0  0  0  0
  -25.4746  -36.1855   22.2211 C   0  0  0  0  0  0  0  0  0  0  0  0
  -23.7775  -30.5595   20.4966 C   0  0  0  0  0  0  0  0  0  0  0  0
  -31.8761  -25.2431   21.4170 C   0  0  0  0  0  0  0  0  0  0  0  0
  -31.8704  -23.9192   21.8563 C   0  0  0  0  0  0  0  0  0  0  0  0
  -24.8573  -13.2025   19.6485 C   0  0  0  0  0  0  0  0  0  0  0  0
  -25.0171  -13.1732   22.0590 C   0  0  0  0  0  0  0  0  0  0  0  0
  -24.2870  -29.6762   19.5458 C   0  0  0  0  0  0  0  0  0  0  0  0
  -23.3196  -10.2367   20.1619 C   0  0  0  0  0  0  0  0  0  0  0  0
  -22.9543   -9.2038   19.2986 C   0  0  0  0  0  0  0  0  0  0  0  0
  -25.5609  -28.5669   21.2680 C   0  0  0  0  0  0  0  0  0  0  0  0
  -30.2019  -23.3755   20.1957 C   0  0  0  0  0  0  0  0  0  0  0  0
  -21.2367  -10.6092   18.3438 C   0  0  0  0  0  0  0  0  0  0  0  0
  -26.8983  -13.9069   20.7325 C   0  0  0  0  0  0  0  0  0  0  0  0
  -29.3414  -13.7875   20.0080 C   0  0  0  0  0  0  0  0  0  0  0  0
  -25.8776  -37.1126   24.4269 C   0  0  0  0  0  0  0  0  0  0  0  0
  -24.1650  -30.4598   21.8406 C   0  0  0  0  0  0  0  0  0  0  0  0
  -25.9655  -36.0318   23.5288 C   0  0  0  0  0  0  0  0  0  0  0  0
  -25.0529  -29.4485   22.2342 C   0  0  0  0  0  0  0  0  0  0  0  0
  -31.0447  -25.6332   20.3671 C   0  0  0  0  0  0  0  0  0  0  0  0
  -30.2076  -24.6994   19.7564 C   0  0  0  0  0  0  0  0  0  0  0  0
  -31.0333  -22.9854   21.2456 C   0  0  0  0  0  0  0  0  0  0  0  0
  -24.2835  -12.9482   20.8941 C   0  0  0  0  0  0  0  0  0  0  0  0
  -25.1811  -28.6815   19.9309 C   0  0  0  0  0  0  0  0  0  0  0  0
  -22.6433  -11.4559   20.1162 C   0  0  0  0  0  0  0  0  0  0  0  0
  -21.9129   -9.3901   18.3895 C   0  0  0  0  0  0  0  0  0  0  0  0
  -21.6019  -11.6421   19.2071 C   0  0  0  0  0  0  0  0  0  0  0  0
  -28.2491  -14.4015   20.6497 C   0  0  0  0  0  0  0  0  0  0  0  0
  -30.3901  -14.6500   20.2147 C   0  0  0  0  0  0  0  0  0  0  0  0
  -29.8539  -25.6128   17.4709 C   0  0  0  0  0  0  0  0  0  0  0  0
  -29.4025  -12.5483   19.2894 C   0  0  0  0  0  0  0  0  0  0  0  0
  -25.6770  -32.3655   23.8864 C   0  0  0  0  0  0  0  0  0  0  0  0
  -24.9245  -30.0334   26.0118 C   0  0  0  0  0  0  0  0  0  0  0  0
  -24.1351  -26.7589   26.5611 C   0  0  0  0  0  0  0  0  0  0  0  0
  -30.2610  -20.5800   21.2021 C   0  0  0  0  0  0  0  0  0  0  0  0
  -26.4283  -37.0262   25.8283 C   0  0  0  0  0  0  0  0  0  0  0  0
  -23.5856  -31.4035   22.8585 C   0  0  0  0  0  0  0  0  0  0  0  0
  -25.4848  -29.2863   23.6680 C   0  0  0  0  0  0  0  0  0  0  0  0
  -28.7783  -26.0274   16.4849 C   0  0  0  0  0  0  0  0  0  0  0  0
  -26.6648  -35.5947   26.3027 C   0  0  0  0  0  0  0  0  0  0  0  0
  -27.6988  -26.8090   17.2117 C   0  0  0  0  0  0  0  0  0  0  0  0
  -31.2454  -17.8649   23.7286 C   0  0  0  0  0  0  0  0  0  0  0  0
  -27.3850  -34.7879   25.2269 C   0  0  0  0  0  0  0  0  0  0  0  0
  -31.3080  -16.6593   22.7937 C   0  0  0  0  0  0  0  0  0  0  0  0
  -31.4295  -19.1821   22.9856 C   0  0  0  0  0  0  0  0  0  0  0  0
  -27.9081  -24.7785   18.7471 C   0  0  0  0  0  0  0  0  0  0  0  0
  -29.7325  -18.1629   21.4568 C   0  0  0  0  0  0  0  0  0  0  0  0
  -26.5427  -34.6974   23.9487 C   0  0  1  0  0  0  0  0  0  0  0  0
  -24.4465  -31.5331   24.1113 C   0  0  1  0  0  0  0  0  0  0  0  0
  -27.0220  -25.9516   18.2880 C   0  0  1  0  0  0  0  0  0  0  0  0
  -30.6274  -16.9139   21.4342 C   0  0  2  0  0  0  0  0  0  0  0  0
  -31.0718  -27.0579   19.9174 C   0  0  0  0  0  0  0  0  0  0  0  0
  -23.6128  -25.1415   28.4073 C   0  0  0  0  0  0  0  0  0  0  0  0
  -27.8827  -29.9267   26.7519 C   0  0  0  0  0  0  0  0  0  0  0  0
  -27.4566  -27.7175   27.8502 C   0  0  0  0  0  0  0  0  0  0  0  0
  -26.3151  -29.7687   28.6941 C   0  0  0  0  0  0  0  0  0  0  0  0
  -21.4412  -26.2028   25.4689 C   0  0  0  0  0  0  0  0  0  0  0  0
  -26.5920  -26.8235   19.4691 C   0  0  0  0  0  0  0  0  0  1  0  0
  -25.5915  -28.7659   26.4889 C   0  0  1  0  0  0  0  0  0  0  0  0
  -23.0381  -26.1122   27.3874 C   0  0  2  0  0  0  0  0  0  0  0  0
  -26.8050  -29.0487   27.4188 C   0  0  0  0  0  0  0  0  0  0  0  0
  -28.5739  -15.5641   21.2213 N   0  0  0  0  0  0  0  0  0  0  0  0
  -29.8821  -15.6876   20.9396 N   0  0  0  0  0  0  0  0  0  0  0  0
  -29.3430  -25.0820   18.6725 N   0  0  0  0  0  0  0  0  0  0  0  0
  -24.8955  -30.2374   24.6249 N   0  0  0  0  0  0  0  0  0  0  0  0
  -30.4894  -19.3509   21.8681 N   0  0  0  0  0  0  0  0  0  0  0  0
  -31.6881  -14.6144   19.8453 N   0  0  0  0  0  0  0  0  0  0  0  0
  -29.7117  -11.3794   19.9982 N   0  0  0  0  0  0  0  0  0  0  0  0
  -31.0278  -21.6403   21.6924 N   0  0  0  0  0  0  0  0  0  0  0  0
  -25.4898  -33.7170   24.1056 N   0  0  0  0  0  0  0  0  0  0  0  0
  -24.5428  -27.9592   27.1036 N   0  0  0  0  0  0  0  0  0  0  0  0
  -22.0974  -25.3650   26.5055 N   0  3  0  0  0  0  0  0  0  0  0  0
  -31.0394  -25.7074   17.1548 O   0  0  0  0  0  0  0  0  0  0  0  0
  -29.2055  -12.4822   18.0523 O   0  0  0  0  0  0  0  0  0  0  0  0
  -26.7195  -31.8218   23.5412 O   0  0  0  0  0  0  0  0  0  0  0  0
  -24.4405  -30.8102   26.8388 O   0  0  0  0  0  0  0  0  0  0  0  0
  -24.5877  -26.2485   25.5388 O   0  0  0  0  0  0  0  0  0  0  0  0
  -29.4612  -20.6720   20.2685 O   0  0  0  0  0  0  0  0  0  0  0  0
  -23.0077  -12.4806   20.9734 O   0  0  0  0  0  0  0  0  0  0  0  0
  -25.6804  -27.8184   19.0048 O   0  0  0  0  0  0  0  0  0  1  0  0
  -21.5632   -8.3986   17.5595 F   0  0  0  0  0  0  0  0  0  0  0  0
  -20.9494  -12.8116   19.1577 F   0  0  0  0  0  0  0  0  0  0  0  0
  1  2  1  0  0  0  0
  1  5  2  0  0  0  0
  2  6  2  0  0  0  0
  3 10  2  0  0  0  0
  3 18  1  0  0  0  0
  4 11  1  0  0  0  0
  4 18  2  0  0  0  0
  5 20  1  0  0  0  0
  6 22  1  0  0  0  0
  7 12  2  0  0  0  0
  7 21  1  0  0  0  0
  8  9  2  0  0  0  0
  8 24  1  0  0  0  0
  9 26  1  0  0  0  0
 10 27  1  0  0  0  0
 11 27  2  0  0  0  0
 12 28  1  0  0  0  0
 13 14  2  0  0  0  0
 13 29  1  0  0  0  0
 14 30  1  0  0  0  0
 15 23  1  0  0  0  0
 15 28  2  0  0  0  0
 16 25  1  0  0  0  0
 16 26  2  0  0  0  0
 17 30  2  0  0  0  0
 17 31  1  0  0  0  0
 18 32  1  0  0  0  0
 19 32  1  0  0  0  0
 19 33  2  0  0  0  0
 19 35  1  0  0  0  0
 20 22  2  0  0  0  0
 20 40  1  0  0  0  0
 21 23  2  0  0  0  0
 21 41  1  0  0  0  0
 22 52  1  0  0  0  0
 23 42  1  0  0  0  0
 24 25  2  0  0  0  0
 24 56  1  0  0  0  0
 25 68  1  0  0  0  0
 26 73  1  0  0  0  0
 27 83  1  0  0  0  0
 28 84  1  0  0  0  0
 29 31  2  0  0  0  0
 29 83  1  0  0  0  0
 30 85  1  0  0  0  0
 31 86  1  0  0  0  0
 32 66  2  0  0  0  0
 33 67  1  0  0  0  0
 33 71  1  0  0  0  0
 34 43  1  0  0  0  0
 34 68  1  0  0  0  0
 34 77  2  0  0  0  0
 35 72  1  0  0  0  0
 35 78  2  0  0  0  0
 36 53  1  0  0  0  0
 36 74  1  0  0  0  0
 36 79  2  0  0  0  0
 37 63  1  0  0  0  0
 37 69  1  0  0  0  0
 37 80  2  0  0  0  0
 38 64  1  0  0  0  0
 38 75  1  0  0  0  0
 38 81  2  0  0  0  0
 39 70  1  0  0  0  0
 39 73  1  0  0  0  0
 39 82  2  0  0  0  0
 40 44  1  0  0  0  0
 41 53  1  0  0  0  0
 42 69  1  0  0  0  0
 43 45  1  0  0  0  0
 44 47  1  0  0  0  0
 45 54  1  0  0  0  0
 46 48  1  0  0  0  0
 46 49  1  0  0  0  0
 47 52  1  0  0  0  0
 48 55  1  0  0  0  0
 49 70  1  0  0  0  0
 50 54  1  0  0  0  0
 50 68  1  0  0  0  0
 51 55  1  0  0  0  0
 51 70  1  0  0  0  0
 52 74  1  0  0  0  0
 53 69  1  0  0  0  0
 54 62  1  0  0  0  0
 55 67  1  0  0  0  0
 57 64  1  0  0  0  0
 58 65  1  0  0  0  0
 59 65  1  0  0  0  0
 60 65  1  0  0  0  0
 61 76  1  0  0  0  0
 62 84  1  0  0  0  0
 63 65  1  0  0  0  0
 63 75  1  0  0  0  0
 64 76  1  0  0  0  0
 66 67  1  0  0  0  0
M  CHG  1  76   1
M  ISO  4  39 100  62 101  73 100  84 101
M  END
> <Batch ID>
0066

> <Smiles>
CNC(C)C(=O)NC(C(=O)N1Cc2cc([101O:1][101CH2:1]C3CCC(=O)N(c4cc([100NH:0][100C:0](=O)N5CCCC(n6nc(-c7ccc(Oc8ccc(F)cc8F)cc7)c(C(N)=O)c6N)C5)ccc4C)C3)ccc2CC1C(=O)NC1CCCc2ccccc21)C(C)(C)C

> <Shape>
0.317

> <Color>
0.076

> <Negative vol penalty>
0.000

$$$$

  -OEChem-04042323213D

 84 92  0     1  0  0  0  0  0999 V2000
  -30.9806  -29.6563   13.4222 C   0  0  0  0  0  0  0  0  0  0  0  0
  -30.7456  -28.5588   14.2440 C   0  0  0  0  0  0  0  0  0  0  0  0
  -33.0757  -17.7795   22.2516 C   0  0  0  0  0  0  0  0  0  0  0  0
  -23.9202  -10.7427   23.4153 C   0  0  0  0  0  0  0  0  0  0  0  0
  -24.0585  -13.0362   24.1622 C   0  0  0  0  0  0  0  0  0  0  0  0
  -32.3623  -18.8435   22.8036 C   0  0  0  0  0  0  0  0  0  0  0  0
  -30.8894  -30.9470   13.9417 C   0  0  0  0  0  0  0  0  0  0  0  0
  -30.4202  -28.7512   15.5863 C   0  0  0  0  0  0  0  0  0  0  0  0
  -26.6264  -25.3455   18.9795 C   0  0  0  0  0  0  0  0  0  0  0  0
  -32.3972  -16.7422   21.6118 C   0  0  0  0  0  0  0  0  0  0  0  0
  -23.3768  -10.3746   24.6460 C   0  0  0  0  0  0  0  0  0  0  0  0
  -23.5151  -12.6681   25.3930 C   0  0  0  0  0  0  0  0  0  0  0  0
  -26.8529  -24.3189   19.8953 C   0  0  0  0  0  0  0  0  0  0  0  0
  -20.3710  -10.5259   26.1872 C   0  0  0  0  0  0  0  0  0  0  0  0
  -19.2644   -9.6768   26.1793 C   0  0  0  0  0  0  0  0  0  0  0  0
  -26.7438  -25.9143   21.7014 C   0  0  0  0  0  0  0  0  0  0  0  0
  -20.5082   -8.0441   27.4538 C   0  0  0  0  0  0  0  0  0  0  0  0
  -24.2612  -12.0735   23.1734 C   0  0  0  0  0  0  0  0  0  0  0  0
  -30.9705  -18.8702   22.7158 C   0  0  0  0  0  0  0  0  0  0  0  0
  -24.1233  -12.8707   20.7540 C   0  0  0  0  0  0  0  0  0  0  0  0
  -30.5533  -31.1556   15.2886 C   0  0  0  0  0  0  0  0  0  0  0  0
  -26.4675  -26.6680   19.4177 C   0  0  0  0  0  0  0  0  0  0  0  0
  -30.3257  -30.0458   16.1246 C   0  0  0  0  0  0  0  0  0  0  0  0
  -26.5128  -26.9554   20.7894 C   0  0  0  0  0  0  0  0  0  0  0  0
  -31.0053  -16.7689   21.5240 C   0  0  0  0  0  0  0  0  0  0  0  0
  -23.1742  -11.3373   25.6349 C   0  0  0  0  0  0  0  0  0  0  0  0
  -26.9145  -24.6037   21.2563 C   0  0  0  0  0  0  0  0  0  0  0  0
  -21.5462  -10.1341   26.8283 C   0  0  0  0  0  0  0  0  0  0  0  0
  -19.3330   -8.4359   26.8126 C   0  0  0  0  0  0  0  0  0  0  0  0
  -21.6148   -8.8932   27.4616 C   0  0  0  0  0  0  0  0  0  0  0  0
  -30.2920  -17.8329   22.0760 C   0  0  0  0  0  0  0  0  0  0  0  0
  -24.8231  -12.4543   21.9024 C   0  0  0  0  0  0  0  0  0  0  0  0
  -25.1041  -13.1153   19.8242 C   0  0  0  0  0  0  0  0  0  0  0  0
  -30.2181  -19.9990   23.3008 C   0  0  0  0  0  0  0  0  0  0  0  0
  -22.7128  -13.0229   20.5465 C   0  0  0  0  0  0  0  0  0  0  0  0
  -28.0451  -29.3888   18.9565 C   0  0  0  0  0  0  0  0  0  0  0  0
  -25.5622  -30.6560   20.6154 C   0  0  0  0  0  0  0  0  0  0  0  0
  -28.6594  -21.8835   22.8652 C   0  0  0  0  0  0  0  0  0  0  0  0
  -23.0344  -30.1828   22.8588 C   0  0  0  0  0  0  0  0  0  0  0  0
  -30.8782  -14.5867   20.2718 C   0  0  0  0  0  0  0  0  0  0  0  0
  -30.5130  -32.5678   15.8164 C   0  0  0  0  0  0  0  0  0  0  0  0
  -26.1973  -27.7600   18.4192 C   0  0  0  0  0  0  0  0  0  0  0  0
  -26.3284  -28.3556   21.3128 C   0  0  0  0  0  0  0  0  0  0  0  0
  -29.7958  -32.6965   17.1578 C   0  0  0  0  0  0  0  0  0  0  0  0
  -29.5274  -11.7487   18.5990 C   0  0  0  0  0  0  0  0  0  0  0  0
  -30.2677  -31.6124   18.1216 C   0  0  0  0  0  0  0  0  0  0  0  0
  -28.1021  -11.6491   19.1472 C   0  0  0  0  0  0  0  0  0  0  0  0
  -30.5168  -12.2027   19.6707 C   0  0  0  0  0  0  0  0  0  0  0  0
  -28.7235  -13.3402   20.9195 C   0  0  0  0  0  0  0  0  0  0  0  0
  -29.9460  -30.2144   17.5798 C   0  0  1  0  0  0  0  0  0  0  0  0
  -26.5621  -29.1476   18.9378 C   0  0  1  0  0  0  0  0  0  0  0  0
  -27.6804  -12.9489   19.8601 C   0  0  2  0  0  0  0  0  0  0  0  0
  -21.1979  -31.4139   24.0459 C   0  0  0  0  0  0  0  0  0  0  0  0
  -27.6174  -31.9081   22.4911 C   0  0  0  0  0  0  0  0  0  0  0  0
  -25.7729  -32.2986   24.1385 C   0  0  0  0  0  0  0  0  0  0  0  0
  -25.6984  -33.3994   21.9012 C   0  0  0  0  0  0  0  0  0  0  0  0
  -20.9450  -28.4793   21.6374 C   0  0  0  0  0  0  0  0  0  0  0  0
  -27.9154  -22.4941   21.7075 C   0  0  0  0  0  0  0  0  0  1  0  0
  -25.2715  -30.9135   22.0742 C   0  0  1  0  0  0  0  0  0  0  0  0
  -21.5709  -30.5846   22.8268 C   0  0  2  0  0  0  0  0  0  0  0  0
  -26.0955  -32.1037   22.6416 C   0  0  0  0  0  0  0  0  0  0  0  0
  -26.1462  -12.4341   21.7209 N   0  0  0  0  0  0  0  0  0  0  0  0
  -26.2857  -12.8409   20.4477 N   0  0  0  0  0  0  0  0  0  0  0  0
  -26.0729  -29.3898   20.2966 N   0  0  0  0  0  0  0  0  0  0  0  0
  -30.0540  -13.4418   20.2996 N   0  0  0  0  0  0  0  0  0  0  0  0
  -25.0625  -13.5361   18.5421 N   0  0  0  0  0  0  0  0  0  0  0  0
  -21.8458  -12.7288   21.6076 N   0  0  0  0  0  0  0  0  0  0  0  0
  -30.3192  -15.7142   20.8725 N   0  0  0  0  0  0  0  0  0  0  0  0
  -29.4548  -20.7398   22.4855 N   0  0  0  0  0  0  0  0  0  0  0  0
  -28.5459  -29.9058   17.7770 N   0  0  0  0  0  0  0  0  0  0  0  0
  -23.8264  -31.0836   22.1787 N   0  0  0  0  0  0  0  0  0  0  0  0
  -30.3409  -20.2137   24.6104 N   0  3  0  0  0  0  0  0  0  0  0  0
  -20.7019  -29.3743   22.7980 N   0  3  0  0  0  0  0  0  0  0  0  0
  -22.2346  -13.3925   19.4473 O   0  0  0  0  0  0  0  0  0  0  0  0
  -28.6871  -29.1266   19.9669 O   0  0  0  0  0  0  0  0  0  0  0  0
  -25.3374  -31.5431   19.7882 O   0  0  0  0  0  0  0  0  0  0  0  0
  -28.6179  -22.2858   24.0189 O   0  0  0  0  0  0  0  0  0  0  0  0
  -23.4354  -29.1729   23.4331 O   0  0  0  0  0  0  0  0  0  0  0  0
  -31.9861  -14.5757   19.7294 O   0  0  0  0  0  0  0  0  0  0  0  0
  -22.6437  -10.9785   26.8359 O   0  0  0  0  0  0  0  0  0  0  0  0
  -27.1360  -23.6036   22.1522 O   0  0  0  0  0  0  0  0  0  1  0  0
  -18.2697   -7.6213   26.8063 F   0  0  0  0  0  0  0  0  0  0  0  0
  -22.7407   -8.5118   28.0802 F   0  0  0  0  0  0  0  0  0  0  0  0
  -28.9532  -17.8603   21.9921 F   0  0  0  0  0  0  0  0  0  0  0  0
  1  2  1  0  0  0  0
  1  7  2  0  0  0  0
  2  8  2  0  0  0  0
  3  6  2  0  0  0  0
  3 10  1  0  0  0  0
  4 11  2  0  0  0  0
  4 18  1  0  0  0  0
  5 12  1  0  0  0  0
  5 18  2  0  0  0  0
  6 19  1  0  0  0  0
  7 21  1  0  0  0  0
  8 23  1  0  0  0  0
  9 13  2  0  0  0  0
  9 22  1  0  0  0  0
 10 25  2  0  0  0  0
 11 26  1  0  0  0  0
 12 26  2  0  0  0  0
 13 27  1  0  0  0  0
 14 15  2  0  0  0  0
 14 28  1  0  0  0  0
 15 29  1  0  0  0  0
 16 24  1  0  0  0  0
 16 27  2  0  0  0  0
 17 29  2  0  0  0  0
 17 30  1  0  0  0  0
 18 32  1  0  0  0  0
 19 31  2  0  0  0  0
 19 34  1  0  0  0  0
 20 32  1  0  0  0  0
 20 33  2  0  0  0  0
 20 35  1  0  0  0  0
 21 23  2  0  0  0  0
 21 41  1  0  0  0  0
 22 24  2  0  0  0  0
 22 42  1  0  0  0  0
 23 50  1  0  0  0  0
 24 43  1  0  0  0  0
 25 31  1  0  0  0  0
 25 68  1  0  0  0  0
 26 80  1  0  0  0  0
 27 81  1  0  0  0  0
 28 30  2  0  0  0  0
 28 80  1  0  0  0  0
 29 82  1  0  0  0  0
 30 83  1  0  0  0  0
 31 84  1  0  0  0  0
 32 62  2  0  0  0  0
 33 63  1  0  0  0  0
 33 66  1  0  0  0  0
 34 69  1  0  0  0  0
 34 72  2  0  0  0  0
 35 67  1  0  0  0  0
 35 74  2  0  0  0  0
 36 51  1  0  0  0  0
 36 70  1  0  0  0  0
 36 75  2  0  0  0  0
 37 59  1  0  0  0  0
 37 64  1  0  0  0  0
 37 76  2  0  0  0  0
 38 58  1  0  0  0  0
 38 69  1  0  0  0  0
 38 77  2  0  0  0  0
 39 60  1  0  0  0  0
 39 71  1  0  0  0  0
 39 78  2  0  0  0  0
 40 65  1  0  0  0  0
 40 68  1  0  0  0  0
 40 79  2  0  0  0  0
 41 44  1  0  0  0  0
 42 51  1  0  0  0  0
 43 64  1  0  0  0  0
 44 46  1  0  0  0  0
 45 47  1  0  0  0  0
 45 48  1  0  0  0  0
 46 50  1  0  0  0  0
 47 52  1  0  0  0  0
 48 65  1  0  0  0  0
 49 52  1  0  0  0  0
 49 65  1  0  0  0  0
 50 70  1  0  0  0  0
 51 64  1  0  0  0  0
 52 63  1  0  0  0  0
 53 60  1  0  0  0  0
 54 61  1  0  0  0  0
 55 61  1  0  0  0  0
 56 61  1  0  0  0  0
 57 73  1  0  0  0  0
 58 81  1  0  0  0  0
 59 61  1  0  0  0  0
 59 71  1  0  0  0  0
 60 73  1  0  0  0  0
 62 63  1  0  0  0  0
M  CHG  2  72   1  73   1
M  ISO  4  40 100  58 101  68 100  81 101
M  END
> <Batch ID>
0066

> <Smiles>
CNC(C)C(=O)NC(C(=O)N1Cc2cc([101O:1][101CH2:1]C(=O)NC(=N)c3cccc([100NH:0][100C:0](=O)N4CCCC(n5nc(-c6ccc(Oc7ccc(F)cc7F)cc6)c(C(N)=O)c5N)C4)c3F)ccc2CC1C(=O)NC1CCCc2ccccc21)C(C)(C)C

> <Shape>
0.218

> <Color>
0.116

> <Negative vol penalty>
0.000

$$$$

  -OEChem-04042323213D

 87 95  0     1  0  0  0  0  0999 V2000
  -19.0502  -27.2564   23.3555 C   0  0  0  0  0  0  0  0  0  0  0  0
  -20.2831  -26.6208   23.2489 C   0  0  0  0  0  0  0  0  0  0  0  0
  -22.9295  -10.1244   19.9304 C   0  0  0  0  0  0  0  0  0  0  0  0
  -23.8747   -9.7641   22.1244 C   0  0  0  0  0  0  0  0  0  0  0  0
  -18.3126  -27.5417   22.2072 C   0  0  0  0  0  0  0  0  0  0  0  0
  -20.7787  -26.2691   21.9938 C   0  0  0  0  0  0  0  0  0  0  0  0
  -26.6402  -26.2651   20.2192 C   0  0  0  0  0  0  0  0  0  0  0  0
  -30.3525  -17.3890   15.8361 C   0  0  0  0  0  0  0  0  0  0  0  0
  -22.1326   -8.9905   20.0874 C   0  0  0  0  0  0  0  0  0  0  0  0
  -23.0777   -8.6302   22.2815 C   0  0  0  0  0  0  0  0  0  0  0  0
  -27.5880  -25.2480   20.1152 C   0  0  0  0  0  0  0  0  0  0  0  0
  -19.8638   -7.9351   23.0611 C   0  0  0  0  0  0  0  0  0  0  0  0
  -19.2050   -7.7716   24.2797 C   0  0  0  0  0  0  0  0  0  0  0  0
  -30.1777  -16.1252   15.2723 C   0  0  0  0  0  0  0  0  0  0  0  0
  -27.0676  -25.0109   17.7717 C   0  0  0  0  0  0  0  0  0  0  0  0
  -28.0773  -17.3417   16.6474 C   0  0  0  0  0  0  0  0  0  0  0  0
  -20.3692   -5.6835   24.6288 C   0  0  0  0  0  0  0  0  0  0  0  0
  -23.8006  -10.5112   20.9488 C   0  0  0  0  0  0  0  0  0  0  0  0
  -24.3012  -13.0050   21.1437 C   0  0  0  0  0  0  0  0  0  0  0  0
  -18.8039  -27.2020   20.9368 C   0  0  0  0  0  0  0  0  0  0  0  0
  -25.8899  -26.6560   19.1008 C   0  0  0  0  0  0  0  0  0  0  0  0
  -20.0464  -26.5490   20.8275 C   0  0  0  0  0  0  0  0  0  0  0  0
  -26.1127  -26.0350   17.8635 C   0  0  0  0  0  0  0  0  0  0  0  0
  -27.9025  -16.0779   16.0835 C   0  0  0  0  0  0  0  0  0  0  0  0
  -29.3023  -17.9972   16.5237 C   0  0  0  0  0  0  0  0  0  0  0  0
  -22.2066   -8.2434   21.2630 C   0  0  0  0  0  0  0  0  0  0  0  0
  -27.7998  -24.6187   18.8920 C   0  0  0  0  0  0  0  0  0  0  0  0
  -20.7752   -6.9728   22.6264 C   0  0  0  0  0  0  0  0  0  0  0  0
  -19.4577   -6.6458   25.0636 C   0  0  0  0  0  0  0  0  0  0  0  0
  -21.0279   -5.8471   23.4102 C   0  0  0  0  0  0  0  0  0  0  0  0
  -28.9527  -15.4697   15.3959 C   0  0  0  0  0  0  0  0  0  0  0  0
  -24.6245  -11.6821   20.7869 C   0  0  0  0  0  0  0  0  0  0  0  0
  -25.4079  -13.7368   20.7881 C   0  0  0  0  0  0  0  0  0  0  0  0
  -28.2977  -22.3893   18.3896 C   0  0  0  0  0  0  0  0  0  1  0  0
  -23.1074  -13.5258   21.7430 C   0  0  0  0  0  0  0  0  0  0  0  0
  -29.1189  -21.3411   18.2535 C   0  0  0  0  0  0  0  0  0  0  0  0
  -28.5523  -20.0259   17.8092 C   0  0  0  0  0  0  0  0  0  0  0  0
  -22.7979  -26.6599   18.3638 C   0  0  0  0  0  0  0  0  0  0  0  0
  -23.8294  -28.2298   15.7193 C   0  0  0  0  0  0  0  0  0  0  0  0
  -26.3858  -28.8982   13.5594 C   0  0  0  0  0  0  0  0  0  0  0  0
  -29.7271  -12.8099   16.7187 C   0  0  0  0  0  0  0  0  0  0  0  0
  -17.9491  -27.4882   19.7276 C   0  0  0  0  0  0  0  0  0  0  0  0
  -24.8902  -27.7731   19.2235 C   0  0  0  0  0  0  0  0  0  0  0  0
  -25.3478  -26.4315   16.6282 C   0  0  0  0  0  0  0  0  0  0  0  0
  -18.7159  -27.4194   18.4095 C   0  0  0  0  0  0  0  0  0  0  0  0
  -30.1413  -13.3567   20.2412 C   0  0  0  0  0  0  0  0  0  0  0  0
  -19.5828  -26.1652   18.3611 C   0  0  0  0  0  0  0  0  0  0  0  0
  -28.7498  -13.0903   20.8152 C   0  0  0  0  0  0  0  0  0  0  0  0
  -30.4529  -12.4250   19.0736 C   0  0  0  0  0  0  0  0  0  0  0  0
  -28.0442  -12.1921   18.5533 C   0  0  0  0  0  0  0  0  0  0  0  0
  -20.6290  -26.1740   19.4821 C   0  0  1  0  0  0  0  0  0  0  0  0
  -23.8193  -27.7384   18.1375 C   0  0  1  0  0  0  0  0  0  0  0  0
  -27.6768  -13.1350   19.7125 C   0  0  1  0  0  0  0  0  0  0  0  0
  -26.5783  -15.4030   16.2332 C   0  0  0  0  0  0  0  0  0  0  0  0
  -26.9155  -30.1878   11.4729 C   0  0  0  0  0  0  0  0  0  0  0  0
  -22.3526  -26.1410   14.0562 C   0  0  0  0  0  0  0  0  0  0  0  0
  -23.6712  -26.8948   12.0659 C   0  0  0  0  0  0  0  0  0  0  0  0
  -22.1344  -28.4869   13.2174 C   0  0  0  0  0  0  0  0  0  0  0  0
  -28.4408  -30.5174   14.9429 C   0  0  0  0  0  0  0  0  0  0  0  0
  -24.2959  -27.8162   14.3444 C   0  0  1  0  0  0  0  0  0  0  0  0
  -26.9107  -30.2054   12.9936 C   0  0  2  0  0  0  0  0  0  0  0  0
  -23.1267  -27.3257   13.4445 C   0  0  0  0  0  0  0  0  0  0  0  0
  -25.8412  -11.5766   20.2460 N   0  0  0  0  0  0  0  0  0  0  0  0
  -28.6742  -12.8383   15.8923 N   0  5  0  0  0  0  0  0  0  0  0  0
  -26.2921  -12.8426   20.2601 N   0  0  0  0  0  0  0  0  0  0  0  0
  -24.3768  -27.5247   16.8005 N   0  0  0  0  0  0  0  0  0  0  0  0
  -29.4003  -12.4904   18.0562 N   0  0  0  0  0  0  0  0  0  0  0  0
  -25.7010  -15.0514   20.8785 N   0  0  0  0  0  0  0  0  0  0  0  0
  -22.0676  -12.6355   22.0439 N   0  0  0  0  0  0  0  0  0  0  0  0
  -29.4804  -19.2801   17.0955 N   0  0  0  0  0  0  0  0  0  0  0  0
  -21.7265  -27.0541   19.1423 N   0  0  0  0  0  0  0  0  0  0  0  0
  -25.0298  -28.9548   13.8027 N   0  0  0  0  0  0  0  0  0  0  0  0
  -28.3026  -30.4522   13.4652 N   0  3  0  0  0  0  0  0  0  0  0  0
  -22.9604  -14.7471   21.9890 O   0  0  0  0  0  0  0  0  0  0  0  0
  -27.3979  -19.7133   18.0805 O   0  0  0  0  0  0  0  0  0  0  0  0
  -22.9686  -25.5525   17.8677 O   0  0  0  0  0  0  0  0  0  0  0  0
  -23.0148  -29.1495   15.8302 O   0  0  0  0  0  0  0  0  0  0  0  0
  -27.1060  -27.9230   13.7617 O   0  0  0  0  0  0  0  0  0  0  0  0
  -30.8969  -13.0364   16.3937 O   0  0  0  0  0  0  0  0  0  0  0  0
  -27.5310  -13.9795   13.8811 O   0  0  0  0  0  0  0  0  0  0  0  0
  -29.9710  -13.7188   13.8418 O   0  0  0  0  0  0  0  0  0  0  0  0
  -30.4734  -21.4218   18.5054 O   0  0  0  0  0  0  0  0  0  0  0  0
  -21.4289   -7.1370   21.4167 O   0  0  0  0  0  0  0  0  0  0  0  0
  -28.7239  -23.6252   18.7879 O   0  0  0  0  0  0  0  0  0  1  0  0
  -18.8262   -6.4897   26.2344 F   0  0  0  0  0  0  0  0  0  0  0  0
  -21.9033   -4.9198   22.9983 F   0  0  0  0  0  0  0  0  0  0  0  0
  -28.7625  -13.8383   14.6545 S   0  0  0  0  0  0  0  0  0  0  0  0
  1  2  1  0  0  0  0
  1  5  2  0  0  0  0
  2  6  2  0  0  0  0
  3  9  2  0  0  0  0
  3 18  1  0  0  0  0
  4 10  1  0  0  0  0
  4 18  2  0  0  0  0
  5 20  1  0  0  0  0
  6 22  1  0  0  0  0
  7 11  2  0  0  0  0
  7 21  1  0  0  0  0
  8 14  2  0  0  0  0
  8 25  1  0  0  0  0
  9 26  1  0  0  0  0
 10 26  2  0  0  0  0
 11 27  1  0  0  0  0
 12 13  2  0  0  0  0
 12 28  1  0  0  0  0
 13 29  1  0  0  0  0
 14 31  1  0  0  0  0
 15 23  1  0  0  0  0
 15 27  2  0  0  0  0
 16 24  1  0  0  0  0
 16 25  2  0  0  0  0
 17 29  2  0  0  0  0
 17 30  1  0  0  0  0
 18 32  1  0  0  0  0
 19 32  1  0  0  0  0
 19 33  2  0  0  0  0
 19 35  1  0  0  0  0
 20 22  2  0  0  0  0
 20 42  1  0  0  0  0
 21 23  2  0  0  0  0
 21 43  1  0  0  0  0
 22 51  1  0  0  0  0
 23 44  1  0  0  0  0
 24 31  2  0  0  0  0
 24 54  1  0  0  0  0
 25 70  1  0  0  0  0
 26 83  1  0  0  0  0
 27 84  1  0  0  0  0
 28 30  2  0  0  0  0
 28 83  1  0  0  0  0
 29 85  1  0  0  0  0
 30 86  1  0  0  0  0
 31 87  1  0  0  0  0
 32 63  2  0  0  0  0
 33 65  1  0  0  0  0
 33 68  1  0  0  0  0
 34 36  2  0  0  0  0
 34 84  1  0  0  0  0
 35 69  1  0  0  0  0
 35 74  2  0  0  0  0
 36 37  1  0  0  0  0
 36 82  1  0  0  0  0
 37 70  1  0  0  0  0
 37 75  2  0  0  0  0
 38 52  1  0  0  0  0
 38 71  1  0  0  0  0
 38 76  2  0  0  0  0
 39 60  1  0  0  0  0
 39 66  1  0  0  0  0
 39 77  2  0  0  0  0
 40 61  1  0  0  0  0
 40 72  1  0  0  0  0
 40 78  2  0  0  0  0
 41 64  1  0  0  0  0
 41 67  1  0  0  0  0
 41 79  2  0  0  0  0
 42 45  1  0  0  0  0
 43 52  1  0  0  0  0
 44 66  1  0  0  0  0
 45 47  1  0  0  0  0
 46 48  1  0  0  0  0
 46 49  1  0  0  0  0
 47 51  1  0  0  0  0
 48 53  1  0  0  0  0
 49 67  1  0  0  0  0
 50 53  1  0  0  0  0
 50 67  1  0  0  0  0
 51 71  1  0  0  0  0
 52 66  1  0  0  0  0
 53 65  1  0  0  0  0
 55 61  1  0  0  0  0
 56 62  1  0  0  0  0
 57 62  1  0  0  0  0
 58 62  1  0  0  0  0
 59 73  1  0  0  0  0
 60 62  1  0  0  0  0
 60 72  1  0  0  0  0
 61 73  1  0  0  0  0
 63 65  1  0  0  0  0
 64 87  1  0  0  0  0
 80 87  2  0  0  0  0
 81 87  2  0  0  0  0
M  CHG  2  64  -1  73   1
M  ISO  4  34 101  41 100  64 100  84 101
M  END
> <Batch ID>
0066

> <Smiles>
CNC(C)C(=O)NC(C(=O)N1Cc2cc([101O:1][101CH2:1]C(=O)C(=O)Nc3ccc(S(=O)(=O)[100NH:0][100C:0](=O)N4CCCC(n5nc(-c6ccc(Oc7ccc(F)cc7F)cc6)c(C(N)=O)c5N)C4)c(C)c3)ccc2CC1C(=O)NC1CCCc2ccccc21)C(C)(C)C

> <Shape>
0.230

> <Color>
0.164

> <Negative vol penalty>
0.000

$$$$

  -OEChem-04042323213D

 86 95  0     1  0  0  0  0  0999 V2000
  -29.9241  -34.3075   22.9179 C   0  0  0  0  0  0  0  0  0  0  0  0
  -30.2471  -32.9700   23.1228 C   0  0  0  0  0  0  0  0  0  0  0  0
  -23.2918  -10.3062   22.3192 C   0  0  0  0  0  0  0  0  0  0  0  0
  -23.5845   -9.4759   20.0693 C   0  0  0  0  0  0  0  0  0  0  0  0
  -28.8000  -16.5699   19.7281 C   0  0  0  0  0  0  0  0  0  0  0  0
  -28.6872  -34.7967   23.3357 C   0  0  0  0  0  0  0  0  0  0  0  0
  -29.3336  -32.1210   23.7467 C   0  0  0  0  0  0  0  0  0  0  0  0
  -26.9068  -26.2044   20.4306 C   0  0  0  0  0  0  0  0  0  0  0  0
  -28.0980  -17.6401   19.1737 C   0  0  0  0  0  0  0  0  0  0  0  0
  -22.5350   -9.1784   22.6370 C   0  0  0  0  0  0  0  0  0  0  0  0
  -22.8277   -8.3481   20.3871 C   0  0  0  0  0  0  0  0  0  0  0  0
  -26.5569  -24.9437   19.9465 C   0  0  0  0  0  0  0  0  0  0  0  0
  -19.3750   -8.0818   22.1511 C   0  0  0  0  0  0  0  0  0  0  0  0
  -18.1913   -8.2760   22.8628 C   0  0  0  0  0  0  0  0  0  0  0  0
  -25.1433  -24.5837   21.8752 C   0  0  0  0  0  0  0  0  0  0  0  0
  -28.7058  -19.0176   21.0633 C   0  0  0  0  0  0  0  0  0  0  0  0
  -19.0372   -6.8864   24.6490 C   0  0  0  0  0  0  0  0  0  0  0  0
  -23.8165  -10.4550   21.0354 C   0  0  0  0  0  0  0  0  0  0  0  0
  -29.4549  -16.7234   20.9502 C   0  0  0  0  0  0  0  0  0  0  0  0
  -24.1828  -12.9643   20.7582 C   0  0  0  0  0  0  0  0  0  0  0  0
  -27.7542  -33.9511   23.9563 C   0  0  0  0  0  0  0  0  0  0  0  0
  -26.3636  -26.6663   21.6326 C   0  0  0  0  0  0  0  0  0  0  0  0
  -28.0835  -32.5996   24.1744 C   0  0  0  0  0  0  0  0  0  0  0  0
  -25.4803  -25.8506   22.3588 C   0  0  0  0  0  0  0  0  0  0  0  0
  -29.4078  -17.9473   21.6177 C   0  0  0  0  0  0  0  0  0  0  0  0
  -28.0509  -18.8640   19.8413 C   0  0  0  0  0  0  0  0  0  0  0  0
  -22.3030   -8.1993   21.6710 C   0  0  0  0  0  0  0  0  0  0  0  0
  -25.6775  -24.1353   20.6672 C   0  0  0  0  0  0  0  0  0  0  0  0
  -20.3899   -7.2898   22.6883 C   0  0  0  0  0  0  0  0  0  0  0  0
  -18.0223   -7.6783   24.1117 C   0  0  0  0  0  0  0  0  0  0  0  0
  -20.2210   -6.6921   23.9372 C   0  0  0  0  0  0  0  0  0  0  0  0
  -24.5978  -11.6200   20.7063 C   0  0  0  0  0  0  0  0  0  0  0  0
  -25.2834  -13.6792   20.3529 C   0  0  0  0  0  0  0  0  0  0  0  0
  -26.7236  -20.9454   20.0906 C   0  0  0  0  0  0  0  0  0  0  0  0
  -30.1800  -15.5889   21.5065 C   0  0  0  0  0  0  0  0  0  0  0  0
  -22.9159  -13.5173   21.1387 C   0  0  0  0  0  0  0  0  0  0  0  0
  -30.7992  -14.5676   20.6309 C   0  0  0  0  0  0  0  0  0  0  0  0
  -26.1540  -29.4487   24.1408 C   0  0  0  0  0  0  0  0  0  0  0  0
  -23.3192  -28.3201   23.8230 C   0  0  0  0  0  0  0  0  0  0  0  0
  -20.2889  -27.0743   22.8731 C   0  0  0  0  0  0  0  0  0  0  0  0
  -26.4487  -34.5364   24.4333 C   0  0  0  0  0  0  0  0  0  0  0  0
  -26.7600  -27.9924   22.2228 C   0  0  0  0  0  0  0  0  0  0  0  0
  -24.9476  -26.3749   23.6643 C   0  0  0  0  0  0  0  0  0  0  0  0
  -25.3888  -33.4843   24.7493 C   0  0  0  0  0  0  0  0  0  0  0  0
  -26.7224  -21.2616   17.1767 C   0  0  0  0  0  0  0  0  0  0  0  0
  -29.6163  -12.1634   18.2482 C   0  0  0  0  0  0  0  0  0  0  0  0
  -25.9873  -32.3581   25.5862 C   0  0  0  0  0  0  0  0  0  0  0  0
  -25.7129  -22.0080   18.0184 C   0  0  0  0  0  0  0  0  0  0  0  0
  -28.1835  -11.8898   18.7043 C   0  0  0  0  0  0  0  0  0  0  0  0
  -27.0391  -19.9207   17.8196 C   0  0  0  0  0  0  0  0  0  0  0  0
  -30.5381  -12.4305   19.4336 C   0  0  0  0  0  0  0  0  0  0  0  0
  -28.6341  -13.2674   20.7839 C   0  0  0  0  0  0  0  0  0  0  0  0
  -27.1094  -31.6417   24.8252 C   0  0  1  0  0  0  0  0  0  0  0  0
  -26.3016  -22.2349   19.3940 C   0  0  1  0  0  0  0  0  0  1  0  0
  -25.6076  -28.6905   22.9668 C   0  0  1  0  0  0  0  0  0  0  0  0
  -27.6677  -13.0203   19.6124 C   0  0  2  0  0  0  0  0  0  0  0  0
  -30.0992  -18.1382   22.9282 C   0  0  0  0  0  0  0  0  0  0  0  0
  -17.8338  -27.2935   23.3440 C   0  0  0  0  0  0  0  0  0  0  0  0
  -23.6789  -26.7462   26.4109 C   0  0  0  0  0  0  0  0  0  0  0  0
  -21.2404  -26.1851   26.3253 C   0  0  0  0  0  0  0  0  0  0  0  0
  -21.9649  -28.5638   26.5246 C   0  0  0  0  0  0  0  0  0  0  0  0
  -19.7119  -27.9088   20.0929 C   0  0  0  0  0  0  0  0  0  0  0  0
  -22.2791  -27.3523   24.3278 C   0  0  1  0  0  0  0  0  0  0  0  0
  -18.9944  -27.7634   22.4809 C   0  0  2  0  0  0  0  0  0  0  0  0
  -22.3080  -27.2053   25.8754 C   0  0  0  0  0  0  0  0  0  0  0  0
  -25.8631  -11.4863   20.3000 N   0  0  0  0  0  0  0  0  0  0  0  0
  -30.3334  -15.3982   22.7877 N   0  0  0  0  0  0  0  0  0  0  0  0
  -26.2527  -12.7557   20.0927 N   0  0  0  0  0  0  0  0  0  0  0  0
  -27.3223  -19.9739   19.2652 N   0  0  0  0  0  0  0  0  0  0  0  0
  -30.0014  -13.4831   20.2939 N   0  0  0  0  0  0  0  0  0  0  0  0
  -24.5816  -27.7930   23.5244 N   0  0  0  0  0  0  0  0  0  0  0  0
  -25.5067  -15.0014   20.1971 N   0  0  0  0  0  0  0  0  0  0  0  0
  -21.8942  -12.6406   21.5285 N   0  0  0  0  0  0  0  0  0  0  0  0
  -26.5551  -30.7367   23.8414 N   0  0  0  0  0  0  0  0  0  0  0  0
  -21.0011  -27.8119   23.7950 N   0  0  0  0  0  0  0  0  0  0  0  0
  -18.6663  -27.4769   21.0557 N   0  3  0  0  0  0  0  0  0  0  0  0
  -26.5658  -20.8422   21.3098 O   0  0  0  0  0  0  0  0  0  0  0  0
  -22.6913  -14.7512   21.1176 O   0  0  0  0  0  0  0  0  0  0  0  0
  -31.9555  -14.7904   20.2966 O   0  0  0  0  0  0  0  0  0  0  0  0
  -26.2069  -28.9066   25.2385 O   0  0  0  0  0  0  0  0  0  0  0  0
  -23.0250  -29.5125   23.7011 O   0  0  0  0  0  0  0  0  0  0  0  0
  -20.6320  -25.9884   22.4109 O   0  0  0  0  0  0  0  0  0  0  0  0
  -21.5648   -7.0985   21.9808 O   0  0  0  0  0  0  0  0  0  0  0  0
  -25.3367  -22.9074   20.1866 O   0  0  0  0  0  0  0  0  0  1  0  0
  -16.8861   -7.8662   24.7958 F   0  0  0  0  0  0  0  0  0  0  0  0
  -21.1928   -5.9312   24.4590 F   0  0  0  0  0  0  0  0  0  0  0  0
  1  2  1  0  0  0  0
  1  6  2  0  0  0  0
  2  7  2  0  0  0  0
  3 10  2  0  0  0  0
  3 18  1  0  0  0  0
  4 11  1  0  0  0  0
  4 18  2  0  0  0  0
  5  9  2  0  0  0  0
  5 19  1  0  0  0  0
  6 21  1  0  0  0  0
  7 23  1  0  0  0  0
  8 12  2  0  0  0  0
  8 22  1  0  0  0  0
  9 26  1  0  0  0  0
 10 27  1  0  0  0  0
 11 27  2  0  0  0  0
 12 28  1  0  0  0  0
 13 14  2  0  0  0  0
 13 29  1  0  0  0  0
 14 30  1  0  0  0  0
 15 24  1  0  0  0  0
 15 28  2  0  0  0  0
 16 25  1  0  0  0  0
 16 26  2  0  0  0  0
 17 30  2  0  0  0  0
 17 31  1  0  0  0  0
 18 32  1  0  0  0  0
 19 25  2  0  0  0  0
 19 35  1  0  0  0  0
 20 32  1  0  0  0  0
 20 33  2  0  0  0  0
 20 36  1  0  0  0  0
 21 23  2  0  0  0  0
 21 41  1  0  0  0  0
 22 24  2  0  0  0  0
 22 42  1  0  0  0  0
 23 53  1  0  0  0  0
 24 43  1  0  0  0  0
 25 57  1  0  0  0  0
 26 69  1  0  0  0  0
 27 83  1  0  0  0  0
 28 84  1  0  0  0  0
 29 31  2  0  0  0  0
 29 83  1  0  0  0  0
 30 85  1  0  0  0  0
 31 86  1  0  0  0  0
 32 66  2  0  0  0  0
 33 68  1  0  0  0  0
 33 72  1  0  0  0  0
 34 54  1  0  0  0  0
 34 69  1  0  0  0  0
 34 77  2  0  0  0  0
 35 37  1  0  0  0  0
 35 67  2  0  0  0  0
 36 73  1  0  0  0  0
 36 78  2  0  0  0  0
 37 70  1  0  0  0  0
 37 79  2  0  0  0  0
 38 55  1  0  0  0  0
 38 74  1  0  0  0  0
 38 80  2  0  0  0  0
 39 63  1  0  0  0  0
 39 71  1  0  0  0  0
 39 81  2  0  0  0  0
 40 64  1  0  0  0  0
 40 75  1  0  0  0  0
 40 82  2  0  0  0  0
 41 44  1  0  0  0  0
 42 55  1  0  0  0  0
 43 71  1  0  0  0  0
 44 47  1  0  0  0  0
 45 48  1  0  0  0  0
 45 50  1  0  0  0  0
 46 49  1  0  0  0  0
 46 51  1  0  0  0  0
 47 53  1  0  0  0  0
 48 54  1  0  0  0  0
 49 56  1  0  0  0  0
 50 69  1  0  0  0  0
 51 70  1  0  0  0  0
 52 56  1  0  0  0  0
 52 70  1  0  0  0  0
 53 74  1  0  0  0  0
 54 84  1  0  0  0  0
 55 71  1  0  0  0  0
 56 68  1  0  0  0  0
 58 64  1  0  0  0  0
 59 65  1  0  0  0  0
 60 65  1  0  0  0  0
 61 65  1  0  0  0  0
 62 76  1  0  0  0  0
 63 65  1  0  0  0  0
 63 75  1  0  0  0  0
 64 76  1  0  0  0  0
 66 68  1  0  0  0  0
M  CHG  1  76   1
M  ISO  4  35 100  37 100  54 101  84 101
M  END
> <Batch ID>
0066

> <Smiles>
CNC(C)C(=O)NC(C(=O)N1Cc2cc([101O:1][101CH:1]3CCCN(c4ccc([100C:0](=N)[100C:0](=O)N5CCCC(n6nc(-c7ccc(Oc8ccc(F)cc8F)cc7)c(C(N)=O)c6N)C5)c(C)c4)C3=O)ccc2CC1C(=O)NC1CCCc2ccccc21)C(C)(C)C

> <Shape>
0.315

> <Color>
0.191

> <Negative vol penalty>
0.000

$$$$

  -OEChem-04042323213D

 88 97  0     1  0  0  0  0  0999 V2000
  -29.5643  -11.3694   19.8383 C   0  0  0  0  0  0  0  0  0  0  0  0
  -29.5985  -12.7315   19.5572 C   0  0  0  0  0  0  0  0  0  0  0  0
  -19.4074  -28.9767   23.0849 C   0  0  0  0  0  0  0  0  0  0  0  0
  -20.7702  -27.0166   22.7139 C   0  0  0  0  0  0  0  0  0  0  0  0
  -28.3423  -10.7339   20.0548 C   0  0  0  0  0  0  0  0  0  0  0  0
  -28.4106  -13.4587   19.4914 C   0  0  0  0  0  0  0  0  0  0  0  0
  -28.7058  -17.8866   21.9309 C   0  0  0  0  0  0  0  0  0  0  0  0
  -30.9640  -29.0508   19.5397 C   0  0  0  0  0  0  0  0  0  0  0  0
  -29.8111  -29.7478   19.9012 C   0  0  0  0  0  0  0  0  0  0  0  0
  -18.2962  -28.2992   22.5830 C   0  0  0  0  0  0  0  0  0  0  0  0
  -19.6591  -26.3391   22.2120 C   0  0  0  0  0  0  0  0  0  0  0  0
  -29.3702  -18.9273   21.2834 C   0  0  0  0  0  0  0  0  0  0  0  0
  -16.9376  -24.7622   23.4479 C   0  0  0  0  0  0  0  0  0  0  0  0
  -16.7251  -23.4551   23.8860 C   0  0  0  0  0  0  0  0  0  0  0  0
  -27.2477  -19.8585   20.6148 C   0  0  0  0  0  0  0  0  0  0  0  0
  -28.7806  -27.6787   20.6041 C   0  0  0  0  0  0  0  0  0  0  0  0
  -16.8903  -22.6650   21.6088 C   0  0  0  0  0  0  0  0  0  0  0  0
  -20.6444  -28.3355   23.1503 C   0  0  0  0  0  0  0  0  0  0  0  0
  -22.2265  -29.0831   25.0066 C   0  0  0  0  0  0  0  0  0  0  0  0
  -27.1395  -11.4557   20.0012 C   0  0  0  0  0  0  0  0  0  0  0  0
  -27.3052  -17.8180   21.9160 C   0  0  0  0  0  0  0  0  0  0  0  0
  -27.1712  -12.8320   19.7061 C   0  0  0  0  0  0  0  0  0  0  0  0
  -26.5678  -18.8174   21.2651 C   0  0  0  0  0  0  0  0  0  0  0  0
  -31.0251  -27.6677   19.7104 C   0  0  0  0  0  0  0  0  0  0  0  0
  -29.9335  -26.9817   20.2426 C   0  0  0  0  0  0  0  0  0  0  0  0
  -28.7194  -29.0618   20.4334 C   0  0  0  0  0  0  0  0  0  0  0  0
  -18.4221  -26.9804   22.1465 C   0  0  0  0  0  0  0  0  0  0  0  0
  -28.6413  -19.9118   20.6228 C   0  0  0  0  0  0  0  0  0  0  0  0
  -17.1264  -25.0207   22.0902 C   0  0  0  0  0  0  0  0  0  0  0  0
  -16.7015  -22.4065   22.9665 C   0  0  0  0  0  0  0  0  0  0  0  0
  -17.1028  -23.9721   21.1707 C   0  0  0  0  0  0  0  0  0  0  0  0
  -21.7927  -29.0350   23.6682 C   0  0  0  0  0  0  0  0  0  0  0  0
  -23.3515  -29.8703   24.9748 C   0  0  0  0  0  0  0  0  0  0  0  0
  -30.8877  -24.8491   21.2262 C   0  0  0  0  0  0  0  0  0  0  0  0
  -21.6629  -28.4708   26.1742 C   0  0  0  0  0  0  0  0  0  0  0  0
  -25.1729  -15.7403   20.8025 C   0  0  0  0  0  0  0  0  0  0  0  0
  -23.0639  -17.6924   22.3069 C   0  0  0  0  0  0  0  0  0  0  0  0
  -22.3568  -20.7978   23.5330 C   0  0  0  0  0  0  0  0  0  0  0  0
  -27.3240  -31.1427   20.6963 C   0  0  0  0  0  0  0  0  0  0  0  0
  -25.8397  -10.7158   20.1955 C   0  0  0  0  0  0  0  0  0  0  0  0
  -26.6027  -16.7037   22.6420 C   0  0  0  0  0  0  0  0  0  0  0  0
  -25.0620  -18.8005   21.2369 C   0  0  0  0  0  0  0  0  0  0  0  0
  -24.6529  -11.6334   20.4780 C   0  0  0  0  0  0  0  0  0  0  0  0
  -25.3355  -33.4691   22.5159 C   0  0  0  0  0  0  0  0  0  0  0  0
  -24.6407  -12.8061   19.5026 C   0  0  0  0  0  0  0  0  0  0  0  0
  -24.2444  -32.5996   23.1446 C   0  0  0  0  0  0  0  0  0  0  0  0
  -25.7102  -32.9851   21.1162 C   0  0  0  0  0  0  0  0  0  0  0  0
  -28.9994  -24.6813   19.8188 C   0  0  0  0  0  0  0  0  0  0  0  0
  -24.9797  -30.6949   21.6552 C   0  0  0  0  0  0  0  0  0  0  0  0
  -25.9058  -13.6600   19.6507 C   0  0  1  0  0  0  0  0  0  0  0  0
  -30.4514  -23.3915   21.2010 C   0  0  1  0  0  0  0  0  0  0  0  0
  -25.1894  -16.4519   22.1257 C   0  0  1  0  0  0  0  0  0  0  0  0
  -29.6378  -23.3018   19.9091 C   0  0  1  0  0  0  0  0  0  0  0  0
  -24.6148  -31.1044   23.0915 C   0  0  2  0  0  0  0  0  0  0  0  0
  -32.2728  -26.9472   19.3144 C   0  0  0  0  0  0  0  0  0  0  0  0
  -20.5386  -22.0986   24.6730 C   0  0  0  0  0  0  0  0  0  0  0  0
  -32.7651  -22.9224   20.3454 C   0  0  0  0  0  0  0  0  0  0  0  0
  -32.1277  -22.2448   22.6774 C   0  0  0  0  0  0  0  0  0  0  0  0
  -21.5466  -17.8809   19.6664 C   0  0  0  0  0  0  0  0  0  0  0  0
  -20.3456  -19.8790   20.5793 C   0  0  0  0  0  0  0  0  0  0  0  0
  -20.0945  -17.6598   21.6904 C   0  0  0  0  0  0  0  0  0  0  0  0
  -24.0593  -21.3310   25.8945 C   0  0  0  0  0  0  0  0  0  0  0  0
  -28.6093  -22.1816   19.9135 C   0  0  0  0  0  0  0  0  0  1  0  0
  -22.2754  -18.9188   21.9153 C   0  0  1  0  0  0  0  0  0  0  0  0
  -21.7850  -21.2487   24.8650 C   0  0  2  0  0  0  0  0  0  0  0  0
  -31.6280  -22.4313   21.2435 C   0  0  0  0  0  0  0  0  0  0  0  0
  -21.0939  -18.5842   20.9616 C   0  0  0  0  0  0  0  0  0  0  0  0
  -22.5780  -29.7361   22.8461 N   0  0  0  0  0  0  0  0  0  0  0  0
  -23.5166  -30.2321   23.6702 N   0  0  0  0  0  0  0  0  0  0  0  0
  -29.9767  -25.5667   20.4248 N   0  0  0  0  0  0  0  0  0  0  0  0
  -24.4213  -17.6870   21.9559 N   0  0  0  0  0  0  0  0  0  0  0  0
  -26.0532  -31.5615   21.1441 N   0  0  0  0  0  0  0  0  0  0  0  0
  -24.2058  -30.2815   25.9359 N   0  0  0  0  0  0  0  0  0  0  0  0
  -20.5052  -27.6943   26.0286 N   0  0  0  0  0  0  0  0  0  0  0  0
  -27.5485  -29.7703   20.8005 N   0  0  0  0  0  0  0  0  0  0  0  0
  -25.8066  -14.5124   20.8161 N   0  0  0  0  0  0  0  0  0  0  0  0
  -21.8734  -19.5609   23.1621 N   0  0  0  0  0  0  0  0  0  0  0  0
  -22.7911  -22.0525   25.6151 N   0  3  0  0  0  0  0  0  0  0  0  0
  -31.8281  -25.2543   21.8944 O   0  0  0  0  0  0  0  0  0  0  0  0
  -22.1616  -28.6216   27.3153 O   0  0  0  0  0  0  0  0  0  0  0  0
  -24.6246  -16.2656   19.8407 O   0  0  0  0  0  0  0  0  0  0  0  0
  -22.4979  -16.7762   22.9085 O   0  0  0  0  0  0  0  0  0  0  0  0
  -23.1500  -21.4768   22.8845 O   0  0  0  0  0  0  0  0  0  0  0  0
  -28.1621  -31.9458   20.2786 O   0  0  0  0  0  0  0  0  0  0  0  0
  -17.3380  -26.3188   21.6569 O   0  0  0  0  0  0  0  0  0  0  0  0
  -29.2874  -20.9283   19.9894 O   0  0  0  0  0  0  0  0  0  1  0  0
  -16.4989  -21.1512   23.3875 F   0  0  0  0  0  0  0  0  0  0  0  0
  -17.2847  -24.2141   19.8653 F   0  0  0  0  0  0  0  0  0  0  0  0
  1  2  1  0  0  0  0
  1  5  2  0  0  0  0
  2  6  2  0  0  0  0
  3 10  2  0  0  0  0
  3 18  1  0  0  0  0
  4 11  1  0  0  0  0
  4 18  2  0  0  0  0
  5 20  1  0  0  0  0
  6 22  1  0  0  0  0
  7 12  2  0  0  0  0
  7 21  1  0  0  0  0
  8  9  2  0  0  0  0
  8 24  1  0  0  0  0
  9 26  1  0  0  0  0
 10 27  1  0  0  0  0
 11 27  2  0  0  0  0
 12 28  1  0  0  0  0
 13 14  2  0  0  0  0
 13 29  1  0  0  0  0
 14 30  1  0  0  0  0
 15 23  1  0  0  0  0
 15 28  2  0  0  0  0
 16 25  1  0  0  0  0
 16 26  2  0  0  0  0
 17 30  2  0  0  0  0
 17 31  1  0  0  0  0
 18 32  1  0  0  0  0
 19 32  1  0  0  0  0
 19 33  2  0  0  0  0
 19 35  1  0  0  0  0
 20 22  2  0  0  0  0
 20 40  1  0  0  0  0
 21 23  2  0  0  0  0
 21 41  1  0  0  0  0
 22 50  1  0  0  0  0
 23 42  1  0  0  0  0
 24 25  2  0  0  0  0
 24 55  1  0  0  0  0
 25 70  1  0  0  0  0
 26 75  1  0  0  0  0
 27 85  1  0  0  0  0
 28 86  1  0  0  0  0
 29 31  2  0  0  0  0
 29 85  1  0  0  0  0
 30 87  1  0  0  0  0
 31 88  1  0  0  0  0
 32 68  2  0  0  0  0
 33 69  1  0  0  0  0
 33 73  1  0  0  0  0
 34 51  1  0  0  0  0
 34 70  1  0  0  0  0
 34 79  2  0  0  0  0
 35 74  1  0  0  0  0
 35 80  2  0  0  0  0
 36 52  1  0  0  0  0
 36 76  1  0  0  0  0
 36 81  2  0  0  0  0
 37 64  1  0  0  0  0
 37 71  1  0  0  0  0
 37 82  2  0  0  0  0
 38 65  1  0  0  0  0
 38 77  1  0  0  0  0
 38 83  2  0  0  0  0
 39 72  1  0  0  0  0
 39 75  1  0  0  0  0
 39 84  2  0  0  0  0
 40 43  1  0  0  0  0
 41 52  1  0  0  0  0
 42 71  1  0  0  0  0
 43 45  1  0  0  0  0
 44 46  1  0  0  0  0
 44 47  1  0  0  0  0
 45 50  1  0  0  0  0
 46 54  1  0  0  0  0
 47 72  1  0  0  0  0
 48 53  1  0  0  0  0
 48 70  1  0  0  0  0
 49 54  1  0  0  0  0
 49 72  1  0  0  0  0
 50 76  1  0  0  0  0
 51 53  1  0  0  0  0
 51 66  1  0  0  0  0
 52 71  1  0  0  0  0
 53 63  1  0  0  0  0
 54 69  1  0  0  0  0
 56 65  1  0  0  0  0
 57 66  1  0  0  0  0
 58 66  1  0  0  0  0
 59 67  1  0  0  0  0
 60 67  1  0  0  0  0
 61 67  1  0  0  0  0
 62 78  1  0  0  0  0
 63 86  1  0  0  0  0
 64 67  1  0  0  0  0
 64 77  1  0  0  0  0
 65 78  1  0  0  0  0
 68 69  1  0  0  0  0
M  CHG  1  78   1
M  ISO  4  39 100  63 101  75 100  86 101
M  END
> <Batch ID>
0066

> <Smiles>
CNC(C)C(=O)NC(C(=O)N1Cc2cc([101O:1][101CH2:1]C3CN(c4cc([100NH:0][100C:0](=O)N5CCCC(n6nc(-c7ccc(Oc8ccc(F)cc8F)cc7)c(C(N)=O)c6N)C5)ccc4C)C(=O)C3C(C)C)ccc2CC1C(=O)NC1CCCc2ccccc21)C(C)(C)C

> <Shape>
0.249

> <Color>
0.060

> <Negative vol penalty>
0.000

$$$$

  -OEChem-04042323213D

 92101  0     1  0  0  0  0  0999 V2000
  -29.4471  -36.2796   19.4684 C   0  0  0  0  0  0  0  0  0  0  0  0
  -29.6691  -35.0376   18.8823 C   0  0  0  0  0  0  0  0  0  0  0  0
  -24.1679   -9.1914   20.1024 C   0  0  0  0  0  0  0  0  0  0  0  0
  -22.8908   -9.9789   21.9960 C   0  0  0  0  0  0  0  0  0  0  0  0
  -28.8498  -36.3591   20.7256 C   0  0  0  0  0  0  0  0  0  0  0  0
  -29.2949  -33.8742   19.5537 C   0  0  0  0  0  0  0  0  0  0  0  0
  -26.8694  -27.2485   18.3154 C   0  0  0  0  0  0  0  0  0  0  0  0
  -29.4388  -18.7752   16.9906 C   0  0  0  0  0  0  0  0  0  0  0  0
  -29.5874  -19.8092   17.9149 C   0  0  0  0  0  0  0  0  0  0  0  0
  -23.5085   -7.9641   20.1680 C   0  0  0  0  0  0  0  0  0  0  0  0
  -22.2313   -8.7515   22.0616 C   0  0  0  0  0  0  0  0  0  0  0  0
  -27.1594  -25.9202   18.6240 C   0  0  0  0  0  0  0  0  0  0  0  0
  -22.8700   -5.6387   23.2163 C   0  0  0  0  0  0  0  0  0  0  0  0
  -22.7191   -5.0504   24.4720 C   0  0  0  0  0  0  0  0  0  0  0  0
  -26.0632  -26.1826   20.7567 C   0  0  0  0  0  0  0  0  0  0  0  0
  -20.3179   -5.1111   24.2119 C   0  0  0  0  0  0  0  0  0  0  0  0
  -23.8591  -10.1988   21.0164 C   0  0  0  0  0  0  0  0  0  0  0  0
  -25.9240  -11.6958   21.0723 C   0  0  0  0  0  0  0  0  0  0  0  0
  -28.4592  -35.1965   21.4086 C   0  0  0  0  0  0  0  0  0  0  0  0
  -26.1825  -28.0583   19.2312 C   0  0  0  0  0  0  0  0  0  0  0  0
  -28.6930  -33.9381   20.8219 C   0  0  0  0  0  0  0  0  0  0  0  0
  -25.7635  -27.5201   20.4563 C   0  0  0  0  0  0  0  0  0  0  0  0
  -28.2871  -17.9883   17.0036 C   0  0  0  0  0  0  0  0  0  0  0  0
  -28.5844  -20.0563   18.8522 C   0  0  0  0  0  0  0  0  0  0  0  0
  -27.2841  -18.2354   17.9410 C   0  0  0  0  0  0  0  0  0  0  0  0
  -22.5401   -7.7441   21.1475 C   0  0  0  0  0  0  0  0  0  0  0  0
  -26.7589  -25.3878   19.8460 C   0  0  0  0  0  0  0  0  0  0  0  0
  -21.7448   -5.9634   22.4584 C   0  0  0  0  0  0  0  0  0  0  0  0
  -21.4431   -4.7865   24.9698 C   0  0  0  0  0  0  0  0  0  0  0  0
  -20.4688   -5.6995   22.9562 C   0  0  0  0  0  0  0  0  0  0  0  0
  -27.4328  -19.2694   18.8653 C   0  0  0  0  0  0  0  0  0  0  0  0
  -24.5404  -11.4667   20.9496 C   0  0  0  0  0  0  0  0  0  0  0  0
  -26.0602  -13.0558   20.9368 C   0  0  0  0  0  0  0  0  0  0  0  0
  -29.5364  -22.9096   21.0249 C   0  0  0  0  0  0  0  0  0  0  0  0
  -29.8350  -21.9833   19.8991 C   0  0  0  0  0  0  0  0  0  0  0  0
  -30.3981  -23.8708   21.3757 C   0  0  0  0  0  0  0  0  0  0  0  0
  -26.9907  -10.7627   21.2894 C   0  0  0  0  0  0  0  0  0  0  0  0
  -26.8645  -30.7273   20.8172 C   0  0  0  0  0  0  0  0  0  0  0  0
  -23.7574  -30.5190   21.7256 C   0  0  0  0  0  0  0  0  0  0  0  0
  -21.0122  -28.5557   22.2313 C   0  0  0  0  0  0  0  0  0  0  0  0
  -24.8331  -17.8421   18.3701 C   0  0  0  0  0  0  0  0  0  0  0  0
  -27.8601  -35.3305   22.7862 C   0  0  0  0  0  0  0  0  0  0  0  0
  -25.8539  -29.4816   18.8722 C   0  0  0  0  0  0  0  0  0  0  0  0
  -25.0056  -28.3418   21.4657 C   0  0  0  0  0  0  0  0  0  0  0  0
  -27.1520  -34.0669   23.2680 C   0  0  0  0  0  0  0  0  0  0  0  0
  -22.5751  -16.7264   20.8868 C   0  0  0  0  0  0  0  0  0  0  0  0
  -28.0172  -32.8378   23.0079 C   0  0  0  0  0  0  0  0  0  0  0  0
  -22.9989  -15.2774   21.1376 C   0  0  0  0  0  0  0  0  0  0  0  0
  -22.7006  -17.1070   19.4126 C   0  0  0  0  0  0  0  0  0  0  0  0
  -24.4396  -15.3971   19.0646 C   0  0  0  0  0  0  0  0  0  0  0  0
  -27.7105  -21.4071   20.7878 C   0  0  0  0  0  0  0  0  0  0  0  0
  -28.2785  -32.6545   21.5080 C   0  0  1  0  0  0  0  0  0  0  0  0
  -25.6003  -30.3621   20.0919 C   0  0  1  0  0  0  0  0  0  0  0  0
  -24.3921  -14.9873   20.5457 C   0  0  2  0  0  0  0  0  0  0  0  0
  -28.2003  -22.5905   21.6409 C   0  0  1  0  0  0  0  0  0  0  0  0
  -30.1663  -24.8341   22.4916 C   0  0  0  0  0  0  0  0  0  0  0  0
  -28.3449  -22.1714   23.1108 C   0  0  0  0  0  0  0  0  0  0  0  0
  -18.6303  -28.6636   23.0139 C   0  0  0  0  0  0  0  0  0  0  0  0
  -29.4050  -16.8205   15.0717 C   0  0  0  0  0  0  0  0  0  0  0  0
  -26.9033  -17.0982   15.0958 C   0  0  0  0  0  0  0  0  0  0  0  0
  -28.0014  -15.4521   16.6011 C   0  0  0  0  0  0  0  0  0  0  0  0
  -24.7184  -30.7239   24.6143 C   0  0  0  0  0  0  0  0  0  0  0  0
  -22.4760  -29.8849   25.3464 C   0  0  0  0  0  0  0  0  0  0  0  0
  -22.6545  -32.0415   24.1055 C   0  0  0  0  0  0  0  0  0  0  0  0
  -19.9897  -27.6078   19.6208 C   0  0  0  0  0  0  0  0  0  0  0  0
  -27.2291  -23.7741   21.5284 C   0  0  0  0  0  0  0  0  0  1  0  0
  -23.0195  -29.8664   22.8695 C   0  0  1  0  0  0  0  0  0  0  0  0
  -19.5624  -28.7243   21.8138 C   0  0  2  0  0  0  0  0  0  0  0  0
  -28.1551  -16.8878   16.0012 C   0  0  0  0  0  0  0  0  0  0  0  0
  -23.2330  -30.6140   24.2159 C   0  0  0  0  0  0  0  0  0  0  0  0
  -23.8472  -12.5911   20.7515 N   0  0  0  0  0  0  0  0  0  0  0  0
  -24.7990  -13.5398   20.7488 N   0  0  0  0  0  0  0  0  0  0  0  0
  -28.7403  -21.1198   19.7989 N   0  0  0  0  0  0  0  0  0  0  0  0
  -24.7137  -29.7298   21.0710 N   0  0  0  0  0  0  0  0  0  0  0  0
  -24.0477  -16.8080   18.9219 N   0  0  0  0  0  0  0  0  0  0  0  0
  -27.1345  -13.8729   20.9614 N   0  0  0  0  0  0  0  0  0  0  0  0
  -26.6750   -9.4022   21.4056 N   0  0  0  0  0  0  0  0  0  0  0  0
  -26.1079  -17.4457   17.9674 N   0  0  0  0  0  0  0  0  0  0  0  0
  -27.1172  -32.0852   20.8585 N   0  0  0  0  0  0  0  0  0  0  0  0
  -21.6243  -29.7710   22.4537 N   0  0  0  0  0  0  0  0  0  0  0  0
  -19.1700  -27.6495   20.8590 N   0  3  0  0  0  0  0  0  0  0  0  0
  -30.8634  -22.0406   19.2445 O   0  0  0  0  0  0  0  0  0  0  0  0
  -28.1866  -11.1265   21.3940 O   0  0  0  0  0  0  0  0  0  0  0  0
  -27.5585  -29.8427   21.3046 O   0  0  0  0  0  0  0  0  0  0  0  0
  -23.4900  -31.6836   21.4194 O   0  0  0  0  0  0  0  0  0  0  0  0
  -21.5470  -27.4557   22.3520 O   0  0  0  0  0  0  0  0  0  0  0  0
  -24.4161  -19.0003   18.2876 O   0  0  0  0  0  0  0  0  0  0  0  0
  -21.8962   -6.5467   21.2117 O   0  0  0  0  0  0  0  0  0  0  0  0
  -27.0412  -24.0918   20.1499 O   0  0  0  0  0  0  0  0  0  1  0  0
  -21.2984   -4.2201   26.1749 F   0  0  0  0  0  0  0  0  0  0  0  0
  -19.3841   -6.0080   22.2323 F   0  0  0  0  0  0  0  0  0  0  0  0
  -26.4683  -19.5089   19.7672 F   0  0  0  0  0  0  0  0  0  0  0  0
  1  2  1  0  0  0  0
  1  5  2  0  0  0  0
  2  6  2  0  0  0  0
  3 10  2  0  0  0  0
  3 17  1  0  0  0  0
  4 11  1  0  0  0  0
  4 17  2  0  0  0  0
  5 19  1  0  0  0  0
  6 21  1  0  0  0  0
  7 12  2  0  0  0  0
  7 20  1  0  0  0  0
  8  9  2  0  0  0  0
  8 23  1  0  0  0  0
  9 24  1  0  0  0  0
 10 26  1  0  0  0  0
 11 26  2  0  0  0  0
 12 27  1  0  0  0  0
 13 14  2  0  0  0  0
 13 28  1  0  0  0  0
 14 29  1  0  0  0  0
 15 22  1  0  0  0  0
 15 27  2  0  0  0  0
 16 29  2  0  0  0  0
 16 30  1  0  0  0  0
 17 32  1  0  0  0  0
 18 32  1  0  0  0  0
 18 33  2  0  0  0  0
 18 37  1  0  0  0  0
 19 21  2  0  0  0  0
 19 42  1  0  0  0  0
 20 22  2  0  0  0  0
 20 43  1  0  0  0  0
 21 52  1  0  0  0  0
 22 44  1  0  0  0  0
 23 25  2  0  0  0  0
 23 69  1  0  0  0  0
 24 31  2  0  0  0  0
 24 73  1  0  0  0  0
 25 31  1  0  0  0  0
 25 78  1  0  0  0  0
 26 88  1  0  0  0  0
 27 89  1  0  0  0  0
 28 30  2  0  0  0  0
 28 88  1  0  0  0  0
 29 90  1  0  0  0  0
 30 91  1  0  0  0  0
 31 92  1  0  0  0  0
 32 71  2  0  0  0  0
 33 72  1  0  0  0  0
 33 76  1  0  0  0  0
 34 35  1  0  0  0  0
 34 36  2  0  0  0  0
 34 55  1  0  0  0  0
 35 73  1  0  0  0  0
 35 82  2  0  0  0  0
 36 56  1  0  0  0  0
 37 77  1  0  0  0  0
 37 83  2  0  0  0  0
 38 53  1  0  0  0  0
 38 79  1  0  0  0  0
 38 84  2  0  0  0  0
 39 67  1  0  0  0  0
 39 74  1  0  0  0  0
 39 85  2  0  0  0  0
 40 68  1  0  0  0  0
 40 80  1  0  0  0  0
 40 86  2  0  0  0  0
 41 75  1  0  0  0  0
 41 78  1  0  0  0  0
 41 87  2  0  0  0  0
 42 45  1  0  0  0  0
 43 53  1  0  0  0  0
 44 74  1  0  0  0  0
 45 47  1  0  0  0  0
 46 48  1  0  0  0  0
 46 49  1  0  0  0  0
 47 52  1  0  0  0  0
 48 54  1  0  0  0  0
 49 75  1  0  0  0  0
 50 54  1  0  0  0  0
 50 75  1  0  0  0  0
 51 55  1  0  0  0  0
 51 73  1  0  0  0  0
 52 79  1  0  0  0  0
 53 74  1  0  0  0  0
 54 72  1  0  0  0  0
 55 57  1  0  0  0  0
 55 66  1  0  0  0  0
 58 68  1  0  0  0  0
 59 69  1  0  0  0  0
 60 69  1  0  0  0  0
 61 69  1  0  0  0  0
 62 70  1  0  0  0  0
 63 70  1  0  0  0  0
 64 70  1  0  0  0  0
 65 81  1  0  0  0  0
 66 89  1  0  0  0  0
 67 70  1  0  0  0  0
 67 80  1  0  0  0  0
 68 81  1  0  0  0  0
 71 72  1  0  0  0  0
M  CHG  1  81   1
M  ISO  4  41 100  66 101  78 100  89 101
M  END
> <Batch ID>
0066

> <Smiles>
C=CC1C(=O)N(c2ccc(C(C)(C)C)c([100NH:0][100C:0](=O)N3CCCC(n4nc(-c5ccc(Oc6ccc(F)cc6F)cc5)c(C(N)=O)c4N)C3)c2F)CC1(C)[101CH2:1][101O:1]c1ccc2c(c1)CN(C(=O)C(NC(=O)C(C)NC)C(C)(C)C)C(C(=O)NC1CCCc3ccccc31)C2

> <Shape>
0.278

> <Color>
0.094

> <Negative vol penalty>
0.000

$$$$

  -OEChem-04042323213D

 86 94  0     1  0  0  0  0  0999 V2000
  -24.9666  -25.7995   14.1577 C   0  0  0  0  0  0  0  0  0  0  0  0
  -25.6045  -24.8966   15.0022 C   0  0  0  0  0  0  0  0  0  0  0  0
  -23.1997   -9.8504   19.9520 C   0  0  0  0  0  0  0  0  0  0  0  0
  -23.9132   -9.9275   22.2589 C   0  0  0  0  0  0  0  0  0  0  0  0
  -25.7185  -26.7127   13.4197 C   0  0  0  0  0  0  0  0  0  0  0  0
  -26.9949  -24.9056   15.1083 C   0  0  0  0  0  0  0  0  0  0  0  0
  -30.3125  -23.7184   20.1173 C   0  0  0  0  0  0  0  0  0  0  0  0
  -30.2528  -16.1651   24.0127 C   0  0  0  0  0  0  0  0  0  0  0  0
  -30.5958  -17.3744   24.6172 C   0  0  0  0  0  0  0  0  0  0  0  0
  -22.5084   -8.6658   20.2054 C   0  0  0  0  0  0  0  0  0  0  0  0
  -23.2218   -8.7428   22.5124 C   0  0  0  0  0  0  0  0  0  0  0  0
  -30.9757  -22.5721   20.5531 C   0  0  0  0  0  0  0  0  0  0  0  0
  -20.0253   -7.7959   23.0659 C   0  0  0  0  0  0  0  0  0  0  0  0
  -19.2484   -7.7355   24.2227 C   0  0  0  0  0  0  0  0  0  0  0  0
  -33.0321  -23.4111   19.6115 C   0  0  0  0  0  0  0  0  0  0  0  0
  -31.7203  -16.6738   22.1621 C   0  0  0  0  0  0  0  0  0  0  0  0
  -20.5684   -5.8721   25.0119 C   0  0  0  0  0  0  0  0  0  0  0  0
  -23.9022  -10.4813   20.9788 C   0  0  0  0  0  0  0  0  0  0  0  0
  -24.1224  -13.0182   20.8268 C   0  0  0  0  0  0  0  0  0  0  0  0
  -27.1181  -26.7394   13.5241 C   0  0  0  0  0  0  0  0  0  0  0  0
  -31.0029  -24.7163   19.4145 C   0  0  0  0  0  0  0  0  0  0  0  0
  -27.7662  -25.8191   14.3700 C   0  0  0  0  0  0  0  0  0  0  0  0
  -32.3759  -24.5702   19.1700 C   0  0  0  0  0  0  0  0  0  0  0  0
  -30.8151  -15.8147   22.7851 C   0  0  0  0  0  0  0  0  0  0  0  0
  -31.5010  -18.2335   23.9941 C   0  0  0  0  0  0  0  0  0  0  0  0
  -22.5194   -8.1120   21.4855 C   0  0  0  0  0  0  0  0  0  0  0  0
  -32.3350  -22.4170   20.2977 C   0  0  0  0  0  0  0  0  0  0  0  0
  -21.0738   -6.8944   22.8819 C   0  0  0  0  0  0  0  0  0  0  0  0
  -19.5200   -6.7736   25.1957 C   0  0  0  0  0  0  0  0  0  0  0  0
  -21.3453   -5.9325   23.8550 C   0  0  0  0  0  0  0  0  0  0  0  0
  -32.0633  -17.8832   22.7666 C   0  0  0  0  0  0  0  0  0  0  0  0
  -24.6170  -11.7047   20.7175 C   0  0  0  0  0  0  0  0  0  0  0  0
  -25.1835  -13.8152   20.4729 C   0  0  0  0  0  0  0  0  0  0  0  0
  -22.8202  -13.4768   21.2138 C   0  0  0  0  0  0  0  0  0  0  0  0
  -30.7791  -25.9732   16.5035 C   0  0  0  0  0  0  0  0  0  0  0  0
  -33.0374  -28.0095   17.6331 C   0  0  0  0  0  0  0  0  0  0  0  0
  -35.5554  -28.5966   19.8606 C   0  0  0  0  0  0  0  0  0  0  0  0
  -30.9327  -14.0876   20.9550 C   0  0  0  0  0  0  0  0  0  0  0  0
  -27.8913  -27.7133   12.6707 C   0  0  0  0  0  0  0  0  0  0  0  0
  -30.2788  -25.9591   18.9745 C   0  0  0  0  0  0  0  0  0  0  0  0
  -33.1672  -25.6217   18.4374 C   0  0  0  0  0  0  0  0  0  0  0  0
  -29.3361  -27.9068   13.1240 C   0  0  0  0  0  0  0  0  0  0  0  0
  -29.3592  -13.1233   17.9101 C   0  0  0  0  0  0  0  0  0  0  0  0
  -29.9936  -26.5586   13.4015 C   0  0  0  0  0  0  0  0  0  0  0  0
  -27.9272  -12.7873   18.3326 C   0  0  0  0  0  0  0  0  0  0  0  0
  -30.3766  -12.7017   18.9688 C   0  0  0  0  0  0  0  0  0  0  0  0
  -28.6773  -12.8693   20.7446 C   0  0  0  0  0  0  0  0  0  0  0  0
  -29.2710  -25.8144   14.5309 C   0  0  1  0  0  0  0  0  0  0  0  0
  -30.9697  -26.6754   17.8182 C   0  0  1  0  0  0  0  0  0  0  0  0
  -27.6115  -13.3340   19.7387 C   0  0  2  0  0  0  0  0  0  0  0  0
  -37.2402  -30.3373   20.5154 C   0  0  0  0  0  0  0  0  0  0  0  0
  -34.7309  -27.2815   15.2016 C   0  0  0  0  0  0  0  0  0  0  0  0
  -36.7111  -28.2701   16.3719 C   0  0  0  0  0  0  0  0  0  0  0  0
  -34.7553  -29.7094   15.8008 C   0  0  0  0  0  0  0  0  0  0  0  0
  -34.4201  -28.8380   22.5831 C   0  0  0  0  0  0  0  0  0  0  0  0
  -31.3968  -22.0184   25.3495 C   0  0  0  0  0  0  0  0  0  0  0  0
  -32.2104  -20.3231   21.4232 C   0  0  0  0  0  0  0  0  0  1  0  0
  -34.5466  -28.0188   17.6691 C   0  0  1  0  0  0  0  0  0  0  0  0
  -35.8460  -29.7824   20.7628 C   0  0  2  0  0  0  0  0  0  0  0  0
  -35.1709  -28.2991   16.2730 C   0  0  0  0  0  0  0  0  0  0  0  0
  -25.8930  -11.6653   20.3247 N   0  0  0  0  0  0  0  0  0  0  0  0
  -26.2091  -12.9639   20.1840 N   0  0  0  0  0  0  0  0  0  0  0  0
  -32.4130  -26.8159   18.0219 N   0  0  0  0  0  0  0  0  0  0  0  0
  -30.0154  -13.2599   20.2737 N   0  0  0  0  0  0  0  0  0  0  0  0
  -25.3299  -15.1543   20.3836 N   0  0  0  0  0  0  0  0  0  0  0  0
  -21.8476  -12.5239   21.5457 N   0  0  0  0  0  0  0  0  0  0  0  0
  -30.4665  -14.5864   22.1709 N   0  0  0  0  0  0  0  0  0  0  0  0
  -31.8349  -19.4670   24.6360 N   0  0  0  0  0  0  0  0  0  0  0  0
  -29.6446  -26.3623   15.8172 N   0  0  0  0  0  0  0  0  0  0  0  0
  -34.9244  -28.9827   18.6970 N   0  0  0  0  0  0  0  0  0  0  0  0
  -35.7474  -29.3805   22.1944 N   0  3  0  0  0  0  0  0  0  0  0  0
  -22.5230  -14.6950   21.2479 O   0  0  0  0  0  0  0  0  0  0  0  0
  -31.6012  -25.1412   16.1382 O   0  0  0  0  0  0  0  0  0  0  0  0
  -32.4346  -29.0262   17.2801 O   0  0  0  0  0  0  0  0  0  0  0  0
  -35.8611  -27.4436   20.1568 O   0  0  0  0  0  0  0  0  0  0  0  0
  -32.0392  -14.3577   20.4809 O   0  0  0  0  0  0  0  0  0  0  0  0
  -33.6866  -18.2627   20.7585 O   0  0  0  0  0  0  0  0  0  0  0  0
  -34.1521  -19.4127   22.9516 O   0  0  0  0  0  0  0  0  0  0  0  0
  -29.5808  -20.6094   24.1310 O   0  0  0  0  0  0  0  0  0  0  0  0
  -30.1252  -20.0581   26.5278 O   0  0  0  0  0  0  0  0  0  0  0  0
  -21.8447   -6.9561   21.7332 O   0  0  0  0  0  0  0  0  0  0  0  0
  -32.9847  -21.2988   20.7215 O   0  0  0  0  0  0  0  0  0  1  0  0
  -18.7748   -6.7167   26.3073 F   0  0  0  0  0  0  0  0  0  0  0  0
  -22.3520   -5.0645   23.6844 F   0  0  0  0  0  0  0  0  0  0  0  0
  -33.2155  -18.9445   21.9486 S   0  0  0  0  0  0  0  0  0  0  0  0
  -30.5490  -20.4615   25.2017 S   0  0  0  0  0  0  0  0  0  0  0  0
  1  2  1  0  0  0  0
  1  5  2  0  0  0  0
  2  6  2  0  0  0  0
  3 10  2  0  0  0  0
  3 18  1  0  0  0  0
  4 11  1  0  0  0  0
  4 18  2  0  0  0  0
  5 20  1  0  0  0  0
  6 22  1  0  0  0  0
  7 12  2  0  0  0  0
  7 21  1  0  0  0  0
  8  9  2  0  0  0  0
  8 24  1  0  0  0  0
  9 25  1  0  0  0  0
 10 26  1  0  0  0  0
 11 26  2  0  0  0  0
 12 27  1  0  0  0  0
 13 14  2  0  0  0  0
 13 28  1  0  0  0  0
 14 29  1  0  0  0  0
 15 23  1  0  0  0  0
 15 27  2  0  0  0  0
 16 24  2  0  0  0  0
 16 31  1  0  0  0  0
 17 29  2  0  0  0  0
 17 30  1  0  0  0  0
 18 32  1  0  0  0  0
 19 32  1  0  0  0  0
 19 33  2  0  0  0  0
 19 34  1  0  0  0  0
 20 22  2  0  0  0  0
 20 39  1  0  0  0  0
 21 23  2  0  0  0  0
 21 40  1  0  0  0  0
 22 48  1  0  0  0  0
 23 41  1  0  0  0  0
 24 67  1  0  0  0  0
 25 31  2  0  0  0  0
 25 68  1  0  0  0  0
 26 81  1  0  0  0  0
 27 82  1  0  0  0  0
 28 30  2  0  0  0  0
 28 81  1  0  0  0  0
 29 83  1  0  0  0  0
 30 84  1  0  0  0  0
 31 85  1  0  0  0  0
 32 61  2  0  0  0  0
 33 62  1  0  0  0  0
 33 65  1  0  0  0  0
 34 66  1  0  0  0  0
 34 72  2  0  0  0  0
 35 49  1  0  0  0  0
 35 69  1  0  0  0  0
 35 73  2  0  0  0  0
 36 58  1  0  0  0  0
 36 63  1  0  0  0  0
 36 74  2  0  0  0  0
 37 59  1  0  0  0  0
 37 70  1  0  0  0  0
 37 75  2  0  0  0  0
 38 64  1  0  0  0  0
 38 67  1  0  0  0  0
 38 76  2  0  0  0  0
 39 42  1  0  0  0  0
 40 49  1  0  0  0  0
 41 63  1  0  0  0  0
 42 44  1  0  0  0  0
 43 45  1  0  0  0  0
 43 46  1  0  0  0  0
 44 48  1  0  0  0  0
 45 50  1  0  0  0  0
 46 64  1  0  0  0  0
 47 50  1  0  0  0  0
 47 64  1  0  0  0  0
 48 69  1  0  0  0  0
 49 63  1  0  0  0  0
 50 62  1  0  0  0  0
 51 59  1  0  0  0  0
 52 60  1  0  0  0  0
 53 60  1  0  0  0  0
 54 60  1  0  0  0  0
 55 71  1  0  0  0  0
 56 86  1  0  0  0  0
 57 82  1  0  0  0  0
 57 85  1  0  0  0  0
 58 60  1  0  0  0  0
 58 70  1  0  0  0  0
 59 71  1  0  0  0  0
 61 62  1  0  0  0  0
 68 86  1  0  0  0  0
 77 85  2  0  0  0  0
 78 85  2  0  0  0  0
 79 86  2  0  0  0  0
 80 86  2  0  0  0  0
M  CHG  1  71   1
M  ISO  4  38 100  57 101  67 100  82 101
M  END
> <Batch ID>
0066

> <Smiles>
CNC(C)C(=O)NC(C(=O)N1Cc2cc([101O:1][101CH2:1]S(=O)(=O)c3cc([100NH:0][100C:0](=O)N4CCCC(n5nc(-c6ccc(Oc7ccc(F)cc7F)cc6)c(C(N)=O)c5N)C4)ccc3NS(C)(=O)=O)ccc2CC1C(=O)NC1CCCc2ccccc21)C(C)(C)C

> <Shape>
0.198

> <Color>
0.174

> <Negative vol penalty>
0.000

$$$$

  -OEChem-04042323213D

 86 94  0     1  0  0  0  0  0999 V2000
  -26.6272  -17.7985   16.8699 C   0  0  0  0  0  0  0  0  0  0  0  0
  -26.3512  -19.0849   16.4179 C   0  0  0  0  0  0  0  0  0  0  0  0
  -23.1483  -13.9602   21.5108 C   0  0  0  0  0  0  0  0  0  0  0  0
  -25.0524  -15.0126   22.5613 C   0  0  0  0  0  0  0  0  0  0  0  0
  -18.4143  -27.2689   21.8158 C   0  0  0  0  0  0  0  0  0  0  0  0
  -26.7766  -17.5577   18.2351 C   0  0  0  0  0  0  0  0  0  0  0  0
  -26.2233  -20.1311   17.3308 C   0  0  0  0  0  0  0  0  0  0  0  0
  -27.4424  -27.1609   17.9728 C   0  0  0  0  0  0  0  0  0  0  0  0
  -19.2983  -28.3439   21.7240 C   0  0  0  0  0  0  0  0  0  0  0  0
  -23.9865  -12.9874   20.9661 C   0  0  0  0  0  0  0  0  0  0  0  0
  -25.8907  -14.0398   22.0167 C   0  0  0  0  0  0  0  0  0  0  0  0
  -26.7891  -28.3390   18.3321 C   0  0  0  0  0  0  0  0  0  0  0  0
  -27.3339  -13.3830   19.0306 C   0  0  0  0  0  0  0  0  0  0  0  0
  -28.5271  -13.8087   18.4471 C   0  0  0  0  0  0  0  0  0  0  0  0
  -27.1461  -27.8196   20.6606 C   0  0  0  0  0  0  0  0  0  0  0  0
  -20.9008  -27.1414   23.0742 C   0  0  0  0  0  0  0  0  0  0  0  0
  -29.7756  -12.4685   20.0227 C   0  0  0  0  0  0  0  0  0  0  0  0
  -23.6813  -14.9729   22.3084 C   0  0  0  0  0  0  0  0  0  0  0  0
  -18.7735  -26.1301   22.5369 C   0  0  0  0  0  0  0  0  0  0  0  0
  -22.1557  -15.9333   24.1133 C   0  0  0  0  0  0  0  0  0  0  0  0
  -26.6601  -18.6033   19.1645 C   0  0  0  0  0  0  0  0  0  0  0  0
  -27.9438  -26.2965   18.9566 C   0  0  0  0  0  0  0  0  0  0  0  0
  -26.3700  -19.9038   18.7098 C   0  0  0  0  0  0  0  0  0  0  0  0
  -27.8077  -26.6325   20.3111 C   0  0  0  0  0  0  0  0  0  0  0  0
  -20.0168  -26.0664   23.1660 C   0  0  0  0  0  0  0  0  0  0  0  0
  -20.5415  -28.2802   22.3532 C   0  0  0  0  0  0  0  0  0  0  0  0
  -25.3577  -13.0271   21.2191 C   0  0  0  0  0  0  0  0  0  0  0  0
  -26.6383  -28.6671   19.6763 C   0  0  0  0  0  0  0  0  0  0  0  0
  -27.3614  -12.5002   20.1102 C   0  0  0  0  0  0  0  0  0  0  0  0
  -29.7480  -13.3514   18.9431 C   0  0  0  0  0  0  0  0  0  0  0  0
  -28.5823  -12.0429   20.6062 C   0  0  0  0  0  0  0  0  0  0  0  0
  -22.8160  -15.9784   22.8708 C   0  0  0  0  0  0  0  0  0  0  0  0
  -21.4654  -17.1190   24.1785 C   0  0  0  0  0  0  0  0  0  0  0  0
  -17.4008  -24.3494   21.5571 C   0  0  0  0  0  0  0  0  0  0  0  0
  -17.8287  -25.0238   22.6139 C   0  0  0  0  0  0  0  0  0  0  0  0
  -22.1654  -14.9111   25.1186 C   0  0  0  0  0  0  0  0  0  0  0  0
  -27.3637  -23.2893   19.8072 C   0  0  0  0  0  0  0  0  0  0  0  0
  -29.8731  -23.7802   21.8032 C   0  0  0  0  0  0  0  0  0  0  0  0
  -22.7068  -29.4772   22.8234 C   0  0  0  0  0  0  0  0  0  0  0  0
  -31.8074  -25.9951   23.5350 C   0  0  0  0  0  0  0  0  0  0  0  0
  -21.2883  -22.5578   23.6005 C   0  0  0  0  0  0  0  0  0  0  0  0
  -26.7830  -18.2855   20.6337 C   0  0  0  0  0  0  0  0  0  0  0  0
  -28.6696  -25.0428   18.5520 C   0  0  0  0  0  0  0  0  0  0  0  0
  -28.3458  -25.7485   21.4054 C   0  0  0  0  0  0  0  0  0  0  0  0
  -27.0033  -19.5180   21.5071 C   0  0  0  0  0  0  0  0  0  0  0  0
  -20.5793  -20.6147   20.6308 C   0  0  0  0  0  0  0  0  0  0  0  0
  -26.0311  -20.6277   21.1196 C   0  0  0  0  0  0  0  0  0  0  0  0
  -21.0481  -19.2229   21.0589 C   0  0  0  0  0  0  0  0  0  0  0  0
  -21.4934  -21.7017   21.1885 C   0  0  0  0  0  0  0  0  0  0  0  0
  -22.1251  -20.2794   23.0994 C   0  0  0  0  0  0  0  0  0  0  0  0
  -26.2485  -21.0694   19.6673 C   0  0  1  0  0  0  0  0  0  0  0  0
  -28.6874  -23.9823   19.6485 C   0  0  1  0  0  0  0  0  0  0  0  0
  -21.2290  -19.1377   22.5861 C   0  0  2  0  0  0  0  0  0  0  0  0
  -33.7600  -26.0951   25.1082 C   0  0  0  0  0  0  0  0  0  0  0  0
  -28.0772  -22.8495   24.0875 C   0  0  0  0  0  0  0  0  0  0  0  0
  -29.7153  -23.8543   25.6922 C   0  0  0  0  0  0  0  0  0  0  0  0
  -30.4245  -21.9929   24.1906 C   0  0  0  0  0  0  0  0  0  0  0  0
  -33.4086  -27.5974   21.6303 C   0  0  0  0  0  0  0  0  0  0  0  0
  -20.4354  -24.8622   23.9466 C   0  0  0  0  0  0  0  0  0  0  0  0
  -23.3319  -30.8225   22.4810 C   0  0  0  0  0  0  0  0  0  0  0  0
  -24.1337  -30.7848   21.1846 C   0  0  0  0  0  0  0  0  0  0  0  0
  -25.3030  -29.8151   21.2748 C   0  0  0  0  0  0  0  0  0  1  0  0
  -30.0325  -24.2919   23.2145 C   0  0  1  0  0  0  0  0  0  0  0  0
  -33.3140  -26.1377   23.6549 C   0  0  2  0  0  0  0  0  0  0  0  0
  -29.5504  -23.2630   24.2759 C   0  0  0  0  0  0  0  0  0  0  0  0
  -22.5675  -17.1035   22.1953 N   0  0  0  0  0  0  0  0  0  0  0  0
  -21.7432  -17.7764   23.0162 N   0  0  0  0  0  0  0  0  0  0  0  0
  -29.0422  -24.5305   20.9592 N   0  0  0  0  0  0  0  0  0  0  0  0
  -21.6083  -21.5758   22.6483 N   0  0  0  0  0  0  0  0  0  0  0  0
  -20.6540  -17.6528   25.1160 N   0  0  0  0  0  0  0  0  0  0  0  0
  -22.9278  -13.7573   24.8910 N   0  0  0  0  0  0  0  0  0  0  0  0
  -21.4372  -29.3721   22.2623 N   0  0  0  0  0  0  0  0  0  0  0  0
  -27.4087  -21.9289   19.5688 N   0  0  0  0  0  0  0  0  0  0  0  0
  -31.4317  -24.6811   23.3520 N   0  0  0  0  0  0  0  0  0  0  0  0
  -20.8119  -23.7594   23.0904 N   0  0  0  0  0  0  0  0  0  0  0  0
  -33.7606  -27.4309   23.0639 N   0  3  0  0  0  0  0  0  0  0  0  0
  -21.5042  -15.0105   26.1799 O   0  0  0  0  0  0  0  0  0  0  0  0
  -26.3750  -23.9403   20.1240 O   0  0  0  0  0  0  0  0  0  0  0  0
  -30.4699  -22.7565   21.4601 O   0  0  0  0  0  0  0  0  0  0  0  0
  -23.2918  -28.6420   23.5050 O   0  0  0  0  0  0  0  0  0  0  0  0
  -31.0404  -26.9531   23.6010 O   0  0  0  0  0  0  0  0  0  0  0  0
  -21.4127  -22.3755   24.8163 O   0  0  0  0  0  0  0  0  0  0  0  0
  -26.1758  -12.0779   20.6880 O   0  0  0  0  0  0  0  0  0  0  0  0
  -26.0004  -29.8160   20.0297 O   0  0  0  0  0  0  0  0  0  1  0  0
  -30.8938  -13.7590   18.3817 F   0  0  0  0  0  0  0  0  0  0  0  0
  -28.6151  -11.1937   21.6424 F   0  0  0  0  0  0  0  0  0  0  0  0
  1  2  1  0  0  0  0
  1  6  2  0  0  0  0
  2  7  2  0  0  0  0
  3 10  2  0  0  0  0
  3 18  1  0  0  0  0
  4 11  1  0  0  0  0
  4 18  2  0  0  0  0
  5  9  2  0  0  0  0
  5 19  1  0  0  0  0
  6 21  1  0  0  0  0
  7 23  1  0  0  0  0
  8 12  2  0  0  0  0
  8 22  1  0  0  0  0
  9 26  1  0  0  0  0
 10 27  1  0  0  0  0
 11 27  2  0  0  0  0
 12 28  1  0  0  0  0
 13 14  2  0  0  0  0
 13 29  1  0  0  0  0
 14 30  1  0  0  0  0
 15 24  1  0  0  0  0
 15 28  2  0  0  0  0
 16 25  1  0  0  0  0
 16 26  2  0  0  0  0
 17 30  2  0  0  0  0
 17 31  1  0  0  0  0
 18 32  1  0  0  0  0
 19 25  2  0  0  0  0
 19 35  1  0  0  0  0
 20 32  1  0  0  0  0
 20 33  2  0  0  0  0
 20 36  1  0  0  0  0
 21 23  2  0  0  0  0
 21 42  1  0  0  0  0
 22 24  2  0  0  0  0
 22 43  1  0  0  0  0
 23 51  1  0  0  0  0
 24 44  1  0  0  0  0
 25 59  1  0  0  0  0
 26 72  1  0  0  0  0
 27 83  1  0  0  0  0
 28 84  1  0  0  0  0
 29 31  2  0  0  0  0
 29 83  1  0  0  0  0
 30 85  1  0  0  0  0
 31 86  1  0  0  0  0
 32 66  2  0  0  0  0
 33 67  1  0  0  0  0
 33 70  1  0  0  0  0
 34 35  2  0  0  0  0
 36 71  1  0  0  0  0
 36 77  2  0  0  0  0
 37 52  1  0  0  0  0
 37 73  1  0  0  0  0
 37 78  2  0  0  0  0
 38 63  1  0  0  0  0
 38 68  1  0  0  0  0
 38 79  2  0  0  0  0
 39 60  1  0  0  0  0
 39 72  1  0  0  0  0
 39 80  2  0  0  0  0
 40 64  1  0  0  0  0
 40 74  1  0  0  0  0
 40 81  2  0  0  0  0
 41 69  1  0  0  0  0
 41 75  1  0  0  0  0
 41 82  2  0  0  0  0
 42 45  1  0  0  0  0
 43 52  1  0  0  0  0
 44 68  1  0  0  0  0
 45 47  1  0  0  0  0
 46 48  1  0  0  0  0
 46 49  1  0  0  0  0
 47 51  1  0  0  0  0
 48 53  1  0  0  0  0
 49 69  1  0  0  0  0
 50 53  1  0  0  0  0
 50 69  1  0  0  0  0
 51 73  1  0  0  0  0
 52 68  1  0  0  0  0
 53 67  1  0  0  0  0
 54 64  1  0  0  0  0
 55 65  1  0  0  0  0
 56 65  1  0  0  0  0
 57 65  1  0  0  0  0
 58 76  1  0  0  0  0
 59 75  1  0  0  0  0
 60 61  1  0  0  0  0
 61 62  1  0  0  0  0
 62 84  1  0  0  0  0
 63 65  1  0  0  0  0
 63 74  1  0  0  0  0
 64 76  1  0  0  0  0
 66 67  1  0  0  0  0
M  CHG  1  76   1
M  ISO  4  41 100  62 101  75 100  84 101
M  END
> <Batch ID>
0066

> <Smiles>
C=Cc1ccc(NC(=O)CC[101CH2:1][101O:1]c2ccc3c(c2)CN(C(=O)C(NC(=O)C(C)NC)C(C)(C)C)C(C(=O)NC2CCCc4ccccc42)C3)cc1C[100NH:0][100C:0](=O)N1CCCC(n2nc(-c3ccc(Oc4ccc(F)cc4F)cc3)c(C(N)=O)c2N)C1

> <Shape>
0.195

> <Color>
0.081

> <Negative vol penalty>
0.000

$$$$

  -OEChem-04042323213D

 85 94  0     1  0  0  0  0  0999 V2000
  -28.6671  -33.3195   19.1390 C   0  0  0  0  0  0  0  0  0  0  0  0
  -29.7012  -32.5559   19.6708 C   0  0  0  0  0  0  0  0  0  0  0  0
  -23.0834   -9.8579   19.9438 C   0  0  0  0  0  0  0  0  0  0  0  0
  -23.8361   -9.8776   22.2394 C   0  0  0  0  0  0  0  0  0  0  0  0
  -27.3470  -33.0494   19.4973 C   0  0  0  0  0  0  0  0  0  0  0  0
  -29.4159  -31.5222   20.5621 C   0  0  0  0  0  0  0  0  0  0  0  0
  -31.7577  -25.0460   22.5348 C   0  0  0  0  0  0  0  0  0  0  0  0
  -32.6481  -17.5007   23.4330 C   0  0  0  0  0  0  0  0  0  0  0  0
  -32.0472  -16.6192   22.5344 C   0  0  0  0  0  0  0  0  0  0  0  0
  -22.3416   -8.7041   20.1968 C   0  0  0  0  0  0  0  0  0  0  0  0
  -23.0943   -8.7238   22.4925 C   0  0  0  0  0  0  0  0  0  0  0  0
  -32.1299  -24.3368   23.6760 C   0  0  0  0  0  0  0  0  0  0  0  0
  -19.8663   -7.9207   23.0888 C   0  0  0  0  0  0  0  0  0  0  0  0
  -19.1058   -7.8844   24.2575 C   0  0  0  0  0  0  0  0  0  0  0  0
  -29.8058  -23.9100   24.1615 C   0  0  0  0  0  0  0  0  0  0  0  0
  -30.4751  -18.3679   24.0355 C   0  0  0  0  0  0  0  0  0  0  0  0
  -20.3497   -5.9535   25.0069 C   0  0  0  0  0  0  0  0  0  0  0  0
  -23.8307  -10.4447   20.9650 C   0  0  0  0  0  0  0  0  0  0  0  0
  -24.1666  -12.9701   20.8342 C   0  0  0  0  0  0  0  0  0  0  0  0
  -27.0447  -32.0056   20.3860 C   0  0  0  0  0  0  0  0  0  0  0  0
  -30.4040  -25.2020   22.2038 C   0  0  0  0  0  0  0  0  0  0  0  0
  -28.0907  -31.2386   20.9337 C   0  0  0  0  0  0  0  0  0  0  0  0
  -29.4191  -24.6195   23.0142 C   0  0  0  0  0  0  0  0  0  0  0  0
  -29.8741  -17.4864   23.1369 C   0  0  0  0  0  0  0  0  0  0  0  0
  -31.8621  -18.3750   24.1836 C   0  0  0  0  0  0  0  0  0  0  0  0
  -30.6602  -16.6121   22.3863 C   0  0  0  0  0  0  0  0  0  0  0  0
  -22.3471   -8.1370   21.4712 C   0  0  0  0  0  0  0  0  0  0  0  0
  -31.1538  -23.7712   24.4911 C   0  0  0  0  0  0  0  0  0  0  0  0
  -20.8685   -6.9734   22.8791 C   0  0  0  0  0  0  0  0  0  0  0  0
  -19.3475   -6.9008   25.2166 C   0  0  0  0  0  0  0  0  0  0  0  0
  -21.1102   -5.9898   23.8381 C   0  0  0  0  0  0  0  0  0  0  0  0
  -24.5976  -11.6362   20.7041 C   0  0  0  0  0  0  0  0  0  0  0  0
  -25.2580  -13.7206   20.4708 C   0  0  0  0  0  0  0  0  0  0  0  0
  -33.8542  -19.3964   25.3645 C   0  0  0  0  0  0  0  0  0  0  0  0
  -22.8935  -13.4846   21.2467 C   0  0  0  0  0  0  0  0  0  0  0  0
  -28.4455  -27.6848   21.8809 C   0  0  0  0  0  0  0  0  0  0  0  0
  -26.3704  -25.4162   20.8465 C   0  0  0  0  0  0  0  0  0  0  0  0
  -25.4337  -22.1346   20.8371 C   0  0  0  0  0  0  0  0  0  0  0  0
  -30.7209  -14.7807   20.6575 C   0  0  0  0  0  0  0  0  0  0  0  0
  -25.6063  -31.7817   20.7804 C   0  0  0  0  0  0  0  0  0  0  0  0
  -30.0200  -25.9472   20.9549 C   0  0  0  0  0  0  0  0  0  0  0  0
  -27.9529  -24.7409   22.6918 C   0  0  0  0  0  0  0  0  0  0  0  0
  -34.0156  -20.4034   26.4805 C   0  0  0  0  0  0  0  0  0  0  0  0
  -25.3593  -30.4277   21.4405 C   0  0  0  0  0  0  0  0  0  0  0  0
  -29.6200  -12.3530   18.2972 C   0  0  0  0  0  0  0  0  0  0  0  0
  -26.4178  -30.1511   22.5036 C   0  0  0  0  0  0  0  0  0  0  0  0
  -28.1797  -12.0598   18.7237 C   0  0  0  0  0  0  0  0  0  0  0  0
  -30.5308  -12.5898   19.5006 C   0  0  0  0  0  0  0  0  0  0  0  0
  -31.7006  -20.1500   25.9641 C   0  0  0  0  0  0  0  0  0  0  0  0
  -28.6177  -13.3159   20.8725 C   0  0  0  0  0  0  0  0  0  0  0  0
  -27.8195  -30.0929   21.8844 C   0  0  1  0  0  0  0  0  0  0  0  0
  -28.5915  -26.4814   20.9931 C   0  0  1  0  0  0  0  0  0  0  0  0
  -32.7018  -21.1756   26.4787 C   0  0  2  0  0  0  0  0  0  0  0  0
  -27.6490  -13.1347   19.6925 C   0  0  2  0  0  0  0  0  0  0  0  0
  -28.3862  -17.4988   23.0001 C   0  0  0  0  0  0  0  0  0  0  0  0
  -23.6744  -20.5908   19.9322 C   0  0  0  0  0  0  0  0  0  0  0  0
  -24.3927  -26.4560   22.9245 C   0  0  0  0  0  0  0  0  0  0  0  0
  -23.0871  -24.3389   22.6393 C   0  0  0  0  0  0  0  0  0  0  0  0
  -23.3782  -25.8921   20.7092 C   0  0  0  0  0  0  0  0  0  0  0  0
  -27.4321  -20.5484   19.3372 C   0  0  0  0  0  0  0  0  0  0  0  0
  -32.7723  -22.4060   25.5741 C   0  0  0  0  0  0  0  0  0  1  0  0
  -25.3482  -24.5221   21.5057 C   0  0  1  0  0  0  0  0  0  0  0  0
  -25.0490  -21.2001   19.7043 C   0  0  2  0  0  0  0  0  0  0  0  0
  -24.0790  -25.3014   21.9521 C   0  0  0  0  0  0  0  0  0  0  0  0
  -25.8640  -11.5416   20.2902 N   0  0  0  0  0  0  0  0  0  0  0  0
  -26.2381  -12.8255   20.1570 N   0  0  0  0  0  0  0  0  0  0  0  0
  -32.4769  -19.2749   25.1049 N   0  0  0  0  0  0  0  0  0  0  0  0
  -27.6276  -25.4844   21.4634 N   0  0  0  0  0  0  0  0  0  0  0  0
  -29.9665  -13.6233   20.3714 N   0  0  0  0  0  0  0  0  0  0  0  0
  -25.4653  -15.0522   20.3921 N   0  0  0  0  0  0  0  0  0  0  0  0
  -21.8828  -12.5745   21.5851 N   0  0  0  0  0  0  0  0  0  0  0  0
  -30.0687  -15.7080   21.4695 N   0  0  0  0  0  0  0  0  0  0  0  0
  -28.0263  -28.8238   21.2203 N   0  0  0  0  0  0  0  0  0  0  0  0
  -25.0842  -23.4400   20.5634 N   0  0  0  0  0  0  0  0  0  0  0  0
  -26.0400  -20.0934   19.5864 N   0  3  0  0  0  0  0  0  0  0  0  0
  -34.8034  -18.7995   24.8776 O   0  0  0  0  0  0  0  0  0  0  0  0
  -22.6540  -14.7149   21.2975 O   0  0  0  0  0  0  0  0  0  0  0  0
  -28.6933  -27.5868   23.0771 O   0  0  0  0  0  0  0  0  0  0  0  0
  -26.0669  -26.0261   19.8181 O   0  0  0  0  0  0  0  0  0  0  0  0
  -25.9855  -21.7448   21.8638 O   0  0  0  0  0  0  0  0  0  0  0  0
  -31.8511  -14.9501   20.1926 O   0  0  0  0  0  0  0  0  0  0  0  0
  -21.6232   -7.0113   21.7186 O   0  0  0  0  0  0  0  0  0  0  0  0
  -31.5143  -23.0790   25.6059 O   0  0  0  0  0  0  0  0  0  1  0  0
  -18.6182   -6.8670   26.3396 F   0  0  0  0  0  0  0  0  0  0  0  0
  -22.0724   -5.0778   23.6428 F   0  0  0  0  0  0  0  0  0  0  0  0
  1  2  1  0  0  0  0
  1  5  2  0  0  0  0
  2  6  2  0  0  0  0
  3 10  2  0  0  0  0
  3 18  1  0  0  0  0
  4 11  1  0  0  0  0
  4 18  2  0  0  0  0
  5 20  1  0  0  0  0
  6 22  1  0  0  0  0
  7 12  2  0  0  0  0
  7 21  1  0  0  0  0
  8  9  2  0  0  0  0
  8 25  1  0  0  0  0
  9 26  1  0  0  0  0
 10 27  1  0  0  0  0
 11 27  2  0  0  0  0
 12 28  1  0  0  0  0
 13 14  2  0  0  0  0
 13 29  1  0  0  0  0
 14 30  1  0  0  0  0
 15 23  1  0  0  0  0
 15 28  2  0  0  0  0
 16 24  1  0  0  0  0
 16 25  2  0  0  0  0
 17 30  2  0  0  0  0
 17 31  1  0  0  0  0
 18 32  1  0  0  0  0
 19 32  1  0  0  0  0
 19 33  2  0  0  0  0
 19 35  1  0  0  0  0
 20 22  2  0  0  0  0
 20 40  1  0  0  0  0
 21 23  2  0  0  0  0
 21 41  1  0  0  0  0
 22 51  1  0  0  0  0
 23 42  1  0  0  0  0
 24 26  2  0  0  0  0
 24 55  1  0  0  0  0
 25 67  1  0  0  0  0
 26 72  1  0  0  0  0
 27 82  1  0  0  0  0
 28 83  1  0  0  0  0
 29 31  2  0  0  0  0
 29 82  1  0  0  0  0
 30 84  1  0  0  0  0
 31 85  1  0  0  0  0
 32 65  2  0  0  0  0
 33 66  1  0  0  0  0
 33 70  1  0  0  0  0
 34 43  1  0  0  0  0
 34 67  1  0  0  0  0
 34 76  2  0  0  0  0
 35 71  1  0  0  0  0
 35 77  2  0  0  0  0
 36 52  1  0  0  0  0
 36 73  1  0  0  0  0
 36 78  2  0  0  0  0
 37 62  1  0  0  0  0
 37 68  1  0  0  0  0
 37 79  2  0  0  0  0
 38 63  1  0  0  0  0
 38 74  1  0  0  0  0
 38 80  2  0  0  0  0
 39 69  1  0  0  0  0
 39 72  1  0  0  0  0
 39 81  2  0  0  0  0
 40 44  1  0  0  0  0
 41 52  1  0  0  0  0
 42 68  1  0  0  0  0
 43 53  1  0  0  0  0
 44 46  1  0  0  0  0
 45 47  1  0  0  0  0
 45 48  1  0  0  0  0
 46 51  1  0  0  0  0
 47 54  1  0  0  0  0
 48 69  1  0  0  0  0
 49 53  1  0  0  0  0
 49 67  1  0  0  0  0
 50 54  1  0  0  0  0
 50 69  1  0  0  0  0
 51 73  1  0  0  0  0
 52 68  1  0  0  0  0
 53 61  1  0  0  0  0
 54 66  1  0  0  0  0
 56 63  1  0  0  0  0
 57 64  1  0  0  0  0
 58 64  1  0  0  0  0
 59 64  1  0  0  0  0
 60 75  1  0  0  0  0
 61 83  1  0  0  0  0
 62 64  1  0  0  0  0
 62 74  1  0  0  0  0
 63 75  1  0  0  0  0
 65 66  1  0  0  0  0
M  CHG  1  75   1
M  ISO  4  39 100  61 101  72 100  83 101
M  END
> <Batch ID>
0066

> <Smiles>
CNC(C)C(=O)NC(C(=O)N1Cc2cc([101O:1][101CH2:1]C3CC(=O)N(c4ccc([100NH:0][100C:0](=O)N5CCCC(n6nc(-c7ccc(Oc8ccc(F)cc8F)cc7)c(C(N)=O)c6N)C5)c(C)c4)C3)ccc2CC1C(=O)NC1CCCc2ccccc21)C(C)(C)C

> <Shape>
0.234

> <Color>
0.192

> <Negative vol penalty>
0.000

$$$$

  -OEChem-04042323213D

 83 91  0     1  0  0  0  0  0999 V2000
  -17.6903  -25.2383   23.3165 C   0  0  0  0  0  0  0  0  0  0  0  0
  -18.8325  -25.1939   22.5235 C   0  0  0  0  0  0  0  0  0  0  0  0
  -23.9347   -8.9125   19.8006 C   0  0  0  0  0  0  0  0  0  0  0  0
  -23.1388  -10.5320   21.4071 C   0  0  0  0  0  0  0  0  0  0  0  0
  -17.1711  -26.4675   23.7208 C   0  0  0  0  0  0  0  0  0  0  0  0
  -19.4555  -26.3788   22.1333 C   0  0  0  0  0  0  0  0  0  0  0  0
  -24.4903  -26.1853   22.6422 C   0  0  0  0  0  0  0  0  0  0  0  0
  -27.5231  -18.9595   19.2655 C   0  0  0  0  0  0  0  0  0  0  0  0
  -27.4524  -20.3451   19.4097 C   0  0  0  0  0  0  0  0  0  0  0  0
  -23.1705   -7.9232   20.4193 C   0  0  0  0  0  0  0  0  0  0  0  0
  -22.3745   -9.5427   22.0258 C   0  0  0  0  0  0  0  0  0  0  0  0
  -25.2033  -25.4961   21.6622 C   0  0  0  0  0  0  0  0  0  0  0  0
  -19.4336   -7.9677   21.4862 C   0  0  0  0  0  0  0  0  0  0  0  0
  -18.1192   -8.2853   21.8281 C   0  0  0  0  0  0  0  0  0  0  0  0
  -25.7613  -27.5908   20.6038 C   0  0  0  0  0  0  0  0  0  0  0  0
  -29.5951  -18.9359   20.5078 C   0  0  0  0  0  0  0  0  0  0  0  0
  -18.6163   -7.8428   24.1506 C   0  0  0  0  0  0  0  0  0  0  0  0
  -23.9189  -10.2170   20.2946 C   0  0  0  0  0  0  0  0  0  0  0  0
  -24.3120  -12.0874   18.6050 C   0  0  0  0  0  0  0  0  0  0  0  0
  -17.7936  -27.6678   23.3434 C   0  0  0  0  0  0  0  0  0  0  0  0
  -24.3982  -27.5840   22.6042 C   0  0  0  0  0  0  0  0  0  0  0  0
  -18.9434  -27.6252   22.5318 C   0  0  0  0  0  0  0  0  0  0  0  0
  -25.0487  -28.2955   21.5860 C   0  0  0  0  0  0  0  0  0  0  0  0
  -29.5244  -20.3215   20.6520 C   0  0  0  0  0  0  0  0  0  0  0  0
  -28.5945  -18.2549   19.8146 C   0  0  0  0  0  0  0  0  0  0  0  0
  -28.4530  -21.0261   20.1029 C   0  0  0  0  0  0  0  0  0  0  0  0
  -22.3904   -8.2383   21.5319 C   0  0  0  0  0  0  0  0  0  0  0  0
  -25.8365  -26.1987   20.6411 C   0  0  0  0  0  0  0  0  0  0  0  0
  -20.3394   -7.5875   22.4766 C   0  0  0  0  0  0  0  0  0  0  0  0
  -17.7105   -8.2229   23.1603 C   0  0  0  0  0  0  0  0  0  0  0  0
  -19.9307   -7.5251   23.8087 C   0  0  0  0  0  0  0  0  0  0  0  0
  -24.7086  -11.2393   19.6563 C   0  0  0  0  0  0  0  0  0  0  0  0
  -25.4134  -12.8711   18.3619 C   0  0  0  0  0  0  0  0  0  0  0  0
  -23.0598  -12.1604   17.9104 C   0  0  0  0  0  0  0  0  0  0  0  0
  -22.0150  -29.6682   22.3211 C   0  0  0  0  0  0  0  0  0  0  0  0
  -24.3663  -31.8376   22.8574 C   0  0  0  0  0  0  0  0  0  0  0  0
  -27.6915  -32.5957   22.7355 C   0  0  0  0  0  0  0  0  0  0  0  0
  -27.3590  -23.2678   19.7607 C   0  0  0  0  0  0  0  0  0  0  0  0
  -29.6587  -15.9969   20.1538 C   0  0  0  0  0  0  0  0  0  0  0  0
  -17.1684  -28.9738   23.7655 C   0  0  0  0  0  0  0  0  0  0  0  0
  -23.6476  -28.3143   23.6839 C   0  0  0  0  0  0  0  0  0  0  0  0
  -24.9973  -29.7989   21.5116 C   0  0  0  0  0  0  0  0  0  0  0  0
  -18.1034  -30.1717   23.6204 C   0  0  0  0  0  0  0  0  0  0  0  0
  -30.1726  -12.4755   20.0398 C   0  0  0  0  0  0  0  0  0  0  0  0
  -18.7977  -30.1455   22.2624 C   0  0  0  0  0  0  0  0  0  0  0  0
  -28.7643  -11.9097   19.8434 C   0  0  0  0  0  0  0  0  0  0  0  0
  -30.1696  -13.7001   20.9531 C   0  0  0  0  0  0  0  0  0  0  0  0
  -27.8305  -14.1999   20.3633 C   0  0  0  0  0  0  0  0  0  0  0  0
  -19.6619  -28.8881   22.1087 C   0  0  1  0  0  0  0  0  0  0  0  0
  -23.1898  -29.7055   23.2571 C   0  0  1  0  0  0  0  0  0  0  0  0
  -27.7743  -13.0041   19.3986 C   0  0  2  0  0  0  0  0  0  0  0  0
  -30.6090  -21.0251   21.4012 C   0  0  0  0  0  0  0  0  0  0  0  0
  -29.3055  -34.4593   23.2041 C   0  0  0  0  0  0  0  0  0  0  0  0
  -28.9110  -25.2346   19.4732 C   0  0  0  0  0  0  0  0  0  0  0  0
  -23.4762  -33.2477   20.3021 C   0  0  0  0  0  0  0  0  0  0  0  0
  -25.6521  -34.4860   20.3103 C   0  0  0  0  0  0  0  0  0  0  0  0
  -24.0448  -34.7798   22.1952 C   0  0  0  0  0  0  0  0  0  0  0  0
  -29.1385  -30.9900   24.7571 C   0  0  0  0  0  0  0  0  0  0  0  0
  -25.3267  -32.6106   21.9861 C   0  0  1  0  0  0  0  0  0  0  0  0
  -28.6203  -33.2209   23.7607 C   0  0  2  0  0  0  0  0  0  0  0  0
  -27.6299  -24.7269   20.1183 C   0  0  1  0  0  0  0  0  0  1  0  0
  -24.6245  -33.7526   21.1985 C   0  0  0  0  0  0  0  0  0  0  0  0
  -25.9640  -11.4629   20.0536 N   0  0  0  0  0  0  0  0  0  0  0  0
  -26.3659  -12.4605   19.2476 N   0  0  0  0  0  0  0  0  0  0  0  0
  -24.2457  -30.4671   22.5868 N   0  0  0  0  0  0  0  0  0  0  0  0
  -29.2118  -14.6958   20.4673 N   0  0  0  0  0  0  0  0  0  0  0  0
  -25.6505  -13.8645   17.4791 N   0  0  0  0  0  0  0  0  0  0  0  0
  -22.0347  -11.2819   18.2869 N   0  0  0  0  0  0  0  0  0  0  0  0
  -28.3623  -22.4318   20.2398 N   0  0  0  0  0  0  0  0  0  0  0  0
  -28.6647  -16.8471   19.6703 N   0  0  0  0  0  0  0  0  0  0  0  0
  -20.9020  -29.0347   22.8401 N   0  0  0  0  0  0  0  0  0  0  0  0
  -26.4006  -33.0629   22.8639 N   0  0  0  0  0  0  0  0  0  0  0  0
  -29.6709  -32.2465   24.1701 N   0  3  0  0  0  0  0  0  0  0  0  0
  -22.8616  -12.9692   16.9722 O   0  0  0  0  0  0  0  0  0  0  0  0
  -22.1107  -30.1779   21.2108 O   0  0  0  0  0  0  0  0  0  0  0  0
  -23.7513  -32.4265   23.7499 O   0  0  0  0  0  0  0  0  0  0  0  0
  -28.0738  -31.7777   21.9017 O   0  0  0  0  0  0  0  0  0  0  0  0
  -26.3516  -22.9412   19.1397 O   0  0  0  0  0  0  0  0  0  0  0  0
  -30.8418  -16.3240   20.2774 O   0  0  0  0  0  0  0  0  0  0  0  0
  -21.6443   -7.2732   22.1357 O   0  0  0  0  0  0  0  0  0  0  0  0
  -26.5326  -25.5285   19.6829 O   0  0  0  0  0  0  0  0  0  1  0  0
  -16.4486   -8.5294   23.4886 F   0  0  0  0  0  0  0  0  0  0  0  0
  -20.7967   -7.1617   24.7647 F   0  0  0  0  0  0  0  0  0  0  0  0
  1  2  1  0  0  0  0
  1  5  2  0  0  0  0
  2  6  2  0  0  0  0
  3 10  2  0  0  0  0
  3 18  1  0  0  0  0
  4 11  1  0  0  0  0
  4 18  2  0  0  0  0
  5 20  1  0  0  0  0
  6 22  1  0  0  0  0
  7 12  2  0  0  0  0
  7 21  1  0  0  0  0
  8  9  2  0  0  0  0
  8 25  1  0  0  0  0
  9 26  1  0  0  0  0
 10 27  1  0  0  0  0
 11 27  2  0  0  0  0
 12 28  1  0  0  0  0
 13 14  2  0  0  0  0
 13 29  1  0  0  0  0
 14 30  1  0  0  0  0
 15 23  1  0  0  0  0
 15 28  2  0  0  0  0
 16 24  1  0  0  0  0
 16 25  2  0  0  0  0
 17 30  2  0  0  0  0
 17 31  1  0  0  0  0
 18 32  1  0  0  0  0
 19 32  1  0  0  0  0
 19 33  2  0  0  0  0
 19 34  1  0  0  0  0
 20 22  2  0  0  0  0
 20 40  1  0  0  0  0
 21 23  2  0  0  0  0
 21 41  1  0  0  0  0
 22 49  1  0  0  0  0
 23 42  1  0  0  0  0
 24 26  2  0  0  0  0
 24 52  1  0  0  0  0
 25 70  1  0  0  0  0
 26 69  1  0  0  0  0
 27 80  1  0  0  0  0
 28 81  1  0  0  0  0
 29 31  2  0  0  0  0
 29 80  1  0  0  0  0
 30 82  1  0  0  0  0
 31 83  1  0  0  0  0
 32 63  2  0  0  0  0
 33 64  1  0  0  0  0
 33 67  1  0  0  0  0
 34 68  1  0  0  0  0
 34 74  2  0  0  0  0
 35 50  1  0  0  0  0
 35 71  1  0  0  0  0
 35 75  2  0  0  0  0
 36 59  1  0  0  0  0
 36 65  1  0  0  0  0
 36 76  2  0  0  0  0
 37 60  1  0  0  0  0
 37 72  1  0  0  0  0
 37 77  2  0  0  0  0
 38 61  1  0  0  0  0
 38 69  1  0  0  0  0
 38 78  2  0  0  0  0
 39 66  1  0  0  0  0
 39 70  1  0  0  0  0
 39 79  2  0  0  0  0
 40 43  1  0  0  0  0
 41 50  1  0  0  0  0
 42 65  1  0  0  0  0
 43 45  1  0  0  0  0
 44 46  1  0  0  0  0
 44 47  1  0  0  0  0
 45 49  1  0  0  0  0
 46 51  1  0  0  0  0
 47 66  1  0  0  0  0
 48 51  1  0  0  0  0
 48 66  1  0  0  0  0
 49 71  1  0  0  0  0
 50 65  1  0  0  0  0
 51 64  1  0  0  0  0
 53 60  1  0  0  0  0
 54 61  1  0  0  0  0
 55 62  1  0  0  0  0
 56 62  1  0  0  0  0
 57 62  1  0  0  0  0
 58 73  1  0  0  0  0
 59 62  1  0  0  0  0
 59 72  1  0  0  0  0
 60 73  1  0  0  0  0
 61 81  1  0  0  0  0
 63 64  1  0  0  0  0
M  CHG  1  73   1
M  ISO  4  39 100  61 101  70 100  81 101
M  END
> <Batch ID>
0066

> <Smiles>
CNC(C)C(=O)NC(C(=O)N1Cc2cc([101O:1][101CH:1](C)C(=O)Nc3ccc([100NH:0][100C:0](=O)N4CCCC(n5nc(-c6ccc(Oc7ccc(F)cc7F)cc6)c(C(N)=O)c5N)C4)cc3C)ccc2CC1C(=O)NC1CCCc2ccccc21)C(C)(C)C

> <Shape>
0.290

> <Color>
0.098

> <Negative vol penalty>
0.000

$$$$

  -OEChem-04042323213D

 86 94  0     1  0  0  0  0  0999 V2000
  -29.9129  -35.4530   17.9342 C   0  0  0  0  0  0  0  0  0  0  0  0
  -30.1870  -34.1049   18.1413 C   0  0  0  0  0  0  0  0  0  0  0  0
  -24.3291   -9.3598   22.4199 C   0  0  0  0  0  0  0  0  0  0  0  0
  -23.4237  -11.5227   23.0021 C   0  0  0  0  0  0  0  0  0  0  0  0
  -27.6054  -19.6232   22.1748 C   0  0  0  0  0  0  0  0  0  0  0  0
  -28.9735  -36.1030   18.7337 C   0  0  0  0  0  0  0  0  0  0  0  0
  -29.5227  -33.4062   19.1487 C   0  0  0  0  0  0  0  0  0  0  0  0
  -27.7916  -27.5330   19.0294 C   0  0  0  0  0  0  0  0  0  0  0  0
  -27.5135  -18.3952   21.5198 C   0  0  0  0  0  0  0  0  0  0  0  0
  -23.7756   -8.8161   23.5790 C   0  0  0  0  0  0  0  0  0  0  0  0
  -22.8702  -10.9790   24.1612 C   0  0  0  0  0  0  0  0  0  0  0  0
  -28.3640  -26.3755   19.5550 C   0  0  0  0  0  0  0  0  0  0  0  0
  -20.7405   -7.7624   24.6329 C   0  0  0  0  0  0  0  0  0  0  0  0
  -20.0769   -6.5405   24.5230 C   0  0  0  0  0  0  0  0  0  0  0  0
  -26.9474  -26.5647   21.4984 C   0  0  0  0  0  0  0  0  0  0  0  0
  -29.9241  -18.2436   21.4656 C   0  0  0  0  0  0  0  0  0  0  0  0
  -21.6291   -5.5564   26.0913 C   0  0  0  0  0  0  0  0  0  0  0  0
  -24.1532  -10.7131   22.1314 C   0  0  0  0  0  0  0  0  0  0  0  0
  -28.8567  -20.1615   22.4752 C   0  0  0  0  0  0  0  0  0  0  0  0
  -24.1227  -11.3651   19.6653 C   0  0  0  0  0  0  0  0  0  0  0  0
  -28.2903  -35.4095   19.7450 C   0  0  0  0  0  0  0  0  0  0  0  0
  -26.7988  -28.2222   19.7405 C   0  0  0  0  0  0  0  0  0  0  0  0
  -28.5743  -34.0478   19.9633 C   0  0  0  0  0  0  0  0  0  0  0  0
  -26.3621  -27.7292   20.9784 C   0  0  0  0  0  0  0  0  0  0  0  0
  -28.6728  -17.7054   21.1652 C   0  0  0  0  0  0  0  0  0  0  0  0
  -23.0461   -9.6257   24.4497 C   0  0  0  0  0  0  0  0  0  0  0  0
  -27.9440  -25.8928   20.7910 C   0  0  0  0  0  0  0  0  0  0  0  0
  -21.8484   -7.8814   25.4720 C   0  0  0  0  0  0  0  0  0  0  0  0
  -20.5212   -5.4375   25.2521 C   0  0  0  0  0  0  0  0  0  0  0  0
  -30.0161  -19.4717   22.1206 C   0  0  0  0  0  0  0  0  0  0  0  0
  -22.2927   -6.7784   26.2012 C   0  0  0  0  0  0  0  0  0  0  0  0
  -24.7252  -11.2755   20.9345 C   0  0  0  0  0  0  0  0  0  0  0  0
  -25.0692  -11.9742   18.8782 C   0  0  0  0  0  0  0  0  0  0  0  0
  -28.9507  -21.4621   23.1681 C   0  0  0  0  0  0  0  0  0  0  0  0
  -22.8236  -10.9363   19.2364 C   0  0  0  0  0  0  0  0  0  0  0  0
  -26.5469  -31.1342   20.9897 C   0  0  0  0  0  0  0  0  0  0  0  0
  -31.0809  -24.3449   22.6643 C   0  0  0  0  0  0  0  0  0  0  0  0
  -23.4995  -30.1930   21.5814 C   0  0  0  0  0  0  0  0  0  0  0  0
  -21.3025  -27.6273   22.0680 C   0  0  0  0  0  0  0  0  0  0  0  0
  -29.6297  -15.6440   20.0783 C   0  0  0  0  0  0  0  0  0  0  0  0
  -27.3179  -36.1664   20.6147 C   0  0  0  0  0  0  0  0  0  0  0  0
  -26.1723  -29.4544   19.1475 C   0  0  0  0  0  0  0  0  0  0  0  0
  -25.2852  -28.4209   21.7723 C   0  0  0  0  0  0  0  0  0  0  0  0
  -26.3848  -35.2615   21.4152 C   0  0  0  0  0  0  0  0  0  0  0  0
  -29.8107  -12.4868   18.4422 C   0  0  0  0  0  0  0  0  0  0  0  0
  -27.1720  -34.1354   22.0779 C   0  0  0  0  0  0  0  0  0  0  0  0
  -28.4698  -11.8286   18.7751 C   0  0  0  0  0  0  0  0  0  0  0  0
  -30.3446  -13.3100   19.6131 C   0  0  0  0  0  0  0  0  0  0  0  0
  -28.0654  -13.6435   20.4866 C   0  0  0  0  0  0  0  0  0  0  0  0
  -27.8562  -33.2496   21.0298 C   0  0  1  0  0  0  0  0  0  0  0  0
  -25.5330  -30.3623   20.1936 C   0  0  1  0  0  0  0  0  0  0  0  0
  -27.4561  -12.8564   19.3149 C   0  0  2  0  0  0  0  0  0  0  0  0
  -31.8380  -25.2255   23.6259 C   0  0  0  0  0  0  0  0  0  0  0  0
  -18.8860  -27.1712   22.5679 C   0  0  0  0  0  0  0  0  0  0  0  0
  -23.9587  -30.9683   24.4965 C   0  0  0  0  0  0  0  0  0  0  0  0
  -21.9242  -29.6390   25.0979 C   0  0  0  0  0  0  0  0  0  0  0  0
  -21.7204  -31.6125   23.5858 C   0  0  0  0  0  0  0  0  0  0  0  0
  -20.9345  -26.1556   19.5268 C   0  0  0  0  0  0  0  0  0  0  0  0
  -28.5677  -24.6629   22.7286 C   0  0  0  0  0  0  0  0  0  1  0  0
  -29.7484  -23.7987   23.1391 C   0  0  1  0  0  0  0  0  0  0  0  0
  -22.7985  -29.4952   22.7218 C   0  0  1  0  0  0  0  0  0  0  0  0
  -19.9316  -27.3495   21.4781 C   0  0  2  0  0  0  0  0  0  0  0  0
  -22.6221  -30.4166   23.9617 C   0  0  0  0  0  0  0  0  0  0  0  0
  -25.9591  -11.7865   20.9568 N   0  0  0  0  0  0  0  0  0  0  0  0
  -26.1396  -12.2031   19.6919 N   0  0  0  0  0  0  0  0  0  0  0  0
  -24.7079  -29.6254   21.1530 N   0  0  0  0  0  0  0  0  0  0  0  0
  -29.3319  -14.2648   20.0686 N   0  0  0  0  0  0  0  0  0  0  0  0
  -25.0821  -12.3308   17.5762 N   0  0  0  0  0  0  0  0  0  0  0  0
  -28.3941  -21.5729   24.3743 N   0  0  0  0  0  0  0  0  0  0  0  0
  -21.9772  -10.3288   20.1738 N   0  0  0  0  0  0  0  0  0  0  0  0
  -28.5788  -16.4578   20.5001 N   0  0  0  0  0  0  0  0  0  0  0  0
  -26.8985  -32.3468   20.4280 N   0  0  0  0  0  0  0  0  0  0  0  0
  -21.5469  -28.9799   22.1774 N   0  0  0  0  0  0  0  0  0  0  0  0
  -29.5870  -22.4667   22.5529 N   0  3  0  0  0  0  0  0  0  0  0  0
  -19.9650  -26.1099   20.6514 N   0  3  0  0  0  0  0  0  0  0  0  0
  -22.4313  -11.0725   18.0527 O   0  0  0  0  0  0  0  0  0  0  0  0
  -26.9772  -30.6651   22.0369 O   0  0  0  0  0  0  0  0  0  0  0  0
  -31.5386  -24.0961   21.5487 O   0  0  0  0  0  0  0  0  0  0  0  0
  -22.9901  -31.2004   21.0841 O   0  0  0  0  0  0  0  0  0  0  0  0
  -22.0774  -26.7338   22.4021 O   0  0  0  0  0  0  0  0  0  0  0  0
  -30.7264  -16.0736   19.7116 O   0  0  0  0  0  0  0  0  0  0  0  0
  -22.5057   -9.0954   25.5807 O   0  0  0  0  0  0  0  0  0  0  0  0
  -28.5016  -24.7636   21.3067 O   0  0  0  0  0  0  0  0  0  1  0  0
  -19.8830   -4.2645   25.1476 F   0  0  0  0  0  0  0  0  0  0  0  0
  -31.2230  -19.9818   22.4032 F   0  0  0  0  0  0  0  0  0  0  0  0
  -23.3558   -6.8869   27.0099 F   0  0  0  0  0  0  0  0  0  0  0  0
  1  2  1  0  0  0  0
  1  6  2  0  0  0  0
  2  7  2  0  0  0  0
  3 10  2  0  0  0  0
  3 18  1  0  0  0  0
  4 11  1  0  0  0  0
  4 18  2  0  0  0  0
  5  9  2  0  0  0  0
  5 19  1  0  0  0  0
  6 21  1  0  0  0  0
  7 23  1  0  0  0  0
  8 12  2  0  0  0  0
  8 22  1  0  0  0  0
  9 25  1  0  0  0  0
 10 26  1  0  0  0  0
 11 26  2  0  0  0  0
 12 27  1  0  0  0  0
 13 14  2  0  0  0  0
 13 28  1  0  0  0  0
 14 29  1  0  0  0  0
 15 24  1  0  0  0  0
 15 27  2  0  0  0  0
 16 25  2  0  0  0  0
 16 30  1  0  0  0  0
 17 29  2  0  0  0  0
 17 31  1  0  0  0  0
 18 32  1  0  0  0  0
 19 30  2  0  0  0  0
 19 34  1  0  0  0  0
 20 32  1  0  0  0  0
 20 33  2  0  0  0  0
 20 35  1  0  0  0  0
 21 23  2  0  0  0  0
 21 41  1  0  0  0  0
 22 24  2  0  0  0  0
 22 42  1  0  0  0  0
 23 50  1  0  0  0  0
 24 43  1  0  0  0  0
 25 71  1  0  0  0  0
 26 82  1  0  0  0  0
 27 83  1  0  0  0  0
 28 31  2  0  0  0  0
 28 82  1  0  0  0  0
 29 84  1  0  0  0  0
 30 85  1  0  0  0  0
 31 86  1  0  0  0  0
 32 64  2  0  0  0  0
 33 65  1  0  0  0  0
 33 68  1  0  0  0  0
 34 69  1  0  0  0  0
 34 74  2  0  0  0  0
 35 70  1  0  0  0  0
 35 76  2  0  0  0  0
 36 51  1  0  0  0  0
 36 72  1  0  0  0  0
 36 77  2  0  0  0  0
 37 53  1  0  0  0  0
 37 60  1  0  0  0  0
 37 78  2  0  0  0  0
 38 61  1  0  0  0  0
 38 66  1  0  0  0  0
 38 79  2  0  0  0  0
 39 62  1  0  0  0  0
 39 73  1  0  0  0  0
 39 80  2  0  0  0  0
 40 67  1  0  0  0  0
 40 71  1  0  0  0  0
 40 81  2  0  0  0  0
 41 44  1  0  0  0  0
 42 51  1  0  0  0  0
 43 66  1  0  0  0  0
 44 46  1  0  0  0  0
 45 47  1  0  0  0  0
 45 48  1  0  0  0  0
 46 50  1  0  0  0  0
 47 52  1  0  0  0  0
 48 67  1  0  0  0  0
 49 52  1  0  0  0  0
 49 67  1  0  0  0  0
 50 72  1  0  0  0  0
 51 66  1  0  0  0  0
 52 65  1  0  0  0  0
 54 62  1  0  0  0  0
 55 63  1  0  0  0  0
 56 63  1  0  0  0  0
 57 63  1  0  0  0  0
 58 75  1  0  0  0  0
 59 60  1  0  0  0  0
 59 83  1  0  0  0  0
 60 74  1  0  0  0  0
 61 63  1  0  0  0  0
 61 73  1  0  0  0  0
 62 75  1  0  0  0  0
 64 65  1  0  0  0  0
M  CHG  2  74   1  75   1
M  ISO  4  40 100  59 101  71 100  83 101
M  END
> <Batch ID>
0066

> <Smiles>
CNC(C)C(=O)NC(C(=O)N1Cc2cc([101O:1][101CH2:1]C(NC(=N)c3ccc([100NH:0][100C:0](=O)N4CCCC(n5nc(-c6ccc(Oc7ccc(F)cc7F)cc6)c(C(N)=O)c5N)C4)cc3F)C(C)=O)ccc2CC1C(=O)NC1CCCc2ccccc21)C(C)(C)C

> <Shape>
0.255

> <Color>
0.065

> <Negative vol penalty>
0.000

$$$$

  -OEChem-04042323213D

 90 99  0     1  0  0  0  0  0999 V2000
  -28.3648  -37.5629   20.0404 C   0  0  0  0  0  0  0  0  0  0  0  0
  -28.7875  -36.2466   19.8856 C   0  0  0  0  0  0  0  0  0  0  0  0
  -24.3878   -8.9315   21.3443 C   0  0  0  0  0  0  0  0  0  0  0  0
  -23.6231  -10.6766   22.8298 C   0  0  0  0  0  0  0  0  0  0  0  0
  -27.3839  -37.8727   20.9817 C   0  0  0  0  0  0  0  0  0  0  0  0
  -28.2304  -35.2394   20.6727 C   0  0  0  0  0  0  0  0  0  0  0  0
  -27.1361  -29.4479   19.0092 C   0  0  0  0  0  0  0  0  0  0  0  0
  -24.0945   -7.9753   22.3165 C   0  0  0  0  0  0  0  0  0  0  0  0
  -23.3297   -9.7204   23.8021 C   0  0  0  0  0  0  0  0  0  0  0  0
  -27.8438  -28.2640   19.2122 C   0  0  0  0  0  0  0  0  0  0  0  0
  -21.3548   -6.3866   23.5012 C   0  0  0  0  0  0  0  0  0  0  0  0
  -20.6852   -5.2326   23.0943 C   0  0  0  0  0  0  0  0  0  0  0  0
  -25.4625  -21.4541   18.2938 C   0  0  0  0  0  0  0  0  0  0  0  0
  -24.9321  -19.1030   18.1272 C   0  0  0  0  0  0  0  0  0  0  0  0
  -26.4701  -27.7797   21.1352 C   0  0  0  0  0  0  0  0  0  0  0  0
  -27.1806  -19.7983   18.6729 C   0  0  0  0  0  0  0  0  0  0  0  0
  -22.5372   -3.8862   23.8653 C   0  0  0  0  0  0  0  0  0  0  0  0
  -24.1521  -10.2821   21.6010 C   0  0  0  0  0  0  0  0  0  0  0  0
  -24.5362  -20.4386   18.0563 C   0  0  0  0  0  0  0  0  0  0  0  0
  -23.5967  -11.7512   19.5907 C   0  0  0  0  0  0  0  0  0  0  0  0
  -26.8076  -36.8674   21.7740 C   0  0  0  0  0  0  0  0  0  0  0  0
  -26.0954  -29.8126   19.8755 C   0  0  0  0  0  0  0  0  0  0  0  0
  -27.2419  -35.5362   21.6263 C   0  0  0  0  0  0  0  0  0  0  0  0
  -25.7491  -28.9675   20.9394 C   0  0  0  0  0  0  0  0  0  0  0  0
  -26.7847  -21.1339   18.6020 C   0  0  0  0  0  0  0  0  0  0  0  0
  -26.2542  -18.7828   18.4355 C   0  0  0  0  0  0  0  0  0  0  0  0
  -23.5654   -8.3697   23.5454 C   0  0  0  0  0  0  0  0  0  0  0  0
  -27.5128  -27.4311   20.2770 C   0  0  0  0  0  0  0  0  0  0  0  0
  -22.6157   -6.2904   24.0901 C   0  0  0  0  0  0  0  0  0  0  0  0
  -21.2764   -3.9824   23.2764 C   0  0  0  0  0  0  0  0  0  0  0  0
  -23.2068   -5.0402   24.2721 C   0  0  0  0  0  0  0  0  0  0  0  0
  -24.4555  -11.2704   20.5972 C   0  0  0  0  0  0  0  0  0  0  0  0
  -24.3530  -12.6688   18.9034 C   0  0  0  0  0  0  0  0  0  0  0  0
  -27.4647  -23.4478   19.3848 C   0  0  0  0  0  0  0  0  0  0  0  0
  -20.8029  -22.7985   21.2543 C   0  0  0  0  0  0  0  0  0  0  0  0
  -21.3941  -22.9805   20.0712 C   0  0  0  0  0  0  0  0  0  0  0  0
  -22.0068  -21.8248   19.3909 C   0  0  0  0  0  0  0  0  0  0  0  0
  -23.1577  -20.7724   17.7351 C   0  0  0  0  0  0  0  0  0  0  0  0
  -22.2368  -11.3998   19.3028 C   0  0  0  0  0  0  0  0  0  0  0  0
  -25.5680  -32.2495   21.8471 C   0  0  0  0  0  0  0  0  0  0  0  0
  -22.6569  -30.8546   22.1665 C   0  0  0  0  0  0  0  0  0  0  0  0
  -20.7620  -28.0240   21.9578 C   0  0  0  0  0  0  0  0  0  0  0  0
  -27.9283  -16.9361   18.8015 C   0  0  0  0  0  0  0  0  0  0  0  0
  -25.7845  -37.2576   22.8111 C   0  0  0  0  0  0  0  0  0  0  0  0
  -25.3242  -31.0798   19.6271 C   0  0  0  0  0  0  0  0  0  0  0  0
  -24.6269  -29.3035   21.8861 C   0  0  0  0  0  0  0  0  0  0  0  0
  -24.9765  -36.0772   23.3440 C   0  0  0  0  0  0  0  0  0  0  0  0
  -29.3105  -13.6697   19.1127 C   0  0  0  0  0  0  0  0  0  0  0  0
  -25.8981  -34.9113   23.6878 C   0  0  0  0  0  0  0  0  0  0  0  0
  -28.0999  -12.7938   19.4439 C   0  0  0  0  0  0  0  0  0  0  0  0
  -29.7084  -23.4048   18.5924 C   0  0  0  0  0  0  0  0  0  0  0  0
  -29.2136  -15.0441   19.7726 C   0  0  0  0  0  0  0  0  0  0  0  0
  -29.1513  -21.9953   18.5979 C   0  0  0  0  0  0  0  0  0  0  0  0
  -26.7554  -14.8966   19.8408 C   0  0  0  0  0  0  0  0  0  0  0  0
  -26.6437  -34.4122   22.4442 C   0  0  1  0  0  0  0  0  0  0  0  0
  -28.8057  -24.1382   19.5738 C   0  0  1  0  0  0  0  0  0  0  0  0
  -24.6208  -31.6055   20.8746 C   0  0  1  0  0  0  0  0  0  0  0  0
  -26.7765  -13.5255   19.1457 C   0  0  2  0  0  0  0  0  0  0  0  0
  -18.4233  -27.1881   22.3171 C   0  0  0  0  0  0  0  0  0  0  0  0
  -23.1119  -30.8857   25.1834 C   0  0  0  0  0  0  0  0  0  0  0  0
  -21.2492  -29.2284   25.4112 C   0  0  0  0  0  0  0  0  0  0  0  0
  -20.7928  -31.4938   24.4718 C   0  0  0  0  0  0  0  0  0  0  0  0
  -20.4828  -27.2375   19.1184 C   0  0  0  0  0  0  0  0  0  0  0  0
  -28.7443  -25.6334   19.3243 C   0  0  0  0  0  0  0  0  0  1  0  0
  -22.0669  -29.8094   23.0821 C   0  0  1  0  0  0  0  0  0  0  0  0
  -19.4128  -27.7602   21.3140 C   0  0  2  0  0  0  0  0  0  0  0  0
  -21.8277  -30.3486   24.5206 C   0  0  0  0  0  0  0  0  0  0  0  0
  -25.6649  -11.8357   20.5565 N   0  0  0  0  0  0  0  0  0  0  0  0
  -22.5952  -21.9388   18.2432 N   0  0  0  0  0  0  0  0  0  0  0  0
  -25.5715  -12.6812   19.5160 N   0  0  0  0  0  0  0  0  0  0  0  0
  -27.7325  -22.1729   18.8450 N   0  0  0  0  0  0  0  0  0  0  0  0
  -23.9067  -30.5564   21.6052 N   0  0  0  0  0  0  0  0  0  0  0  0
  -27.9359  -15.6791   19.4423 N   0  0  0  0  0  0  0  0  0  0  0  0
  -24.0880  -13.4582   17.8409 N   0  0  0  0  0  0  0  0  0  0  0  0
  -21.6102  -10.4388   20.1080 N   0  0  0  0  0  0  0  0  0  0  0  0
  -26.6561  -17.4259   18.5079 N   0  0  0  0  0  0  0  0  0  0  0  0
  -25.7717  -33.5980   21.6249 N   0  0  0  0  0  0  0  0  0  0  0  0
  -20.8630  -29.3192   22.4198 N   0  0  0  0  0  0  0  0  0  0  0  0
  -22.4027  -20.0543   16.9495 N   0  3  0  0  0  0  0  0  0  0  0  0
  -19.5556  -26.7919   20.1902 N   0  3  0  0  0  0  0  0  0  0  0  0
  -26.4012  -23.9469   19.7231 O   0  0  0  0  0  0  0  0  0  0  0  0
  -21.6015  -11.9105   18.3493 O   0  0  0  0  0  0  0  0  0  0  0  0
  -26.0754  -31.5733   22.7343 O   0  0  0  0  0  0  0  0  0  0  0  0
  -22.0287  -31.8942   21.9513 O   0  0  0  0  0  0  0  0  0  0  0  0
  -21.6373  -27.1657   22.0458 O   0  0  0  0  0  0  0  0  0  0  0  0
  -28.9739  -17.5216   18.5085 O   0  0  0  0  0  0  0  0  0  0  0  0
  -23.2788   -7.4369   24.4943 O   0  0  0  0  0  0  0  0  0  0  0  0
  -28.2024  -26.2752   20.4779 O   0  0  0  0  0  0  0  0  0  1  0  0
  -20.6326   -2.8743   22.8870 F   0  0  0  0  0  0  0  0  0  0  0  0
  -24.4174   -4.9414   24.8384 F   0  0  0  0  0  0  0  0  0  0  0  0
  1  2  1  0  0  0  0
  1  5  2  0  0  0  0
  2  6  2  0  0  0  0
  3  8  2  0  0  0  0
  3 18  1  0  0  0  0
  4  9  1  0  0  0  0
  4 18  2  0  0  0  0
  5 21  1  0  0  0  0
  6 23  1  0  0  0  0
  7 10  2  0  0  0  0
  7 22  1  0  0  0  0
  8 27  1  0  0  0  0
  9 27  2  0  0  0  0
 10 28  1  0  0  0  0
 11 12  2  0  0  0  0
 11 29  1  0  0  0  0
 12 30  1  0  0  0  0
 13 19  2  0  0  0  0
 13 25  1  0  0  0  0
 14 19  1  0  0  0  0
 14 26  2  0  0  0  0
 15 24  1  0  0  0  0
 15 28  2  0  0  0  0
 16 25  2  0  0  0  0
 16 26  1  0  0  0  0
 17 30  2  0  0  0  0
 17 31  1  0  0  0  0
 18 32  1  0  0  0  0
 19 38  1  0  0  0  0
 20 32  1  0  0  0  0
 20 33  2  0  0  0  0
 20 39  1  0  0  0  0
 21 23  2  0  0  0  0
 21 44  1  0  0  0  0
 22 24  2  0  0  0  0
 22 45  1  0  0  0  0
 23 55  1  0  0  0  0
 24 46  1  0  0  0  0
 25 71  1  0  0  0  0
 26 76  1  0  0  0  0
 27 87  1  0  0  0  0
 28 88  1  0  0  0  0
 29 31  2  0  0  0  0
 29 87  1  0  0  0  0
 30 89  1  0  0  0  0
 31 90  1  0  0  0  0
 32 68  2  0  0  0  0
 33 70  1  0  0  0  0
 33 74  1  0  0  0  0
 34 56  1  0  0  0  0
 34 71  1  0  0  0  0
 34 81  2  0  0  0  0
 35 36  2  0  0  0  0
 36 37  1  0  0  0  0
 37 69  2  0  0  0  0
 38 69  1  0  0  0  0
 38 79  2  0  0  0  0
 39 75  1  0  0  0  0
 39 82  2  0  0  0  0
 40 57  1  0  0  0  0
 40 77  1  0  0  0  0
 40 83  2  0  0  0  0
 41 65  1  0  0  0  0
 41 72  1  0  0  0  0
 41 84  2  0  0  0  0
 42 66  1  0  0  0  0
 42 78  1  0  0  0  0
 42 85  2  0  0  0  0
 43 73  1  0  0  0  0
 43 76  1  0  0  0  0
 43 86  2  0  0  0  0
 44 47  1  0  0  0  0
 45 57  1  0  0  0  0
 46 72  1  0  0  0  0
 47 49  1  0  0  0  0
 48 50  1  0  0  0  0
 48 52  1  0  0  0  0
 49 55  1  0  0  0  0
 50 58  1  0  0  0  0
 51 53  1  0  0  0  0
 51 56  1  0  0  0  0
 52 73  1  0  0  0  0
 53 71  1  0  0  0  0
 54 58  1  0  0  0  0
 54 73  1  0  0  0  0
 55 77  1  0  0  0  0
 56 64  1  0  0  0  0
 57 72  1  0  0  0  0
 58 70  1  0  0  0  0
 59 66  1  0  0  0  0
 60 67  1  0  0  0  0
 61 67  1  0  0  0  0
 62 67  1  0  0  0  0
 63 80  1  0  0  0  0
 64 88  1  0  0  0  0
 65 67  1  0  0  0  0
 65 78  1  0  0  0  0
 66 80  1  0  0  0  0
 68 70  1  0  0  0  0
M  CHG  2  79   1  80   1
M  ISO  4  43 100  64 101  76 100  88 101
M  END
> <Batch ID>
0066

> <Smiles>
C=CC=NC(=N)c1cc([100NH:0][100C:0](=O)N2CCCC(n3nc(-c4ccc(Oc5ccc(F)cc5F)cc4)c(C(N)=O)c3N)C2)cc(N2CCC([101CH2:1][101O:1]c3ccc4c(c3)CN(C(=O)C(NC(=O)C(C)NC)C(C)(C)C)C(C(=O)NC3CCCc5ccccc53)C4)C2=O)c1

> <Shape>
0.284

> <Color>
0.090

> <Negative vol penalty>
0.000

$$$$

  -OEChem-04042323213D

 86 95  0     1  0  0  0  0  0999 V2000
  -30.5858  -36.0026   26.4244 C   0  0  0  0  0  0  0  0  0  0  0  0
  -30.8464  -34.9410   25.5639 C   0  0  0  0  0  0  0  0  0  0  0  0
  -24.0623   -9.4066   21.6431 C   0  0  0  0  0  0  0  0  0  0  0  0
  -24.6613  -10.6881   23.6017 C   0  0  0  0  0  0  0  0  0  0  0  0
  -29.4563  -35.9751   27.2413 C   0  0  0  0  0  0  0  0  0  0  0  0
  -29.9782  -33.8507   25.5206 C   0  0  0  0  0  0  0  0  0  0  0  0
  -28.5331  -30.4878   20.6105 C   0  0  0  0  0  0  0  0  0  0  0  0
  -30.8867  -20.0830   20.4132 C   0  0  0  0  0  0  0  0  0  0  0  0
  -30.6059  -18.7601   20.0716 C   0  0  0  0  0  0  0  0  0  0  0  0
  -23.6651   -8.3466   22.4580 C   0  0  0  0  0  0  0  0  0  0  0  0
  -24.2640   -9.6281   24.4167 C   0  0  0  0  0  0  0  0  0  0  0  0
  -28.9974  -29.2579   20.1463 C   0  0  0  0  0  0  0  0  0  0  0  0
  -20.9906   -7.5336   24.3604 C   0  0  0  0  0  0  0  0  0  0  0  0
  -19.7798   -6.9073   24.0651 C   0  0  0  0  0  0  0  0  0  0  0  0
  -27.1390  -28.1576   21.2210 C   0  0  0  0  0  0  0  0  0  0  0  0
  -28.5296  -20.4986   20.7420 C   0  0  0  0  0  0  0  0  0  0  0  0
  -20.9417   -4.8139   23.7415 C   0  0  0  0  0  0  0  0  0  0  0  0
  -24.5605  -10.5773   22.2149 C   0  0  0  0  0  0  0  0  0  0  0  0
  -24.1750  -12.7404   20.9186 C   0  0  0  0  0  0  0  0  0  0  0  0
  -28.5686  -34.8883   27.2011 C   0  0  0  0  0  0  0  0  0  0  0  0
  -27.3723  -30.5608   21.3939 C   0  0  0  0  0  0  0  0  0  0  0  0
  -28.8365  -33.8080   26.3388 C   0  0  0  0  0  0  0  0  0  0  0  0
  -26.6606  -29.3899   21.6917 C   0  0  0  0  0  0  0  0  0  0  0  0
  -28.2487  -19.1757   20.4003 C   0  0  0  0  0  0  0  0  0  0  0  0
  -29.8486  -20.9522   20.7485 C   0  0  0  0  0  0  0  0  0  0  0  0
  -29.2869  -18.3065   20.0651 C   0  0  0  0  0  0  0  0  0  0  0  0
  -23.7659   -8.4573   23.8448 C   0  0  0  0  0  0  0  0  0  0  0  0
  -28.3019  -28.0922   20.4539 C   0  0  0  0  0  0  0  0  0  0  0  0
  -22.1770   -6.8001   24.3462 C   0  0  0  0  0  0  0  0  0  0  0  0
  -19.7553   -5.5474   23.7556 C   0  0  0  0  0  0  0  0  0  0  0  0
  -22.1525   -5.4403   24.0368 C   0  0  0  0  0  0  0  0  0  0  0  0
  -24.9715  -11.6724   21.3735 C   0  0  0  0  0  0  0  0  0  0  0  0
  -25.0268  -13.5047   20.1591 C   0  0  0  0  0  0  0  0  0  0  0  0
  -31.5806  -24.1226   21.9490 C   0  0  0  0  0  0  0  0  0  0  0  0
  -30.7889  -25.0532   21.4111 C   0  0  0  0  0  0  0  0  0  0  0  0
  -31.3520  -22.6702   21.7197 C   0  0  0  0  0  0  0  0  0  0  0  0
  -22.7892  -13.0168   21.1610 C   0  0  0  0  0  0  0  0  0  0  0  0
  -26.7198  -31.5214   24.3528 C   0  0  0  0  0  0  0  0  0  0  0  0
  -23.6549  -30.9919   23.4317 C   0  0  0  0  0  0  0  0  0  0  0  0
  -21.4952  -29.3616   21.3522 C   0  0  0  0  0  0  0  0  0  0  0  0
  -29.9505  -15.9798   19.3631 C   0  0  0  0  0  0  0  0  0  0  0  0
  -27.3862  -34.8818   28.1372 C   0  0  0  0  0  0  0  0  0  0  0  0
  -26.8698  -31.8981   21.8645 C   0  0  0  0  0  0  0  0  0  0  0  0
  -25.3978  -29.4165   22.5122 C   0  0  0  0  0  0  0  0  0  0  0  0
  -26.3159  -33.8610   27.7595 C   0  0  0  0  0  0  0  0  0  0  0  0
  -29.7019  -12.5408   18.4752 C   0  0  0  0  0  0  0  0  0  0  0  0
  -26.9531  -32.5118   27.4426 C   0  0  0  0  0  0  0  0  0  0  0  0
  -28.3836  -12.0962   19.1127 C   0  0  0  0  0  0  0  0  0  0  0  0
  -30.4463  -13.5449   19.3535 C   0  0  0  0  0  0  0  0  0  0  0  0
  -29.0639  -23.3155   20.9818 C   0  0  0  0  0  0  0  0  0  0  0  0
  -28.3390  -14.2674   20.4052 C   0  0  0  0  0  0  0  0  0  0  0  0
  -27.9051  -32.6189   26.2452 C   0  0  1  0  0  0  0  0  0  0  0  0
  -29.5761  -24.7100   20.6071 C   0  0  1  0  0  0  0  0  0  0  0  0
  -25.9611  -31.7989   23.0859 C   0  0  1  0  0  0  0  0  0  0  0  0
  -27.5222  -13.3051   19.5274 C   0  0  2  0  0  0  0  0  0  0  0  0
  -26.8269  -18.7160   20.4037 C   0  0  0  0  0  0  0  0  0  0  0  0
  -19.0472  -29.1036   20.8639 C   0  0  0  0  0  0  0  0  0  0  0  0
  -23.3528  -29.2179   25.8958 C   0  0  0  0  0  0  0  0  0  0  0  0
  -21.2796  -28.2622   24.8677 C   0  0  0  0  0  0  0  0  0  0  0  0
  -21.3880  -30.6915   25.4241 C   0  0  0  0  0  0  0  0  0  0  0  0
  -21.8172  -30.3951   18.5977 C   0  0  0  0  0  0  0  0  0  0  0  0
  -28.4695  -25.7463   20.8070 C   0  0  0  0  0  0  0  0  0  1  0  0
  -22.7182  -29.8084   23.4638 C   0  0  1  0  0  0  0  0  0  0  0  0
  -20.3229  -29.8595   20.5262 C   0  0  2  0  0  0  0  0  0  0  0  0
  -22.2095  -29.4939   24.8990 C   0  0  0  0  0  0  0  0  0  0  0  0
  -26.2323  -11.7480   20.9392 N   0  0  0  0  0  0  0  0  0  0  0  0
  -26.2345  -12.8726   20.2033 N   0  0  0  0  0  0  0  0  0  0  0  0
  -30.1396  -22.3201   21.1045 N   0  0  0  0  0  0  0  0  0  0  0  0
  -24.9504  -30.7475   22.9545 N   0  0  0  0  0  0  0  0  0  0  0  0
  -29.5695  -14.6646   19.7032 N   0  0  0  0  0  0  0  0  0  0  0  0
  -24.8529  -14.6491   19.4644 N   0  0  0  0  0  0  0  0  0  0  0  0
  -22.0611  -12.1283   21.9640 N   0  0  0  0  0  0  0  0  0  0  0  0
  -29.0224  -16.9587   19.7169 N   0  0  0  0  0  0  0  0  0  0  0  0
  -27.1573  -32.6574   25.0068 N   0  0  0  0  0  0  0  0  0  0  0  0
  -21.6583  -30.1006   22.5048 N   0  0  0  0  0  0  0  0  0  0  0  0
  -20.6020  -29.6847   19.0727 N   0  3  0  0  0  0  0  0  0  0  0  0
  -32.2276  -21.8973   22.1085 O   0  0  0  0  0  0  0  0  0  0  0  0
  -22.2094  -14.0131   20.6662 O   0  0  0  0  0  0  0  0  0  0  0  0
  -26.8939  -30.3626   24.7113 O   0  0  0  0  0  0  0  0  0  0  0  0
  -23.2497  -32.0941   23.8093 O   0  0  0  0  0  0  0  0  0  0  0  0
  -22.1938  -28.4097   21.0110 O   0  0  0  0  0  0  0  0  0  0  0  0
  -31.0087  -16.2174   18.7752 O   0  0  0  0  0  0  0  0  0  0  0  0
  -23.3782   -7.4233   24.6404 O   0  0  0  0  0  0  0  0  0  0  0  0
  -28.7533  -26.8904   20.0026 O   0  0  0  0  0  0  0  0  0  1  0  0
  -18.5923   -4.9457   23.4735 F   0  0  0  0  0  0  0  0  0  0  0  0
  -23.2889   -4.7301   24.0227 F   0  0  0  0  0  0  0  0  0  0  0  0
  1  2  1  0  0  0  0
  1  5  2  0  0  0  0
  2  6  2  0  0  0  0
  3 10  2  0  0  0  0
  3 18  1  0  0  0  0
  4 11  1  0  0  0  0
  4 18  2  0  0  0  0
  5 20  1  0  0  0  0
  6 22  1  0  0  0  0
  7 12  2  0  0  0  0
  7 21  1  0  0  0  0
  8  9  2  0  0  0  0
  8 25  1  0  0  0  0
  9 26  1  0  0  0  0
 10 27  1  0  0  0  0
 11 27  2  0  0  0  0
 12 28  1  0  0  0  0
 13 14  2  0  0  0  0
 13 29  1  0  0  0  0
 14 30  1  0  0  0  0
 15 23  1  0  0  0  0
 15 28  2  0  0  0  0
 16 24  1  0  0  0  0
 16 25  2  0  0  0  0
 17 30  2  0  0  0  0
 17 31  1  0  0  0  0
 18 32  1  0  0  0  0
 19 32  1  0  0  0  0
 19 33  2  0  0  0  0
 19 37  1  0  0  0  0
 20 22  2  0  0  0  0
 20 42  1  0  0  0  0
 21 23  2  0  0  0  0
 21 43  1  0  0  0  0
 22 52  1  0  0  0  0
 23 44  1  0  0  0  0
 24 26  2  0  0  0  0
 24 56  1  0  0  0  0
 25 68  1  0  0  0  0
 26 73  1  0  0  0  0
 27 83  1  0  0  0  0
 28 84  1  0  0  0  0
 29 31  2  0  0  0  0
 29 83  1  0  0  0  0
 30 85  1  0  0  0  0
 31 86  1  0  0  0  0
 32 66  2  0  0  0  0
 33 67  1  0  0  0  0
 33 71  1  0  0  0  0
 34 35  2  0  0  0  0
 34 36  1  0  0  0  0
 35 53  1  0  0  0  0
 36 68  1  0  0  0  0
 36 77  2  0  0  0  0
 37 72  1  0  0  0  0
 37 78  2  0  0  0  0
 38 54  1  0  0  0  0
 38 74  1  0  0  0  0
 38 79  2  0  0  0  0
 39 63  1  0  0  0  0
 39 69  1  0  0  0  0
 39 80  2  0  0  0  0
 40 64  1  0  0  0  0
 40 75  1  0  0  0  0
 40 81  2  0  0  0  0
 41 70  1  0  0  0  0
 41 73  1  0  0  0  0
 41 82  2  0  0  0  0
 42 45  1  0  0  0  0
 43 54  1  0  0  0  0
 44 69  1  0  0  0  0
 45 47  1  0  0  0  0
 46 48  1  0  0  0  0
 46 49  1  0  0  0  0
 47 52  1  0  0  0  0
 48 55  1  0  0  0  0
 49 70  1  0  0  0  0
 50 53  1  0  0  0  0
 50 68  1  0  0  0  0
 51 55  1  0  0  0  0
 51 70  1  0  0  0  0
 52 74  1  0  0  0  0
 53 62  1  0  0  0  0
 54 69  1  0  0  0  0
 55 67  1  0  0  0  0
 57 64  1  0  0  0  0
 58 65  1  0  0  0  0
 59 65  1  0  0  0  0
 60 65  1  0  0  0  0
 61 76  1  0  0  0  0
 62 84  1  0  0  0  0
 63 65  1  0  0  0  0
 63 75  1  0  0  0  0
 64 76  1  0  0  0  0
 66 67  1  0  0  0  0
M  CHG  1  76   1
M  ISO  4  41 100  62 101  73 100  84 101
M  END
> <Batch ID>
0066

> <Smiles>
CNC(C)C(=O)NC(C(=O)N1Cc2cc([101O:1][101CH2:1]C3=CCC(=O)N(c4ccc([100NH:0][100C:0](=O)N5CCCC(n6nc(-c7ccc(Oc8ccc(F)cc8F)cc7)c(C(N)=O)c6N)C5)c(C)c4)C3)ccc2CC1C(=O)NC1CCCc2ccccc21)C(C)(C)C

> <Shape>
0.321

> <Color>
0.138

> <Negative vol penalty>
0.000

$$$$

  -OEChem-04042323213D

 84 92  0     1  0  0  0  0  0999 V2000
  -31.7339  -31.4158   24.1098 C   0  0  0  0  0  0  0  0  0  0  0  0
  -31.5184  -30.0819   23.7787 C   0  0  0  0  0  0  0  0  0  0  0  0
  -23.0003   -9.8944   19.9812 C   0  0  0  0  0  0  0  0  0  0  0  0
  -23.7257   -9.9451   22.2852 C   0  0  0  0  0  0  0  0  0  0  0  0
  -33.0093  -31.8451   24.4744 C   0  0  0  0  0  0  0  0  0  0  0  0
  -32.5786  -29.1766   23.8111 C   0  0  0  0  0  0  0  0  0  0  0  0
  -31.3347  -24.8074   26.0488 C   0  0  0  0  0  0  0  0  0  0  0  0
  -32.6506  -17.4395   23.4556 C   0  0  0  0  0  0  0  0  0  0  0  0
  -32.0594  -16.5470   22.5615 C   0  0  0  0  0  0  0  0  0  0  0  0
  -22.2335   -8.7601   20.2475 C   0  0  0  0  0  0  0  0  0  0  0  0
  -22.9588   -8.8108   22.5515 C   0  0  0  0  0  0  0  0  0  0  0  0
  -30.5901  -23.8976   25.2994 C   0  0  0  0  0  0  0  0  0  0  0  0
  -23.2023   -5.4718   22.0795 C   0  0  0  0  0  0  0  0  0  0  0  0
  -23.7897   -4.4544   22.8315 C   0  0  0  0  0  0  0  0  0  0  0  0
  -32.6013  -22.6537   24.8226 C   0  0  0  0  0  0  0  0  0  0  0  0
  -22.0660   -4.6977   24.5069 C   0  0  0  0  0  0  0  0  0  0  0  0
  -23.7464  -10.4869   21.0000 C   0  0  0  0  0  0  0  0  0  0  0  0
  -30.4746  -18.3390   23.9967 C   0  0  0  0  0  0  0  0  0  0  0  0
  -24.1323  -13.0024   20.8240 C   0  0  0  0  0  0  0  0  0  0  0  0
  -34.0836  -30.9427   24.5206 C   0  0  0  0  0  0  0  0  0  0  0  0
  -32.7221  -24.6531   26.1819 C   0  0  0  0  0  0  0  0  0  0  0  0
  -33.8698  -29.5945   24.1754 C   0  0  0  0  0  0  0  0  0  0  0  0
  -33.3608  -23.5615   25.5763 C   0  0  0  0  0  0  0  0  0  0  0  0
  -31.8582  -18.3356   24.1732 C   0  0  0  0  0  0  0  0  0  0  0  0
  -30.6757  -16.5504   22.3850 C   0  0  0  0  0  0  0  0  0  0  0  0
  -22.2128   -8.2183   21.5327 C   0  0  0  0  0  0  0  0  0  0  0  0
  -31.2238  -22.8222   24.6837 C   0  0  0  0  0  0  0  0  0  0  0  0
  -22.0468   -6.1022   22.5412 C   0  0  0  0  0  0  0  0  0  0  0  0
  -23.2215   -4.0674   24.0452 C   0  0  0  0  0  0  0  0  0  0  0  0
  -21.4786   -5.7152   23.7548 C   0  0  0  0  0  0  0  0  0  0  0  0
  -29.8833  -17.4465   23.1026 C   0  0  0  0  0  0  0  0  0  0  0  0
  -24.5392  -11.6583   20.7253 C   0  0  0  0  0  0  0  0  0  0  0  0
  -25.2423  -13.7247   20.4596 C   0  0  0  0  0  0  0  0  0  0  0  0
  -29.6031  -19.2844   24.7519 C   0  0  0  0  0  0  0  0  0  0  0  0
  -22.8646  -13.5491   21.2107 C   0  0  0  0  0  0  0  0  0  0  0  0
  -35.2599  -26.3862   25.3701 C   0  0  0  0  0  0  0  0  0  0  0  0
  -36.8637  -24.0965   27.0156 C   0  0  0  0  0  0  0  0  0  0  0  0
  -36.9412  -20.8962   28.1982 C   0  0  0  0  0  0  0  0  0  0  0  0
  -30.7220  -14.6845   20.6931 C   0  0  0  0  0  0  0  0  0  0  0  0
  -35.4541  -31.4631   24.8749 C   0  0  0  0  0  0  0  0  0  0  0  0
  -33.5070  -25.6282   27.0159 C   0  0  0  0  0  0  0  0  0  0  0  0
  -34.8449  -23.3396   25.7054 C   0  0  0  0  0  0  0  0  0  0  0  0
  -36.4458  -30.3637   25.2467 C   0  0  0  0  0  0  0  0  0  0  0  0
  -29.6029  -12.2319   18.3672 C   0  0  0  0  0  0  0  0  0  0  0  0
  -36.3805  -29.2221   24.2370 C   0  0  0  0  0  0  0  0  0  0  0  0
  -28.1523  -11.9746   18.7815 C   0  0  0  0  0  0  0  0  0  0  0  0
  -30.5036  -12.4751   19.5769 C   0  0  0  0  0  0  0  0  0  0  0  0
  -28.5885  -13.2644   20.9106 C   0  0  0  0  0  0  0  0  0  0  0  0
  -34.9893  -28.5773   24.2226 C   0  0  1  0  0  0  0  0  0  0  0  0
  -34.9897  -25.6619   26.6585 C   0  0  1  0  0  0  0  0  0  0  0  0
  -27.6307  -13.0783   19.7225 C   0  0  2  0  0  0  0  0  0  0  0  0
  -27.2696  -20.0503   24.3491 C   0  0  0  0  0  0  0  0  0  0  0  0
  -38.4003  -19.3024   29.4742 C   0  0  0  0  0  0  0  0  0  0  0  0
  -38.6097  -23.7184   24.5421 C   0  0  0  0  0  0  0  0  0  0  0  0
  -39.3787  -21.5385   25.5037 C   0  0  0  0  0  0  0  0  0  0  0  0
  -39.8509  -23.6688   26.7126 C   0  0  0  0  0  0  0  0  0  0  0  0
  -34.9311  -20.5964   30.3496 C   0  0  0  0  0  0  0  0  0  0  0  0
  -29.1432  -21.7223   24.3413 C   0  0  0  0  0  0  0  0  0  1  0  0
  -28.7338  -20.2878   23.9910 C   0  0  1  0  0  0  0  0  0  0  0  0
  -37.4891  -22.7680   26.6650 C   0  0  1  0  0  0  0  0  0  0  0  0
  -37.2883  -20.3357   29.5656 C   0  0  2  0  0  0  0  0  0  0  0  0
  -38.8044  -22.9284   25.8516 C   0  0  0  0  0  0  0  0  0  0  0  0
  -25.8084  -11.5315   20.3290 N   0  0  0  0  0  0  0  0  0  0  0  0
  -26.2087  -12.8052   20.1755 N   0  0  0  0  0  0  0  0  0  0  0  0
  -35.5697  -24.3239   26.5259 N   0  0  0  0  0  0  0  0  0  0  0  0
  -29.9489  -13.5361   20.4203 N   0  0  0  0  0  0  0  0  0  0  0  0
  -32.4770  -19.2287   25.0758 N   0  0  0  0  0  0  0  0  0  0  0  0
  -25.4760  -15.0504   20.3575 N   0  0  0  0  0  0  0  0  0  0  0  0
  -21.8326  -12.6652   21.5543 N   0  0  0  0  0  0  0  0  0  0  0  0
  -30.0780  -15.6398   21.4788 N   0  0  0  0  0  0  0  0  0  0  0  0
  -34.8277  -27.6987   25.3612 N   0  0  0  0  0  0  0  0  0  0  0  0
  -37.6488  -22.0473   27.9234 N   0  0  0  0  0  0  0  0  0  0  0  0
  -36.0941  -19.6880   30.1783 N   0  3  0  0  0  0  0  0  0  0  0  0
  -29.5964  -19.2286   25.9810 O   0  0  0  0  0  0  0  0  0  0  0  0
  -22.6481  -14.7845   21.2345 O   0  0  0  0  0  0  0  0  0  0  0  0
  -35.8205  -25.7983   24.4526 O   0  0  0  0  0  0  0  0  0  0  0  0
  -37.4971  -24.9000   27.7048 O   0  0  0  0  0  0  0  0  0  0  0  0
  -36.1268  -20.3638   27.4472 O   0  0  0  0  0  0  0  0  0  0  0  0
  -31.8606  -14.8231   20.2390 O   0  0  0  0  0  0  0  0  0  0  0  0
  -21.4644   -7.1116   21.7930 O   0  0  0  0  0  0  0  0  0  0  0  0
  -30.4995  -21.9330   23.9511 O   0  0  0  0  0  0  0  0  0  1  0  0
  -23.7848   -3.0893   24.7665 F   0  0  0  0  0  0  0  0  0  0  0  0
  -20.3679   -6.3163   24.2030 F   0  0  0  0  0  0  0  0  0  0  0  0
  -28.5518  -17.4464   22.9345 F   0  0  0  0  0  0  0  0  0  0  0  0
  1  2  1  0  0  0  0
  1  5  2  0  0  0  0
  2  6  2  0  0  0  0
  3 10  2  0  0  0  0
  3 17  1  0  0  0  0
  4 11  1  0  0  0  0
  4 17  2  0  0  0  0
  5 20  1  0  0  0  0
  6 22  1  0  0  0  0
  7 12  2  0  0  0  0
  7 21  1  0  0  0  0
  8  9  1  0  0  0  0
  8 24  2  0  0  0  0
  9 25  2  0  0  0  0
 10 26  1  0  0  0  0
 11 26  2  0  0  0  0
 12 27  1  0  0  0  0
 13 14  2  0  0  0  0
 13 28  1  0  0  0  0
 14 29  1  0  0  0  0
 15 23  1  0  0  0  0
 15 27  2  0  0  0  0
 16 29  2  0  0  0  0
 16 30  1  0  0  0  0
 17 32  1  0  0  0  0
 18 24  1  0  0  0  0
 18 31  2  0  0  0  0
 18 34  1  0  0  0  0
 19 32  1  0  0  0  0
 19 33  2  0  0  0  0
 19 35  1  0  0  0  0
 20 22  2  0  0  0  0
 20 40  1  0  0  0  0
 21 23  2  0  0  0  0
 21 41  1  0  0  0  0
 22 49  1  0  0  0  0
 23 42  1  0  0  0  0
 24 67  1  0  0  0  0
 25 31  1  0  0  0  0
 25 70  1  0  0  0  0
 26 80  1  0  0  0  0
 27 81  1  0  0  0  0
 28 30  2  0  0  0  0
 28 80  1  0  0  0  0
 29 82  1  0  0  0  0
 30 83  1  0  0  0  0
 31 84  1  0  0  0  0
 32 63  2  0  0  0  0
 33 64  1  0  0  0  0
 33 68  1  0  0  0  0
 34 59  1  0  0  0  0
 34 74  2  0  0  0  0
 35 69  1  0  0  0  0
 35 75  2  0  0  0  0
 36 50  1  0  0  0  0
 36 71  1  0  0  0  0
 36 76  2  0  0  0  0
 37 60  1  0  0  0  0
 37 65  1  0  0  0  0
 37 77  2  0  0  0  0
 38 61  1  0  0  0  0
 38 72  1  0  0  0  0
 38 78  2  0  0  0  0
 39 66  1  0  0  0  0
 39 70  1  0  0  0  0
 39 79  2  0  0  0  0
 40 43  1  0  0  0  0
 41 50  1  0  0  0  0
 42 65  1  0  0  0  0
 43 45  1  0  0  0  0
 44 46  1  0  0  0  0
 44 47  1  0  0  0  0
 45 49  1  0  0  0  0
 46 51  1  0  0  0  0
 47 66  1  0  0  0  0
 48 51  1  0  0  0  0
 48 66  1  0  0  0  0
 49 71  1  0  0  0  0
 50 65  1  0  0  0  0
 51 64  1  0  0  0  0
 52 59  1  0  0  0  0
 53 61  1  0  0  0  0
 54 62  1  0  0  0  0
 55 62  1  0  0  0  0
 56 62  1  0  0  0  0
 57 73  1  0  0  0  0
 58 59  1  0  0  0  0
 58 81  1  0  0  0  0
 60 62  1  0  0  0  0
 60 72  1  0  0  0  0
 61 73  1  0  0  0  0
 63 64  1  0  0  0  0
M  CHG  1  73   1
M  ISO  4  39 100  58 101  70 100  81 101
M  END
> <Batch ID>
0066

> <Smiles>
CNC(C)C(=O)NC(C(=O)N1Cc2cc([101O:1][101CH2:1]C(C)C(=O)c3c(N)ccc([100NH:0][100C:0](=O)N4CCCC(n5nc(-c6ccc(Oc7ccc(F)cc7F)cc6)c(C(N)=O)c5N)C4)c3F)ccc2CC1C(=O)NC1CCCc2ccccc21)C(C)(C)C

> <Shape>
0.174

> <Color>
0.189

> <Negative vol penalty>
0.000

$$$$

  -OEChem-04042323213D

 89 98  0     1  0  0  0  0  0999 V2000
  -21.8121   -9.8722   27.5714 C   0  0  0  0  0  0  0  0  0  0  0  0
  -22.8961  -10.7331   27.4332 C   0  0  0  0  0  0  0  0  0  0  0  0
  -23.0740   -9.8686   19.9401 C   0  0  0  0  0  0  0  0  0  0  0  0
  -23.8334   -9.8749   22.2336 C   0  0  0  0  0  0  0  0  0  0  0  0
  -20.5194  -10.3883   27.6520 C   0  0  0  0  0  0  0  0  0  0  0  0
  -22.6880  -12.1106   27.3744 C   0  0  0  0  0  0  0  0  0  0  0  0
  -26.3426  -16.4852   29.6133 C   0  0  0  0  0  0  0  0  0  0  0  0
  -32.3678  -18.5626   22.0096 C   0  0  0  0  0  0  0  0  0  0  0  0
  -31.8668  -17.3408   21.5604 C   0  0  0  0  0  0  0  0  0  0  0  0
  -22.3297   -8.7156   20.1897 C   0  0  0  0  0  0  0  0  0  0  0  0
  -23.0891   -8.7220   22.4833 C   0  0  0  0  0  0  0  0  0  0  0  0
  -27.3038  -17.3004   29.0172 C   0  0  0  0  0  0  0  0  0  0  0  0
  -19.8605   -7.9252   23.0849 C   0  0  0  0  0  0  0  0  0  0  0  0
  -19.1033   -7.8854   24.2557 C   0  0  0  0  0  0  0  0  0  0  0  0
  -25.6610  -19.0502   28.7754 C   0  0  0  0  0  0  0  0  0  0  0  0
  -20.3438   -5.9474   24.9921 C   0  0  0  0  0  0  0  0  0  0  0  0
  -23.8260  -10.4482   20.9620 C   0  0  0  0  0  0  0  0  0  0  0  0
  -24.1687  -12.9732   20.8425 C   0  0  0  0  0  0  0  0  0  0  0  0
  -20.2961  -11.7733   27.6038 C   0  0  0  0  0  0  0  0  0  0  0  0
  -25.0285  -16.9432   29.7853 C   0  0  0  0  0  0  0  0  0  0  0  0
  -21.3909  -12.6457   27.4530 C   0  0  0  0  0  0  0  0  0  0  0  0
  -24.6857  -18.2398   29.3762 C   0  0  0  0  0  0  0  0  0  0  0  0
  -31.5873  -19.3772   22.8301 C   0  0  0  0  0  0  0  0  0  0  0  0
  -30.3059  -18.9699   23.2012 C   0  0  0  0  0  0  0  0  0  0  0  0
  -30.5854  -16.9336   21.9315 C   0  0  0  0  0  0  0  0  0  0  0  0
  -22.3372   -8.1424   21.4613 C   0  0  0  0  0  0  0  0  0  0  0  0
  -26.9624  -18.5820   28.5955 C   0  0  0  0  0  0  0  0  0  0  0  0
  -20.8594   -6.9761   22.8677 C   0  0  0  0  0  0  0  0  0  0  0  0
  -19.3450   -6.8965   25.2093 C   0  0  0  0  0  0  0  0  0  0  0  0
  -21.1010   -5.9872   23.8213 C   0  0  0  0  0  0  0  0  0  0  0  0
  -29.8049  -17.7481   22.7519 C   0  0  0  0  0  0  0  0  0  0  0  0
  -24.5955  -11.6388   20.7047 C   0  0  0  0  0  0  0  0  0  0  0  0
  -25.2612  -13.7224   20.4796 C   0  0  0  0  0  0  0  0  0  0  0  0
  -29.0596  -21.1038   23.7663 C   0  0  0  0  0  0  0  0  0  0  0  0
  -22.8983  -13.4894   21.2612 C   0  0  0  0  0  0  0  0  0  0  0  0
  -22.1761  -16.0248   28.7248 C   0  0  0  0  0  0  0  0  0  0  0  0
  -21.1154  -18.3306   30.7449 C   0  0  0  0  0  0  0  0  0  0  0  0
  -21.7666  -21.2183   32.4430 C   0  0  0  0  0  0  0  0  0  0  0  0
  -30.7277  -14.7660   20.6556 C   0  0  0  0  0  0  0  0  0  0  0  0
  -18.8768  -12.2818   27.6472 C   0  0  0  0  0  0  0  0  0  0  0  0
  -24.0101  -16.0613   30.4543 C   0  0  0  0  0  0  0  0  0  0  0  0
  -23.2938  -18.7863   29.5565 C   0  0  0  0  0  0  0  0  0  0  0  0
  -18.7733  -13.7736   27.9537 C   0  0  0  0  0  0  0  0  0  0  0  0
  -29.6130  -12.3530   18.2867 C   0  0  0  0  0  0  0  0  0  0  0  0
  -19.7640  -14.5632   27.1040 C   0  0  0  0  0  0  0  0  0  0  0  0
  -28.1731  -12.0618   18.7160 C   0  0  0  0  0  0  0  0  0  0  0  0
  -30.5279  -12.5813   19.4886 C   0  0  0  0  0  0  0  0  0  0  0  0
  -28.9574  -19.3124   25.3009 C   0  0  0  0  0  0  0  0  0  0  0  0
  -28.6209  -13.3062   20.8696 C   0  0  0  0  0  0  0  0  0  0  0  0
  -21.2078  -14.1472   27.4104 C   0  0  1  0  0  0  0  0  0  0  0  0
  -28.1188  -21.5061   24.8928 C   0  0  1  0  0  0  0  0  0  0  0  0
  -22.5730  -16.4424   30.1125 C   0  0  1  0  0  0  0  0  0  0  0  0
  -28.5388  -20.5793   26.0345 C   0  0  1  0  0  0  0  0  0  0  0  0
  -27.6483  -13.1335   19.6915 C   0  0  2  0  0  0  0  0  0  0  0  0
  -32.1503  -20.6806   23.2965 C   0  0  0  0  0  0  0  0  0  0  0  0
  -20.6916  -22.8840   33.9817 C   0  0  0  0  0  0  0  0  0  0  0  0
  -29.6851  -23.4377   25.2409 C   0  0  0  0  0  0  0  0  0  0  0  0
  -27.4044  -23.8305   24.2675 C   0  0  0  0  0  0  0  0  0  0  0  0
  -19.5827  -19.5154   28.3876 C   0  0  0  0  0  0  0  0  0  0  0  0
  -19.3263  -21.6282   29.7061 C   0  0  0  0  0  0  0  0  0  0  0  0
  -18.3258  -19.5046   30.5497 C   0  0  0  0  0  0  0  0  0  0  0  0
  -23.7264  -20.6718   34.5923 C   0  0  0  0  0  0  0  0  0  0  0  0
  -27.4365  -20.3278   27.0516 C   0  0  0  0  0  0  0  0  0  1  0  0
  -20.8345  -19.8091   30.6265 C   0  0  1  0  0  0  0  0  0  0  0  0
  -21.5228  -21.6139   33.8882 C   0  0  2  0  0  0  0  0  0  0  0  0
  -28.2247  -22.9813   25.2402 C   0  0  0  0  0  0  0  0  0  0  0  0
  -19.5431  -20.1036   29.8122 C   0  0  0  0  0  0  0  0  0  0  0  0
  -25.8604  -11.5426   20.2866 N   0  0  0  0  0  0  0  0  0  0  0  0
  -26.2378  -12.8261   20.1586 N   0  0  0  0  0  0  0  0  0  0  0  0
  -29.4945  -19.7913   24.0406 N   0  0  0  0  0  0  0  0  0  0  0  0
  -22.3319  -17.8835   30.2101 N   0  0  0  0  0  0  0  0  0  0  0  0
  -29.9691  -13.6122   20.3661 N   0  0  0  0  0  0  0  0  0  0  0  0
  -25.4721  -15.0538   20.4068 N   0  0  0  0  0  0  0  0  0  0  0  0
  -21.8860  -12.5806   21.5981 N   0  0  0  0  0  0  0  0  0  0  0  0
  -30.0805  -15.6912   21.4741 N   0  0  0  0  0  0  0  0  0  0  0  0
  -21.6546  -14.7475   28.6491 N   0  0  0  0  0  0  0  0  0  0  0  0
  -20.8139  -20.3310   31.9887 N   0  0  0  0  0  0  0  0  0  0  0  0
  -22.8183  -21.8476   34.5868 N   0  3  0  0  0  0  0  0  0  0  0  0
  -29.2940  -21.8194   22.8031 O   0  0  0  0  0  0  0  0  0  0  0  0
  -22.6625  -14.7201   21.3187 O   0  0  0  0  0  0  0  0  0  0  0  0
  -22.3303  -16.8045   27.7920 O   0  0  0  0  0  0  0  0  0  0  0  0
  -20.2892  -17.6004   31.2980 O   0  0  0  0  0  0  0  0  0  0  0  0
  -22.7058  -21.6558   31.7820 O   0  0  0  0  0  0  0  0  0  0  0  0
  -31.8570  -14.9344   20.1883 O   0  0  0  0  0  0  0  0  0  0  0  0
  -21.6108   -7.0175   21.7053 O   0  0  0  0  0  0  0  0  0  0  0  0
  -27.8985  -19.3796   28.0128 O   0  0  0  0  0  0  0  0  0  1  0  0
  -18.6188   -6.8592   26.3342 F   0  0  0  0  0  0  0  0  0  0  0  0
  -22.0601   -5.0734   23.6187 F   0  0  0  0  0  0  0  0  0  0  0  0
  -28.5726  -17.3546   23.1088 F   0  0  0  0  0  0  0  0  0  0  0  0
  1  2  1  0  0  0  0
  1  5  2  0  0  0  0
  2  6  2  0  0  0  0
  3 10  2  0  0  0  0
  3 17  1  0  0  0  0
  4 11  1  0  0  0  0
  4 17  2  0  0  0  0
  5 19  1  0  0  0  0
  6 21  1  0  0  0  0
  7 12  2  0  0  0  0
  7 20  1  0  0  0  0
  8  9  1  0  0  0  0
  8 23  2  0  0  0  0
  9 25  2  0  0  0  0
 10 26  1  0  0  0  0
 11 26  2  0  0  0  0
 12 27  1  0  0  0  0
 13 14  2  0  0  0  0
 13 28  1  0  0  0  0
 14 29  1  0  0  0  0
 15 22  1  0  0  0  0
 15 27  2  0  0  0  0
 16 29  2  0  0  0  0
 16 30  1  0  0  0  0
 17 32  1  0  0  0  0
 18 32  1  0  0  0  0
 18 33  2  0  0  0  0
 18 35  1  0  0  0  0
 19 21  2  0  0  0  0
 19 40  1  0  0  0  0
 20 22  2  0  0  0  0
 20 41  1  0  0  0  0
 21 50  1  0  0  0  0
 22 42  1  0  0  0  0
 23 24  1  0  0  0  0
 23 55  1  0  0  0  0
 24 31  2  0  0  0  0
 24 70  1  0  0  0  0
 25 31  1  0  0  0  0
 25 75  1  0  0  0  0
 26 85  1  0  0  0  0
 27 86  1  0  0  0  0
 28 30  2  0  0  0  0
 28 85  1  0  0  0  0
 29 87  1  0  0  0  0
 30 88  1  0  0  0  0
 31 89  1  0  0  0  0
 32 68  2  0  0  0  0
 33 69  1  0  0  0  0
 33 73  1  0  0  0  0
 34 51  1  0  0  0  0
 34 70  1  0  0  0  0
 34 79  2  0  0  0  0
 35 74  1  0  0  0  0
 35 80  2  0  0  0  0
 36 52  1  0  0  0  0
 36 76  1  0  0  0  0
 36 81  2  0  0  0  0
 37 64  1  0  0  0  0
 37 71  1  0  0  0  0
 37 82  2  0  0  0  0
 38 65  1  0  0  0  0
 38 77  1  0  0  0  0
 38 83  2  0  0  0  0
 39 72  1  0  0  0  0
 39 75  1  0  0  0  0
 39 84  2  0  0  0  0
 40 43  1  0  0  0  0
 41 52  1  0  0  0  0
 42 71  1  0  0  0  0
 43 45  1  0  0  0  0
 44 46  1  0  0  0  0
 44 47  1  0  0  0  0
 45 50  1  0  0  0  0
 46 54  1  0  0  0  0
 47 72  1  0  0  0  0
 48 53  1  0  0  0  0
 48 70  1  0  0  0  0
 49 54  1  0  0  0  0
 49 72  1  0  0  0  0
 50 76  1  0  0  0  0
 51 53  1  0  0  0  0
 51 66  1  0  0  0  0
 52 71  1  0  0  0  0
 53 63  1  0  0  0  0
 54 69  1  0  0  0  0
 56 65  1  0  0  0  0
 57 66  1  0  0  0  0
 58 66  1  0  0  0  0
 59 67  1  0  0  0  0
 60 67  1  0  0  0  0
 61 67  1  0  0  0  0
 62 78  1  0  0  0  0
 63 86  1  0  0  0  0
 64 67  1  0  0  0  0
 64 77  1  0  0  0  0
 65 78  1  0  0  0  0
 68 69  1  0  0  0  0
M  CHG  1  78   1
M  ISO  4  39 100  63 101  75 100  86 101
M  END
> <Batch ID>
0066

> <Smiles>
CNC(C)C(=O)NC(C(=O)N1Cc2cc([101O:1][101CH2:1]C3CN(c4c(C)ccc([100NH:0][100C:0](=O)N5CCCC(n6nc(-c7ccc(Oc8ccc(F)cc8F)cc7)c(C(N)=O)c6N)C5)c4F)C(=O)C3C(C)C)ccc2CC1C(=O)NC1CCCc2ccccc21)C(C)(C)C

> <Shape>
0.169

> <Color>
0.188

> <Negative vol penalty>
0.000

$$$$

  -OEChem-04042323213D

 92101  0     1  0  0  0  0  0999 V2000
  -16.5281  -28.4588   23.5053 C   0  0  0  0  0  0  0  0  0  0  0  0
  -17.4313  -27.8928   22.6112 C   0  0  0  0  0  0  0  0  0  0  0  0
  -22.1504  -14.2969   22.3068 C   0  0  0  0  0  0  0  0  0  0  0  0
  -23.5533  -13.3536   24.0328 C   0  0  0  0  0  0  0  0  0  0  0  0
  -16.9274  -29.5151   24.3230 C   0  0  0  0  0  0  0  0  0  0  0  0
  -18.7342  -28.3837   22.5336 C   0  0  0  0  0  0  0  0  0  0  0  0
  -23.8212  -25.1627   21.4139 C   0  0  0  0  0  0  0  0  0  0  0  0
  -30.2838  -20.4857   18.6959 C   0  0  0  0  0  0  0  0  0  0  0  0
  -30.1864  -19.1405   19.0517 C   0  0  0  0  0  0  0  0  0  0  0  0
  -21.2030  -14.6477   23.2685 C   0  0  0  0  0  0  0  0  0  0  0  0
  -22.6059  -13.7045   24.9946 C   0  0  0  0  0  0  0  0  0  0  0  0
  -24.5647  -24.9572   20.2526 C   0  0  0  0  0  0  0  0  0  0  0  0
  -20.7777  -17.0849   25.5732 C   0  0  0  0  0  0  0  0  0  0  0  0
  -20.2238  -18.3631   25.5015 C   0  0  0  0  0  0  0  0  0  0  0  0
  -27.9224  -19.0819   18.2102 C   0  0  0  0  0  0  0  0  0  0  0  0
  -26.0545  -26.7414   20.8978 C   0  0  0  0  0  0  0  0  0  0  0  0
  -18.0252  -17.3958   25.2416 C   0  0  0  0  0  0  0  0  0  0  0  0
  -23.3256  -13.6498   22.6889 C   0  0  0  0  0  0  0  0  0  0  0  0
  -28.0198  -20.4271   17.8544 C   0  0  0  0  0  0  0  0  0  0  0  0
  -24.1199  -12.4307   20.5936 C   0  0  0  0  0  0  0  0  0  0  0  0
  -18.2386  -30.0128   24.2621 C   0  0  0  0  0  0  0  0  0  0  0  0
  -24.1830  -26.1680   22.3221 C   0  0  0  0  0  0  0  0  0  0  0  0
  -19.1511  -29.4486   23.3503 C   0  0  0  0  0  0  0  0  0  0  0  0
  -25.3154  -26.9559   22.0712 C   0  0  0  0  0  0  0  0  0  0  0  0
  -29.2005  -21.1290   18.0973 C   0  0  0  0  0  0  0  0  0  0  0  0
  -29.0057  -18.4386   18.8088 C   0  0  0  0  0  0  0  0  0  0  0  0
  -21.4307  -14.3515   24.6124 C   0  0  0  0  0  0  0  0  0  0  0  0
  -25.6798  -25.7485   19.9929 C   0  0  0  0  0  0  0  0  0  0  0  0
  -19.9553  -15.9622   25.4790 C   0  0  0  0  0  0  0  0  0  0  0  0
  -18.8476  -18.5186   25.3358 C   0  0  0  0  0  0  0  0  0  0  0  0
  -18.5791  -16.1176   25.3133 C   0  0  0  0  0  0  0  0  0  0  0  0
  -24.3044  -13.2866   21.6959 C   0  0  0  0  0  0  0  0  0  0  0  0
  -25.3403  -12.4141   19.9636 C   0  0  0  0  0  0  0  0  0  0  0  0
  -30.3163  -22.9697   16.8179 C   0  0  0  0  0  0  0  0  0  0  0  0
  -26.8698  -21.0700   17.2307 C   0  0  0  0  0  0  0  0  0  0  0  0
  -22.9499  -11.7146   20.1763 C   0  0  0  0  0  0  0  0  0  0  0  0
  -22.7885  -28.8034   23.4240 C   0  0  0  0  0  0  0  0  0  0  0  0
  -25.3851  -28.8971   25.3659 C   0  0  0  0  0  0  0  0  0  0  0  0
  -28.6307  -27.9929   25.9093 C   0  0  0  0  0  0  0  0  0  0  0  0
  -29.8884  -16.2849   19.7726 C   0  0  0  0  0  0  0  0  0  0  0  0
  -18.6104  -31.1872   25.1323 C   0  0  0  0  0  0  0  0  0  0  0  0
  -23.3862  -26.3593   23.5834 C   0  0  0  0  0  0  0  0  0  0  0  0
  -25.7577  -28.0350   23.0243 C   0  0  0  0  0  0  0  0  0  0  0  0
  -20.1168  -31.4020   25.2545 C   0  0  0  0  0  0  0  0  0  0  0  0
  -30.0210  -12.8953   20.8543 C   0  0  0  0  0  0  0  0  0  0  0  0
  -20.7805  -31.3211   23.8834 C   0  0  0  0  0  0  0  0  0  0  0  0
  -28.5529  -12.5312   21.0867 C   0  0  0  0  0  0  0  0  0  0  0  0
  -30.3180  -14.3388   21.2568 C   0  0  0  0  0  0  0  0  0  0  0  0
  -28.3596  -23.4670   18.3463 C   0  0  0  0  0  0  0  0  0  0  0  0
  -27.9693  -14.9818   20.8835 C   0  0  0  0  0  0  0  0  0  0  0  0
  -20.5802  -29.9370   23.2544 C   0  0  1  0  0  0  0  0  0  0  0  0
  -23.5454  -27.7521   24.1853 C   0  0  1  0  0  0  0  0  0  0  0  0
  -28.5530  -24.9315   17.9634 C   0  0  2  0  0  0  0  0  0  0  0  0
  -27.6073  -13.5574   20.4321 C   0  0  2  0  0  0  0  0  0  0  0  0
  -30.0407  -25.2506   17.8564 C   0  0  1  0  0  0  0  0  0  0  0  0
  -30.4960  -28.2502   27.5682 C   0  0  0  0  0  0  0  0  0  0  0  0
  -30.8062  -26.5375   19.8653 C   0  0  0  0  0  0  0  0  0  0  0  0
  -32.2691  -24.7517   18.8869 C   0  0  0  0  0  0  0  0  0  0  0  0
  -30.1613  -24.1250   20.0914 C   0  0  0  0  0  0  0  0  0  0  0  0
  -25.8564  -31.7493   24.3899 C   0  0  0  0  0  0  0  0  0  0  0  0
  -28.1808  -31.6055   25.3091 C   0  0  0  0  0  0  0  0  0  0  0  0
  -26.2215  -31.4117   26.8408 C   0  0  0  0  0  0  0  0  0  0  0  0
  -31.6081  -24.9111   15.9514 C   0  0  0  0  0  0  0  0  0  0  0  0
  -28.7703  -25.0744   26.3800 C   0  0  0  0  0  0  0  0  0  0  0  0
  -27.7997  -25.8547   18.9203 C   0  0  0  0  0  0  0  0  0  1  0  0
  -26.7656  -29.5014   25.2767 C   0  0  1  0  0  0  0  0  0  0  0  0
  -29.3202  -27.3950   27.1224 C   0  0  2  0  0  0  0  0  0  0  0  0
  -30.8180  -25.1664   19.1727 C   0  0  0  0  0  0  0  0  0  0  0  0
  -26.7469  -31.0480   25.4350 C   0  0  0  0  0  0  0  0  0  0  0  0
  -25.5444  -13.7781   21.7652 N   0  0  0  0  0  0  0  0  0  0  0  0
  -25.6422  -20.7213   17.4683 N   0  0  0  0  0  0  0  0  0  0  0  0
  -26.1502  -13.2291   20.6985 N   0  0  0  0  0  0  0  0  0  0  0  0
  -29.3258  -22.5318   17.7352 N   0  0  0  0  0  0  0  0  0  0  0  0
  -30.6139  -24.3448   16.8563 N   0  0  0  0  0  0  0  0  0  0  0  0
  -24.9423  -28.1876   24.2406 N   0  0  0  0  0  0  0  0  0  0  0  0
  -29.3860  -15.2544   20.5951 N   0  0  0  0  0  0  0  0  0  0  0  0
  -25.7889  -11.7820   18.8584 N   0  0  0  0  0  0  0  0  0  0  0  0
  -21.7804  -11.8439   20.9379 N   0  0  0  0  0  0  0  0  0  0  0  0
  -28.9074  -17.0721   19.1706 N   0  0  0  0  0  0  0  0  0  0  0  0
  -21.4848  -28.9762   23.8483 N   0  0  0  0  0  0  0  0  0  0  0  0
  -27.5794  -28.8089   26.2700 N   0  0  0  0  0  0  0  0  0  0  0  0
  -29.8251  -26.0281   26.8099 N   0  3  0  0  0  0  0  0  0  0  0  0
  -30.8816  -22.2182   16.0164 O   0  0  0  0  0  0  0  0  0  0  0  0
  -22.9463  -10.9690   19.1676 O   0  0  0  0  0  0  0  0  0  0  0  0
  -23.3465  -29.4137   22.5196 O   0  0  0  0  0  0  0  0  0  0  0  0
  -24.7268  -29.0429   26.3989 O   0  0  0  0  0  0  0  0  0  0  0  0
  -28.9912  -27.7624   24.7572 O   0  0  0  0  0  0  0  0  0  0  0  0
  -31.0991  -16.4394   19.5923 O   0  0  0  0  0  0  0  0  0  0  0  0
  -20.5066  -14.6939   25.5511 O   0  0  0  0  0  0  0  0  0  0  0  0
  -26.4069  -25.5504   18.8598 O   0  0  0  0  0  0  0  0  0  1  0  0
  -18.3157  -19.7461   25.2685 F   0  0  0  0  0  0  0  0  0  0  0  0
  -17.7838  -15.0428   25.2234 F   0  0  0  0  0  0  0  0  0  0  0  0
  1  2  1  0  0  0  0
  1  5  2  0  0  0  0
  2  6  2  0  0  0  0
  3 10  2  0  0  0  0
  3 18  1  0  0  0  0
  4 11  1  0  0  0  0
  4 18  2  0  0  0  0
  5 21  1  0  0  0  0
  6 23  1  0  0  0  0
  7 12  2  0  0  0  0
  7 22  1  0  0  0  0
  8  9  2  0  0  0  0
  8 25  1  0  0  0  0
  9 26  1  0  0  0  0
 10 27  1  0  0  0  0
 11 27  2  0  0  0  0
 12 28  1  0  0  0  0
 13 14  2  0  0  0  0
 13 29  1  0  0  0  0
 14 30  1  0  0  0  0
 15 19  1  0  0  0  0
 15 26  2  0  0  0  0
 16 24  1  0  0  0  0
 16 28  2  0  0  0  0
 17 30  2  0  0  0  0
 17 31  1  0  0  0  0
 18 32  1  0  0  0  0
 19 25  2  0  0  0  0
 19 35  1  0  0  0  0
 20 32  1  0  0  0  0
 20 33  2  0  0  0  0
 20 36  1  0  0  0  0
 21 23  2  0  0  0  0
 21 41  1  0  0  0  0
 22 24  2  0  0  0  0
 22 42  1  0  0  0  0
 23 51  1  0  0  0  0
 24 43  1  0  0  0  0
 25 73  1  0  0  0  0
 26 79  1  0  0  0  0
 27 89  1  0  0  0  0
 28 90  1  0  0  0  0
 29 31  2  0  0  0  0
 29 89  1  0  0  0  0
 30 91  1  0  0  0  0
 31 92  1  0  0  0  0
 32 70  2  0  0  0  0
 33 72  1  0  0  0  0
 33 77  1  0  0  0  0
 34 73  1  0  0  0  0
 34 74  1  0  0  0  0
 34 83  2  0  0  0  0
 35 71  2  0  0  0  0
 36 78  1  0  0  0  0
 36 84  2  0  0  0  0
 37 52  1  0  0  0  0
 37 80  1  0  0  0  0
 37 85  2  0  0  0  0
 38 66  1  0  0  0  0
 38 75  1  0  0  0  0
 38 86  2  0  0  0  0
 39 67  1  0  0  0  0
 39 81  1  0  0  0  0
 39 87  2  0  0  0  0
 40 76  1  0  0  0  0
 40 79  1  0  0  0  0
 40 88  2  0  0  0  0
 41 44  1  0  0  0  0
 42 52  1  0  0  0  0
 43 75  1  0  0  0  0
 44 46  1  0  0  0  0
 45 47  1  0  0  0  0
 45 48  1  0  0  0  0
 46 51  1  0  0  0  0
 47 54  1  0  0  0  0
 48 76  1  0  0  0  0
 49 53  1  0  0  0  0
 49 73  1  0  0  0  0
 50 54  1  0  0  0  0
 50 76  1  0  0  0  0
 51 80  1  0  0  0  0
 52 75  1  0  0  0  0
 53 55  1  0  0  0  0
 53 65  1  0  0  0  0
 54 72  1  0  0  0  0
 55 68  1  0  0  0  0
 55 74  1  0  0  0  0
 56 67  1  0  0  0  0
 57 68  1  0  0  0  0
 58 68  1  0  0  0  0
 59 68  1  0  0  0  0
 60 69  1  0  0  0  0
 61 69  1  0  0  0  0
 62 69  1  0  0  0  0
 63 74  1  0  0  0  0
 64 82  1  0  0  0  0
 65 90  1  0  0  0  0
 66 69  1  0  0  0  0
 66 81  1  0  0  0  0
 67 82  1  0  0  0  0
 70 72  1  0  0  0  0
M  CHG  1  82   1
M  ISO  4  40 100  65 101  79 100  90 101
M  END
> <Batch ID>
0066

> <Smiles>
CNC(C)C(=O)NC(C(=O)N1Cc2cc([101O:1][101CH2:1]C3CN(c4ccc([100NH:0][100C:0](=O)N5CCCC(n6nc(-c7ccc(Oc8ccc(F)cc8F)cc7)c(C(N)=O)c6N)C5)cc4C=N)C(=O)N(C)C3C(C)(C)C)ccc2CC1C(=O)NC1CCCc2ccccc21)C(C)(C)C

> <Shape>
0.260

> <Color>
0.062

> <Negative vol penalty>
0.000

$$$$

  -OEChem-04042323213D

 90 99  0     1  0  0  0  0  0999 V2000
  -27.5744  -37.2969   18.9742 C   0  0  0  0  0  0  0  0  0  0  0  0
  -28.0837  -36.0025   18.9980 C   0  0  0  0  0  0  0  0  0  0  0  0
  -24.5510   -9.3190   22.0232 C   0  0  0  0  0  0  0  0  0  0  0  0
  -22.9936  -11.0779   22.5868 C   0  0  0  0  0  0  0  0  0  0  0  0
  -26.5810  -37.6706   19.8782 C   0  0  0  0  0  0  0  0  0  0  0  0
  -27.6005  -35.0813   19.9266 C   0  0  0  0  0  0  0  0  0  0  0  0
  -26.8873  -29.0545   19.1052 C   0  0  0  0  0  0  0  0  0  0  0  0
  -23.8953   -8.4567   22.9019 C   0  0  0  0  0  0  0  0  0  0  0  0
  -22.3378  -10.2156   23.4655 C   0  0  0  0  0  0  0  0  0  0  0  0
  -27.6743  -27.9598   19.4604 C   0  0  0  0  0  0  0  0  0  0  0  0
  -21.0838   -6.5784   22.9148 C   0  0  0  0  0  0  0  0  0  0  0  0
  -20.8137   -5.2837   22.4718 C   0  0  0  0  0  0  0  0  0  0  0  0
  -26.3484  -27.6610   21.4534 C   0  0  0  0  0  0  0  0  0  0  0  0
  -25.2746  -19.0093   22.2512 C   0  0  0  0  0  0  0  0  0  0  0  0
  -27.4479  -19.6710   21.4291 C   0  0  0  0  0  0  0  0  0  0  0  0
  -22.1395   -4.3877   24.2819 C   0  0  0  0  0  0  0  0  0  0  0  0
  -24.1002  -10.6296   21.8657 C   0  0  0  0  0  0  0  0  0  0  0  0
  -24.5010  -11.7143   19.5918 C   0  0  0  0  0  0  0  0  0  0  0  0
  -26.0785  -36.7508   20.8120 C   0  0  0  0  0  0  0  0  0  0  0  0
  -25.8300  -29.4680   19.9283 C   0  0  0  0  0  0  0  0  0  0  0  0
  -26.6003  -35.4435   20.8449 C   0  0  0  0  0  0  0  0  0  0  0  0
  -25.5479  -28.7597   21.1051 C   0  0  0  0  0  0  0  0  0  0  0  0
  -24.7788  -20.2811   21.9642 C   0  0  0  0  0  0  0  0  0  0  0  0
  -26.9521  -20.9428   21.1420 C   0  0  0  0  0  0  0  0  0  0  0  0
  -26.6092  -18.7043   21.9837 C   0  0  0  0  0  0  0  0  0  0  0  0
  -22.7887   -8.9050   23.6231 C   0  0  0  0  0  0  0  0  0  0  0  0
  -27.4067  -27.2647   20.6361 C   0  0  0  0  0  0  0  0  0  0  0  0
  -21.8818   -6.7778   24.0414 C   0  0  0  0  0  0  0  0  0  0  0  0
  -21.3415   -4.1883   23.1553 C   0  0  0  0  0  0  0  0  0  0  0  0
  -22.4096   -5.6825   24.7249 C   0  0  0  0  0  0  0  0  0  0  0  0
  -25.6175  -21.2478   21.4096 C   0  0  0  0  0  0  0  0  0  0  0  0
  -24.7775  -11.5209   20.9585 C   0  0  0  0  0  0  0  0  0  0  0  0
  -25.4156  -12.6552   19.1862 C   0  0  0  0  0  0  0  0  0  0  0  0
  -28.9171  -21.6990   19.7302 C   0  0  0  0  0  0  0  0  0  0  0  0
  -23.5062  -11.0984   18.7630 C   0  0  0  0  0  0  0  0  0  0  0  0
  -25.1525  -32.1175   21.5484 C   0  0  0  0  0  0  0  0  0  0  0  0
  -22.3437  -30.5932   22.1049 C   0  0  0  0  0  0  0  0  0  0  0  0
  -20.6421  -27.6431   22.3231 C   0  0  0  0  0  0  0  0  0  0  0  0
  -28.4109  -16.9458   22.0713 C   0  0  0  0  0  0  0  0  0  0  0  0
  -25.0380  -37.2147   21.8004 C   0  0  0  0  0  0  0  0  0  0  0  0
  -24.9738  -30.6344   19.5175 C   0  0  0  0  0  0  0  0  0  0  0  0
  -24.4117  -29.1508   22.0130 C   0  0  0  0  0  0  0  0  0  0  0  0
  -24.3145  -36.0702   22.5054 C   0  0  0  0  0  0  0  0  0  0  0  0
  -29.8116  -14.2757   20.1777 C   0  0  0  0  0  0  0  0  0  0  0  0
  -25.3145  -35.0271   22.9941 C   0  0  0  0  0  0  0  0  0  0  0  0
  -28.6527  -13.2866   20.0335 C   0  0  0  0  0  0  0  0  0  0  0  0
  -29.8073  -14.9591   21.5440 C   0  0  0  0  0  0  0  0  0  0  0  0
  -27.5905  -23.3511   20.7720 C   0  0  0  0  0  0  0  0  0  0  0  0
  -27.3792  -14.6090   21.7703 C   0  0  0  0  0  0  0  0  0  0  0  0
  -26.0842  -34.4085   21.8209 C   0  0  1  0  0  0  0  0  0  0  0  0
  -29.4308  -23.0605   19.2850 C   0  0  1  0  0  0  0  0  0  0  0  0
  -24.2446  -31.2827   20.6903 C   0  0  1  0  0  0  0  0  0  0  0  0
  -28.9139  -23.9943   20.3803 C   0  0  1  0  0  0  0  0  0  0  0  0
  -27.3039  -13.9436   20.3863 C   0  0  2  0  0  0  0  0  0  0  0  0
  -30.9416  -23.0892   19.1279 C   0  0  0  0  0  0  0  0  0  0  0  0
  -18.3671  -26.7142   22.8321 C   0  0  0  0  0  0  0  0  0  0  0  0
  -22.8146  -31.0771   25.0805 C   0  0  0  0  0  0  0  0  0  0  0  0
  -21.0689  -29.3495   25.5665 C   0  0  0  0  0  0  0  0  0  0  0  0
  -20.4554  -31.4258   24.3274 C   0  0  0  0  0  0  0  0  0  0  0  0
  -20.3985  -26.4493   19.6260 C   0  0  0  0  0  0  0  0  0  0  0  0
  -28.7502  -25.4359   19.9245 C   0  0  0  0  0  0  0  0  0  1  0  0
  -21.8311  -29.6503   23.1665 C   0  0  1  0  0  0  0  0  0  0  0  0
  -19.3096  -27.2035   21.7436 C   0  0  2  0  0  0  0  0  0  0  0  0
  -23.3508  -20.6033   22.2509 C   0  0  0  0  0  0  0  0  0  0  0  0
  -21.5652  -30.3692   24.5193 C   0  0  0  0  0  0  0  0  0  0  0  0
  -25.7887  -12.2781   21.3921 N   0  0  0  0  0  0  0  0  0  0  0  0
  -26.1557  -12.9563   20.2915 N   0  0  0  0  0  0  0  0  0  0  0  0
  -27.8124  -21.9305   20.5748 N   0  0  0  0  0  0  0  0  0  0  0  0
  -23.6072  -30.3019   21.5713 N   0  0  0  0  0  0  0  0  0  0  0  0
  -28.4992  -15.5625   21.8080 N   0  0  0  0  0  0  0  0  0  0  0  0
  -25.6509  -13.2462   17.9955 N   0  0  0  0  0  0  0  0  0  0  0  0
  -22.6480  -10.1525   19.3401 N   0  0  0  0  0  0  0  0  0  0  0  0
  -27.1127  -17.4123   22.2750 N   0  0  0  0  0  0  0  0  0  0  0  0
  -25.2637  -33.4320   21.1370 N   0  0  0  0  0  0  0  0  0  0  0  0
  -20.6587  -28.9941   22.5981 N   0  0  0  0  0  0  0  0  0  0  0  0
  -19.5101  -26.0986   20.7638 N   0  3  0  0  0  0  0  0  0  0  0  0
  -29.3895  -20.6434   19.3333 O   0  0  0  0  0  0  0  0  0  0  0  0
  -23.3928  -11.3665   17.5428 O   0  0  0  0  0  0  0  0  0  0  0  0
  -25.7097  -31.6073   22.5132 O   0  0  0  0  0  0  0  0  0  0  0  0
  -21.6457  -31.5488   21.7566 O   0  0  0  0  0  0  0  0  0  0  0  0
  -21.5736  -26.8650   22.5163 O   0  0  0  0  0  0  0  0  0  0  0  0
  -29.4106  -17.6687   22.0862 O   0  0  0  0  0  0  0  0  0  0  0  0
  -22.1484   -8.0639   24.4804 O   0  0  0  0  0  0  0  0  0  0  0  0
  -28.1737  -26.1962   20.9855 O   0  0  0  0  0  0  0  0  0  1  0  0
  -21.0807   -2.9450   22.7307 F   0  0  0  0  0  0  0  0  0  0  0  0
  -23.1760   -5.8677   25.8085 F   0  0  0  0  0  0  0  0  0  0  0  0
  -25.1385  -22.4705   21.1349 F   0  0  0  0  0  0  0  0  0  0  0  0
  -22.6524  -19.5610   22.7909 F   0  0  0  0  0  0  0  0  0  0  0  0
  -23.1894  -21.6345   23.1317 F   0  0  0  0  0  0  0  0  0  0  0  0
  -22.6597  -20.9662   21.1314 F   0  0  0  0  0  0  0  0  0  0  0  0
  1  2  1  0  0  0  0
  1  5  2  0  0  0  0
  2  6  2  0  0  0  0
  3  8  2  0  0  0  0
  3 17  1  0  0  0  0
  4  9  1  0  0  0  0
  4 17  2  0  0  0  0
  5 19  1  0  0  0  0
  6 21  1  0  0  0  0
  7 10  2  0  0  0  0
  7 20  1  0  0  0  0
  8 26  1  0  0  0  0
  9 26  2  0  0  0  0
 10 27  1  0  0  0  0
 11 12  2  0  0  0  0
 11 28  1  0  0  0  0
 12 29  1  0  0  0  0
 13 22  1  0  0  0  0
 13 27  2  0  0  0  0
 14 23  2  0  0  0  0
 14 25  1  0  0  0  0
 15 24  1  0  0  0  0
 15 25  2  0  0  0  0
 16 29  2  0  0  0  0
 16 30  1  0  0  0  0
 17 32  1  0  0  0  0
 18 32  1  0  0  0  0
 18 33  2  0  0  0  0
 18 35  1  0  0  0  0
 19 21  2  0  0  0  0
 19 40  1  0  0  0  0
 20 22  2  0  0  0  0
 20 41  1  0  0  0  0
 21 50  1  0  0  0  0
 22 42  1  0  0  0  0
 23 31  1  0  0  0  0
 23 64  1  0  0  0  0
 24 31  2  0  0  0  0
 24 68  1  0  0  0  0
 25 73  1  0  0  0  0
 26 83  1  0  0  0  0
 27 84  1  0  0  0  0
 28 30  2  0  0  0  0
 28 83  1  0  0  0  0
 29 85  1  0  0  0  0
 30 86  1  0  0  0  0
 31 87  1  0  0  0  0
 32 66  2  0  0  0  0
 33 67  1  0  0  0  0
 33 71  1  0  0  0  0
 34 51  1  0  0  0  0
 34 68  1  0  0  0  0
 34 77  2  0  0  0  0
 35 72  1  0  0  0  0
 35 78  2  0  0  0  0
 36 52  1  0  0  0  0
 36 74  1  0  0  0  0
 36 79  2  0  0  0  0
 37 62  1  0  0  0  0
 37 69  1  0  0  0  0
 37 80  2  0  0  0  0
 38 63  1  0  0  0  0
 38 75  1  0  0  0  0
 38 81  2  0  0  0  0
 39 70  1  0  0  0  0
 39 73  1  0  0  0  0
 39 82  2  0  0  0  0
 40 43  1  0  0  0  0
 41 52  1  0  0  0  0
 42 69  1  0  0  0  0
 43 45  1  0  0  0  0
 44 46  1  0  0  0  0
 44 47  1  0  0  0  0
 45 50  1  0  0  0  0
 46 54  1  0  0  0  0
 47 70  1  0  0  0  0
 48 53  1  0  0  0  0
 48 68  1  0  0  0  0
 49 54  1  0  0  0  0
 49 70  1  0  0  0  0
 50 74  1  0  0  0  0
 51 53  1  0  0  0  0
 51 55  1  0  0  0  0
 52 69  1  0  0  0  0
 53 61  1  0  0  0  0
 54 67  1  0  0  0  0
 56 63  1  0  0  0  0
 57 65  1  0  0  0  0
 58 65  1  0  0  0  0
 59 65  1  0  0  0  0
 60 76  1  0  0  0  0
 61 84  1  0  0  0  0
 62 65  1  0  0  0  0
 62 75  1  0  0  0  0
 63 76  1  0  0  0  0
 64 88  1  0  0  0  0
 64 89  1  0  0  0  0
 64 90  1  0  0  0  0
 66 67  1  0  0  0  0
M  CHG  1  76   1
M  ISO  4  39 100  61 101  73 100  84 101
M  END
> <Batch ID>
0066

> <Smiles>
CNC(C)C(=O)NC(C(=O)N1Cc2cc([101O:1][101CH2:1]C3CN(c4cc([100NH:0][100C:0](=O)N5CCCC(n6nc(-c7ccc(Oc8ccc(F)cc8F)cc7)c(C(N)=O)c6N)C5)cc(C(F)(F)F)c4F)C(=O)C3C)ccc2CC1C(=O)NC1CCCc2ccccc21)C(C)(C)C

> <Shape>
0.307

> <Color>
0.100

> <Negative vol penalty>
0.000

$$$$

  -OEChem-04042323213D

 85 94  0     1  0  0  0  0  0999 V2000
  -30.4514  -34.1800   17.8591 C   0  0  0  0  0  0  0  0  0  0  0  0
  -30.2919  -32.9027   18.3867 C   0  0  0  0  0  0  0  0  0  0  0  0
  -22.4763  -12.2619   21.8112 C   0  0  0  0  0  0  0  0  0  0  0  0
  -23.9518  -10.4284   22.3572 C   0  0  0  0  0  0  0  0  0  0  0  0
  -29.7158  -35.2445   18.3785 C   0  0  0  0  0  0  0  0  0  0  0  0
  -29.3974  -32.6893   19.4349 C   0  0  0  0  0  0  0  0  0  0  0  0
  -26.5394  -28.5667   18.7410 C   0  0  0  0  0  0  0  0  0  0  0  0
  -30.8182  -19.7364   20.5022 C   0  0  0  0  0  0  0  0  0  0  0  0
  -30.6058  -18.3583   20.4667 C   0  0  0  0  0  0  0  0  0  0  0  0
  -21.6332  -11.8960   22.8604 C   0  0  0  0  0  0  0  0  0  0  0  0
  -23.1087  -10.0624   23.4064 C   0  0  0  0  0  0  0  0  0  0  0  0
  -27.1299  -27.3312   19.0029 C   0  0  0  0  0  0  0  0  0  0  0  0
  -20.1831   -8.4122   23.7920 C   0  0  0  0  0  0  0  0  0  0  0  0
  -19.8766   -7.0590   23.9352 C   0  0  0  0  0  0  0  0  0  0  0  0
  -26.0393  -27.2726   21.1538 C   0  0  0  0  0  0  0  0  0  0  0  0
  -28.4474  -20.0943   20.7989 C   0  0  0  0  0  0  0  0  0  0  0  0
  -20.8520   -7.0720   26.1456 C   0  0  0  0  0  0  0  0  0  0  0  0
  -23.6356  -11.5281   21.5596 C   0  0  0  0  0  0  0  0  0  0  0  0
  -24.1807  -11.9743   19.1077 C   0  0  0  0  0  0  0  0  0  0  0  0
  -28.8047  -35.0422   19.4272 C   0  0  0  0  0  0  0  0  0  0  0  0
  -25.7017  -29.1706   19.6897 C   0  0  0  0  0  0  0  0  0  0  0  0
  -28.6499  -33.7523   19.9698 C   0  0  0  0  0  0  0  0  0  0  0  0
  -25.4374  -28.5147   20.9005 C   0  0  0  0  0  0  0  0  0  0  0  0
  -28.2349  -18.7161   20.7633 C   0  0  0  0  0  0  0  0  0  0  0  0
  -29.7390  -20.6044   20.6683 C   0  0  0  0  0  0  0  0  0  0  0  0
  -29.3141  -17.8482   20.5972 C   0  0  0  0  0  0  0  0  0  0  0  0
  -21.9494  -10.7962   23.6581 C   0  0  0  0  0  0  0  0  0  0  0  0
  -26.8821  -26.6853   20.2106 C   0  0  0  0  0  0  0  0  0  0  0  0
  -20.8241   -9.0953   24.8255 C   0  0  0  0  0  0  0  0  0  0  0  0
  -20.2109   -6.3889   25.1120 C   0  0  0  0  0  0  0  0  0  0  0  0
  -21.1585   -8.4252   26.0023 C   0  0  0  0  0  0  0  0  0  0  0  0
  -24.5066  -11.9053   20.4755 C   0  0  0  0  0  0  0  0  0  0  0  0
  -25.3430  -12.3787   18.4978 C   0  0  0  0  0  0  0  0  0  0  0  0
  -29.4939  -24.2759   20.7220 C   0  0  0  0  0  0  0  0  0  0  0  0
  -31.1944  -22.6743   20.5927 C   0  0  0  0  0  0  0  0  0  0  0  0
  -28.8224  -25.4072   20.4800 C   0  0  0  0  0  0  0  0  0  1  0  0
  -22.9383  -11.6977   18.4476 C   0  0  0  0  0  0  0  0  0  0  0  0
  -25.7841  -31.8763   21.3559 C   0  0  0  0  0  0  0  0  0  0  0  0
  -22.8224  -30.9368   22.2874 C   0  0  0  0  0  0  0  0  0  0  0  0
  -21.2253  -27.8548   23.2711 C   0  0  0  0  0  0  0  0  0  0  0  0
  -30.0944  -15.4607   20.4031 C   0  0  0  0  0  0  0  0  0  0  0  0
  -28.0668  -36.2323   19.9873 C   0  0  0  0  0  0  0  0  0  0  0  0
  -25.0512  -30.4912   19.3810 C   0  0  0  0  0  0  0  0  0  0  0  0
  -24.5294  -29.1111   21.9438 C   0  0  0  0  0  0  0  0  0  0  0  0
  -30.9785  -24.1634   20.7316 C   0  0  0  0  0  0  0  0  0  0  0  0
  -28.8602  -22.9424   20.9136 C   0  0  0  0  0  0  0  0  0  0  0  0
  -26.8641  -35.8534   20.8478 C   0  0  0  0  0  0  0  0  0  0  0  0
  -30.1011  -12.1863   19.0047 C   0  0  0  0  0  0  0  0  0  0  0  0
  -27.2376  -34.7477   21.8300 C   0  0  0  0  0  0  0  0  0  0  0  0
  -28.6365  -11.7513   19.0932 C   0  0  0  0  0  0  0  0  0  0  0  0
  -30.5193  -13.0196   20.2149 C   0  0  0  0  0  0  0  0  0  0  0  0
  -28.1931  -13.7386   20.5902 C   0  0  0  0  0  0  0  0  0  0  0  0
  -27.6712  -33.4762   21.0905 C   0  0  1  0  0  0  0  0  0  0  0  0
  -24.6243  -31.2538   20.6314 C   0  0  1  0  0  0  0  0  0  0  0  0
  -27.7075  -12.9514   19.3621 C   0  0  2  0  0  0  0  0  0  0  0  0
  -26.8411  -18.1971   20.9077 C   0  0  0  0  0  0  0  0  0  0  0  0
  -18.8248  -27.1398   23.1176 C   0  0  0  0  0  0  0  0  0  0  0  0
  -22.6304  -31.9802   25.1482 C   0  0  0  0  0  0  0  0  0  0  0  0
  -21.1216  -30.0532   25.6758 C   0  0  0  0  0  0  0  0  0  0  0  0
  -20.4348  -31.7435   23.9746 C   0  0  0  0  0  0  0  0  0  0  0  0
  -21.9284  -25.4150   21.7506 C   0  0  0  0  0  0  0  0  0  0  0  0
  -22.2723  -30.0991   23.4164 C   0  0  1  0  0  0  0  0  0  0  0  0
  -20.2009  -27.0675   22.4742 C   0  0  2  0  0  0  0  0  0  0  0  0
  -21.6408  -30.9645   24.5432 C   0  0  0  0  0  0  0  0  0  0  0  0
  -25.7765  -12.2390   20.7205 N   0  0  0  0  0  0  0  0  0  0  0  0
  -26.2588  -12.5215   19.4983 N   0  0  0  0  0  0  0  0  0  0  0  0
  -29.9576  -22.0184   20.7075 N   0  0  0  0  0  0  0  0  0  0  0  0
  -23.9221  -30.4069   21.5978 N   0  0  0  0  0  0  0  0  0  0  0  0
  -29.5963  -14.1406   20.4054 N   0  0  0  0  0  0  0  0  0  0  0  0
  -25.6607  -12.6225   17.2086 N   0  0  0  0  0  0  0  0  0  0  0  0
  -22.6956  -10.3918   18.0005 N   0  0  0  0  0  0  0  0  0  0  0  0
  -29.1193  -16.4451   20.5602 N   0  0  0  0  0  0  0  0  0  0  0  0
  -26.5153  -32.7639   20.5896 N   0  0  0  0  0  0  0  0  0  0  0  0
  -21.3504  -29.1470   22.8065 N   0  0  0  0  0  0  0  0  0  0  0  0
  -20.6033  -25.6353   22.3850 N   0  3  0  0  0  0  0  0  0  0  0  0
  -32.3145  -22.2044   20.4380 O   0  0  0  0  0  0  0  0  0  0  0  0
  -22.0762  -12.5861   18.2452 O   0  0  0  0  0  0  0  0  0  0  0  0
  -25.9989  -31.5749   22.5241 O   0  0  0  0  0  0  0  0  0  0  0  0
  -22.2913  -32.0182   22.0224 O   0  0  0  0  0  0  0  0  0  0  0  0
  -21.8493  -27.3729   24.2139 O   0  0  0  0  0  0  0  0  0  0  0  0
  -31.2939  -15.7015   20.2441 O   0  0  0  0  0  0  0  0  0  0  0  0
  -21.1271  -10.4389   24.6821 O   0  0  0  0  0  0  0  0  0  0  0  0
  -27.4577  -25.4796   20.4690 O   0  0  0  0  0  0  0  0  0  1  0  0
  -19.9151   -5.0898   25.2500 F   0  0  0  0  0  0  0  0  0  0  0  0
  -21.7734   -9.0764   26.9991 F   0  0  0  0  0  0  0  0  0  0  0  0
  1  2  1  0  0  0  0
  1  5  2  0  0  0  0
  2  6  2  0  0  0  0
  3 10  2  0  0  0  0
  3 18  1  0  0  0  0
  4 11  1  0  0  0  0
  4 18  2  0  0  0  0
  5 20  1  0  0  0  0
  6 22  1  0  0  0  0
  7 12  2  0  0  0  0
  7 21  1  0  0  0  0
  8  9  2  0  0  0  0
  8 25  1  0  0  0  0
  9 26  1  0  0  0  0
 10 27  1  0  0  0  0
 11 27  2  0  0  0  0
 12 28  1  0  0  0  0
 13 14  2  0  0  0  0
 13 29  1  0  0  0  0
 14 30  1  0  0  0  0
 15 23  1  0  0  0  0
 15 28  2  0  0  0  0
 16 24  1  0  0  0  0
 16 25  2  0  0  0  0
 17 30  2  0  0  0  0
 17 31  1  0  0  0  0
 18 32  1  0  0  0  0
 19 32  1  0  0  0  0
 19 33  2  0  0  0  0
 19 37  1  0  0  0  0
 20 22  2  0  0  0  0
 20 42  1  0  0  0  0
 21 23  2  0  0  0  0
 21 43  1  0  0  0  0
 22 53  1  0  0  0  0
 23 44  1  0  0  0  0
 24 26  2  0  0  0  0
 24 56  1  0  0  0  0
 25 67  1  0  0  0  0
 26 72  1  0  0  0  0
 27 82  1  0  0  0  0
 28 83  1  0  0  0  0
 29 31  2  0  0  0  0
 29 82  1  0  0  0  0
 30 84  1  0  0  0  0
 31 85  1  0  0  0  0
 32 65  2  0  0  0  0
 33 66  1  0  0  0  0
 33 70  1  0  0  0  0
 34 36  2  0  0  0  0
 34 45  1  0  0  0  0
 34 46  1  0  0  0  0
 35 45  1  0  0  0  0
 35 67  1  0  0  0  0
 35 76  2  0  0  0  0
 36 83  1  0  0  0  0
 37 71  1  0  0  0  0
 37 77  2  0  0  0  0
 38 54  1  0  0  0  0
 38 73  1  0  0  0  0
 38 78  2  0  0  0  0
 39 62  1  0  0  0  0
 39 68  1  0  0  0  0
 39 79  2  0  0  0  0
 40 63  1  0  0  0  0
 40 74  1  0  0  0  0
 40 80  2  0  0  0  0
 41 69  1  0  0  0  0
 41 72  1  0  0  0  0
 41 81  2  0  0  0  0
 42 47  1  0  0  0  0
 43 54  1  0  0  0  0
 44 68  1  0  0  0  0
 46 67  1  0  0  0  0
 47 49  1  0  0  0  0
 48 50  1  0  0  0  0
 48 51  1  0  0  0  0
 49 53  1  0  0  0  0
 50 55  1  0  0  0  0
 51 69  1  0  0  0  0
 52 55  1  0  0  0  0
 52 69  1  0  0  0  0
 53 73  1  0  0  0  0
 54 68  1  0  0  0  0
 55 66  1  0  0  0  0
 57 63  1  0  0  0  0
 58 64  1  0  0  0  0
 59 64  1  0  0  0  0
 60 64  1  0  0  0  0
 61 75  1  0  0  0  0
 62 64  1  0  0  0  0
 62 74  1  0  0  0  0
 63 75  1  0  0  0  0
 65 66  1  0  0  0  0
M  CHG  1  75   1
M  ISO  4  36 101  41 100  72 100  83 101
M  END
> <Batch ID>
0066

> <Smiles>
CNC(C)C(=O)NC(C(=O)N1Cc2cc([101O:1][101CH:1]=C3CC(=O)N(c4ccc([100NH:0][100C:0](=O)N5CCCC(n6nc(-c7ccc(Oc8ccc(F)cc8F)cc7)c(C(N)=O)c6N)C5)c(C)c4)C3)ccc2CC1C(=O)NC1CCCc2ccccc21)C(C)(C)C

> <Shape>
0.279

> <Color>
0.092

> <Negative vol penalty>
0.000

$$$$

  -OEChem-04042323213D

 89 97  0     1  0  0  0  0  0999 V2000
  -18.9498  -23.8921   23.4793 C   0  0  0  0  0  0  0  0  0  0  0  0
  -20.2707  -23.9280   23.0439 C   0  0  0  0  0  0  0  0  0  0  0  0
  -22.5083  -12.1641   21.0265 C   0  0  0  0  0  0  0  0  0  0  0  0
  -22.4664  -14.4698   20.3061 C   0  0  0  0  0  0  0  0  0  0  0  0
  -29.6753  -19.9949   19.1732 C   0  0  0  0  0  0  0  0  0  0  0  0
  -31.6236  -19.3225   20.4336 C   0  0  0  0  0  0  0  0  0  0  0  0
  -18.1764  -25.0519   23.4522 C   0  0  0  0  0  0  0  0  0  0  0  0
  -20.8185  -25.1235   22.5802 C   0  0  0  0  0  0  0  0  0  0  0  0
  -25.4573  -25.9785   24.4227 C   0  0  0  0  0  0  0  0  0  0  0  0
  -29.3179  -18.6564   19.0114 C   0  0  0  0  0  0  0  0  0  0  0  0
  -31.2663  -17.9839   20.2719 C   0  0  0  0  0  0  0  0  0  0  0  0
  -21.3927  -12.3952   21.8311 C   0  0  0  0  0  0  0  0  0  0  0  0
  -21.3507  -14.7009   21.1108 C   0  0  0  0  0  0  0  0  0  0  0  0
  -26.5127  -25.2776   23.8409 C   0  0  0  0  0  0  0  0  0  0  0  0
  -20.7377  -13.7909   24.8390 C   0  0  0  0  0  0  0  0  0  0  0  0
  -20.7596  -13.2823   26.1376 C   0  0  0  0  0  0  0  0  0  0  0  0
  -27.0760  -27.2241   22.5321 C   0  0  0  0  0  0  0  0  0  0  0  0
  -18.7965  -11.9601   25.6531 C   0  0  0  0  0  0  0  0  0  0  0  0
  -23.0452  -13.2014   20.2640 C   0  0  0  0  0  0  0  0  0  0  0  0
  -30.8281  -20.3280   19.8843 C   0  0  0  0  0  0  0  0  0  0  0  0
  -24.2053  -12.5440   18.0892 C   0  0  0  0  0  0  0  0  0  0  0  0
  -18.7179  -26.2643   22.9969 C   0  0  0  0  0  0  0  0  0  0  0  0
  -25.1962  -27.3063   24.0550 C   0  0  0  0  0  0  0  0  0  0  0  0
  -20.0512  -26.3002   22.5457 C   0  0  0  0  0  0  0  0  0  0  0  0
  -26.0183  -27.9405   23.1126 C   0  0  0  0  0  0  0  0  0  0  0  0
  -30.1134  -17.6509   19.5607 C   0  0  0  0  0  0  0  0  0  0  0  0
  -20.8138  -13.6636   21.8733 C   0  0  0  0  0  0  0  0  0  0  0  0
  -27.3205  -25.8994   22.8933 C   0  0  0  0  0  0  0  0  0  0  0  0
  -19.7450  -13.3841   23.9474 C   0  0  0  0  0  0  0  0  0  0  0  0
  -19.7891  -12.3669   26.5447 C   0  0  0  0  0  0  0  0  0  0  0  0
  -18.7745  -12.4687   24.3544 C   0  0  0  0  0  0  0  0  0  0  0  0
  -24.1980  -12.9635   19.4330 C   0  0  0  0  0  0  0  0  0  0  0  0
  -25.5367  -12.4665   17.7609 C   0  0  0  0  0  0  0  0  0  0  0  0
  -31.2026  -21.7302   20.0536 C   0  0  0  0  0  0  0  0  0  0  0  0
  -23.1067  -12.2507   17.2158 C   0  0  0  0  0  0  0  0  0  0  0  0
  -30.3753  -22.8402   19.4791 C   0  0  0  0  0  0  0  0  0  0  0  0
  -22.7490  -28.8200   22.7045 C   0  0  0  0  0  0  0  0  0  0  0  0
  -24.5280  -31.4550   23.3482 C   0  0  0  0  0  0  0  0  0  0  0  0
  -27.6097  -32.7965   23.9400 C   0  0  0  0  0  0  0  0  0  0  0  0
  -30.4269  -15.1713   19.8764 C   0  0  0  0  0  0  0  0  0  0  0  0
  -17.8287  -27.4813   22.9419 C   0  0  0  0  0  0  0  0  0  0  0  0
  -24.0704  -28.0572   24.7115 C   0  0  0  0  0  0  0  0  0  0  0  0
  -25.7925  -29.3708   22.6983 C   0  0  0  0  0  0  0  0  0  0  0  0
  -18.5976  -28.7909   22.7874 C   0  0  0  0  0  0  0  0  0  0  0  0
  -29.8348  -11.6641   19.7145 C   0  0  0  0  0  0  0  0  0  0  0  0
  -19.6592  -28.6616   21.6996 C   0  0  0  0  0  0  0  0  0  0  0  0
  -28.3236  -11.5613   19.4956 C   0  0  0  0  0  0  0  0  0  0  0  0
  -30.1955  -12.8199   20.6461 C   0  0  0  0  0  0  0  0  0  0  0  0
  -28.1319  -14.0216   20.0406 C   0  0  0  0  0  0  0  0  0  0  0  0
  -20.6887  -27.5835   22.0589 C   0  0  1  0  0  0  0  0  0  0  0  0
  -23.5791  -29.2410   23.8841 C   0  0  1  0  0  0  0  0  0  0  0  0
  -27.7245  -12.9121   19.0574 C   0  0  2  0  0  0  0  0  0  0  0  0
  -28.7516  -34.9846   24.3937 C   0  0  0  0  0  0  0  0  0  0  0  0
  -30.1409  -26.1093   20.9875 C   0  0  0  0  0  0  0  0  0  0  0  0
  -24.2540  -32.2059   20.4036 C   0  0  0  0  0  0  0  0  0  0  0  0
  -26.1463  -33.8163   20.7100 C   0  0  0  0  0  0  0  0  0  0  0  0
  -24.0298  -34.1227   21.9942 C   0  0  0  0  0  0  0  0  0  0  0  0
  -28.5941  -31.8694   26.5725 C   0  0  0  0  0  0  0  0  0  0  0  0
  -25.5916  -32.2329   22.6117 C   0  0  1  0  0  0  0  0  0  0  0  0
  -28.1028  -33.7545   25.0093 C   0  0  2  0  0  0  0  0  0  0  0  0
  -28.5179  -24.3784   20.0463 C   0  0  2  0  0  0  0  0  0  0  0  0
  -28.7107  -25.5787   20.9906 C   0  0  1  0  0  0  0  0  0  1  0  0
  -25.0088  -33.0669   21.4360 C   0  0  0  0  0  0  0  0  0  0  0  0
  -27.0884  -23.8580   20.0526 C   0  0  0  0  0  0  0  0  0  0  0  0
  -25.4272  -13.1400   19.9247 N   0  0  0  0  0  0  0  0  0  0  0  0
  -26.2194  -12.8298   18.8843 N   0  0  0  0  0  0  0  0  0  0  0  0
  -24.6753  -30.0608   23.3640 N   0  0  0  0  0  0  0  0  0  0  0  0
  -29.5972  -14.0673   20.1658 N   0  0  0  0  0  0  0  0  0  0  0  0
  -26.1783  -12.1237   16.6237 N   0  0  0  0  0  0  0  0  0  0  0  0
  -21.8034  -12.3819   17.7142 N   0  0  0  0  0  0  0  0  0  0  0  0
  -29.7494  -16.2914   19.3960 N   0  0  0  0  0  0  0  0  0  0  0  0
  -29.4270  -23.2998   20.3625 N   0  0  0  0  0  0  0  0  0  0  0  0
  -21.6266  -28.0869   23.0394 N   0  0  0  0  0  0  0  0  0  0  0  0
  -26.2885  -33.0257   23.6188 N   0  0  0  0  0  0  0  0  0  0  0  0
  -29.1049  -33.0828   25.8843 N   0  3  0  0  0  0  0  0  0  0  0  0
  -32.2067  -22.1016   20.6546 O   0  0  0  0  0  0  0  0  0  0  0  0
  -23.2762  -11.8673   16.0335 O   0  0  0  0  0  0  0  0  0  0  0  0
  -30.6250  -23.2138   18.3445 O   0  0  0  0  0  0  0  0  0  0  0  0
  -23.1001  -29.1381   21.5744 O   0  0  0  0  0  0  0  0  0  0  0  0
  -23.6044  -32.0625   23.8956 O   0  0  0  0  0  0  0  0  0  0  0  0
  -28.3261  -31.9337   23.4370 O   0  0  0  0  0  0  0  0  0  0  0  0
  -31.6514  -15.1172   20.0167 O   0  0  0  0  0  0  0  0  0  0  0  0
  -19.7250  -13.8894   22.6582 O   0  0  0  0  0  0  0  0  0  0  0  0
  -28.3509  -25.2173   22.3233 O   0  0  0  0  0  0  0  0  0  1  0  0
  -19.8113  -11.8774   27.7913 F   0  0  0  0  0  0  0  0  0  0  0  0
  -17.8191  -12.0733   23.5020 F   0  0  0  0  0  0  0  0  0  0  0  0
  -26.9543  -22.8052   19.2153 F   0  0  0  0  0  0  0  0  0  0  0  0
  -26.7352  -23.4350   21.2878 F   0  0  0  0  0  0  0  0  0  0  0  0
  -26.2002  -24.8009   19.6737 F   0  0  0  0  0  0  0  0  0  0  0  0
  1  2  1  0  0  0  0
  1  7  2  0  0  0  0
  2  8  2  0  0  0  0
  3 12  2  0  0  0  0
  3 19  1  0  0  0  0
  4 13  1  0  0  0  0
  4 19  2  0  0  0  0
  5 10  2  0  0  0  0
  5 20  1  0  0  0  0
  6 11  1  0  0  0  0
  6 20  2  0  0  0  0
  7 22  1  0  0  0  0
  8 24  1  0  0  0  0
  9 14  2  0  0  0  0
  9 23  1  0  0  0  0
 10 26  1  0  0  0  0
 11 26  2  0  0  0  0
 12 27  1  0  0  0  0
 13 27  2  0  0  0  0
 14 28  1  0  0  0  0
 15 16  2  0  0  0  0
 15 29  1  0  0  0  0
 16 30  1  0  0  0  0
 17 25  1  0  0  0  0
 17 28  2  0  0  0  0
 18 30  2  0  0  0  0
 18 31  1  0  0  0  0
 19 32  1  0  0  0  0
 20 34  1  0  0  0  0
 21 32  1  0  0  0  0
 21 33  2  0  0  0  0
 21 35  1  0  0  0  0
 22 24  2  0  0  0  0
 22 41  1  0  0  0  0
 23 25  2  0  0  0  0
 23 42  1  0  0  0  0
 24 50  1  0  0  0  0
 25 43  1  0  0  0  0
 26 71  1  0  0  0  0
 27 83  1  0  0  0  0
 28 84  1  0  0  0  0
 29 31  2  0  0  0  0
 29 83  1  0  0  0  0
 30 85  1  0  0  0  0
 31 86  1  0  0  0  0
 32 65  2  0  0  0  0
 33 66  1  0  0  0  0
 33 69  1  0  0  0  0
 34 36  1  0  0  0  0
 34 76  2  0  0  0  0
 35 70  1  0  0  0  0
 35 77  2  0  0  0  0
 36 72  1  0  0  0  0
 36 78  2  0  0  0  0
 37 51  1  0  0  0  0
 37 73  1  0  0  0  0
 37 79  2  0  0  0  0
 38 59  1  0  0  0  0
 38 67  1  0  0  0  0
 38 80  2  0  0  0  0
 39 60  1  0  0  0  0
 39 74  1  0  0  0  0
 39 81  2  0  0  0  0
 40 68  1  0  0  0  0
 40 71  1  0  0  0  0
 40 82  2  0  0  0  0
 41 44  1  0  0  0  0
 42 51  1  0  0  0  0
 43 67  1  0  0  0  0
 44 46  1  0  0  0  0
 45 47  1  0  0  0  0
 45 48  1  0  0  0  0
 46 50  1  0  0  0  0
 47 52  1  0  0  0  0
 48 68  1  0  0  0  0
 49 52  1  0  0  0  0
 49 68  1  0  0  0  0
 50 73  1  0  0  0  0
 51 67  1  0  0  0  0
 52 66  1  0  0  0  0
 53 60  1  0  0  0  0
 54 62  1  0  0  0  0
 55 63  1  0  0  0  0
 56 63  1  0  0  0  0
 57 63  1  0  0  0  0
 58 75  1  0  0  0  0
 59 63  1  0  0  0  0
 59 74  1  0  0  0  0
 60 75  1  0  0  0  0
 61 62  1  0  0  0  0
 61 64  1  0  0  0  0
 61 72  1  0  0  0  0
 62 84  1  0  0  0  0
 64 87  1  0  0  0  0
 64 88  1  0  0  0  0
 64 89  1  0  0  0  0
 65 66  1  0  0  0  0
M  CHG  1  75   1
M  ISO  4  40 100  62 101  71 100  84 101
M  END
> <Batch ID>
0066

> <Smiles>
CNC(C)C(=O)NC(C(=O)N1Cc2cc([101O:1][101CH:1](C)C(NC(=O)C(=O)c3ccc([100NH:0][100C:0](=O)N4CCCC(n5nc(-c6ccc(Oc7ccc(F)cc7F)cc6)c(C(N)=O)c5N)C4)cc3)C(F)(F)F)ccc2CC1C(=O)NC1CCCc2ccccc21)C(C)(C)C

> <Shape>
0.256

> <Color>
0.080

> <Negative vol penalty>
0.000

$$$$

  -OEChem-04042323213D

 88 96  0     1  0  0  0  0  0999 V2000
  -29.3565  -31.4975   24.6437 C   0  0  0  0  0  0  0  0  0  0  0  0
  -28.8028  -30.2219   24.6820 C   0  0  0  0  0  0  0  0  0  0  0  0
  -23.1262   -9.8579   19.8680 C   0  0  0  0  0  0  0  0  0  0  0  0
  -23.9107   -9.7745   22.1515 C   0  0  0  0  0  0  0  0  0  0  0  0
  -32.4337  -17.6615   23.6936 C   0  0  0  0  0  0  0  0  0  0  0  0
  -29.7952  -32.0297   23.4319 C   0  0  0  0  0  0  0  0  0  0  0  0
  -28.6865  -29.4780   23.5083 C   0  0  0  0  0  0  0  0  0  0  0  0
  -30.1439  -24.6651   24.1062 C   0  0  0  0  0  0  0  0  0  0  0  0
  -31.8709  -16.8041   22.7483 C   0  0  0  0  0  0  0  0  0  0  0  0
  -22.4309   -8.6646   20.0632 C   0  0  0  0  0  0  0  0  0  0  0  0
  -23.2154   -8.5811   22.3468 C   0  0  0  0  0  0  0  0  0  0  0  0
  -29.2472  -23.8016   24.7339 C   0  0  0  0  0  0  0  0  0  0  0  0
  -19.5324   -7.6764   21.4969 C   0  0  0  0  0  0  0  0  0  0  0  0
  -18.2231   -7.6039   21.0217 C   0  0  0  0  0  0  0  0  0  0  0  0
  -28.5764  -22.9434   22.5815 C   0  0  0  0  0  0  0  0  0  0  0  0
  -29.6622  -17.5329   23.4022 C   0  0  0  0  0  0  0  0  0  0  0  0
  -18.8437   -5.7568   19.5934 C   0  0  0  0  0  0  0  0  0  0  0  0
  -23.8662  -10.4128   20.9121 C   0  0  0  0  0  0  0  0  0  0  0  0
  -31.6108  -18.4546   24.4934 C   0  0  0  0  0  0  0  0  0  0  0  0
  -24.1075  -12.9524   20.9229 C   0  0  0  0  0  0  0  0  0  0  0  0
  -29.6930  -31.2882   22.2443 C   0  0  0  0  0  0  0  0  0  0  0  0
  -30.2559  -24.6820   22.7085 C   0  0  0  0  0  0  0  0  0  0  0  0
  -29.1229  -30.0012   22.2794 C   0  0  0  0  0  0  0  0  0  0  0  0
  -29.4771  -23.8063   21.9386 C   0  0  0  0  0  0  0  0  0  0  0  0
  -30.4852  -16.7398   22.6025 C   0  0  0  0  0  0  0  0  0  0  0  0
  -30.2251  -18.3903   24.3476 C   0  0  0  0  0  0  0  0  0  0  0  0
  -22.4754   -8.0262   21.3026 C   0  0  0  0  0  0  0  0  0  0  0  0
  -28.4612  -22.9426   23.9714 C   0  0  0  0  0  0  0  0  0  0  0  0
  -20.4975   -6.7891   21.0202 C   0  0  0  0  0  0  0  0  0  0  0  0
  -17.8787   -6.6441   20.0700 C   0  0  0  0  0  0  0  0  0  0  0  0
  -20.1531   -5.8293   20.0685 C   0  0  0  0  0  0  0  0  0  0  0  0
  -24.5851  -11.6452   20.7109 C   0  0  0  0  0  0  0  0  0  0  0  0
  -25.1653  -13.7627   20.5900 C   0  0  0  0  0  0  0  0  0  0  0  0
  -32.4981  -18.9479   26.7187 C   0  0  0  0  0  0  0  0  0  0  0  0
  -32.2358  -19.3387   25.4703 C   0  0  0  0  0  0  0  0  0  0  0  0
  -22.8225  -13.3946   21.3801 C   0  0  0  0  0  0  0  0  0  0  0  0
  -29.7628  -26.8583   20.4448 C   0  0  0  0  0  0  0  0  0  0  0  0
  -31.0040  -24.5653   18.5151 C   0  0  0  0  0  0  0  0  0  0  0  0
  -31.6266  -21.2524   17.9820 C   0  0  0  0  0  0  0  0  0  0  0  0
  -27.9732  -19.2259   25.1144 C   0  0  0  0  0  0  0  0  0  0  0  0
  -30.5880  -15.0138   20.7704 C   0  0  0  0  0  0  0  0  0  0  0  0
  -30.1374  -31.9240   20.9510 C   0  0  0  0  0  0  0  0  0  0  0  0
  -31.2472  -25.6006   22.0481 C   0  0  0  0  0  0  0  0  0  0  0  0
  -29.5741  -23.7712   20.4360 C   0  0  0  0  0  0  0  0  0  0  0  0
  -30.3222  -30.9239   19.8125 C   0  0  0  0  0  0  0  0  0  0  0  0
  -29.5427  -12.6855   18.2878 C   0  0  0  0  0  0  0  0  0  0  0  0
  -29.1331  -29.9712   19.7407 C   0  0  0  0  0  0  0  0  0  0  0  0
  -28.1204  -12.3148   18.7143 C   0  0  0  0  0  0  0  0  0  0  0  0
  -30.4614  -12.8870   19.4915 C   0  0  0  0  0  0  0  0  0  0  0  0
  -28.5431  -13.4616   20.9264 C   0  0  0  0  0  0  0  0  0  0  0  0
  -29.0024  -29.1536   21.0315 C   0  0  1  0  0  0  0  0  0  0  0  0
  -30.9082  -25.8969   20.5905 C   0  0  1  0  0  0  0  0  0  0  0  0
  -27.5647  -13.3120   19.7499 C   0  0  2  0  0  0  0  0  0  0  0  0
  -33.9645  -20.7996   24.3463 C   0  0  0  0  0  0  0  0  0  0  0  0
  -32.6210  -19.6812   16.2968 C   0  0  0  0  0  0  0  0  0  0  0  0
  -27.7823  -19.7975   27.5627 C   0  0  0  0  0  0  0  0  0  0  0  0
  -25.8352  -20.2416   26.0238 C   0  0  0  0  0  0  0  0  0  0  0  0
  -28.5109  -24.8528   16.7795 C   0  0  0  0  0  0  0  0  0  0  0  0
  -29.0926  -22.6680   15.7041 C   0  0  0  0  0  0  0  0  0  0  0  0
  -30.6478  -24.6080   15.5035 C   0  0  0  0  0  0  0  0  0  0  0  0
  -33.6858  -20.3214   19.8930 C   0  0  0  0  0  0  0  0  0  0  0  0
  -32.5708  -20.7142   24.9580 C   0  0  0  0  0  0  0  0  0  0  0  0
  -27.9266  -21.6419   25.8893 C   0  0  0  0  0  0  0  0  0  1  0  0
  -30.4362  -23.4133   17.7216 C   0  0  1  0  0  0  0  0  0  0  0  0
  -32.8808  -20.5221   17.5370 C   0  0  2  0  0  0  0  0  0  0  0  0
  -27.3695  -20.2206   26.1418 C   0  0  0  0  0  0  0  0  0  0  0  0
  -29.6684  -23.8873   16.4553 C   0  0  0  0  0  0  0  0  0  0  0  0
  -25.8480  -11.6218   20.2767 N   0  0  0  0  0  0  0  0  0  0  0  0
  -26.1729  -12.9243   20.2131 N   0  0  0  0  0  0  0  0  0  0  0  0
  -30.5534  -24.6927   19.8366 N   0  0  0  0  0  0  0  0  0  0  0  0
  -29.8723  -13.8473   20.4273 N   0  0  0  0  0  0  0  0  0  0  0  0
  -25.3226  -15.1035   20.5857 N   0  0  0  0  0  0  0  0  0  0  0  0
  -21.8508  -12.4295   21.6778 N   0  0  0  0  0  0  0  0  0  0  0  0
  -29.3642  -19.1830   25.1455 N   0  0  0  0  0  0  0  0  0  0  0  0
  -29.9140  -15.8682   21.6425 N   0  0  0  0  0  0  0  0  0  0  0  0
  -29.9746  -28.0817   21.0514 N   0  0  0  0  0  0  0  0  0  0  0  0
  -31.5547  -22.5193   17.4424 N   0  0  0  0  0  0  0  0  0  0  0  0
  -33.3686  -19.6229   18.6208 N   0  3  0  0  0  0  0  0  0  0  0  0
  -22.5389  -14.6102   21.5046 O   0  0  0  0  0  0  0  0  0  0  0  0
  -28.7617  -26.5162   19.8265 O   0  0  0  0  0  0  0  0  0  0  0  0
  -31.8227  -25.3199   17.9842 O   0  0  0  0  0  0  0  0  0  0  0  0
  -30.7921  -20.7481   18.7301 O   0  0  0  0  0  0  0  0  0  0  0  0
  -27.2504  -18.5725   24.3643 O   0  0  0  0  0  0  0  0  0  0  0  0
  -31.7043  -15.2516   20.3022 O   0  0  0  0  0  0  0  0  0  0  0  0
  -21.7969   -6.8619   21.4936 O   0  0  0  0  0  0  0  0  0  0  0  0
  -27.5847  -22.0992   24.5815 O   0  0  0  0  0  0  0  0  0  1  0  0
  -16.6208   -6.5735   19.6149 F   0  0  0  0  0  0  0  0  0  0  0  0
  -21.0756   -4.9734   19.6078 F   0  0  0  0  0  0  0  0  0  0  0  0
  1  2  1  0  0  0  0
  1  6  2  0  0  0  0
  2  7  2  0  0  0  0
  3 10  2  0  0  0  0
  3 18  1  0  0  0  0
  4 11  1  0  0  0  0
  4 18  2  0  0  0  0
  5  9  2  0  0  0  0
  5 19  1  0  0  0  0
  6 21  1  0  0  0  0
  7 23  1  0  0  0  0
  8 12  2  0  0  0  0
  8 22  1  0  0  0  0
  9 25  1  0  0  0  0
 10 27  1  0  0  0  0
 11 27  2  0  0  0  0
 12 28  1  0  0  0  0
 13 14  2  0  0  0  0
 13 29  1  0  0  0  0
 14 30  1  0  0  0  0
 15 24  1  0  0  0  0
 15 28  2  0  0  0  0
 16 25  2  0  0  0  0
 16 26  1  0  0  0  0
 17 30  2  0  0  0  0
 17 31  1  0  0  0  0
 18 32  1  0  0  0  0
 19 26  2  0  0  0  0
 19 35  1  0  0  0  0
 20 32  1  0  0  0  0
 20 33  2  0  0  0  0
 20 36  1  0  0  0  0
 21 23  2  0  0  0  0
 21 42  1  0  0  0  0
 22 24  2  0  0  0  0
 22 43  1  0  0  0  0
 23 51  1  0  0  0  0
 24 44  1  0  0  0  0
 25 75  1  0  0  0  0
 26 74  1  0  0  0  0
 27 85  1  0  0  0  0
 28 86  1  0  0  0  0
 29 31  2  0  0  0  0
 29 85  1  0  0  0  0
 30 87  1  0  0  0  0
 31 88  1  0  0  0  0
 32 68  2  0  0  0  0
 33 69  1  0  0  0  0
 33 72  1  0  0  0  0
 34 35  2  0  0  0  0
 35 62  1  0  0  0  0
 36 73  1  0  0  0  0
 36 79  2  0  0  0  0
 37 52  1  0  0  0  0
 37 76  1  0  0  0  0
 37 80  2  0  0  0  0
 38 64  1  0  0  0  0
 38 70  1  0  0  0  0
 38 81  2  0  0  0  0
 39 65  1  0  0  0  0
 39 77  1  0  0  0  0
 39 82  2  0  0  0  0
 40 66  1  0  0  0  0
 40 74  1  0  0  0  0
 40 83  2  0  0  0  0
 41 71  1  0  0  0  0
 41 75  1  0  0  0  0
 41 84  2  0  0  0  0
 42 45  1  0  0  0  0
 43 52  1  0  0  0  0
 44 70  1  0  0  0  0
 45 47  1  0  0  0  0
 46 48  1  0  0  0  0
 46 49  1  0  0  0  0
 47 51  1  0  0  0  0
 48 53  1  0  0  0  0
 49 71  1  0  0  0  0
 50 53  1  0  0  0  0
 50 71  1  0  0  0  0
 51 76  1  0  0  0  0
 52 70  1  0  0  0  0
 53 69  1  0  0  0  0
 54 62  1  0  0  0  0
 55 65  1  0  0  0  0
 56 66  1  0  0  0  0
 57 66  1  0  0  0  0
 58 67  1  0  0  0  0
 59 67  1  0  0  0  0
 60 67  1  0  0  0  0
 61 78  1  0  0  0  0
 63 66  1  0  0  0  0
 63 86  1  0  0  0  0
 64 67  1  0  0  0  0
 64 77  1  0  0  0  0
 65 78  1  0  0  0  0
 68 69  1  0  0  0  0
M  CHG  1  78   1
M  ISO  4  41 100  63 101  75 100  86 101
M  END
> <Batch ID>
0066

> <Smiles>
C=C(CC)c1ccc([100NH:0][100C:0](=O)N2CCCC(n3nc(-c4ccc(Oc5ccc(F)cc5F)cc4)c(C(N)=O)c3N)C2)cc1NC(=O)C(C)(C)[101CH2:1][101O:1]c1ccc2c(c1)CN(C(=O)C(NC(=O)C(C)NC)C(C)(C)C)C(C(=O)NC1CCCc3ccccc31)C2

> <Shape>
0.227

> <Color>
0.190

> <Negative vol penalty>
0.000

$$$$

  -OEChem-04042323213D

 89 98  0     1  0  0  0  0  0999 V2000
  -23.1940  -30.5324   14.4522 C   0  0  0  0  0  0  0  0  0  0  0  0
  -24.1044  -29.7304   15.1329 C   0  0  0  0  0  0  0  0  0  0  0  0
  -23.1471   -9.8251   19.8875 C   0  0  0  0  0  0  0  0  0  0  0  0
  -23.8462   -9.8642   22.1999 C   0  0  0  0  0  0  0  0  0  0  0  0
  -22.8089  -31.7594   14.9907 C   0  0  0  0  0  0  0  0  0  0  0  0
  -24.6311  -30.1555   16.3521 C   0  0  0  0  0  0  0  0  0  0  0  0
  -24.6716  -26.4820   19.8376 C   0  0  0  0  0  0  0  0  0  0  0  0
  -29.4047  -19.4334   22.4513 C   0  0  0  0  0  0  0  0  0  0  0  0
  -29.2795  -18.0442   22.4455 C   0  0  0  0  0  0  0  0  0  0  0  0
  -22.4322   -8.6509   20.1235 C   0  0  0  0  0  0  0  0  0  0  0  0
  -23.1312   -8.6900   22.4359 C   0  0  0  0  0  0  0  0  0  0  0  0
  -25.6816  -25.5256   19.7430 C   0  0  0  0  0  0  0  0  0  0  0  0
  -19.9140   -7.7970   22.9580 C   0  0  0  0  0  0  0  0  0  0  0  0
  -19.1282   -7.7388   24.1089 C   0  0  0  0  0  0  0  0  0  0  0  0
  -30.9615  -17.8997   20.7171 C   0  0  0  0  0  0  0  0  0  0  0  0
  -26.9182  -26.6696   21.4696 C   0  0  0  0  0  0  0  0  0  0  0  0
  -20.4079   -5.8428   24.8866 C   0  0  0  0  0  0  0  0  0  0  0  0
  -23.8542  -10.4317   20.9257 C   0  0  0  0  0  0  0  0  0  0  0  0
  -31.0866  -19.2890   20.7228 C   0  0  0  0  0  0  0  0  0  0  0  0
  -24.1226  -12.9656   20.8026 C   0  0  0  0  0  0  0  0  0  0  0  0
  -23.3237  -32.1954   16.2218 C   0  0  0  0  0  0  0  0  0  0  0  0
  -24.7825  -27.5472   20.7428 C   0  0  0  0  0  0  0  0  0  0  0  0
  -24.2535  -31.3901   16.9069 C   0  0  0  0  0  0  0  0  0  0  0  0
  -25.9070  -27.6368   21.5756 C   0  0  0  0  0  0  0  0  0  0  0  0
  -30.3082  -20.0558   21.5899 C   0  0  0  0  0  0  0  0  0  0  0  0
  -30.0579  -17.2774   21.5785 C   0  0  0  0  0  0  0  0  0  0  0  0
  -22.4241   -8.0834   21.3977 C   0  0  0  0  0  0  0  0  0  0  0  0
  -26.8065  -25.6209   20.5570 C   0  0  0  0  0  0  0  0  0  0  0  0
  -20.9467   -6.8781   22.7712 C   0  0  0  0  0  0  0  0  0  0  0  0
  -19.3752   -6.7617   25.0733 C   0  0  0  0  0  0  0  0  0  0  0  0
  -21.1936   -5.9010   23.7356 C   0  0  0  0  0  0  0  0  0  0  0  0
  -24.5934  -11.6443   20.6824 C   0  0  0  0  0  0  0  0  0  0  0  0
  -25.2007  -13.7464   20.4643 C   0  0  0  0  0  0  0  0  0  0  0  0
  -31.5776  -22.2283   21.9075 C   0  0  0  0  0  0  0  0  0  0  0  0
  -32.0399  -19.9085   19.8104 C   0  0  0  0  0  0  0  0  0  0  0  0
  -22.8266  -13.4443   21.1859 C   0  0  0  0  0  0  0  0  0  0  0  0
  -24.9241  -30.7115   20.4766 C   0  0  0  0  0  0  0  0  0  0  0  0
  -24.7815  -30.6004   23.7153 C   0  0  0  0  0  0  0  0  0  0  0  0
  -25.3154  -28.8233   26.5796 C   0  0  0  0  0  0  0  0  0  0  0  0
  -30.6264  -14.9580   20.7763 C   0  0  0  0  0  0  0  0  0  0  0  0
  -22.9137  -33.5508   16.7410 C   0  0  0  0  0  0  0  0  0  0  0  0
  -23.6719  -28.5558   20.8515 C   0  0  0  0  0  0  0  0  0  0  0  0
  -26.0648  -28.7497   22.5780 C   0  0  0  0  0  0  0  0  0  0  0  0
  -23.2325  -33.7587   18.2193 C   0  0  0  0  0  0  0  0  0  0  0  0
  -29.6478  -12.5021   18.3913 C   0  0  0  0  0  0  0  0  0  0  0  0
  -24.6550  -33.3024   18.5279 C   0  0  0  0  0  0  0  0  0  0  0  0
  -28.2068  -12.1687   18.7846 C   0  0  0  0  0  0  0  0  0  0  0  0
  -30.5238  -12.7633   19.6152 C   0  0  0  0  0  0  0  0  0  0  0  0
  -29.2779  -22.3422   21.3714 C   0  0  0  0  0  0  0  0  0  0  0  0
  -28.5603  -13.4351   20.9430 C   0  0  0  0  0  0  0  0  0  0  0  0
  -24.8280  -31.8055   18.2439 C   0  0  1  0  0  0  0  0  0  0  0  0
  -24.1277  -29.8848   21.4460 C   0  0  1  0  0  0  0  0  0  0  0  0
  -29.8953  -23.7061   21.0884 C   0  0  2  0  0  0  0  0  0  0  0  0
  -27.6243  -13.2277   19.7411 C   0  0  2  0  0  0  0  0  0  0  0  0
  -31.1714  -23.7041   21.9537 C   0  0  0  0  0  0  0  0  0  0  0  0
  -33.4821  -19.5235   19.9534 C   0  0  0  0  0  0  0  0  0  0  0  0
  -30.9368  -24.0865   23.4219 C   0  0  0  0  0  0  0  0  0  0  0  0
  -32.2630  -24.5908   21.3521 C   0  0  0  0  0  0  0  0  0  0  0  0
  -25.1402  -29.0110   29.0758 C   0  0  0  0  0  0  0  0  0  0  0  0
  -27.3021  -32.3192   23.7605 C   0  0  0  0  0  0  0  0  0  0  0  0
  -27.6085  -31.6836   26.1626 C   0  0  0  0  0  0  0  0  0  0  0  0
  -25.5783  -32.9507   25.4587 C   0  0  0  0  0  0  0  0  0  0  0  0
  -23.3741  -26.5943   26.7272 C   0  0  0  0  0  0  0  0  0  0  0  0
  -28.9185  -24.8482   21.3305 C   0  0  0  0  0  0  0  0  0  1  0  0
  -25.7982  -30.5123   24.8278 C   0  0  1  0  0  0  0  0  0  0  0  0
  -24.4384  -28.5854   27.7956 C   0  0  2  0  0  0  0  0  0  0  0  0
  -26.5700  -31.8464   25.0323 C   0  0  0  0  0  0  0  0  0  0  0  0
  -25.8711  -11.5852   20.2976 N   0  0  0  0  0  0  0  0  0  0  0  0
  -26.2123  -12.8791   20.1731 N   0  0  0  0  0  0  0  0  0  0  0  0
  -30.4192  -21.4792   21.6136 N   0  0  0  0  0  0  0  0  0  0  0  0
  -24.9548  -29.7147   22.6423 N   0  0  0  0  0  0  0  0  0  0  0  0
  -29.9112  -13.7802   20.4729 N   0  0  0  0  0  0  0  0  0  0  0  0
  -25.3726  -15.0833   20.3905 N   0  0  0  0  0  0  0  0  0  0  0  0
  -21.8341  -12.5062   21.5010 N   0  0  0  0  0  0  0  0  0  0  0  0
  -29.9302  -15.8662   21.5732 N   0  0  0  0  0  0  0  0  0  0  0  0
  -24.2483  -31.0182   19.3109 N   0  0  0  0  0  0  0  0  0  0  0  0
  -25.0731  -30.0545   26.0081 N   0  0  0  0  0  0  0  0  0  0  0  0
  -24.0903  -27.1407   27.9085 N   0  3  0  0  0  0  0  0  0  0  0  0
  -32.7111  -21.8409   22.1563 O   0  0  0  0  0  0  0  0  0  0  0  0
  -31.7483  -20.7255   18.9372 O   0  0  0  0  0  0  0  0  0  0  0  0
  -22.5518  -14.6674   21.2312 O   0  0  0  0  0  0  0  0  0  0  0  0
  -26.0666  -31.0477   20.7654 O   0  0  0  0  0  0  0  0  0  0  0  0
  -23.8632  -31.4197   23.7988 O   0  0  0  0  0  0  0  0  0  0  0  0
  -26.1361  -28.0008   26.1790 O   0  0  0  0  0  0  0  0  0  0  0  0
  -31.7617  -15.1590   20.3374 O   0  0  0  0  0  0  0  0  0  0  0  0
  -21.7264   -6.9377   21.6284 O   0  0  0  0  0  0  0  0  0  0  0  0
  -27.7941  -24.6892   20.4662 O   0  0  0  0  0  0  0  0  0  1  0  0
  -18.6215   -6.7069   26.1792 F   0  0  0  0  0  0  0  0  0  0  0  0
  -22.1851   -5.0163   23.5623 F   0  0  0  0  0  0  0  0  0  0  0  0
  1  2  1  0  0  0  0
  1  5  2  0  0  0  0
  2  6  2  0  0  0  0
  3 10  2  0  0  0  0
  3 18  1  0  0  0  0
  4 11  1  0  0  0  0
  4 18  2  0  0  0  0
  5 21  1  0  0  0  0
  6 23  1  0  0  0  0
  7 12  2  0  0  0  0
  7 22  1  0  0  0  0
  8  9  2  0  0  0  0
  8 25  1  0  0  0  0
  9 26  1  0  0  0  0
 10 27  1  0  0  0  0
 11 27  2  0  0  0  0
 12 28  1  0  0  0  0
 13 14  2  0  0  0  0
 13 29  1  0  0  0  0
 14 30  1  0  0  0  0
 15 19  1  0  0  0  0
 15 26  2  0  0  0  0
 16 24  1  0  0  0  0
 16 28  2  0  0  0  0
 17 30  2  0  0  0  0
 17 31  1  0  0  0  0
 18 32  1  0  0  0  0
 19 25  2  0  0  0  0
 19 35  1  0  0  0  0
 20 32  1  0  0  0  0
 20 33  2  0  0  0  0
 20 36  1  0  0  0  0
 21 23  2  0  0  0  0
 21 41  1  0  0  0  0
 22 24  2  0  0  0  0
 22 42  1  0  0  0  0
 23 51  1  0  0  0  0
 24 43  1  0  0  0  0
 25 70  1  0  0  0  0
 26 75  1  0  0  0  0
 27 86  1  0  0  0  0
 28 87  1  0  0  0  0
 29 31  2  0  0  0  0
 29 86  1  0  0  0  0
 30 88  1  0  0  0  0
 31 89  1  0  0  0  0
 32 68  2  0  0  0  0
 33 69  1  0  0  0  0
 33 73  1  0  0  0  0
 34 55  1  0  0  0  0
 34 70  1  0  0  0  0
 34 79  2  0  0  0  0
 35 56  1  0  0  0  0
 35 80  2  0  0  0  0
 36 74  1  0  0  0  0
 36 81  2  0  0  0  0
 37 52  1  0  0  0  0
 37 76  1  0  0  0  0
 37 82  2  0  0  0  0
 38 65  1  0  0  0  0
 38 71  1  0  0  0  0
 38 83  2  0  0  0  0
 39 66  1  0  0  0  0
 39 77  1  0  0  0  0
 39 84  2  0  0  0  0
 40 72  1  0  0  0  0
 40 75  1  0  0  0  0
 40 85  2  0  0  0  0
 41 44  1  0  0  0  0
 42 52  1  0  0  0  0
 43 71  1  0  0  0  0
 44 46  1  0  0  0  0
 45 47  1  0  0  0  0
 45 48  1  0  0  0  0
 46 51  1  0  0  0  0
 47 54  1  0  0  0  0
 48 72  1  0  0  0  0
 49 53  1  0  0  0  0
 49 70  1  0  0  0  0
 50 54  1  0  0  0  0
 50 72  1  0  0  0  0
 51 76  1  0  0  0  0
 52 71  1  0  0  0  0
 53 55  1  0  0  0  0
 53 64  1  0  0  0  0
 54 69  1  0  0  0  0
 55 57  1  0  0  0  0
 55 58  1  0  0  0  0
 59 66  1  0  0  0  0
 60 67  1  0  0  0  0
 61 67  1  0  0  0  0
 62 67  1  0  0  0  0
 63 78  1  0  0  0  0
 64 87  1  0  0  0  0
 65 67  1  0  0  0  0
 65 77  1  0  0  0  0
 66 78  1  0  0  0  0
 68 69  1  0  0  0  0
M  CHG  1  78   1
M  ISO  4  40 100  64 101  75 100  87 101
M  END
> <Batch ID>
0066

> <Smiles>
CNC(C)C(=O)NC(C(=O)N1Cc2cc([101O:1][101CH2:1]C3CN(c4ccc([100NH:0][100C:0](=O)N5CCCC(n6nc(-c7ccc(Oc8ccc(F)cc8F)cc7)c(C(N)=O)c6N)C5)cc4C(C)=O)C(=O)C3(C)C)ccc2CC1C(=O)NC1CCCc2ccccc21)C(C)(C)C

> <Shape>
0.306

> <Color>
0.210

> <Negative vol penalty>
0.000

$$$$

  -OEChem-04042323213D

 84 92  0     1  0  0  0  0  0999 V2000
  -23.1117  -32.5286   25.8275 C   0  0  0  0  0  0  0  0  0  0  0  0
  -23.9694  -31.5873   25.2673 C   0  0  0  0  0  0  0  0  0  0  0  0
  -27.6581  -24.3011   15.4041 C   0  0  0  0  0  0  0  0  0  0  0  0
  -24.5789  -13.7142   21.7622 C   0  0  0  0  0  0  0  0  0  0  0  0
  -26.3766  -13.6705   20.1487 C   0  0  0  0  0  0  0  0  0  0  0  0
  -21.7315  -32.3524   25.7387 C   0  0  0  0  0  0  0  0  0  0  0  0
  -23.4472  -30.4687   24.6188 C   0  0  0  0  0  0  0  0  0  0  0  0
  -25.7695  -29.5122   20.2213 C   0  0  0  0  0  0  0  0  0  0  0  0
  -28.8845  -24.5097   16.0350 C   0  0  0  0  0  0  0  0  0  0  0  0
  -26.7277  -23.4236   15.9609 C   0  0  0  0  0  0  0  0  0  0  0  0
  -24.5853  -12.3202   21.8072 C   0  0  0  0  0  0  0  0  0  0  0  0
  -26.3830  -12.2764   20.1937 C   0  0  0  0  0  0  0  0  0  0  0  0
  -27.0143  -28.8873   20.2814 C   0  0  0  0  0  0  0  0  0  0  0  0
  -23.4317   -9.7624   19.9226 C   0  0  0  0  0  0  0  0  0  0  0  0
  -22.2010   -9.1076   19.8763 C   0  0  0  0  0  0  0  0  0  0  0  0
  -25.9716  -26.7740   19.7661 C   0  0  0  0  0  0  0  0  0  0  0  0
  -22.6523   -8.1069   22.0285 C   0  0  0  0  0  0  0  0  0  0  0  0
  -25.4745  -14.3894   20.9330 C   0  0  0  0  0  0  0  0  0  0  0  0
  -26.2137  -16.7099   21.6923 C   0  0  0  0  0  0  0  0  0  0  0  0
  -21.1921  -31.2361   25.0804 C   0  0  0  0  0  0  0  0  0  0  0  0
  -24.6129  -28.7695   19.9435 C   0  0  0  0  0  0  0  0  0  0  0  0
  -22.0585  -30.2768   24.5222 C   0  0  0  0  0  0  0  0  0  0  0  0
  -24.7136  -27.3922   19.7006 C   0  0  0  0  0  0  0  0  0  0  0  0
  -29.1805  -23.8408   17.2227 C   0  0  0  0  0  0  0  0  0  0  0  0
  -27.0237  -22.7547   17.1486 C   0  0  0  0  0  0  0  0  0  0  0  0
  -25.4873  -11.6012   21.0230 C   0  0  0  0  0  0  0  0  0  0  0  0
  -27.1151  -27.5175   20.0567 C   0  0  0  0  0  0  0  0  0  0  0  0
  -24.2728   -9.5894   21.0219 C   0  0  0  0  0  0  0  0  0  0  0  0
  -21.8113   -8.2799   20.9292 C   0  0  0  0  0  0  0  0  0  0  0  0
  -23.8831   -8.7617   22.0748 C   0  0  0  0  0  0  0  0  0  0  0  0
  -28.2501  -22.9633   17.7795 C   0  0  0  0  0  0  0  0  0  0  0  0
  -25.4680  -15.8295   20.8857 C   0  0  0  0  0  0  0  0  0  0  0  0
  -25.8545  -17.9621   21.2569 C   0  0  0  0  0  0  0  0  0  0  0  0
  -27.1476  -16.4217   22.7413 C   0  0  0  0  0  0  0  0  0  0  0  0
  -21.9230  -28.1356   21.5139 C   0  0  0  0  0  0  0  0  0  0  0  0
  -21.0776  -26.7330   18.7139 C   0  0  0  0  0  0  0  0  0  0  0  0
  -31.0074  -26.1969   19.1122 C   0  0  0  0  0  0  0  0  0  0  0  0
  -22.0639  -25.2678   15.7937 C   0  0  0  0  0  0  0  0  0  0  0  0
  -24.7977  -21.5752   17.1542 C   0  0  0  0  0  0  0  0  0  0  0  0
  -19.6940  -31.0644   25.0510 C   0  0  0  0  0  0  0  0  0  0  0  0
  -23.2811  -29.4631   19.8559 C   0  0  0  0  0  0  0  0  0  0  0  0
  -23.5049  -26.5534   19.3784 C   0  0  0  0  0  0  0  0  0  0  0  0
  -19.2179  -30.0437   24.0206 C   0  0  0  0  0  0  0  0  0  0  0  0
  -22.1373  -19.4285   18.1498 C   0  0  0  0  0  0  0  0  0  0  0  0
  -20.0571  -28.7724   24.1014 C   0  0  0  0  0  0  0  0  0  0  0  0
  -22.8280  -18.3732   19.0167 C   0  0  0  0  0  0  0  0  0  0  0  0
  -23.0120  -19.8566   16.9728 C   0  0  0  0  0  0  0  0  0  0  0  0
  -25.0572  -19.2396   18.1999 C   0  0  0  0  0  0  0  0  0  0  0  0
  -21.5300  -29.0629   23.7891 C   0  0  1  0  0  0  0  0  0  0  0  0
  -22.1012  -28.5207   20.0725 C   0  0  1  0  0  0  0  0  0  0  0  0
  -24.2412  -18.8245   19.4349 C   0  0  2  0  0  0  0  0  0  0  0  0
  -21.1452  -24.1872   13.7235 C   0  0  0  0  0  0  0  0  0  0  0  0
  -20.4547  -24.2087   20.3108 C   0  0  0  0  0  0  0  0  0  0  0  0
  -20.4699  -22.9279   18.1596 C   0  0  0  0  0  0  0  0  0  0  0  0
  -18.7969  -24.7436   18.5163 C   0  0  0  0  0  0  0  0  0  0  0  0
  -23.2986  -27.3079   14.0408 C   0  0  0  0  0  0  0  0  0  0  0  0
  -30.5130  -24.0967   17.8654 C   0  0  0  0  0  0  0  0  0  0  0  0
  -30.7123  -26.8679   20.4446 C   0  0  0  0  0  0  0  0  0  0  0  0
  -29.4574  -27.7265   20.4121 C   0  0  0  0  0  0  0  0  0  1  0  0
  -21.2199  -25.3502   18.1251 C   0  0  1  0  0  0  0  0  0  0  0  0
  -21.6209  -25.4849   14.3580 C   0  0  2  0  0  0  0  0  0  0  0  0
  -20.2581  -24.3228   18.7859 C   0  0  0  0  0  0  0  0  0  0  0  0
  -24.6935  -16.4682   20.0046 N   0  0  0  0  0  0  0  0  0  0  0  0
  -24.9505  -17.7633   20.2552 N   0  0  0  0  0  0  0  0  0  0  0  0
  -22.2243  -27.2765   19.3103 N   0  0  0  0  0  0  0  0  0  0  0  0
  -24.3335  -20.2750   17.4455 N   0  0  0  0  0  0  0  0  0  0  0  0
  -26.2269  -19.2027   21.6370 N   0  0  0  0  0  0  0  0  0  0  0  0
  -27.4006  -15.0807   23.0607 N   0  0  0  0  0  0  0  0  0  0  0  0
  -26.0536  -21.8710   17.6831 N   0  0  0  0  0  0  0  0  0  0  0  0
  -21.7251  -29.2081   22.3625 N   0  0  0  0  0  0  0  0  0  0  0  0
  -30.3991  -24.9529   19.0240 N   0  0  0  0  0  0  0  0  0  0  0  0
  -21.0377  -25.4989   16.6853 N   0  0  0  0  0  0  0  0  0  0  0  0
  -22.7480  -26.0208   13.5436 N   0  3  0  0  0  0  0  0  0  0  0  0
  -27.7278  -17.3267   23.3876 O   0  0  0  0  0  0  0  0  0  0  0  0
  -21.9607  -26.9529   21.8325 O   0  0  0  0  0  0  0  0  0  0  0  0
  -19.9911  -27.3125   18.6408 O   0  0  0  0  0  0  0  0  0  0  0  0
  -31.7002  -26.7106   18.2381 O   0  0  0  0  0  0  0  0  0  0  0  0
  -23.2049  -24.9239   16.0939 O   0  0  0  0  0  0  0  0  0  0  0  0
  -24.1186  -22.3771   16.5079 O   0  0  0  0  0  0  0  0  0  0  0  0
  -25.4940  -10.2408   21.0668 O   0  0  0  0  0  0  0  0  0  0  0  0
  -28.3289  -26.9050   20.1153 O   0  0  0  0  0  0  0  0  0  1  0  0
  -20.6287   -7.6524   20.8853 F   0  0  0  0  0  0  0  0  0  0  0  0
  -24.6864   -8.5926   23.1341 F   0  0  0  0  0  0  0  0  0  0  0  0
  -28.6235  -22.1346   19.2559 Cl  0  0  0  0  0  0  0  0  0  0  0  0
  1  2  1  0  0  0  0
  1  6  2  0  0  0  0
  2  7  2  0  0  0  0
  3  9  2  0  0  0  0
  3 10  1  0  0  0  0
  4 11  2  0  0  0  0
  4 18  1  0  0  0  0
  5 12  1  0  0  0  0
  5 18  2  0  0  0  0
  6 20  1  0  0  0  0
  7 22  1  0  0  0  0
  8 13  2  0  0  0  0
  8 21  1  0  0  0  0
  9 24  1  0  0  0  0
 10 25  2  0  0  0  0
 11 26  1  0  0  0  0
 12 26  2  0  0  0  0
 13 27  1  0  0  0  0
 14 15  2  0  0  0  0
 14 28  1  0  0  0  0
 15 29  1  0  0  0  0
 16 23  1  0  0  0  0
 16 27  2  0  0  0  0
 17 29  2  0  0  0  0
 17 30  1  0  0  0  0
 18 32  1  0  0  0  0
 19 32  1  0  0  0  0
 19 33  2  0  0  0  0
 19 34  1  0  0  0  0
 20 22  2  0  0  0  0
 20 40  1  0  0  0  0
 21 23  2  0  0  0  0
 21 41  1  0  0  0  0
 22 49  1  0  0  0  0
 23 42  1  0  0  0  0
 24 31  2  0  0  0  0
 24 57  1  0  0  0  0
 25 31  1  0  0  0  0
 25 69  1  0  0  0  0
 26 80  1  0  0  0  0
 27 81  1  0  0  0  0
 28 30  2  0  0  0  0
 28 80  1  0  0  0  0
 29 82  1  0  0  0  0
 30 83  1  0  0  0  0
 31 84  1  0  0  0  0
 32 63  2  0  0  0  0
 33 64  1  0  0  0  0
 33 67  1  0  0  0  0
 34 68  1  0  0  0  0
 34 74  2  0  0  0  0
 35 50  1  0  0  0  0
 35 70  1  0  0  0  0
 35 75  2  0  0  0  0
 36 60  1  0  0  0  0
 36 65  1  0  0  0  0
 36 76  2  0  0  0  0
 37 58  1  0  0  0  0
 37 71  1  0  0  0  0
 37 77  2  0  0  0  0
 38 61  1  0  0  0  0
 38 72  1  0  0  0  0
 38 78  2  0  0  0  0
 39 66  1  0  0  0  0
 39 69  1  0  0  0  0
 39 79  2  0  0  0  0
 40 43  1  0  0  0  0
 41 50  1  0  0  0  0
 42 65  1  0  0  0  0
 43 45  1  0  0  0  0
 44 46  1  0  0  0  0
 44 47  1  0  0  0  0
 45 49  1  0  0  0  0
 46 51  1  0  0  0  0
 47 66  1  0  0  0  0
 48 51  1  0  0  0  0
 48 66  1  0  0  0  0
 49 70  1  0  0  0  0
 50 65  1  0  0  0  0
 51 64  1  0  0  0  0
 52 61  1  0  0  0  0
 53 62  1  0  0  0  0
 54 62  1  0  0  0  0
 55 62  1  0  0  0  0
 56 73  1  0  0  0  0
 57 71  1  0  0  0  0
 58 59  1  0  0  0  0
 59 81  1  0  0  0  0
 60 62  1  0  0  0  0
 60 72  1  0  0  0  0
 61 73  1  0  0  0  0
 63 64  1  0  0  0  0
M  CHG  1  73   1
M  ISO  4  39 100  59 101  69 100  81 101
M  END
> <Batch ID>
0066

> <Smiles>
CNC(C)C(=O)NC(C(=O)N1Cc2cc([101O:1][101CH2:1]CC(=O)NCc3cccc([100NH:0][100C:0](=O)N4CCCC(n5nc(-c6ccc(Oc7ccc(F)cc7F)cc6)c(C(N)=O)c5N)C4)c3Cl)ccc2CC1C(=O)NC1CCCc2ccccc21)C(C)(C)C

> <Shape>
0.223

> <Color>
0.090

> <Negative vol penalty>
0.000

$$$$

  -OEChem-04042323213D

 86 95  0     1  0  0  0  0  0999 V2000
  -16.7551  -30.2223   23.9480 C   0  0  0  0  0  0  0  0  0  0  0  0
  -17.9142  -30.8110   24.4433 C   0  0  0  0  0  0  0  0  0  0  0  0
  -34.0244  -27.5172   21.4841 C   0  0  0  0  0  0  0  0  0  0  0  0
  -25.6957  -18.2450   18.8714 C   0  0  0  0  0  0  0  0  0  0  0  0
  -27.1506  -18.0567   20.7910 C   0  0  0  0  0  0  0  0  0  0  0  0
  -16.8345  -29.0415   23.2109 C   0  0  0  0  0  0  0  0  0  0  0  0
  -19.1534  -30.2185   24.2027 C   0  0  0  0  0  0  0  0  0  0  0  0
  -26.0282  -31.9047   23.1027 C   0  0  0  0  0  0  0  0  0  0  0  0
  -33.3524  -27.9729   22.6182 C   0  0  0  0  0  0  0  0  0  0  0  0
  -33.3742  -26.6797   20.5776 C   0  0  0  0  0  0  0  0  0  0  0  0
  -25.3416  -16.9028   19.0080 C   0  0  0  0  0  0  0  0  0  0  0  0
  -26.7965  -16.7144   20.9277 C   0  0  0  0  0  0  0  0  0  0  0  0
  -27.3018  -31.5995   23.5807 C   0  0  0  0  0  0  0  0  0  0  0  0
  -26.5519  -13.1446   21.5653 C   0  0  0  0  0  0  0  0  0  0  0  0
  -27.5740  -12.2253   21.8013 C   0  0  0  0  0  0  0  0  0  0  0  0
  -27.3247  -29.6028   22.2273 C   0  0  0  0  0  0  0  0  0  0  0  0
  -31.3801  -26.7536   21.9395 C   0  0  0  0  0  0  0  0  0  0  0  0
  -28.6154  -12.8466   19.7116 C   0  0  0  0  0  0  0  0  0  0  0  0
  -26.6003  -18.8220   19.7628 C   0  0  0  0  0  0  0  0  0  0  0  0
  -26.3338  -21.3191   20.2109 C   0  0  0  0  0  0  0  0  0  0  0  0
  -18.0761  -28.4394   22.9529 C   0  0  0  0  0  0  0  0  0  0  0  0
  -25.3877  -31.0541   22.1902 C   0  0  0  0  0  0  0  0  0  0  0  0
  -19.2493  -29.0278   23.4626 C   0  0  0  0  0  0  0  0  0  0  0  0
  -26.0440  -29.9008   21.7373 C   0  0  0  0  0  0  0  0  0  0  0  0
  -32.0303  -27.5911   22.8460 C   0  0  0  0  0  0  0  0  0  0  0  0
  -32.0521  -26.2979   20.8054 C   0  0  0  0  0  0  0  0  0  0  0  0
  -25.8920  -16.1375   20.0362 C   0  0  0  0  0  0  0  0  0  0  0  0
  -27.9491  -30.4469   23.1453 C   0  0  0  0  0  0  0  0  0  0  0  0
  -26.5615  -13.9150   20.4024 C   0  0  0  0  0  0  0  0  0  0  0  0
  -28.6057  -12.0763   20.8745 C   0  0  0  0  0  0  0  0  0  0  0  0
  -27.5932  -13.7660   19.4756 C   0  0  0  0  0  0  0  0  0  0  0  0
  -26.9669  -20.2083   19.6219 C   0  0  0  0  0  0  0  0  0  0  0  0
  -27.0571  -22.4003   19.7699 C   0  0  0  0  0  0  0  0  0  0  0  0
  -29.8605  -28.2361   25.6229 C   0  0  0  0  0  0  0  0  0  0  0  0
  -30.3986  -27.3806   24.6039 C   0  0  0  0  0  0  0  0  0  0  0  0
  -25.1939  -21.3693   21.0792 C   0  0  0  0  0  0  0  0  0  0  0  0
  -22.7176  -29.3299   22.2246 C   0  0  0  0  0  0  0  0  0  0  0  0
  -23.4851  -28.7953   19.1185 C   0  0  0  0  0  0  0  0  0  0  0  0
  -25.9018  -28.6646   16.7124 C   0  0  0  0  0  0  0  0  0  0  0  0
  -31.9152  -24.9060   18.7101 C   0  0  0  0  0  0  0  0  0  0  0  0
  -18.1076  -27.1379   22.1915 C   0  0  0  0  0  0  0  0  0  0  0  0
  -24.0248  -31.4114   21.6637 C   0  0  0  0  0  0  0  0  0  0  0  0
  -25.4080  -28.9653   20.7429 C   0  0  0  0  0  0  0  0  0  0  0  0
  -19.4927  -26.7753   21.6621 C   0  0  0  0  0  0  0  0  0  0  0  0
  -30.6253  -22.7399   16.1958 C   0  0  0  0  0  0  0  0  0  0  0  0
  -20.5462  -26.9651   22.7489 C   0  0  0  0  0  0  0  0  0  0  0  0
  -29.5064  -21.9796   16.9115 C   0  0  0  0  0  0  0  0  0  0  0  0
  -31.8145  -23.0001   17.1187 C   0  0  0  0  0  0  0  0  0  0  0  0
  -30.3630  -22.8937   19.1064 C   0  0  0  0  0  0  0  0  0  0  0  0
  -31.6962  -29.3270   24.6179 C   0  0  0  0  0  0  0  0  0  0  0  0
  -20.6143  -28.4287   23.2016 C   0  0  1  0  0  0  0  0  0  0  0  0
  -23.2559  -30.2068   21.1296 C   0  0  1  0  0  0  0  0  0  0  0  0
  -29.1167  -22.6652   18.2357 C   0  0  2  0  0  0  0  0  0  0  0  0
  -30.5047  -29.6045   25.5541 C   0  0  2  0  0  0  0  0  0  0  0  0
  -30.9581  -30.0719   26.9324 C   0  0  0  0  0  0  0  0  0  0  0  0
  -26.2306  -28.1621   14.2759 C   0  0  0  0  0  0  0  0  0  0  0  0
  -23.2543  -25.8100   19.7054 C   0  0  0  0  0  0  0  0  0  0  0  0
  -24.4899  -25.3663   17.5736 C   0  0  0  0  0  0  0  0  0  0  0  0
  -22.2795  -26.5209   17.5148 C   0  0  0  0  0  0  0  0  0  0  0  0
  -26.8872  -31.4005   16.1622 C   0  0  0  0  0  0  0  0  0  0  0  0
  -29.5167  -30.5885   24.9281 C   0  0  0  0  0  0  0  0  0  1  0  0
  -24.3038  -27.7627   18.3820 C   0  0  1  0  0  0  0  0  0  0  0  0
  -25.9596  -29.2435   15.3103 C   0  0  2  0  0  0  0  0  0  0  0  0
  -23.5933  -26.3814   18.3142 C   0  0  0  0  0  0  0  0  0  0  0  0
  -28.0118  -20.5520   18.8643 N   0  0  0  0  0  0  0  0  0  0  0  0
  -28.0408  -21.8911   18.9742 N   0  0  0  0  0  0  0  0  0  0  0  0
  -31.3671  -28.0415   23.9648 N   0  0  0  0  0  0  0  0  0  0  0  0
  -24.0720  -29.3547   20.2624 N   0  0  0  0  0  0  0  0  0  0  0  0
  -31.3699  -23.6553   18.3507 N   0  0  0  0  0  0  0  0  0  0  0  0
  -26.9411  -23.7273   19.9889 N   0  0  0  0  0  0  0  0  0  0  0  0
  -24.5701  -20.1651   21.4330 N   0  0  0  0  0  0  0  0  0  0  0  0
  -31.3924  -25.4470   19.8843 N   0  0  0  0  0  0  0  0  0  0  0  0
  -21.3399  -29.2237   22.2342 N   0  0  0  0  0  0  0  0  0  0  0  0
  -24.6125  -28.3405   17.0784 N   0  0  0  0  0  0  0  0  0  0  0  0
  -29.8723  -26.1700   24.4950 N   0  3  0  0  0  0  0  0  0  0  0  0
  -27.0402  -30.2654   15.2160 N   0  3  0  0  0  0  0  0  0  0  0  0
  -28.9827  -27.9031   26.4064 O   0  0  0  0  0  0  0  0  0  0  0  0
  -24.7321  -22.4511   21.5149 O   0  0  0  0  0  0  0  0  0  0  0  0
  -23.4947  -28.7884   23.0021 O   0  0  0  0  0  0  0  0  0  0  0  0
  -22.3690  -29.0998   18.6905 O   0  0  0  0  0  0  0  0  0  0  0  0
  -26.9010  -28.5114   17.4116 O   0  0  0  0  0  0  0  0  0  0  0  0
  -32.7623  -25.4693   18.0122 O   0  0  0  0  0  0  0  0  0  0  0  0
  -25.5465  -14.8278   20.1699 O   0  0  0  0  0  0  0  0  0  0  0  0
  -29.1920  -30.1463   23.6107 O   0  0  0  0  0  0  0  0  0  1  0  0
  -29.5880  -11.1944   21.1020 F   0  0  0  0  0  0  0  0  0  0  0  0
  -27.6085  -14.5040   18.3572 F   0  0  0  0  0  0  0  0  0  0  0  0
  1  2  1  0  0  0  0
  1  6  2  0  0  0  0
  2  7  2  0  0  0  0
  3  9  2  0  0  0  0
  3 10  1  0  0  0  0
  4 11  2  0  0  0  0
  4 19  1  0  0  0  0
  5 12  1  0  0  0  0
  5 19  2  0  0  0  0
  6 21  1  0  0  0  0
  7 23  1  0  0  0  0
  8 13  2  0  0  0  0
  8 22  1  0  0  0  0
  9 25  1  0  0  0  0
 10 26  2  0  0  0  0
 11 27  1  0  0  0  0
 12 27  2  0  0  0  0
 13 28  1  0  0  0  0
 14 15  2  0  0  0  0
 14 29  1  0  0  0  0
 15 30  1  0  0  0  0
 16 24  1  0  0  0  0
 16 28  2  0  0  0  0
 17 25  2  0  0  0  0
 17 26  1  0  0  0  0
 18 30  2  0  0  0  0
 18 31  1  0  0  0  0
 19 32  1  0  0  0  0
 20 32  1  0  0  0  0
 20 33  2  0  0  0  0
 20 36  1  0  0  0  0
 21 23  2  0  0  0  0
 21 41  1  0  0  0  0
 22 24  2  0  0  0  0
 22 42  1  0  0  0  0
 23 51  1  0  0  0  0
 24 43  1  0  0  0  0
 25 67  1  0  0  0  0
 26 72  1  0  0  0  0
 27 83  1  0  0  0  0
 28 84  1  0  0  0  0
 29 31  2  0  0  0  0
 29 83  1  0  0  0  0
 30 85  1  0  0  0  0
 31 86  1  0  0  0  0
 32 65  2  0  0  0  0
 33 66  1  0  0  0  0
 33 70  1  0  0  0  0
 34 35  1  0  0  0  0
 34 54  1  0  0  0  0
 34 77  2  0  0  0  0
 35 67  1  0  0  0  0
 35 75  2  0  0  0  0
 36 71  1  0  0  0  0
 36 78  2  0  0  0  0
 37 52  1  0  0  0  0
 37 73  1  0  0  0  0
 37 79  2  0  0  0  0
 38 62  1  0  0  0  0
 38 68  1  0  0  0  0
 38 80  2  0  0  0  0
 39 63  1  0  0  0  0
 39 74  1  0  0  0  0
 39 81  2  0  0  0  0
 40 69  1  0  0  0  0
 40 72  1  0  0  0  0
 40 82  2  0  0  0  0
 41 44  1  0  0  0  0
 42 52  1  0  0  0  0
 43 68  1  0  0  0  0
 44 46  1  0  0  0  0
 45 47  1  0  0  0  0
 45 48  1  0  0  0  0
 46 51  1  0  0  0  0
 47 53  1  0  0  0  0
 48 69  1  0  0  0  0
 49 53  1  0  0  0  0
 49 69  1  0  0  0  0
 50 54  1  0  0  0  0
 50 67  1  0  0  0  0
 51 73  1  0  0  0  0
 52 68  1  0  0  0  0
 53 66  1  0  0  0  0
 54 55  1  0  0  0  0
 54 61  1  0  0  0  0
 56 63  1  0  0  0  0
 57 64  1  0  0  0  0
 58 64  1  0  0  0  0
 59 64  1  0  0  0  0
 60 76  1  0  0  0  0
 61 84  1  0  0  0  0
 62 64  1  0  0  0  0
 62 74  1  0  0  0  0
 63 76  1  0  0  0  0
 65 66  1  0  0  0  0
M  CHG  2  75   1  76   1
M  ISO  4  40 100  61 101  72 100  84 101
M  END
> <Batch ID>
0066

> <Smiles>
CNC(C)C(=O)NC(C(=O)N1Cc2cc([101O:1][101CH2:1]C3(C)CN(c4cccc([100NH:0][100C:0](=O)N5CCCC(n6nc(-c7ccc(Oc8ccc(F)cc8F)cc7)c(C(N)=O)c6N)C5)c4)C(=N)C3=O)ccc2CC1C(=O)NC1CCCc2ccccc21)C(C)(C)C

> <Shape>
0.255

> <Color>
0.106

> <Negative vol penalty>
0.000

$$$$

  -OEChem-04042323213D

 88 97  0     1  0  0  0  0  0999 V2000
  -24.5274  -38.0001   24.3494 C   0  0  0  0  0  0  0  0  0  0  0  0
  -25.5827  -37.1493   24.0364 C   0  0  0  0  0  0  0  0  0  0  0  0
  -24.3087   -9.2760   21.4451 C   0  0  0  0  0  0  0  0  0  0  0  0
  -24.8725  -10.4759   23.4649 C   0  0  0  0  0  0  0  0  0  0  0  0
  -23.2681  -37.4723   24.6314 C   0  0  0  0  0  0  0  0  0  0  0  0
  -25.3795  -35.7701   24.0064 C   0  0  0  0  0  0  0  0  0  0  0  0
  -27.5885  -29.8748   20.5885 C   0  0  0  0  0  0  0  0  0  0  0  0
  -30.4402  -20.4145   20.7346 C   0  0  0  0  0  0  0  0  0  0  0  0
  -30.2503  -19.0967   20.3190 C   0  0  0  0  0  0  0  0  0  0  0  0
  -23.9916   -8.1489   22.2031 C   0  0  0  0  0  0  0  0  0  0  0  0
  -24.5553   -9.3487   24.2230 C   0  0  0  0  0  0  0  0  0  0  0  0
  -28.0941  -28.6025   20.8522 C   0  0  0  0  0  0  0  0  0  0  0  0
  -21.4100   -7.0691   24.1010 C   0  0  0  0  0  0  0  0  0  0  0  0
  -20.2321   -6.3895   23.7906 C   0  0  0  0  0  0  0  0  0  0  0  0
  -27.8750  -19.3184   20.7010 C   0  0  0  0  0  0  0  0  0  0  0  0
  -25.8565  -27.8085   21.2792 C   0  0  0  0  0  0  0  0  0  0  0  0
  -30.3132  -24.2558   22.6860 C   0  0  0  0  0  0  0  0  0  0  0  0
  -21.5077   -4.3915   23.3240 C   0  0  0  0  0  0  0  0  0  0  0  0
  -24.7492  -10.4395   22.0760 C   0  0  0  0  0  0  0  0  0  0  0  0
  -28.0649  -20.6362   21.1167 C   0  0  0  0  0  0  0  0  0  0  0  0
  -24.2104  -12.6468   20.9162 C   0  0  0  0  0  0  0  0  0  0  0  0
  -23.0470  -36.0865   24.5954 C   0  0  0  0  0  0  0  0  0  0  0  0
  -26.2120  -30.1265   20.6789 C   0  0  0  0  0  0  0  0  0  0  0  0
  -24.1164  -35.2232   24.2895 C   0  0  0  0  0  0  0  0  0  0  0  0
  -25.3358  -29.0842   21.0136 C   0  0  0  0  0  0  0  0  0  0  0  0
  -29.4702  -24.7198   21.6463 C   0  0  0  0  0  0  0  0  0  0  0  0
  -29.3475  -21.1843   21.1335 C   0  0  0  0  0  0  0  0  0  0  0  0
  -28.9678  -18.5486   20.3022 C   0  0  0  0  0  0  0  0  0  0  0  0
  -24.1149   -8.1852   23.5921 C   0  0  0  0  0  0  0  0  0  0  0  0
  -27.2284  -27.5699   21.2005 C   0  0  0  0  0  0  0  0  0  0  0  0
  -22.6368   -6.4098   24.0228 C   0  0  0  0  0  0  0  0  0  0  0  0
  -20.2809   -5.0507   23.4022 C   0  0  0  0  0  0  0  0  0  0  0  0
  -22.6857   -5.0711   23.6344 C   0  0  0  0  0  0  0  0  0  0  0  0
  -25.0775  -11.6039   21.2934 C   0  0  0  0  0  0  0  0  0  0  0  0
  -24.9996  -13.5032   20.1882 C   0  0  0  0  0  0  0  0  0  0  0  0
  -30.3534  -22.8816   22.6005 C   0  0  0  0  0  0  0  0  0  0  0  0
  -29.0207  -23.6151   20.9571 C   0  0  0  0  0  0  0  0  0  0  0  0
  -26.8980  -21.4092   21.5265 C   0  0  0  0  0  0  0  0  0  0  0  0
  -22.8161  -12.8254   21.1987 C   0  0  0  0  0  0  0  0  0  0  0  0
  -24.3907  -32.0202   22.4679 C   0  0  0  0  0  0  0  0  0  0  0  0
  -22.0342  -30.9489   20.5130 C   0  0  0  0  0  0  0  0  0  0  0  0
  -20.8995  -28.5147   18.4073 C   0  0  0  0  0  0  0  0  0  0  0  0
  -29.7518  -16.3102   19.4529 C   0  0  0  0  0  0  0  0  0  0  0  0
  -21.6800  -35.5599   24.9538 C   0  0  0  0  0  0  0  0  0  0  0  0
  -25.6797  -31.4979   20.3652 C   0  0  0  0  0  0  0  0  0  0  0  0
  -23.8476  -29.2976   21.1045 C   0  0  0  0  0  0  0  0  0  0  0  0
  -21.4566  -34.1094   24.5338 C   0  0  0  0  0  0  0  0  0  0  0  0
  -29.6869  -12.9194   18.3686 C   0  0  0  0  0  0  0  0  0  0  0  0
  -22.6531  -33.2492   24.9281 C   0  0  0  0  0  0  0  0  0  0  0  0
  -28.4106  -12.3607   19.0019 C   0  0  0  0  0  0  0  0  0  0  0  0
  -30.3894  -13.9139   19.2913 C   0  0  0  0  0  0  0  0  0  0  0  0
  -28.2658  -14.4472   20.4206 C   0  0  0  0  0  0  0  0  0  0  0  0
  -23.9295  -33.7230   24.2225 C   0  0  1  0  0  0  0  0  0  0  0  0
  -24.3136  -31.7658   20.9891 C   0  0  1  0  0  0  0  0  0  0  0  0
  -27.4887  -13.4900   19.5021 C   0  0  2  0  0  0  0  0  0  0  0  0
  -25.8146  -21.6129   20.5103 C   0  0  0  0  0  0  0  0  0  0  0  0
  -18.9214  -27.9008   16.9903 C   0  0  0  0  0  0  0  0  0  0  0  0
  -20.4896  -30.1492   23.0200 C   0  0  0  0  0  0  0  0  0  0  0  0
  -19.0218  -28.7243   21.5766 C   0  0  0  0  0  0  0  0  0  0  0  0
  -19.0961  -31.1927   21.2245 C   0  0  0  0  0  0  0  0  0  0  0  0
  -22.5228  -28.5234   15.9327 C   0  0  0  0  0  0  0  0  0  0  0  0
  -29.1317  -26.1523   21.3549 C   0  0  0  0  0  0  0  0  0  1  0  0
  -21.0767  -29.7819   20.5327 C   0  0  1  0  0  0  0  0  0  0  0  0
  -20.2773  -28.5887   17.0246 C   0  0  2  0  0  0  0  0  0  0  0  0
  -19.9492  -29.9582   21.5887 C   0  0  0  0  0  0  0  0  0  0  0  0
  -26.3223  -11.7797   20.8422 N   0  0  0  0  0  0  0  0  0  0  0  0
  -29.5638  -22.5032   21.5462 N   0  0  0  0  0  0  0  0  0  0  0  0
  -26.2431  -12.9430   20.1738 N   0  0  0  0  0  0  0  0  0  0  0  0
  -23.3764  -30.6575   20.7948 N   0  0  0  0  0  0  0  0  0  0  0  0
  -29.4559  -14.9571   19.7216 N   0  0  0  0  0  0  0  0  0  0  0  0
  -24.7444  -14.6733   19.5652 N   0  0  0  0  0  0  0  0  0  0  0  0
  -22.1585  -11.8501   21.9607 N   0  0  0  0  0  0  0  0  0  0  0  0
  -28.7756  -17.2097   19.8799 N   0  0  0  0  0  0  0  0  0  0  0  0
  -23.9442  -33.2716   22.8476 N   0  0  0  0  0  0  0  0  0  0  0  0
  -20.5949  -29.6261   19.1645 N   0  0  0  0  0  0  0  0  0  0  0  0
  -21.1631  -27.9317   16.0223 N   0  3  0  0  0  0  0  0  0  0  0  0
  -26.7418  -21.9081   22.6403 O   0  0  0  0  0  0  0  0  0  0  0  0
  -22.1686  -13.8122   20.7737 O   0  0  0  0  0  0  0  0  0  0  0  0
  -24.8219  -31.1453   23.2098 O   0  0  0  0  0  0  0  0  0  0  0  0
  -21.6082  -32.0763   20.2501 O   0  0  0  0  0  0  0  0  0  0  0  0
  -21.5839  -27.5643   18.7799 O   0  0  0  0  0  0  0  0  0  0  0  0
  -30.7817  -16.6442   18.8615 O   0  0  0  0  0  0  0  0  0  0  0  0
  -30.9994  -21.9914   23.3441 O   0  0  0  0  0  0  0  0  0  0  0  0
  -28.2113  -23.5204   19.9083 O   0  0  0  0  0  0  0  0  0  0  0  0
  -23.8053   -7.0857   24.3321 O   0  0  0  0  0  0  0  0  0  0  0  0
  -27.7193  -26.3273   21.4591 O   0  0  0  0  0  0  0  0  0  1  0  0
  -19.1496   -4.3979   23.1056 F   0  0  0  0  0  0  0  0  0  0  0  0
  -23.8612   -4.4321   23.5586 F   0  0  0  0  0  0  0  0  0  0  0  0
  1  2  1  0  0  0  0
  1  5  2  0  0  0  0
  2  6  2  0  0  0  0
  3 10  2  0  0  0  0
  3 19  1  0  0  0  0
  4 11  1  0  0  0  0
  4 19  2  0  0  0  0
  5 22  1  0  0  0  0
  6 24  1  0  0  0  0
  7 12  2  0  0  0  0
  7 23  1  0  0  0  0
  8  9  2  0  0  0  0
  8 27  1  0  0  0  0
  9 28  1  0  0  0  0
 10 29  1  0  0  0  0
 11 29  2  0  0  0  0
 12 30  1  0  0  0  0
 13 14  2  0  0  0  0
 13 31  1  0  0  0  0
 14 32  1  0  0  0  0
 15 20  1  0  0  0  0
 15 28  2  0  0  0  0
 16 25  1  0  0  0  0
 16 30  2  0  0  0  0
 17 26  1  0  0  0  0
 17 36  2  0  0  0  0
 18 32  2  0  0  0  0
 18 33  1  0  0  0  0
 19 34  1  0  0  0  0
 20 27  2  0  0  0  0
 20 38  1  0  0  0  0
 21 34  1  0  0  0  0
 21 35  2  0  0  0  0
 21 39  1  0  0  0  0
 22 24  2  0  0  0  0
 22 44  1  0  0  0  0
 23 25  2  0  0  0  0
 23 45  1  0  0  0  0
 24 53  1  0  0  0  0
 25 46  1  0  0  0  0
 26 37  2  0  0  0  0
 26 62  1  0  0  0  0
 27 67  1  0  0  0  0
 28 73  1  0  0  0  0
 29 85  1  0  0  0  0
 30 86  1  0  0  0  0
 31 33  2  0  0  0  0
 31 85  1  0  0  0  0
 32 87  1  0  0  0  0
 33 88  1  0  0  0  0
 34 66  2  0  0  0  0
 35 68  1  0  0  0  0
 35 71  1  0  0  0  0
 36 67  1  0  0  0  0
 36 83  1  0  0  0  0
 37 67  1  0  0  0  0
 37 84  1  0  0  0  0
 38 56  1  0  0  0  0
 38 77  2  0  0  0  0
 39 72  1  0  0  0  0
 39 78  2  0  0  0  0
 40 54  1  0  0  0  0
 40 74  1  0  0  0  0
 40 79  2  0  0  0  0
 41 63  1  0  0  0  0
 41 69  1  0  0  0  0
 41 80  2  0  0  0  0
 42 64  1  0  0  0  0
 42 75  1  0  0  0  0
 42 81  2  0  0  0  0
 43 70  1  0  0  0  0
 43 73  1  0  0  0  0
 43 82  2  0  0  0  0
 44 47  1  0  0  0  0
 45 54  1  0  0  0  0
 46 69  1  0  0  0  0
 47 49  1  0  0  0  0
 48 50  1  0  0  0  0
 48 51  1  0  0  0  0
 49 53  1  0  0  0  0
 50 55  1  0  0  0  0
 51 70  1  0  0  0  0
 52 55  1  0  0  0  0
 52 70  1  0  0  0  0
 53 74  1  0  0  0  0
 54 69  1  0  0  0  0
 55 68  1  0  0  0  0
 57 64  1  0  0  0  0
 58 65  1  0  0  0  0
 59 65  1  0  0  0  0
 60 65  1  0  0  0  0
 61 76  1  0  0  0  0
 62 86  1  0  0  0  0
 63 65  1  0  0  0  0
 63 75  1  0  0  0  0
 64 76  1  0  0  0  0
 66 68  1  0  0  0  0
M  CHG  1  76   1
M  ISO  4  43 100  62 101  73 100  86 101
M  END
> <Batch ID>
0066

> <Smiles>
CNC(C)C(=O)NC(C(=O)N1Cc2cc([101O:1][101CH2:1]C3CC(=O)N(c4ccc([100NH:0][100C:0](=O)N5CCCC(n6nc(-c7ccc(Oc8ccc(F)cc8F)cc7)c(C(N)=O)c6N)C5)cc4C(C)=O)C3=O)ccc2CC1C(=O)NC1CCCc2ccccc21)C(C)(C)C

> <Shape>
0.316

> <Color>
0.107

> <Negative vol penalty>
0.000

$$$$

  -OEChem-04042323213D

 88 97  0     1  0  0  0  0  0999 V2000
  -25.2983  -36.7553   22.0996 C   0  0  0  0  0  0  0  0  0  0  0  0
  -26.0316  -35.6447   21.6944 C   0  0  0  0  0  0  0  0  0  0  0  0
  -28.4869  -18.8230   16.5694 C   0  0  0  0  0  0  0  0  0  0  0  0
  -23.2757  -10.5228   18.5761 C   0  0  0  0  0  0  0  0  0  0  0  0
  -22.8680  -10.2188   20.9380 C   0  0  0  0  0  0  0  0  0  0  0  0
  -29.1344  -17.7627   17.2035 C   0  0  0  0  0  0  0  0  0  0  0  0
  -24.2527  -36.6048   23.0094 C   0  0  0  0  0  0  0  0  0  0  0  0
  -25.7204  -34.3829   22.1999 C   0  0  0  0  0  0  0  0  0  0  0  0
  -26.1018  -29.0348   19.2404 C   0  0  0  0  0  0  0  0  0  0  0  0
  -28.4960  -20.0922   17.1481 C   0  0  0  0  0  0  0  0  0  0  0  0
  -22.4039   -9.4721   18.2904 C   0  0  0  0  0  0  0  0  0  0  0  0
  -21.9962   -9.1681   20.6523 C   0  0  0  0  0  0  0  0  0  0  0  0
  -27.0720  -28.0336   19.2337 C   0  0  0  0  0  0  0  0  0  0  0  0
  -18.8069   -8.7967   19.5981 C   0  0  0  0  0  0  0  0  0  0  0  0
  -17.5889   -8.7644   20.2770 C   0  0  0  0  0  0  0  0  0  0  0  0
  -25.8186  -26.8164   20.8970 C   0  0  0  0  0  0  0  0  0  0  0  0
  -18.1648   -6.6107   21.2080 C   0  0  0  0  0  0  0  0  0  0  0  0
  -23.5078  -10.8961   19.8999 C   0  0  0  0  0  0  0  0  0  0  0  0
  -29.7911  -17.9715   18.4163 C   0  0  0  0  0  0  0  0  0  0  0  0
  -24.0854  -13.3458   20.3158 C   0  0  0  0  0  0  0  0  0  0  0  0
  -23.9222  -35.3391   23.5189 C   0  0  0  0  0  0  0  0  0  0  0  0
  -24.9864  -28.9394   20.0848 C   0  0  0  0  0  0  0  0  0  0  0  0
  -24.6702  -34.2155   23.1184 C   0  0  0  0  0  0  0  0  0  0  0  0
  -24.8344  -27.8165   20.9106 C   0  0  0  0  0  0  0  0  0  0  0  0
  -29.8002  -19.2407   18.9950 C   0  0  0  0  0  0  0  0  0  0  0  0
  -29.1526  -20.3010   18.3609 C   0  0  0  0  0  0  0  0  0  0  0  0
  -21.7641   -8.7948   19.3285 C   0  0  0  0  0  0  0  0  0  0  0  0
  -26.9320  -26.9256   20.0642 C   0  0  0  0  0  0  0  0  0  0  0  0
  -19.7039   -7.7359   19.7241 C   0  0  0  0  0  0  0  0  0  0  0  0
  -17.2678   -7.6715   21.0820 C   0  0  0  0  0  0  0  0  0  0  0  0
  -19.3828   -6.6429   20.5291 C   0  0  0  0  0  0  0  0  0  0  0  0
  -24.4087  -11.9809   20.1957 C   0  0  0  0  0  0  0  0  0  0  0  0
  -25.2811  -13.9581   20.6018 C   0  0  0  0  0  0  0  0  0  0  0  0
  -28.3374  -23.6419   19.6827 C   0  0  0  0  0  0  0  0  0  0  0  0
  -30.2777  -22.4002   19.2246 C   0  0  0  0  0  0  0  0  0  0  0  0
  -30.4668  -16.8316   19.0610 C   0  0  0  0  0  0  0  0  0  0  0  0
  -27.4923  -24.6809   19.7201 C   0  0  0  0  0  0  0  0  0  1  0  0
  -22.8175  -14.0015   20.1809 C   0  0  0  0  0  0  0  0  0  0  0  0
  -23.8420  -30.6691   22.4936 C   0  0  0  0  0  0  0  0  0  0  0  0
  -21.3518  -28.6011   22.2833 C   0  0  0  0  0  0  0  0  0  0  0  0
  -20.2071  -25.5327   21.3231 C   0  0  0  0  0  0  0  0  0  0  0  0
  -30.7253  -14.5991   19.5517 C   0  0  0  0  0  0  0  0  0  0  0  0
  -22.8140  -35.2329   24.5364 C   0  0  0  0  0  0  0  0  0  0  0  0
  -23.9352  -30.0150   20.0606 C   0  0  0  0  0  0  0  0  0  0  0  0
  -23.6452  -27.6566   21.8209 C   0  0  0  0  0  0  0  0  0  0  0  0
  -27.9113  -22.2618   19.3108 C   0  0  0  0  0  0  0  0  0  0  0  0
  -22.3069  -33.8072   24.7380 C   0  0  0  0  0  0  0  0  0  0  0  0
  -29.7661  -12.0170   21.8792 C   0  0  0  0  0  0  0  0  0  0  0  0
  -23.4772  -32.8405   24.8882 C   0  0  0  0  0  0  0  0  0  0  0  0
  -28.2652  -11.8667   21.6316 C   0  0  0  0  0  0  0  0  0  0  0  0
  -30.5165  -12.3409   20.5910 C   0  0  0  0  0  0  0  0  0  0  0  0
  -28.4917  -13.3980   19.6257 C   0  0  0  0  0  0  0  0  0  0  0  0
  -24.3469  -32.8267   23.6253 C   0  0  1  0  0  0  0  0  0  0  0  0
  -23.0999  -30.0629   21.3363 C   0  0  1  0  0  0  0  0  0  0  0  0
  -27.6976  -13.1016   20.9093 C   0  0  1  0  0  0  0  0  0  0  0  0
  -29.8257  -23.6905   19.9101 C   0  0  0  0  0  0  0  0  0  0  0  0
  -30.5051  -19.4634   20.2970 C   0  0  0  0  0  0  0  0  0  0  0  0
  -30.5249  -24.8932   19.2709 C   0  0  0  0  0  0  0  0  0  0  0  0
  -30.1547  -23.5962   21.4034 C   0  0  0  0  0  0  0  0  0  0  0  0
  -18.1352  -24.1170   21.3160 C   0  0  0  0  0  0  0  0  0  0  0  0
  -21.7242  -28.0454   25.2603 C   0  0  0  0  0  0  0  0  0  0  0  0
  -20.3164  -25.9938   24.9823 C   0  0  0  0  0  0  0  0  0  0  0  0
  -19.3417  -28.2443   24.5262 C   0  0  0  0  0  0  0  0  0  0  0  0
  -20.1854  -25.3746   18.3679 C   0  0  0  0  0  0  0  0  0  0  0  0
  -21.0153  -27.2663   22.9030 C   0  0  1  0  0  0  0  0  0  0  0  0
  -18.9760  -25.1173   20.5381 C   0  0  2  0  0  0  0  0  0  0  0  0
  -20.6229  -27.3911   24.4023 C   0  0  0  0  0  0  0  0  0  0  0  0
  -25.7081  -11.7399   20.3895 N   0  0  0  0  0  0  0  0  0  0  0  0
  -30.0426  -15.6189   18.9165 N   0  0  0  0  0  0  0  0  0  0  0  0
  -26.2118  -12.9616   20.6341 N   0  0  0  0  0  0  0  0  0  0  0  0
  -29.1496  -21.6124   18.9362 N   0  0  0  0  0  0  0  0  0  0  0  0
  -22.6477  -28.7381   21.7659 N   0  0  0  0  0  0  0  0  0  0  0  0
  -29.9281  -13.4987   19.9163 N   0  0  0  0  0  0  0  0  0  0  0  0
  -25.6167  -15.2463   20.8263 N   0  0  0  0  0  0  0  0  0  0  0  0
  -21.6905  -13.2225   19.8853 N   0  0  0  0  0  0  0  0  0  0  0  0
  -23.7160  -32.0421   22.5857 N   0  0  0  0  0  0  0  0  0  0  0  0
  -19.9805  -26.6748   22.0617 N   0  0  0  0  0  0  0  0  0  0  0  0
  -19.3728  -24.4925   19.2447 N   0  3  0  0  0  0  0  0  0  0  0  0
  -31.4609  -22.1466   19.0322 O   0  0  0  0  0  0  0  0  0  0  0  0
  -22.6906  -15.2436   20.3021 O   0  0  0  0  0  0  0  0  0  0  0  0
  -24.4805  -29.9446   23.2481 O   0  0  0  0  0  0  0  0  0  0  0  0
  -20.4941  -29.4870   22.2527 O   0  0  0  0  0  0  0  0  0  0  0  0
  -21.2629  -24.9047   21.2878 O   0  0  0  0  0  0  0  0  0  0  0  0
  -31.9358  -14.6243   19.7866 O   0  0  0  0  0  0  0  0  0  0  0  0
  -20.9131   -7.7697   19.0500 O   0  0  0  0  0  0  0  0  0  0  0  0
  -27.8779  -25.9472   20.0602 O   0  0  0  0  0  0  0  0  0  1  0  0
  -16.0988   -7.6414   21.7351 F   0  0  0  0  0  0  0  0  0  0  0  0
  -20.2410   -5.6214   20.6549 F   0  0  0  0  0  0  0  0  0  0  0  0
  1  2  1  0  0  0  0
  1  7  2  0  0  0  0
  2  8  2  0  0  0  0
  3  6  1  0  0  0  0
  3 10  2  0  0  0  0
  4 11  2  0  0  0  0
  4 18  1  0  0  0  0
  5 12  1  0  0  0  0
  5 18  2  0  0  0  0
  6 19  2  0  0  0  0
  7 21  1  0  0  0  0
  8 23  1  0  0  0  0
  9 13  2  0  0  0  0
  9 22  1  0  0  0  0
 10 26  1  0  0  0  0
 11 27  1  0  0  0  0
 12 27  2  0  0  0  0
 13 28  1  0  0  0  0
 14 15  2  0  0  0  0
 14 29  1  0  0  0  0
 15 30  1  0  0  0  0
 16 24  1  0  0  0  0
 16 28  2  0  0  0  0
 17 30  2  0  0  0  0
 17 31  1  0  0  0  0
 18 32  1  0  0  0  0
 19 25  1  0  0  0  0
 19 36  1  0  0  0  0
 20 32  1  0  0  0  0
 20 33  2  0  0  0  0
 20 38  1  0  0  0  0
 21 23  2  0  0  0  0
 21 43  1  0  0  0  0
 22 24  2  0  0  0  0
 22 44  1  0  0  0  0
 23 53  1  0  0  0  0
 24 45  1  0  0  0  0
 25 26  2  0  0  0  0
 25 57  1  0  0  0  0
 26 71  1  0  0  0  0
 27 85  1  0  0  0  0
 28 86  1  0  0  0  0
 29 31  2  0  0  0  0
 29 85  1  0  0  0  0
 30 87  1  0  0  0  0
 31 88  1  0  0  0  0
 32 68  2  0  0  0  0
 33 70  1  0  0  0  0
 33 74  1  0  0  0  0
 34 37  2  0  0  0  0
 34 46  1  0  0  0  0
 34 56  1  0  0  0  0
 35 56  1  0  0  0  0
 35 71  1  0  0  0  0
 35 79  2  0  0  0  0
 36 69  2  0  0  0  0
 37 86  1  0  0  0  0
 38 75  1  0  0  0  0
 38 80  2  0  0  0  0
 39 54  1  0  0  0  0
 39 76  1  0  0  0  0
 39 81  2  0  0  0  0
 40 65  1  0  0  0  0
 40 72  1  0  0  0  0
 40 82  2  0  0  0  0
 41 66  1  0  0  0  0
 41 77  1  0  0  0  0
 41 83  2  0  0  0  0
 42 69  1  0  0  0  0
 42 73  1  0  0  0  0
 42 84  2  0  0  0  0
 43 47  1  0  0  0  0
 44 54  1  0  0  0  0
 45 72  1  0  0  0  0
 46 71  1  0  0  0  0
 47 49  1  0  0  0  0
 48 50  1  0  0  0  0
 48 51  1  0  0  0  0
 49 53  1  0  0  0  0
 50 55  1  0  0  0  0
 51 73  1  0  0  0  0
 52 55  1  0  0  0  0
 52 73  1  0  0  0  0
 53 76  1  0  0  0  0
 54 72  1  0  0  0  0
 55 70  1  0  0  0  0
 56 58  1  0  0  0  0
 56 59  1  0  0  0  0
 60 66  1  0  0  0  0
 61 67  1  0  0  0  0
 62 67  1  0  0  0  0
 63 67  1  0  0  0  0
 64 78  1  0  0  0  0
 65 67  1  0  0  0  0
 65 77  1  0  0  0  0
 66 78  1  0  0  0  0
 68 70  1  0  0  0  0
M  CHG  1  78   1
M  ISO  4  37 101  42 100  69 100  86 101
M  END
> <Batch ID>
0066

> <Smiles>
CNC(C)C(=O)NC(C(=O)N1Cc2cc([101O:1][101CH:1]=C3CN(c4cccc(C=[100N:0][100C:0](=O)N5CCCC(n6nc(-c7ccc(Oc8ccc(F)cc8F)cc7)c(C(N)=O)c6N)C5)c4C)C(=O)C3(C)C)ccc2CC1C(=O)NC1CCCc2ccccc21)C(C)(C)C

> <Shape>
0.318

> <Color>
0.130

> <Negative vol penalty>
0.000

$$$$

  -OEChem-04042323213D

 92101  0     1  0  0  0  0  0999 V2000
  -16.4739  -28.7591   23.8447 C   0  0  0  0  0  0  0  0  0  0  0  0
  -17.3730  -27.8094   23.3702 C   0  0  0  0  0  0  0  0  0  0  0  0
  -23.7672   -8.7796   19.4776 C   0  0  0  0  0  0  0  0  0  0  0  0
  -23.2753  -10.2907   21.2975 C   0  0  0  0  0  0  0  0  0  0  0  0
  -16.9184  -30.0430   24.1576 C   0  0  0  0  0  0  0  0  0  0  0  0
  -18.7170  -28.1435   23.2072 C   0  0  0  0  0  0  0  0  0  0  0  0
  -23.5504  -24.4810   24.0613 C   0  0  0  0  0  0  0  0  0  0  0  0
  -22.9131   -7.8288   20.0361 C   0  0  0  0  0  0  0  0  0  0  0  0
  -22.4211   -9.3399   21.8560 C   0  0  0  0  0  0  0  0  0  0  0  0
  -24.3385  -23.7463   23.1765 C   0  0  0  0  0  0  0  0  0  0  0  0
  -19.2750   -8.2158   21.3473 C   0  0  0  0  0  0  0  0  0  0  0  0
  -18.0332   -8.6533   21.8076 C   0  0  0  0  0  0  0  0  0  0  0  0
  -25.9426  -25.5471   23.1195 C   0  0  0  0  0  0  0  0  0  0  0  0
  -29.8468  -20.1211   20.7724 C   0  0  0  0  0  0  0  0  0  0  0  0
  -30.7240  -17.8724   20.8744 C   0  0  0  0  0  0  0  0  0  0  0  0
  -28.6093  -18.2959   19.7854 C   0  0  0  0  0  0  0  0  0  0  0  0
  -18.5881   -7.8889   24.0313 C   0  0  0  0  0  0  0  0  0  0  0  0
  -23.9484  -10.0106   20.1083 C   0  0  0  0  0  0  0  0  0  0  0  0
  -24.4950  -11.9988   18.6063 C   0  0  0  0  0  0  0  0  0  0  0  0
  -18.2703  -30.3901   24.0076 C   0  0  0  0  0  0  0  0  0  0  0  0
  -23.9478  -25.7609   24.4741 C   0  0  0  0  0  0  0  0  0  0  0  0
  -19.1797  -29.4336   23.5172 C   0  0  0  0  0  0  0  0  0  0  0  0
  -25.1590  -26.2949   24.0116 C   0  0  0  0  0  0  0  0  0  0  0  0
  -30.8440  -19.2304   21.1694 C   0  0  0  0  0  0  0  0  0  0  0  0
  -28.7293  -19.6539   20.0804 C   0  0  0  0  0  0  0  0  0  0  0  0
  -29.6066  -17.4051   20.1824 C   0  0  0  0  0  0  0  0  0  0  0  0
  -22.2400   -8.1089   21.2253 C   0  0  0  0  0  0  0  0  0  0  0  0
  -25.5334  -24.2805   22.7032 C   0  0  0  0  0  0  0  0  0  0  0  0
  -20.1734   -7.6147   22.2289 C   0  0  0  0  0  0  0  0  0  0  0  0
  -17.6897   -8.4900   23.1496 C   0  0  0  0  0  0  0  0  0  0  0  0
  -19.8300   -7.4513   23.5709 C   0  0  0  0  0  0  0  0  0  0  0  0
  -24.8311  -10.9929   19.5321 C   0  0  0  0  0  0  0  0  0  0  0  0
  -25.6756  -12.6619   18.3760 C   0  0  0  0  0  0  0  0  0  0  0  0
  -26.5332  -20.2467   18.9756 C   0  0  0  0  0  0  0  0  0  0  0  0
  -23.2288  -12.3063   18.0081 C   0  0  0  0  0  0  0  0  0  0  0  0
  -22.7341  -28.6854   24.1949 C   0  0  0  0  0  0  0  0  0  0  0  0
  -26.4950  -23.9091   19.0241 C   0  0  0  0  0  0  0  0  0  0  0  0
  -25.2116  -29.4766   26.1335 C   0  0  0  0  0  0  0  0  0  0  0  0
  -28.3259  -28.7236   27.3086 C   0  0  0  0  0  0  0  0  0  0  0  0
  -30.3816  -15.0082   20.2065 C   0  0  0  0  0  0  0  0  0  0  0  0
  -18.6950  -31.8045   24.3141 C   0  0  0  0  0  0  0  0  0  0  0  0
  -23.0996  -26.5295   25.4498 C   0  0  0  0  0  0  0  0  0  0  0  0
  -25.6405  -27.6562   24.4401 C   0  0  0  0  0  0  0  0  0  0  0  0
  -25.7943  -21.5370   18.7031 C   0  0  0  0  0  0  0  0  0  0  0  0
  -20.2050  -31.9672   24.4684 C   0  0  0  0  0  0  0  0  0  0  0  0
  -30.4226  -11.4867   19.6824 C   0  0  0  0  0  0  0  0  0  0  0  0
  -20.9371  -31.2568   23.3343 C   0  0  0  0  0  0  0  0  0  0  0  0
  -28.9439  -11.1271   19.5204 C   0  0  0  0  0  0  0  0  0  0  0  0
  -30.6277  -12.5893   20.7197 C   0  0  0  0  0  0  0  0  0  0  0  0
  -28.3469  -13.4408   20.3433 C   0  0  0  0  0  0  0  0  0  0  0  0
  -27.8265  -21.9964   19.8874 C   0  0  0  0  0  0  0  0  0  0  0  0
  -20.6501  -29.7505   23.3505 C   0  0  1  0  0  0  0  0  0  0  0  0
  -23.3481  -28.0340   25.4017 C   0  0  1  0  0  0  0  0  0  0  0  0
  -28.0842  -12.3800   19.2620 C   0  0  2  0  0  0  0  0  0  0  0  0
  -26.4215  -22.5498   19.6589 C   0  0  1  0  0  0  0  0  0  0  0  0
  -30.1074  -29.5781   28.8557 C   0  0  0  0  0  0  0  0  0  0  0  0
  -25.9930  -31.5814   24.0672 C   0  0  0  0  0  0  0  0  0  0  0  0
  -28.2378  -31.7264   25.1664 C   0  0  0  0  0  0  0  0  0  0  0  0
  -26.1835  -32.3326   26.4450 C   0  0  0  0  0  0  0  0  0  0  0  0
  -28.1753  -26.3039   29.0061 C   0  0  0  0  0  0  0  0  0  0  0  0
  -25.1620  -25.6200   18.0862 C   0  0  0  0  0  0  0  0  0  0  0  0
  -25.6313  -22.6613   20.9641 C   0  0  0  0  0  0  0  0  0  1  0  0
  -26.6437  -29.9031   25.9182 C   0  0  1  0  0  0  0  0  0  0  0  0
  -28.8874  -28.6807   28.7184 C   0  0  2  0  0  0  0  0  0  0  0  0
  -32.0381  -19.7304   21.9105 C   0  0  0  0  0  0  0  0  0  0  0  0
  -26.7548  -31.3610   25.3894 C   0  0  0  0  0  0  0  0  0  0  0  0
  -26.1240  -11.0114   19.8669 N   0  0  0  0  0  0  0  0  0  0  0  0
  -26.6107  -12.0369   19.1475 N   0  0  0  0  0  0  0  0  0  0  0  0
  -27.7086  -20.5662   19.6744 N   0  0  0  0  0  0  0  0  0  0  0  0
  -24.7729  -28.3714   25.3906 N   0  0  0  0  0  0  0  0  0  0  0  0
  -29.7848  -13.7456   20.4080 N   0  0  0  0  0  0  0  0  0  0  0  0
  -25.9946  -13.7126   17.5908 N   0  0  0  0  0  0  0  0  0  0  0  0
  -22.1183  -11.5251   18.3556 N   0  0  0  0  0  0  0  0  0  0  0  0
  -29.4839  -16.0254   19.8839 N   0  0  0  0  0  0  0  0  0  0  0  0
  -21.4288  -29.0987   24.3815 N   0  0  0  0  0  0  0  0  0  0  0  0
  -27.3329  -29.6720   27.1830 N   0  0  0  0  0  0  0  0  0  0  0  0
  -29.2848  -27.2894   29.0755 N   0  3  0  0  0  0  0  0  0  0  0  0
  -26.1266  -19.1654   18.5741 O   0  0  0  0  0  0  0  0  0  0  0  0
  -23.0897  -13.2357   17.1772 O   0  0  0  0  0  0  0  0  0  0  0  0
  -23.3961  -28.8055   23.1707 O   0  0  0  0  0  0  0  0  0  0  0  0
  -27.5371  -24.5224   18.8369 O   0  0  0  0  0  0  0  0  0  0  0  0
  -24.5102  -30.0967   26.9367 O   0  0  0  0  0  0  0  0  0  0  0  0
  -28.7305  -27.9918   26.4079 O   0  0  0  0  0  0  0  0  0  0  0  0
  -31.6022  -15.1691   20.2857 O   0  0  0  0  0  0  0  0  0  0  0  0
  -21.4063   -7.1815   21.7705 O   0  0  0  0  0  0  0  0  0  0  0  0
  -26.3042  -23.5658   21.8390 O   0  0  0  0  0  0  0  0  0  1  0  0
  -25.2389  -24.3305   18.7022 O   0  0  0  0  0  0  0  0  0  0  0  0
  -16.4978   -8.9116   23.5919 F   0  0  0  0  0  0  0  0  0  0  0  0
  -20.6894   -6.8757   24.4229 F   0  0  0  0  0  0  0  0  0  0  0  0
  -32.0212  -21.0785   22.1298 F   0  0  0  0  0  0  0  0  0  0  0  0
  -32.1879  -19.1702   23.1471 F   0  0  0  0  0  0  0  0  0  0  0  0
  -33.2071  -19.4813   21.2515 F   0  0  0  0  0  0  0  0  0  0  0  0
  1  2  1  0  0  0  0
  1  5  2  0  0  0  0
  2  6  2  0  0  0  0
  3  8  2  0  0  0  0
  3 18  1  0  0  0  0
  4  9  1  0  0  0  0
  4 18  2  0  0  0  0
  5 20  1  0  0  0  0
  6 22  1  0  0  0  0
  7 10  2  0  0  0  0
  7 21  1  0  0  0  0
  8 27  1  0  0  0  0
  9 27  2  0  0  0  0
 10 28  1  0  0  0  0
 11 12  2  0  0  0  0
 11 29  1  0  0  0  0
 12 30  1  0  0  0  0
 13 23  1  0  0  0  0
 13 28  2  0  0  0  0
 14 24  1  0  0  0  0
 14 25  2  0  0  0  0
 15 24  2  0  0  0  0
 15 26  1  0  0  0  0
 16 25  1  0  0  0  0
 16 26  2  0  0  0  0
 17 30  2  0  0  0  0
 17 31  1  0  0  0  0
 18 32  1  0  0  0  0
 19 32  1  0  0  0  0
 19 33  2  0  0  0  0
 19 35  1  0  0  0  0
 20 22  2  0  0  0  0
 20 41  1  0  0  0  0
 21 23  2  0  0  0  0
 21 42  1  0  0  0  0
 22 52  1  0  0  0  0
 23 43  1  0  0  0  0
 24 65  1  0  0  0  0
 25 69  1  0  0  0  0
 26 74  1  0  0  0  0
 27 85  1  0  0  0  0
 28 86  1  0  0  0  0
 29 31  2  0  0  0  0
 29 85  1  0  0  0  0
 30 88  1  0  0  0  0
 31 89  1  0  0  0  0
 32 67  2  0  0  0  0
 33 68  1  0  0  0  0
 33 72  1  0  0  0  0
 34 44  1  0  0  0  0
 34 69  1  0  0  0  0
 34 78  2  0  0  0  0
 35 73  1  0  0  0  0
 35 79  2  0  0  0  0
 36 53  1  0  0  0  0
 36 75  1  0  0  0  0
 36 80  2  0  0  0  0
 37 55  1  0  0  0  0
 37 81  2  0  0  0  0
 37 87  1  0  0  0  0
 38 63  1  0  0  0  0
 38 70  1  0  0  0  0
 38 82  2  0  0  0  0
 39 64  1  0  0  0  0
 39 76  1  0  0  0  0
 39 83  2  0  0  0  0
 40 71  1  0  0  0  0
 40 74  1  0  0  0  0
 40 84  2  0  0  0  0
 41 45  1  0  0  0  0
 42 53  1  0  0  0  0
 43 70  1  0  0  0  0
 44 55  1  0  0  0  0
 45 47  1  0  0  0  0
 46 48  1  0  0  0  0
 46 49  1  0  0  0  0
 47 52  1  0  0  0  0
 48 54  1  0  0  0  0
 49 71  1  0  0  0  0
 50 54  1  0  0  0  0
 50 71  1  0  0  0  0
 51 55  1  0  0  0  0
 51 69  1  0  0  0  0
 52 75  1  0  0  0  0
 53 70  1  0  0  0  0
 54 68  1  0  0  0  0
 55 62  1  0  0  0  0
 56 64  1  0  0  0  0
 57 66  1  0  0  0  0
 58 66  1  0  0  0  0
 59 66  1  0  0  0  0
 60 77  1  0  0  0  0
 61 87  1  0  0  0  0
 62 86  1  0  0  0  0
 63 66  1  0  0  0  0
 63 76  1  0  0  0  0
 64 77  1  0  0  0  0
 65 90  1  0  0  0  0
 65 91  1  0  0  0  0
 65 92  1  0  0  0  0
 67 68  1  0  0  0  0
M  CHG  1  77   1
M  ISO  4  40 100  62 101  74 100  86 101
M  END
> <Batch ID>
0066

> <Smiles>
CNC(C)C(=O)NC(C(=O)N1Cc2cc([101O:1][101CH2:1]C3(C(=O)OC)CC(=O)N(c4cc([100NH:0][100C:0](=O)N5CCCC(n6nc(-c7ccc(Oc8ccc(F)cc8F)cc7)c(C(N)=O)c6N)C5)cc(C(F)(F)F)c4)C3)ccc2CC1C(=O)NC1CCCc2ccccc21)C(C)(C)C

> <Shape>
0.234

> <Color>
0.120

> <Negative vol penalty>
0.000

$$$$

  -OEChem-04042323213D

 86 94  0     1  0  0  0  0  0999 V2000
  -18.3473  -25.3220   22.3364 C   0  0  0  0  0  0  0  0  0  0  0  0
  -19.6670  -25.1282   21.9411 C   0  0  0  0  0  0  0  0  0  0  0  0
  -22.3581  -13.8030   21.5456 C   0  0  0  0  0  0  0  0  0  0  0  0
  -22.0008  -15.5414   19.9063 C   0  0  0  0  0  0  0  0  0  0  0  0
  -17.8077  -26.6075   22.3541 C   0  0  0  0  0  0  0  0  0  0  0  0
  -20.4476  -26.2198   21.5621 C   0  0  0  0  0  0  0  0  0  0  0  0
  -26.4559  -26.9503   22.4956 C   0  0  0  0  0  0  0  0  0  0  0  0
  -29.6205  -21.1570   19.4699 C   0  0  0  0  0  0  0  0  0  0  0  0
  -29.6427  -22.4971   19.0838 C   0  0  0  0  0  0  0  0  0  0  0  0
  -21.0623  -13.9900   22.0265 C   0  0  0  0  0  0  0  0  0  0  0  0
  -20.7049  -15.7285   20.3872 C   0  0  0  0  0  0  0  0  0  0  0  0
  -27.5641  -26.7501   21.6735 C   0  0  0  0  0  0  0  0  0  0  0  0
  -19.4425  -16.1724   24.0359 C   0  0  0  0  0  0  0  0  0  0  0  0
  -19.2667  -16.2269   25.4185 C   0  0  0  0  0  0  0  0  0  0  0  0
  -27.5532  -29.0929   21.0985 C   0  0  0  0  0  0  0  0  0  0  0  0
  -27.9264  -20.7060   17.8075 C   0  0  0  0  0  0  0  0  0  0  0  0
  -17.7956  -14.3136   25.3068 C   0  0  0  0  0  0  0  0  0  0  0  0
  -22.8275  -14.5787   20.4855 C   0  0  0  0  0  0  0  0  0  0  0  0
  -24.5760  -13.5081   18.9676 C   0  0  0  0  0  0  0  0  0  0  0  0
  -18.5850  -27.7164   21.9844 C   0  0  0  0  0  0  0  0  0  0  0  0
  -25.8805  -28.2233   22.6170 C   0  0  0  0  0  0  0  0  0  0  0  0
  -19.9174  -27.5211   21.5736 C   0  0  0  0  0  0  0  0  0  0  0  0
  -26.4394  -29.3071   21.9247 C   0  0  0  0  0  0  0  0  0  0  0  0
  -27.9485  -22.0462   17.4215 C   0  0  0  0  0  0  0  0  0  0  0  0
  -28.7624  -20.2613   18.8317 C   0  0  0  0  0  0  0  0  0  0  0  0
  -28.8066  -22.9417   18.0596 C   0  0  0  0  0  0  0  0  0  0  0  0
  -20.2356  -14.9528   21.4473 C   0  0  0  0  0  0  0  0  0  0  0  0
  -28.1111  -27.8209   20.9726 C   0  0  0  0  0  0  0  0  0  0  0  0
  -18.7948  -15.1886   23.2887 C   0  0  0  0  0  0  0  0  0  0  0  0
  -18.4432  -15.2975   26.0540 C   0  0  0  0  0  0  0  0  0  0  0  0
  -17.9714  -14.2592   23.9241 C   0  0  0  0  0  0  0  0  0  0  0  0
  -24.1662  -14.3863   19.9887 C   0  0  0  0  0  0  0  0  0  0  0  0
  -25.9328  -13.6997   18.8739 C   0  0  0  0  0  0  0  0  0  0  0  0
  -23.7996  -12.6002   18.1747 C   0  0  0  0  0  0  0  0  0  0  0  0
  -23.0334  -29.4706   21.9521 C   0  0  0  0  0  0  0  0  0  0  0  0
  -24.2751  -32.0908   23.4064 C   0  0  0  0  0  0  0  0  0  0  0  0
  -27.0497  -33.8537   24.3233 C   0  0  0  0  0  0  0  0  0  0  0  0
  -29.5088  -18.2945   20.2176 C   0  0  0  0  0  0  0  0  0  0  0  0
  -29.6429  -25.3202   18.2150 C   0  0  0  0  0  0  0  0  0  0  0  0
  -17.9436  -29.0814   21.9742 C   0  0  0  0  0  0  0  0  0  0  0  0
  -24.7017  -28.4280   23.5286 C   0  0  0  0  0  0  0  0  0  0  0  0
  -25.8713  -30.6975   22.0367 C   0  0  0  0  0  0  0  0  0  0  0  0
  -18.9507  -30.2272   21.9166 C   0  0  0  0  0  0  0  0  0  0  0  0
  -29.7242  -14.9815   21.5040 C   0  0  0  0  0  0  0  0  0  0  0  0
  -20.0099  -29.9540   20.8534 C   0  0  0  0  0  0  0  0  0  0  0  0
  -28.3628  -14.3710   21.1631 C   0  0  0  0  0  0  0  0  0  0  0  0
  -29.6049  -16.4557   21.8863 C   0  0  0  0  0  0  0  0  0  0  0  0
  -27.5346  -16.6840   20.5706 C   0  0  0  0  0  0  0  0  0  0  0  0
  -20.8034  -28.6828   21.1791 C   0  0  1  0  0  0  0  0  0  0  0  0
  -23.8819  -29.6655   23.1767 C   0  0  1  0  0  0  0  0  0  0  0  0
  -27.6119  -15.2173   20.1164 C   0  0  2  0  0  0  0  0  0  0  0  0
  -27.0438  -22.4946   16.3200 C   0  0  0  0  0  0  0  0  0  0  0  0
  -27.7462  -35.9765   25.4662 C   0  0  0  0  0  0  0  0  0  0  0  0
  -23.5216  -33.6781   20.9119 C   0  0  0  0  0  0  0  0  0  0  0  0
  -25.0526  -35.4987   21.6929 C   0  0  0  0  0  0  0  0  0  0  0  0
  -23.0759  -34.8564   23.0724 C   0  0  0  0  0  0  0  0  0  0  0  0
  -28.4954  -32.3759   26.4411 C   0  0  0  0  0  0  0  0  0  0  0  0
  -30.1992  -28.6412   16.6568 C   0  0  0  0  0  0  0  0  0  0  0  0
  -29.3165  -28.4809   19.0316 C   0  0  0  0  0  0  0  0  0  1  0  0
  -25.0612  -33.2957   22.9490 C   0  0  1  0  0  0  0  0  0  0  0  0
  -27.4451  -34.4961   25.6407 C   0  0  2  0  0  0  0  0  0  0  0  0
  -30.0560  -27.7656   17.9012 C   0  0  1  0  0  0  0  0  0  0  0  0
  -24.1876  -34.3058   22.1527 C   0  0  0  0  0  0  0  0  0  0  0  0
  -25.1806  -15.0839   20.5067 N   0  0  0  0  0  0  0  0  0  0  0  0
  -26.2413  -14.6441   19.8084 N   0  0  0  0  0  0  0  0  0  0  0  0
  -24.7149  -30.8455   22.9357 N   0  0  0  0  0  0  0  0  0  0  0  0
  -28.8864  -17.1954   20.8464 N   0  0  0  0  0  0  0  0  0  0  0  0
  -26.8802  -13.1508   18.0843 N   0  0  0  0  0  0  0  0  0  0  0  0
  -22.4183  -12.5287   18.4010 N   0  0  0  0  0  0  0  0  0  0  0  0
  -28.7421  -18.8994   19.2222 N   0  0  0  0  0  0  0  0  0  0  0  0
  -28.8450  -24.3041   17.6816 N   0  0  0  0  0  0  0  0  0  0  0  0
  -21.7810  -28.9482   22.2128 N   0  0  0  0  0  0  0  0  0  0  0  0
  -25.6825  -33.8556   24.1443 N   0  0  0  0  0  0  0  0  0  0  0  0
  -29.3815  -26.5298   17.5661 N   0  0  0  0  0  0  0  0  0  0  0  0
  -28.6579  -33.8323   26.1972 N   0  3  0  0  0  0  0  0  0  0  0  0
  -24.3179  -11.8620   17.3030 O   0  0  0  0  0  0  0  0  0  0  0  0
  -23.4812  -29.7733   20.8523 O   0  0  0  0  0  0  0  0  0  0  0  0
  -23.3110  -32.2481   24.1596 O   0  0  0  0  0  0  0  0  0  0  0  0
  -27.8716  -33.3994   23.5306 O   0  0  0  0  0  0  0  0  0  0  0  0
  -30.6496  -18.6544   20.5196 O   0  0  0  0  0  0  0  0  0  0  0  0
  -30.4651  -25.2065   19.1209 O   0  0  0  0  0  0  0  0  0  0  0  0
  -30.9248  -27.9277   15.6613 O   0  0  0  0  0  0  0  0  0  0  0  0
  -18.9710  -15.1354   21.9161 O   0  0  0  0  0  0  0  0  0  0  0  0
  -29.1923  -27.6281   20.1690 O   0  0  0  0  0  0  0  0  0  1  0  0
  -18.2757  -15.3489   27.3819 F   0  0  0  0  0  0  0  0  0  0  0  0
  -17.3475  -13.3110   23.2117 F   0  0  0  0  0  0  0  0  0  0  0  0
  1  2  1  0  0  0  0
  1  5  2  0  0  0  0
  2  6  2  0  0  0  0
  3 10  2  0  0  0  0
  3 18  1  0  0  0  0
  4 11  1  0  0  0  0
  4 18  2  0  0  0  0
  5 20  1  0  0  0  0
  6 22  1  0  0  0  0
  7 12  2  0  0  0  0
  7 21  1  0  0  0  0
  8  9  2  0  0  0  0
  8 25  1  0  0  0  0
  9 26  1  0  0  0  0
 10 27  1  0  0  0  0
 11 27  2  0  0  0  0
 12 28  1  0  0  0  0
 13 14  2  0  0  0  0
 13 29  1  0  0  0  0
 14 30  1  0  0  0  0
 15 23  1  0  0  0  0
 15 28  2  0  0  0  0
 16 24  1  0  0  0  0
 16 25  2  0  0  0  0
 17 30  2  0  0  0  0
 17 31  1  0  0  0  0
 18 32  1  0  0  0  0
 19 32  1  0  0  0  0
 19 33  2  0  0  0  0
 19 34  1  0  0  0  0
 20 22  2  0  0  0  0
 20 40  1  0  0  0  0
 21 23  2  0  0  0  0
 21 41  1  0  0  0  0
 22 49  1  0  0  0  0
 23 42  1  0  0  0  0
 24 26  2  0  0  0  0
 24 52  1  0  0  0  0
 25 70  1  0  0  0  0
 26 71  1  0  0  0  0
 27 83  1  0  0  0  0
 28 84  1  0  0  0  0
 29 31  2  0  0  0  0
 29 83  1  0  0  0  0
 30 85  1  0  0  0  0
 31 86  1  0  0  0  0
 32 64  2  0  0  0  0
 33 65  1  0  0  0  0
 33 68  1  0  0  0  0
 34 69  1  0  0  0  0
 34 76  2  0  0  0  0
 35 50  1  0  0  0  0
 35 72  1  0  0  0  0
 35 77  2  0  0  0  0
 36 60  1  0  0  0  0
 36 66  1  0  0  0  0
 36 78  2  0  0  0  0
 37 61  1  0  0  0  0
 37 73  1  0  0  0  0
 37 79  2  0  0  0  0
 38 67  1  0  0  0  0
 38 70  1  0  0  0  0
 38 80  2  0  0  0  0
 39 71  1  0  0  0  0
 39 74  1  0  0  0  0
 39 81  2  0  0  0  0
 40 43  1  0  0  0  0
 41 50  1  0  0  0  0
 42 66  1  0  0  0  0
 43 45  1  0  0  0  0
 44 46  1  0  0  0  0
 44 47  1  0  0  0  0
 45 49  1  0  0  0  0
 46 51  1  0  0  0  0
 47 67  1  0  0  0  0
 48 51  1  0  0  0  0
 48 67  1  0  0  0  0
 49 72  1  0  0  0  0
 50 66  1  0  0  0  0
 51 65  1  0  0  0  0
 53 61  1  0  0  0  0
 54 63  1  0  0  0  0
 55 63  1  0  0  0  0
 56 63  1  0  0  0  0
 57 75  1  0  0  0  0
 58 62  1  0  0  0  0
 58 82  1  0  0  0  0
 59 62  1  0  0  0  0
 59 84  1  0  0  0  0
 60 63  1  0  0  0  0
 60 73  1  0  0  0  0
 61 75  1  0  0  0  0
 62 74  1  0  0  0  0
 64 65  1  0  0  0  0
M  CHG  1  75   1
M  ISO  4  38 100  59 101  70 100  84 101
M  END
> <Batch ID>
0066

> <Smiles>
CNC(C)C(=O)NC(C(=O)N1Cc2cc([101O:1][101CH2:1]C(CO)NC(=O)Nc3ccc([100NH:0][100C:0](=O)N4CCCC(n5nc(-c6ccc(Oc7ccc(F)cc7F)cc6)c(C(N)=O)c5N)C4)cc3C)ccc2CC1C(=O)NC1CCCc2ccccc21)C(C)(C)C

> <Shape>
0.284

> <Color>
0.094

> <Negative vol penalty>
0.000

$$$$

  -OEChem-04042323213D

 86 95  0     1  0  0  0  0  0999 V2000
  -28.9335  -37.5998   20.2061 C   0  0  0  0  0  0  0  0  0  0  0  0
  -29.1525  -36.2944   19.7778 C   0  0  0  0  0  0  0  0  0  0  0  0
  -28.1730  -20.7985   14.8341 C   0  0  0  0  0  0  0  0  0  0  0  0
  -24.9282   -8.4070   21.0885 C   0  0  0  0  0  0  0  0  0  0  0  0
  -23.3254   -9.7637   19.8937 C   0  0  0  0  0  0  0  0  0  0  0  0
  -28.4005  -37.8366   21.4725 C   0  0  0  0  0  0  0  0  0  0  0  0
  -28.8398  -35.2251   20.6163 C   0  0  0  0  0  0  0  0  0  0  0  0
  -26.7078  -29.7341   18.9402 C   0  0  0  0  0  0  0  0  0  0  0  0
  -28.1317  -22.1363   15.2276 C   0  0  0  0  0  0  0  0  0  0  0  0
  -23.9131   -7.5171   21.4397 C   0  0  0  0  0  0  0  0  0  0  0  0
  -22.3104   -8.8738   20.2449 C   0  0  0  0  0  0  0  0  0  0  0  0
  -27.3342  -28.5036   18.7471 C   0  0  0  0  0  0  0  0  0  0  0  0
  -21.4143   -7.3601   23.7103 C   0  0  0  0  0  0  0  0  0  0  0  0
  -21.3701   -6.9176   25.0324 C   0  0  0  0  0  0  0  0  0  0  0  0
  -28.1022  -21.4555   17.5435 C   0  0  0  0  0  0  0  0  0  0  0  0
  -28.1500  -19.0752   18.1219 C   0  0  0  0  0  0  0  0  0  0  0  0
  -28.2207  -18.4182   15.4125 C   0  0  0  0  0  0  0  0  0  0  0  0
  -26.7309  -27.8513   20.9897 C   0  0  0  0  0  0  0  0  0  0  0  0
  -21.6354   -4.6377   24.2783 C   0  0  0  0  0  0  0  0  0  0  0  0
  -28.1794  -19.7701   15.7906 C   0  0  0  0  0  0  0  0  0  0  0  0
  -28.1435  -20.1036   17.1655 C   0  0  0  0  0  0  0  0  0  0  0  0
  -24.6343   -9.5304   20.3155 C   0  0  0  0  0  0  0  0  0  0  0  0
  -26.4965  -10.4019   18.8055 C   0  0  0  0  0  0  0  0  0  0  0  0
  -28.0720  -36.7693   22.3231 C   0  0  0  0  0  0  0  0  0  0  0  0
  -26.0966  -30.0371   20.1654 C   0  0  0  0  0  0  0  0  0  0  0  0
  -28.3032  -35.4478   21.8958 C   0  0  0  0  0  0  0  0  0  0  0  0
  -26.0951  -29.0853   21.1950 C   0  0  0  0  0  0  0  0  0  0  0  0
  -28.0964  -22.4642   16.5797 C   0  0  0  0  0  0  0  0  0  0  0  0
  -28.1913  -17.7373   17.7284 C   0  0  0  0  0  0  0  0  0  0  0  0
  -22.6042   -7.7505   21.0179 C   0  0  0  0  0  0  0  0  0  0  0  0
  -27.3484  -27.5631   19.7729 C   0  0  0  0  0  0  0  0  0  0  0  0
  -21.5690   -6.4413   22.6722 C   0  0  0  0  0  0  0  0  0  0  0  0
  -21.4806   -5.5565   25.3164 C   0  0  0  0  0  0  0  0  0  0  0  0
  -28.2266  -17.4094   16.3763 C   0  0  0  0  0  0  0  0  0  0  0  0
  -21.6796   -5.0802   22.9562 C   0  0  0  0  0  0  0  0  0  0  0  0
  -25.6824  -10.4503   19.9529 C   0  0  0  0  0  0  0  0  0  0  0  0
  -27.3259  -11.4900   18.9268 C   0  0  0  0  0  0  0  0  0  0  0  0
  -26.5025   -9.4579   17.7264 C   0  0  0  0  0  0  0  0  0  0  0  0
  -26.5492  -32.2373   22.4143 C   0  0  0  0  0  0  0  0  0  0  0  0
  -23.8518  -30.9463   23.6714 C   0  0  0  0  0  0  0  0  0  0  0  0
  -28.0169  -24.3243   18.2731 C   0  0  0  0  0  0  0  0  0  0  0  0
  -21.7746  -28.2502   23.9214 C   0  0  0  0  0  0  0  0  0  0  0  0
  -28.1640  -16.8696   20.0933 C   0  0  0  0  0  0  0  0  0  0  0  0
  -27.5423  -37.0761   23.7015 C   0  0  0  0  0  0  0  0  0  0  0  0
  -25.4018  -31.3585   20.3486 C   0  0  0  0  0  0  0  0  0  0  0  0
  -25.4357  -29.3538   22.5222 C   0  0  0  0  0  0  0  0  0  0  0  0
  -26.8885  -35.8772   24.3836 C   0  0  0  0  0  0  0  0  0  0  0  0
  -28.1259  -14.6019   22.8380 C   0  0  0  0  0  0  0  0  0  0  0  0
  -27.7664  -34.6378   24.2413 C   0  0  0  0  0  0  0  0  0  0  0  0
  -27.5538  -13.3157   22.2377 C   0  0  0  0  0  0  0  0  0  0  0  0
  -27.4653  -15.8463   22.2473 C   0  0  0  0  0  0  0  0  0  0  0  0
  -26.9015  -14.6303   20.1802 C   0  0  0  0  0  0  0  0  0  0  0  0
  -27.9536  -34.2607   22.7668 C   0  0  1  0  0  0  0  0  0  0  0  0
  -25.2575  -31.7596   21.8134 C   0  0  1  0  0  0  0  0  0  0  0  0
  -27.5814  -13.3519   20.6971 C   0  0  2  0  0  0  0  0  0  0  0  0
  -19.6704  -27.4828   25.0532 C   0  0  0  0  0  0  0  0  0  0  0  0
  -25.3894  -30.5897   26.2826 C   0  0  0  0  0  0  0  0  0  0  0  0
  -23.6054  -29.0024   27.0352 C   0  0  0  0  0  0  0  0  0  0  0  0
  -23.0340  -31.3835   26.5590 C   0  0  0  0  0  0  0  0  0  0  0  0
  -20.3993  -27.8283   21.3349 C   0  0  0  0  0  0  0  0  0  0  0  0
  -27.9792  -25.8411   18.2587 C   0  0  0  0  0  0  0  0  0  1  0  0
  -23.5528  -29.8251   24.6369 C   0  0  1  0  0  0  0  0  0  0  0  0
  -20.2655  -28.1276   23.8111 C   0  0  2  0  0  0  0  0  0  0  0  0
  -23.9096  -30.1955   26.1042 C   0  0  0  0  0  0  0  0  0  0  0  0
  -25.9687  -11.4869   20.7450 N   0  0  0  0  0  0  0  0  0  0  0  0
  -26.9721  -12.1000   20.0942 N   0  0  0  0  0  0  0  0  0  0  0  0
  -24.7750  -30.6627   22.6549 N   0  0  0  0  0  0  0  0  0  0  0  0
  -27.5332  -15.8137   20.7847 N   0  0  0  0  0  0  0  0  0  0  0  0
  -28.3160  -11.9749   18.1477 N   0  0  0  0  0  0  0  0  0  0  0  0
  -25.5838   -8.4000   17.7590 N   0  0  0  0  0  0  0  0  0  0  0  0
  -28.0547  -23.8218   16.9769 N   0  0  0  0  0  0  0  0  0  0  0  0
  -28.1964  -16.7135   18.7079 N   0  0  0  0  0  0  0  0  0  0  0  0
  -26.7733  -33.5923   22.2623 N   0  0  0  0  0  0  0  0  0  0  0  0
  -22.1516  -29.4737   24.4332 N   0  0  0  0  0  0  0  0  0  0  0  0
  -19.8982  -27.2978   22.6289 N   0  3  0  0  0  0  0  0  0  0  0  0
  -27.3100   -9.5404   16.7700 O   0  0  0  0  0  0  0  0  0  0  0  0
  -27.2871  -31.4361   22.9758 O   0  0  0  0  0  0  0  0  0  0  0  0
  -23.2818  -32.0315   23.8095 O   0  0  0  0  0  0  0  0  0  0  0  0
  -28.0119  -23.6914   19.3239 O   0  0  0  0  0  0  0  0  0  0  0  0
  -22.5420  -27.3491   23.5903 O   0  0  0  0  0  0  0  0  0  0  0  0
  -28.6644  -17.8275   20.6883 O   0  0  0  0  0  0  0  0  0  0  0  0
  -21.6135   -6.8823   21.3602 O   0  0  0  0  0  0  0  0  0  0  0  0
  -27.9598  -26.3616   19.5873 O   0  0  0  0  0  0  0  0  0  1  0  0
  -21.4397   -5.1319   26.5861 F   0  0  0  0  0  0  0  0  0  0  0  0
  -28.2676  -16.1269   15.9877 F   0  0  0  0  0  0  0  0  0  0  0  0
  -21.8296   -4.1929   21.9631 F   0  0  0  0  0  0  0  0  0  0  0  0
  1  2  1  0  0  0  0
  1  6  2  0  0  0  0
  2  7  2  0  0  0  0
  3  9  2  0  0  0  0
  3 20  1  0  0  0  0
  4 10  2  0  0  0  0
  4 22  1  0  0  0  0
  5 11  1  0  0  0  0
  5 22  2  0  0  0  0
  6 24  1  0  0  0  0
  7 26  1  0  0  0  0
  8 12  2  0  0  0  0
  8 25  1  0  0  0  0
  9 28  1  0  0  0  0
 10 30  1  0  0  0  0
 11 30  2  0  0  0  0
 12 31  1  0  0  0  0
 13 14  2  0  0  0  0
 13 32  1  0  0  0  0
 14 33  1  0  0  0  0
 15 21  1  0  0  0  0
 15 28  2  0  0  0  0
 16 21  1  0  0  0  0
 16 29  2  0  0  0  0
 17 20  1  0  0  0  0
 17 34  2  0  0  0  0
 18 27  1  0  0  0  0
 18 31  2  0  0  0  0
 19 33  2  0  0  0  0
 19 35  1  0  0  0  0
 20 21  2  0  0  0  0
 22 36  1  0  0  0  0
 23 36  1  0  0  0  0
 23 37  2  0  0  0  0
 23 38  1  0  0  0  0
 24 26  2  0  0  0  0
 24 44  1  0  0  0  0
 25 27  2  0  0  0  0
 25 45  1  0  0  0  0
 26 53  1  0  0  0  0
 27 46  1  0  0  0  0
 28 71  1  0  0  0  0
 29 34  1  0  0  0  0
 29 72  1  0  0  0  0
 30 82  1  0  0  0  0
 31 83  1  0  0  0  0
 32 35  2  0  0  0  0
 32 82  1  0  0  0  0
 33 84  1  0  0  0  0
 34 85  1  0  0  0  0
 35 86  1  0  0  0  0
 36 65  2  0  0  0  0
 37 66  1  0  0  0  0
 37 69  1  0  0  0  0
 38 70  1  0  0  0  0
 38 76  2  0  0  0  0
 39 54  1  0  0  0  0
 39 73  1  0  0  0  0
 39 77  2  0  0  0  0
 40 62  1  0  0  0  0
 40 67  1  0  0  0  0
 40 78  2  0  0  0  0
 41 61  1  0  0  0  0
 41 71  1  0  0  0  0
 41 79  2  0  0  0  0
 42 63  1  0  0  0  0
 42 74  1  0  0  0  0
 42 80  2  0  0  0  0
 43 68  1  0  0  0  0
 43 72  1  0  0  0  0
 43 81  2  0  0  0  0
 44 47  1  0  0  0  0
 45 54  1  0  0  0  0
 46 67  1  0  0  0  0
 47 49  1  0  0  0  0
 48 50  1  0  0  0  0
 48 51  1  0  0  0  0
 49 53  1  0  0  0  0
 50 55  1  0  0  0  0
 51 68  1  0  0  0  0
 52 55  1  0  0  0  0
 52 68  1  0  0  0  0
 53 73  1  0  0  0  0
 54 67  1  0  0  0  0
 55 66  1  0  0  0  0
 56 63  1  0  0  0  0
 57 64  1  0  0  0  0
 58 64  1  0  0  0  0
 59 64  1  0  0  0  0
 60 75  1  0  0  0  0
 61 83  1  0  0  0  0
 62 64  1  0  0  0  0
 62 74  1  0  0  0  0
 63 75  1  0  0  0  0
 65 66  1  0  0  0  0
M  CHG  1  75   1
M  ISO  4  43 100  61 101  72 100  83 101
M  END
> <Batch ID>
0066

> <Smiles>
CNC(C)C(=O)NC(C(=O)N1Cc2cc([101O:1][101CH2:1]C(=O)Nc3ccc4cc(F)c([100NH:0][100C:0](=O)N5CCCC(n6nc(-c7ccc(Oc8ccc(F)cc8F)cc7)c(C(N)=O)c6N)C5)cc4c3)ccc2CC1C(=O)NC1CCCc2ccccc21)C(C)(C)C

> <Shape>
0.271

> <Color>
0.107

> <Negative vol penalty>
0.000

$$$$

  -OEChem-04042323213D

 92101  0     1  0  0  0  0  0999 V2000
  -30.8306  -22.7975   23.7415 C   0  0  0  0  0  0  0  0  0  0  0  0
  -29.5751  -22.3180   23.3817 C   0  0  0  0  0  0  0  0  0  0  0  0
  -31.2753  -19.4945   18.8747 C   0  0  0  0  0  0  0  0  0  0  0  0
  -29.4948  -20.0155   20.4224 C   0  0  0  0  0  0  0  0  0  0  0  0
  -30.9387  -23.9444   24.5268 C   0  0  0  0  0  0  0  0  0  0  0  0
  -28.4270  -22.9847   23.8081 C   0  0  0  0  0  0  0  0  0  0  0  0
  -25.0119  -23.5323   20.1092 C   0  0  0  0  0  0  0  0  0  0  0  0
  -31.1424  -20.7571   18.2969 C   0  0  0  0  0  0  0  0  0  0  0  0
  -29.3619  -21.2781   19.8447 C   0  0  0  0  0  0  0  0  0  0  0  0
  -24.2372  -22.4186   19.7879 C   0  0  0  0  0  0  0  0  0  0  0  0
  -30.9536  -24.2563   19.9776 C   0  0  0  0  0  0  0  0  0  0  0  0
  -30.8338  -25.3501   20.8346 C   0  0  0  0  0  0  0  0  0  0  0  0
  -22.4184  -23.3141   21.0953 C   0  0  0  0  0  0  0  0  0  0  0  0
  -21.3456  -12.7877   20.3160 C   0  0  0  0  0  0  0  0  0  0  0  0
  -23.1806  -14.7236   21.1329 C   0  0  0  0  0  0  0  0  0  0  0  0
  -28.6785  -25.8673   19.8731 C   0  0  0  0  0  0  0  0  0  0  0  0
  -30.4514  -19.1237   19.9374 C   0  0  0  0  0  0  0  0  0  0  0  0
  -31.4192  -17.4604   21.6121 C   0  0  0  0  0  0  0  0  0  0  0  0
  -29.7916  -24.6310   24.9550 C   0  0  0  0  0  0  0  0  0  0  0  0
  -24.4986  -24.5418   20.9362 C   0  0  0  0  0  0  0  0  0  0  0  0
  -28.5199  -24.1411   24.6010 C   0  0  0  0  0  0  0  0  0  0  0  0
  -23.1877  -24.4409   21.4235 C   0  0  0  0  0  0  0  0  0  0  0  0
  -21.1011  -14.1355   20.0527 C   0  0  0  0  0  0  0  0  0  0  0  0
  -23.4251  -13.3758   21.3962 C   0  0  0  0  0  0  0  0  0  0  0  0
  -22.5075  -12.4079   20.9878 C   0  0  0  0  0  0  0  0  0  0  0  0
  -22.0186  -15.1035   20.4611 C   0  0  0  0  0  0  0  0  0  0  0  0
  -30.1858  -21.6489   18.7819 C   0  0  0  0  0  0  0  0  0  0  0  0
  -22.9412  -22.3080   20.2833 C   0  0  0  0  0  0  0  0  0  0  0  0
  -29.9360  -23.9679   19.0682 C   0  0  0  0  0  0  0  0  0  0  0  0
  -29.6962  -26.1557   20.7825 C   0  0  0  0  0  0  0  0  0  0  0  0
  -28.7984  -24.7734   19.0160 C   0  0  0  0  0  0  0  0  0  0  0  0
  -30.5877  -17.8194   20.5344 C   0  0  0  0  0  0  0  0  0  0  0  0
  -31.1847  -16.1195   21.7949 C   0  0  0  0  0  0  0  0  0  0  0  0
  -22.8956  -10.4192   22.5126 C   0  0  0  0  0  0  0  0  0  0  0  0
  -22.0050  -18.8390   20.0997 C   0  0  0  0  0  0  0  0  0  0  0  0
  -22.6436  -19.9887   20.3399 C   0  0  0  0  0  0  0  0  0  1  0  0
  -32.3228  -18.2670   22.3794 C   0  0  0  0  0  0  0  0  0  0  0  0
  -22.6019  -17.5473   20.5485 C   0  0  0  0  0  0  0  0  0  0  0  0
  -25.2923  -25.7377   23.7723 C   0  0  0  0  0  0  0  0  0  0  0  0
  -22.9477  -27.8738   23.0926 C   0  0  0  0  0  0  0  0  0  0  0  0
  -20.0938  -28.5908   21.3639 C   0  0  0  0  0  0  0  0  0  0  0  0
  -26.5259  -12.5832   20.5138 C   0  0  0  0  0  0  0  0  0  0  0  0
  -29.9575  -25.8395   25.8419 C   0  0  0  0  0  0  0  0  0  0  0  0
  -25.3377  -25.7496   21.2517 C   0  0  0  0  0  0  0  0  0  0  0  0
  -22.5828  -25.5069   22.2987 C   0  0  0  0  0  0  0  0  0  0  0  0
  -28.7008  -26.7005   25.9396 C   0  0  0  0  0  0  0  0  0  0  0  0
  -29.8850  -12.1852   19.4026 C   0  0  0  0  0  0  0  0  0  0  0  0
  -27.4736  -25.8280   26.1839 C   0  0  0  0  0  0  0  0  0  0  0  0
  -30.5210  -13.5517   19.6639 C   0  0  0  0  0  0  0  0  0  0  0  0
  -23.4145   -8.8178   20.8253 C   0  0  0  0  0  0  0  0  0  0  0  0
  -28.4313  -12.3160   18.9535 C   0  0  0  0  0  0  0  0  0  0  0  0
  -22.7892  -10.0405   20.1818 C   0  0  0  0  0  0  0  0  0  0  0  0
  -28.2110  -14.4796   20.1129 C   0  0  0  0  0  0  0  0  0  0  0  0
  -27.2517  -24.8507   25.0233 C   0  0  1  0  0  0  0  0  0  0  0  0
  -24.8949  -26.4696   22.5217 C   0  0  1  0  0  0  0  0  0  0  0  0
  -29.6602  -14.3968   20.6220 C   0  0  2  0  0  0  0  0  0  0  0  0
  -22.9816   -8.9100   22.2907 C   0  0  0  0  0  0  0  0  0  0  0  0
  -19.8474  -14.5135   19.3329 C   0  0  0  0  0  0  0  0  0  0  0  0
  -24.0038   -8.2633   23.2223 C   0  0  0  0  0  0  0  0  0  0  0  0
  -21.5945   -8.2946   22.5097 C   0  0  0  0  0  0  0  0  0  0  0  0
  -18.3871  -30.4024   21.0441 C   0  0  0  0  0  0  0  0  0  0  0  0
  -21.6937  -27.1640   25.7821 C   0  0  0  0  0  0  0  0  0  0  0  0
  -19.5746  -28.2440   25.0004 C   0  0  0  0  0  0  0  0  0  0  0  0
  -21.6554  -29.6015   25.2241 C   0  0  0  0  0  0  0  0  0  0  0  0
  -20.7278  -28.8397   18.4838 C   0  0  0  0  0  0  0  0  0  0  0  0
  -24.6777  -12.9972   22.1175 C   0  0  0  0  0  0  0  0  0  0  0  0
  -21.4583  -27.9381   23.3303 C   0  0  1  0  0  0  0  0  0  0  0  0
  -19.6912  -29.8022   20.5424 C   0  0  2  0  0  0  0  0  0  0  0  0
  -21.1073  -28.2157   24.8193 C   0  0  0  0  0  0  0  0  0  0  0  0
  -29.8781  -16.7896   20.0654 N   0  0  0  0  0  0  0  0  0  0  0  0
  -30.2631  -15.7703   20.8521 N   0  0  0  0  0  0  0  0  0  0  0  0
  -22.7391  -11.0231   21.2478 N   0  0  0  0  0  0  0  0  0  0  0  0
  -23.4451  -26.6656   22.5841 N   0  0  0  0  0  0  0  0  0  0  0  0
  -27.6693  -13.1274   19.9058 N   0  0  0  0  0  0  0  0  0  0  0  0
  -31.6790  -15.2168   22.6685 N   0  0  0  0  0  0  0  0  0  0  0  0
  -32.4424  -19.6260   22.0584 N   0  0  0  0  0  0  0  0  0  0  0  0
  -21.7869  -16.4771   20.2042 N   0  0  0  0  0  0  0  0  0  0  0  0
  -26.6533  -25.5326   23.8958 N   0  0  0  0  0  0  0  0  0  0  0  0
  -20.9387  -28.9331   22.3984 N   0  0  0  0  0  0  0  0  0  0  0  0
  -25.8658  -13.4168   21.4083 N   0  0  0  0  0  0  0  0  0  0  0  0
  -19.5144  -29.4226   19.1122 N   0  3  0  0  0  0  0  0  0  0  0  0
  -22.9047  -10.9306   23.6238 O   0  0  0  0  0  0  0  0  0  0  0  0
  -33.0161  -17.7929   23.3111 O   0  0  0  0  0  0  0  0  0  0  0  0
  -23.6755  -17.5147   21.1384 O   0  0  0  0  0  0  0  0  0  0  0  0
  -24.4283  -25.3865   24.5672 O   0  0  0  0  0  0  0  0  0  0  0  0
  -23.6431  -28.8616   23.3419 O   0  0  0  0  0  0  0  0  0  0  0  0
  -19.6954  -27.4550   21.1153 O   0  0  0  0  0  0  0  0  0  0  0  0
  -26.1262  -11.4374   20.2810 O   0  0  0  0  0  0  0  0  0  0  0  0
  -30.0561  -22.8811   18.2185 O   0  0  0  0  0  0  0  0  0  0  0  0
  -22.1831  -21.2217   19.9717 O   0  0  0  0  0  0  0  0  0  1  0  0
  -29.5805  -27.2052   21.6067 F   0  0  0  0  0  0  0  0  0  0  0  0
  -27.8169  -24.5007   18.1453 F   0  0  0  0  0  0  0  0  0  0  0  0
  1  2  1  0  0  0  0
  1  5  2  0  0  0  0
  2  6  2  0  0  0  0
  3  8  2  0  0  0  0
  3 17  1  0  0  0  0
  4  9  1  0  0  0  0
  4 17  2  0  0  0  0
  5 19  1  0  0  0  0
  6 21  1  0  0  0  0
  7 10  2  0  0  0  0
  7 20  1  0  0  0  0
  8 27  1  0  0  0  0
  9 27  2  0  0  0  0
 10 28  1  0  0  0  0
 11 12  2  0  0  0  0
 11 29  1  0  0  0  0
 12 30  1  0  0  0  0
 13 22  1  0  0  0  0
 13 28  2  0  0  0  0
 14 23  1  0  0  0  0
 14 25  2  0  0  0  0
 15 24  2  0  0  0  0
 15 26  1  0  0  0  0
 16 30  2  0  0  0  0
 16 31  1  0  0  0  0
 17 32  1  0  0  0  0
 18 32  1  0  0  0  0
 18 33  2  0  0  0  0
 18 37  1  0  0  0  0
 19 21  2  0  0  0  0
 19 43  1  0  0  0  0
 20 22  2  0  0  0  0
 20 44  1  0  0  0  0
 21 54  1  0  0  0  0
 22 45  1  0  0  0  0
 23 26  2  0  0  0  0
 23 58  1  0  0  0  0
 24 25  1  0  0  0  0
 24 66  1  0  0  0  0
 25 72  1  0  0  0  0
 26 77  1  0  0  0  0
 27 89  1  0  0  0  0
 28 90  1  0  0  0  0
 29 31  2  0  0  0  0
 29 89  1  0  0  0  0
 30 91  1  0  0  0  0
 31 92  1  0  0  0  0
 32 70  2  0  0  0  0
 33 71  1  0  0  0  0
 33 75  1  0  0  0  0
 34 57  1  0  0  0  0
 34 72  1  0  0  0  0
 34 82  2  0  0  0  0
 35 36  2  0  0  0  0
 35 38  1  0  0  0  0
 36 90  1  0  0  0  0
 37 76  1  0  0  0  0
 37 83  2  0  0  0  0
 38 77  1  0  0  0  0
 38 84  2  0  0  0  0
 39 55  1  0  0  0  0
 39 78  1  0  0  0  0
 39 85  2  0  0  0  0
 40 67  1  0  0  0  0
 40 73  1  0  0  0  0
 40 86  2  0  0  0  0
 41 68  1  0  0  0  0
 41 79  1  0  0  0  0
 41 87  2  0  0  0  0
 42 74  1  0  0  0  0
 42 80  1  0  0  0  0
 42 88  2  0  0  0  0
 43 46  1  0  0  0  0
 44 55  1  0  0  0  0
 45 73  1  0  0  0  0
 46 48  1  0  0  0  0
 47 49  1  0  0  0  0
 47 51  1  0  0  0  0
 48 54  1  0  0  0  0
 49 56  1  0  0  0  0
 50 52  1  0  0  0  0
 50 57  1  0  0  0  0
 51 74  1  0  0  0  0
 52 72  1  0  0  0  0
 53 56  1  0  0  0  0
 53 74  1  0  0  0  0
 54 78  1  0  0  0  0
 55 73  1  0  0  0  0
 56 71  1  0  0  0  0
 57 59  1  0  0  0  0
 57 60  1  0  0  0  0
 61 68  1  0  0  0  0
 62 69  1  0  0  0  0
 63 69  1  0  0  0  0
 64 69  1  0  0  0  0
 65 81  1  0  0  0  0
 66 80  1  0  0  0  0
 67 69  1  0  0  0  0
 67 79  1  0  0  0  0
 68 81  1  0  0  0  0
 70 71  1  0  0  0  0
M  CHG  1  81   1
M  ISO  4  36 101  42 100  80 100  90 101
M  END
> <Batch ID>
0066

> <Smiles>
CNC(C)C(=O)NC(C(=O)N1Cc2cc([101O:1][101CH:1]=CC(=O)Nc3cc(C[100NH:0][100C:0](=O)N4CCCC(n5nc(-c6ccc(Oc7ccc(F)cc7F)cc6)c(C(N)=O)c5N)C4)c(N4CCC(C)(C)C4=O)cc3C)ccc2CC1C(=O)NC1CCCc2ccccc21)C(C)(C)C

> <Shape>
0.230

> <Color>
0.079

> <Negative vol penalty>
0.000

$$$$

  -OEChem-04042323213D

 89 98  0     1  0  0  0  0  0999 V2000
  -33.0235  -33.8081   16.7850 C   0  0  0  0  0  0  0  0  0  0  0  0
  -32.6721  -32.5997   17.3780 C   0  0  0  0  0  0  0  0  0  0  0  0
  -24.4982   -8.3197   20.3045 C   0  0  0  0  0  0  0  0  0  0  0  0
  -22.8371  -10.0738   20.2708 C   0  0  0  0  0  0  0  0  0  0  0  0
  -32.6439  -35.0111   17.3788 C   0  0  0  0  0  0  0  0  0  0  0  0
  -31.9417  -32.5936   18.5658 C   0  0  0  0  0  0  0  0  0  0  0  0
  -28.1558  -29.2309   18.5011 C   0  0  0  0  0  0  0  0  0  0  0  0
  -23.5663   -7.4481   20.8678 C   0  0  0  0  0  0  0  0  0  0  0  0
  -21.9052   -9.2021   20.8341 C   0  0  0  0  0  0  0  0  0  0  0  0
  -28.4890  -27.8930   18.7075 C   0  0  0  0  0  0  0  0  0  0  0  0
  -22.2330   -6.8591   23.9174 C   0  0  0  0  0  0  0  0  0  0  0  0
  -22.6495   -6.0718   24.9908 C   0  0  0  0  0  0  0  0  0  0  0  0
  -27.4015  -20.4059   16.7225 C   0  0  0  0  0  0  0  0  0  0  0  0
  -27.7904  -28.0803   21.0089 C   0  0  0  0  0  0  0  0  0  0  0  0
  -28.1901  -19.1118   18.6041 C   0  0  0  0  0  0  0  0  0  0  0  0
  -22.1450   -4.0775   23.7236 C   0  0  0  0  0  0  0  0  0  0  0  0
  -24.1336   -9.6327   20.0060 C   0  0  0  0  0  0  0  0  0  0  0  0
  -27.0236  -19.2310   16.0728 C   0  0  0  0  0  0  0  0  0  0  0  0
  -25.3450  -10.7435   18.0550 C   0  0  0  0  0  0  0  0  0  0  0  0
  -31.9002  -35.0196   18.5694 C   0  0  0  0  0  0  0  0  0  0  0  0
  -27.6468  -30.0079   19.5516 C   0  0  0  0  0  0  0  0  0  0  0  0
  -31.5529  -33.7978   19.1768 C   0  0  0  0  0  0  0  0  0  0  0  0
  -27.4491  -29.4272   20.8125 C   0  0  0  0  0  0  0  0  0  0  0  0
  -27.9848  -20.3464   17.9882 C   0  0  0  0  0  0  0  0  0  0  0  0
  -27.8121  -17.9368   17.9544 C   0  0  0  0  0  0  0  0  0  0  0  0
  -22.2698   -7.8892   21.1326 C   0  0  0  0  0  0  0  0  0  0  0  0
  -28.3090  -27.3182   19.9623 C   0  0  0  0  0  0  0  0  0  0  0  0
  -21.7725   -6.2557   22.7471 C   0  0  0  0  0  0  0  0  0  0  0  0
  -22.6055   -4.6810   24.8939 C   0  0  0  0  0  0  0  0  0  0  0  0
  -21.7285   -4.8649   22.6502 C   0  0  0  0  0  0  0  0  0  0  0  0
  -27.2289  -17.9964   16.6887 C   0  0  0  0  0  0  0  0  0  0  0  0
  -25.0960  -10.5338   19.4246 C   0  0  0  0  0  0  0  0  0  0  0  0
  -26.3417  -11.6881   18.0280 C   0  0  0  0  0  0  0  0  0  0  0  0
  -29.4155  -23.0130   20.0366 C   0  0  0  0  0  0  0  0  0  0  0  0
  -29.4162  -21.6026   19.5301 C   0  0  0  0  0  0  0  0  0  0  0  0
  -26.4156  -19.2972   14.7530 C   0  0  0  0  0  0  0  0  0  0  0  0
  -24.7301  -10.1387   16.9097 C   0  0  0  0  0  0  0  0  0  0  0  0
  -28.6137  -32.6209   21.0817 C   0  0  0  0  0  0  0  0  0  0  0  0
  -25.7163  -32.3785   22.5201 C   0  0  0  0  0  0  0  0  0  0  0  0
  -23.0942  -30.3964   23.4380 C   0  0  0  0  0  0  0  0  0  0  0  0
  -28.5888  -16.4513   19.8349 C   0  0  0  0  0  0  0  0  0  0  0  0
  -31.5533  -36.3454   19.1991 C   0  0  0  0  0  0  0  0  0  0  0  0
  -27.2672  -31.4424   19.3057 C   0  0  0  0  0  0  0  0  0  0  0  0
  -26.8869  -30.2128   21.9681 C   0  0  0  0  0  0  0  0  0  0  0  0
  -30.4584  -36.2487   20.2585 C   0  0  0  0  0  0  0  0  0  0  0  0
  -29.2450  -13.5206   21.7475 C   0  0  0  0  0  0  0  0  0  0  0  0
  -30.7335  -35.0852   21.2058 C   0  0  0  0  0  0  0  0  0  0  0  0
  -28.2446  -12.4996   21.2010 C   0  0  0  0  0  0  0  0  0  0  0  0
  -28.6504  -14.9270   21.7965 C   0  0  0  0  0  0  0  0  0  0  0  0
  -27.6930  -22.7998   18.4541 C   0  0  0  0  0  0  0  0  0  0  0  0
  -27.0716  -14.3799   19.9861 C   0  0  0  0  0  0  0  0  0  0  0  0
  -30.7398  -33.7497   20.4522 C   0  0  1  0  0  0  0  0  0  0  0  0
  -28.1978  -23.7395   19.5524 C   0  0  2  0  0  0  0  0  0  0  0  0
  -27.2388  -32.2800   20.5805 C   0  0  1  0  0  0  0  0  0  0  0  0
  -27.6468  -12.9599   19.8570 C   0  0  2  0  0  0  0  0  0  0  0  0
  -25.6068  -20.5177   14.4228 C   0  0  0  0  0  0  0  0  0  0  0  0
  -20.8898  -30.4750   24.6346 C   0  0  0  0  0  0  0  0  0  0  0  0
  -27.1761  -32.4840   25.1974 C   0  0  0  0  0  0  0  0  0  0  0  0
  -25.0950  -31.6182   26.2871 C   0  0  0  0  0  0  0  0  0  0  0  0
  -25.0617  -33.8166   25.1088 C   0  0  0  0  0  0  0  0  0  0  0  0
  -21.6193  -29.5387   21.0197 C   0  0  0  0  0  0  0  0  0  0  0  0
  -28.5162  -25.1316   19.0503 C   0  0  0  0  0  0  0  0  0  1  0  0
  -25.1898  -31.6859   23.7538 C   0  0  1  0  0  0  0  0  0  0  0  0
  -21.5943  -30.5781   23.2908 C   0  0  2  0  0  0  0  0  0  0  0  0
  -25.6431  -32.3866   25.0657 C   0  0  0  0  0  0  0  0  0  0  0  0
  -25.8721  -11.2845   20.2107 N   0  0  0  0  0  0  0  0  0  0  0  0
  -26.6187  -11.9752   19.3322 N   0  0  0  0  0  0  0  0  0  0  0  0
  -28.3614  -21.5173   18.6359 N   0  0  0  0  0  0  0  0  0  0  0  0
  -26.5370  -31.6133   21.6793 N   0  0  0  0  0  0  0  0  0  0  0  0
  -28.1074  -15.2967   20.4876 N   0  0  0  0  0  0  0  0  0  0  0  0
  -26.9996  -12.2926   17.0160 N   0  0  0  0  0  0  0  0  0  0  0  0
  -23.7222   -9.1871   17.1168 N   0  0  0  0  0  0  0  0  0  0  0  0
  -28.0223  -16.6840   18.5822 N   0  0  0  0  0  0  0  0  0  0  0  0
  -29.3861  -33.3201   20.1740 N   0  0  0  0  0  0  0  0  0  0  0  0
  -23.7425  -31.6038   23.5896 N   0  0  0  0  0  0  0  0  0  0  0  0
  -21.0328  -29.5367   22.3846 N   0  3  0  0  0  0  0  0  0  0  0  0
  -30.2991  -23.4242   20.7614 O   0  0  0  0  0  0  0  0  0  0  0  0
  -30.2331  -20.7848   19.8991 O   0  0  0  0  0  0  0  0  0  0  0  0
  -26.5104  -18.4248   13.8872 O   0  0  0  0  0  0  0  0  0  0  0  0
  -25.0761  -10.4213   15.7375 O   0  0  0  0  0  0  0  0  0  0  0  0
  -28.9484  -32.2764   22.2091 O   0  0  0  0  0  0  0  0  0  0  0  0
  -25.4050  -33.5528   22.3064 O   0  0  0  0  0  0  0  0  0  0  0  0
  -23.6361  -29.2933   23.4239 O   0  0  0  0  0  0  0  0  0  0  0  0
  -29.4606  -17.1650   20.3376 O   0  0  0  0  0  0  0  0  0  0  0  0
  -21.3601   -7.0388   21.6820 O   0  0  0  0  0  0  0  0  0  0  0  0
  -28.6340  -26.0127   20.1667 O   0  0  0  0  0  0  0  0  0  1  0  0
  -23.0069   -3.9250   25.9242 F   0  0  0  0  0  0  0  0  0  0  0  0
  -21.2882   -4.2795   21.5281 F   0  0  0  0  0  0  0  0  0  0  0  0
  -26.8653  -16.8662   16.0634 F   0  0  0  0  0  0  0  0  0  0  0  0
  1  2  1  0  0  0  0
  1  5  2  0  0  0  0
  2  6  2  0  0  0  0
  3  8  2  0  0  0  0
  3 17  1  0  0  0  0
  4  9  1  0  0  0  0
  4 17  2  0  0  0  0
  5 20  1  0  0  0  0
  6 22  1  0  0  0  0
  7 10  2  0  0  0  0
  7 21  1  0  0  0  0
  8 26  1  0  0  0  0
  9 26  2  0  0  0  0
 10 27  1  0  0  0  0
 11 12  2  0  0  0  0
 11 28  1  0  0  0  0
 12 29  1  0  0  0  0
 13 18  1  0  0  0  0
 13 24  2  0  0  0  0
 14 23  1  0  0  0  0
 14 27  2  0  0  0  0
 15 24  1  0  0  0  0
 15 25  2  0  0  0  0
 16 29  2  0  0  0  0
 16 30  1  0  0  0  0
 17 32  1  0  0  0  0
 18 31  2  0  0  0  0
 18 36  1  0  0  0  0
 19 32  1  0  0  0  0
 19 33  2  0  0  0  0
 19 37  1  0  0  0  0
 20 22  2  0  0  0  0
 20 42  1  0  0  0  0
 21 23  2  0  0  0  0
 21 43  1  0  0  0  0
 22 52  1  0  0  0  0
 23 44  1  0  0  0  0
 24 68  1  0  0  0  0
 25 31  1  0  0  0  0
 25 73  1  0  0  0  0
 26 85  1  0  0  0  0
 27 86  1  0  0  0  0
 28 30  2  0  0  0  0
 28 85  1  0  0  0  0
 29 87  1  0  0  0  0
 30 88  1  0  0  0  0
 31 89  1  0  0  0  0
 32 66  2  0  0  0  0
 33 67  1  0  0  0  0
 33 71  1  0  0  0  0
 34 35  1  0  0  0  0
 34 53  1  0  0  0  0
 34 77  2  0  0  0  0
 35 68  1  0  0  0  0
 35 78  2  0  0  0  0
 36 56  1  0  0  0  0
 36 79  2  0  0  0  0
 37 72  1  0  0  0  0
 37 80  2  0  0  0  0
 38 54  1  0  0  0  0
 38 74  1  0  0  0  0
 38 81  2  0  0  0  0
 39 63  1  0  0  0  0
 39 69  1  0  0  0  0
 39 82  2  0  0  0  0
 40 64  1  0  0  0  0
 40 75  1  0  0  0  0
 40 83  2  0  0  0  0
 41 70  1  0  0  0  0
 41 73  1  0  0  0  0
 41 84  2  0  0  0  0
 42 45  1  0  0  0  0
 43 54  1  0  0  0  0
 44 69  1  0  0  0  0
 45 47  1  0  0  0  0
 46 48  1  0  0  0  0
 46 49  1  0  0  0  0
 47 52  1  0  0  0  0
 48 55  1  0  0  0  0
 49 70  1  0  0  0  0
 50 53  1  0  0  0  0
 50 68  1  0  0  0  0
 51 55  1  0  0  0  0
 51 70  1  0  0  0  0
 52 74  1  0  0  0  0
 53 62  1  0  0  0  0
 54 69  1  0  0  0  0
 55 67  1  0  0  0  0
 57 64  1  0  0  0  0
 58 65  1  0  0  0  0
 59 65  1  0  0  0  0
 60 65  1  0  0  0  0
 61 76  1  0  0  0  0
 62 86  1  0  0  0  0
 63 65  1  0  0  0  0
 63 75  1  0  0  0  0
 64 76  1  0  0  0  0
 66 67  1  0  0  0  0
M  CHG  1  76   1
M  ISO  4  41 100  62 101  73 100  86 101
M  END
> <Batch ID>
0066

> <Smiles>
CNC(C)C(=O)NC(C(=O)N1Cc2cc([101O:1][101CH2:1]C3CN(c4cc([100NH:0][100C:0](=O)N5CCCC(n6nc(-c7ccc(Oc8ccc(F)cc8F)cc7)c(C(N)=O)c6N)C5)c(F)c(C(C)=O)c4)C(=O)C3=O)ccc2CC1C(=O)NC1CCCc2ccccc21)C(C)(C)C

> <Shape>
0.266

> <Color>
0.112

> <Negative vol penalty>
0.000

$$$$

  -OEChem-04042323213D

 91100  0     1  0  0  0  0  0999 V2000
  -24.0086  -39.3354   18.2572 C   0  0  0  0  0  0  0  0  0  0  0  0
  -25.2031  -38.6223   18.2618 C   0  0  0  0  0  0  0  0  0  0  0  0
  -22.7059   -9.9819   20.3847 C   0  0  0  0  0  0  0  0  0  0  0  0
  -24.5300   -8.8387   21.4815 C   0  0  0  0  0  0  0  0  0  0  0  0
  -23.1456  -39.2546   19.3493 C   0  0  0  0  0  0  0  0  0  0  0  0
  -25.5359  -37.8287   19.3591 C   0  0  0  0  0  0  0  0  0  0  0  0
  -26.7214  -30.7638   18.6026 C   0  0  0  0  0  0  0  0  0  0  0  0
  -21.7986   -9.3500   21.2350 C   0  0  0  0  0  0  0  0  0  0  0  0
  -23.6227   -8.2069   22.3319 C   0  0  0  0  0  0  0  0  0  0  0  0
  -27.1693  -29.4462   18.5053 C   0  0  0  0  0  0  0  0  0  0  0  0
  -21.4789   -5.5963   22.1913 C   0  0  0  0  0  0  0  0  0  0  0  0
  -21.6433   -4.2292   22.4141 C   0  0  0  0  0  0  0  0  0  0  0  0
  -27.4580  -29.3559   20.9046 C   0  0  0  0  0  0  0  0  0  0  0  0
  -26.5443  -20.3917   20.0479 C   0  0  0  0  0  0  0  0  0  0  0  0
  -28.1904  -18.6464   20.3328 C   0  0  0  0  0  0  0  0  0  0  0  0
  -21.9222   -4.6478   24.7772 C   0  0  0  0  0  0  0  0  0  0  0  0
  -24.0717   -9.7262   20.5079 C   0  0  0  0  0  0  0  0  0  0  0  0
  -25.0586  -10.2937   18.2250 C   0  0  0  0  0  0  0  0  0  0  0  0
  -23.4634  -38.4520   20.4564 C   0  0  0  0  0  0  0  0  0  0  0  0
  -26.6254  -31.3781   19.8543 C   0  0  0  0  0  0  0  0  0  0  0  0
  -24.6770  -37.7381   20.4676 C   0  0  0  0  0  0  0  0  0  0  0  0
  -26.9983  -30.6713   21.0094 C   0  0  0  0  0  0  0  0  0  0  0  0
  -25.5437  -19.4279   19.9241 C   0  0  0  0  0  0  0  0  0  0  0  0
  -27.8677  -20.0010   20.2522 C   0  0  0  0  0  0  0  0  0  0  0  0
  -27.1898  -17.6825   20.2090 C   0  0  0  0  0  0  0  0  0  0  0  0
  -22.2569   -8.4626   22.2087 C   0  0  0  0  0  0  0  0  0  0  0  0
  -27.5369  -28.7441   19.6534 C   0  0  0  0  0  0  0  0  0  0  0  0
  -21.5361   -6.4892   23.2615 C   0  0  0  0  0  0  0  0  0  0  0  0
  -21.8649   -3.7550   23.7070 C   0  0  0  0  0  0  0  0  0  0  0  0
  -21.7577   -6.0150   24.5544 C   0  0  0  0  0  0  0  0  0  0  0  0
  -25.8664  -18.0732   20.0047 C   0  0  0  0  0  0  0  0  0  0  0  0
  -25.0094  -10.3781   19.6294 C   0  0  0  0  0  0  0  0  0  0  0  0
  -26.1211  -11.0885   17.8703 C   0  0  0  0  0  0  0  0  0  0  0  0
  -30.2224  -20.7277   19.9705 C   0  0  0  0  0  0  0  0  0  0  0  0
  -24.2189   -9.5623   17.3219 C   0  0  0  0  0  0  0  0  0  0  0  0
  -25.7106  -34.4513   21.8022 C   0  0  0  0  0  0  0  0  0  0  0  0
  -24.7093  -32.0424   23.4162 C   0  0  0  0  0  0  0  0  0  0  0  0
  -28.7764  -25.3816   20.4590 C   0  0  0  0  0  0  0  0  0  0  0  0
  -23.0093  -29.9115   25.4671 C   0  0  0  0  0  0  0  0  0  0  0  0
  -28.7840  -15.7522   20.4902 C   0  0  0  0  0  0  0  0  0  0  0  0
  -22.5213  -38.4334   21.6339 C   0  0  0  0  0  0  0  0  0  0  0  0
  -26.2067  -32.8158   20.0006 C   0  0  0  0  0  0  0  0  0  0  0  0
  -26.9116  -31.3840   22.3314 C   0  0  0  0  0  0  0  0  0  0  0  0
  -31.2890  -21.7065   20.4265 C   0  0  0  0  0  0  0  0  0  0  0  0
  -22.7722  -37.2755   22.5965 C   0  0  0  0  0  0  0  0  0  0  0  0
  -30.8284  -23.1466   20.4979 C   0  0  0  0  0  0  0  0  0  0  0  0
  -30.3197  -12.6872   19.5288 C   0  0  0  0  0  0  0  0  0  0  0  0
  -24.2613  -37.1481   22.9017 C   0  0  0  0  0  0  0  0  0  0  0  0
  -29.1364  -11.7412   19.3118 C   0  0  0  0  0  0  0  0  0  0  0  0
  -30.0769  -13.6403   20.6977 C   0  0  0  0  0  0  0  0  0  0  0  0
  -27.6370  -13.4513   20.4139 C   0  0  0  0  0  0  0  0  0  0  0  0
  -28.4874  -22.3667   20.7501 C   0  0  0  0  0  0  0  0  0  0  0  0
  -25.0615  -36.8470   21.6287 C   0  0  1  0  0  0  0  0  0  0  0  0
  -25.3941  -33.0804   21.2808 C   0  0  1  0  0  0  0  0  0  0  0  0
  -27.8079  -12.5156   19.2060 C   0  0  2  0  0  0  0  0  0  0  0  0
  -29.5908  -23.2157   21.3708 C   0  0  2  0  0  0  0  0  0  0  0  0
  -24.1295  -19.8496   19.7066 C   0  0  0  0  0  0  0  0  0  0  0  0
  -22.1997  -29.6791   27.8310 C   0  0  0  0  0  0  0  0  0  0  0  0
  -27.5489  -31.3926   24.3209 C   0  0  0  0  0  0  0  0  0  0  0  0
  -26.5748  -30.2806   26.3415 C   0  0  0  0  0  0  0  0  0  0  0  0
  -26.2081  -32.7189   25.9634 C   0  0  0  0  0  0  0  0  0  0  0  0
  -29.1410  -25.0647   22.9150 C   0  0  0  0  0  0  0  0  0  0  0  0
  -20.1810  -29.7682   24.6072 C   0  0  0  0  0  0  0  0  0  0  0  0
  -28.3294  -26.7958   20.7641 C   0  0  0  0  0  0  0  0  0  1  0  0
  -24.9976  -31.0431   24.5079 C   0  0  1  0  0  0  0  0  0  0  0  0
  -21.8537  -30.1416   26.4242 C   0  0  2  0  0  0  0  0  0  0  0  0
  -26.3248  -31.3505   25.2572 C   0  0  0  0  0  0  0  0  0  0  0  0
  -25.9647  -11.1643   20.1325 N   0  0  0  0  0  0  0  0  0  0  0  0
  -26.6243  -11.5812   19.0383 N   0  0  0  0  0  0  0  0  0  0  0  0
  -28.9058  -21.0013   20.3809 N   0  0  0  0  0  0  0  0  0  0  0  0
  -25.6658  -32.1637   22.4010 N   0  0  0  0  0  0  0  0  0  0  0  0
  -28.8027  -14.3419   20.5271 N   0  0  0  0  0  0  0  0  0  0  0  0
  -26.6647  -11.4070   16.6764 N   0  0  0  0  0  0  0  0  0  0  0  0
  -23.1730   -8.7960   17.8541 N   0  0  0  0  0  0  0  0  0  0  0  0
  -27.5202  -16.3070   20.2909 N   0  0  0  0  0  0  0  0  0  0  0  0
  -24.9255  -35.4531   21.2641 N   0  0  0  0  0  0  0  0  0  0  0  0
  -23.8177  -31.0239   25.3656 N   0  0  0  0  0  0  0  0  0  0  0  0
  -29.1557  -24.5810   21.5369 N   0  0  0  0  0  0  0  0  0  0  0  0
  -20.6467  -29.3959   25.9679 N   0  3  0  0  0  0  0  0  0  0  0  0
  -30.5814  -19.7369   19.3285 O   0  0  0  0  0  0  0  0  0  0  0  0
  -24.4011   -9.5744   16.0808 O   0  0  0  0  0  0  0  0  0  0  0  0
  -26.6006  -34.5911   22.6330 O   0  0  0  0  0  0  0  0  0  0  0  0
  -23.6677  -32.7030   23.4629 O   0  0  0  0  0  0  0  0  0  0  0  0
  -28.7786  -25.0005   19.2844 O   0  0  0  0  0  0  0  0  0  0  0  0
  -23.1800  -28.8497   24.8721 O   0  0  0  0  0  0  0  0  0  0  0  0
  -29.8170  -16.4180   20.5982 O   0  0  0  0  0  0  0  0  0  0  0  0
  -21.3719   -7.8461   23.0388 O   0  0  0  0  0  0  0  0  0  0  0  0
  -27.9690  -27.4566   19.5517 O   0  0  0  0  0  0  0  0  0  1  0  0
  -22.0213   -2.4420   23.9210 F   0  0  0  0  0  0  0  0  0  0  0  0
  -21.8126   -6.8678   25.5866 F   0  0  0  0  0  0  0  0  0  0  0  0
  -24.9024  -17.1480   19.8847 F   0  0  0  0  0  0  0  0  0  0  0  0
  1  2  1  0  0  0  0
  1  5  2  0  0  0  0
  2  6  2  0  0  0  0
  3  8  2  0  0  0  0
  3 17  1  0  0  0  0
  4  9  1  0  0  0  0
  4 17  2  0  0  0  0
  5 19  1  0  0  0  0
  6 21  1  0  0  0  0
  7 10  2  0  0  0  0
  7 20  1  0  0  0  0
  8 26  1  0  0  0  0
  9 26  2  0  0  0  0
 10 27  1  0  0  0  0
 11 12  2  0  0  0  0
 11 28  1  0  0  0  0
 12 29  1  0  0  0  0
 13 22  1  0  0  0  0
 13 27  2  0  0  0  0
 14 23  2  0  0  0  0
 14 24  1  0  0  0  0
 15 24  2  0  0  0  0
 15 25  1  0  0  0  0
 16 29  2  0  0  0  0
 16 30  1  0  0  0  0
 17 32  1  0  0  0  0
 18 32  1  0  0  0  0
 18 33  2  0  0  0  0
 18 35  1  0  0  0  0
 19 21  2  0  0  0  0
 19 41  1  0  0  0  0
 20 22  2  0  0  0  0
 20 42  1  0  0  0  0
 21 53  1  0  0  0  0
 22 43  1  0  0  0  0
 23 31  1  0  0  0  0
 23 57  1  0  0  0  0
 24 70  1  0  0  0  0
 25 31  2  0  0  0  0
 25 75  1  0  0  0  0
 26 87  1  0  0  0  0
 27 88  1  0  0  0  0
 28 30  2  0  0  0  0
 28 87  1  0  0  0  0
 29 89  1  0  0  0  0
 30 90  1  0  0  0  0
 31 91  1  0  0  0  0
 32 68  2  0  0  0  0
 33 69  1  0  0  0  0
 33 73  1  0  0  0  0
 34 44  1  0  0  0  0
 34 70  1  0  0  0  0
 34 80  2  0  0  0  0
 35 74  1  0  0  0  0
 35 81  2  0  0  0  0
 36 54  1  0  0  0  0
 36 76  1  0  0  0  0
 36 82  2  0  0  0  0
 37 65  1  0  0  0  0
 37 71  1  0  0  0  0
 37 83  2  0  0  0  0
 38 64  1  0  0  0  0
 38 78  1  0  0  0  0
 38 84  2  0  0  0  0
 39 66  1  0  0  0  0
 39 77  1  0  0  0  0
 39 85  2  0  0  0  0
 40 72  1  0  0  0  0
 40 75  1  0  0  0  0
 40 86  2  0  0  0  0
 41 45  1  0  0  0  0
 42 54  1  0  0  0  0
 43 71  1  0  0  0  0
 44 46  1  0  0  0  0
 45 48  1  0  0  0  0
 46 56  1  0  0  0  0
 47 49  1  0  0  0  0
 47 50  1  0  0  0  0
 48 53  1  0  0  0  0
 49 55  1  0  0  0  0
 50 72  1  0  0  0  0
 51 55  1  0  0  0  0
 51 72  1  0  0  0  0
 52 56  1  0  0  0  0
 52 70  1  0  0  0  0
 53 76  1  0  0  0  0
 54 71  1  0  0  0  0
 55 69  1  0  0  0  0
 56 78  1  0  0  0  0
 58 66  1  0  0  0  0
 59 67  1  0  0  0  0
 60 67  1  0  0  0  0
 61 67  1  0  0  0  0
 62 78  1  0  0  0  0
 63 79  1  0  0  0  0
 64 88  1  0  0  0  0
 65 67  1  0  0  0  0
 65 77  1  0  0  0  0
 66 79  1  0  0  0  0
 68 69  1  0  0  0  0
M  CHG  1  79   1
M  ISO  4  40 100  64 101  75 100  88 101
M  END
> <Batch ID>
0066

> <Smiles>
CNC(C)C(=O)NC(C(=O)N1Cc2cc([101O:1][101CH2:1]C(=O)N(C)C3CCC(=O)N(c4cc(C)c(F)c([100NH:0][100C:0](=O)N5CCCC(n6nc(-c7ccc(Oc8ccc(F)cc8F)cc7)c(C(N)=O)c6N)C5)c4)C3)ccc2CC1C(=O)NC1CCCc2ccccc21)C(C)(C)C

> <Shape>
0.307

> <Color>
0.132

> <Negative vol penalty>
0.000

$$$$

  -OEChem-04042323213D

 88 97  0     1  0  0  0  0  0999 V2000
  -29.0915  -34.2545   25.7997 C   0  0  0  0  0  0  0  0  0  0  0  0
  -29.2465  -33.0849   25.0626 C   0  0  0  0  0  0  0  0  0  0  0  0
  -24.5869   -8.9699   21.5719 C   0  0  0  0  0  0  0  0  0  0  0  0
  -23.1016  -10.4741   20.4021 C   0  0  0  0  0  0  0  0  0  0  0  0
  -27.8493  -34.5729   26.3468 C   0  0  0  0  0  0  0  0  0  0  0  0
  -28.1594  -32.2323   24.8730 C   0  0  0  0  0  0  0  0  0  0  0  0
  -26.9485  -28.8587   19.9073 C   0  0  0  0  0  0  0  0  0  0  0  0
  -23.5416   -8.5936   22.4153 C   0  0  0  0  0  0  0  0  0  0  0  0
  -22.0563  -10.0977   21.2454 C   0  0  0  0  0  0  0  0  0  0  0  0
  -27.1728  -27.5156   19.6083 C   0  0  0  0  0  0  0  0  0  0  0  0
  -20.8483   -6.5534   22.2863 C   0  0  0  0  0  0  0  0  0  0  0  0
  -20.6835   -5.1931   22.5471 C   0  0  0  0  0  0  0  0  0  0  0  0
  -25.6567  -20.0710   17.9947 C   0  0  0  0  0  0  0  0  0  0  0  0
  -25.6519  -17.6830   17.6279 C   0  0  0  0  0  0  0  0  0  0  0  0
  -24.9181  -26.9938   20.2892 C   0  0  0  0  0  0  0  0  0  0  0  0
  -27.4871  -18.7202   18.8083 C   0  0  0  0  0  0  0  0  0  0  0  0
  -21.0085   -5.6057   24.9053 C   0  0  0  0  0  0  0  0  0  0  0  0
  -24.3670   -9.9102   20.5653 C   0  0  0  0  0  0  0  0  0  0  0  0
  -25.0434  -18.9293   17.4790 C   0  0  0  0  0  0  0  0  0  0  0  0
  -25.8081   -9.7055   18.4704 C   0  0  0  0  0  0  0  0  0  0  0  0
  -26.7441  -33.7287   26.1557 C   0  0  0  0  0  0  0  0  0  0  0  0
  -25.7088  -29.2785   20.4106 C   0  0  0  0  0  0  0  0  0  0  0  0
  -26.9015  -32.5391   25.4192 C   0  0  0  0  0  0  0  0  0  0  0  0
  -24.6799  -28.3433   20.5914 C   0  0  0  0  0  0  0  0  0  0  0  0
  -26.8786  -19.9664   18.6593 C   0  0  0  0  0  0  0  0  0  0  0  0
  -26.8738  -17.5785   18.2926 C   0  0  0  0  0  0  0  0  0  0  0  0
  -22.2763   -9.1574   22.2520 C   0  0  0  0  0  0  0  0  0  0  0  0
  -26.1585  -26.5824   19.8020 C   0  0  0  0  0  0  0  0  0  0  0  0
  -21.0933   -7.4399   23.3350 C   0  0  0  0  0  0  0  0  0  0  0  0
  -20.7635   -4.7192   23.8565 C   0  0  0  0  0  0  0  0  0  0  0  0
  -21.1734   -6.9661   24.6445 C   0  0  0  0  0  0  0  0  0  0  0  0
  -25.4465  -10.2999   19.6942 C   0  0  0  0  0  0  0  0  0  0  0  0
  -26.8874  -10.4371   18.0390 C   0  0  0  0  0  0  0  0  0  0  0  0
  -28.7338  -21.1897   19.8792 C   0  0  0  0  0  0  0  0  0  0  0  0
  -23.7690  -19.0390   16.7861 C   0  0  0  0  0  0  0  0  0  0  0  0
  -22.8966  -20.0670   16.8899 C   0  0  0  0  0  0  0  0  0  0  0  0
  -25.2208   -8.5916   17.7848 C   0  0  0  0  0  0  0  0  0  0  0  0
  -24.7290  -30.6420   23.1096 C   0  0  0  0  0  0  0  0  0  0  0  0
  -21.8846  -30.7692   21.5555 C   0  0  0  0  0  0  0  0  0  0  0  0
  -19.8558  -29.5080   19.1182 C   0  0  0  0  0  0  0  0  0  0  0  0
  -28.7030  -16.0344   19.0778 C   0  0  0  0  0  0  0  0  0  0  0  0
  -25.4326  -34.0912   26.8063 C   0  0  0  0  0  0  0  0  0  0  0  0
  -25.4742  -30.7352   20.7030 C   0  0  0  0  0  0  0  0  0  0  0  0
  -23.3244  -28.7459   21.1101 C   0  0  0  0  0  0  0  0  0  0  0  0
  -24.2402  -33.3221   26.2433 C   0  0  0  0  0  0  0  0  0  0  0  0
  -30.5435  -13.0497   19.6948 C   0  0  0  0  0  0  0  0  0  0  0  0
  -24.5680  -31.8366   26.1311 C   0  0  0  0  0  0  0  0  0  0  0  0
  -29.4792  -11.9511   19.6473 C   0  0  0  0  0  0  0  0  0  0  0  0
  -30.0079  -14.3311   20.3311 C   0  0  0  0  0  0  0  0  0  0  0  0
  -26.9463  -22.4605   19.0048 C   0  0  0  0  0  0  0  0  0  0  0  0
  -27.7013  -13.7467   19.6928 C   0  0  0  0  0  0  0  0  0  0  0  0
  -25.7401  -31.6013   25.1708 C   0  0  1  0  0  0  0  0  0  0  0  0
  -29.0425  -22.6599   20.1220 C   0  0  1  0  0  0  0  0  0  0  0  0
  -24.3401  -30.9702   21.6959 C   0  0  1  0  0  0  0  0  0  0  0  0
  -27.6632  -23.3155   20.0410 C   0  0  1  0  0  0  0  0  0  0  0  0
  -28.1747  -12.4577   19.0013 C   0  0  2  0  0  0  0  0  0  0  0  0
  -21.5919  -20.1330   16.1646 C   0  0  0  0  0  0  0  0  0  0  0  0
  -29.7478  -22.8950   21.4470 C   0  0  0  0  0  0  0  0  0  0  0  0
  -17.5750  -29.7925   18.1112 C   0  0  0  0  0  0  0  0  0  0  0  0
  -20.6486  -29.3587   23.9623 C   0  0  0  0  0  0  0  0  0  0  0  0
  -18.6569  -28.8288   22.5409 C   0  0  0  0  0  0  0  0  0  0  0  0
  -19.2576  -31.2046   23.0072 C   0  0  0  0  0  0  0  0  0  0  0  0
  -20.9835  -30.1703   16.4633 C   0  0  0  0  0  0  0  0  0  0  0  0
  -27.7093  -24.7855   19.6541 C   0  0  0  0  0  0  0  0  0  1  0  0
  -20.6939  -29.8500   21.4280 C   0  0  1  0  0  0  0  0  0  0  0  0
  -19.0411  -30.1891   18.0335 C   0  0  2  0  0  0  0  0  0  0  0  0
  -19.8403  -29.8023   22.7267 C   0  0  0  0  0  0  0  0  0  0  0  0
  -26.2325  -11.3297   20.0194 N   0  0  0  0  0  0  0  0  0  0  0  0
  -27.0987  -11.3880   18.9936 N   0  0  0  0  0  0  0  0  0  0  0  0
  -27.5068  -21.1343   19.1874 N   0  0  0  0  0  0  0  0  0  0  0  0
  -23.1460  -30.1808   21.3873 N   0  0  0  0  0  0  0  0  0  0  0  0
  -28.7738  -14.7535   19.6652 N   0  0  0  0  0  0  0  0  0  0  0  0
  -27.6670  -10.3534   16.9400 N   0  0  0  0  0  0  0  0  0  0  0  0
  -24.1172   -7.9544   18.3682 N   0  0  0  0  0  0  0  0  0  0  0  0
  -27.4917  -16.3125   18.4453 N   0  0  0  0  0  0  0  0  0  0  0  0
  -25.2954  -31.6985   23.7970 N   0  0  0  0  0  0  0  0  0  0  0  0
  -19.9608  -30.2929   20.2470 N   0  0  0  0  0  0  0  0  0  0  0  0
  -19.5580  -29.8164   16.6863 N   0  3  0  0  0  0  0  0  0  0  0  0
  -29.4920  -20.2854   20.1990 O   0  0  0  0  0  0  0  0  0  0  0  0
  -25.6717   -8.1634   16.6954 O   0  0  0  0  0  0  0  0  0  0  0  0
  -24.5287  -29.5142   23.5451 O   0  0  0  0  0  0  0  0  0  0  0  0
  -21.7018  -31.9667   21.7884 O   0  0  0  0  0  0  0  0  0  0  0  0
  -20.3467  -28.3897   18.9796 O   0  0  0  0  0  0  0  0  0  0  0  0
  -29.6570  -16.8160   19.1083 O   0  0  0  0  0  0  0  0  0  0  0  0
  -21.2560   -8.7902   23.0746 O   0  0  0  0  0  0  0  0  0  0  0  0
  -26.3749  -25.2707   19.5116 O   0  0  0  0  0  0  0  0  0  1  0  0
  -20.6036   -3.4131   24.1070 F   0  0  0  0  0  0  0  0  0  0  0  0
  -21.4073   -7.8131   25.6563 F   0  0  0  0  0  0  0  0  0  0  0  0
  1  2  1  0  0  0  0
  1  5  2  0  0  0  0
  2  6  2  0  0  0  0
  3  8  2  0  0  0  0
  3 18  1  0  0  0  0
  4  9  1  0  0  0  0
  4 18  2  0  0  0  0
  5 21  1  0  0  0  0
  6 23  1  0  0  0  0
  7 10  2  0  0  0  0
  7 22  1  0  0  0  0
  8 27  1  0  0  0  0
  9 27  2  0  0  0  0
 10 28  1  0  0  0  0
 11 12  2  0  0  0  0
 11 29  1  0  0  0  0
 12 30  1  0  0  0  0
 13 19  2  0  0  0  0
 13 25  1  0  0  0  0
 14 19  1  0  0  0  0
 14 26  2  0  0  0  0
 15 24  1  0  0  0  0
 15 28  2  0  0  0  0
 16 25  2  0  0  0  0
 16 26  1  0  0  0  0
 17 30  2  0  0  0  0
 17 31  1  0  0  0  0
 18 32  1  0  0  0  0
 19 35  1  0  0  0  0
 20 32  1  0  0  0  0
 20 33  2  0  0  0  0
 20 37  1  0  0  0  0
 21 23  2  0  0  0  0
 21 42  1  0  0  0  0
 22 24  2  0  0  0  0
 22 43  1  0  0  0  0
 23 52  1  0  0  0  0
 24 44  1  0  0  0  0
 25 70  1  0  0  0  0
 26 75  1  0  0  0  0
 27 85  1  0  0  0  0
 28 86  1  0  0  0  0
 29 31  2  0  0  0  0
 29 85  1  0  0  0  0
 30 87  1  0  0  0  0
 31 88  1  0  0  0  0
 32 68  2  0  0  0  0
 33 69  1  0  0  0  0
 33 73  1  0  0  0  0
 34 53  1  0  0  0  0
 34 70  1  0  0  0  0
 34 79  2  0  0  0  0
 35 36  2  0  0  0  0
 36 57  1  0  0  0  0
 37 74  1  0  0  0  0
 37 80  2  0  0  0  0
 38 54  1  0  0  0  0
 38 76  1  0  0  0  0
 38 81  2  0  0  0  0
 39 65  1  0  0  0  0
 39 71  1  0  0  0  0
 39 82  2  0  0  0  0
 40 66  1  0  0  0  0
 40 77  1  0  0  0  0
 40 83  2  0  0  0  0
 41 72  1  0  0  0  0
 41 75  1  0  0  0  0
 41 84  2  0  0  0  0
 42 45  1  0  0  0  0
 43 54  1  0  0  0  0
 44 71  1  0  0  0  0
 45 47  1  0  0  0  0
 46 48  1  0  0  0  0
 46 49  1  0  0  0  0
 47 52  1  0  0  0  0
 48 56  1  0  0  0  0
 49 72  1  0  0  0  0
 50 55  1  0  0  0  0
 50 70  1  0  0  0  0
 51 56  1  0  0  0  0
 51 72  1  0  0  0  0
 52 76  1  0  0  0  0
 53 55  1  0  0  0  0
 53 58  1  0  0  0  0
 54 71  1  0  0  0  0
 55 64  1  0  0  0  0
 56 69  1  0  0  0  0
 59 66  1  0  0  0  0
 60 67  1  0  0  0  0
 61 67  1  0  0  0  0
 62 67  1  0  0  0  0
 63 78  1  0  0  0  0
 64 86  1  0  0  0  0
 65 67  1  0  0  0  0
 65 77  1  0  0  0  0
 66 78  1  0  0  0  0
 68 69  1  0  0  0  0
M  CHG  1  78   1
M  ISO  4  41 100  64 101  75 100  86 101
M  END
> <Batch ID>
0066

> <Smiles>
CC=Cc1cc([100NH:0][100C:0](=O)N2CCCC(n3nc(-c4ccc(Oc5ccc(F)cc5F)cc4)c(C(N)=O)c3N)C2)cc(N2CC([101CH2:1][101O:1]c3ccc4c(c3)CN(C(=O)C(NC(=O)C(C)NC)C(C)(C)C)C(C(=O)NC3CCCc5ccccc53)C4)C(C)C2=O)c1

> <Shape>
0.303

> <Color>
0.102

> <Negative vol penalty>
0.000

$$$$

  -OEChem-04042323213D

 87 96  0     1  0  0  0  0  0999 V2000
  -24.0761  -15.7620   35.3710 C   0  0  0  0  0  0  0  0  0  0  0  0
  -24.4115  -16.1203   34.0693 C   0  0  0  0  0  0  0  0  0  0  0  0
  -32.6800  -17.4599   23.4303 C   0  0  0  0  0  0  0  0  0  0  0  0
  -23.0752   -9.8688   19.9407 C   0  0  0  0  0  0  0  0  0  0  0  0
  -23.8351   -9.8748   22.2340 C   0  0  0  0  0  0  0  0  0  0  0  0
  -22.8709  -16.1940   35.9231 C   0  0  0  0  0  0  0  0  0  0  0  0
  -23.5414  -16.9100   33.3185 C   0  0  0  0  0  0  0  0  0  0  0  0
  -25.9343  -20.6237   30.8432 C   0  0  0  0  0  0  0  0  0  0  0  0
  -31.9048  -18.3367   24.1891 C   0  0  0  0  0  0  0  0  0  0  0  0
  -32.0672  -16.5858   22.5323 C   0  0  0  0  0  0  0  0  0  0  0  0
  -22.3308   -8.7159   20.1903 C   0  0  0  0  0  0  0  0  0  0  0  0
  -23.0907   -8.7219   22.4837 C   0  0  0  0  0  0  0  0  0  0  0  0
  -26.6141  -20.2763   29.6765 C   0  0  0  0  0  0  0  0  0  0  0  0
  -19.8622   -7.9253   23.0860 C   0  0  0  0  0  0  0  0  0  0  0  0
  -19.1052   -7.8853   24.2569 C   0  0  0  0  0  0  0  0  0  0  0  0
  -24.7642  -21.0945   28.3621 C   0  0  0  0  0  0  0  0  0  0  0  0
  -20.3458   -5.9471   24.9928 C   0  0  0  0  0  0  0  0  0  0  0  0
  -23.8274  -10.4482   20.9625 C   0  0  0  0  0  0  0  0  0  0  0  0
  -29.9041  -17.4653   23.1522 C   0  0  0  0  0  0  0  0  0  0  0  0
  -24.1703  -12.9733   20.8432 C   0  0  0  0  0  0  0  0  0  0  0  0
  -21.9900  -16.9974   35.1821 C   0  0  0  0  0  0  0  0  0  0  0  0
  -24.6576  -21.2001   30.7782 C   0  0  0  0  0  0  0  0  0  0  0  0
  -22.3227  -17.3520   33.8608 C   0  0  0  0  0  0  0  0  0  0  0  0
  -24.0714  -21.4507   29.5293 C   0  0  0  0  0  0  0  0  0  0  0  0
  -30.5168  -18.3394   24.0501 C   0  0  0  0  0  0  0  0  0  0  0  0
  -30.6793  -16.5885   22.3933 C   0  0  0  0  0  0  0  0  0  0  0  0
  -22.3385   -8.1424   21.4618 C   0  0  0  0  0  0  0  0  0  0  0  0
  -26.0279  -20.5090   28.4359 C   0  0  0  0  0  0  0  0  0  0  0  0
  -20.8609   -6.9761   22.8684 C   0  0  0  0  0  0  0  0  0  0  0  0
  -19.3470   -6.8963   25.2103 C   0  0  0  0  0  0  0  0  0  0  0  0
  -21.1027   -5.9871   23.8218 C   0  0  0  0  0  0  0  0  0  0  0  0
  -24.5969  -11.6388   20.7051 C   0  0  0  0  0  0  0  0  0  0  0  0
  -25.2627  -13.7224   20.4801 C   0  0  0  0  0  0  0  0  0  0  0  0
  -30.1274  -20.1452   25.7340 C   0  0  0  0  0  0  0  0  0  0  0  0
  -28.4497  -17.4658   23.0087 C   0  0  0  0  0  0  0  0  0  0  0  0
  -22.9000  -13.4895   21.2623 C   0  0  0  0  0  0  0  0  0  0  0  0
  -21.7638  -20.3617   31.7914 C   0  0  0  0  0  0  0  0  0  0  0  0
  -20.9634  -23.3235   30.7381 C   0  0  0  0  0  0  0  0  0  0  0  0
  -21.6603  -25.9512   28.6749 C   0  0  0  0  0  0  0  0  0  0  0  0
  -30.7294  -14.7656   20.6552 C   0  0  0  0  0  0  0  0  0  0  0  0
  -20.6771  -17.4008   35.8051 C   0  0  0  0  0  0  0  0  0  0  0  0
  -23.9488  -21.5936   32.0451 C   0  0  0  0  0  0  0  0  0  0  0  0
  -22.7114  -22.0857   29.4047 C   0  0  0  0  0  0  0  0  0  0  0  0
  -19.9821  -18.5462   35.0734 C   0  0  0  0  0  0  0  0  0  0  0  0
  -29.6140  -12.3529   18.2862 C   0  0  0  0  0  0  0  0  0  0  0  0
  -19.9848  -18.2978   33.5683 C   0  0  0  0  0  0  0  0  0  0  0  0
  -28.1742  -12.0618   18.7157 C   0  0  0  0  0  0  0  0  0  0  0  0
  -30.5291  -12.5810   19.4880 C   0  0  0  0  0  0  0  0  0  0  0  0
  -28.6225  -13.3059   20.8694 C   0  0  0  0  0  0  0  0  0  0  0  0
  -28.3363  -19.4409   24.8768 C   0  0  0  0  0  0  0  0  0  0  0  0
  -21.4164  -18.2280   33.0233 C   0  0  1  0  0  0  0  0  0  0  0  0
  -22.4367  -21.7026   31.8746 C   0  0  1  0  0  0  0  0  0  0  0  0
  -27.6496  -13.1334   19.6915 C   0  0  2  0  0  0  0  0  0  0  0  0
  -28.6356  -20.5317   25.9486 C   0  0  2  0  0  0  0  0  0  0  0  0
  -27.8616  -18.3846   21.9824 C   0  0  0  0  0  0  0  0  0  0  0  0
  -28.2992  -21.9552   25.5180 C   0  0  0  0  0  0  0  0  0  0  0  0
  -20.8047  -28.2147   28.0104 C   0  0  0  0  0  0  0  0  0  0  0  0
  -18.7669  -22.0042   29.0814 C   0  0  0  0  0  0  0  0  0  0  0  0
  -18.5907  -24.1214   27.7568 C   0  0  0  0  0  0  0  0  0  0  0  0
  -18.0913  -24.1361   30.2007 C   0  0  0  0  0  0  0  0  0  0  0  0
  -24.1397  -27.2846   29.5880 C   0  0  0  0  0  0  0  0  0  0  0  0
  -28.1148  -20.2145   27.3340 C   0  0  0  0  0  0  0  0  0  1  0  0
  -20.4863  -23.8990   29.4265 C   0  0  1  0  0  0  0  0  0  0  0  0
  -21.7339  -27.4448   28.9359 C   0  0  2  0  0  0  0  0  0  0  0  0
  -19.0086  -23.5264   29.1184 C   0  0  0  0  0  0  0  0  0  0  0  0
  -25.8618  -11.5426   20.2868 N   0  0  0  0  0  0  0  0  0  0  0  0
  -26.2392  -12.8260   20.1589 N   0  0  0  0  0  0  0  0  0  0  0  0
  -29.7756  -19.2142   24.8095 N   0  0  0  0  0  0  0  0  0  0  0  0
  -22.0556  -22.4468   30.6725 N   0  0  0  0  0  0  0  0  0  0  0  0
  -29.9706  -13.6119   20.3656 N   0  0  0  0  0  0  0  0  0  0  0  0
  -25.4737  -15.0538   20.4075 N   0  0  0  0  0  0  0  0  0  0  0  0
  -21.8877  -12.5807   21.5993 N   0  0  0  0  0  0  0  0  0  0  0  0
  -30.0824  -15.6907   21.4738 N   0  0  0  0  0  0  0  0  0  0  0  0
  -21.9738  -19.5574   32.8953 N   0  0  0  0  0  0  0  0  0  0  0  0
  -20.7390  -25.3343   29.4946 N   0  0  0  0  0  0  0  0  0  0  0  0
  -23.1236  -27.9397   28.7246 N   0  3  0  0  0  0  0  0  0  0  0  0
  -31.1946  -20.4990   26.1814 O   0  0  0  0  0  0  0  0  0  0  0  0
  -27.6814  -16.7724   23.6711 O   0  0  0  0  0  0  0  0  0  0  0  0
  -22.6642  -14.7202   21.3199 O   0  0  0  0  0  0  0  0  0  0  0  0
  -21.1018  -20.0784   30.7999 O   0  0  0  0  0  0  0  0  0  0  0  0
  -20.3927  -23.6457   31.7831 O   0  0  0  0  0  0  0  0  0  0  0  0
  -22.3484  -25.3886   27.8261 O   0  0  0  0  0  0  0  0  0  0  0  0
  -31.8585  -14.9340   20.1876 O   0  0  0  0  0  0  0  0  0  0  0  0
  -21.6121   -7.0176   21.7058 O   0  0  0  0  0  0  0  0  0  0  0  0
  -26.6889  -20.1703   27.2956 O   0  0  0  0  0  0  0  0  0  1  0  0
  -18.6210   -6.8590   26.3353 F   0  0  0  0  0  0  0  0  0  0  0  0
  -22.0617   -5.0732   23.6190 F   0  0  0  0  0  0  0  0  0  0  0  0
  1  2  1  0  0  0  0
  1  6  2  0  0  0  0
  2  7  2  0  0  0  0
  3  9  2  0  0  0  0
  3 10  1  0  0  0  0
  4 11  2  0  0  0  0
  4 18  1  0  0  0  0
  5 12  1  0  0  0  0
  5 18  2  0  0  0  0
  6 21  1  0  0  0  0
  7 23  1  0  0  0  0
  8 13  2  0  0  0  0
  8 22  1  0  0  0  0
  9 25  1  0  0  0  0
 10 26  2  0  0  0  0
 11 27  1  0  0  0  0
 12 27  2  0  0  0  0
 13 28  1  0  0  0  0
 14 15  2  0  0  0  0
 14 29  1  0  0  0  0
 15 30  1  0  0  0  0
 16 24  1  0  0  0  0
 16 28  2  0  0  0  0
 17 30  2  0  0  0  0
 17 31  1  0  0  0  0
 18 32  1  0  0  0  0
 19 25  2  0  0  0  0
 19 26  1  0  0  0  0
 19 35  1  0  0  0  0
 20 32  1  0  0  0  0
 20 33  2  0  0  0  0
 20 36  1  0  0  0  0
 21 23  2  0  0  0  0
 21 41  1  0  0  0  0
 22 24  2  0  0  0  0
 22 42  1  0  0  0  0
 23 51  1  0  0  0  0
 24 43  1  0  0  0  0
 25 68  1  0  0  0  0
 26 73  1  0  0  0  0
 27 84  1  0  0  0  0
 28 85  1  0  0  0  0
 29 31  2  0  0  0  0
 29 84  1  0  0  0  0
 30 86  1  0  0  0  0
 31 87  1  0  0  0  0
 32 66  2  0  0  0  0
 33 67  1  0  0  0  0
 33 71  1  0  0  0  0
 34 54  1  0  0  0  0
 34 68  1  0  0  0  0
 34 77  2  0  0  0  0
 35 55  1  0  0  0  0
 35 78  2  0  0  0  0
 36 72  1  0  0  0  0
 36 79  2  0  0  0  0
 37 52  1  0  0  0  0
 37 74  1  0  0  0  0
 37 80  2  0  0  0  0
 38 63  1  0  0  0  0
 38 69  1  0  0  0  0
 38 81  2  0  0  0  0
 39 64  1  0  0  0  0
 39 75  1  0  0  0  0
 39 82  2  0  0  0  0
 40 70  1  0  0  0  0
 40 73  1  0  0  0  0
 40 83  2  0  0  0  0
 41 44  1  0  0  0  0
 42 52  1  0  0  0  0
 43 69  1  0  0  0  0
 44 46  1  0  0  0  0
 45 47  1  0  0  0  0
 45 48  1  0  0  0  0
 46 51  1  0  0  0  0
 47 53  1  0  0  0  0
 48 70  1  0  0  0  0
 49 53  1  0  0  0  0
 49 70  1  0  0  0  0
 50 54  1  0  0  0  0
 50 68  1  0  0  0  0
 51 74  1  0  0  0  0
 52 69  1  0  0  0  0
 53 67  1  0  0  0  0
 54 56  1  0  0  0  0
 54 62  1  0  0  0  0
 57 64  1  0  0  0  0
 58 65  1  0  0  0  0
 59 65  1  0  0  0  0
 60 65  1  0  0  0  0
 61 76  1  0  0  0  0
 62 85  1  0  0  0  0
 63 65  1  0  0  0  0
 63 75  1  0  0  0  0
 64 76  1  0  0  0  0
 66 67  1  0  0  0  0
M  CHG  1  76   1
M  ISO  4  40 100  62 101  73 100  85 101
M  END
> <Batch ID>
0066

> <Smiles>
CNC(C)C(=O)NC(C(=O)N1Cc2cc([101O:1][101CH2:1]C3(C)CN(c4cccc([100NH:0][100C:0](=O)N5CCCC(n6nc(-c7ccc(Oc8ccc(F)cc8F)cc7)c(C(N)=O)c6N)C5)c4C(C)=O)C3=O)ccc2CC1C(=O)NC1CCCc2ccccc21)C(C)(C)C

> <Shape>
0.167

> <Color>
0.188

> <Negative vol penalty>
0.000

$$$$

  -OEChem-04042323213D

 89 98  0     1  0  0  0  0  0999 V2000
  -20.3386  -10.4369   18.6416 C   0  0  0  0  0  0  0  0  0  0  0  0
  -20.9569  -11.6763   18.7723 C   0  0  0  0  0  0  0  0  0  0  0  0
  -23.3592  -30.3909   24.6575 C   0  0  0  0  0  0  0  0  0  0  0  0
  -22.7461  -32.0876   23.0506 C   0  0  0  0  0  0  0  0  0  0  0  0
  -27.6784  -24.2863   18.7978 C   0  0  0  0  0  0  0  0  0  0  0  0
  -20.8436   -9.3317   19.3251 C   0  0  0  0  0  0  0  0  0  0  0  0
  -22.0801  -11.8113   19.5876 C   0  0  0  0  0  0  0  0  0  0  0  0
  -25.7504  -14.5319   17.4031 C   0  0  0  0  0  0  0  0  0  0  0  0
  -26.7972  -23.2052   18.8100 C   0  0  0  0  0  0  0  0  0  0  0  0
  -22.6413  -31.0662   25.6445 C   0  0  0  0  0  0  0  0  0  0  0  0
  -22.0282  -32.7629   24.0376 C   0  0  0  0  0  0  0  0  0  0  0  0
  -25.5977  -15.9176   17.3963 C   0  0  0  0  0  0  0  0  0  0  0  0
  -19.4093  -31.4167   26.5741 C   0  0  0  0  0  0  0  0  0  0  0  0
  -18.5805  -30.6617   27.4039 C   0  0  0  0  0  0  0  0  0  0  0  0
  -27.0999  -16.0864   19.2763 C   0  0  0  0  0  0  0  0  0  0  0  0
  -28.4554  -21.8665   19.9483 C   0  0  0  0  0  0  0  0  0  0  0  0
  -19.8397  -31.3967   29.3304 C   0  0  0  0  0  0  0  0  0  0  0  0
  -23.4117  -30.9016   23.3605 C   0  0  0  0  0  0  0  0  0  0  0  0
  -28.9482  -24.1576   19.3607 C   0  0  0  0  0  0  0  0  0  0  0  0
  -23.6726  -29.2077   21.4711 C   0  0  0  0  0  0  0  0  0  0  0  0
  -21.9793   -9.4511   20.1416 C   0  0  0  0  0  0  0  0  0  0  0  0
  -26.5719  -13.9110   18.3551 C   0  0  0  0  0  0  0  0  0  0  0  0
  -22.6000  -10.7069   20.2837 C   0  0  0  0  0  0  0  0  0  0  0  0
  -27.2633  -14.6928   19.2914 C   0  0  0  0  0  0  0  0  0  0  0  0
  -29.3366  -22.9477   19.9360 C   0  0  0  0  0  0  0  0  0  0  0  0
  -27.1857  -21.9953   19.3853 C   0  0  0  0  0  0  0  0  0  0  0  0
  -21.9758  -32.2522   25.3346 C   0  0  0  0  0  0  0  0  0  0  0  0
  -26.2702  -16.6949   18.3348 C   0  0  0  0  0  0  0  0  0  0  0  0
  -20.4534  -32.1616   27.1224 C   0  0  0  0  0  0  0  0  0  0  0  0
  -18.7956  -30.6517   28.7821 C   0  0  0  0  0  0  0  0  0  0  0  0
  -20.6686  -32.1516   28.5006 C   0  0  0  0  0  0  0  0  0  0  0  0
  -24.1536  -30.2048   22.3407 C   0  0  0  0  0  0  0  0  0  0  0  0
  -24.7585  -28.8713   20.7003 C   0  0  0  0  0  0  0  0  0  0  0  0
  -24.9744  -20.8680   18.8701 C   0  0  0  0  0  0  0  0  0  0  0  0
  -22.8141  -18.7559   21.0452 C   0  0  0  0  0  0  0  0  0  0  0  0
  -23.5150  -19.7222   20.4424 C   0  0  0  0  0  0  0  0  0  0  0  0
  -29.8663  -25.3251   19.3330 C   0  0  0  0  0  0  0  0  0  0  0  0
  -22.3614  -28.6366   21.3691 C   0  0  0  0  0  0  0  0  0  0  0  0
  -26.1032  -11.8084   20.6924 C   0  0  0  0  0  0  0  0  0  0  0  0
  -29.3378  -11.9177   20.9113 C   0  0  0  0  0  0  0  0  0  0  0  0
  -32.2226  -13.6529   20.3509 C   0  0  0  0  0  0  0  0  0  0  0  0
  -30.1328  -27.6575   20.1157 C   0  0  0  0  0  0  0  0  0  0  0  0
  -22.4605   -8.2382   20.8979 C   0  0  0  0  0  0  0  0  0  0  0  0
  -26.7470  -12.4173   18.3322 C   0  0  0  0  0  0  0  0  0  0  0  0
  -28.1730  -14.0766   20.3216 C   0  0  0  0  0  0  0  0  0  0  0  0
  -23.8775   -8.3851   21.4465 C   0  0  0  0  0  0  0  0  0  0  0  0
  -29.2893  -31.0883   20.2409 C   0  0  0  0  0  0  0  0  0  0  0  0
  -24.0475   -9.7378   22.1307 C   0  0  0  0  0  0  0  0  0  0  0  0
  -27.8349  -31.0853   20.7193 C   0  0  0  0  0  0  0  0  0  0  0  0
  -30.1144  -30.0002   20.9266 C   0  0  0  0  0  0  0  0  0  0  0  0
  -28.0980  -28.6479   21.3308 C   0  0  0  0  0  0  0  0  0  0  0  0
  -26.6167  -19.6331   20.0475 C   0  0  0  0  0  0  0  0  0  0  0  0
  -23.8351  -10.8881   21.1392 C   0  0  1  0  0  0  0  0  0  0  0  0
  -27.2051  -11.8488   19.6717 C   0  0  1  0  0  0  0  0  0  0  0  0
  -27.2089  -29.6798   20.6181 C   0  0  1  0  0  0  0  0  0  0  0  0
  -25.5930  -18.6457   19.5107 C   0  0  1  0  0  0  0  0  0  1  0  0
  -24.3576  -19.5101   19.2143 C   0  0  2  0  0  0  0  0  0  0  0  0
  -30.6910  -22.7826   20.5445 C   0  0  0  0  0  0  0  0  0  0  0  0
  -23.4822  -18.9967   18.0726 C   0  0  0  0  0  0  0  0  0  0  0  0
  -34.7068  -13.5006   20.6713 C   0  0  0  0  0  0  0  0  0  0  0  0
  -28.9910  -12.5419   23.8778 C   0  0  0  0  0  0  0  0  0  0  0  0
  -31.3757  -13.3029   23.9250 C   0  0  0  0  0  0  0  0  0  0  0  0
  -30.8352  -10.9345   23.3586 C   0  0  0  0  0  0  0  0  0  0  0  0
  -32.7245  -13.8072   17.4383 C   0  0  0  0  0  0  0  0  0  0  0  0
  -30.3296  -12.7566   21.6804 C   0  0  1  0  0  0  0  0  0  0  0  0
  -33.5432  -13.2373   19.7282 C   0  0  2  0  0  0  0  0  0  0  0  0
  -30.3643  -12.3957   23.1924 C   0  0  0  0  0  0  0  0  0  0  0  0
  -25.4446  -30.4836   22.1417 N   0  0  0  0  0  0  0  0  0  0  0  0
  -25.7841  -29.6565   21.1383 N   0  0  0  0  0  0  0  0  0  0  0  0
  -26.2826  -20.8888   19.3974 N   0  0  0  0  0  0  0  0  0  0  0  0
  -28.3066  -12.6116   20.2625 N   0  0  0  0  0  0  0  0  0  0  0  0
  -29.4594  -28.6995   20.7769 N   0  0  0  0  0  0  0  0  0  0  0  0
  -24.9267  -27.9833   19.6975 N   0  0  0  0  0  0  0  0  0  0  0  0
  -21.3626  -29.0973   22.2377 N   0  0  0  0  0  0  0  0  0  0  0  0
  -29.4062  -26.4686   19.9866 N   0  0  0  0  0  0  0  0  0  0  0  0
  -25.0066  -11.0611   20.3072 N   0  0  0  0  0  0  0  0  0  0  0  0
  -31.6104  -12.6013   20.9995 N   0  0  0  0  0  0  0  0  0  0  0  0
  -33.7811  -13.9929   18.4659 N   0  3  0  0  0  0  0  0  0  0  0  0
  -24.3588  -21.7547   18.2929 O   0  0  0  0  0  0  0  0  0  0  0  0
  -30.9613  -25.2121   18.7890 O   0  0  0  0  0  0  0  0  0  0  0  0
  -22.0880  -27.7327   20.5435 O   0  0  0  0  0  0  0  0  0  0  0  0
  -26.2385  -12.4095   21.7517 O   0  0  0  0  0  0  0  0  0  0  0  0
  -29.4771  -10.6924   20.8811 O   0  0  0  0  0  0  0  0  0  0  0  0
  -31.7802  -14.7969   20.2732 O   0  0  0  0  0  0  0  0  0  0  0  0
  -31.2681  -27.7862   19.6469 O   0  0  0  0  0  0  0  0  0  0  0  0
  -21.2750  -32.9113   26.2974 O   0  0  0  0  0  0  0  0  0  0  0  0
  -26.1224  -18.0477   18.3308 O   0  0  0  0  0  0  0  0  0  1  0  0
  -17.9986  -29.9279   29.5789 F   0  0  0  0  0  0  0  0  0  0  0  0
  -21.6693  -32.8662   29.0333 F   0  0  0  0  0  0  0  0  0  0  0  0
  1  2  1  0  0  0  0
  1  6  2  0  0  0  0
  2  7  2  0  0  0  0
  3 10  2  0  0  0  0
  3 18  1  0  0  0  0
  4 11  1  0  0  0  0
  4 18  2  0  0  0  0
  5  9  2  0  0  0  0
  5 19  1  0  0  0  0
  6 21  1  0  0  0  0
  7 23  1  0  0  0  0
  8 12  2  0  0  0  0
  8 22  1  0  0  0  0
  9 26  1  0  0  0  0
 10 27  1  0  0  0  0
 11 27  2  0  0  0  0
 12 28  1  0  0  0  0
 13 14  2  0  0  0  0
 13 29  1  0  0  0  0
 14 30  1  0  0  0  0
 15 24  1  0  0  0  0
 15 28  2  0  0  0  0
 16 25  1  0  0  0  0
 16 26  2  0  0  0  0
 17 30  2  0  0  0  0
 17 31  1  0  0  0  0
 18 32  1  0  0  0  0
 19 25  2  0  0  0  0
 19 37  1  0  0  0  0
 20 32  1  0  0  0  0
 20 33  2  0  0  0  0
 20 38  1  0  0  0  0
 21 23  2  0  0  0  0
 21 43  1  0  0  0  0
 22 24  2  0  0  0  0
 22 44  1  0  0  0  0
 23 53  1  0  0  0  0
 24 45  1  0  0  0  0
 25 58  1  0  0  0  0
 26 70  1  0  0  0  0
 27 86  1  0  0  0  0
 28 87  1  0  0  0  0
 29 31  2  0  0  0  0
 29 86  1  0  0  0  0
 30 88  1  0  0  0  0
 31 89  1  0  0  0  0
 32 68  2  0  0  0  0
 33 69  1  0  0  0  0
 33 73  1  0  0  0  0
 34 57  1  0  0  0  0
 34 70  1  0  0  0  0
 34 79  2  0  0  0  0
 35 36  2  0  0  0  0
 36 57  1  0  0  0  0
 37 75  1  0  0  0  0
 37 80  2  0  0  0  0
 38 74  1  0  0  0  0
 38 81  2  0  0  0  0
 39 54  1  0  0  0  0
 39 76  1  0  0  0  0
 39 82  2  0  0  0  0
 40 65  1  0  0  0  0
 40 71  1  0  0  0  0
 40 83  2  0  0  0  0
 41 66  1  0  0  0  0
 41 77  1  0  0  0  0
 41 84  2  0  0  0  0
 42 72  1  0  0  0  0
 42 75  1  0  0  0  0
 42 85  2  0  0  0  0
 43 46  1  0  0  0  0
 44 54  1  0  0  0  0
 45 71  1  0  0  0  0
 46 48  1  0  0  0  0
 47 49  1  0  0  0  0
 47 50  1  0  0  0  0
 48 53  1  0  0  0  0
 49 55  1  0  0  0  0
 50 72  1  0  0  0  0
 51 55  1  0  0  0  0
 51 72  1  0  0  0  0
 52 56  1  0  0  0  0
 52 70  1  0  0  0  0
 53 76  1  0  0  0  0
 54 71  1  0  0  0  0
 55 69  1  0  0  0  0
 56 57  1  0  0  0  0
 56 87  1  0  0  0  0
 57 59  1  0  0  0  0
 60 66  1  0  0  0  0
 61 67  1  0  0  0  0
 62 67  1  0  0  0  0
 63 67  1  0  0  0  0
 64 78  1  0  0  0  0
 65 67  1  0  0  0  0
 65 77  1  0  0  0  0
 66 78  1  0  0  0  0
 68 69  1  0  0  0  0
M  CHG  1  78   1
M  ISO  4  42 100  56 101  75 100  87 101
M  END
> <Batch ID>
0066

> <Smiles>
C=CC1(C)C(=O)N(c2ccc(C(=O)[100NH:0][100C:0](=O)N3CCCC(n4nc(-c5ccc(Oc6ccc(F)cc6F)cc5)c(C(N)=O)c4N)C3)c(C)c2)C[101CH:1]1[101O:1]c1ccc2c(c1)CN(C(=O)C(NC(=O)C(C)NC)C(C)(C)C)C(C(=O)NC1CCCc3ccccc31)C2

> <Shape>
0.233

> <Color>
0.077

> <Negative vol penalty>
0.000

$$$$

  -OEChem-04042323213D

 84 92  0     1  0  0  0  0  0999 V2000
  -23.9300   -8.0483   22.0621 C   0  0  0  0  0  0  0  0  0  0  0  0
  -24.6173   -9.0717   21.4173 C   0  0  0  0  0  0  0  0  0  0  0  0
  -21.9924  -28.3372   21.3575 C   0  0  0  0  0  0  0  0  0  0  0  0
  -22.9620  -27.3629   23.3444 C   0  0  0  0  0  0  0  0  0  0  0  0
  -22.5710   -8.1897   22.3395 C   0  0  0  0  0  0  0  0  0  0  0  0
  -23.9456  -10.2367   21.0484 C   0  0  0  0  0  0  0  0  0  0  0  0
  -26.5587  -14.4255   22.1756 C   0  0  0  0  0  0  0  0  0  0  0  0
  -20.7221  -28.2254   21.9225 C   0  0  0  0  0  0  0  0  0  0  0  0
  -21.6917  -27.2511   23.9094 C   0  0  0  0  0  0  0  0  0  0  0  0
  -27.6080  -14.7697   21.3246 C   0  0  0  0  0  0  0  0  0  0  0  0
  -18.8517  -29.8887   24.1958 C   0  0  0  0  0  0  0  0  0  0  0  0
  -17.9966  -30.9857   24.0909 C   0  0  0  0  0  0  0  0  0  0  0  0
  -30.0257  -19.9844   23.0516 C   0  0  0  0  0  0  0  0  0  0  0  0
  -29.3069  -22.2884   22.9439 C   0  0  0  0  0  0  0  0  0  0  0  0
  -26.1891  -16.3918   20.2409 C   0  0  0  0  0  0  0  0  0  0  0  0
  -29.5506  -21.0029   20.9129 C   0  0  0  0  0  0  0  0  0  0  0  0
  -16.4034  -29.6286   22.8839 C   0  0  0  0  0  0  0  0  0  0  0  0
  -23.1124  -27.9060   22.0684 C   0  0  0  0  0  0  0  0  0  0  0  0
  -29.7049  -21.1809   23.6927 C   0  0  0  0  0  0  0  0  0  0  0  0
  -25.3089  -29.1115   21.5887 C   0  0  0  0  0  0  0  0  0  0  0  0
  -21.8845   -9.3610   21.9825 C   0  0  0  0  0  0  0  0  0  0  0  0
  -25.3113  -15.0553   22.0583 C   0  0  0  0  0  0  0  0  0  0  0  0
  -22.5758  -10.3933   21.3201 C   0  0  0  0  0  0  0  0  0  0  0  0
  -25.1263  -16.0557   21.0933 C   0  0  0  0  0  0  0  0  0  0  0  0
  -29.9486  -19.8953   21.6617 C   0  0  0  0  0  0  0  0  0  0  0  0
  -29.2298  -22.1994   21.5540 C   0  0  0  0  0  0  0  0  0  0  0  0
  -20.5717  -27.6823   23.1985 C   0  0  0  0  0  0  0  0  0  0  0  0
  -27.4225  -15.7509   20.3552 C   0  0  0  0  0  0  0  0  0  0  0  0
  -18.4826  -28.6616   23.6447 C   0  0  0  0  0  0  0  0  0  0  0  0
  -16.7725  -30.8557   23.4350 C   0  0  0  0  0  0  0  0  0  0  0  0
  -17.2585  -28.5315   22.9888 C   0  0  0  0  0  0  0  0  0  0  0  0
  -24.4249  -28.0208   21.4850 C   0  0  0  0  0  0  0  0  0  0  0  0
  -26.4116  -28.7298   20.8644 C   0  0  0  0  0  0  0  0  0  0  0  0
  -28.9945  -22.0439   25.8758 C   0  0  0  0  0  0  0  0  0  0  0  0
  -29.7855  -21.2730   25.1422 C   0  0  0  0  0  0  0  0  0  0  0  0
  -25.1476  -30.3582   22.2782 C   0  0  0  0  0  0  0  0  0  0  0  0
  -22.3612  -14.0815   21.3854 C   0  0  0  0  0  0  0  0  0  0  0  0
  -21.6030  -17.1540   22.0973 C   0  0  0  0  0  0  0  0  0  0  0  0
  -30.2518  -18.4195   19.6433 C   0  0  0  0  0  0  0  0  0  0  0  0
  -22.6125  -20.4046   22.3444 C   0  0  0  0  0  0  0  0  0  0  0  0
  -28.6951  -23.4037   19.4069 C   0  0  0  0  0  0  0  0  0  0  0  0
  -20.4048   -9.4486   22.2609 C   0  0  0  0  0  0  0  0  0  0  0  0
  -24.1975  -14.6915   23.0015 C   0  0  0  0  0  0  0  0  0  0  0  0
  -23.8126  -16.7762   20.9397 C   0  0  0  0  0  0  0  0  0  0  0  0
  -19.8514  -10.8686   22.1723 C   0  0  0  0  0  0  0  0  0  0  0  0
  -27.6897  -25.9765   17.1603 C   0  0  0  0  0  0  0  0  0  0  0  0
  -20.3590  -11.5617   20.9119 C   0  0  0  0  0  0  0  0  0  0  0  0
  -26.8238  -26.8952   18.0253 C   0  0  0  0  0  0  0  0  0  0  0  0
  -27.4993  -24.5060   17.5281 C   0  0  0  0  0  0  0  0  0  0  0  0
  -26.8163  -25.1120   19.8162 C   0  0  0  0  0  0  0  0  0  0  0  0
  -21.8877  -11.6823   20.9263 C   0  0  1  0  0  0  0  0  0  0  0  0
  -22.8153  -15.0346   22.4545 C   0  0  1  0  0  0  0  0  0  0  0  0
  -27.0225  -26.6078   19.5265 C   0  0  2  0  0  0  0  0  0  0  0  0
  -21.7589  -22.6946   22.9143 C   0  0  0  0  0  0  0  0  0  0  0  0
  -20.2102  -17.3068   19.3868 C   0  0  0  0  0  0  0  0  0  0  0  0
  -20.2221  -19.8013   19.5994 C   0  0  0  0  0  0  0  0  0  0  0  0
  -18.9759  -18.4159   21.2578 C   0  0  0  0  0  0  0  0  0  0  0  0
  -24.5055  -20.6748   24.6033 C   0  0  0  0  0  0  0  0  0  0  0  0
  -30.6747  -16.9808   19.3691 C   0  0  0  0  0  0  0  0  0  0  0  0
  -29.7701  -15.9548   20.0347 C   0  0  0  0  0  0  0  0  0  1  0  0
  -21.5035  -18.4399   21.3127 C   0  0  1  0  0  0  0  0  0  0  0  0
  -22.4285  -21.4358   23.4432 C   0  0  2  0  0  0  0  0  0  0  0  0
  -20.2522  -18.4762   20.3905 C   0  0  0  0  0  0  0  0  0  0  0  0
  -24.9230  -27.0212   20.7523 N   0  0  0  0  0  0  0  0  0  0  0  0
  -26.1319  -27.4824   20.3891 N   0  0  0  0  0  0  0  0  0  0  0  0
  -22.7523  -16.3806   21.8814 N   0  0  0  0  0  0  0  0  0  0  0  0
  -27.7073  -24.3088   18.9643 N   0  0  0  0  0  0  0  0  0  0  0  0
  -27.5836  -29.3429   20.5940 N   0  0  0  0  0  0  0  0  0  0  0  0
  -23.9523  -30.5876   22.9731 N   0  0  0  0  0  0  0  0  0  0  0  0
  -30.2738  -18.6817   21.0105 N   0  0  0  0  0  0  0  0  0  0  0  0
  -28.8243  -23.3238   20.7931 N   0  0  0  0  0  0  0  0  0  0  0  0
  -22.3012  -12.7632   21.7953 N   0  0  0  0  0  0  0  0  0  0  0  0
  -21.5558  -19.5204   22.2916 N   0  0  0  0  0  0  0  0  0  0  0  0
  -23.7475  -21.8140   24.0248 N   0  3  0  0  0  0  0  0  0  0  0  0
  -26.0304  -31.2492   22.2644 O   0  0  0  0  0  0  0  0  0  0  0  0
  -22.0844  -14.5105   20.2714 O   0  0  0  0  0  0  0  0  0  0  0  0
  -20.6977  -16.8506   22.8783 O   0  0  0  0  0  0  0  0  0  0  0  0
  -29.9449  -19.1927   18.7421 O   0  0  0  0  0  0  0  0  0  0  0  0
  -23.5937  -20.3877   21.6044 O   0  0  0  0  0  0  0  0  0  0  0  0
  -29.3948  -22.7681   18.6143 O   0  0  0  0  0  0  0  0  0  0  0  0
  -19.3323  -27.5732   23.7503 O   0  0  0  0  0  0  0  0  0  0  0  0
  -28.4448  -16.0883   19.5228 O   0  0  0  0  0  0  0  0  0  1  0  0
  -15.9508  -31.9089   23.3357 F   0  0  0  0  0  0  0  0  0  0  0  0
  -16.8980  -27.3549   22.4583 F   0  0  0  0  0  0  0  0  0  0  0  0
  1  2  1  0  0  0  0
  1  5  2  0  0  0  0
  2  6  2  0  0  0  0
  3  8  2  0  0  0  0
  3 18  1  0  0  0  0
  4  9  1  0  0  0  0
  4 18  2  0  0  0  0
  5 21  1  0  0  0  0
  6 23  1  0  0  0  0
  7 10  2  0  0  0  0
  7 22  1  0  0  0  0
  8 27  1  0  0  0  0
  9 27  2  0  0  0  0
 10 28  1  0  0  0  0
 11 12  2  0  0  0  0
 11 29  1  0  0  0  0
 12 30  1  0  0  0  0
 13 19  1  0  0  0  0
 13 25  2  0  0  0  0
 14 19  2  0  0  0  0
 14 26  1  0  0  0  0
 15 24  1  0  0  0  0
 15 28  2  0  0  0  0
 16 25  1  0  0  0  0
 16 26  2  0  0  0  0
 17 30  2  0  0  0  0
 17 31  1  0  0  0  0
 18 32  1  0  0  0  0
 19 35  1  0  0  0  0
 20 32  1  0  0  0  0
 20 33  2  0  0  0  0
 20 36  1  0  0  0  0
 21 23  2  0  0  0  0
 21 42  1  0  0  0  0
 22 24  2  0  0  0  0
 22 43  1  0  0  0  0
 23 51  1  0  0  0  0
 24 44  1  0  0  0  0
 25 70  1  0  0  0  0
 26 71  1  0  0  0  0
 27 81  1  0  0  0  0
 28 82  1  0  0  0  0
 29 31  2  0  0  0  0
 29 81  1  0  0  0  0
 30 83  1  0  0  0  0
 31 84  1  0  0  0  0
 32 64  2  0  0  0  0
 33 65  1  0  0  0  0
 33 68  1  0  0  0  0
 34 35  2  0  0  0  0
 36 69  1  0  0  0  0
 36 75  2  0  0  0  0
 37 52  1  0  0  0  0
 37 72  1  0  0  0  0
 37 76  2  0  0  0  0
 38 61  1  0  0  0  0
 38 66  1  0  0  0  0
 38 77  2  0  0  0  0
 39 59  1  0  0  0  0
 39 70  1  0  0  0  0
 39 78  2  0  0  0  0
 40 62  1  0  0  0  0
 40 73  1  0  0  0  0
 40 79  2  0  0  0  0
 41 67  1  0  0  0  0
 41 71  1  0  0  0  0
 41 80  2  0  0  0  0
 42 45  1  0  0  0  0
 43 52  1  0  0  0  0
 44 66  1  0  0  0  0
 45 47  1  0  0  0  0
 46 48  1  0  0  0  0
 46 49  1  0  0  0  0
 47 51  1  0  0  0  0
 48 53  1  0  0  0  0
 49 67  1  0  0  0  0
 50 53  1  0  0  0  0
 50 67  1  0  0  0  0
 51 72  1  0  0  0  0
 52 66  1  0  0  0  0
 53 65  1  0  0  0  0
 54 62  1  0  0  0  0
 55 63  1  0  0  0  0
 56 63  1  0  0  0  0
 57 63  1  0  0  0  0
 58 74  1  0  0  0  0
 59 60  1  0  0  0  0
 60 82  1  0  0  0  0
 61 63  1  0  0  0  0
 61 73  1  0  0  0  0
 62 74  1  0  0  0  0
 64 65  1  0  0  0  0
M  CHG  1  74   1
M  ISO  4  41 100  60 101  71 100  82 101
M  END
> <Batch ID>
0066

> <Smiles>
C=Cc1cc(NC(=O)C[101CH2:1][101O:1]c2ccc3c(c2)CN(C(=O)C(NC(=O)C(C)NC)C(C)(C)C)C(C(=O)NC2CCCc4ccccc42)C3)cc([100NH:0][100C:0](=O)N2CCCC(n3nc(-c4ccc(Oc5ccc(F)cc5F)cc4)c(C(N)=O)c3N)C2)c1

> <Shape>
0.247

> <Color>
0.084

> <Negative vol penalty>
0.000

$$$$

  -OEChem-04042323213D

 87 95  0     1  0  0  0  0  0999 V2000
  -26.9643  -26.5864   19.6389 C   0  0  0  0  0  0  0  0  0  0  0  0
  -27.8709  -25.9093   20.4481 C   0  0  0  0  0  0  0  0  0  0  0  0
  -23.0064   -9.8930   19.9677 C   0  0  0  0  0  0  0  0  0  0  0  0
  -23.7366   -9.9223   22.2705 C   0  0  0  0  0  0  0  0  0  0  0  0
  -26.5198  -26.0036   18.4528 C   0  0  0  0  0  0  0  0  0  0  0  0
  -28.3328  -24.6484   20.0723 C   0  0  0  0  0  0  0  0  0  0  0  0
  -33.3372  -24.1548   20.6705 C   0  0  0  0  0  0  0  0  0  0  0  0
  -22.2444   -8.7531   20.2238 C   0  0  0  0  0  0  0  0  0  0  0  0
  -22.9745   -8.7824   22.5266 C   0  0  0  0  0  0  0  0  0  0  0  0
  -33.8048  -23.9323   21.9649 C   0  0  0  0  0  0  0  0  0  0  0  0
  -23.2294   -5.4495   22.0192 C   0  0  0  0  0  0  0  0  0  0  0  0
  -23.8221   -4.4265   22.7593 C   0  0  0  0  0  0  0  0  0  0  0  0
  -30.4565  -18.3269   24.0511 C   0  0  0  0  0  0  0  0  0  0  0  0
  -34.0031  -21.5772   21.4820 C   0  0  0  0  0  0  0  0  0  0  0  0
  -32.0462  -16.5529   22.5990 C   0  0  0  0  0  0  0  0  0  0  0  0
  -22.1011   -4.6458   24.4407 C   0  0  0  0  0  0  0  0  0  0  0  0
  -23.7525  -10.4776   20.9910 C   0  0  0  0  0  0  0  0  0  0  0  0
  -31.8403  -18.3276   24.2255 C   0  0  0  0  0  0  0  0  0  0  0  0
  -24.1287  -12.9962   20.8406 C   0  0  0  0  0  0  0  0  0  0  0  0
  -26.9839  -24.7391   18.0574 C   0  0  0  0  0  0  0  0  0  0  0  0
  -33.1884  -23.0868   19.7740 C   0  0  0  0  0  0  0  0  0  0  0  0
  -27.8931  -24.0476   18.8805 C   0  0  0  0  0  0  0  0  0  0  0  0
  -33.5358  -21.7892   20.1759 C   0  0  0  0  0  0  0  0  0  0  0  0
  -32.6352  -17.4406   23.4994 C   0  0  0  0  0  0  0  0  0  0  0  0
  -30.6622  -16.5521   22.4247 C   0  0  0  0  0  0  0  0  0  0  0  0
  -22.2284   -8.1978   21.5032 C   0  0  0  0  0  0  0  0  0  0  0  0
  -34.1351  -22.6430   22.3718 C   0  0  0  0  0  0  0  0  0  0  0  0
  -22.0725   -6.0707   22.4899 C   0  0  0  0  0  0  0  0  0  0  0  0
  -23.2580   -4.0247   23.9700 C   0  0  0  0  0  0  0  0  0  0  0  0
  -29.8674  -17.4391   23.1507 C   0  0  0  0  0  0  0  0  0  0  0  0
  -21.5084   -5.6689   23.7006 C   0  0  0  0  0  0  0  0  0  0  0  0
  -24.5403  -11.6548   20.7270 C   0  0  0  0  0  0  0  0  0  0  0  0
  -25.2351  -13.7264   20.4814 C   0  0  0  0  0  0  0  0  0  0  0  0
  -32.4394  -19.2768   25.1860 C   0  0  0  0  0  0  0  0  0  0  0  0
  -22.8597  -13.5341   21.2356 C   0  0  0  0  0  0  0  0  0  0  0  0
  -30.7375  -21.7814   18.2271 C   0  0  0  0  0  0  0  0  0  0  0  0
  -33.0688  -20.0214   16.8165 C   0  0  0  0  0  0  0  0  0  0  0  0
  -36.2270  -18.7378   16.9752 C   0  0  0  0  0  0  0  0  0  0  0  0
  -33.4022  -21.5440   25.5162 C   0  0  0  0  0  0  0  0  0  0  0  0
  -30.7117  -14.7042   20.7133 C   0  0  0  0  0  0  0  0  0  0  0  0
  -26.4386  -24.1293   16.7903 C   0  0  0  0  0  0  0  0  0  0  0  0
  -32.7080  -23.3473   18.3727 C   0  0  0  0  0  0  0  0  0  0  0  0
  -33.4135  -20.6113   19.2453 C   0  0  0  0  0  0  0  0  0  0  0  0
  -27.2634  -22.9518   16.2771 C   0  0  0  0  0  0  0  0  0  0  0  0
  -29.5968  -12.2719   18.3642 C   0  0  0  0  0  0  0  0  0  0  0  0
  -27.5941  -21.9942   17.4175 C   0  0  0  0  0  0  0  0  0  0  0  0
  -28.1480  -12.0049   18.7789 C   0  0  0  0  0  0  0  0  0  0  0  0
  -30.4992  -12.5058   19.5745 C   0  0  0  0  0  0  0  0  0  0  0  0
  -28.5841  -13.2739   20.9205 C   0  0  0  0  0  0  0  0  0  0  0  0
  -28.4362  -22.6888   18.4945 C   0  0  1  0  0  0  0  0  0  0  0  0
  -32.1080  -22.1124   17.7075 C   0  0  1  0  0  0  0  0  0  0  0  0
  -27.6244  -13.0967   19.7325 C   0  0  2  0  0  0  0  0  0  0  0  0
  -37.8391  -17.3078   15.6892 C   0  0  0  0  0  0  0  0  0  0  0  0
  -34.4319  -23.8165   25.5686 C   0  0  0  0  0  0  0  0  0  0  0  0
  -31.5143  -17.5294   17.6434 C   0  0  0  0  0  0  0  0  0  0  0  0
  -33.5765  -16.1808   17.1997 C   0  0  0  0  0  0  0  0  0  0  0  0
  -32.4858  -17.4367   15.3408 C   0  0  0  0  0  0  0  0  0  0  0  0
  -34.9367  -17.0615   22.6134 C   0  0  0  0  0  0  0  0  0  0  0  0
  -38.1927  -20.9402   16.7649 C   0  0  0  0  0  0  0  0  0  0  0  0
  -33.7507  -18.7096   17.1218 C   0  0  1  0  0  0  0  0  0  0  0  0
  -37.3609  -18.7247   15.9659 C   0  0  2  0  0  0  0  0  0  0  0  0
  -33.7248  -22.7829   24.7101 C   0  0  1  0  0  0  0  0  0  1  0  0
  -32.8324  -17.4858   16.8448 C   0  0  0  0  0  0  0  0  0  0  0  0
  -25.8091  -11.5369   20.3267 N   0  0  0  0  0  0  0  0  0  0  0  0
  -26.2043  -12.8136   20.1856 N   0  0  0  0  0  0  0  0  0  0  0  0
  -32.9332  -20.9163   17.8874 N   0  0  0  0  0  0  0  0  0  0  0  0
  -29.9423  -13.5559   20.4301 N   0  0  0  0  0  0  0  0  0  0  0  0
  -25.4638  -15.0540   20.3927 N   0  0  0  0  0  0  0  0  0  0  0  0
  -21.8318  -12.6428   21.5721 N   0  0  0  0  0  0  0  0  0  0  0  0
  -30.0659  -15.6488   21.5103 N   0  0  0  0  0  0  0  0  0  0  0  0
  -34.0383  -17.4270   23.6628 N   0  0  0  0  0  0  0  0  0  0  0  0
  -32.8034  -20.4853   24.7356 N   0  0  0  0  0  0  0  0  0  0  0  0
  -29.8145  -22.7971   18.0665 N   0  0  0  0  0  0  0  0  0  0  0  0
  -34.9940  -18.7085   16.3586 N   0  0  0  0  0  0  0  0  0  0  0  0
  -32.5841  -18.8738   26.4480 N   0  3  0  0  0  0  0  0  0  0  0  0
  -38.5149  -19.5196   16.4731 N   0  3  0  0  0  0  0  0  0  0  0  0
  -22.6388  -14.7683   21.2728 O   0  0  0  0  0  0  0  0  0  0  0  0
  -30.5324  -20.6851   18.7348 O   0  0  0  0  0  0  0  0  0  0  0  0
  -32.6775  -20.2468   15.6686 O   0  0  0  0  0  0  0  0  0  0  0  0
  -36.4162  -18.7670   18.1892 O   0  0  0  0  0  0  0  0  0  0  0  0
  -33.6331  -21.4070   26.7096 O   0  0  0  0  0  0  0  0  0  0  0  0
  -31.8489  -14.8518   20.2583 O   0  0  0  0  0  0  0  0  0  0  0  0
  -21.4848   -7.0857   21.7536 O   0  0  0  0  0  0  0  0  0  0  0  0
  -34.5912  -22.4229   23.6349 O   0  0  0  0  0  0  0  0  0  1  0  0
  -23.8265   -3.0412   24.6799 F   0  0  0  0  0  0  0  0  0  0  0  0
  -28.5361  -17.4455   22.9923 F   0  0  0  0  0  0  0  0  0  0  0  0
  -20.3965   -6.2611   24.1574 F   0  0  0  0  0  0  0  0  0  0  0  0
  1  2  1  0  0  0  0
  1  5  2  0  0  0  0
  2  6  2  0  0  0  0
  3  8  2  0  0  0  0
  3 17  1  0  0  0  0
  4  9  1  0  0  0  0
  4 17  2  0  0  0  0
  5 20  1  0  0  0  0
  6 22  1  0  0  0  0
  7 10  2  0  0  0  0
  7 21  1  0  0  0  0
  8 26  1  0  0  0  0
  9 26  2  0  0  0  0
 10 27  1  0  0  0  0
 11 12  2  0  0  0  0
 11 28  1  0  0  0  0
 12 29  1  0  0  0  0
 13 18  1  0  0  0  0
 13 30  2  0  0  0  0
 14 23  1  0  0  0  0
 14 27  2  0  0  0  0
 15 24  1  0  0  0  0
 15 25  2  0  0  0  0
 16 29  2  0  0  0  0
 16 31  1  0  0  0  0
 17 32  1  0  0  0  0
 18 24  2  0  0  0  0
 18 34  1  0  0  0  0
 19 32  1  0  0  0  0
 19 33  2  0  0  0  0
 19 35  1  0  0  0  0
 20 22  2  0  0  0  0
 20 41  1  0  0  0  0
 21 23  2  0  0  0  0
 21 42  1  0  0  0  0
 22 50  1  0  0  0  0
 23 43  1  0  0  0  0
 24 71  1  0  0  0  0
 25 30  1  0  0  0  0
 25 70  1  0  0  0  0
 26 83  1  0  0  0  0
 27 84  1  0  0  0  0
 28 31  2  0  0  0  0
 28 83  1  0  0  0  0
 29 85  1  0  0  0  0
 30 86  1  0  0  0  0
 31 87  1  0  0  0  0
 32 64  2  0  0  0  0
 33 65  1  0  0  0  0
 33 68  1  0  0  0  0
 34 72  1  0  0  0  0
 34 75  2  0  0  0  0
 35 69  1  0  0  0  0
 35 77  2  0  0  0  0
 36 51  1  0  0  0  0
 36 73  1  0  0  0  0
 36 78  2  0  0  0  0
 37 60  1  0  0  0  0
 37 66  1  0  0  0  0
 37 79  2  0  0  0  0
 38 61  1  0  0  0  0
 38 74  1  0  0  0  0
 38 80  2  0  0  0  0
 39 62  1  0  0  0  0
 39 72  1  0  0  0  0
 39 81  2  0  0  0  0
 40 67  1  0  0  0  0
 40 70  1  0  0  0  0
 40 82  2  0  0  0  0
 41 44  1  0  0  0  0
 42 51  1  0  0  0  0
 43 66  1  0  0  0  0
 44 46  1  0  0  0  0
 45 47  1  0  0  0  0
 45 48  1  0  0  0  0
 46 50  1  0  0  0  0
 47 52  1  0  0  0  0
 48 67  1  0  0  0  0
 49 52  1  0  0  0  0
 49 67  1  0  0  0  0
 50 73  1  0  0  0  0
 51 66  1  0  0  0  0
 52 65  1  0  0  0  0
 53 61  1  0  0  0  0
 54 62  1  0  0  0  0
 55 63  1  0  0  0  0
 56 63  1  0  0  0  0
 57 63  1  0  0  0  0
 58 71  1  0  0  0  0
 59 76  1  0  0  0  0
 60 63  1  0  0  0  0
 60 74  1  0  0  0  0
 61 76  1  0  0  0  0
 62 84  1  0  0  0  0
 64 65  1  0  0  0  0
M  CHG  2  75   1  76   1
M  ISO  4  40 100  62 101  70 100  84 101
M  END
> <Batch ID>
0066

> <Smiles>
CNc1cc([100NH:0][100C:0](=O)N2CCCC(n3nc(-c4ccc(Oc5ccc(F)cc5F)cc4)c(C(N)=O)c3N)C2)c(F)cc1C(=N)NC(=O)[101CH:1](C)[101O:1]c1ccc2c(c1)CN(C(=O)C(NC(=O)C(C)NC)C(C)(C)C)C(C(=O)NC1CCCc3ccccc31)C2

> <Shape>
0.209

> <Color>
0.191

> <Negative vol penalty>
0.000

$$$$

  -OEChem-04042323213D

 87 96  0     1  0  0  0  0  0999 V2000
  -28.0963  -33.4441   27.1797 C   0  0  0  0  0  0  0  0  0  0  0  0
  -28.0709  -32.2559   26.4567 C   0  0  0  0  0  0  0  0  0  0  0  0
  -22.8382   -9.4343   19.8699 C   0  0  0  0  0  0  0  0  0  0  0  0
  -24.5590   -8.6990   21.3981 C   0  0  0  0  0  0  0  0  0  0  0  0
  -26.9573  -34.2458   27.2413 C   0  0  0  0  0  0  0  0  0  0  0  0
  -26.9059  -31.8680   25.7957 C   0  0  0  0  0  0  0  0  0  0  0  0
  -27.8008  -30.1998   21.0988 C   0  0  0  0  0  0  0  0  0  0  0  0
  -27.8544  -20.0441   19.8347 C   0  0  0  0  0  0  0  0  0  0  0  0
  -27.9079  -18.6503   19.8220 C   0  0  0  0  0  0  0  0  0  0  0  0
  -21.8623   -8.9042   20.7138 C   0  0  0  0  0  0  0  0  0  0  0  0
  -23.5831   -8.1690   22.2420 C   0  0  0  0  0  0  0  0  0  0  0  0
  -28.2982  -28.9040   20.9673 C   0  0  0  0  0  0  0  0  0  0  0  0
  -21.5671   -6.3047   24.6232 C   0  0  0  0  0  0  0  0  0  0  0  0
  -21.7855   -5.0305   25.1471 C   0  0  0  0  0  0  0  0  0  0  0  0
  -26.0833  -28.1150   20.4283 C   0  0  0  0  0  0  0  0  0  0  0  0
  -30.3196  -18.7418   19.9337 C   0  0  0  0  0  0  0  0  0  0  0  0
  -21.8673   -4.1244   22.9089 C   0  0  0  0  0  0  0  0  0  0  0  0
  -24.1866   -9.3317   20.2121 C   0  0  0  0  0  0  0  0  0  0  0  0
  -25.4455   -9.5230   18.0015 C   0  0  0  0  0  0  0  0  0  0  0  0
  -25.7807  -33.8724   26.5728 C   0  0  0  0  0  0  0  0  0  0  0  0
  -26.4367  -30.4616   20.9064 C   0  0  0  0  0  0  0  0  0  0  0  0
  -25.7496  -32.6648   25.8496 C   0  0  0  0  0  0  0  0  0  0  0  0
  -25.5715  -29.4154   20.5554 C   0  0  0  0  0  0  0  0  0  0  0  0
  -30.2661  -20.1356   19.9463 C   0  0  0  0  0  0  0  0  0  0  0  0
  -29.0336  -20.7867   19.8967 C   0  0  0  0  0  0  0  0  0  0  0  0
  -29.1404  -17.9992   19.8716 C   0  0  0  0  0  0  0  0  0  0  0  0
  -22.2347   -8.2716   21.8998 C   0  0  0  0  0  0  0  0  0  0  0  0
  -27.4389  -27.8609   20.6348 C   0  0  0  0  0  0  0  0  0  0  0  0
  -21.4987   -6.4887   23.2422 C   0  0  0  0  0  0  0  0  0  0  0  0
  -21.9356   -3.9404   24.2899 C   0  0  0  0  0  0  0  0  0  0  0  0
  -21.6488   -5.3985   22.3851 C   0  0  0  0  0  0  0  0  0  0  0  0
  -25.1953   -9.8786   19.3405 C   0  0  0  0  0  0  0  0  0  0  0  0
  -26.4953  -10.3241   17.6239 C   0  0  0  0  0  0  0  0  0  0  0  0
  -28.9160  -24.0294   21.5246 C   0  0  0  0  0  0  0  0  0  0  0  0
  -29.5628  -23.0069   18.9050 C   0  0  0  0  0  0  0  0  0  0  0  0
  -28.9970  -24.1881   22.8557 C   0  0  0  0  0  0  0  0  0  0  0  0
  -24.7877   -8.5551   17.1732 C   0  0  0  0  0  0  0  0  0  0  0  0
  -24.0879  -31.5803   22.7326 C   0  0  0  0  0  0  0  0  0  0  0  0
  -22.4099  -31.4833   19.9582 C   0  0  0  0  0  0  0  0  0  0  0  0
  -22.0343  -30.1364   16.8451 C   0  0  0  0  0  0  0  0  0  0  0  0
  -28.1231  -15.6873   19.8015 C   0  0  0  0  0  0  0  0  0  0  0  0
  -24.5601  -34.7481   26.7075 C   0  0  0  0  0  0  0  0  0  0  0  0
  -25.9206  -31.8693   21.0257 C   0  0  0  0  0  0  0  0  0  0  0  0
  -24.1023  -29.6471   20.3183 C   0  0  0  0  0  0  0  0  0  0  0  0
  -28.1256  -22.8959   20.9185 C   0  0  0  0  0  0  0  0  0  0  0  0
  -29.3721  -24.5011   19.1051 C   0  0  0  0  0  0  0  0  0  0  0  0
  -23.4804  -34.4518   25.6698 C   0  0  0  0  0  0  0  0  0  0  0  0
  -30.0362  -12.3848   20.1988 C   0  0  0  0  0  0  0  0  0  0  0  0
  -23.2434  -32.9489   25.5603 C   0  0  0  0  0  0  0  0  0  0  0  0
  -29.2410  -11.5130   19.2298 C   0  0  0  0  0  0  0  0  0  0  0  0
  -29.9085  -13.8688   19.8786 C   0  0  0  0  0  0  0  0  0  0  0  0
  -27.4790  -13.2852   19.7640 C   0  0  0  0  0  0  0  0  0  0  0  0
  -24.5125  -32.2224   25.0987 C   0  0  1  0  0  0  0  0  0  0  0  0
  -29.6568  -24.9243   20.5514 C   0  0  1  0  0  0  0  0  0  0  0  0
  -24.4234  -31.9346   21.3115 C   0  0  1  0  0  0  0  0  0  0  0  0
  -27.8866  -12.1330   18.8326 C   0  0  2  0  0  0  0  0  0  0  0  0
  -31.5447  -20.9061   20.0127 C   0  0  0  0  0  0  0  0  0  0  0  0
  -20.5481  -30.2282   14.8252 C   0  0  0  0  0  0  0  0  0  0  0  0
  -20.3084  -29.8341   21.4326 C   0  0  0  0  0  0  0  0  0  0  0  0
  -19.3717  -29.1677   19.2085 C   0  0  0  0  0  0  0  0  0  0  0  0
  -19.3790  -31.5678   19.8883 C   0  0  0  0  0  0  0  0  0  0  0  0
  -24.2536  -31.0432   15.1097 C   0  0  0  0  0  0  0  0  0  0  0  0
  -29.3191  -26.4074   20.7266 C   0  0  0  0  0  0  0  0  0  1  0  0
  -21.5583  -30.4511   19.2594 C   0  0  1  0  0  0  0  0  0  0  0  0
  -21.7991  -30.7803   15.4906 C   0  0  2  0  0  0  0  0  0  0  0  0
  -20.1817  -30.2502   19.9535 C   0  0  0  0  0  0  0  0  0  0  0  0
  -26.0199  -10.8313   19.7837 N   0  0  0  0  0  0  0  0  0  0  0  0
  -26.7985  -11.0811   18.7172 N   0  0  0  0  0  0  0  0  0  0  0  0
  -28.9566  -22.2237   19.9087 N   0  0  0  0  0  0  0  0  0  0  0  0
  -23.6446  -31.0399   20.4530 N   0  0  0  0  0  0  0  0  0  0  0  0
  -28.5131  -14.3256   19.8054 N   0  0  0  0  0  0  0  0  0  0  0  0
  -27.1795  -10.4477   16.4668 N   0  0  0  0  0  0  0  0  0  0  0  0
  -25.2753   -7.2411   17.1647 N   0  0  0  0  0  0  0  0  0  0  0  0
  -29.1942  -16.5829   19.8596 N   0  0  0  0  0  0  0  0  0  0  0  0
  -24.6991  -32.3874   23.6731 N   0  0  0  0  0  0  0  0  0  0  0  0
  -21.4689  -30.8717   17.8653 N   0  0  0  0  0  0  0  0  0  0  0  0
  -22.9598  -30.5306   14.5898 N   0  3  0  0  0  0  0  0  0  0  0  0
  -30.1402  -22.5970   17.8987 O   0  0  0  0  0  0  0  0  0  0  0  0
  -23.8070   -8.8506   16.4490 O   0  0  0  0  0  0  0  0  0  0  0  0
  -23.3294  -30.6448   22.9591 O   0  0  0  0  0  0  0  0  0  0  0  0
  -21.9981  -32.6420   20.0550 O   0  0  0  0  0  0  0  0  0  0  0  0
  -22.6542  -29.0842   16.9838 O   0  0  0  0  0  0  0  0  0  0  0  0
  -26.9382  -16.0217   19.7386 O   0  0  0  0  0  0  0  0  0  0  0  0
  -21.2826   -7.7544   22.7236 O   0  0  0  0  0  0  0  0  0  0  0  0
  -27.9217  -26.5951   20.5065 O   0  0  0  0  0  0  0  0  0  1  0  0
  -22.1469   -2.7171   24.7931 F   0  0  0  0  0  0  0  0  0  0  0  0
  -21.5853   -5.5693   21.0574 F   0  0  0  0  0  0  0  0  0  0  0  0
  1  2  1  0  0  0  0
  1  5  2  0  0  0  0
  2  6  2  0  0  0  0
  3 10  2  0  0  0  0
  3 18  1  0  0  0  0
  4 11  1  0  0  0  0
  4 18  2  0  0  0  0
  5 20  1  0  0  0  0
  6 22  1  0  0  0  0
  7 12  2  0  0  0  0
  7 21  1  0  0  0  0
  8  9  2  0  0  0  0
  8 25  1  0  0  0  0
  9 26  1  0  0  0  0
 10 27  1  0  0  0  0
 11 27  2  0  0  0  0
 12 28  1  0  0  0  0
 13 14  2  0  0  0  0
 13 29  1  0  0  0  0
 14 30  1  0  0  0  0
 15 23  1  0  0  0  0
 15 28  2  0  0  0  0
 16 24  1  0  0  0  0
 16 26  2  0  0  0  0
 17 30  2  0  0  0  0
 17 31  1  0  0  0  0
 18 32  1  0  0  0  0
 19 32  1  0  0  0  0
 19 33  2  0  0  0  0
 19 37  1  0  0  0  0
 20 22  2  0  0  0  0
 20 42  1  0  0  0  0
 21 23  2  0  0  0  0
 21 43  1  0  0  0  0
 22 53  1  0  0  0  0
 23 44  1  0  0  0  0
 24 25  2  0  0  0  0
 24 57  1  0  0  0  0
 25 69  1  0  0  0  0
 26 74  1  0  0  0  0
 27 84  1  0  0  0  0
 28 85  1  0  0  0  0
 29 31  2  0  0  0  0
 29 84  1  0  0  0  0
 30 86  1  0  0  0  0
 31 87  1  0  0  0  0
 32 67  2  0  0  0  0
 33 68  1  0  0  0  0
 33 72  1  0  0  0  0
 34 36  2  0  0  0  0
 34 45  1  0  0  0  0
 34 54  1  0  0  0  0
 35 46  1  0  0  0  0
 35 69  1  0  0  0  0
 35 78  2  0  0  0  0
 37 73  1  0  0  0  0
 37 79  2  0  0  0  0
 38 55  1  0  0  0  0
 38 75  1  0  0  0  0
 38 80  2  0  0  0  0
 39 64  1  0  0  0  0
 39 70  1  0  0  0  0
 39 81  2  0  0  0  0
 40 65  1  0  0  0  0
 40 76  1  0  0  0  0
 40 82  2  0  0  0  0
 41 71  1  0  0  0  0
 41 74  1  0  0  0  0
 41 83  2  0  0  0  0
 42 47  1  0  0  0  0
 43 55  1  0  0  0  0
 44 70  1  0  0  0  0
 45 69  1  0  0  0  0
 46 54  1  0  0  0  0
 47 49  1  0  0  0  0
 48 50  1  0  0  0  0
 48 51  1  0  0  0  0
 49 53  1  0  0  0  0
 50 56  1  0  0  0  0
 51 71  1  0  0  0  0
 52 56  1  0  0  0  0
 52 71  1  0  0  0  0
 53 75  1  0  0  0  0
 54 63  1  0  0  0  0
 55 70  1  0  0  0  0
 56 68  1  0  0  0  0
 58 65  1  0  0  0  0
 59 66  1  0  0  0  0
 60 66  1  0  0  0  0
 61 66  1  0  0  0  0
 62 77  1  0  0  0  0
 63 85  1  0  0  0  0
 64 66  1  0  0  0  0
 64 76  1  0  0  0  0
 65 77  1  0  0  0  0
 67 68  1  0  0  0  0
M  CHG  1  77   1
M  ISO  4  41 100  63 101  74 100  85 101
M  END
> <Batch ID>
0066

> <Smiles>
C=C1CN(c2ccc([100NH:0][100C:0](=O)N3CCCC(n4nc(-c5ccc(Oc6ccc(F)cc6F)cc5)c(C(N)=O)c4N)C3)cc2C)C(=O)CC1[101CH2:1][101O:1]c1ccc2c(c1)CN(C(=O)C(NC(=O)C(C)NC)C(C)(C)C)C(C(=O)NC1CCCc3ccccc31)C2

> <Shape>
0.332

> <Color>
0.091

> <Negative vol penalty>
0.000

$$$$

  -OEChem-04042323213D

 88 97  0     1  0  0  0  0  0999 V2000
  -30.0668  -33.3730   22.3650 C   0  0  0  0  0  0  0  0  0  0  0  0
  -30.4639  -32.6664   21.2344 C   0  0  0  0  0  0  0  0  0  0  0  0
  -23.1523   -9.7307   20.0056 C   0  0  0  0  0  0  0  0  0  0  0  0
  -23.8421   -9.8964   22.3151 C   0  0  0  0  0  0  0  0  0  0  0  0
  -29.3554  -32.7271   23.3752 C   0  0  0  0  0  0  0  0  0  0  0  0
  -30.1507  -31.3129   21.1138 C   0  0  0  0  0  0  0  0  0  0  0  0
  -28.5245  -26.3767   16.1838 C   0  0  0  0  0  0  0  0  0  0  0  0
  -22.4405   -8.5682   20.3016 C   0  0  0  0  0  0  0  0  0  0  0  0
  -23.1303   -8.7339   22.6111 C   0  0  0  0  0  0  0  0  0  0  0  0
  -28.9183  -25.1087   15.7585 C   0  0  0  0  0  0  0  0  0  0  0  0
  -19.9141   -7.8585   23.1683 C   0  0  0  0  0  0  0  0  0  0  0  0
  -19.1240   -7.8592   24.3178 C   0  0  0  0  0  0  0  0  0  0  0  0
  -27.6164  -24.1165   17.5305 C   0  0  0  0  0  0  0  0  0  0  0  0
  -29.9088  -19.4541   22.3836 C   0  0  0  0  0  0  0  0  0  0  0  0
  -20.4072   -6.0124   25.2010 C   0  0  0  0  0  0  0  0  0  0  0  0
  -23.8532  -10.3947   21.0123 C   0  0  0  0  0  0  0  0  0  0  0  0
  -24.1133  -12.9193   20.7544 C   0  0  0  0  0  0  0  0  0  0  0  0
  -29.0249  -31.3674   23.2625 C   0  0  0  0  0  0  0  0  0  0  0  0
  -27.6810  -26.5248   17.2942 C   0  0  0  0  0  0  0  0  0  0  0  0
  -29.4354  -30.6478   22.1241 C   0  0  0  0  0  0  0  0  0  0  0  0
  -27.2113  -25.3874   17.9663 C   0  0  0  0  0  0  0  0  0  0  0  0
  -30.2719  -20.0642   21.1830 C   0  0  0  0  0  0  0  0  0  0  0  0
  -30.5144  -19.2864   20.0508 C   0  0  0  0  0  0  0  0  0  0  0  0
  -30.0305  -17.2883   21.3199 C   0  0  0  0  0  0  0  0  0  0  0  0
  -22.4294   -8.0699   21.6043 C   0  0  0  0  0  0  0  0  0  0  0  0
  -28.4666  -23.9785   16.4336 C   0  0  0  0  0  0  0  0  0  0  0  0
  -20.9507   -6.9347   23.0351 C   0  0  0  0  0  0  0  0  0  0  0  0
  -19.3706   -6.9362   25.3342 C   0  0  0  0  0  0  0  0  0  0  0  0
  -29.7881  -18.0661   22.4521 C   0  0  0  0  0  0  0  0  0  0  0  0
  -21.1973   -6.0117   24.0514 C   0  0  0  0  0  0  0  0  0  0  0  0
  -30.3937  -17.8984   20.1192 C   0  0  0  0  0  0  0  0  0  0  0  0
  -24.5891  -11.5953   20.7070 C   0  0  0  0  0  0  0  0  0  0  0  0
  -25.1900  -13.6848   20.3787 C   0  0  0  0  0  0  0  0  0  0  0  0
  -32.2863  -21.3415   17.3800 C   0  0  0  0  0  0  0  0  0  0  0  0
  -31.3382  -21.3861   16.4408 C   0  0  0  0  0  0  0  0  0  0  0  0
  -32.0550  -20.6798   18.6934 C   0  0  0  0  0  0  0  0  0  0  0  0
  -22.8141  -13.4131   21.1065 C   0  0  0  0  0  0  0  0  0  0  0  0
  -27.9472  -27.9052   20.1451 C   0  0  0  0  0  0  0  0  0  0  0  0
  -24.8087  -27.1213   20.3849 C   0  0  0  0  0  0  0  0  0  0  0  0
  -22.2412  -25.1068   19.3867 C   0  0  0  0  0  0  0  0  0  0  0  0
  -30.6102  -14.9312   20.6454 C   0  0  0  0  0  0  0  0  0  0  0  0
  -28.2955  -30.7008   24.4020 C   0  0  0  0  0  0  0  0  0  0  0  0
  -27.2438  -27.8983   17.7241 C   0  0  0  0  0  0  0  0  0  0  0  0
  -26.2879  -25.4915   19.1517 C   0  0  0  0  0  0  0  0  0  0  0  0
  -27.6783  -29.3561   24.0264 C   0  0  0  0  0  0  0  0  0  0  0  0
  -29.6494  -12.3474   18.3921 C   0  0  0  0  0  0  0  0  0  0  0  0
  -28.6826  -28.5040   23.2568 C   0  0  0  0  0  0  0  0  0  0  0  0
  -28.2081  -12.0303   18.7974 C   0  0  0  0  0  0  0  0  0  0  0  0
  -30.5197  -12.6771   19.6035 C   0  0  0  0  0  0  0  0  0  0  0  0
  -30.1272  -19.5529   17.5931 C   0  0  0  0  0  0  0  0  0  0  0  0
  -28.5488  -13.4119   20.8859 C   0  0  0  0  0  0  0  0  0  0  0  0
  -29.0930  -29.1846   21.9454 C   0  0  1  0  0  0  0  0  0  0  0  0
  -30.0132  -20.7127   16.5983 C   0  0  1  0  0  0  0  0  0  0  0  0
  -26.7956  -27.9539   19.1813 C   0  0  1  0  0  0  0  0  0  0  0  0
  -27.6182  -13.1369   19.6934 C   0  0  2  0  0  0  0  0  0  0  0  0
  -30.3938  -21.5529   21.1392 C   0  0  0  0  0  0  0  0  0  0  0  0
  -19.8006  -24.6819   19.7871 C   0  0  0  0  0  0  0  0  0  0  0  0
  -25.4841  -25.7391   23.0199 C   0  0  0  0  0  0  0  0  0  0  0  0
  -23.2815  -24.5565   22.8837 C   0  0  0  0  0  0  0  0  0  0  0  0
  -23.3513  -27.0449   23.0435 C   0  0  0  0  0  0  0  0  0  0  0  0
  -21.5550  -25.7139   16.5726 C   0  0  0  0  0  0  0  0  0  0  0  0
  -28.9459  -21.7236   17.0183 C   0  0  0  0  0  0  0  0  0  1  0  0
  -24.0417  -25.9216   20.8863 C   0  0  1  0  0  0  0  0  0  0  0  0
  -20.8246  -25.4253   18.9436 C   0  0  2  0  0  0  0  0  0  0  0  0
  -24.0586  -25.8133   22.4372 C   0  0  0  0  0  0  0  0  0  0  0  0
  -25.8685  -11.5203   20.3308 N   0  0  0  0  0  0  0  0  0  0  0  0
  -26.2057  -12.8069   20.1382 N   0  0  0  0  0  0  0  0  0  0  0  0
  -30.8907  -19.9016   18.8016 N   0  0  0  0  0  0  0  0  0  0  0  0
  -25.8939  -26.8565   19.5375 N   0  0  0  0  0  0  0  0  0  0  0  0
  -29.9002  -13.7363   20.4030 N   0  0  0  0  0  0  0  0  0  0  0  0
  -25.3576  -15.0164   20.2338 N   0  0  0  0  0  0  0  0  0  0  0  0
  -21.8237  -12.4897   21.4679 N   0  0  0  0  0  0  0  0  0  0  0  0
  -29.9077  -15.8784   21.3898 N   0  0  0  0  0  0  0  0  0  0  0  0
  -28.0572  -29.0249   20.9473 N   0  0  0  0  0  0  0  0  0  0  0  0
  -22.7056  -26.0208   20.3087 N   0  0  0  0  0  0  0  0  0  0  0  0
  -20.6287  -25.0389   17.5177 N   0  3  0  0  0  0  0  0  0  0  0  0
  -32.9106  -20.8449   19.5628 O   0  0  0  0  0  0  0  0  0  0  0  0
  -22.5350  -14.6359   21.0851 O   0  0  0  0  0  0  0  0  0  0  0  0
  -28.6808  -26.9237   20.1608 O   0  0  0  0  0  0  0  0  0  0  0  0
  -24.4535  -28.2522   20.7265 O   0  0  0  0  0  0  0  0  0  0  0  0
  -22.8712  -24.1414   18.9606 O   0  0  0  0  0  0  0  0  0  0  0  0
  -31.7465  -15.1126   20.2007 O   0  0  0  0  0  0  0  0  0  0  0  0
  -21.7347   -6.9357   21.8936 O   0  0  0  0  0  0  0  0  0  0  0  0
  -28.8500  -22.7397   16.0209 O   0  0  0  0  0  0  0  0  0  1  0  0
  -18.6128   -6.9381   26.4386 F   0  0  0  0  0  0  0  0  0  0  0  0
  -29.4389  -17.4904   23.6114 F   0  0  0  0  0  0  0  0  0  0  0  0
  -22.1925   -5.1225   23.9296 F   0  0  0  0  0  0  0  0  0  0  0  0
  -30.6255  -17.1494   19.0302 F   0  0  0  0  0  0  0  0  0  0  0  0
  1  2  1  0  0  0  0
  1  5  2  0  0  0  0
  2  6  2  0  0  0  0
  3  8  2  0  0  0  0
  3 16  1  0  0  0  0
  4  9  1  0  0  0  0
  4 16  2  0  0  0  0
  5 18  1  0  0  0  0
  6 20  1  0  0  0  0
  7 10  2  0  0  0  0
  7 19  1  0  0  0  0
  8 25  1  0  0  0  0
  9 25  2  0  0  0  0
 10 26  1  0  0  0  0
 11 12  2  0  0  0  0
 11 27  1  0  0  0  0
 12 28  1  0  0  0  0
 13 21  1  0  0  0  0
 13 26  2  0  0  0  0
 14 22  2  0  0  0  0
 14 29  1  0  0  0  0
 15 28  2  0  0  0  0
 15 30  1  0  0  0  0
 16 32  1  0  0  0  0
 17 32  1  0  0  0  0
 17 33  2  0  0  0  0
 17 37  1  0  0  0  0
 18 20  2  0  0  0  0
 18 42  1  0  0  0  0
 19 21  2  0  0  0  0
 19 43  1  0  0  0  0
 20 52  1  0  0  0  0
 21 44  1  0  0  0  0
 22 23  1  0  0  0  0
 22 56  1  0  0  0  0
 23 31  2  0  0  0  0
 23 68  1  0  0  0  0
 24 29  2  0  0  0  0
 24 31  1  0  0  0  0
 24 73  1  0  0  0  0
 25 83  1  0  0  0  0
 26 84  1  0  0  0  0
 27 30  2  0  0  0  0
 27 83  1  0  0  0  0
 28 85  1  0  0  0  0
 29 86  1  0  0  0  0
 30 87  1  0  0  0  0
 31 88  1  0  0  0  0
 32 66  2  0  0  0  0
 33 67  1  0  0  0  0
 33 71  1  0  0  0  0
 34 35  2  0  0  0  0
 34 36  1  0  0  0  0
 35 53  1  0  0  0  0
 36 68  1  0  0  0  0
 36 77  2  0  0  0  0
 37 72  1  0  0  0  0
 37 78  2  0  0  0  0
 38 54  1  0  0  0  0
 38 74  1  0  0  0  0
 38 79  2  0  0  0  0
 39 63  1  0  0  0  0
 39 69  1  0  0  0  0
 39 80  2  0  0  0  0
 40 64  1  0  0  0  0
 40 75  1  0  0  0  0
 40 81  2  0  0  0  0
 41 70  1  0  0  0  0
 41 73  1  0  0  0  0
 41 82  2  0  0  0  0
 42 45  1  0  0  0  0
 43 54  1  0  0  0  0
 44 69  1  0  0  0  0
 45 47  1  0  0  0  0
 46 48  1  0  0  0  0
 46 49  1  0  0  0  0
 47 52  1  0  0  0  0
 48 55  1  0  0  0  0
 49 70  1  0  0  0  0
 50 53  1  0  0  0  0
 50 68  1  0  0  0  0
 51 55  1  0  0  0  0
 51 70  1  0  0  0  0
 52 74  1  0  0  0  0
 53 62  1  0  0  0  0
 54 69  1  0  0  0  0
 55 67  1  0  0  0  0
 57 64  1  0  0  0  0
 58 65  1  0  0  0  0
 59 65  1  0  0  0  0
 60 65  1  0  0  0  0
 61 76  1  0  0  0  0
 62 84  1  0  0  0  0
 63 65  1  0  0  0  0
 63 75  1  0  0  0  0
 64 76  1  0  0  0  0
 66 67  1  0  0  0  0
M  CHG  1  76   1
M  ISO  4  41 100  62 101  73 100  84 101
M  END
> <Batch ID>
0066

> <Smiles>
CNC(C)C(=O)NC(C(=O)N1Cc2cc([101O:1][101CH2:1]C3=CCC(=O)N(c4c(C)cc(F)c([100NH:0][100C:0](=O)N5CCCC(n6nc(-c7ccc(Oc8ccc(F)cc8F)cc7)c(C(N)=O)c6N)C5)c4F)C3)ccc2CC1C(=O)NC1CCCc2ccccc21)C(C)(C)C

> <Shape>
0.265

> <Color>
0.208

> <Negative vol penalty>
0.000

$$$$

  -OEChem-04042323213D

 88 97  0     1  0  0  0  0  0999 V2000
  -18.6304  -17.1850   17.2233 C   0  0  0  0  0  0  0  0  0  0  0  0
  -19.7168  -17.0823   18.0863 C   0  0  0  0  0  0  0  0  0  0  0  0
  -23.0002   -9.8937   19.9813 C   0  0  0  0  0  0  0  0  0  0  0  0
  -23.7228   -9.9472   22.2861 C   0  0  0  0  0  0  0  0  0  0  0  0
  -17.9623  -18.4011   17.0872 C   0  0  0  0  0  0  0  0  0  0  0  0
  -20.1364  -18.1961   18.8128 C   0  0  0  0  0  0  0  0  0  0  0  0
  -22.4716  -18.2327   24.4741 C   0  0  0  0  0  0  0  0  0  0  0  0
  -22.2329   -8.7599   20.2481 C   0  0  0  0  0  0  0  0  0  0  0  0
  -22.9554   -8.8133   22.5529 C   0  0  0  0  0  0  0  0  0  0  0  0
  -23.7815  -18.2902   24.9481 C   0  0  0  0  0  0  0  0  0  0  0  0
  -21.4713   -5.7223   23.7583 C   0  0  0  0  0  0  0  0  0  0  0  0
  -22.0561   -4.7071   24.5154 C   0  0  0  0  0  0  0  0  0  0  0  0
  -23.5740  -20.6788   25.2142 C   0  0  0  0  0  0  0  0  0  0  0  0
  -29.8118  -17.7312   22.6994 C   0  0  0  0  0  0  0  0  0  0  0  0
  -31.6154  -19.3371   22.7686 C   0  0  0  0  0  0  0  0  0  0  0  0
  -31.8886  -17.2653   21.5561 C   0  0  0  0  0  0  0  0  0  0  0  0
  -23.7842   -4.4573   22.8456 C   0  0  0  0  0  0  0  0  0  0  0  0
  -23.7452  -10.4874   21.0003 C   0  0  0  0  0  0  0  0  0  0  0  0
  -24.1317  -13.0026   20.8217 C   0  0  0  0  0  0  0  0  0  0  0  0
  -18.3678  -19.5279   17.8196 C   0  0  0  0  0  0  0  0  0  0  0  0
  -21.7054  -19.4013   24.3561 C   0  0  0  0  0  0  0  0  0  0  0  0
  -19.4739  -19.4288   18.6853 C   0  0  0  0  0  0  0  0  0  0  0  0
  -22.2538  -20.6331   24.7409 C   0  0  0  0  0  0  0  0  0  0  0  0
  -30.3220  -18.9570   23.1266 C   0  0  0  0  0  0  0  0  0  0  0  0
  -30.5951  -16.8853   21.9141 C   0  0  0  0  0  0  0  0  0  0  0  0
  -22.2105   -8.2197   21.5339 C   0  0  0  0  0  0  0  0  0  0  0  0
  -24.3339  -19.5137   25.3155 C   0  0  0  0  0  0  0  0  0  0  0  0
  -22.0430   -6.1049   22.5448 C   0  0  0  0  0  0  0  0  0  0  0  0
  -23.2125   -4.0747   24.0590 C   0  0  0  0  0  0  0  0  0  0  0  0
  -23.1994   -5.4724   22.0885 C   0  0  0  0  0  0  0  0  0  0  0  0
  -32.3988  -18.4912   21.9833 C   0  0  0  0  0  0  0  0  0  0  0  0
  -24.5385  -11.6583   20.7251 C   0  0  0  0  0  0  0  0  0  0  0  0
  -25.2422  -13.7243   20.4577 C   0  0  0  0  0  0  0  0  0  0  0  0
  -29.8930  -21.0825   24.4343 C   0  0  0  0  0  0  0  0  0  0  0  0
  -22.8636  -13.5500   21.2061 C   0  0  0  0  0  0  0  0  0  0  0  0
  -20.3286  -20.9468   21.9438 C   0  0  0  0  0  0  0  0  0  0  0  0
  -19.1235  -22.7910   24.3247 C   0  0  0  0  0  0  0  0  0  0  0  0
  -19.4189  -23.9566   27.5186 C   0  0  0  0  0  0  0  0  0  0  0  0
  -30.7218  -14.6834   20.6967 C   0  0  0  0  0  0  0  0  0  0  0  0
  -17.6440  -20.8333   17.6036 C   0  0  0  0  0  0  0  0  0  0  0  0
  -20.2850  -19.3188   23.8683 C   0  0  0  0  0  0  0  0  0  0  0  0
  -21.4663  -21.9139   24.6524 C   0  0  0  0  0  0  0  0  0  0  0  0
  -28.6869  -21.6617   25.1377 C   0  0  0  0  0  0  0  0  0  0  0  0
  -17.9181  -21.8690   18.6910 C   0  0  0  0  0  0  0  0  0  0  0  0
  -29.6052  -12.2282   18.3725 C   0  0  0  0  0  0  0  0  0  0  0  0
  -19.4122  -21.9488   18.9878 C   0  0  0  0  0  0  0  0  0  0  0  0
  -28.1540  -11.9716   18.7853 C   0  0  0  0  0  0  0  0  0  0  0  0
  -30.5044  -12.4727   19.5830 C   0  0  0  0  0  0  0  0  0  0  0  0
  -28.1434  -19.5107   24.2629 C   0  0  0  0  0  0  0  0  0  0  0  0
  -28.5879  -13.2639   20.9134 C   0  0  0  0  0  0  0  0  0  0  0  0
  -19.9435  -20.6082   19.5091 C   0  0  1  0  0  0  0  0  0  0  0  0
  -19.7695  -20.6391   23.3041 C   0  0  1  0  0  0  0  0  0  0  0  0
  -27.8188  -20.4437   25.4195 C   0  0  2  0  0  0  0  0  0  0  0  0
  -27.6315  -13.0765   19.7243 C   0  0  2  0  0  0  0  0  0  0  0  0
  -18.3017  -25.4792   29.1712 C   0  0  0  0  0  0  0  0  0  0  0  0
  -20.2388  -25.2138   22.8428 C   0  0  0  0  0  0  0  0  0  0  0  0
  -19.9473  -26.5452   24.9430 C   0  0  0  0  0  0  0  0  0  0  0  0
  -17.9591  -25.5449   23.8164 C   0  0  0  0  0  0  0  0  0  0  0  0
  -18.9481  -21.7380   29.4200 C   0  0  0  0  0  0  0  0  0  0  0  0
  -34.9031  -19.1871   23.0651 C   0  0  0  0  0  0  0  0  0  0  0  0
  -26.3399  -20.7738   25.5243 C   0  0  0  0  0  0  0  0  0  1  0  0
  -19.5763  -24.0385   25.0442 C   0  0  1  0  0  0  0  0  0  0  0  0
  -18.4141  -24.0541   28.6523 C   0  0  2  0  0  0  0  0  0  0  0  0
  -19.4461  -25.3119   24.1616 C   0  0  0  0  0  0  0  0  0  0  0  0
  -25.8081  -11.5308   20.3306 N   0  0  0  0  0  0  0  0  0  0  0  0
  -33.8983  -20.3699   20.8854 N   0  0  0  0  0  0  0  0  0  0  0  0
  -26.2088  -12.8042   20.1759 N   0  0  0  0  0  0  0  0  0  0  0  0
  -29.5205  -19.8225   23.9297 N   0  0  0  0  0  0  0  0  0  0  0  0
  -20.0839  -21.7823   24.1635 N   0  0  0  0  0  0  0  0  0  0  0  0
  -29.9488  -13.5349   20.4244 N   0  0  0  0  0  0  0  0  0  0  0  0
  -25.4763  -15.0498   20.3543 N   0  0  0  0  0  0  0  0  0  0  0  0
  -21.8310  -12.6667   21.5495 N   0  0  0  0  0  0  0  0  0  0  0  0
  -30.0770  -15.6398   21.4804 N   0  0  0  0  0  0  0  0  0  0  0  0
  -19.5858  -20.4291   20.8999 N   0  0  0  0  0  0  0  0  0  0  0  0
  -18.8141  -24.0925   26.2870 N   0  0  0  0  0  0  0  0  0  0  0  0
  -18.8218  -23.1730   29.7830 N   0  3  0  0  0  0  0  0  0  0  0  0
  -30.9440  -21.6968   24.3213 O   0  0  0  0  0  0  0  0  0  0  0  0
  -22.6473  -14.7854   21.2282 O   0  0  0  0  0  0  0  0  0  0  0  0
  -21.3570  -21.6063   21.8483 O   0  0  0  0  0  0  0  0  0  0  0  0
  -17.9585  -22.7114   23.9270 O   0  0  0  0  0  0  0  0  0  0  0  0
  -20.6208  -23.7814   27.7070 O   0  0  0  0  0  0  0  0  0  0  0  0
  -31.8610  -14.8213   20.2439 O   0  0  0  0  0  0  0  0  0  0  0  0
  -34.6575  -17.8151   20.9046 O   0  0  0  0  0  0  0  0  0  0  0  0
  -21.4617   -7.1134   21.7947 O   0  0  0  0  0  0  0  0  0  0  0  0
  -25.6124  -19.5727   25.7779 O   0  0  0  0  0  0  0  0  0  1  0  0
  -23.7748   -3.1009   24.7869 F   0  0  0  0  0  0  0  0  0  0  0  0
  -23.7538   -5.8364   20.9240 F   0  0  0  0  0  0  0  0  0  0  0  0
  -34.0179  -18.9670   21.5351 S   0  0  2  0  0  0  0  0  0  0  0  0
  1  2  1  0  0  0  0
  1  5  2  0  0  0  0
  2  6  2  0  0  0  0
  3  8  2  0  0  0  0
  3 18  1  0  0  0  0
  4  9  1  0  0  0  0
  4 18  2  0  0  0  0
  5 20  1  0  0  0  0
  6 22  1  0  0  0  0
  7 10  2  0  0  0  0
  7 21  1  0  0  0  0
  8 26  1  0  0  0  0
  9 26  2  0  0  0  0
 10 27  1  0  0  0  0
 11 12  2  0  0  0  0
 11 28  1  0  0  0  0
 12 29  1  0  0  0  0
 13 23  1  0  0  0  0
 13 27  2  0  0  0  0
 14 24  1  0  0  0  0
 14 25  2  0  0  0  0
 15 24  2  0  0  0  0
 15 31  1  0  0  0  0
 16 25  1  0  0  0  0
 16 31  2  0  0  0  0
 17 29  2  0  0  0  0
 17 30  1  0  0  0  0
 18 32  1  0  0  0  0
 19 32  1  0  0  0  0
 19 33  2  0  0  0  0
 19 35  1  0  0  0  0
 20 22  2  0  0  0  0
 20 40  1  0  0  0  0
 21 23  2  0  0  0  0
 21 41  1  0  0  0  0
 22 51  1  0  0  0  0
 23 42  1  0  0  0  0
 24 68  1  0  0  0  0
 25 73  1  0  0  0  0
 26 84  1  0  0  0  0
 27 85  1  0  0  0  0
 28 30  2  0  0  0  0
 28 84  1  0  0  0  0
 29 86  1  0  0  0  0
 30 87  1  0  0  0  0
 31 88  1  0  0  0  0
 32 65  2  0  0  0  0
 33 67  1  0  0  0  0
 33 71  1  0  0  0  0
 34 43  1  0  0  0  0
 34 68  1  0  0  0  0
 34 77  2  0  0  0  0
 35 72  1  0  0  0  0
 35 78  2  0  0  0  0
 36 52  1  0  0  0  0
 36 74  1  0  0  0  0
 36 79  2  0  0  0  0
 37 62  1  0  0  0  0
 37 69  1  0  0  0  0
 37 80  2  0  0  0  0
 38 63  1  0  0  0  0
 38 75  1  0  0  0  0
 38 81  2  0  0  0  0
 39 70  1  0  0  0  0
 39 73  1  0  0  0  0
 39 82  2  0  0  0  0
 40 44  1  0  0  0  0
 41 52  1  0  0  0  0
 42 69  1  0  0  0  0
 43 53  1  0  0  0  0
 44 46  1  0  0  0  0
 45 47  1  0  0  0  0
 45 48  1  0  0  0  0
 46 51  1  0  0  0  0
 47 54  1  0  0  0  0
 48 70  1  0  0  0  0
 49 53  1  0  0  0  0
 49 68  1  0  0  0  0
 50 54  1  0  0  0  0
 50 70  1  0  0  0  0
 51 74  1  0  0  0  0
 52 69  1  0  0  0  0
 53 61  1  0  0  0  0
 54 67  1  0  0  0  0
 55 63  1  0  0  0  0
 56 64  1  0  0  0  0
 57 64  1  0  0  0  0
 58 64  1  0  0  0  0
 59 76  1  0  0  0  0
 60 88  1  0  0  0  0
 61 85  1  0  0  0  0
 62 64  1  0  0  0  0
 62 75  1  0  0  0  0
 63 76  1  0  0  0  0
 65 67  1  0  0  0  0
 66 88  2  0  0  0  0
 83 88  2  0  0  0  0
M  CHG  1  76   1
M  ISO  4  39 100  61 101  73 100  85 101
M  END
> <Batch ID>
0066

> <Smiles>
CNC(C)C(=O)NC(C(=O)N1Cc2cc([101O:1][101CH2:1]C3CC(=O)N(c4cc([100NH:0][100C:0](=O)N5CCCC(n6nc(-c7ccc(Oc8ccc(F)cc8F)cc7)c(C(N)=O)c6N)C5)cc(S(C)(=N)=O)c4)C3)ccc2CC1C(=O)NC1CCCc2ccccc21)C(C)(C)C

> <Shape>
0.178

> <Color>
0.194

> <Negative vol penalty>
0.000

$$$$

  -OEChem-04042323213D

 88 97  0     1  0  0  0  0  0999 V2000
  -32.1813  -32.3597   26.4411 C   0  0  0  0  0  0  0  0  0  0  0  0
  -32.4159  -31.1754   25.7500 C   0  0  0  0  0  0  0  0  0  0  0  0
  -23.2235   -9.8247   19.9503 C   0  0  0  0  0  0  0  0  0  0  0  0
  -23.9444   -9.9093   22.2547 C   0  0  0  0  0  0  0  0  0  0  0  0
  -30.8774  -32.8279   26.5971 C   0  0  0  0  0  0  0  0  0  0  0  0
  -31.3465  -30.4579   25.2153 C   0  0  0  0  0  0  0  0  0  0  0  0
  -31.3165  -27.2226   20.0155 C   0  0  0  0  0  0  0  0  0  0  0  0
  -32.1175  -17.5974   21.9059 C   0  0  0  0  0  0  0  0  0  0  0  0
  -31.9828  -18.9446   21.5704 C   0  0  0  0  0  0  0  0  0  0  0  0
  -22.5564   -8.6262   20.2030 C   0  0  0  0  0  0  0  0  0  0  0  0
  -23.2772   -8.7107   22.5074 C   0  0  0  0  0  0  0  0  0  0  0  0
  -31.4637  -25.8604   19.7575 C   0  0  0  0  0  0  0  0  0  0  0  0
  -20.1019   -7.7002   23.0705 C   0  0  0  0  0  0  0  0  0  0  0  0
  -19.3308   -7.6215   24.2301 C   0  0  0  0  0  0  0  0  0  0  0  0
  -29.8532  -19.0151   22.7093 C   0  0  0  0  0  0  0  0  0  0  0  0
  -29.0642  -25.6165   19.7097 C   0  0  0  0  0  0  0  0  0  0  0  0
  -30.4881  -23.2063   21.8171 C   0  0  0  0  0  0  0  0  0  0  0  0
  -20.6899   -5.7820   25.0089 C   0  0  0  0  0  0  0  0  0  0  0  0
  -23.9176  -10.4663   20.9762 C   0  0  0  0  0  0  0  0  0  0  0  0
  -29.9880  -17.6679   23.0447 C   0  0  0  0  0  0  0  0  0  0  0  0
  -24.0879  -13.0075   20.8306 C   0  0  0  0  0  0  0  0  0  0  0  0
  -29.7922  -32.1209   26.0557 C   0  0  0  0  0  0  0  0  0  0  0  0
  -30.0400  -27.7909   20.1336 C   0  0  0  0  0  0  0  0  0  0  0  0
  -30.0266  -30.9164   25.3653 C   0  0  0  0  0  0  0  0  0  0  0  0
  -28.9036  -26.9866   19.9667 C   0  0  0  0  0  0  0  0  0  0  0  0
  -31.1201  -16.9590   22.6430 C   0  0  0  0  0  0  0  0  0  0  0  0
  -30.8506  -19.6534   21.9721 C   0  0  0  0  0  0  0  0  0  0  0  0
  -22.5831   -8.0691   21.4815 C   0  0  0  0  0  0  0  0  0  0  0  0
  -30.3374  -25.0566   19.6074 C   0  0  0  0  0  0  0  0  0  0  0  0
  -21.1669   -6.8198   22.8800 C   0  0  0  0  0  0  0  0  0  0  0  0
  -30.5466  -22.8698   20.4420 C   0  0  0  0  0  0  0  0  0  1  0  0
  -19.6248   -6.6624   25.1994 C   0  0  0  0  0  0  0  0  0  0  0  0
  -21.4609   -5.8607   23.8492 C   0  0  0  0  0  0  0  0  0  0  0  0
  -24.6075  -11.7042   20.7157 C   0  0  0  0  0  0  0  0  0  0  0  0
  -25.1319  -13.8260   20.4749 C   0  0  0  0  0  0  0  0  0  0  0  0
  -30.5955  -22.0339   22.5323 C   0  0  0  0  0  0  0  0  0  0  0  0
  -30.6882  -21.5021   20.3589 C   0  0  0  0  0  0  0  0  0  0  0  0
  -28.9294  -17.0286   23.8152 C   0  0  0  0  0  0  0  0  0  0  0  0
  -27.6337  -16.9291   23.4463 C   0  0  0  0  0  0  0  0  0  0  0  0
  -22.7785  -13.4396   21.2238 C   0  0  0  0  0  0  0  0  0  0  0  0
  -28.4526  -29.2786   22.4510 C   0  0  0  0  0  0  0  0  0  0  0  0
  -26.2485  -29.7356   20.1153 C   0  0  0  0  0  0  0  0  0  0  0  0
  -24.9229  -28.7110   17.1421 C   0  0  0  0  0  0  0  0  0  0  0  0
  -30.8921  -14.1779   20.9337 C   0  0  0  0  0  0  0  0  0  0  0  0
  -28.3964  -32.6418   26.2907 C   0  0  0  0  0  0  0  0  0  0  0  0
  -29.8982  -29.2669   20.3856 C   0  0  0  0  0  0  0  0  0  0  0  0
  -27.5109  -27.5517   20.0640 C   0  0  0  0  0  0  0  0  0  0  0  0
  -27.3503  -32.0174   25.3709 C   0  0  0  0  0  0  0  0  0  0  0  0
  -29.3046  -13.2275   17.8918 C   0  0  0  0  0  0  0  0  0  0  0  0
  -27.5222  -30.5026   25.3177 C   0  0  0  0  0  0  0  0  0  0  0  0
  -27.8833  -12.8590   18.3205 C   0  0  0  0  0  0  0  0  0  0  0  0
  -30.3352  -12.8160   18.9409 C   0  0  0  0  0  0  0  0  0  0  0  0
  -28.6462  -12.9487   20.7307 C   0  0  0  0  0  0  0  0  0  0  0  0
  -28.8948  -30.1227   24.7494 C   0  0  1  0  0  0  0  0  0  0  0  0
  -28.5516  -29.6422   20.9965 C   0  0  1  0  0  0  0  0  0  0  0  0
  -27.5662  -13.3941   19.7299 C   0  0  2  0  0  0  0  0  0  0  0  0
  -26.5784  -16.2711   24.2746 C   0  0  0  0  0  0  0  0  0  0  0  0
  -23.1041  -29.2602   15.5027 C   0  0  0  0  0  0  0  0  0  0  0  0
  -24.1859  -28.4981   21.9926 C   0  0  0  0  0  0  0  0  0  0  0  0
  -22.6719  -28.2015   20.0209 C   0  0  0  0  0  0  0  0  0  0  0  0
  -23.3739  -30.4912   20.7188 C   0  0  0  0  0  0  0  0  0  0  0  0
  -26.8715  -29.2171   14.9729 C   0  0  0  0  0  0  0  0  0  0  0  0
  -31.2985  -15.5146   22.9849 C   0  0  0  0  0  0  0  0  0  0  0  0
  -25.0545  -28.9646   19.6064 C   0  0  1  0  0  0  0  0  0  0  0  0
  -24.5603  -29.4780   15.8833 C   0  0  2  0  0  0  0  0  0  0  0  0
  -23.8477  -29.0276   20.5847 C   0  0  0  0  0  0  0  0  0  0  0  0
  -25.8825  -11.6906   20.3179 N   0  0  0  0  0  0  0  0  0  0  0  0
  -30.7166  -21.0045   21.6356 N   0  0  0  0  0  0  0  0  0  0  0  0
  -26.1727  -12.9955   20.1796 N   0  0  0  0  0  0  0  0  0  0  0  0
  -27.4244  -28.9994   20.3180 N   0  0  0  0  0  0  0  0  0  0  0  0
  -29.9770  -13.3569   20.2543 N   0  0  0  0  0  0  0  0  0  0  0  0
  -25.2519  -15.1678   20.3888 N   0  0  0  0  0  0  0  0  0  0  0  0
  -21.8259  -12.4670   21.5567 N   0  0  0  0  0  0  0  0  0  0  0  0
  -28.9022  -30.2640   23.3091 N   0  0  0  0  0  0  0  0  0  0  0  0
  -24.7708  -29.4848   18.2732 N   0  0  0  0  0  0  0  0  0  0  0  0
  -30.4711  -14.6536   22.1695 N   0  0  0  0  0  0  0  0  0  0  0  0
  -25.4146  -29.0377   14.7443 N   0  3  0  0  0  0  0  0  0  0  0  0
  -22.4578  -14.6517   21.2626 O   0  0  0  0  0  0  0  0  0  0  0  0
  -28.0003  -28.1856   22.7711 O   0  0  0  0  0  0  0  0  0  0  0  0
  -26.1438  -30.9478   20.3185 O   0  0  0  0  0  0  0  0  0  0  0  0
  -25.2995  -27.5413   17.1242 O   0  0  0  0  0  0  0  0  0  0  0  0
  -31.9999  -14.4700   20.4707 O   0  0  0  0  0  0  0  0  0  0  0  0
  -30.5946  -21.8221   23.8427 O   0  0  0  0  0  0  0  0  0  0  0  0
  -30.7893  -20.7069   19.3000 O   0  0  0  0  0  0  0  0  0  0  0  0
  -21.9320   -6.8997   21.7285 O   0  0  0  0  0  0  0  0  0  0  0  0
  -30.4782  -23.7266   19.3561 O   0  0  0  0  0  0  0  0  0  1  0  0
  -18.8852   -6.5879   26.3136 F   0  0  0  0  0  0  0  0  0  0  0  0
  -22.4836   -5.0129   23.6723 F   0  0  0  0  0  0  0  0  0  0  0  0
  1  2  1  0  0  0  0
  1  5  2  0  0  0  0
  2  6  2  0  0  0  0
  3 10  2  0  0  0  0
  3 19  1  0  0  0  0
  4 11  1  0  0  0  0
  4 19  2  0  0  0  0
  5 22  1  0  0  0  0
  6 24  1  0  0  0  0
  7 12  2  0  0  0  0
  7 23  1  0  0  0  0
  8  9  2  0  0  0  0
  8 26  1  0  0  0  0
  9 27  1  0  0  0  0
 10 28  1  0  0  0  0
 11 28  2  0  0  0  0
 12 29  1  0  0  0  0
 13 14  2  0  0  0  0
 13 30  1  0  0  0  0
 14 32  1  0  0  0  0
 15 20  1  0  0  0  0
 15 27  2  0  0  0  0
 16 25  1  0  0  0  0
 16 29  2  0  0  0  0
 17 31  1  0  0  0  0
 17 36  2  0  0  0  0
 18 32  2  0  0  0  0
 18 33  1  0  0  0  0
 19 34  1  0  0  0  0
 20 26  2  0  0  0  0
 20 38  1  0  0  0  0
 21 34  1  0  0  0  0
 21 35  2  0  0  0  0
 21 40  1  0  0  0  0
 22 24  2  0  0  0  0
 22 45  1  0  0  0  0
 23 25  2  0  0  0  0
 23 46  1  0  0  0  0
 24 54  1  0  0  0  0
 25 47  1  0  0  0  0
 26 63  1  0  0  0  0
 27 68  1  0  0  0  0
 28 85  1  0  0  0  0
 29 86  1  0  0  0  0
 30 33  2  0  0  0  0
 30 85  1  0  0  0  0
 31 37  2  0  0  0  0
 31 86  1  0  0  0  0
 32 87  1  0  0  0  0
 33 88  1  0  0  0  0
 34 67  2  0  0  0  0
 35 69  1  0  0  0  0
 35 72  1  0  0  0  0
 36 68  1  0  0  0  0
 36 83  1  0  0  0  0
 37 68  1  0  0  0  0
 37 84  1  0  0  0  0
 38 39  2  0  0  0  0
 39 57  1  0  0  0  0
 40 73  1  0  0  0  0
 40 78  2  0  0  0  0
 41 55  1  0  0  0  0
 41 74  1  0  0  0  0
 41 79  2  0  0  0  0
 42 64  1  0  0  0  0
 42 70  1  0  0  0  0
 42 80  2  0  0  0  0
 43 65  1  0  0  0  0
 43 75  1  0  0  0  0
 43 81  2  0  0  0  0
 44 71  1  0  0  0  0
 44 76  1  0  0  0  0
 44 82  2  0  0  0  0
 45 48  1  0  0  0  0
 46 55  1  0  0  0  0
 47 70  1  0  0  0  0
 48 50  1  0  0  0  0
 49 51  1  0  0  0  0
 49 52  1  0  0  0  0
 50 54  1  0  0  0  0
 51 56  1  0  0  0  0
 52 71  1  0  0  0  0
 53 56  1  0  0  0  0
 53 71  1  0  0  0  0
 54 74  1  0  0  0  0
 55 70  1  0  0  0  0
 56 69  1  0  0  0  0
 58 65  1  0  0  0  0
 59 66  1  0  0  0  0
 60 66  1  0  0  0  0
 61 66  1  0  0  0  0
 62 77  1  0  0  0  0
 63 76  1  0  0  0  0
 64 66  1  0  0  0  0
 64 75  1  0  0  0  0
 65 77  1  0  0  0  0
 67 69  1  0  0  0  0
M  CHG  1  77   1
M  ISO  4  31 101  44 100  76 100  86 101
M  END
> <Batch ID>
0066

> <Smiles>
CC=Cc1cc(N2C(=O)C[101CH:1]([101O:1]c3ccc4c(c3)CN(C(=O)C(NC(=O)C(C)NC)C(C)(C)C)C(C(=O)NC3CCCc5ccccc53)C4)C2=O)ccc1C[100NH:0][100C:0](=O)N1CCCC(n2nc(-c3ccc(Oc4ccc(F)cc4F)cc3)c(C(N)=O)c2N)C1

> <Shape>
0.331

> <Color>
0.174

> <Negative vol penalty>
0.000

$$$$

  -OEChem-04042323213D

 85 94  0     1  0  0  0  0  0999 V2000
  -17.0704  -28.7533   19.9064 C   0  0  0  0  0  0  0  0  0  0  0  0
  -18.3374  -28.7248   19.3326 C   0  0  0  0  0  0  0  0  0  0  0  0
  -33.4906  -25.0420   16.1028 C   0  0  0  0  0  0  0  0  0  0  0  0
  -29.4488  -17.1234   20.9467 C   0  0  0  0  0  0  0  0  0  0  0  0
  -27.2323  -17.6021   20.1131 C   0  0  0  0  0  0  0  0  0  0  0  0
  -16.8893  -29.3242   21.1655 C   0  0  0  0  0  0  0  0  0  0  0  0
  -19.4240  -29.2681   20.0171 C   0  0  0  0  0  0  0  0  0  0  0  0
  -23.5109  -26.2821   19.8568 C   0  0  0  0  0  0  0  0  0  0  0  0
  -32.1760  -25.1706   15.6466 C   0  0  0  0  0  0  0  0  0  0  0  0
  -28.9732  -15.9538   21.5396 C   0  0  0  0  0  0  0  0  0  0  0  0
  -26.7567  -16.4326   20.7060 C   0  0  0  0  0  0  0  0  0  0  0  0
  -24.2584  -26.2885   18.6800 C   0  0  0  0  0  0  0  0  0  0  0  0
  -25.0332  -13.3880   21.6951 C   0  0  0  0  0  0  0  0  0  0  0  0
  -24.1890  -12.5741   20.9398 C   0  0  0  0  0  0  0  0  0  0  0  0
  -25.8485  -27.7851   19.7051 C   0  0  0  0  0  0  0  0  0  0  0  0
  -31.3529  -25.2542   17.9262 C   0  0  0  0  0  0  0  0  0  0  0  0
  -25.9298  -12.3029   19.2865 C   0  0  0  0  0  0  0  0  0  0  0  0
  -34.5710  -25.0167   19.5841 C   0  0  0  0  0  0  0  0  0  0  0  0
  -33.7453  -25.0130   17.4894 C   0  0  0  0  0  0  0  0  0  0  0  0
  -28.5783  -17.9476   20.2334 C   0  0  0  0  0  0  0  0  0  0  0  0
  -29.5888  -19.2999   18.3209 C   0  0  0  0  0  0  0  0  0  0  0  0
  -17.9759  -29.8661   21.8700 C   0  0  0  0  0  0  0  0  0  0  0  0
  -23.9216  -27.0371   20.9649 C   0  0  0  0  0  0  0  0  0  0  0  0
  -19.2570  -29.8479   21.2863 C   0  0  0  0  0  0  0  0  0  0  0  0
  -25.1059  -27.7845   20.8958 C   0  0  0  0  0  0  0  0  0  0  0  0
  -32.6704  -25.0769   18.3849 C   0  0  0  0  0  0  0  0  0  0  0  0
  -31.1242  -25.2868   16.5478 C   0  0  0  0  0  0  0  0  0  0  0  0
  -27.6272  -15.6084   21.4192 C   0  0  0  0  0  0  0  0  0  0  0  0
  -25.4258  -27.0424   18.6030 C   0  0  0  0  0  0  0  0  0  0  0  0
  -26.3256  -13.6595   21.2461 C   0  0  0  0  0  0  0  0  0  0  0  0
  -34.9332  -24.9663   18.2604 C   0  0  0  0  0  0  0  0  0  0  0  0
  -24.6373  -12.0315   19.7356 C   0  0  0  0  0  0  0  0  0  0  0  0
  -26.7739  -13.1169   20.0418 C   0  0  0  0  0  0  0  0  0  0  0  0
  -29.0689  -19.1561   19.6212 C   0  0  0  0  0  0  0  0  0  0  0  0
  -29.9114  -20.6315   18.2253 C   0  0  0  0  0  0  0  0  0  0  0  0
  -29.7643  -18.3175   17.2913 C   0  0  0  0  0  0  0  0  0  0  0  0
  -22.6807  -29.4516   22.6184 C   0  0  0  0  0  0  0  0  0  0  0  0
  -25.2463  -28.9448   24.5375 C   0  0  0  0  0  0  0  0  0  0  0  0
  -28.6365  -25.5771   16.8120 C   0  0  0  0  0  0  0  0  0  0  0  0
  -28.4184  -27.7315   24.8735 C   0  0  0  0  0  0  0  0  0  0  0  0
  -32.5044  -24.9737   20.8987 C   0  0  0  0  0  0  0  0  0  0  0  0
  -17.7229  -30.5148   23.2078 C   0  0  0  0  0  0  0  0  0  0  0  0
  -23.1184  -26.9984   22.2361 C   0  0  0  0  0  0  0  0  0  0  0  0
  -25.6008  -28.5961   22.0641 C   0  0  0  0  0  0  0  0  0  0  0  0
  -18.9913  -30.7326   24.0288 C   0  0  0  0  0  0  0  0  0  0  0  0
  -28.8390  -24.5376   21.2296 C   0  0  0  0  0  0  0  0  0  0  0  0
  -20.0896  -31.3415   23.1628 C   0  0  0  0  0  0  0  0  0  0  0  0
  -28.6367  -23.0790   20.8268 C   0  0  0  0  0  0  0  0  0  0  0  0
  -30.2378  -24.7770   21.7866 C   0  0  0  0  0  0  0  0  0  0  0  0
  -31.1287  -22.9032   20.4308 C   0  0  0  0  0  0  0  0  0  0  0  0
  -20.4648  -30.4048   22.0082 C   0  0  1  0  0  0  0  0  0  0  0  0
  -23.3565  -28.2111   23.1305 C   0  0  1  0  0  0  0  0  0  0  0  0
  -29.7332  -22.6330   19.8468 C   0  0  1  0  0  0  0  0  0  0  0  0
  -30.5485  -27.0694   26.0231 C   0  0  0  0  0  0  0  0  0  0  0  0
  -25.9145  -31.9044   24.2151 C   0  0  0  0  0  0  0  0  0  0  0  0
  -28.2098  -31.4093   25.0839 C   0  0  0  0  0  0  0  0  0  0  0  0
  -26.2177  -31.0129   26.5320 C   0  0  0  0  0  0  0  0  0  0  0  0
  -27.3814  -25.0292   25.4908 C   0  0  0  0  0  0  0  0  0  0  0  0
  -27.4289  -25.7264   15.8937 C   0  0  0  0  0  0  0  0  0  0  0  0
  -26.1175  -25.8744   16.6502 C   0  0  0  0  0  0  0  0  0  1  0  0
  -26.6638  -29.4617   24.5860 C   0  0  1  0  0  0  0  0  0  0  0  0
  -29.0486  -26.8374   25.9260 C   0  0  2  0  0  0  0  0  0  0  0  0
  -26.7414  -30.9334   25.0814 C   0  0  0  0  0  0  0  0  0  0  0  0
  -29.0601  -20.3047   20.3029 N   0  0  0  0  0  0  0  0  0  0  0  0
  -33.1927  -24.9752   19.6761 N   0  0  0  0  0  0  0  0  0  0  0  0
  -29.5785  -21.1829   19.4276 N   0  0  0  0  0  0  0  0  0  0  0  0
  -24.7773  -28.5308   23.2827 N   0  0  0  0  0  0  0  0  0  0  0  0
  -31.2805  -24.3001   20.8789 N   0  0  0  0  0  0  0  0  0  0  0  0
  -30.4447  -21.3729   17.2311 N   0  0  0  0  0  0  0  0  0  0  0  0
  -29.3800  -16.9960   17.5563 N   0  0  0  0  0  0  0  0  0  0  0  0
  -29.8216  -25.4437   16.0711 N   0  0  0  0  0  0  0  0  0  0  0  0
  -21.3108  -29.3309   22.4832 N   0  0  0  0  0  0  0  0  0  0  0  0
  -27.4156  -28.5156   25.4035 N   0  0  0  0  0  0  0  0  0  0  0  0
  -28.8153  -25.4033   25.5945 N   0  3  0  0  0  0  0  0  0  0  0  0
  -30.2628  -18.5999   16.1754 O   0  0  0  0  0  0  0  0  0  0  0  0
  -23.3521  -30.4451   22.3662 O   0  0  0  0  0  0  0  0  0  0  0  0
  -24.5821  -28.9029   25.5761 O   0  0  0  0  0  0  0  0  0  0  0  0
  -28.5315  -25.5789   18.0340 O   0  0  0  0  0  0  0  0  0  0  0  0
  -28.7820  -27.7368   23.6995 O   0  0  0  0  0  0  0  0  0  0  0  0
  -33.0272  -25.5495   21.8444 O   0  0  0  0  0  0  0  0  0  0  0  0
  -36.1961  -24.8612   17.8245 O   0  0  0  0  0  0  0  0  0  0  0  0
  -27.1628  -14.4671   21.9975 O   0  0  0  0  0  0  0  0  0  0  0  0
  -26.1621  -27.0509   17.4471 O   0  0  0  0  0  0  0  0  0  1  0  0
  -23.8271  -11.2486   19.0111 F   0  0  0  0  0  0  0  0  0  0  0  0
  -28.0149  -13.3731   19.6059 F   0  0  0  0  0  0  0  0  0  0  0  0
  1  2  1  0  0  0  0
  1  6  2  0  0  0  0
  2  7  2  0  0  0  0
  3  9  2  0  0  0  0
  3 19  1  0  0  0  0
  4 10  2  0  0  0  0
  4 20  1  0  0  0  0
  5 11  1  0  0  0  0
  5 20  2  0  0  0  0
  6 22  1  0  0  0  0
  7 24  1  0  0  0  0
  8 12  2  0  0  0  0
  8 23  1  0  0  0  0
  9 27  1  0  0  0  0
 10 28  1  0  0  0  0
 11 28  2  0  0  0  0
 12 29  1  0  0  0  0
 13 14  2  0  0  0  0
 13 30  1  0  0  0  0
 14 32  1  0  0  0  0
 15 25  1  0  0  0  0
 15 29  2  0  0  0  0
 16 26  1  0  0  0  0
 16 27  2  0  0  0  0
 17 32  2  0  0  0  0
 17 33  1  0  0  0  0
 18 31  2  0  0  0  0
 18 65  1  0  0  0  0
 19 26  2  0  0  0  0
 19 31  1  0  0  0  0
 20 34  1  0  0  0  0
 21 34  1  0  0  0  0
 21 35  2  0  0  0  0
 21 36  1  0  0  0  0
 22 24  2  0  0  0  0
 22 42  1  0  0  0  0
 23 25  2  0  0  0  0
 23 43  1  0  0  0  0
 24 51  1  0  0  0  0
 25 44  1  0  0  0  0
 26 65  1  0  0  0  0
 27 71  1  0  0  0  0
 28 82  1  0  0  0  0
 29 83  1  0  0  0  0
 30 33  2  0  0  0  0
 30 82  1  0  0  0  0
 31 81  1  0  0  0  0
 32 84  1  0  0  0  0
 33 85  1  0  0  0  0
 34 64  2  0  0  0  0
 35 66  1  0  0  0  0
 35 69  1  0  0  0  0
 36 70  1  0  0  0  0
 36 75  2  0  0  0  0
 37 52  1  0  0  0  0
 37 72  1  0  0  0  0
 37 76  2  0  0  0  0
 38 61  1  0  0  0  0
 38 67  1  0  0  0  0
 38 77  2  0  0  0  0
 39 59  1  0  0  0  0
 39 71  1  0  0  0  0
 39 78  2  0  0  0  0
 40 62  1  0  0  0  0
 40 73  1  0  0  0  0
 40 79  2  0  0  0  0
 41 65  1  0  0  0  0
 41 68  1  0  0  0  0
 41 80  2  0  0  0  0
 42 45  1  0  0  0  0
 43 52  1  0  0  0  0
 44 67  1  0  0  0  0
 45 47  1  0  0  0  0
 46 48  1  0  0  0  0
 46 49  1  0  0  0  0
 47 51  1  0  0  0  0
 48 53  1  0  0  0  0
 49 68  1  0  0  0  0
 50 53  1  0  0  0  0
 50 68  1  0  0  0  0
 51 72  1  0  0  0  0
 52 67  1  0  0  0  0
 53 66  1  0  0  0  0
 54 62  1  0  0  0  0
 55 63  1  0  0  0  0
 56 63  1  0  0  0  0
 57 63  1  0  0  0  0
 58 74  1  0  0  0  0
 59 60  1  0  0  0  0
 60 83  1  0  0  0  0
 61 63  1  0  0  0  0
 61 73  1  0  0  0  0
 62 74  1  0  0  0  0
 64 66  1  0  0  0  0
M  CHG  1  74   1
M  ISO  4  41 100  60 101  65 100  83 101
M  END
> <Batch ID>
0066

> <Smiles>
CNC(C)C(=O)NC(C(=O)N1Cc2cc([101O:1][101CH2:1]CC(=O)Nc3ccc4c(c3)[100N:0]([100C:0](=O)N3CCCC(n5nc(-c6ccc(Oc7ccc(F)cc7F)cc6)c(C(N)=O)c5N)C3)CC4=O)ccc2CC1C(=O)NC1CCCc2ccccc21)C(C)(C)C

> <Shape>
0.232

> <Color>
0.068

> <Negative vol penalty>
0.000

$$$$

  -OEChem-04042323212D

  0  0  0     0  0  0  0  0  0999 V2000
M  END
$$$$

  -OEChem-04042323213D

 90 99  0     1  0  0  0  0  0999 V2000
  -28.1704  -34.0102   25.5670 C   0  0  0  0  0  0  0  0  0  0  0  0
  -27.8225  -32.6742   25.3952 C   0  0  0  0  0  0  0  0  0  0  0  0
  -23.0760   -9.8666   19.9413 C   0  0  0  0  0  0  0  0  0  0  0  0
  -23.8315   -9.8779   22.2361 C   0  0  0  0  0  0  0  0  0  0  0  0
  -29.3595  -34.3419   26.2150 C   0  0  0  0  0  0  0  0  0  0  0  0
  -28.6641  -31.6691   25.8705 C   0  0  0  0  0  0  0  0  0  0  0  0
  -26.9876  -26.2547   28.1898 C   0  0  0  0  0  0  0  0  0  0  0  0
  -22.3319   -8.7138   20.1919 C   0  0  0  0  0  0  0  0  0  0  0  0
  -23.0873   -8.7250   22.4868 C   0  0  0  0  0  0  0  0  0  0  0  0
  -26.9151  -24.9781   27.6340 C   0  0  0  0  0  0  0  0  0  0  0  0
  -19.3810   -7.9194   21.6390 C   0  0  0  0  0  0  0  0  0  0  0  0
  -18.0750   -7.8720   21.1514 C   0  0  0  0  0  0  0  0  0  0  0  0
  -29.1021  -24.4752   28.5190 C   0  0  0  0  0  0  0  0  0  0  0  0
  -32.0572  -16.6143   22.5548 C   0  0  0  0  0  0  0  0  0  0  0  0
  -29.8717  -17.4631   23.1383 C   0  0  0  0  0  0  0  0  0  0  0  0
  -18.6375   -5.9266   19.8338 C   0  0  0  0  0  0  0  0  0  0  0  0
  -23.8259  -10.4486   20.9634 C   0  0  0  0  0  0  0  0  0  0  0  0
  -24.1676  -12.9736   20.8394 C   0  0  0  0  0  0  0  0  0  0  0  0
  -30.2114  -33.3405   26.7070 C   0  0  0  0  0  0  0  0  0  0  0  0
  -28.1244  -26.6555   28.9063 C   0  0  0  0  0  0  0  0  0  0  0  0
  -29.8663  -31.9877   26.5245 C   0  0  0  0  0  0  0  0  0  0  0  0
  -29.1855  -25.7565   29.0851 C   0  0  0  0  0  0  0  0  0  0  0  0
  -32.6427  -17.5001   23.4593 C   0  0  0  0  0  0  0  0  0  0  0  0
  -30.4573  -18.3489   24.0428 C   0  0  0  0  0  0  0  0  0  0  0  0
  -30.6717  -16.5958   22.3942 C   0  0  0  0  0  0  0  0  0  0  0  0
  -22.3375   -8.1430   21.4647 C   0  0  0  0  0  0  0  0  0  0  0  0
  -27.9737  -24.0891   27.7961 C   0  0  0  0  0  0  0  0  0  0  0  0
  -20.3153   -6.9704   21.2240 C   0  0  0  0  0  0  0  0  0  0  0  0
  -17.7033   -6.8757   20.2488 C   0  0  0  0  0  0  0  0  0  0  0  0
  -19.9435   -5.9740   20.3214 C   0  0  0  0  0  0  0  0  0  0  0  0
  -31.8428  -18.3673   24.2033 C   0  0  0  0  0  0  0  0  0  0  0  0
  -24.5953  -11.6391   20.7049 C   0  0  0  0  0  0  0  0  0  0  0  0
  -25.2604  -13.7225   20.4768 C   0  0  0  0  0  0  0  0  0  0  0  0
  -28.3156  -18.9989   25.2237 C   0  0  0  0  0  0  0  0  0  0  0  0
  -22.8963  -13.4900   21.2549 C   0  0  0  0  0  0  0  0  0  0  0  0
  -30.3182  -28.9272   28.5448 C   0  0  0  0  0  0  0  0  0  0  0  0
  -31.3211  -27.8769   31.4454 C   0  0  0  0  0  0  0  0  0  0  0  0
  -31.4496  -25.3372   33.7214 C   0  0  0  0  0  0  0  0  0  0  0  0
  -30.7260  -14.7693   20.6601 C   0  0  0  0  0  0  0  0  0  0  0  0
  -31.5092  -33.7472   27.3589 C   0  0  0  0  0  0  0  0  0  0  0  0
  -28.1759  -28.0267   29.5223 C   0  0  0  0  0  0  0  0  0  0  0  0
  -30.4197  -26.1309   29.8629 C   0  0  0  0  0  0  0  0  0  0  0  0
  -27.8937  -20.1755   26.0758 C   0  0  0  0  0  0  0  0  0  0  0  0
  -32.1631  -32.6276   28.1646 C   0  0  0  0  0  0  0  0  0  0  0  0
  -29.6165  -12.3510   18.2941 C   0  0  0  0  0  0  0  0  0  0  0  0
  -32.1692  -31.3283   27.3656 C   0  0  0  0  0  0  0  0  0  0  0  0
  -28.1761  -12.0600   18.7215 C   0  0  0  0  0  0  0  0  0  0  0  0
  -30.5293  -12.5821   19.4971 C   0  0  0  0  0  0  0  0  0  0  0  0
  -28.6196  -13.3088   20.8734 C   0  0  0  0  0  0  0  0  0  0  0  0
  -30.1324  -20.5025   25.3105 C   0  0  0  0  0  0  0  0  0  0  0  0
  -30.7410  -30.8692   27.0480 C   0  0  1  0  0  0  0  0  0  0  0  0
  -29.5982  -28.5064   29.7947 C   0  0  1  0  0  0  0  0  0  0  0  0
  -27.6491  -13.1333   19.6940 C   0  0  2  0  0  0  0  0  0  0  0  0
  -28.8748  -21.2873   25.6925 C   0  0  1  0  0  0  0  0  0  0  0  0
  -28.3434  -22.0872   24.4908 C   0  0  0  0  0  0  0  0  0  0  0  0
  -32.3724  -24.7642   35.9836 C   0  0  0  0  0  0  0  0  0  0  0  0
  -34.0986  -27.5467   30.2262 C   0  0  0  0  0  0  0  0  0  0  0  0
  -34.7134  -26.1173   32.1875 C   0  0  0  0  0  0  0  0  0  0  0  0
  -34.0805  -28.5049   32.5361 C   0  0  0  0  0  0  0  0  0  0  0  0
  -28.7464  -24.8821   34.8370 C   0  0  0  0  0  0  0  0  0  0  0  0
  -29.1369  -22.2369   26.8623 C   0  0  0  0  0  0  0  0  0  1  0  0
  -32.2926  -26.8253   31.9244 C   0  0  1  0  0  0  0  0  0  0  0  0
  -31.1784  -25.3082   35.2148 C   0  0  2  0  0  0  0  0  0  0  0  0
  -34.1247  -17.5163   23.6289 C   0  0  0  0  0  0  0  0  0  0  0  0
  -33.7740  -27.2419   31.7022 C   0  0  0  0  0  0  0  0  0  0  0  0
  -25.8610  -11.5427   20.2892 N   0  0  0  0  0  0  0  0  0  0  0  0
  -26.2380  -12.8261   20.1593 N   0  0  0  0  0  0  0  0  0  0  0  0
  -29.6366  -19.2355   24.8027 N   0  0  0  0  0  0  0  0  0  0  0  0
  -30.4252  -27.4851   30.4406 N   0  0  0  0  0  0  0  0  0  0  0  0
  -29.9685  -13.6145   20.3715 N   0  0  0  0  0  0  0  0  0  0  0  0
  -25.4707  -15.0539   20.4018 N   0  0  0  0  0  0  0  0  0  0  0  0
  -21.8838  -12.5813   21.5919 N   0  0  0  0  0  0  0  0  0  0  0  0
  -30.0770  -15.6958   21.4755 N   0  0  0  0  0  0  0  0  0  0  0  0
  -30.1368  -30.2558   28.2112 N   0  0  0  0  0  0  0  0  0  0  0  0
  -31.9497  -26.5568   33.3168 N   0  0  0  0  0  0  0  0  0  0  0  0
  -29.9977  -24.4482   35.5102 N   0  3  0  0  0  0  0  0  0  0  0  0
  -27.5911  -18.0318   25.0377 O   0  0  0  0  0  0  0  0  0  0  0  0
  -22.6597  -14.7206   21.3095 O   0  0  0  0  0  0  0  0  0  0  0  0
  -30.9899  -28.1074   27.9295 O   0  0  0  0  0  0  0  0  0  0  0  0
  -31.3512  -29.0024   31.9495 O   0  0  0  0  0  0  0  0  0  0  0  0
  -31.2423  -24.3731   32.9879 O   0  0  0  0  0  0  0  0  0  0  0  0
  -31.8560  -14.9373   20.1943 O   0  0  0  0  0  0  0  0  0  0  0  0
  -21.6112   -7.0182   21.7097 O   0  0  0  0  0  0  0  0  0  0  0  0
  -27.9058  -22.8427   27.2541 O   0  0  0  0  0  0  0  0  0  1  0  0
  -16.4487   -6.8294   19.7817 F   0  0  0  0  0  0  0  0  0  0  0  0
  -20.8364   -5.0589   19.9200 F   0  0  0  0  0  0  0  0  0  0  0  0
  -32.4083  -19.2188   25.0723 F   0  0  0  0  0  0  0  0  0  0  0  0
  -34.7759  -16.6137   22.8371 F   0  0  0  0  0  0  0  0  0  0  0  0
  -34.6949  -18.7226   23.3373 F   0  0  0  0  0  0  0  0  0  0  0  0
  -34.5099  -17.2280   24.9061 F   0  0  0  0  0  0  0  0  0  0  0  0
  1  2  1  0  0  0  0
  1  5  2  0  0  0  0
  2  6  2  0  0  0  0
  3  8  2  0  0  0  0
  3 17  1  0  0  0  0
  4  9  1  0  0  0  0
  4 17  2  0  0  0  0
  5 19  1  0  0  0  0
  6 21  1  0  0  0  0
  7 10  2  0  0  0  0
  7 20  1  0  0  0  0
  8 26  1  0  0  0  0
  9 26  2  0  0  0  0
 10 27  1  0  0  0  0
 11 12  2  0  0  0  0
 11 28  1  0  0  0  0
 12 29  1  0  0  0  0
 13 22  1  0  0  0  0
 13 27  2  0  0  0  0
 14 23  2  0  0  0  0
 14 25  1  0  0  0  0
 15 24  1  0  0  0  0
 15 25  2  0  0  0  0
 16 29  2  0  0  0  0
 16 30  1  0  0  0  0
 17 32  1  0  0  0  0
 18 32  1  0  0  0  0
 18 33  2  0  0  0  0
 18 35  1  0  0  0  0
 19 21  2  0  0  0  0
 19 40  1  0  0  0  0
 20 22  2  0  0  0  0
 20 41  1  0  0  0  0
 21 51  1  0  0  0  0
 22 42  1  0  0  0  0
 23 31  1  0  0  0  0
 23 64  1  0  0  0  0
 24 31  2  0  0  0  0
 24 68  1  0  0  0  0
 25 73  1  0  0  0  0
 26 83  1  0  0  0  0
 27 84  1  0  0  0  0
 28 30  2  0  0  0  0
 28 83  1  0  0  0  0
 29 85  1  0  0  0  0
 30 86  1  0  0  0  0
 31 87  1  0  0  0  0
 32 66  2  0  0  0  0
 33 67  1  0  0  0  0
 33 71  1  0  0  0  0
 34 43  1  0  0  0  0
 34 68  1  0  0  0  0
 34 77  2  0  0  0  0
 35 72  1  0  0  0  0
 35 78  2  0  0  0  0
 36 52  1  0  0  0  0
 36 74  1  0  0  0  0
 36 79  2  0  0  0  0
 37 62  1  0  0  0  0
 37 69  1  0  0  0  0
 37 80  2  0  0  0  0
 38 63  1  0  0  0  0
 38 75  1  0  0  0  0
 38 81  2  0  0  0  0
 39 70  1  0  0  0  0
 39 73  1  0  0  0  0
 39 82  2  0  0  0  0
 40 44  1  0  0  0  0
 41 52  1  0  0  0  0
 42 69  1  0  0  0  0
 43 54  1  0  0  0  0
 44 46  1  0  0  0  0
 45 47  1  0  0  0  0
 45 48  1  0  0  0  0
 46 51  1  0  0  0  0
 47 53  1  0  0  0  0
 48 70  1  0  0  0  0
 49 53  1  0  0  0  0
 49 70  1  0  0  0  0
 50 54  1  0  0  0  0
 50 68  1  0  0  0  0
 51 74  1  0  0  0  0
 52 69  1  0  0  0  0
 53 67  1  0  0  0  0
 54 55  1  0  0  0  0
 54 61  1  0  0  0  0
 56 63  1  0  0  0  0
 57 65  1  0  0  0  0
 58 65  1  0  0  0  0
 59 65  1  0  0  0  0
 60 76  1  0  0  0  0
 61 84  1  0  0  0  0
 62 65  1  0  0  0  0
 62 75  1  0  0  0  0
 63 76  1  0  0  0  0
 64 88  1  0  0  0  0
 64 89  1  0  0  0  0
 64 90  1  0  0  0  0
 66 67  1  0  0  0  0
M  CHG  1  76   1
M  ISO  4  39 100  61 101  73 100  84 101
M  END
> <Batch ID>
0066

> <Smiles>
CNC(C)C(=O)NC(C(=O)N1Cc2cc([101O:1][101CH2:1]C3(C)CC(=O)N(c4cc([100NH:0][100C:0](=O)N5CCCC(n6nc(-c7ccc(Oc8ccc(F)cc8F)cc7)c(C(N)=O)c6N)C5)cc(C(F)(F)F)c4F)C3)ccc2CC1C(=O)NC1CCCc2ccccc21)C(C)(C)C

> <Shape>
0.159

> <Color>
0.191

> <Negative vol penalty>
0.000

$$$$

  -OEChem-04042323213D

 87 96  0     1  0  0  0  0  0999 V2000
  -26.1517  -37.2649   21.1407 C   0  0  0  0  0  0  0  0  0  0  0  0
  -26.8393  -36.0799   20.8991 C   0  0  0  0  0  0  0  0  0  0  0  0
  -24.7373   -9.4304   21.8499 C   0  0  0  0  0  0  0  0  0  0  0  0
  -23.3327  -11.3173   22.4011 C   0  0  0  0  0  0  0  0  0  0  0  0
  -25.0623  -37.2725   22.0108 C   0  0  0  0  0  0  0  0  0  0  0  0
  -26.4385  -34.9019   21.5285 C   0  0  0  0  0  0  0  0  0  0  0  0
  -26.6493  -29.2358   19.2140 C   0  0  0  0  0  0  0  0  0  0  0  0
  -26.2525  -20.0828   16.6087 C   0  0  0  0  0  0  0  0  0  0  0  0
  -26.5876  -18.8375   17.1401 C   0  0  0  0  0  0  0  0  0  0  0  0
  -24.0324   -8.6404   22.7579 C   0  0  0  0  0  0  0  0  0  0  0  0
  -22.6277  -10.5272   23.3091 C   0  0  0  0  0  0  0  0  0  0  0  0
  -27.5626  -28.1936   19.3668 C   0  0  0  0  0  0  0  0  0  0  0  0
  -22.3704   -6.0309   24.6667 C   0  0  0  0  0  0  0  0  0  0  0  0
  -21.9950   -4.7512   24.2579 C   0  0  0  0  0  0  0  0  0  0  0  0
  -26.1761  -27.2401   21.0953 C   0  0  0  0  0  0  0  0  0  0  0  0
  -28.2971  -19.8758   18.4954 C   0  0  0  0  0  0  0  0  0  0  0  0
  -20.7088   -5.7063   22.4494 C   0  0  0  0  0  0  0  0  0  0  0  0
  -24.3875  -10.7689   21.6715 C   0  0  0  0  0  0  0  0  0  0  0  0
  -24.8302  -11.7724   19.3683 C   0  0  0  0  0  0  0  0  0  0  0  0
  -24.6420  -36.0921   22.6437 C   0  0  0  0  0  0  0  0  0  0  0  0
  -25.4961  -29.2940   20.0096 C   0  0  0  0  0  0  0  0  0  0  0  0
  -25.3433  -34.8940   22.4090 C   0  0  0  0  0  0  0  0  0  0  0  0
  -25.2485  -28.2828   20.9488 C   0  0  0  0  0  0  0  0  0  0  0  0
  -26.9397  -21.2247   17.0205 C   0  0  0  0  0  0  0  0  0  0  0  0
  -27.9620  -21.1212   17.9639 C   0  0  0  0  0  0  0  0  0  0  0  0
  -27.6098  -18.7340   18.0835 C   0  0  0  0  0  0  0  0  0  0  0  0
  -22.9776   -9.1887   23.4875 C   0  0  0  0  0  0  0  0  0  0  0  0
  -27.3276  -27.1971   20.3096 C   0  0  0  0  0  0  0  0  0  0  0  0
  -21.9150   -7.1483   23.9668 C   0  0  0  0  0  0  0  0  0  0  0  0
  -21.1642   -4.5889   23.1493 C   0  0  0  0  0  0  0  0  0  0  0  0
  -21.0842   -6.9860   22.8582 C   0  0  0  0  0  0  0  0  0  0  0  0
  -25.1157  -11.5857   20.7342 C   0  0  0  0  0  0  0  0  0  0  0  0
  -25.8080  -12.6302   18.9273 C   0  0  0  0  0  0  0  0  0  0  0  0
  -28.1336  -23.4143   19.0309 C   0  0  0  0  0  0  0  0  0  0  0  0
  -23.7754  -11.2199   18.5697 C   0  0  0  0  0  0  0  0  0  0  0  0
  -24.3488  -31.3448   22.1501 C   0  0  0  0  0  0  0  0  0  0  0  0
  -21.7599  -29.3926   22.0563 C   0  0  0  0  0  0  0  0  0  0  0  0
  -20.4897  -26.2947   21.3956 C   0  0  0  0  0  0  0  0  0  0  0  0
  -28.9377  -17.1908   19.5673 C   0  0  0  0  0  0  0  0  0  0  0  0
  -23.4882  -36.1591   23.6127 C   0  0  0  0  0  0  0  0  0  0  0  0
  -24.5074  -30.4105   19.8139 C   0  0  0  0  0  0  0  0  0  0  0  0
  -24.0153  -28.2883   21.8136 C   0  0  0  0  0  0  0  0  0  0  0  0
  -22.8957  -34.7932   23.9496 C   0  0  0  0  0  0  0  0  0  0  0  0
  -30.0564  -14.2176   21.1753 C   0  0  0  0  0  0  0  0  0  0  0  0
  -24.0040  -33.7933   24.2638 C   0  0  0  0  0  0  0  0  0  0  0  0
  -28.8472  -13.2832   21.0915 C   0  0  0  0  0  0  0  0  0  0  0  0
  -29.6369  -15.6688   21.4029 C   0  0  0  0  0  0  0  0  0  0  0  0
  -30.1195  -22.3821   18.2789 C   0  0  0  0  0  0  0  0  0  0  0  0
  -27.4434  -15.2537   20.3612 C   0  0  0  0  0  0  0  0  0  0  0  0
  -24.9236  -33.5907   23.0535 C   0  0  1  0  0  0  0  0  0  0  0  0
  -29.3013  -24.3115   19.4148 C   0  0  1  0  0  0  0  0  0  0  0  0
  -23.6235  -30.6467   21.0347 C   0  0  1  0  0  0  0  0  0  0  0  0
  -30.4026  -23.8683   18.4506 C   0  0  1  0  0  0  0  0  0  0  0  0
  -27.8129  -13.7904   20.0676 C   0  0  2  0  0  0  0  0  0  0  0  0
  -26.5594  -22.5455   16.4342 C   0  0  0  0  0  0  0  0  0  0  0  0
  -32.8540  -23.6279   18.0263 C   0  0  0  0  0  0  0  0  0  0  0  0
  -18.3454  -24.9922   21.4496 C   0  0  0  0  0  0  0  0  0  0  0  0
  -21.9767  -29.1662   25.0914 C   0  0  0  0  0  0  0  0  0  0  0  0
  -20.4714  -27.1688   24.9802 C   0  0  0  0  0  0  0  0  0  0  0  0
  -19.6415  -29.3973   24.2267 C   0  0  0  0  0  0  0  0  0  0  0  0
  -20.5827  -25.7979   18.4795 C   0  0  0  0  0  0  0  0  0  0  0  0
  -28.9602  -25.7880   19.3070 C   0  0  0  0  0  0  0  0  0  1  0  0
  -31.8078  -24.1395   18.9649 C   0  0  0  0  0  0  0  0  0  0  0  0
  -21.3252  -28.1566   22.8062 C   0  0  1  0  0  0  0  0  0  0  0  0
  -19.2715  -25.8532   20.6047 C   0  0  2  0  0  0  0  0  0  0  0  0
  -20.8780  -28.4729   24.2613 C   0  0  0  0  0  0  0  0  0  0  0  0
  -26.1908  -12.2698   21.1344 N   0  0  0  0  0  0  0  0  0  0  0  0
  -26.5895  -12.8946   20.0134 N   0  0  0  0  0  0  0  0  0  0  0  0
  -28.6769  -22.2779   18.3979 N   0  0  0  0  0  0  0  0  0  0  0  0
  -23.0818  -29.4044   21.5892 N   0  0  0  0  0  0  0  0  0  0  0  0
  -28.6595  -16.0812   20.3933 N   0  0  0  0  0  0  0  0  0  0  0  0
  -26.0670  -13.1765   17.7203 N   0  0  0  0  0  0  0  0  0  0  0  0
  -22.8565  -10.3562   19.1814 N   0  0  0  0  0  0  0  0  0  0  0  0
  -27.9499  -17.4687   18.6230 N   0  0  0  0  0  0  0  0  0  0  0  0
  -24.2945  -32.7238   22.0803 N   0  0  0  0  0  0  0  0  0  0  0  0
  -20.2955  -27.5242   21.9887 N   0  0  0  0  0  0  0  0  0  0  0  0
  -19.6871  -25.0643   19.4106 N   0  3  0  0  0  0  0  0  0  0  0  0
  -26.9719  -23.6715   19.3121 O   0  0  0  0  0  0  0  0  0  0  0  0
  -23.6610  -11.4713   17.3461 O   0  0  0  0  0  0  0  0  0  0  0  0
  -24.9145  -30.6813   23.0113 O   0  0  0  0  0  0  0  0  0  0  0  0
  -20.9540  -30.3106   21.8849 O   0  0  0  0  0  0  0  0  0  0  0  0
  -21.5101  -25.6150   21.4818 O   0  0  0  0  0  0  0  0  0  0  0  0
  -29.9881  -17.8295   19.6706 O   0  0  0  0  0  0  0  0  0  0  0  0
  -22.2893   -8.4180   24.3734 O   0  0  0  0  0  0  0  0  0  0  0  0
  -28.2177  -26.1790   20.4612 O   0  0  0  0  0  0  0  0  0  1  0  0
  -20.8049   -3.3599   22.7560 F   0  0  0  0  0  0  0  0  0  0  0  0
  -20.6445   -8.0556   22.1812 F   0  0  0  0  0  0  0  0  0  0  0  0
  1  2  1  0  0  0  0
  1  5  2  0  0  0  0
  2  6  2  0  0  0  0
  3 10  2  0  0  0  0
  3 18  1  0  0  0  0
  4 11  1  0  0  0  0
  4 18  2  0  0  0  0
  5 20  1  0  0  0  0
  6 22  1  0  0  0  0
  7 12  2  0  0  0  0
  7 21  1  0  0  0  0
  8  9  2  0  0  0  0
  8 24  1  0  0  0  0
  9 26  1  0  0  0  0
 10 27  1  0  0  0  0
 11 27  2  0  0  0  0
 12 28  1  0  0  0  0
 13 14  2  0  0  0  0
 13 29  1  0  0  0  0
 14 30  1  0  0  0  0
 15 23  1  0  0  0  0
 15 28  2  0  0  0  0
 16 25  1  0  0  0  0
 16 26  2  0  0  0  0
 17 30  2  0  0  0  0
 17 31  1  0  0  0  0
 18 32  1  0  0  0  0
 19 32  1  0  0  0  0
 19 33  2  0  0  0  0
 19 35  1  0  0  0  0
 20 22  2  0  0  0  0
 20 40  1  0  0  0  0
 21 23  2  0  0  0  0
 21 41  1  0  0  0  0
 22 50  1  0  0  0  0
 23 42  1  0  0  0  0
 24 25  2  0  0  0  0
 24 55  1  0  0  0  0
 25 69  1  0  0  0  0
 26 74  1  0  0  0  0
 27 84  1  0  0  0  0
 28 85  1  0  0  0  0
 29 31  2  0  0  0  0
 29 84  1  0  0  0  0
 30 86  1  0  0  0  0
 31 87  1  0  0  0  0
 32 67  2  0  0  0  0
 33 68  1  0  0  0  0
 33 72  1  0  0  0  0
 34 51  1  0  0  0  0
 34 69  1  0  0  0  0
 34 78  2  0  0  0  0
 35 73  1  0  0  0  0
 35 79  2  0  0  0  0
 36 52  1  0  0  0  0
 36 75  1  0  0  0  0
 36 80  2  0  0  0  0
 37 64  1  0  0  0  0
 37 70  1  0  0  0  0
 37 81  2  0  0  0  0
 38 65  1  0  0  0  0
 38 76  1  0  0  0  0
 38 82  2  0  0  0  0
 39 71  1  0  0  0  0
 39 74  1  0  0  0  0
 39 83  2  0  0  0  0
 40 43  1  0  0  0  0
 41 52  1  0  0  0  0
 42 70  1  0  0  0  0
 43 45  1  0  0  0  0
 44 46  1  0  0  0  0
 44 47  1  0  0  0  0
 45 50  1  0  0  0  0
 46 54  1  0  0  0  0
 47 71  1  0  0  0  0
 48 53  1  0  0  0  0
 48 69  1  0  0  0  0
 49 54  1  0  0  0  0
 49 71  1  0  0  0  0
 50 75  1  0  0  0  0
 51 53  1  0  0  0  0
 51 62  1  0  0  0  0
 52 70  1  0  0  0  0
 53 63  1  0  0  0  0
 54 68  1  0  0  0  0
 56 63  1  0  0  0  0
 57 65  1  0  0  0  0
 58 66  1  0  0  0  0
 59 66  1  0  0  0  0
 60 66  1  0  0  0  0
 61 77  1  0  0  0  0
 62 85  1  0  0  0  0
 64 66  1  0  0  0  0
 64 76  1  0  0  0  0
 65 77  1  0  0  0  0
 67 68  1  0  0  0  0
M  CHG  1  77   1
M  ISO  4  39 100  62 101  74 100  85 101
M  END
> <Batch ID>
0066

> <Smiles>
CCC1CN(c2cc([100NH:0][100C:0](=O)N3CCCC(n4nc(-c5ccc(Oc6ccc(F)cc6F)cc5)c(C(N)=O)c4N)C3)ccc2C)C(=O)C1[101CH2:1][101O:1]c1ccc2c(c1)CN(C(=O)C(NC(=O)C(C)NC)C(C)(C)C)C(C(=O)NC1CCCc3ccccc31)C2

> <Shape>
0.336

> <Color>
0.084

> <Negative vol penalty>
0.000

$$$$

  -OEChem-04042323213D

 91100  0     1  0  0  0  0  0999 V2000
  -21.6739  -25.4248   17.4299 C   0  0  0  0  0  0  0  0  0  0  0  0
  -22.9570  -25.2942   17.9514 C   0  0  0  0  0  0  0  0  0  0  0  0
  -23.0632   -9.8388   19.9085 C   0  0  0  0  0  0  0  0  0  0  0  0
  -23.8314   -9.8009   22.1988 C   0  0  0  0  0  0  0  0  0  0  0  0
  -21.3115  -24.7137   16.2868 C   0  0  0  0  0  0  0  0  0  0  0  0
  -23.8782  -24.4514   17.3306 C   0  0  0  0  0  0  0  0  0  0  0  0
  -28.4535  -26.5738   16.8748 C   0  0  0  0  0  0  0  0  0  0  0  0
  -31.2768  -19.0615   20.7136 C   0  0  0  0  0  0  0  0  0  0  0  0
  -31.1015  -17.6779   20.6955 C   0  0  0  0  0  0  0  0  0  0  0  0
  -22.3268   -8.6763   20.1362 C   0  0  0  0  0  0  0  0  0  0  0  0
  -23.0949   -8.6384   22.4266 C   0  0  0  0  0  0  0  0  0  0  0  0
  -29.2581  -26.6030   18.0130 C   0  0  0  0  0  0  0  0  0  0  0  0
  -22.9189   -5.3557   20.3538 C   0  0  0  0  0  0  0  0  0  0  0  0
  -22.9881   -4.3469   19.3930 C   0  0  0  0  0  0  0  0  0  0  0  0
  -29.6552  -19.2436   22.4953 C   0  0  0  0  0  0  0  0  0  0  0  0
  -30.4735  -24.6863   17.1955 C   0  0  0  0  0  0  0  0  0  0  0  0
  -20.6014   -4.5066   19.0534 C   0  0  0  0  0  0  0  0  0  0  0  0
  -23.8156  -10.4011   20.9397 C   0  0  0  0  0  0  0  0  0  0  0  0
  -29.4799  -17.8599   22.4772 C   0  0  0  0  0  0  0  0  0  0  0  0
  -24.1427  -12.9302   20.8728 C   0  0  0  0  0  0  0  0  0  0  0  0
  -22.2318  -23.8691   15.6460 C   0  0  0  0  0  0  0  0  0  0  0  0
  -28.6461  -25.5923   15.8919 C   0  0  0  0  0  0  0  0  0  0  0  0
  -23.5274  -23.7272   16.1786 C   0  0  0  0  0  0  0  0  0  0  0  0
  -29.6717  -24.6484   16.0445 C   0  0  0  0  0  0  0  0  0  0  0  0
  -30.5536  -19.8444   21.6136 C   0  0  0  0  0  0  0  0  0  0  0  0
  -30.2031  -17.0770   21.5773 C   0  0  0  0  0  0  0  0  0  0  0  0
  -22.3426   -8.0761   21.3953 C   0  0  0  0  0  0  0  0  0  0  0  0
  -30.2664  -25.6574   18.1749 C   0  0  0  0  0  0  0  0  0  0  0  0
  -21.6909   -5.9399   20.6644 C   0  0  0  0  0  0  0  0  0  0  0  0
  -21.8294   -3.9223   18.7428 C   0  0  0  0  0  0  0  0  0  0  0  0
  -20.5322   -5.5154   20.0142 C   0  0  0  0  0  0  0  0  0  0  0  0
  -24.5770  -11.6016   20.7049 C   0  0  0  0  0  0  0  0  0  0  0  0
  -25.2293  -13.6935   20.5219 C   0  0  0  0  0  0  0  0  0  0  0  0
  -29.7018  -22.1269   21.9978 C   0  0  0  0  0  0  0  0  0  0  0  0
  -29.7713  -23.4707   22.0480 C   0  0  0  0  0  0  0  0  0  0  0  0
  -31.9828  -21.8295   21.3093 C   0  0  0  0  0  0  0  0  0  0  0  0
  -32.0912  -23.3294   21.2713 C   0  0  0  0  0  0  0  0  0  0  0  0
  -28.5315  -17.2634   23.4097 C   0  0  0  0  0  0  0  0  0  0  0  0
  -22.8709  -13.4296   21.3072 C   0  0  0  0  0  0  0  0  0  0  0  0
  -26.8754  -23.2406   14.6929 C   0  0  0  0  0  0  0  0  0  0  0  0
  -29.3665  -22.9378   12.6374 C   0  0  0  0  0  0  0  0  0  0  0  0
  -32.6824  -23.4445   12.0092 C   0  0  0  0  0  0  0  0  0  0  0  0
  -30.6901  -14.7664   20.6997 C   0  0  0  0  0  0  0  0  0  0  0  0
  -21.7794  -23.0844   14.4401 C   0  0  0  0  0  0  0  0  0  0  0  0
  -27.7870  -25.5908   14.6572 C   0  0  0  0  0  0  0  0  0  0  0  0
  -29.9327  -23.5865   15.0089 C   0  0  0  0  0  0  0  0  0  0  0  0
  -22.9313  -22.5005   13.6262 C   0  0  0  0  0  0  0  0  0  0  0  0
  -29.5807  -12.3976   18.2840 C   0  0  0  0  0  0  0  0  0  0  0  0
  -23.9479  -21.8300   14.5447 C   0  0  0  0  0  0  0  0  0  0  0  0
  -28.1443  -12.0886   18.7123 C   0  0  0  0  0  0  0  0  0  0  0  0
  -30.4988  -12.6058   19.4871 C   0  0  0  0  0  0  0  0  0  0  0  0
  -28.5929  -13.2895   20.8903 C   0  0  0  0  0  0  0  0  0  0  0  0
  -24.5626  -22.8419   15.5192 C   0  0  1  0  0  0  0  0  0  0  0  0
  -27.7382  -24.2323   13.9650 C   0  0  1  0  0  0  0  0  0  0  0  0
  -27.6168  -13.1360   19.7125 C   0  0  2  0  0  0  0  0  0  0  0  0
  -28.3232  -17.9591   24.7217 C   0  0  0  0  0  0  0  0  0  0  0  0
  -34.4373  -23.0566   10.2579 C   0  0  0  0  0  0  0  0  0  0  0  0
  -29.4881  -19.9900   13.4157 C   0  0  0  0  0  0  0  0  0  0  0  0
  -31.7771  -19.8898   12.4064 C   0  0  0  0  0  0  0  0  0  0  0  0
  -29.8083  -20.4389   10.9764 C   0  0  0  0  0  0  0  0  0  0  0  0
  -33.1925  -26.3446   11.7122 C   0  0  0  0  0  0  0  0  0  0  0  0
  -31.1410  -25.5446   21.6839 C   0  0  0  0  0  0  0  0  0  0  0  0
  -30.4665  -26.1867   20.4848 C   0  0  0  0  0  0  0  0  0  1  0  0
  -30.6566  -22.1538   12.6292 C   0  0  1  0  0  0  0  0  0  0  0  0
  -33.4022  -24.0265   10.8060 C   0  0  2  0  0  0  0  0  0  0  0  0
  -30.4266  -20.6368   12.3775 C   0  0  0  0  0  0  0  0  0  0  0  0
  -25.8408  -11.5220   20.2802 N   0  0  0  0  0  0  0  0  0  0  0  0
  -26.2100  -12.8102   20.1782 N   0  0  0  0  0  0  0  0  0  0  0  0
  -30.7358  -21.2831   21.6314 N   0  0  0  0  0  0  0  0  0  0  0  0
  -30.9854  -24.0799   21.6804 N   0  0  0  0  0  0  0  0  0  0  0  0
  -29.0619  -23.6227   13.8222 N   0  0  0  0  0  0  0  0  0  0  0  0
  -29.9373  -13.6144   20.3884 N   0  0  0  0  0  0  0  0  0  0  0  0
  -25.4319  -15.0274   20.4767 N   0  0  0  0  0  0  0  0  0  0  0  0
  -21.8653  -12.5076   21.6284 N   0  0  0  0  0  0  0  0  0  0  0  0
  -30.0405  -15.6699   21.5400 N   0  0  0  0  0  0  0  0  0  0  0  0
  -25.5633  -23.6448   14.8496 N   0  0  0  0  0  0  0  0  0  0  0  0
  -31.5198  -22.7985   11.6455 N   0  0  0  0  0  0  0  0  0  0  0  0
  -34.0952  -25.2920   11.1792 N   0  3  0  0  0  0  0  0  0  0  0  0
  -28.8502  -24.2717   22.3754 O   0  5  0  0  0  0  0  0  0  0  0  0
  -33.0319  -21.2314   21.0888 O   0  0  0  0  0  0  0  0  0  0  0  0
  -33.1687  -23.7760   20.8867 O   0  0  0  0  0  0  0  0  0  0  0  0
  -27.8950  -16.2307   23.2008 O   0  0  0  0  0  0  0  0  0  0  0  0
  -22.6279  -14.6573   21.3918 O   0  0  0  0  0  0  0  0  0  0  0  0
  -27.3636  -22.1862   15.0822 O   0  0  0  0  0  0  0  0  0  0  0  0
  -28.6587  -22.9480   11.6271 O   0  0  0  0  0  0  0  0  0  0  0  0
  -33.1107  -23.5491   13.1564 O   0  0  0  0  0  0  0  0  0  0  0  0
  -31.8165  -14.9516   20.2318 O   0  0  0  0  0  0  0  0  0  0  0  0
  -21.6239   -6.9419   21.6179 O   0  0  0  0  0  0  0  0  0  0  0  0
  -31.0528  -25.6832   19.2852 O   0  0  0  0  0  0  0  0  0  1  0  0
  -21.8963   -2.9546   17.8191 F   0  0  0  0  0  0  0  0  0  0  0  0
  -19.3498   -6.0737   20.3075 F   0  0  0  0  0  0  0  0  0  0  0  0
  1  2  1  0  0  0  0
  1  5  2  0  0  0  0
  2  6  2  0  0  0  0
  3 10  2  0  0  0  0
  3 18  1  0  0  0  0
  4 11  1  0  0  0  0
  4 18  2  0  0  0  0
  5 21  1  0  0  0  0
  6 23  1  0  0  0  0
  7 12  2  0  0  0  0
  7 22  1  0  0  0  0
  8  9  2  0  0  0  0
  8 25  1  0  0  0  0
  9 26  1  0  0  0  0
 10 27  1  0  0  0  0
 11 27  2  0  0  0  0
 12 28  1  0  0  0  0
 13 14  2  0  0  0  0
 13 29  1  0  0  0  0
 14 30  1  0  0  0  0
 15 19  1  0  0  0  0
 15 25  2  0  0  0  0
 16 24  1  0  0  0  0
 16 28  2  0  0  0  0
 17 30  2  0  0  0  0
 17 31  1  0  0  0  0
 18 32  1  0  0  0  0
 19 26  2  0  0  0  0
 19 38  1  0  0  0  0
 20 32  1  0  0  0  0
 20 33  2  0  0  0  0
 20 39  1  0  0  0  0
 21 23  2  0  0  0  0
 21 44  1  0  0  0  0
 22 24  2  0  0  0  0
 22 45  1  0  0  0  0
 23 53  1  0  0  0  0
 24 46  1  0  0  0  0
 25 69  1  0  0  0  0
 26 75  1  0  0  0  0
 27 88  1  0  0  0  0
 28 89  1  0  0  0  0
 29 31  2  0  0  0  0
 29 88  1  0  0  0  0
 30 90  1  0  0  0  0
 31 91  1  0  0  0  0
 32 67  2  0  0  0  0
 33 68  1  0  0  0  0
 33 73  1  0  0  0  0
 34 35  2  0  0  0  0
 34 69  1  0  0  0  0
 35 70  1  0  0  0  0
 35 79  1  0  0  0  0
 36 37  1  0  0  0  0
 36 69  1  0  0  0  0
 36 80  2  0  0  0  0
 37 70  1  0  0  0  0
 37 81  2  0  0  0  0
 38 56  1  0  0  0  0
 38 82  2  0  0  0  0
 39 74  1  0  0  0  0
 39 83  2  0  0  0  0
 40 54  1  0  0  0  0
 40 76  1  0  0  0  0
 40 84  2  0  0  0  0
 41 64  1  0  0  0  0
 41 71  1  0  0  0  0
 41 85  2  0  0  0  0
 42 65  1  0  0  0  0
 42 77  1  0  0  0  0
 42 86  2  0  0  0  0
 43 72  1  0  0  0  0
 43 75  1  0  0  0  0
 43 87  2  0  0  0  0
 44 47  1  0  0  0  0
 45 54  1  0  0  0  0
 46 71  1  0  0  0  0
 47 49  1  0  0  0  0
 48 50  1  0  0  0  0
 48 51  1  0  0  0  0
 49 53  1  0  0  0  0
 50 55  1  0  0  0  0
 51 72  1  0  0  0  0
 52 55  1  0  0  0  0
 52 72  1  0  0  0  0
 53 76  1  0  0  0  0
 54 71  1  0  0  0  0
 55 68  1  0  0  0  0
 57 65  1  0  0  0  0
 58 66  1  0  0  0  0
 59 66  1  0  0  0  0
 60 66  1  0  0  0  0
 61 78  1  0  0  0  0
 62 63  1  0  0  0  0
 62 70  1  0  0  0  0
 63 89  1  0  0  0  0
 64 66  1  0  0  0  0
 64 77  1  0  0  0  0
 65 78  1  0  0  0  0
 67 68  1  0  0  0  0
M  CHG  2  78   1  79  -1
M  ISO  4  43 100  63 101  75 100  89 101
M  END
> <Batch ID>
0066

> <Smiles>
CNC(C)C(=O)NC(C(=O)N1Cc2cc([101O:1][101CH2:1]CN3C(=O)CN(c4ccc([100NH:0][100C:0](=O)N5CCCC(n6nc(-c7ccc(Oc8ccc(F)cc8F)cc7)c(C(N)=O)c6N)C5)c(C(C)=O)c4)C(=O)C3=O)ccc2CC1C(=O)NC1CCCc2ccccc21)C(C)(C)C

> <Shape>
0.199

> <Color>
0.198

> <Negative vol penalty>
0.000

$$$$

  -OEChem-04042323213D

 87 95  0     1  0  0  0  0  0999 V2000
  -19.5684  -31.2133   26.7976 C   0  0  0  0  0  0  0  0  0  0  0  0
  -20.2805  -30.0293   26.6347 C   0  0  0  0  0  0  0  0  0  0  0  0
  -26.6277  -18.2310   14.7123 C   0  0  0  0  0  0  0  0  0  0  0  0
  -23.0231   -9.9680   19.9928 C   0  0  0  0  0  0  0  0  0  0  0  0
  -23.5828   -9.9874   22.3430 C   0  0  0  0  0  0  0  0  0  0  0  0
  -27.6991  -17.4158   15.0770 C   0  0  0  0  0  0  0  0  0  0  0  0
  -18.8468  -31.7441   25.7292 C   0  0  0  0  0  0  0  0  0  0  0  0
  -20.2704  -29.3748   25.4035 C   0  0  0  0  0  0  0  0  0  0  0  0
  -24.4339  -25.3504   21.1861 C   0  0  0  0  0  0  0  0  0  0  0  0
  -26.1263  -19.1691   15.6147 C   0  0  0  0  0  0  0  0  0  0  0  0
  -22.1947   -8.8649   20.1992 C   0  0  0  0  0  0  0  0  0  0  0  0
  -22.7544   -8.8843   22.5494 C   0  0  0  0  0  0  0  0  0  0  0  0
  -24.4165  -24.1400   20.4944 C   0  0  0  0  0  0  0  0  0  0  0  0
  -21.0682   -5.8519   23.6316 C   0  0  0  0  0  0  0  0  0  0  0  0
  -21.5576   -4.8127   24.4228 C   0  0  0  0  0  0  0  0  0  0  0  0
  -23.1989  -25.1917   18.6970 C   0  0  0  0  0  0  0  0  0  0  0  0
  -23.3880   -4.4982   22.8775 C   0  0  0  0  0  0  0  0  0  0  0  0
  -23.7172  -10.5293   21.0647 C   0  0  0  0  0  0  0  0  0  0  0  0
  -28.2691  -17.5386   16.3442 C   0  0  0  0  0  0  0  0  0  0  0  0
  -24.2143  -13.0276   20.9266 C   0  0  0  0  0  0  0  0  0  0  0  0
  -18.8357  -31.1008   24.4815 C   0  0  0  0  0  0  0  0  0  0  0  0
  -23.8235  -26.4898   20.6424 C   0  0  0  0  0  0  0  0  0  0  0  0
  -19.5469  -29.8967   24.3178 C   0  0  0  0  0  0  0  0  0  0  0  0
  -23.2122  -26.4159   19.3826 C   0  0  0  0  0  0  0  0  0  0  0  0
  -27.7677  -18.4766   17.2466 C   0  0  0  0  0  0  0  0  0  0  0  0
  -26.6962  -19.2919   16.8818 C   0  0  0  0  0  0  0  0  0  0  0  0
  -22.0604   -8.3231   21.4775 C   0  0  0  0  0  0  0  0  0  0  0  0
  -23.7964  -24.0598   19.2510 C   0  0  0  0  0  0  0  0  0  0  0  0
  -21.7387   -6.2143   22.4633 C   0  0  0  0  0  0  0  0  0  0  0  0
  -22.7175   -4.1358   24.0458 C   0  0  0  0  0  0  0  0  0  0  0  0
  -22.8986   -5.5375   22.0863 C   0  0  0  0  0  0  0  0  0  0  0  0
  -24.5734  -11.6684   20.8520 C   0  0  0  0  0  0  0  0  0  0  0  0
  -25.3752  -13.7054   20.6453 C   0  0  0  0  0  0  0  0  0  0  0  0
  -29.4096  -16.6566   16.7022 C   0  0  0  0  0  0  0  0  0  0  0  0
  -22.9447  -13.6240   21.2236 C   0  0  0  0  0  0  0  0  0  0  0  0
  -21.4266  -28.3846   21.5190 C   0  0  0  0  0  0  0  0  0  0  0  0
  -22.3765  -30.1231   18.9504 C   0  0  0  0  0  0  0  0  0  0  0  0
  -25.1152  -21.1279   17.5624 C   0  0  0  0  0  0  0  0  0  0  0  0
  -23.9656  -30.1998   15.9312 C   0  0  0  0  0  0  0  0  0  0  0  0
  -29.9848  -14.4497   17.6627 C   0  0  0  0  0  0  0  0  0  0  0  0
  -18.0027  -31.6876   23.3696 C   0  0  0  0  0  0  0  0  0  0  0  0
  -23.8742  -27.7945   21.3892 C   0  0  0  0  0  0  0  0  0  0  0  0
  -22.5602  -27.6151   18.7461 C   0  0  0  0  0  0  0  0  0  0  0  0
  -18.3479  -31.1307   21.9909 C   0  0  0  0  0  0  0  0  0  0  0  0
  -30.1468  -12.0519   20.2552 C   0  0  0  0  0  0  0  0  0  0  0  0
  -18.4590  -29.6102   22.0418 C   0  0  0  0  0  0  0  0  0  0  0  0
  -28.6824  -11.8537   20.6558 C   0  0  0  0  0  0  0  0  0  0  0  0
  -30.3017  -12.2431   18.7471 C   0  0  0  0  0  0  0  0  0  0  0  0
  -27.9987  -13.0917   18.5620 C   0  0  0  0  0  0  0  0  0  0  0  0
  -19.5806  -29.1704   22.9906 C   0  0  1  0  0  0  0  0  0  0  0  0
  -22.7735  -28.7649   20.9721 C   0  0  1  0  0  0  0  0  0  0  0  0
  -27.7827  -12.9650   20.0787 C   0  0  1  0  0  0  0  0  0  0  0  0
  -24.5476  -31.7559   14.0504 C   0  0  0  0  0  0  0  0  0  0  0  0
  -19.4956  -29.9923   17.9539 C   0  0  0  0  0  0  0  0  0  0  0  0
  -20.3175  -30.6999   15.6973 C   0  0  0  0  0  0  0  0  0  0  0  0
  -20.6018  -32.2156   17.6581 C   0  0  0  0  0  0  0  0  0  0  0  0
  -26.8686  -29.7946   16.3401 C   0  0  0  0  0  0  0  0  0  0  0  0
  -24.8735  -21.9908   18.7870 C   0  0  0  0  0  0  0  0  0  1  0  0
  -22.0297  -30.1367   17.4812 C   0  0  1  0  0  0  0  0  0  0  0  0
  -25.0084  -31.1469   15.3655 C   0  0  2  0  0  0  0  0  0  0  0  0
  -28.3802  -18.6071   18.6065 C   0  0  0  0  0  0  0  0  0  0  0  0
  -20.6216  -30.7379   17.2102 C   0  0  0  0  0  0  0  0  0  0  0  0
  -25.8618  -11.4915   20.5472 N   0  0  0  0  0  0  0  0  0  0  0  0
  -26.3223  -12.7484   20.4276 N   0  0  0  0  0  0  0  0  0  0  0  0
  -22.6307  -28.8666   19.5183 N   0  0  0  0  0  0  0  0  0  0  0  0
  -29.4244  -13.3186   18.2814 N   0  0  0  0  0  0  0  0  0  0  0  0
  -25.6682  -15.0208   20.5654 N   0  0  0  0  0  0  0  0  0  0  0  0
  -21.8565  -12.7816   21.4889 N   0  0  0  0  0  0  0  0  0  0  0  0
  -26.1719  -20.2506   17.7810 N   0  0  0  0  0  0  0  0  0  0  0  0
  -29.0676  -15.4396   17.2924 N   0  0  0  0  0  0  0  0  0  0  0  0
  -20.8715  -29.3330   22.3568 N   0  0  0  0  0  0  0  0  0  0  0  0
  -23.1185  -30.8395   16.8112 N   0  0  0  0  0  0  0  0  0  0  0  0
  -26.2891  -30.4236   15.1254 N   0  3  0  0  0  0  0  0  0  0  0  0
  -30.5520  -17.0168   16.4319 O   0  0  0  0  0  0  0  0  0  0  0  0
  -22.7764  -14.8670   21.2366 O   0  0  0  0  0  0  0  0  0  0  0  0
  -20.9274  -27.3110   21.2031 O   0  0  0  0  0  0  0  0  0  0  0  0
  -22.4273  -31.1887   19.5697 O   0  0  0  0  0  0  0  0  0  0  0  0
  -24.4320  -21.2431   16.5502 O   0  0  0  0  0  0  0  0  0  0  0  0
  -23.9060  -29.0122   15.6204 O   0  0  0  0  0  0  0  0  0  0  0  0
  -31.2001  -14.5842   17.4893 O   0  0  0  0  0  0  0  0  0  0  0  0
  -21.2520   -7.2468   21.6793 O   0  0  0  0  0  0  0  0  0  0  0  0
  -23.7774  -22.8794   18.5740 O   0  0  0  0  0  0  0  0  0  1  0  0
  -23.1883   -3.1389   24.8065 F   0  0  0  0  0  0  0  0  0  0  0  0
  -23.5477   -5.8819   20.9656 F   0  0  0  0  0  0  0  0  0  0  0  0
  -29.4160  -17.7459   18.8191 F   0  0  0  0  0  0  0  0  0  0  0  0
  -28.8861  -19.8487   18.8551 F   0  0  0  0  0  0  0  0  0  0  0  0
  -27.4849  -18.3643   19.6048 F   0  0  0  0  0  0  0  0  0  0  0  0
  1  2  1  0  0  0  0
  1  7  2  0  0  0  0
  2  8  2  0  0  0  0
  3  6  1  0  0  0  0
  3 10  2  0  0  0  0
  4 11  2  0  0  0  0
  4 18  1  0  0  0  0
  5 12  1  0  0  0  0
  5 18  2  0  0  0  0
  6 19  2  0  0  0  0
  7 21  1  0  0  0  0
  8 23  1  0  0  0  0
  9 13  2  0  0  0  0
  9 22  1  0  0  0  0
 10 26  1  0  0  0  0
 11 27  1  0  0  0  0
 12 27  2  0  0  0  0
 13 28  1  0  0  0  0
 14 15  2  0  0  0  0
 14 29  1  0  0  0  0
 15 30  1  0  0  0  0
 16 24  1  0  0  0  0
 16 28  2  0  0  0  0
 17 30  2  0  0  0  0
 17 31  1  0  0  0  0
 18 32  1  0  0  0  0
 19 25  1  0  0  0  0
 19 34  1  0  0  0  0
 20 32  1  0  0  0  0
 20 33  2  0  0  0  0
 20 35  1  0  0  0  0
 21 23  2  0  0  0  0
 21 41  1  0  0  0  0
 22 24  2  0  0  0  0
 22 42  1  0  0  0  0
 23 50  1  0  0  0  0
 24 43  1  0  0  0  0
 25 26  2  0  0  0  0
 25 61  1  0  0  0  0
 26 69  1  0  0  0  0
 27 81  1  0  0  0  0
 28 82  1  0  0  0  0
 29 31  2  0  0  0  0
 29 81  1  0  0  0  0
 30 83  1  0  0  0  0
 31 84  1  0  0  0  0
 32 63  2  0  0  0  0
 33 64  1  0  0  0  0
 33 67  1  0  0  0  0
 34 70  1  0  0  0  0
 34 74  2  0  0  0  0
 35 68  1  0  0  0  0
 35 75  2  0  0  0  0
 36 51  1  0  0  0  0
 36 71  1  0  0  0  0
 36 76  2  0  0  0  0
 37 59  1  0  0  0  0
 37 65  1  0  0  0  0
 37 77  2  0  0  0  0
 38 58  1  0  0  0  0
 38 69  1  0  0  0  0
 38 78  2  0  0  0  0
 39 60  1  0  0  0  0
 39 72  1  0  0  0  0
 39 79  2  0  0  0  0
 40 66  1  0  0  0  0
 40 70  1  0  0  0  0
 40 80  2  0  0  0  0
 41 44  1  0  0  0  0
 42 51  1  0  0  0  0
 43 65  1  0  0  0  0
 44 46  1  0  0  0  0
 45 47  1  0  0  0  0
 45 48  1  0  0  0  0
 46 50  1  0  0  0  0
 47 52  1  0  0  0  0
 48 66  1  0  0  0  0
 49 52  1  0  0  0  0
 49 66  1  0  0  0  0
 50 71  1  0  0  0  0
 51 65  1  0  0  0  0
 52 64  1  0  0  0  0
 53 60  1  0  0  0  0
 54 62  1  0  0  0  0
 55 62  1  0  0  0  0
 56 62  1  0  0  0  0
 57 73  1  0  0  0  0
 58 82  1  0  0  0  0
 59 62  1  0  0  0  0
 59 72  1  0  0  0  0
 60 73  1  0  0  0  0
 61 85  1  0  0  0  0
 61 86  1  0  0  0  0
 61 87  1  0  0  0  0
 63 64  1  0  0  0  0
M  CHG  1  73   1
M  ISO  4  40 100  58 101  70 100  82 101
M  END
> <Batch ID>
0066

> <Smiles>
CNC(C)C(=O)NC(C(=O)N1Cc2cc([101O:1][101CH2:1]C(=O)Nc3cccc(C(=O)[100NH:0][100C:0](=O)N4CCCC(n5nc(-c6ccc(Oc7ccc(F)cc7F)cc6)c(C(N)=O)c5N)C4)c3C(F)(F)F)ccc2CC1C(=O)NC1CCCc2ccccc21)C(C)(C)C

> <Shape>
0.234

> <Color>
0.189

> <Negative vol penalty>
0.000

$$$$

  -OEChem-04042323213D

 87 96  0     1  0  0  0  0  0999 V2000
  -26.0230  -34.8163   24.7388 C   0  0  0  0  0  0  0  0  0  0  0  0
  -26.5768  -33.6279   24.2734 C   0  0  0  0  0  0  0  0  0  0  0  0
  -26.4118  -11.3952   21.2969 C   0  0  0  0  0  0  0  0  0  0  0  0
  -25.1765  -12.7181   19.6965 C   0  0  0  0  0  0  0  0  0  0  0  0
  -24.6939  -34.8472   25.1587 C   0  0  0  0  0  0  0  0  0  0  0  0
  -25.8020  -32.4694   24.2288 C   0  0  0  0  0  0  0  0  0  0  0  0
  -26.3620  -29.9240   19.8869 C   0  0  0  0  0  0  0  0  0  0  0  0
  -25.2249  -10.7943   21.7163 C   0  0  0  0  0  0  0  0  0  0  0  0
  -23.9897  -12.1171   20.1158 C   0  0  0  0  0  0  0  0  0  0  0  0
  -27.5134  -29.1506   19.7461 C   0  0  0  0  0  0  0  0  0  0  0  0
  -23.1471   -8.3581   20.6300 C   0  0  0  0  0  0  0  0  0  0  0  0
  -23.1469   -6.9739   20.8021 C   0  0  0  0  0  0  0  0  0  0  0  0
  -26.2487  -27.1756   20.3111 C   0  0  0  0  0  0  0  0  0  0  0  0
  -27.9283  -22.7748   17.2562 C   0  0  0  0  0  0  0  0  0  0  0  0
  -29.2208  -21.6747   18.9756 C   0  0  0  0  0  0  0  0  0  0  0  0
  -22.5638   -7.2634   23.1288 C   0  0  0  0  0  0  0  0  0  0  0  0
  -26.3876  -12.3571   20.2870 C   0  0  0  0  0  0  0  0  0  0  0  0
  -28.4723  -12.5404   18.8282 C   0  0  0  0  0  0  0  0  0  0  0  0
  -23.8996  -33.6908   25.1101 C   0  0  0  0  0  0  0  0  0  0  0  0
  -25.1456  -29.3295   20.2520 C   0  0  0  0  0  0  0  0  0  0  0  0
  -24.4613  -32.4846   24.6497 C   0  0  0  0  0  0  0  0  0  0  0  0
  -25.0827  -27.9433   20.4533 C   0  0  0  0  0  0  0  0  0  0  0  0
  -27.2534  -21.5813   16.9999 C   0  0  0  0  0  0  0  0  0  0  0  0
  -28.9121  -22.8214   18.2441 C   0  0  0  0  0  0  0  0  0  0  0  0
  -28.5458  -20.4812   18.7194 C   0  0  0  0  0  0  0  0  0  0  0  0
  -24.0139  -11.1552   21.1257 C   0  0  0  0  0  0  0  0  0  0  0  0
  -27.4576  -27.7766   19.9611 C   0  0  0  0  0  0  0  0  0  0  0  0
  -22.8557   -9.1949   21.7073 C   0  0  0  0  0  0  0  0  0  0  0  0
  -22.8552   -6.4265   22.0515 C   0  0  0  0  0  0  0  0  0  0  0  0
  -22.5641   -8.6476   22.9566 C   0  0  0  0  0  0  0  0  0  0  0  0
  -27.5621  -20.4345   17.7315 C   0  0  0  0  0  0  0  0  0  0  0  0
  -27.6132  -12.9786   19.8538 C   0  0  0  0  0  0  0  0  0  0  0  0
  -29.4861  -13.4669   18.8103 C   0  0  0  0  0  0  0  0  0  0  0  0
  -30.5645  -24.2191   19.4250 C   0  0  0  0  0  0  0  0  0  0  0  0
  -31.0260  -25.4746   19.3962 C   0  0  0  0  0  0  0  0  0  0  0  0
  -32.1782  -25.6598   21.5018 C   0  0  0  0  0  0  0  0  0  0  0  0
  -32.0785  -26.0080   20.2010 C   0  0  0  0  0  0  0  0  0  0  0  0
  -28.3636  -11.3981   17.9686 C   0  0  0  0  0  0  0  0  0  0  0  0
  -23.1584  -29.6181   22.7161 C   0  0  0  0  0  0  0  0  0  0  0  0
  -21.3044  -27.6234   20.9537 C   0  0  0  0  0  0  0  0  0  0  0  0
  -21.1147  -25.2394   18.5191 C   0  0  0  0  0  0  0  0  0  0  0  0
  -29.8109  -19.1956   20.4781 C   0  0  0  0  0  0  0  0  0  0  0  0
  -22.4816  -33.7621   25.6191 C   0  0  0  0  0  0  0  0  0  0  0  0
  -23.9067  -30.1738   20.3736 C   0  0  0  0  0  0  0  0  0  0  0  0
  -23.7969  -27.2537   20.8271 C   0  0  0  0  0  0  0  0  0  0  0  0
  -21.6195  -32.5784   25.1880 C   0  0  0  0  0  0  0  0  0  0  0  0
  -31.8262  -16.5132   21.6700 C   0  0  0  0  0  0  0  0  0  0  0  0
  -22.3663  -31.2664   25.4064 C   0  0  0  0  0  0  0  0  0  0  0  0
  -31.0558  -15.2624   21.2409 C   0  0  0  0  0  0  0  0  0  0  0  0
  -30.8864  -17.6414   22.0915 C   0  0  0  0  0  0  0  0  0  0  0  0
  -29.3195  -25.2242   17.7263 C   0  0  0  0  0  0  0  0  0  0  0  0
  -29.0818  -16.7372   20.6790 C   0  0  0  0  0  0  0  0  0  0  0  0
  -23.6457  -31.2128   24.5628 C   0  0  1  0  0  0  0  0  0  0  0  0
  -30.2997  -26.2697   18.3365 C   0  0  1  0  0  0  0  0  0  0  0  0
  -22.8335  -29.5372   21.2513 C   0  0  1  0  0  0  0  0  0  0  0  0
  -29.9845  -15.5954   20.1839 C   0  0  2  0  0  0  0  0  0  0  0  0
  -26.2014  -21.5350   15.9437 C   0  0  0  0  0  0  0  0  0  0  0  0
  -19.4676  -23.7708   17.3242 C   0  0  0  0  0  0  0  0  0  0  0  0
  -21.1594  -25.8019   23.3973 C   0  0  0  0  0  0  0  0  0  0  0  0
  -20.3452  -23.9703   21.8971 C   0  0  0  0  0  0  0  0  0  0  0  0
  -19.0029  -26.0569   22.1568 C   0  0  0  0  0  0  0  0  0  0  0  0
  -21.7508  -26.4601   15.8991 C   0  0  0  0  0  0  0  0  0  0  0  0
  -29.5565  -27.4684   18.8861 C   0  0  0  0  0  0  0  0  0  1  0  0
  -21.1575  -26.1255   20.8358 C   0  0  1  0  0  0  0  0  0  0  0  0
  -20.2033  -25.1017   17.3129 C   0  0  2  0  0  0  0  0  0  0  0  0
  -20.4411  -25.5016   22.0666 C   0  0  0  0  0  0  0  0  0  0  0  0
  -28.0438  -14.0965   20.4446 N   0  0  0  0  0  0  0  0  0  0  0  0
  -29.1845  -14.3684   19.7883 N   0  0  0  0  0  0  0  0  0  0  0  0
  -29.5758  -23.9955   18.4963 N   0  0  0  0  0  0  0  0  0  0  0  0
  -22.6143  -28.1232   20.9401 N   0  0  0  0  0  0  0  0  0  0  0  0
  -29.9018  -17.9044   21.0397 N   0  0  0  0  0  0  0  0  0  0  0  0
  -30.5972  -13.5901   18.0535 N   0  0  0  0  0  0  0  0  0  0  0  0
  -27.2585  -10.5497   18.1214 N   0  0  0  0  0  0  0  0  0  0  0  0
  -28.8615  -19.3177   19.4641 N   0  0  0  0  0  0  0  0  0  0  0  0
  -23.3295  -30.9070   23.1840 N   0  0  0  0  0  0  0  0  0  0  0  0
  -20.4846  -25.8801   19.5649 N   0  0  0  0  0  0  0  0  0  0  0  0
  -20.9944  -25.1908   16.0531 N   0  3  0  0  0  0  0  0  0  0  0  0
  -29.2294  -11.1283   17.1020 O   0  0  0  0  0  0  0  0  0  0  0  0
  -23.2458  -28.5876   23.3734 O   0  0  0  0  0  0  0  0  0  0  0  0
  -20.2939  -28.3246   21.0470 O   0  0  0  0  0  0  0  0  0  0  0  0
  -22.2688  -24.8171   18.5335 O   0  0  0  0  0  0  0  0  0  0  0  0
  -30.5417  -20.1176   20.8494 O   0  0  0  0  0  0  0  0  0  0  0  0
  -22.8556  -10.5689   21.5345 O   0  0  0  0  0  0  0  0  0  0  0  0
  -28.5801  -27.0195   19.8251 O   0  0  0  0  0  0  0  0  0  1  0  0
  -22.8535   -5.0973   22.2163 F   0  0  0  0  0  0  0  0  0  0  0  0
  -22.2822   -9.4464   23.9950 F   0  0  0  0  0  0  0  0  0  0  0  0
  -26.9118  -19.2874   17.4840 F   0  0  0  0  0  0  0  0  0  0  0  0
  1  2  1  0  0  0  0
  1  5  2  0  0  0  0
  2  6  2  0  0  0  0
  3  8  2  0  0  0  0
  3 17  1  0  0  0  0
  4  9  1  0  0  0  0
  4 17  2  0  0  0  0
  5 19  1  0  0  0  0
  6 21  1  0  0  0  0
  7 10  2  0  0  0  0
  7 20  1  0  0  0  0
  8 26  1  0  0  0  0
  9 26  2  0  0  0  0
 10 27  1  0  0  0  0
 11 12  2  0  0  0  0
 11 28  1  0  0  0  0
 12 29  1  0  0  0  0
 13 22  1  0  0  0  0
 13 27  2  0  0  0  0
 14 23  2  0  0  0  0
 14 24  1  0  0  0  0
 15 24  2  0  0  0  0
 15 25  1  0  0  0  0
 16 29  2  0  0  0  0
 16 30  1  0  0  0  0
 17 32  1  0  0  0  0
 18 32  1  0  0  0  0
 18 33  2  0  0  0  0
 18 38  1  0  0  0  0
 19 21  2  0  0  0  0
 19 43  1  0  0  0  0
 20 22  2  0  0  0  0
 20 44  1  0  0  0  0
 21 53  1  0  0  0  0
 22 45  1  0  0  0  0
 23 31  1  0  0  0  0
 23 57  1  0  0  0  0
 24 69  1  0  0  0  0
 25 31  2  0  0  0  0
 25 74  1  0  0  0  0
 26 83  1  0  0  0  0
 27 84  1  0  0  0  0
 28 30  2  0  0  0  0
 28 83  1  0  0  0  0
 29 85  1  0  0  0  0
 30 86  1  0  0  0  0
 31 87  1  0  0  0  0
 32 67  2  0  0  0  0
 33 68  1  0  0  0  0
 33 72  1  0  0  0  0
 34 35  2  0  0  0  0
 34 69  1  0  0  0  0
 35 37  1  0  0  0  0
 35 54  1  0  0  0  0
 36 37  2  0  0  0  0
 38 73  1  0  0  0  0
 38 78  2  0  0  0  0
 39 55  1  0  0  0  0
 39 75  1  0  0  0  0
 39 79  2  0  0  0  0
 40 64  1  0  0  0  0
 40 70  1  0  0  0  0
 40 80  2  0  0  0  0
 41 65  1  0  0  0  0
 41 76  1  0  0  0  0
 41 81  2  0  0  0  0
 42 71  1  0  0  0  0
 42 74  1  0  0  0  0
 42 82  2  0  0  0  0
 43 46  1  0  0  0  0
 44 55  1  0  0  0  0
 45 70  1  0  0  0  0
 46 48  1  0  0  0  0
 47 49  1  0  0  0  0
 47 50  1  0  0  0  0
 48 53  1  0  0  0  0
 49 56  1  0  0  0  0
 50 71  1  0  0  0  0
 51 54  1  0  0  0  0
 51 69  1  0  0  0  0
 52 56  1  0  0  0  0
 52 71  1  0  0  0  0
 53 75  1  0  0  0  0
 54 63  1  0  0  0  0
 55 70  1  0  0  0  0
 56 68  1  0  0  0  0
 58 65  1  0  0  0  0
 59 66  1  0  0  0  0
 60 66  1  0  0  0  0
 61 66  1  0  0  0  0
 62 77  1  0  0  0  0
 63 84  1  0  0  0  0
 64 66  1  0  0  0  0
 64 76  1  0  0  0  0
 65 77  1  0  0  0  0
 67 68  1  0  0  0  0
M  CHG  1  77   1
M  ISO  4  42 100  63 101  74 100  84 101
M  END
> <Batch ID>
0066

> <Smiles>
C=CC1=CN(c2cc(C)c(F)c([100NH:0][100C:0](=O)N3CCCC(n4nc(-c5ccc(Oc6ccc(F)cc6F)cc5)c(C(N)=O)c4N)C3)c2)CC1[101CH2:1][101O:1]c1ccc2c(c1)CN(C(=O)C(NC(=O)C(C)NC)C(C)(C)C)C(C(=O)NC1CCCc3ccccc31)C2

> <Shape>
0.354

> <Color>
0.073

> <Negative vol penalty>
0.000

$$$$

  -OEChem-04042323213D

 86 95  0     1  0  0  0  0  0999 V2000
  -26.3349  -36.0745   16.1692 C   0  0  0  0  0  0  0  0  0  0  0  0
  -26.5059  -34.6953   16.1061 C   0  0  0  0  0  0  0  0  0  0  0  0
  -24.7876   -8.6983   21.6414 C   0  0  0  0  0  0  0  0  0  0  0  0
  -23.2366   -9.8981   20.2301 C   0  0  0  0  0  0  0  0  0  0  0  0
  -26.4450  -36.7341   17.3925 C   0  0  0  0  0  0  0  0  0  0  0  0
  -26.7882  -33.9751   17.2662 C   0  0  0  0  0  0  0  0  0  0  0  0
  -24.9214  -28.3026   18.6241 C   0  0  0  0  0  0  0  0  0  0  0  0
  -23.7317   -8.2940   22.4582 C   0  0  0  0  0  0  0  0  0  0  0  0
  -22.1806   -9.4938   21.0469 C   0  0  0  0  0  0  0  0  0  0  0  0
  -25.5472  -27.0606   18.5264 C   0  0  0  0  0  0  0  0  0  0  0  0
  -21.2860   -5.9600   22.3949 C   0  0  0  0  0  0  0  0  0  0  0  0
  -21.2487   -4.6234   22.7920 C   0  0  0  0  0  0  0  0  0  0  0  0
  -26.1901  -27.2089   20.8468 C   0  0  0  0  0  0  0  0  0  0  0  0
  -24.9227  -19.4274   16.9414 C   0  0  0  0  0  0  0  0  0  0  0  0
  -25.1950  -17.0289   16.8418 C   0  0  0  0  0  0  0  0  0  0  0  0
  -26.8235  -18.3822   18.0051 C   0  0  0  0  0  0  0  0  0  0  0  0
  -21.3620   -5.3079   25.1063 C   0  0  0  0  0  0  0  0  0  0  0  0
  -24.5401   -9.5004   20.5274 C   0  0  0  0  0  0  0  0  0  0  0  0
  -26.1380   -9.2478   18.5550 C   0  0  0  0  0  0  0  0  0  0  0  0
  -26.7193  -36.0204   18.5698 C   0  0  0  0  0  0  0  0  0  0  0  0
  -24.9346  -29.0132   19.8329 C   0  0  0  0  0  0  0  0  0  0  0  0
  -26.9035  -34.6260   18.5063 C   0  0  0  0  0  0  0  0  0  0  0  0
  -25.5615  -28.4585   20.9578 C   0  0  0  0  0  0  0  0  0  0  0  0
  -24.4706  -18.1768   16.5204 C   0  0  0  0  0  0  0  0  0  0  0  0
  -26.0992  -19.5301   17.6837 C   0  0  0  0  0  0  0  0  0  0  0  0
  -26.3715  -17.1316   17.5842 C   0  0  0  0  0  0  0  0  0  0  0  0
  -22.4282   -8.6917   22.1610 C   0  0  0  0  0  0  0  0  0  0  0  0
  -26.1842  -26.5148   19.6371 C   0  0  0  0  0  0  0  0  0  0  0  0
  -21.3614   -6.9706   23.3534 C   0  0  0  0  0  0  0  0  0  0  0  0
  -21.2867   -4.2973   24.1477 C   0  0  0  0  0  0  0  0  0  0  0  0
  -21.3994   -6.6445   24.7091 C   0  0  0  0  0  0  0  0  0  0  0  0
  -25.6305   -9.9189   19.6836 C   0  0  0  0  0  0  0  0  0  0  0  0
  -27.1611  -10.0490   18.1103 C   0  0  0  0  0  0  0  0  0  0  0  0
  -27.9058  -22.5003   18.8096 C   0  0  0  0  0  0  0  0  0  0  0  0
  -27.8848  -21.0954   18.2887 C   0  0  0  0  0  0  0  0  0  0  0  0
  -25.7217   -8.0108   17.9615 C   0  0  0  0  0  0  0  0  0  0  0  0
  -26.0890  -31.8223   20.7710 C   0  0  0  0  0  0  0  0  0  0  0  0
  -24.5369  -31.1007   23.5264 C   0  0  0  0  0  0  0  0  0  0  0  0
  -23.2406  -28.7018   25.5786 C   0  0  0  0  0  0  0  0  0  0  0  0
  -28.2947  -15.8921   18.6382 C   0  0  0  0  0  0  0  0  0  0  0  0
  -26.8759  -36.7833   19.8614 C   0  0  0  0  0  0  0  0  0  0  0  0
  -24.2319  -30.3396   19.9290 C   0  0  0  0  0  0  0  0  0  0  0  0
  -25.5866  -29.1719   22.2841 C   0  0  0  0  0  0  0  0  0  0  0  0
  -26.8065  -35.8986   21.1035 C   0  0  0  0  0  0  0  0  0  0  0  0
  -30.3941  -13.2128   19.6828 C   0  0  0  0  0  0  0  0  0  0  0  0
  -27.6757  -34.6580   20.9246 C   0  0  0  0  0  0  0  0  0  0  0  0
  -29.4584  -12.0018   19.6930 C   0  0  0  0  0  0  0  0  0  0  0  0
  -29.6821  -14.4835   20.1435 C   0  0  0  0  0  0  0  0  0  0  0  0
  -25.6719  -21.9025   18.3985 C   0  0  0  0  0  0  0  0  0  0  0  0
  -27.5011  -13.5803   19.4390 C   0  0  0  0  0  0  0  0  0  0  0  0
  -27.1864  -33.8067   19.7468 C   0  0  1  0  0  0  0  0  0  0  0  0
  -26.5135  -22.9649   19.1107 C   0  0  2  0  0  0  0  0  0  0  0  0
  -24.7504  -31.2091   21.0704 C   0  0  1  0  0  0  0  0  0  0  0  0
  -28.1559  -12.2895   18.9206 C   0  0  2  0  0  0  0  0  0  0  0  0
  -23.2132  -18.0676   15.7255 C   0  0  0  0  0  0  0  0  0  0  0  0
  -22.0679  -28.4151   27.7787 C   0  0  0  0  0  0  0  0  0  0  0  0
  -27.1691  -31.5890   24.9903 C   0  0  0  0  0  0  0  0  0  0  0  0
  -26.2093  -30.3942   26.9700 C   0  0  0  0  0  0  0  0  0  0  0  0
  -25.1471  -32.4966   26.1489 C   0  0  0  0  0  0  0  0  0  0  0  0
  -20.8718  -27.4832   24.2891 C   0  0  0  0  0  0  0  0  0  0  0  0
  -26.2519  -24.3700   18.6120 C   0  0  0  0  0  0  0  0  0  1  0  0
  -24.8994  -30.3735   24.7987 C   0  0  1  0  0  0  0  0  0  0  0  0
  -21.8976  -28.5927   26.2779 C   0  0  2  0  0  0  0  0  0  0  0  0
  -25.8576  -31.2005   25.7016 C   0  0  0  0  0  0  0  0  0  0  0  0
  -26.2780  -11.0586   19.9402 N   0  0  0  0  0  0  0  0  0  0  0  0
  -27.2028  -11.1099   18.9665 N   0  0  0  0  0  0  0  0  0  0  0  0
  -26.5494  -20.7767   18.1028 N   0  0  0  0  0  0  0  0  0  0  0  0
  -24.8910  -30.4688   22.3259 N   0  0  0  0  0  0  0  0  0  0  0  0
  -28.4599  -14.6938   19.3646 N   0  0  0  0  0  0  0  0  0  0  0  0
  -28.0201   -9.9426   17.0744 N   0  0  0  0  0  0  0  0  0  0  0  0
  -24.6539   -7.3156   18.5453 N   0  0  0  0  0  0  0  0  0  0  0  0
  -27.1080  -15.9657   17.9095 N   0  0  0  0  0  0  0  0  0  0  0  0
  -26.0174  -33.0426   20.1266 N   0  0  0  0  0  0  0  0  0  0  0  0
  -23.6377  -30.0146   25.4374 N   0  0  0  0  0  0  0  0  0  0  0  0
  -21.1321  -27.4278   25.7507 N   0  3  0  0  0  0  0  0  0  0  0  0
  -28.9502  -23.0996   18.9679 O   0  0  0  0  0  0  0  0  0  0  0  0
  -28.9022  -20.4613   18.1013 O   0  0  0  0  0  0  0  0  0  0  0  0
  -26.2908   -7.5277   16.9534 O   0  0  0  0  0  0  0  0  0  0  0  0
  -27.1112  -31.2327   21.1015 O   0  0  0  0  0  0  0  0  0  0  0  0
  -23.9544  -32.1859   23.5951 O   0  0  0  0  0  0  0  0  0  0  0  0
  -23.8756  -27.7203   25.1992 O   0  0  0  0  0  0  0  0  0  0  0  0
  -29.1559  -16.7755   18.6392 O   0  0  0  0  0  0  0  0  0  0  0  0
  -21.3976   -8.2971   22.9576 O   0  0  0  0  0  0  0  0  0  0  0  0
  -26.7963  -25.3030   19.5444 O   0  0  0  0  0  0  0  0  0  1  0  0
  -21.2493   -3.0138   24.5289 F   0  0  0  0  0  0  0  0  0  0  0  0
  -21.4706   -7.6110   25.6347 F   0  0  0  0  0  0  0  0  0  0  0  0
  1  2  1  0  0  0  0
  1  5  2  0  0  0  0
  2  6  2  0  0  0  0
  3  8  2  0  0  0  0
  3 18  1  0  0  0  0
  4  9  1  0  0  0  0
  4 18  2  0  0  0  0
  5 20  1  0  0  0  0
  6 22  1  0  0  0  0
  7 10  2  0  0  0  0
  7 21  1  0  0  0  0
  8 27  1  0  0  0  0
  9 27  2  0  0  0  0
 10 28  1  0  0  0  0
 11 12  2  0  0  0  0
 11 29  1  0  0  0  0
 12 30  1  0  0  0  0
 13 23  1  0  0  0  0
 13 28  2  0  0  0  0
 14 24  2  0  0  0  0
 14 25  1  0  0  0  0
 15 24  1  0  0  0  0
 15 26  2  0  0  0  0
 16 25  2  0  0  0  0
 16 26  1  0  0  0  0
 17 30  2  0  0  0  0
 17 31  1  0  0  0  0
 18 32  1  0  0  0  0
 19 32  1  0  0  0  0
 19 33  2  0  0  0  0
 19 36  1  0  0  0  0
 20 22  2  0  0  0  0
 20 41  1  0  0  0  0
 21 23  2  0  0  0  0
 21 42  1  0  0  0  0
 22 51  1  0  0  0  0
 23 43  1  0  0  0  0
 24 55  1  0  0  0  0
 25 67  1  0  0  0  0
 26 72  1  0  0  0  0
 27 83  1  0  0  0  0
 28 84  1  0  0  0  0
 29 31  2  0  0  0  0
 29 83  1  0  0  0  0
 30 85  1  0  0  0  0
 31 86  1  0  0  0  0
 32 65  2  0  0  0  0
 33 66  1  0  0  0  0
 33 70  1  0  0  0  0
 34 35  1  0  0  0  0
 34 52  1  0  0  0  0
 34 76  2  0  0  0  0
 35 67  1  0  0  0  0
 35 77  2  0  0  0  0
 36 71  1  0  0  0  0
 36 78  2  0  0  0  0
 37 53  1  0  0  0  0
 37 73  1  0  0  0  0
 37 79  2  0  0  0  0
 38 62  1  0  0  0  0
 38 68  1  0  0  0  0
 38 80  2  0  0  0  0
 39 63  1  0  0  0  0
 39 74  1  0  0  0  0
 39 81  2  0  0  0  0
 40 69  1  0  0  0  0
 40 72  1  0  0  0  0
 40 82  2  0  0  0  0
 41 44  1  0  0  0  0
 42 53  1  0  0  0  0
 43 68  1  0  0  0  0
 44 46  1  0  0  0  0
 45 47  1  0  0  0  0
 45 48  1  0  0  0  0
 46 51  1  0  0  0  0
 47 54  1  0  0  0  0
 48 69  1  0  0  0  0
 49 52  1  0  0  0  0
 49 67  1  0  0  0  0
 50 54  1  0  0  0  0
 50 69  1  0  0  0  0
 51 73  1  0  0  0  0
 52 61  1  0  0  0  0
 53 68  1  0  0  0  0
 54 66  1  0  0  0  0
 56 63  1  0  0  0  0
 57 64  1  0  0  0  0
 58 64  1  0  0  0  0
 59 64  1  0  0  0  0
 60 75  1  0  0  0  0
 61 84  1  0  0  0  0
 62 64  1  0  0  0  0
 62 74  1  0  0  0  0
 63 75  1  0  0  0  0
 65 66  1  0  0  0  0
M  CHG  1  75   1
M  ISO  4  40 100  61 101  72 100  84 101
M  END
> <Batch ID>
0066

> <Smiles>
CNC(C)C(=O)NC(C(=O)N1Cc2cc([101O:1][101CH2:1]C3CN(c4cc(C)cc([100NH:0][100C:0](=O)N5CCCC(n6nc(-c7ccc(Oc8ccc(F)cc8F)cc7)c(C(N)=O)c6N)C5)c4)C(=O)C3=O)ccc2CC1C(=O)NC1CCCc2ccccc21)C(C)(C)C

> <Shape>
0.239

> <Color>
0.128

> <Negative vol penalty>
0.000

$$$$

  -OEChem-04042323213D

 90 99  0     1  0  0  0  0  0999 V2000
  -27.3040  -33.0352   22.9713 C   0  0  0  0  0  0  0  0  0  0  0  0
  -28.0313  -31.9611   23.4739 C   0  0  0  0  0  0  0  0  0  0  0  0
  -23.2548   -9.6352   20.3778 C   0  0  0  0  0  0  0  0  0  0  0  0
  -23.9010  -10.1027   22.6583 C   0  0  0  0  0  0  0  0  0  0  0  0
  -26.5723  -32.8900   21.7934 C   0  0  0  0  0  0  0  0  0  0  0  0
  -28.0266  -30.7407   22.7994 C   0  0  0  0  0  0  0  0  0  0  0  0
  -32.6621  -26.7636   22.3517 C   0  0  0  0  0  0  0  0  0  0  0  0
  -32.1679  -18.3989   22.7907 C   0  0  0  0  0  0  0  0  0  0  0  0
  -31.6630  -17.3366   22.0411 C   0  0  0  0  0  0  0  0  0  0  0  0
  -22.5743   -8.4947   20.8044 C   0  0  0  0  0  0  0  0  0  0  0  0
  -23.2205   -8.9622   23.0850 C   0  0  0  0  0  0  0  0  0  0  0  0
  -32.9644  -25.5934   23.0466 C   0  0  0  0  0  0  0  0  0  0  0  0
  -23.3413   -5.3296   21.7090 C   0  0  0  0  0  0  0  0  0  0  0  0
  -23.5185   -4.1573   20.9743 C   0  0  0  0  0  0  0  0  0  0  0  0
  -31.9211  -24.2948   21.3017 C   0  0  0  0  0  0  0  0  0  0  0  0
  -29.9211  -19.2074   23.1586 C   0  0  0  0  0  0  0  0  0  0  0  0
  -21.1481   -4.0882   20.5125 C   0  0  0  0  0  0  0  0  0  0  0  0
  -23.9182  -10.4391   21.3048 C   0  0  0  0  0  0  0  0  0  0  0  0
  -24.1045  -12.9208   20.7442 C   0  0  0  0  0  0  0  0  0  0  0  0
  -26.5664  -31.6701   21.0989 C   0  0  0  0  0  0  0  0  0  0  0  0
  -31.9762  -26.7088   21.1298 C   0  0  0  0  0  0  0  0  0  0  0  0
  -27.2931  -30.5786   21.6118 C   0  0  0  0  0  0  0  0  0  0  0  0
  -31.6136  -25.4657   20.5920 C   0  0  0  0  0  0  0  0  0  0  0  0
  -29.4161  -18.1450   22.4089 C   0  0  0  0  0  0  0  0  0  0  0  0
  -31.2970  -19.3344   23.3495 C   0  0  0  0  0  0  0  0  0  0  0  0
  -30.2871  -17.2096   21.8502 C   0  0  0  0  0  0  0  0  0  0  0  0
  -22.5572   -8.1582   22.1579 C   0  0  0  0  0  0  0  0  0  0  0  0
  -32.5914  -24.3589   22.5231 C   0  0  0  0  0  0  0  0  0  0  0  0
  -22.0674   -5.8812   21.8455 C   0  0  0  0  0  0  0  0  0  0  0  0
  -22.4220   -3.5366   20.3760 C   0  0  0  0  0  0  0  0  0  0  0  0
  -20.9708   -5.2606   21.2472 C   0  0  0  0  0  0  0  0  0  0  0  0
  -24.6217  -11.6170   20.8647 C   0  0  0  0  0  0  0  0  0  0  0  0
  -25.1632  -13.6696   20.2915 C   0  0  0  0  0  0  0  0  0  0  0  0
  -33.0607  -20.7374   24.4306 C   0  0  0  0  0  0  0  0  0  0  0  0
  -22.7852  -13.4111   21.0171 C   0  0  0  0  0  0  0  0  0  0  0  0
  -29.1850  -27.8026   20.0732 C   0  0  0  0  0  0  0  0  0  0  0  0
  -30.2670  -26.6856   17.2265 C   0  0  0  0  0  0  0  0  0  0  0  0
  -32.3214  -24.5384   15.5485 C   0  0  0  0  0  0  0  0  0  0  0  0
  -30.5373  -15.1153   20.4726 C   0  0  0  0  0  0  0  0  0  0  0  0
  -25.7224  -31.5470   19.8550 C   0  0  0  0  0  0  0  0  0  0  0  0
  -31.6812  -27.9786   20.3795 C   0  0  0  0  0  0  0  0  0  0  0  0
  -30.8936  -25.3514   19.2740 C   0  0  0  0  0  0  0  0  0  0  0  0
  -26.0712  -30.3313   19.0001 C   0  0  0  0  0  0  0  0  0  0  0  0
  -29.6939  -12.2468   18.5393 C   0  0  0  0  0  0  0  0  0  0  0  0
  -26.2027  -29.0861   19.8713 C   0  0  0  0  0  0  0  0  0  0  0  0
  -28.2566  -11.9345   18.9620 C   0  0  0  0  0  0  0  0  0  0  0  0
  -30.5335  -12.7495   19.7123 C   0  0  0  0  0  0  0  0  0  0  0  0
  -28.5200  -13.5701   20.8705 C   0  0  0  0  0  0  0  0  0  0  0  0
  -31.1181  -21.4782   24.7721 C   0  0  0  0  0  0  0  0  0  0  0  0
  -27.3327  -29.2461   20.8955 C   0  0  1  0  0  0  0  0  0  0  0  0
  -30.5251  -27.8357   19.3944 C   0  0  1  0  0  0  0  0  0  0  0  0
  -27.6181  -13.1220   19.7088 C   0  0  2  0  0  0  0  0  0  0  0  0
  -32.5284  -21.9714   25.2148 C   0  0  2  0  0  0  0  0  0  0  0  0
  -32.9569  -23.8301   13.2265 C   0  0  0  0  0  0  0  0  0  0  0  0
  -34.2780  -21.7803   27.0054 C   0  0  0  0  0  0  0  0  0  0  0  0
  -32.2018  -23.1305   27.4177 C   0  0  0  0  0  0  0  0  0  0  0  0
  -27.6642  -25.1099   16.9974 C   0  0  0  0  0  0  0  0  0  0  0  0
  -28.7375  -23.7322   15.2035 C   0  0  0  0  0  0  0  0  0  0  0  0
  -28.4238  -26.1845   14.8707 C   0  0  0  0  0  0  0  0  0  0  0  0
  -35.1359  -25.3648   15.9417 C   0  0  0  0  0  0  0  0  0  0  0  0
  -32.9469  -23.3002   24.6227 C   0  0  0  0  0  0  0  0  0  1  0  0
  -30.1831  -25.3688   16.4930 C   0  0  1  0  0  0  0  0  0  0  0  0
  -33.2763  -24.7572   14.3889 C   0  0  2  0  0  0  0  0  0  0  0  0
  -32.7827  -21.9036   26.7169 C   0  0  0  0  0  0  0  0  0  0  0  0
  -27.9379  -18.0323   22.2221 C   0  0  0  0  0  0  0  0  0  0  0  0
  -28.7640  -25.1008   15.9169 C   0  0  0  0  0  0  0  0  0  0  0  0
  -25.9088  -11.5386   20.5165 N   0  0  0  0  0  0  0  0  0  0  0  0
  -26.2093  -12.8026   20.1727 N   0  0  0  0  0  0  0  0  0  0  0  0
  -31.7949  -20.3803   24.0908 N   0  0  0  0  0  0  0  0  0  0  0  0
  -30.6220  -26.6218   18.5814 N   0  0  0  0  0  0  0  0  0  0  0  0
  -29.8686  -13.8772   20.3688 N   0  0  0  0  0  0  0  0  0  0  0  0
  -25.2920  -14.9786   19.9875 N   0  0  0  0  0  0  0  0  0  0  0  0
  -21.8178  -12.5066   21.4758 N   0  0  0  0  0  0  0  0  0  0  0  0
  -29.7937  -16.1225   21.0869 N   0  0  0  0  0  0  0  0  0  0  0  0
  -28.6195  -29.0490   20.2632 N   0  0  0  0  0  0  0  0  0  0  0  0
  -31.2409  -25.3928   15.4886 N   0  0  0  0  0  0  0  0  0  0  0  0
  -34.6805  -24.5046   14.8194 N   0  3  0  0  0  0  0  0  0  0  0  0
  -34.1443  -20.2543   24.1930 O   0  0  0  0  0  0  0  0  0  0  0  0
  -22.4688  -14.6124   20.8431 O   0  0  0  0  0  0  0  0  0  0  0  0
  -28.6992  -26.7257   20.3990 O   0  0  0  0  0  0  0  0  0  0  0  0
  -30.0334  -27.7328   16.6178 O   0  0  0  0  0  0  0  0  0  0  0  0
  -32.5129  -23.6914   16.4183 O   0  0  0  0  0  0  0  0  0  0  0  0
  -31.6746  -15.2782   20.0233 O   0  0  0  0  0  0  0  0  0  0  0  0
  -21.8931   -7.0456   22.5746 O   0  0  0  0  0  0  0  0  0  0  0  0
  -32.8847  -23.2152   23.1996 O   0  0  0  0  0  0  0  0  0  1  0  0
  -22.5926   -2.4117   19.6692 F   0  0  0  0  0  0  0  0  0  0  0  0
  -19.7447   -5.7865   21.3739 F   0  0  0  0  0  0  0  0  0  0  0  0
  -27.2339  -19.0276   22.8359 F   0  0  0  0  0  0  0  0  0  0  0  0
  -27.5502  -18.0730   20.9142 F   0  0  0  0  0  0  0  0  0  0  0  0
  -27.4361  -16.8656   22.7192 F   0  0  0  0  0  0  0  0  0  0  0  0
  1  2  1  0  0  0  0
  1  5  2  0  0  0  0
  2  6  2  0  0  0  0
  3 10  2  0  0  0  0
  3 18  1  0  0  0  0
  4 11  1  0  0  0  0
  4 18  2  0  0  0  0
  5 20  1  0  0  0  0
  6 22  1  0  0  0  0
  7 12  2  0  0  0  0
  7 21  1  0  0  0  0
  8  9  2  0  0  0  0
  8 25  1  0  0  0  0
  9 26  1  0  0  0  0
 10 27  1  0  0  0  0
 11 27  2  0  0  0  0
 12 28  1  0  0  0  0
 13 14  2  0  0  0  0
 13 29  1  0  0  0  0
 14 30  1  0  0  0  0
 15 23  1  0  0  0  0
 15 28  2  0  0  0  0
 16 24  1  0  0  0  0
 16 25  2  0  0  0  0
 17 30  2  0  0  0  0
 17 31  1  0  0  0  0
 18 32  1  0  0  0  0
 19 32  1  0  0  0  0
 19 33  2  0  0  0  0
 19 35  1  0  0  0  0
 20 22  2  0  0  0  0
 20 40  1  0  0  0  0
 21 23  2  0  0  0  0
 21 41  1  0  0  0  0
 22 50  1  0  0  0  0
 23 42  1  0  0  0  0
 24 26  2  0  0  0  0
 24 65  1  0  0  0  0
 25 69  1  0  0  0  0
 26 74  1  0  0  0  0
 27 84  1  0  0  0  0
 28 85  1  0  0  0  0
 29 31  2  0  0  0  0
 29 84  1  0  0  0  0
 30 86  1  0  0  0  0
 31 87  1  0  0  0  0
 32 67  2  0  0  0  0
 33 68  1  0  0  0  0
 33 72  1  0  0  0  0
 34 53  1  0  0  0  0
 34 69  1  0  0  0  0
 34 78  2  0  0  0  0
 35 73  1  0  0  0  0
 35 79  2  0  0  0  0
 36 51  1  0  0  0  0
 36 75  1  0  0  0  0
 36 80  2  0  0  0  0
 37 62  1  0  0  0  0
 37 70  1  0  0  0  0
 37 81  2  0  0  0  0
 38 63  1  0  0  0  0
 38 76  1  0  0  0  0
 38 82  2  0  0  0  0
 39 71  1  0  0  0  0
 39 74  1  0  0  0  0
 39 83  2  0  0  0  0
 40 43  1  0  0  0  0
 41 51  1  0  0  0  0
 42 70  1  0  0  0  0
 43 45  1  0  0  0  0
 44 46  1  0  0  0  0
 44 47  1  0  0  0  0
 45 50  1  0  0  0  0
 46 52  1  0  0  0  0
 47 71  1  0  0  0  0
 48 52  1  0  0  0  0
 48 71  1  0  0  0  0
 49 53  1  0  0  0  0
 49 69  1  0  0  0  0
 50 75  1  0  0  0  0
 51 70  1  0  0  0  0
 52 68  1  0  0  0  0
 53 61  1  0  0  0  0
 53 64  1  0  0  0  0
 54 63  1  0  0  0  0
 55 64  1  0  0  0  0
 56 64  1  0  0  0  0
 57 66  1  0  0  0  0
 58 66  1  0  0  0  0
 59 66  1  0  0  0  0
 60 77  1  0  0  0  0
 61 85  1  0  0  0  0
 62 66  1  0  0  0  0
 62 76  1  0  0  0  0
 63 77  1  0  0  0  0
 65 88  1  0  0  0  0
 65 89  1  0  0  0  0
 65 90  1  0  0  0  0
 67 68  1  0  0  0  0
M  CHG  1  77   1
M  ISO  4  39 100  61 101  74 100  85 101
M  END
> <Batch ID>
0066

> <Smiles>
CNC(C)C(=O)NC(C(=O)N1Cc2cc([101O:1][101CH2:1]C3(C(C)C)CN(c4ccc([100NH:0][100C:0](=O)N5CCCC(n6nc(-c7ccc(Oc8ccc(F)cc8F)cc7)c(C(N)=O)c6N)C5)c(C(F)(F)F)c4)C3=O)ccc2CC1C(=O)NC1CCCc2ccccc21)C(C)(C)C

> <Shape>
0.259

> <Color>
0.178

> <Negative vol penalty>
0.000

$$$$

  -OEChem-04042323213D

 86 95  0     1  0  0  0  0  0999 V2000
  -43.7590  -20.7864   23.4953 C   0  0  0  0  0  0  0  0  0  0  0  0
  -42.9441  -19.7138   23.8430 C   0  0  0  0  0  0  0  0  0  0  0  0
  -23.2882   -9.7995   19.9134 C   0  0  0  0  0  0  0  0  0  0  0  0
  -23.7421   -9.9396   22.2823 C   0  0  0  0  0  0  0  0  0  0  0  0
  -43.2354  -22.0783   23.4688 C   0  0  0  0  0  0  0  0  0  0  0  0
  -41.6053  -19.9327   24.1655 C   0  0  0  0  0  0  0  0  0  0  0  0
  -38.5056  -16.5830   21.9708 C   0  0  0  0  0  0  0  0  0  0  0  0
  -22.5630   -8.6264   20.1217 C   0  0  0  0  0  0  0  0  0  0  0  0
  -23.0168   -8.7664   22.4906 C   0  0  0  0  0  0  0  0  0  0  0  0
  -38.4291  -15.3149   22.5450 C   0  0  0  0  0  0  0  0  0  0  0  0
  -20.9813   -6.0044   23.6931 C   0  0  0  0  0  0  0  0  0  0  0  0
  -20.0812   -5.9780   24.7583 C   0  0  0  0  0  0  0  0  0  0  0  0
  -36.3737  -15.9419   23.6411 C   0  0  0  0  0  0  0  0  0  0  0  0
  -33.0167  -11.9698   26.0673 C   0  0  0  0  0  0  0  0  0  0  0  0
  -30.8928  -12.5994   25.1032 C   0  0  0  0  0  0  0  0  0  0  0  0
  -32.8181  -12.2787   23.6793 C   0  0  0  0  0  0  0  0  0  0  0  0
  -18.8690   -7.8246   23.7796 C   0  0  0  0  0  0  0  0  0  0  0  0
  -23.8778  -10.4561   20.9937 C   0  0  0  0  0  0  0  0  0  0  0  0
  -24.1351  -12.9863   20.7957 C   0  0  0  0  0  0  0  0  0  0  0  0
  -41.8870  -22.3119   23.7817 C   0  0  0  0  0  0  0  0  0  0  0  0
  -37.5208  -17.5453   22.2364 C   0  0  0  0  0  0  0  0  0  0  0  0
  -41.0635  -21.2291   24.1444 C   0  0  0  0  0  0  0  0  0  0  0  0
  -36.4386  -17.2206   23.0669 C   0  0  0  0  0  0  0  0  0  0  0  0
  -31.6670  -12.2866   26.2205 C   0  0  0  0  0  0  0  0  0  0  0  0
  -33.5923  -11.9659   24.7967 C   0  0  0  0  0  0  0  0  0  0  0  0
  -31.4683  -12.5954   23.8326 C   0  0  0  0  0  0  0  0  0  0  0  0
  -22.4273   -8.1098   21.4103 C   0  0  0  0  0  0  0  0  0  0  0  0
  -37.3646  -14.9951   23.3826 C   0  0  0  0  0  0  0  0  0  0  0  0
  -20.8254   -6.9409   22.6712 C   0  0  0  0  0  0  0  0  0  0  0  0
  -19.0250   -6.8881   24.8016 C   0  0  0  0  0  0  0  0  0  0  0  0
  -19.7692   -7.8510   22.7144 C   0  0  0  0  0  0  0  0  0  0  0  0
  -24.6276  -11.6676   20.7791 C   0  0  0  0  0  0  0  0  0  0  0  0
  -25.2357  -13.7671   20.5395 C   0  0  0  0  0  0  0  0  0  0  0  0
  -37.1781  -11.0609   25.0043 C   0  0  0  0  0  0  0  0  0  0  0  0
  -35.8691  -11.3091   25.6663 C   0  0  0  0  0  0  0  0  0  0  0  0
  -38.2331  -10.5812   25.6691 C   0  0  0  0  0  0  0  0  0  0  0  0
  -22.8020  -13.4629   21.0225 C   0  0  0  0  0  0  0  0  0  0  0  0
  -37.5004  -20.4172   23.5986 C   0  0  0  0  0  0  0  0  0  0  0  0
  -34.4084  -20.4308   22.6177 C   0  0  0  0  0  0  0  0  0  0  0  0
  -31.6456  -18.6394   21.7207 C   0  0  0  0  0  0  0  0  0  0  0  0
  -31.0977  -12.9568   21.3671 C   0  0  0  0  0  0  0  0  0  0  0  0
  -41.3781  -23.7317   23.7852 C   0  0  0  0  0  0  0  0  0  0  0  0
  -37.6036  -18.8999   21.5879 C   0  0  0  0  0  0  0  0  0  0  0  0
  -35.3447  -18.2112   23.3677 C   0  0  0  0  0  0  0  0  0  0  0  0
  -39.8550  -23.8327   23.7765 C   0  0  0  0  0  0  0  0  0  0  0  0
  -29.4596  -13.6612   18.2853 C   0  0  0  0  0  0  0  0  0  0  0  0
  -39.2509  -22.8802   24.8034 C   0  0  0  0  0  0  0  0  0  0  0  0
  -27.9889  -13.3557   18.5784 C   0  0  0  0  0  0  0  0  0  0  0  0
  -30.3945  -12.6864   18.9991 C   0  0  0  0  0  0  0  0  0  0  0  0
  -35.5929  -11.5486   23.3250 C   0  0  0  0  0  0  0  0  0  0  0  0
  -28.7039  -12.2565   20.7388 C   0  0  0  0  0  0  0  0  0  0  0  0
  -39.5999  -21.4231   24.4766 C   0  0  1  0  0  0  0  0  0  0  0  0
  -37.0969  -11.3937   23.5477 C   0  0  1  0  0  0  0  0  0  0  0  0
  -36.8166  -19.9704   22.3375 C   0  0  1  0  0  0  0  0  0  0  0  0
  -27.7260  -13.2519   20.0935 C   0  0  2  0  0  0  0  0  0  0  0  0
  -31.0522  -12.2919   27.5796 C   0  0  0  0  0  0  0  0  0  0  0  0
  -29.2570  -18.9277   21.0072 C   0  0  0  0  0  0  0  0  0  0  0  0
  -33.6286  -21.0736   25.4967 C   0  0  0  0  0  0  0  0  0  0  0  0
  -31.2794  -20.4161   24.9336 C   0  0  0  0  0  0  0  0  0  0  0  0
  -32.3490  -22.3409   23.7615 C   0  0  0  0  0  0  0  0  0  0  0  0
  -32.1395  -17.3095   19.1233 C   0  0  0  0  0  0  0  0  0  0  0  0
  -37.8559  -12.6746   23.2107 C   0  0  0  0  0  0  0  0  0  1  0  0
  -33.0951  -19.9877   23.2158 C   0  0  1  0  0  0  0  0  0  0  0  0
  -30.6970  -18.7731   20.5431 C   0  0  2  0  0  0  0  0  0  0  0  0
  -32.6095  -20.9363   24.3480 C   0  0  0  0  0  0  0  0  0  0  0  0
  -25.9389  -11.6100   20.5318 N   0  0  0  0  0  0  0  0  0  0  0  0
  -26.2797  -12.9023   20.3905 N   0  0  0  0  0  0  0  0  0  0  0  0
  -34.9760  -11.6413   24.6402 N   0  0  0  0  0  0  0  0  0  0  0  0
  -35.4738  -19.5245   22.7148 N   0  0  0  0  0  0  0  0  0  0  0  0
  -30.0896  -12.6437   20.4310 N   0  0  0  0  0  0  0  0  0  0  0  0
  -25.4025  -15.1022   20.4294 N   0  0  0  0  0  0  0  0  0  0  0  0
  -21.7905  -12.5252   21.2710 N   0  0  0  0  0  0  0  0  0  0  0  0
  -30.6823  -12.9145   22.6976 N   0  0  0  0  0  0  0  0  0  0  0  0
  -38.7667  -20.9332   23.3995 N   0  0  0  0  0  0  0  0  0  0  0  0
  -32.1617  -19.8599   22.1019 N   0  0  0  0  0  0  0  0  0  0  0  0
  -30.7825  -17.5686   19.6697 N   0  3  0  0  0  0  0  0  0  0  0  0
  -35.6980  -11.2093   26.8700 O   0  0  0  0  0  0  0  0  0  0  0  0
  -22.5132  -14.6831   20.9890 O   0  0  0  0  0  0  0  0  0  0  0  0
  -36.9213  -20.3036   24.6726 O   0  0  0  0  0  0  0  0  0  0  0  0
  -34.4843  -21.5372   22.0776 O   0  0  0  0  0  0  0  0  0  0  0  0
  -31.9002  -17.5607   22.2518 O   0  0  0  0  0  0  0  0  0  0  0  0
  -32.2379  -13.2681   21.0133 O   0  0  0  0  0  0  0  0  0  0  0  0
  -21.7194   -6.9653   21.6140 O   0  0  0  0  0  0  0  0  0  0  0  0
  -37.2878  -13.7583   23.9450 O   0  0  0  0  0  0  0  0  0  1  0  0
  -18.1598   -6.8617   25.8237 F   0  0  0  0  0  0  0  0  0  0  0  0
  -19.6136   -8.7522   21.7350 F   0  0  0  0  0  0  0  0  0  0  0  0
  1  2  1  0  0  0  0
  1  5  2  0  0  0  0
  2  6  2  0  0  0  0
  3  8  2  0  0  0  0
  3 18  1  0  0  0  0
  4  9  1  0  0  0  0
  4 18  2  0  0  0  0
  5 20  1  0  0  0  0
  6 22  1  0  0  0  0
  7 10  2  0  0  0  0
  7 21  1  0  0  0  0
  8 27  1  0  0  0  0
  9 27  2  0  0  0  0
 10 28  1  0  0  0  0
 11 12  2  0  0  0  0
 11 29  1  0  0  0  0
 12 30  1  0  0  0  0
 13 23  1  0  0  0  0
 13 28  2  0  0  0  0
 14 24  2  0  0  0  0
 14 25  1  0  0  0  0
 15 24  1  0  0  0  0
 15 26  2  0  0  0  0
 16 25  2  0  0  0  0
 16 26  1  0  0  0  0
 17 30  2  0  0  0  0
 17 31  1  0  0  0  0
 18 32  1  0  0  0  0
 19 32  1  0  0  0  0
 19 33  2  0  0  0  0
 19 37  1  0  0  0  0
 20 22  2  0  0  0  0
 20 42  1  0  0  0  0
 21 23  2  0  0  0  0
 21 43  1  0  0  0  0
 22 52  1  0  0  0  0
 23 44  1  0  0  0  0
 24 56  1  0  0  0  0
 25 68  1  0  0  0  0
 26 73  1  0  0  0  0
 27 83  1  0  0  0  0
 28 84  1  0  0  0  0
 29 31  2  0  0  0  0
 29 83  1  0  0  0  0
 30 85  1  0  0  0  0
 31 86  1  0  0  0  0
 32 66  2  0  0  0  0
 33 67  1  0  0  0  0
 33 71  1  0  0  0  0
 34 35  1  0  0  0  0
 34 36  2  0  0  0  0
 34 53  1  0  0  0  0
 35 68  1  0  0  0  0
 35 77  2  0  0  0  0
 37 72  1  0  0  0  0
 37 78  2  0  0  0  0
 38 54  1  0  0  0  0
 38 74  1  0  0  0  0
 38 79  2  0  0  0  0
 39 63  1  0  0  0  0
 39 69  1  0  0  0  0
 39 80  2  0  0  0  0
 40 64  1  0  0  0  0
 40 75  1  0  0  0  0
 40 81  2  0  0  0  0
 41 70  1  0  0  0  0
 41 73  1  0  0  0  0
 41 82  2  0  0  0  0
 42 45  1  0  0  0  0
 43 54  1  0  0  0  0
 44 69  1  0  0  0  0
 45 47  1  0  0  0  0
 46 48  1  0  0  0  0
 46 49  1  0  0  0  0
 47 52  1  0  0  0  0
 48 55  1  0  0  0  0
 49 70  1  0  0  0  0
 50 53  1  0  0  0  0
 50 68  1  0  0  0  0
 51 55  1  0  0  0  0
 51 70  1  0  0  0  0
 52 74  1  0  0  0  0
 53 62  1  0  0  0  0
 54 69  1  0  0  0  0
 55 67  1  0  0  0  0
 57 64  1  0  0  0  0
 58 65  1  0  0  0  0
 59 65  1  0  0  0  0
 60 65  1  0  0  0  0
 61 76  1  0  0  0  0
 62 84  1  0  0  0  0
 63 65  1  0  0  0  0
 63 75  1  0  0  0  0
 64 76  1  0  0  0  0
 66 67  1  0  0  0  0
M  CHG  1  76   1
M  ISO  4  41 100  62 101  73 100  84 101
M  END
> <Batch ID>
0066

> <Smiles>
C=C1C(=O)N(c2cc(C)cc([100NH:0][100C:0](=O)N3CCCC(n4nc(-c5ccc(Oc6ccc(F)cc6F)cc5)c(C(N)=O)c4N)C3)c2)CC1[101CH2:1][101O:1]c1ccc2c(c1)CN(C(=O)C(NC(=O)C(C)NC)C(C)(C)C)C(C(=O)NC1CCCc3ccccc31)C2

> <Shape>
0.146

> <Color>
0.174

> <Negative vol penalty>
0.000

$$$$

  -OEChem-04042323213D

 89 97  0     1  0  0  0  0  0999 V2000
  -18.4028  -27.6713   21.9463 C   0  0  0  0  0  0  0  0  0  0  0  0
  -19.1011  -26.4798   22.1137 C   0  0  0  0  0  0  0  0  0  0  0  0
  -23.1018   -9.8097   19.9218 C   0  0  0  0  0  0  0  0  0  0  0  0
  -23.8411   -9.8261   22.2219 C   0  0  0  0  0  0  0  0  0  0  0  0
  -32.1192  -18.7607   22.1169 C   0  0  0  0  0  0  0  0  0  0  0  0
  -18.9984  -28.8822   22.2969 C   0  0  0  0  0  0  0  0  0  0  0  0
  -20.3960  -26.4986   22.6307 C   0  0  0  0  0  0  0  0  0  0  0  0
  -22.9722  -22.2923   26.2606 C   0  0  0  0  0  0  0  0  0  0  0  0
  -31.6607  -17.5265   21.6565 C   0  0  0  0  0  0  0  0  0  0  0  0
  -22.3889   -8.6345   20.1593 C   0  0  0  0  0  0  0  0  0  0  0  0
  -23.1282   -8.6509   22.4594 C   0  0  0  0  0  0  0  0  0  0  0  0
  -23.8323  -21.2269   25.9981 C   0  0  0  0  0  0  0  0  0  0  0  0
  -23.5186   -5.3416   21.8879 C   0  0  0  0  0  0  0  0  0  0  0  0
  -24.1568   -4.3304   22.6061 C   0  0  0  0  0  0  0  0  0  0  0  0
  -25.7187  -22.6157   26.5743 C   0  0  0  0  0  0  0  0  0  0  0  0
  -29.5756  -17.8635   22.8296 C   0  0  0  0  0  0  0  0  0  0  0  0
  -22.4363   -4.4465   24.2983 C   0  0  0  0  0  0  0  0  0  0  0  0
  -23.8279  -10.4055   20.9531 C   0  0  0  0  0  0  0  0  0  0  0  0
  -31.3060  -19.5464   22.9338 C   0  0  0  0  0  0  0  0  0  0  0  0
  -24.0986  -12.9399   20.8489 C   0  0  0  0  0  0  0  0  0  0  0  0
  -20.2976  -28.9150   22.8275 C   0  0  0  0  0  0  0  0  0  0  0  0
  -23.4805  -23.5327   26.6721 C   0  0  0  0  0  0  0  0  0  0  0  0
  -21.0100  -27.7112   22.9875 C   0  0  0  0  0  0  0  0  0  0  0  0
  -24.8627  -23.6945   26.8438 C   0  0  0  0  0  0  0  0  0  0  0  0
  -30.3889  -17.0779   22.0129 C   0  0  0  0  0  0  0  0  0  0  0  0
  -30.0342  -19.0978   23.2901 C   0  0  0  0  0  0  0  0  0  0  0  0
  -22.4021   -8.0551   21.4281 C   0  0  0  0  0  0  0  0  0  0  0  0
  -25.2059  -21.3893   26.1521 C   0  0  0  0  0  0  0  0  0  0  0  0
  -22.3392   -5.9053   22.3749 C   0  0  0  0  0  0  0  0  0  0  0  0
  -23.6156   -3.8828   23.8112 C   0  0  0  0  0  0  0  0  0  0  0  0
  -21.7981   -5.4577   23.5801 C   0  0  0  0  0  0  0  0  0  0  0  0
  -24.5649  -11.6191   20.7082 C   0  0  0  0  0  0  0  0  0  0  0  0
  -25.1721  -13.7221   20.4991 C   0  0  0  0  0  0  0  0  0  0  0  0
  -31.8157  -20.8307   23.3979 C   0  0  0  0  0  0  0  0  0  0  0  0
  -22.8104  -13.4171   21.2591 C   0  0  0  0  0  0  0  0  0  0  0  0
  -23.4435  -26.4791   25.4801 C   0  0  0  0  0  0  0  0  0  0  0  0
  -24.8322  -27.2247   28.3152 C   0  0  0  0  0  0  0  0  0  0  0  0
  -33.3953  -23.7218   23.7214 C   0  0  0  0  0  0  0  0  0  0  0  0
  -27.9098  -19.5652   24.5559 C   0  0  0  0  0  0  0  0  0  0  0  0
  -26.6638  -26.1939   31.0040 C   0  0  0  0  0  0  0  0  0  0  0  0
  -30.6045  -14.9219   20.7277 C   0  0  0  0  0  0  0  0  0  0  0  0
  -20.9174  -30.2522   23.1477 C   0  0  0  0  0  0  0  0  0  0  0  0
  -22.5375  -24.6641   26.9770 C   0  0  0  0  0  0  0  0  0  0  0  0
  -25.4573  -24.9999   27.3029 C   0  0  0  0  0  0  0  0  0  0  0  0
  -22.1527  -30.1532   24.0391 C   0  0  0  0  0  0  0  0  0  0  0  0
  -29.5801  -12.4900   18.3374 C   0  0  0  0  0  0  0  0  0  0  0  0
  -23.0899  -29.0611   23.5332 C   0  0  0  0  0  0  0  0  0  0  0  0
  -28.1457  -12.1553   18.7527 C   0  0  0  0  0  0  0  0  0  0  0  0
  -30.4778  -12.7384   19.5483 C   0  0  0  0  0  0  0  0  0  0  0  0
  -28.5390  -13.4009   20.9162 C   0  0  0  0  0  0  0  0  0  0  0  0
  -22.4072  -27.6884   23.5684 C   0  0  1  0  0  0  0  0  0  0  0  0
  -23.2023  -26.0347   26.8950 C   0  0  1  0  0  0  0  0  0  0  0  0
  -27.5818  -13.2063   19.7289 C   0  0  2  0  0  0  0  0  0  0  0  0
  -33.1413  -25.2053   23.8171 C   0  0  0  0  0  0  0  0  0  0  0  0
  -27.6732  -27.0386   33.1406 C   0  0  0  0  0  0  0  0  0  0  0  0
  -27.0611  -28.5729   26.7264 C   0  0  0  0  0  0  0  0  0  0  0  0
  -28.4620  -28.5449   28.8012 C   0  0  0  0  0  0  0  0  0  0  0  0
  -26.3232  -29.8281   28.7597 C   0  0  0  0  0  0  0  0  0  0  0  0
  -31.7194  -23.7138   21.8520 C   0  0  0  0  0  0  0  0  0  0  0  0
  -25.0433  -24.3350   32.6403 C   0  0  0  0  0  0  0  0  0  0  0  0
  -32.8118  -21.6107   22.5323 C   0  0  0  0  0  0  0  0  0  0  0  0
  -27.3563  -20.6763   25.4287 C   0  0  0  0  0  0  0  0  0  1  0  0
  -26.2519  -27.3016   28.8228 C   0  0  1  0  0  0  0  0  0  0  0  0
  -26.4596  -26.3873   32.4958 C   0  0  2  0  0  0  0  0  0  0  0  0
  -27.0138  -28.5377   28.2670 C   0  0  0  0  0  0  0  0  0  0  0  0
  -25.8356  -11.5615   20.3007 N   0  0  0  0  0  0  0  0  0  0  0  0
  -26.1769  -12.8560   20.1822 N   0  0  0  0  0  0  0  0  0  0  0  0
  -24.4946  -26.0781   27.5823 N   0  0  0  0  0  0  0  0  0  0  0  0
  -29.8820  -13.7482   20.4259 N   0  0  0  0  0  0  0  0  0  0  0  0
  -25.3451  -15.0594   20.4347 N   0  0  0  0  0  0  0  0  0  0  0  0
  -21.8219  -12.4778   21.5828 N   0  0  0  0  0  0  0  0  0  0  0  0
  -29.1923  -19.8776   24.1181 N   0  0  0  0  0  0  0  0  0  0  0  0
  -29.9239  -15.8238   21.5450 N   0  0  0  0  0  0  0  0  0  0  0  0
  -22.3858  -27.1691   24.9191 N   0  0  0  0  0  0  0  0  0  0  0  0
  -26.1679  -27.2565   30.2786 N   0  0  0  0  0  0  0  0  0  0  0  0
  -32.6685  -23.0328   22.7357 N   0  0  0  0  0  0  0  0  0  0  0  0
  -26.2219  -25.0749   33.1605 N   0  3  0  0  0  0  0  0  0  0  0  0
  -31.4476  -21.3012   24.4921 O   0  0  0  0  0  0  0  0  0  0  0  0
  -22.5386  -14.6402   21.3206 O   0  0  0  0  0  0  0  0  0  0  0  0
  -24.5108  -26.2168   24.9380 O   0  0  0  0  0  0  0  0  0  0  0  0
  -24.0496  -28.1446   28.5661 O   0  0  0  0  0  0  0  0  0  0  0  0
  -34.2058  -23.1990   24.4911 O   0  0  0  0  0  0  0  0  0  0  0  0
  -27.2580  -18.5554   24.3110 O   0  0  0  0  0  0  0  0  0  0  0  0
  -27.2120  -25.2013   30.5299 O   0  0  0  0  0  0  0  0  0  0  0  0
  -31.7324  -15.1252   20.2710 O   0  0  0  0  0  0  0  0  0  0  0  0
  -21.7064   -6.9086   21.6603 O   0  0  0  0  0  0  0  0  0  0  0  0
  -26.0478  -20.3512   25.8960 O   0  0  0  0  0  0  0  0  0  1  0  0
  -24.2277   -2.9107   24.5000 F   0  0  0  0  0  0  0  0  0  0  0  0
  -20.6647   -5.9946   24.0524 F   0  0  0  0  0  0  0  0  0  0  0  0
  1  2  1  0  0  0  0
  1  6  2  0  0  0  0
  2  7  2  0  0  0  0
  3 10  2  0  0  0  0
  3 18  1  0  0  0  0
  4 11  1  0  0  0  0
  4 18  2  0  0  0  0
  5  9  2  0  0  0  0
  5 19  1  0  0  0  0
  6 21  1  0  0  0  0
  7 23  1  0  0  0  0
  8 12  2  0  0  0  0
  8 22  1  0  0  0  0
  9 25  1  0  0  0  0
 10 27  1  0  0  0  0
 11 27  2  0  0  0  0
 12 28  1  0  0  0  0
 13 14  2  0  0  0  0
 13 29  1  0  0  0  0
 14 30  1  0  0  0  0
 15 24  1  0  0  0  0
 15 28  2  0  0  0  0
 16 25  2  0  0  0  0
 16 26  1  0  0  0  0
 17 30  2  0  0  0  0
 17 31  1  0  0  0  0
 18 32  1  0  0  0  0
 19 26  2  0  0  0  0
 19 34  1  0  0  0  0
 20 32  1  0  0  0  0
 20 33  2  0  0  0  0
 20 35  1  0  0  0  0
 21 23  2  0  0  0  0
 21 42  1  0  0  0  0
 22 24  2  0  0  0  0
 22 43  1  0  0  0  0
 23 51  1  0  0  0  0
 24 44  1  0  0  0  0
 25 73  1  0  0  0  0
 26 72  1  0  0  0  0
 27 86  1  0  0  0  0
 28 87  1  0  0  0  0
 29 31  2  0  0  0  0
 29 86  1  0  0  0  0
 30 88  1  0  0  0  0
 31 89  1  0  0  0  0
 32 66  2  0  0  0  0
 33 67  1  0  0  0  0
 33 70  1  0  0  0  0
 34 61  1  0  0  0  0
 34 78  2  0  0  0  0
 35 71  1  0  0  0  0
 35 79  2  0  0  0  0
 36 52  1  0  0  0  0
 36 74  1  0  0  0  0
 36 80  2  0  0  0  0
 37 63  1  0  0  0  0
 37 68  1  0  0  0  0
 37 81  2  0  0  0  0
 38 54  1  0  0  0  0
 38 76  1  0  0  0  0
 38 82  2  0  0  0  0
 39 62  1  0  0  0  0
 39 72  1  0  0  0  0
 39 83  2  0  0  0  0
 40 64  1  0  0  0  0
 40 75  1  0  0  0  0
 40 84  2  0  0  0  0
 41 69  1  0  0  0  0
 41 73  1  0  0  0  0
 41 85  2  0  0  0  0
 42 45  1  0  0  0  0
 43 52  1  0  0  0  0
 44 68  1  0  0  0  0
 45 47  1  0  0  0  0
 46 48  1  0  0  0  0
 46 49  1  0  0  0  0
 47 51  1  0  0  0  0
 48 53  1  0  0  0  0
 49 69  1  0  0  0  0
 50 53  1  0  0  0  0
 50 69  1  0  0  0  0
 51 74  1  0  0  0  0
 52 68  1  0  0  0  0
 53 67  1  0  0  0  0
 55 64  1  0  0  0  0
 56 65  1  0  0  0  0
 57 65  1  0  0  0  0
 58 65  1  0  0  0  0
 59 76  1  0  0  0  0
 60 77  1  0  0  0  0
 61 76  1  0  0  0  0
 62 87  1  0  0  0  0
 63 65  1  0  0  0  0
 63 75  1  0  0  0  0
 64 77  1  0  0  0  0
 66 67  1  0  0  0  0
M  CHG  1  77   1
M  ISO  4  41 100  62 101  73 100  87 101
M  END
> <Batch ID>
0066

> <Smiles>
CNC(C)C(=O)NC(C(=O)N1Cc2cc([101O:1][101CH2:1]C(=O)Nc3cc([100NH:0][100C:0](=O)N4CCCC(n5nc(-c6ccc(Oc7ccc(F)cc7F)cc6)c(C(N)=O)c5N)C4)ccc3C(=O)CN(C)C(C)=O)ccc2CC1C(=O)NC1CCCc2ccccc21)C(C)(C)C

> <Shape>
0.229

> <Color>
0.204

> <Negative vol penalty>
0.000

$$$$

  -OEChem-04042323213D

 86 95  0     1  0  0  0  0  0999 V2000
  -28.1675  -37.7115   20.9941 C   0  0  0  0  0  0  0  0  0  0  0  0
  -28.1644  -36.6710   20.0706 C   0  0  0  0  0  0  0  0  0  0  0  0
  -24.4959   -9.0555   21.7834 C   0  0  0  0  0  0  0  0  0  0  0  0
  -23.3011  -10.3564   20.1351 C   0  0  0  0  0  0  0  0  0  0  0  0
  -28.1180  -37.4308   22.3589 C   0  0  0  0  0  0  0  0  0  0  0  0
  -28.1129  -35.3491   20.5115 C   0  0  0  0  0  0  0  0  0  0  0  0
  -25.5360  -28.9343   18.6338 C   0  0  0  0  0  0  0  0  0  0  0  0
  -25.7943  -20.0159   17.8197 C   0  0  0  0  0  0  0  0  0  0  0  0
  -25.4139  -18.8094   17.2322 C   0  0  0  0  0  0  0  0  0  0  0  0
  -23.2836   -8.6365   22.3315 C   0  0  0  0  0  0  0  0  0  0  0  0
  -22.0888   -9.9374   20.6832 C   0  0  0  0  0  0  0  0  0  0  0  0
  -25.9529  -27.6156   18.4578 C   0  0  0  0  0  0  0  0  0  0  0  0
  -20.8821   -6.3644   21.6223 C   0  0  0  0  0  0  0  0  0  0  0  0
  -20.7440   -5.0115   21.9324 C   0  0  0  0  0  0  0  0  0  0  0  0
  -25.7900  -27.2528   20.8371 C   0  0  0  0  0  0  0  0  0  0  0  0
  -28.3958  -22.8098   20.3722 C   0  0  0  0  0  0  0  0  0  0  0  0
  -27.3996  -18.8420   19.1915 C   0  0  0  0  0  0  0  0  0  0  0  0
  -20.3621   -5.5815   24.2490 C   0  0  0  0  0  0  0  0  0  0  0  0
  -24.5046   -9.9155   20.6852 C   0  0  0  0  0  0  0  0  0  0  0  0
  -26.4883   -9.7214   19.0930 C   0  0  0  0  0  0  0  0  0  0  0  0
  -28.0560  -36.1051   22.8165 C   0  0  0  0  0  0  0  0  0  0  0  0
  -25.2530  -29.4261   19.9162 C   0  0  0  0  0  0  0  0  0  0  0  0
  -28.0638  -35.0504   21.8838 C   0  0  0  0  0  0  0  0  0  0  0  0
  -25.3673  -28.5774   21.0264 C   0  0  0  0  0  0  0  0  0  0  0  0
  -27.0879  -23.3175   20.1757 C   0  0  0  0  0  0  0  0  0  0  0  0
  -26.7872  -20.0322   18.7993 C   0  0  0  0  0  0  0  0  0  0  0  0
  -26.0263  -17.6191   17.6244 C   0  0  0  0  0  0  0  0  0  0  0  0
  -27.0192  -17.6354   18.6040 C   0  0  0  0  0  0  0  0  0  0  0  0
  -22.0800   -9.0775   21.7814 C   0  0  0  0  0  0  0  0  0  0  0  0
  -26.0828  -26.7755   19.5598 C   0  0  0  0  0  0  0  0  0  0  0  0
  -20.7603   -7.3259   22.6255 C   0  0  0  0  0  0  0  0  0  0  0  0
  -20.4840   -4.6201   23.2457 C   0  0  0  0  0  0  0  0  0  0  0  0
  -20.5003   -6.9345   23.9388 C   0  0  0  0  0  0  0  0  0  0  0  0
  -25.7566  -10.3490   20.1190 C   0  0  0  0  0  0  0  0  0  0  0  0
  -27.5927  -10.5196   18.9212 C   0  0  0  0  0  0  0  0  0  0  0  0
  -28.4171  -21.5249   19.8763 C   0  0  0  0  0  0  0  0  0  0  0  0
  -26.3497  -22.3274   19.5657 C   0  0  0  0  0  0  0  0  0  0  0  0
  -26.1957   -8.5240   18.3607 C   0  0  0  0  0  0  0  0  0  0  0  0
  -26.4527  -31.7278   21.7510 C   0  0  0  0  0  0  0  0  0  0  0  0
  -23.9684  -30.9452   23.6844 C   0  0  0  0  0  0  0  0  0  0  0  0
  -21.6930  -28.6017   24.6730 C   0  0  0  0  0  0  0  0  0  0  0  0
  -28.6542  -16.3035   19.9822 C   0  0  0  0  0  0  0  0  0  0  0  0
  -28.0515  -35.8496   24.3029 C   0  0  0  0  0  0  0  0  0  0  0  0
  -24.7787  -30.8433   20.0863 C   0  0  0  0  0  0  0  0  0  0  0  0
  -25.0561  -29.0509   22.4219 C   0  0  0  0  0  0  0  0  0  0  0  0
  -27.6203  -34.4337   24.6762 C   0  0  0  0  0  0  0  0  0  0  0  0
  -30.4461  -13.5303   21.3147 C   0  0  0  0  0  0  0  0  0  0  0  0
  -28.3366  -33.4095   23.8017 C   0  0  0  0  0  0  0  0  0  0  0  0
  -29.5161  -12.3417   21.0604 C   0  0  0  0  0  0  0  0  0  0  0  0
  -29.6664  -14.7933   21.6762 C   0  0  0  0  0  0  0  0  0  0  0  0
  -27.6789  -13.9745   20.4726 C   0  0  0  0  0  0  0  0  0  0  0  0
  -27.9836  -33.6042   22.3222 C   0  0  1  0  0  0  0  0  0  0  0  0
  -25.0124  -31.3869   21.4925 C   0  0  1  0  0  0  0  0  0  0  0  0
  -28.4151  -12.6955   20.0415 C   0  0  2  0  0  0  0  0  0  0  0  0
  -19.8172  -28.2408   26.3003 C   0  0  0  0  0  0  0  0  0  0  0  0
  -25.9944  -30.6037   25.9403 C   0  0  0  0  0  0  0  0  0  0  0  0
  -24.2465  -29.3561   27.2273 C   0  0  0  0  0  0  0  0  0  0  0  0
  -23.8710  -31.7433   26.6088 C   0  0  0  0  0  0  0  0  0  0  0  0
  -19.7370  -28.1547   22.4974 C   0  0  0  0  0  0  0  0  0  0  0  0
  -26.6015  -24.6829   20.5637 C   0  0  0  0  0  0  0  0  0  1  0  0
  -23.7603  -29.9659   24.8143 C   0  0  1  0  0  0  0  0  0  0  0  0
  -20.1936  -28.6844   24.8952 C   0  0  2  0  0  0  0  0  0  0  0  0
  -24.4758  -30.4086   26.1217 C   0  0  0  0  0  0  0  0  0  0  0  0
  -26.3467  -11.4602   20.5675 N   0  0  0  0  0  0  0  0  0  0  0  0
  -27.1678  -21.2422   19.3888 N   0  0  0  0  0  0  0  0  0  0  0  0
  -27.4608  -11.5370   19.8199 N   0  0  0  0  0  0  0  0  0  0  0  0
  -24.6020  -30.4466   22.5374 N   0  0  0  0  0  0  0  0  0  0  0  0
  -28.6441  -15.0683   20.6642 N   0  0  0  0  0  0  0  0  0  0  0  0
  -25.6242  -16.4088   17.0164 N   0  0  0  0  0  0  0  0  0  0  0  0
  -28.6542  -10.4434   18.0906 N   0  0  0  0  0  0  0  0  0  0  0  0
  -25.0187   -7.8261   18.6640 N   0  0  0  0  0  0  0  0  0  0  0  0
  -27.6542  -16.4388   19.0197 N   0  0  0  0  0  0  0  0  0  0  0  0
  -26.6722  -33.0612   22.0397 N   0  0  0  0  0  0  0  0  0  0  0  0
  -22.3172  -29.7996   24.9497 N   0  0  0  0  0  0  0  0  0  0  0  0
  -19.4767  -27.8150   23.9200 N   0  3  0  0  0  0  0  0  0  0  0  0
  -26.9636   -8.0770   17.4752 O   0  0  0  0  0  0  0  0  0  0  0  0
  -27.3019  -30.8461   21.6943 O   0  0  0  0  0  0  0  0  0  0  0  0
  -23.5767  -32.1079   23.8121 O   0  0  0  0  0  0  0  0  0  0  0  0
  -22.2549  -27.5759   24.2955 O   0  0  0  0  0  0  0  0  0  0  0  0
  -29.5051  -17.1661   20.2143 O   0  0  0  0  0  0  0  0  0  0  0  0
  -29.4033  -20.6374   19.8272 O   0  0  0  0  0  0  0  0  0  0  0  0
  -25.0794  -22.3103   19.1778 O   0  0  0  0  0  0  0  0  0  0  0  0
  -20.8969   -8.6687   22.3158 O   0  0  0  0  0  0  0  0  0  0  0  0
  -26.4901  -25.4881   19.3909 O   0  0  0  0  0  0  0  0  0  1  0  0
  -20.3498   -3.3209   23.5431 F   0  0  0  0  0  0  0  0  0  0  0  0
  -20.3810   -7.8536   24.9066 F   0  0  0  0  0  0  0  0  0  0  0  0
  1  2  1  0  0  0  0
  1  5  2  0  0  0  0
  2  6  2  0  0  0  0
  3 10  2  0  0  0  0
  3 19  1  0  0  0  0
  4 11  1  0  0  0  0
  4 19  2  0  0  0  0
  5 21  1  0  0  0  0
  6 23  1  0  0  0  0
  7 12  2  0  0  0  0
  7 22  1  0  0  0  0
  8  9  2  0  0  0  0
  8 26  1  0  0  0  0
  9 27  1  0  0  0  0
 10 29  1  0  0  0  0
 11 29  2  0  0  0  0
 12 30  1  0  0  0  0
 13 14  2  0  0  0  0
 13 31  1  0  0  0  0
 14 32  1  0  0  0  0
 15 24  1  0  0  0  0
 15 30  2  0  0  0  0
 16 25  1  0  0  0  0
 16 36  2  0  0  0  0
 17 26  2  0  0  0  0
 17 28  1  0  0  0  0
 18 32  2  0  0  0  0
 18 33  1  0  0  0  0
 19 34  1  0  0  0  0
 20 34  1  0  0  0  0
 20 35  2  0  0  0  0
 20 38  1  0  0  0  0
 21 23  2  0  0  0  0
 21 43  1  0  0  0  0
 22 24  2  0  0  0  0
 22 44  1  0  0  0  0
 23 52  1  0  0  0  0
 24 45  1  0  0  0  0
 25 37  2  0  0  0  0
 25 60  1  0  0  0  0
 26 65  1  0  0  0  0
 27 28  2  0  0  0  0
 27 69  1  0  0  0  0
 28 72  1  0  0  0  0
 29 83  1  0  0  0  0
 30 84  1  0  0  0  0
 31 33  2  0  0  0  0
 31 83  1  0  0  0  0
 32 85  1  0  0  0  0
 33 86  1  0  0  0  0
 34 64  2  0  0  0  0
 35 66  1  0  0  0  0
 35 70  1  0  0  0  0
 36 65  1  0  0  0  0
 36 81  1  0  0  0  0
 37 65  1  0  0  0  0
 37 82  1  0  0  0  0
 38 71  1  0  0  0  0
 38 76  2  0  0  0  0
 39 53  1  0  0  0  0
 39 73  1  0  0  0  0
 39 77  2  0  0  0  0
 40 61  1  0  0  0  0
 40 67  1  0  0  0  0
 40 78  2  0  0  0  0
 41 62  1  0  0  0  0
 41 74  1  0  0  0  0
 41 79  2  0  0  0  0
 42 68  1  0  0  0  0
 42 72  1  0  0  0  0
 42 80  2  0  0  0  0
 43 46  1  0  0  0  0
 44 53  1  0  0  0  0
 45 67  1  0  0  0  0
 46 48  1  0  0  0  0
 47 49  1  0  0  0  0
 47 50  1  0  0  0  0
 48 52  1  0  0  0  0
 49 54  1  0  0  0  0
 50 68  1  0  0  0  0
 51 54  1  0  0  0  0
 51 68  1  0  0  0  0
 52 73  1  0  0  0  0
 53 67  1  0  0  0  0
 54 66  1  0  0  0  0
 55 62  1  0  0  0  0
 56 63  1  0  0  0  0
 57 63  1  0  0  0  0
 58 63  1  0  0  0  0
 59 75  1  0  0  0  0
 60 84  1  0  0  0  0
 61 63  1  0  0  0  0
 61 74  1  0  0  0  0
 62 75  1  0  0  0  0
 64 66  1  0  0  0  0
M  CHG  1  75   1
M  ISO  4  42 100  60 101  72 100  84 101
M  END
> <Batch ID>
0066

> <Smiles>
CNC(C)C(=O)NC(C(=O)N1Cc2cc([101O:1][101CH2:1]C3CC(=O)N(c4ccc(N)c([100NH:0][100C:0](=O)N5CCCC(n6nc(-c7ccc(Oc8ccc(F)cc8F)cc7)c(C(N)=O)c6N)C5)c4)C3=O)ccc2CC1C(=O)NC1CCCc2ccccc21)C(C)(C)C

> <Shape>
0.267

> <Color>
0.105

> <Negative vol penalty>
0.000

$$$$

  -OEChem-04042323213D

 86 95  0     1  0  0  0  0  0999 V2000
  -27.9719  -31.7369   14.7895 C   0  0  0  0  0  0  0  0  0  0  0  0
  -28.5496  -31.1205   15.8947 C   0  0  0  0  0  0  0  0  0  0  0  0
  -23.0865   -9.8513   20.8658 C   0  0  0  0  0  0  0  0  0  0  0  0
  -23.7723  -10.5876   23.0623 C   0  0  0  0  0  0  0  0  0  0  0  0
  -26.5961  -31.6472   14.5825 C   0  0  0  0  0  0  0  0  0  0  0  0
  -27.7515  -30.4147   16.7944 C   0  0  0  0  0  0  0  0  0  0  0  0
  -29.2789  -25.3528   19.8846 C   0  0  0  0  0  0  0  0  0  0  0  0
  -22.3556   -8.8126   21.4422 C   0  0  0  0  0  0  0  0  0  0  0  0
  -23.0413   -9.5489   23.6387 C   0  0  0  0  0  0  0  0  0  0  0  0
  -29.7282  -25.1497   21.1887 C   0  0  0  0  0  0  0  0  0  0  0  0
  -19.8102   -8.8904   24.3780 C   0  0  0  0  0  0  0  0  0  0  0  0
  -19.0169   -9.1944   25.4844 C   0  0  0  0  0  0  0  0  0  0  0  0
  -27.4685  -24.6749   21.8869 C   0  0  0  0  0  0  0  0  0  0  0  0
  -31.5694  -19.4754   22.5044 C   0  0  0  0  0  0  0  0  0  0  0  0
  -31.8647  -17.3074   21.4800 C   0  0  0  0  0  0  0  0  0  0  0  0
  -29.6478  -18.2366   21.7234 C   0  0  0  0  0  0  0  0  0  0  0  0
  -20.2683   -7.6137   26.8158 C   0  0  0  0  0  0  0  0  0  0  0  0
  -23.7950  -10.7388   21.6758 C   0  0  0  0  0  0  0  0  0  0  0  0
  -24.0957  -13.1112   20.7876 C   0  0  0  0  0  0  0  0  0  0  0  0
  -25.7820  -30.9319   15.4749 C   0  0  0  0  0  0  0  0  0  0  0  0
  -27.9171  -25.2290   19.5736 C   0  0  0  0  0  0  0  0  0  0  0  0
  -26.3633  -30.3164   16.5999 C   0  0  0  0  0  0  0  0  0  0  0  0
  -27.0048  -24.8745   20.5776 C   0  0  0  0  0  0  0  0  0  0  0  0
  -32.4068  -18.4430   22.0819 C   0  0  0  0  0  0  0  0  0  0  0  0
  -30.1899  -19.3722   22.3252 C   0  0  0  0  0  0  0  0  0  0  0  0
  -30.4852  -17.2041   21.3008 C   0  0  0  0  0  0  0  0  0  0  0  0
  -22.3330   -8.6613   22.8286 C   0  0  0  0  0  0  0  0  0  0  0  0
  -28.8226  -24.8135   22.1907 C   0  0  0  0  0  0  0  0  0  0  0  0
  -20.8324   -7.9481   24.4905 C   0  0  0  0  0  0  0  0  0  0  0  0
  -19.2460   -8.5560   26.7033 C   0  0  0  0  0  0  0  0  0  0  0  0
  -21.0615   -7.3097   25.7094 C   0  0  0  0  0  0  0  0  0  0  0  0
  -24.5507  -11.8117   21.0809 C   0  0  0  0  0  0  0  0  0  0  0  0
  -25.1855  -13.7406   20.2373 C   0  0  0  0  0  0  0  0  0  0  0  0
  -27.4693  -21.6665   23.1844 C   0  0  0  0  0  0  0  0  0  0  0  0
  -28.5341  -22.3468   23.6146 C   0  0  0  0  0  0  0  0  0  0  0  0
  -27.9621  -20.3968   22.6140 C   0  0  0  0  0  0  0  0  0  0  0  0
  -22.8035  -13.6971   20.9942 C   0  0  0  0  0  0  0  0  0  0  0  0
  -25.6832  -27.1959   18.4580 C   0  0  0  0  0  0  0  0  0  0  0  0
  -23.8898  -24.4937   18.3912 C   0  0  0  0  0  0  0  0  0  0  0  0
  -23.3426  -21.3491   19.5989 C   0  0  0  0  0  0  0  0  0  0  0  0
  -30.6239  -14.9348   20.2157 C   0  0  0  0  0  0  0  0  0  0  0  0
  -24.2933  -30.9024   15.2351 C   0  0  0  0  0  0  0  0  0  0  0  0
  -27.4523  -25.4251   18.1566 C   0  0  0  0  0  0  0  0  0  0  0  0
  -25.5353  -24.7094   20.2915 C   0  0  0  0  0  0  0  0  0  0  0  0
  -29.8135  -21.6199   23.3809 C   0  0  0  0  0  0  0  0  0  0  0  0
  -23.5692  -29.8205   16.0323 C   0  0  0  0  0  0  0  0  0  0  0  0
  -29.6288  -11.8779   18.6852 C   0  0  0  0  0  0  0  0  0  0  0  0
  -24.0347  -29.8260   17.4849 C   0  0  0  0  0  0  0  0  0  0  0  0
  -28.1815  -11.6951   19.1479 C   0  0  0  0  0  0  0  0  0  0  0  0
  -30.5008  -12.4916   19.7792 C   0  0  0  0  0  0  0  0  0  0  0  0
  -28.5380  -13.5565   20.8198 C   0  0  0  0  0  0  0  0  0  0  0  0
  -25.5342  -29.5210   17.5849 C   0  0  1  0  0  0  0  0  0  0  0  0
  -25.9711  -25.7767   18.0570 C   0  0  1  0  0  0  0  0  0  0  0  0
  -27.6066  -13.0014   19.7298 C   0  0  2  0  0  0  0  0  0  0  0  0
  -33.8817  -18.5532   22.2749 C   0  0  0  0  0  0  0  0  0  0  0  0
  -29.1604  -23.6519   25.6465 C   0  0  0  0  0  0  0  0  0  0  0  0
  -21.7780  -19.3994   19.3799 C   0  0  0  0  0  0  0  0  0  0  0  0
  -21.7987  -25.9906   20.0333 C   0  0  0  0  0  0  0  0  0  0  0  0
  -20.7499  -23.7839   20.5802 C   0  0  0  0  0  0  0  0  0  0  0  0
  -20.8630  -24.5561   18.2109 C   0  0  0  0  0  0  0  0  0  0  0  0
  -25.5165  -19.5576   18.6913 C   0  0  0  0  0  0  0  0  0  0  0  0
  -28.5244  -23.6902   24.2656 C   0  0  1  0  0  0  0  0  0  1  0  0
  -22.9772  -23.7919   19.3676 C   0  0  1  0  0  0  0  0  0  0  0  0
  -23.0726  -20.0321   18.8938 C   0  0  2  0  0  0  0  0  0  0  0  0
  -21.6245  -24.5356   19.5541 C   0  0  0  0  0  0  0  0  0  0  0  0
  -25.8298  -11.6251   20.7447 N   0  0  0  0  0  0  0  0  0  0  0  0
  -26.1878  -12.8157   20.2343 N   0  0  0  0  0  0  0  0  0  0  0  0
  -29.3562  -20.4009   22.7465 N   0  0  0  0  0  0  0  0  0  0  0  0
  -25.1289  -24.9178   18.8919 N   0  0  0  0  0  0  0  0  0  0  0  0
  -29.8958  -13.7279   20.2796 N   0  0  0  0  0  0  0  0  0  0  0  0
  -25.3745  -14.9893   19.7605 N   0  0  0  0  0  0  0  0  0  0  0  0
  -21.7976  -12.9101   21.5713 N   0  0  0  0  0  0  0  0  0  0  0  0
  -29.9343  -16.0500   20.6907 N   0  0  0  0  0  0  0  0  0  0  0  0
  -25.7737  -28.1033   17.4198 N   0  0  0  0  0  0  0  0  0  0  0  0
  -22.8439  -22.4204   18.8884 N   0  0  0  0  0  0  0  0  0  0  0  0
  -24.1864  -19.0736   19.1424 N   0  3  0  0  0  0  0  0  0  0  0  0
  -27.2377  -19.5417   22.1311 O   0  0  0  0  0  0  0  0  0  0  0  0
  -22.5438  -14.8784   20.6613 O   0  0  0  0  0  0  0  0  0  0  0  0
  -25.3985  -27.4487   19.6228 O   0  0  0  0  0  0  0  0  0  0  0  0
  -23.5201  -24.6532   17.2252 O   0  0  0  0  0  0  0  0  0  0  0  0
  -23.9333  -21.4200   20.6744 O   0  0  0  0  0  0  0  0  0  0  0  0
  -31.7642  -14.9808   19.7472 O   0  0  0  0  0  0  0  0  0  0  0  0
  -21.6196   -7.6480   23.3915 O   0  0  0  0  0  0  0  0  0  0  0  0
  -29.2584  -24.6153   23.4645 O   0  0  0  0  0  0  0  0  0  1  0  0
  -18.4851   -8.8491   27.7660 F   0  0  0  0  0  0  0  0  0  0  0  0
  -22.0428   -6.4044   25.8239 F   0  0  0  0  0  0  0  0  0  0  0  0
  1  2  1  0  0  0  0
  1  5  2  0  0  0  0
  2  6  2  0  0  0  0
  3  8  2  0  0  0  0
  3 18  1  0  0  0  0
  4  9  1  0  0  0  0
  4 18  2  0  0  0  0
  5 20  1  0  0  0  0
  6 22  1  0  0  0  0
  7 10  2  0  0  0  0
  7 21  1  0  0  0  0
  8 27  1  0  0  0  0
  9 27  2  0  0  0  0
 10 28  1  0  0  0  0
 11 12  2  0  0  0  0
 11 29  1  0  0  0  0
 12 30  1  0  0  0  0
 13 23  1  0  0  0  0
 13 28  2  0  0  0  0
 14 24  2  0  0  0  0
 14 25  1  0  0  0  0
 15 24  1  0  0  0  0
 15 26  2  0  0  0  0
 16 25  2  0  0  0  0
 16 26  1  0  0  0  0
 17 30  2  0  0  0  0
 17 31  1  0  0  0  0
 18 32  1  0  0  0  0
 19 32  1  0  0  0  0
 19 33  2  0  0  0  0
 19 37  1  0  0  0  0
 20 22  2  0  0  0  0
 20 42  1  0  0  0  0
 21 23  2  0  0  0  0
 21 43  1  0  0  0  0
 22 52  1  0  0  0  0
 23 44  1  0  0  0  0
 24 55  1  0  0  0  0
 25 68  1  0  0  0  0
 26 73  1  0  0  0  0
 27 83  1  0  0  0  0
 28 84  1  0  0  0  0
 29 31  2  0  0  0  0
 29 83  1  0  0  0  0
 30 85  1  0  0  0  0
 31 86  1  0  0  0  0
 32 66  2  0  0  0  0
 33 67  1  0  0  0  0
 33 71  1  0  0  0  0
 34 35  2  0  0  0  0
 34 36  1  0  0  0  0
 35 45  1  0  0  0  0
 35 62  1  0  0  0  0
 36 68  1  0  0  0  0
 36 77  2  0  0  0  0
 37 72  1  0  0  0  0
 37 78  2  0  0  0  0
 38 53  1  0  0  0  0
 38 74  1  0  0  0  0
 38 79  2  0  0  0  0
 39 63  1  0  0  0  0
 39 69  1  0  0  0  0
 39 80  2  0  0  0  0
 40 64  1  0  0  0  0
 40 75  1  0  0  0  0
 40 81  2  0  0  0  0
 41 70  1  0  0  0  0
 41 73  1  0  0  0  0
 41 82  2  0  0  0  0
 42 46  1  0  0  0  0
 43 53  1  0  0  0  0
 44 69  1  0  0  0  0
 45 68  1  0  0  0  0
 46 48  1  0  0  0  0
 47 49  1  0  0  0  0
 47 50  1  0  0  0  0
 48 52  1  0  0  0  0
 49 54  1  0  0  0  0
 50 70  1  0  0  0  0
 51 54  1  0  0  0  0
 51 70  1  0  0  0  0
 52 74  1  0  0  0  0
 53 69  1  0  0  0  0
 54 67  1  0  0  0  0
 56 62  1  0  0  0  0
 57 64  1  0  0  0  0
 58 65  1  0  0  0  0
 59 65  1  0  0  0  0
 60 65  1  0  0  0  0
 61 76  1  0  0  0  0
 62 84  1  0  0  0  0
 63 65  1  0  0  0  0
 63 75  1  0  0  0  0
 64 76  1  0  0  0  0
 66 67  1  0  0  0  0
M  CHG  1  76   1
M  ISO  4  41 100  62 101  73 100  84 101
M  END
> <Batch ID>
0066

> <Smiles>
CNC(C)C(=O)NC(C(=O)N1Cc2cc([101O:1][101C:1](C)=C3CC(=O)N(c4cc(C)cc([100NH:0][100C:0](=O)N5CCCC(n6nc(-c7ccc(Oc8ccc(F)cc8F)cc7)c(C(N)=O)c6N)C5)c4)C3)ccc2CC1C(=O)NC1CCCc2ccccc21)C(C)(C)C

> <Shape>
0.181

> <Color>
0.141

> <Negative vol penalty>
0.000

$$$$

  -OEChem-04042323213D

 85 93  0     1  0  0  0  0  0999 V2000
  -23.6154  -30.7372   20.2740 C   0  0  0  0  0  0  0  0  0  0  0  0
  -23.7865  -29.3636   20.4133 C   0  0  0  0  0  0  0  0  0  0  0  0
  -22.9549   -9.8821   20.0484 C   0  0  0  0  0  0  0  0  0  0  0  0
  -23.6105  -10.0717   22.3660 C   0  0  0  0  0  0  0  0  0  0  0  0
  -24.3551  -31.6145   21.0658 C   0  0  0  0  0  0  0  0  0  0  0  0
  -24.6984  -28.8666   21.3438 C   0  0  0  0  0  0  0  0  0  0  0  0
  -24.1653  -23.7336   24.6415 C   0  0  0  0  0  0  0  0  0  0  0  0
  -32.6567  -17.4530   23.3230 C   0  0  0  0  0  0  0  0  0  0  0  0
  -32.0756  -16.5113   22.4738 C   0  0  0  0  0  0  0  0  0  0  0  0
  -22.1554   -8.7837   20.3644 C   0  0  0  0  0  0  0  0  0  0  0  0
  -22.8110   -8.9733   22.6820 C   0  0  0  0  0  0  0  0  0  0  0  0
  -24.6886  -22.4523   24.4737 C   0  0  0  0  0  0  0  0  0  0  0  0
  -22.9949   -5.6061   22.4394 C   0  0  0  0  0  0  0  0  0  0  0  0
  -23.5363   -4.6295   23.2753 C   0  0  0  0  0  0  0  0  0  0  0  0
  -26.5034  -23.0050   25.9638 C   0  0  0  0  0  0  0  0  0  0  0  0
  -29.9028  -17.4871   22.8785 C   0  0  0  0  0  0  0  0  0  0  0  0
  -21.7681   -5.0185   24.8751 C   0  0  0  0  0  0  0  0  0  0  0  0
  -23.6825  -10.5261   21.0492 C   0  0  0  0  0  0  0  0  0  0  0  0
  -24.1291  -13.0161   20.7200 C   0  0  0  0  0  0  0  0  0  0  0  0
  -25.2695  -31.1278   22.0133 C   0  0  0  0  0  0  0  0  0  0  0  0
  -24.8141  -24.6654   25.4645 C   0  0  0  0  0  0  0  0  0  0  0  0
  -25.4521  -29.7382   22.1481 C   0  0  0  0  0  0  0  0  0  0  0  0
  -25.9849  -24.2967   26.1424 C   0  0  0  0  0  0  0  0  0  0  0  0
  -31.8608  -18.4117   23.9501 C   0  0  0  0  0  0  0  0  0  0  0  0
  -30.6987  -16.5284   22.2515 C   0  0  0  0  0  0  0  0  0  0  0  0
  -30.4839  -18.4287   23.7278 C   0  0  0  0  0  0  0  0  0  0  0  0
  -22.0834   -8.3293   21.6812 C   0  0  0  0  0  0  0  0  0  0  0  0
  -25.8594  -22.0888   25.1326 C   0  0  0  0  0  0  0  0  0  0  0  0
  -21.8400   -6.2889   22.8214 C   0  0  0  0  0  0  0  0  0  0  0  0
  -22.9230   -4.3357   24.4931 C   0  0  0  0  0  0  0  0  0  0  0  0
  -21.2267   -5.9951   24.0392 C   0  0  0  0  0  0  0  0  0  0  0  0
  -24.5089  -11.6605   20.7232 C   0  0  0  0  0  0  0  0  0  0  0  0
  -25.2654  -13.6901   20.3443 C   0  0  0  0  0  0  0  0  0  0  0  0
  -22.8625  -13.6126   21.0290 C   0  0  0  0  0  0  0  0  0  0  0  0
  -26.1629  -27.5069   25.0062 C   0  0  0  0  0  0  0  0  0  0  0  0
  -26.4365  -27.4640   28.2382 C   0  0  0  0  0  0  0  0  0  0  0  0
  -28.2818  -19.5371   24.2344 C   0  0  0  0  0  0  0  0  0  0  0  0
  -26.6103  -25.6235   31.1068 C   0  0  0  0  0  0  0  0  0  0  0  0
  -30.7553  -14.5532   20.6888 C   0  0  0  0  0  0  0  0  0  0  0  0
  -26.0809  -32.1158   22.8133 C   0  0  0  0  0  0  0  0  0  0  0  0
  -24.2221  -26.0348   25.6561 C   0  0  0  0  0  0  0  0  0  0  0  0
  -26.7086  -25.2533   27.0531 C   0  0  0  0  0  0  0  0  0  0  0  0
  -26.7537  -31.5013   24.0381 C   0  0  0  0  0  0  0  0  0  0  0  0
  -29.6538  -11.9740   18.4953 C   0  0  0  0  0  0  0  0  0  0  0  0
  -27.4341  -30.1866   23.6701 C   0  0  0  0  0  0  0  0  0  0  0  0
  -28.1858  -11.7740   18.8791 C   0  0  0  0  0  0  0  0  0  0  0  0
  -30.5223  -12.2792   19.7145 C   0  0  0  0  0  0  0  0  0  0  0  0
  -28.5853  -13.1938   20.9313 C   0  0  0  0  0  0  0  0  0  0  0  0
  -26.4136  -29.1601   23.1637 C   0  0  1  0  0  0  0  0  0  0  0  0
  -25.2457  -27.0696   26.1131 C   0  0  1  0  0  0  0  0  0  0  0  0
  -27.6603  -12.9482   19.7281 C   0  0  2  0  0  0  0  0  0  0  0  0
  -26.8707  -25.8671   33.5909 C   0  0  0  0  0  0  0  0  0  0  0  0
  -33.4096  -17.6734   26.4920 C   0  0  0  0  0  0  0  0  0  0  0  0
  -33.2266  -20.0716   27.1842 C   0  0  0  0  0  0  0  0  0  0  0  0
  -29.4124  -28.0272   27.8686 C   0  0  0  0  0  0  0  0  0  0  0  0
  -29.7696  -27.3233   30.2446 C   0  0  0  0  0  0  0  0  0  0  0  0
  -28.3338  -29.2981   29.7330 C   0  0  0  0  0  0  0  0  0  0  0  0
  -23.9839  -24.3606   31.6227 C   0  0  0  0  0  0  0  0  0  0  0  0
  -32.5104  -19.4080   24.8546 C   0  0  0  0  0  0  0  0  0  0  0  0
  -27.7890  -20.6998   25.0756 C   0  0  0  0  0  0  0  0  0  1  0  0
  -27.4775  -26.9760   29.2166 C   0  0  1  0  0  0  0  0  0  0  0  0
  -25.8881  -25.7580   32.4353 C   0  0  2  0  0  0  0  0  0  0  0  0
  -32.6005  -18.9633   26.3340 C   0  0  0  0  0  0  0  0  0  0  0  0
  -28.7360  -27.8885   29.2471 C   0  0  0  0  0  0  0  0  0  0  0  0
  -25.7866  -11.4822   20.3769 N   0  0  0  0  0  0  0  0  0  0  0  0
  -26.2194  -12.7345   20.1525 N   0  0  0  0  0  0  0  0  0  0  0  0
  -26.0938  -26.5826   27.2030 N   0  0  0  0  0  0  0  0  0  0  0  0
  -29.9657  -13.4050   20.4678 N   0  0  0  0  0  0  0  0  0  0  0  0
  -25.5314  -15.0010   20.1625 N   0  0  0  0  0  0  0  0  0  0  0  0
  -21.8012  -12.7744   21.3971 N   0  0  0  0  0  0  0  0  0  0  0  0
  -29.6598  -19.3933   24.3548 N   0  0  0  0  0  0  0  0  0  0  0  0
  -30.1089  -15.5715   21.3887 N   0  0  0  0  0  0  0  0  0  0  0  0
  -25.6891  -28.5782   24.2731 N   0  0  0  0  0  0  0  0  0  0  0  0
  -26.8008  -26.8482   30.5027 N   0  0  0  0  0  0  0  0  0  0  0  0
  -25.0139  -24.5745   32.6718 N   0  3  0  0  0  0  0  0  0  0  0  0
  -22.6729  -14.8509   20.9643 O   0  0  0  0  0  0  0  0  0  0  0  0
  -27.2227  -26.9171   24.8312 O   0  0  0  0  0  0  0  0  0  0  0  0
  -25.9404  -28.5830   28.3910 O   0  0  0  0  0  0  0  0  0  0  0  0
  -27.5119  -18.8583   23.5627 O   0  0  0  0  0  0  0  0  0  0  0  0
  -26.9729  -24.5406   30.6525 O   0  0  0  0  0  0  0  0  0  0  0  0
  -31.9101  -14.6385   20.2631 O   0  0  0  0  0  0  0  0  0  0  0  0
  -21.3032   -7.2576   21.9900 O   0  0  0  0  0  0  0  0  0  0  0  0
  -26.3728  -20.8390   24.9701 O   0  0  0  0  0  0  0  0  0  1  0  0
  -23.4422   -3.3968   25.2950 F   0  0  0  0  0  0  0  0  0  0  0  0
  -20.1164   -6.6468   24.4109 F   0  0  0  0  0  0  0  0  0  0  0  0
  1  2  1  0  0  0  0
  1  5  2  0  0  0  0
  2  6  2  0  0  0  0
  3 10  2  0  0  0  0
  3 18  1  0  0  0  0
  4 11  1  0  0  0  0
  4 18  2  0  0  0  0
  5 20  1  0  0  0  0
  6 22  1  0  0  0  0
  7 12  2  0  0  0  0
  7 21  1  0  0  0  0
  8  9  2  0  0  0  0
  8 24  1  0  0  0  0
  9 25  1  0  0  0  0
 10 27  1  0  0  0  0
 11 27  2  0  0  0  0
 12 28  1  0  0  0  0
 13 14  2  0  0  0  0
 13 29  1  0  0  0  0
 14 30  1  0  0  0  0
 15 23  1  0  0  0  0
 15 28  2  0  0  0  0
 16 25  2  0  0  0  0
 16 26  1  0  0  0  0
 17 30  2  0  0  0  0
 17 31  1  0  0  0  0
 18 32  1  0  0  0  0
 19 32  1  0  0  0  0
 19 33  2  0  0  0  0
 19 34  1  0  0  0  0
 20 22  2  0  0  0  0
 20 40  1  0  0  0  0
 21 23  2  0  0  0  0
 21 41  1  0  0  0  0
 22 49  1  0  0  0  0
 23 42  1  0  0  0  0
 24 26  2  0  0  0  0
 24 59  1  0  0  0  0
 25 72  1  0  0  0  0
 26 71  1  0  0  0  0
 27 82  1  0  0  0  0
 28 83  1  0  0  0  0
 29 31  2  0  0  0  0
 29 82  1  0  0  0  0
 30 84  1  0  0  0  0
 31 85  1  0  0  0  0
 32 65  2  0  0  0  0
 33 66  1  0  0  0  0
 33 69  1  0  0  0  0
 34 70  1  0  0  0  0
 34 76  2  0  0  0  0
 35 50  1  0  0  0  0
 35 73  1  0  0  0  0
 35 77  2  0  0  0  0
 36 61  1  0  0  0  0
 36 67  1  0  0  0  0
 36 78  2  0  0  0  0
 37 60  1  0  0  0  0
 37 71  1  0  0  0  0
 37 79  2  0  0  0  0
 38 62  1  0  0  0  0
 38 74  1  0  0  0  0
 38 80  2  0  0  0  0
 39 68  1  0  0  0  0
 39 72  1  0  0  0  0
 39 81  2  0  0  0  0
 40 43  1  0  0  0  0
 41 50  1  0  0  0  0
 42 67  1  0  0  0  0
 43 45  1  0  0  0  0
 44 46  1  0  0  0  0
 44 47  1  0  0  0  0
 45 49  1  0  0  0  0
 46 51  1  0  0  0  0
 47 68  1  0  0  0  0
 48 51  1  0  0  0  0
 48 68  1  0  0  0  0
 49 73  1  0  0  0  0
 50 67  1  0  0  0  0
 51 66  1  0  0  0  0
 52 62  1  0  0  0  0
 53 63  1  0  0  0  0
 54 63  1  0  0  0  0
 55 64  1  0  0  0  0
 56 64  1  0  0  0  0
 57 64  1  0  0  0  0
 58 75  1  0  0  0  0
 59 63  1  0  0  0  0
 60 83  1  0  0  0  0
 61 64  1  0  0  0  0
 61 74  1  0  0  0  0
 62 75  1  0  0  0  0
 65 66  1  0  0  0  0
M  CHG  1  75   1
M  ISO  4  39 100  60 101  72 100  83 101
M  END
> <Batch ID>
0066

> <Smiles>
CNC(C)C(=O)NC(C(=O)N1Cc2cc([101O:1][101CH2:1]C(=O)Nc3cc([100NH:0][100C:0](=O)N4CCCC(n5nc(-c6ccc(Oc7ccc(F)cc7F)cc6)c(C(N)=O)c5N)C4)ccc3CC(C)C)ccc2CC1C(=O)NC1CCCc2ccccc21)C(C)(C)C

> <Shape>
0.237

> <Color>
0.209

> <Negative vol penalty>
0.000

$$$$

  -OEChem-04042323213D

 85 94  0     1  0  0  0  0  0999 V2000
  -20.6448  -12.2792   24.4442 C   0  0  0  0  0  0  0  0  0  0  0  0
  -21.6023  -13.2756   24.6049 C   0  0  0  0  0  0  0  0  0  0  0  0
  -23.0737   -9.8697   19.9415 C   0  0  0  0  0  0  0  0  0  0  0  0
  -23.8317   -9.8779   22.2356 C   0  0  0  0  0  0  0  0  0  0  0  0
  -19.2973  -12.6201   24.3351 C   0  0  0  0  0  0  0  0  0  0  0  0
  -21.2129  -14.6136   24.6555 C   0  0  0  0  0  0  0  0  0  0  0  0
  -23.5228  -17.1701   28.3668 C   0  0  0  0  0  0  0  0  0  0  0  0
  -22.3288   -8.7173   20.1917 C   0  0  0  0  0  0  0  0  0  0  0  0
  -23.0866   -8.7255   22.4858 C   0  0  0  0  0  0  0  0  0  0  0  0
  -24.8394  -17.5694   28.1411 C   0  0  0  0  0  0  0  0  0  0  0  0
  -19.3787   -7.9241   21.6411 C   0  0  0  0  0  0  0  0  0  0  0  0
  -18.0722   -7.8785   21.1548 C   0  0  0  0  0  0  0  0  0  0  0  0
  -24.0667  -19.7886   27.5960 C   0  0  0  0  0  0  0  0  0  0  0  0
  -31.8514  -18.3565   24.2055 C   0  0  0  0  0  0  0  0  0  0  0  0
  -29.8793  -17.4566   23.1388 C   0  0  0  0  0  0  0  0  0  0  0  0
  -32.0636  -16.6057   22.5542 C   0  0  0  0  0  0  0  0  0  0  0  0
  -18.6315   -5.9339   19.8345 C   0  0  0  0  0  0  0  0  0  0  0  0
  -23.8252  -10.4499   20.9634 C   0  0  0  0  0  0  0  0  0  0  0  0
  -24.1691  -12.9747   20.8417 C   0  0  0  0  0  0  0  0  0  0  0  0
  -18.8902  -13.9622   24.3941 C   0  0  0  0  0  0  0  0  0  0  0  0
  -22.4655  -18.0757   28.1979 C   0  0  0  0  0  0  0  0  0  0  0  0
  -19.8588  -14.9728   24.5458 C   0  0  0  0  0  0  0  0  0  0  0  0
  -22.7378  -19.3991   27.8227 C   0  0  0  0  0  0  0  0  0  0  0  0
  -30.4659  -18.3402   24.0448 C   0  0  0  0  0  0  0  0  0  0  0  0
  -32.6502  -17.4893   23.4602 C   0  0  0  0  0  0  0  0  0  0  0  0
  -30.6781  -16.5894   22.3935 C   0  0  0  0  0  0  0  0  0  0  0  0
  -22.3352   -8.1452   21.4639 C   0  0  0  0  0  0  0  0  0  0  0  0
  -25.1113  -18.8780   27.7528 C   0  0  0  0  0  0  0  0  0  0  0  0
  -20.3117   -6.9747   21.2241 C   0  0  0  0  0  0  0  0  0  0  0  0
  -17.6986   -6.8834   20.2515 C   0  0  0  0  0  0  0  0  0  0  0  0
  -19.9381   -5.9796   20.3209 C   0  0  0  0  0  0  0  0  0  0  0  0
  -24.5954  -11.6400   20.7054 C   0  0  0  0  0  0  0  0  0  0  0  0
  -25.2621  -13.7231   20.4788 C   0  0  0  0  0  0  0  0  0  0  0  0
  -28.9365  -21.0448   25.9812 C   0  0  0  0  0  0  0  0  0  0  0  0
  -27.9456  -20.1511   25.9478 C   0  0  0  0  0  0  0  0  0  0  0  0
  -30.0736  -20.4658   25.2384 C   0  0  0  0  0  0  0  0  0  0  0  0
  -22.8986  -13.4918   21.2592 C   0  0  0  0  0  0  0  0  0  0  0  0
  -19.9231  -18.2263   26.2961 C   0  0  0  0  0  0  0  0  0  0  0  0
  -19.1934  -20.8044   28.1246 C   0  0  0  0  0  0  0  0  0  0  0  0
  -20.2841  -23.2993   30.1818 C   0  0  0  0  0  0  0  0  0  0  0  0
  -30.7290  -14.7647   20.6574 C   0  0  0  0  0  0  0  0  0  0  0  0
  -17.4268  -14.2851   24.2241 C   0  0  0  0  0  0  0  0  0  0  0  0
  -21.0531  -17.6367   28.4712 C   0  0  0  0  0  0  0  0  0  0  0  0
  -21.6401  -20.4154   27.6474 C   0  0  0  0  0  0  0  0  0  0  0  0
  -28.3107  -18.9158   25.1991 C   0  0  0  0  0  0  0  0  0  0  0  0
  -17.0603  -15.7004   24.6634 C   0  0  0  0  0  0  0  0  0  0  0  0
  -29.6147  -12.3498   18.2900 C   0  0  0  0  0  0  0  0  0  0  0  0
  -18.0592  -16.7085   24.1042 C   0  0  0  0  0  0  0  0  0  0  0  0
  -28.1745  -12.0597   18.7186 C   0  0  0  0  0  0  0  0  0  0  0  0
  -30.5290  -12.5789   19.4923 C   0  0  0  0  0  0  0  0  0  0  0  0
  -28.6214  -13.3059   20.8713 C   0  0  0  0  0  0  0  0  0  0  0  0
  -19.4732  -16.4338   24.6302 C   0  0  1  0  0  0  0  0  0  0  0  0
  -20.0117  -18.5035   27.7702 C   0  0  1  0  0  0  0  0  0  0  0  0
  -27.6495  -13.1324   19.6928 C   0  0  2  0  0  0  0  0  0  0  0  0
  -19.4593  -25.2750   31.4909 C   0  0  0  0  0  0  0  0  0  0  0  0
  -18.9458  -22.4095   25.5415 C   0  0  0  0  0  0  0  0  0  0  0  0
  -19.0705  -24.5014   26.9114 C   0  0  0  0  0  0  0  0  0  0  0  0
  -17.1859  -22.9022   27.2486 C   0  0  0  0  0  0  0  0  0  0  0  0
  -21.1969  -22.1303   32.7429 C   0  0  0  0  0  0  0  0  0  0  0  0
  -26.6027  -20.2993   26.5647 C   0  0  0  0  0  0  0  0  0  1  0  0
  -19.4985  -22.2815   28.0603 C   0  0  1  0  0  0  0  0  0  0  0  0
  -19.7790  -23.7887   31.5271 C   0  0  2  0  0  0  0  0  0  0  0  0
  -18.6959  -23.0042   26.9418 C   0  0  0  0  0  0  0  0  0  0  0  0
  -25.8606  -11.5429   20.2883 N   0  0  0  0  0  0  0  0  0  0  0  0
  -26.2386  -12.8261   20.1593 N   0  0  0  0  0  0  0  0  0  0  0  0
  -29.6694  -19.2030   24.7877 N   0  0  0  0  0  0  0  0  0  0  0  0
  -20.2751  -19.9360   27.9202 N   0  0  0  0  0  0  0  0  0  0  0  0
  -29.9701  -13.6108   20.3684 N   0  0  0  0  0  0  0  0  0  0  0  0
  -34.0512  -17.5053   23.6223 N   0  0  0  0  0  0  0  0  0  0  0  0
  -25.4736  -15.0543   20.4049 N   0  0  0  0  0  0  0  0  0  0  0  0
  -21.8857  -12.5837   21.5963 N   0  0  0  0  0  0  0  0  0  0  0  0
  -30.0816  -15.6908   21.4745 N   0  0  0  0  0  0  0  0  0  0  0  0
  -19.6101  -16.9162   25.9877 N   0  0  0  0  0  0  0  0  0  0  0  0
  -19.2606  -22.8061   29.4006 N   0  0  0  0  0  0  0  0  0  0  0  0
  -20.8051  -23.5542   32.5822 N   0  3  0  0  0  0  0  0  0  0  0  0
  -31.1426  -21.0329   25.0809 O   0  0  0  0  0  0  0  0  0  0  0  0
  -22.6633  -14.7227   21.3153 O   0  0  0  0  0  0  0  0  0  0  0  0
  -20.1224  -19.1342   25.4975 O   0  0  0  0  0  0  0  0  0  0  0  0
  -18.0393  -20.4347   28.3549 O   0  0  0  0  0  0  0  0  0  0  0  0
  -21.4677  -23.3529   29.8551 O   0  0  0  0  0  0  0  0  0  0  0  0
  -31.8586  -14.9321   20.1906 O   0  0  0  0  0  0  0  0  0  0  0  0
  -21.6082   -7.0208   21.7085 O   0  0  0  0  0  0  0  0  0  0  0  0
  -26.3954  -19.2701   27.5313 O   0  0  0  0  0  0  0  0  0  1  0  0
  -16.4435   -6.8388   19.7858 F   0  0  0  0  0  0  0  0  0  0  0  0
  -20.8296   -5.0640   19.9175 F   0  0  0  0  0  0  0  0  0  0  0  0
  1  2  1  0  0  0  0
  1  5  2  0  0  0  0
  2  6  2  0  0  0  0
  3  8  2  0  0  0  0
  3 18  1  0  0  0  0
  4  9  1  0  0  0  0
  4 18  2  0  0  0  0
  5 20  1  0  0  0  0
  6 22  1  0  0  0  0
  7 10  2  0  0  0  0
  7 21  1  0  0  0  0
  8 27  1  0  0  0  0
  9 27  2  0  0  0  0
 10 28  1  0  0  0  0
 11 12  2  0  0  0  0
 11 29  1  0  0  0  0
 12 30  1  0  0  0  0
 13 23  1  0  0  0  0
 13 28  2  0  0  0  0
 14 24  1  0  0  0  0
 14 25  2  0  0  0  0
 15 24  2  0  0  0  0
 15 26  1  0  0  0  0
 16 25  1  0  0  0  0
 16 26  2  0  0  0  0
 17 30  2  0  0  0  0
 17 31  1  0  0  0  0
 18 32  1  0  0  0  0
 19 32  1  0  0  0  0
 19 33  2  0  0  0  0
 19 37  1  0  0  0  0
 20 22  2  0  0  0  0
 20 42  1  0  0  0  0
 21 23  2  0  0  0  0
 21 43  1  0  0  0  0
 22 52  1  0  0  0  0
 23 44  1  0  0  0  0
 24 66  1  0  0  0  0
 25 69  1  0  0  0  0
 26 72  1  0  0  0  0
 27 82  1  0  0  0  0
 28 83  1  0  0  0  0
 29 31  2  0  0  0  0
 29 82  1  0  0  0  0
 30 84  1  0  0  0  0
 31 85  1  0  0  0  0
 32 64  2  0  0  0  0
 33 65  1  0  0  0  0
 33 70  1  0  0  0  0
 34 35  2  0  0  0  0
 34 36  1  0  0  0  0
 35 45  1  0  0  0  0
 35 60  1  0  0  0  0
 36 66  1  0  0  0  0
 36 76  2  0  0  0  0
 37 71  1  0  0  0  0
 37 77  2  0  0  0  0
 38 53  1  0  0  0  0
 38 73  1  0  0  0  0
 38 78  2  0  0  0  0
 39 61  1  0  0  0  0
 39 67  1  0  0  0  0
 39 79  2  0  0  0  0
 40 62  1  0  0  0  0
 40 74  1  0  0  0  0
 40 80  2  0  0  0  0
 41 68  1  0  0  0  0
 41 72  1  0  0  0  0
 41 81  2  0  0  0  0
 42 46  1  0  0  0  0
 43 53  1  0  0  0  0
 44 67  1  0  0  0  0
 45 66  1  0  0  0  0
 46 48  1  0  0  0  0
 47 49  1  0  0  0  0
 47 50  1  0  0  0  0
 48 52  1  0  0  0  0
 49 54  1  0  0  0  0
 50 68  1  0  0  0  0
 51 54  1  0  0  0  0
 51 68  1  0  0  0  0
 52 73  1  0  0  0  0
 53 67  1  0  0  0  0
 54 65  1  0  0  0  0
 55 62  1  0  0  0  0
 56 63  1  0  0  0  0
 57 63  1  0  0  0  0
 58 63  1  0  0  0  0
 59 75  1  0  0  0  0
 60 83  1  0  0  0  0
 61 63  1  0  0  0  0
 61 74  1  0  0  0  0
 62 75  1  0  0  0  0
 64 65  1  0  0  0  0
M  CHG  1  75   1
M  ISO  4  41 100  60 101  72 100  83 101
M  END
> <Batch ID>
0066

> <Smiles>
CNC(C)C(=O)NC(C(=O)N1Cc2cc([101O:1][101CH2:1]C3=CC(=O)N(c4cc(N)cc([100NH:0][100C:0](=O)N5CCCC(n6nc(-c7ccc(Oc8ccc(F)cc8F)cc7)c(C(N)=O)c6N)C5)c4)C3)ccc2CC1C(=O)NC1CCCc2ccccc21)C(C)(C)C

> <Shape>
0.146

> <Color>
0.184

> <Negative vol penalty>
0.000

$$$$

  -OEChem-04042323213D

 85 94  0     1  0  0  0  0  0999 V2000
  -16.9406  -30.6216   24.2464 C   0  0  0  0  0  0  0  0  0  0  0  0
  -18.0982  -30.4779   25.0045 C   0  0  0  0  0  0  0  0  0  0  0  0
  -29.5779  -17.0851   20.3254 C   0  0  0  0  0  0  0  0  0  0  0  0
  -27.3562  -17.5684   21.1423 C   0  0  0  0  0  0  0  0  0  0  0  0
  -16.8189  -29.9539   23.0285 C   0  0  0  0  0  0  0  0  0  0  0  0
  -19.1345  -29.6655   24.5456 C   0  0  0  0  0  0  0  0  0  0  0  0
  -25.1412  -30.5653   25.3296 C   0  0  0  0  0  0  0  0  0  0  0  0
  -24.8756  -24.5906   26.4648 C   0  0  0  0  0  0  0  0  0  0  0  0
  -25.7594  -24.2950   25.4270 C   0  0  0  0  0  0  0  0  0  0  0  0
  -29.3759  -15.7284   20.5786 C   0  0  0  0  0  0  0  0  0  0  0  0
  -27.1541  -16.2117   21.3955 C   0  0  0  0  0  0  0  0  0  0  0  0
  -26.0574  -30.0404   26.2400 C   0  0  0  0  0  0  0  0  0  0  0  0
  -26.3847  -13.4371   19.6264 C   0  0  0  0  0  0  0  0  0  0  0  0
  -25.1685  -12.8797   19.2314 C   0  0  0  0  0  0  0  0  0  0  0  0
  -26.7032  -28.3737   24.6201 C   0  0  0  0  0  0  0  0  0  0  0  0
  -27.5794  -25.2327   26.7099 C   0  0  0  0  0  0  0  0  0  0  0  0
  -24.7011  -12.2753   21.5234 C   0  0  0  0  0  0  0  0  0  0  0  0
  -28.5681  -18.0051   20.6073 C   0  0  0  0  0  0  0  0  0  0  0  0
  -28.4898  -20.1018   19.1563 C   0  0  0  0  0  0  0  0  0  0  0  0
  -17.8582  -29.1405   22.5498 C   0  0  0  0  0  0  0  0  0  0  0  0
  -24.9912  -29.9906   24.0593 C   0  0  0  0  0  0  0  0  0  0  0  0
  -19.0260  -28.9852   23.3207 C   0  0  0  0  0  0  0  0  0  0  0  0
  -25.7863  -28.8948   23.6944 C   0  0  0  0  0  0  0  0  0  0  0  0
  -25.3436  -25.2073   27.6252 C   0  0  0  0  0  0  0  0  0  0  0  0
  -26.6955  -25.5283   27.7477 C   0  0  0  0  0  0  0  0  0  0  0  0
  -27.1113  -24.6160   25.5495 C   0  0  0  0  0  0  0  0  0  0  0  0
  -28.1640  -15.2917   21.1136 C   0  0  0  0  0  0  0  0  0  0  0  0
  -26.8364  -28.9427   25.8864 C   0  0  0  0  0  0  0  0  0  0  0  0
  -26.7591  -13.4134   20.9699 C   0  0  0  0  0  0  0  0  0  0  0  0
  -24.3267  -12.2989   20.1799 C   0  0  0  0  0  0  0  0  0  0  0  0
  -25.9173  -12.8326   21.9184 C   0  0  0  0  0  0  0  0  0  0  0  0
  -28.7764  -19.4068   20.3465 C   0  0  0  0  0  0  0  0  0  0  0  0
  -28.8661  -21.3970   19.4158 C   0  0  0  0  0  0  0  0  0  0  0  0
  -27.1078  -25.5959   30.2152 C   0  0  0  0  0  0  0  0  0  0  0  0
  -27.9330  -19.6198   17.9261 C   0  0  0  0  0  0  0  0  0  0  0  0
  -22.6065  -28.5766   22.5045 C   0  0  0  0  0  0  0  0  0  0  0  0
  -24.7093  -28.6186   20.0349 C   0  0  0  0  0  0  0  0  0  0  0  0
  -28.2358  -28.0156   19.5685 C   0  0  0  0  0  0  0  0  0  0  0  0
  -29.3798  -24.5668   24.4550 C   0  0  0  0  0  0  0  0  0  0  0  0
  -17.6615  -28.4013   21.2500 C   0  0  0  0  0  0  0  0  0  0  0  0
  -24.0176  -30.5853   23.0791 C   0  0  0  0  0  0  0  0  0  0  0  0
  -25.6779  -28.2539   22.3358 C   0  0  0  0  0  0  0  0  0  0  0  0
  -27.9842  -26.4149   31.1274 C   0  0  0  0  0  0  0  0  0  0  0  0
  -18.9583  -27.8565   20.6569 C   0  0  0  0  0  0  0  0  0  0  0  0
  -28.1363  -27.7313   30.3957 C   0  0  0  0  0  0  0  0  0  0  0  0
  -31.9401  -23.9451   22.0601 C   0  0  0  0  0  0  0  0  0  0  0  0
  -19.7839  -27.1562   21.7314 C   0  0  0  0  0  0  0  0  0  0  0  0
  -31.3906  -22.7780   21.2367 C   0  0  0  0  0  0  0  0  0  0  0  0
  -31.5657  -23.8236   23.5362 C   0  0  0  0  0  0  0  0  0  0  0  0
  -29.5836  -22.4718   22.9768 C   0  0  0  0  0  0  0  0  0  0  0  0
  -20.1821  -28.1325   22.8449 C   0  0  1  0  0  0  0  0  0  0  0  0
  -23.5819  -29.6011   21.9979 C   0  0  1  0  0  0  0  0  0  0  0  0
  -29.8798  -22.5840   21.4724 C   0  0  2  0  0  0  0  0  0  0  0  0
  -28.0144  -27.3656   28.9160 C   0  0  2  0  0  0  0  0  0  0  0  0
  -24.3742  -25.5122   28.7206 C   0  0  0  0  0  0  0  0  0  0  0  0
  -29.8300  -28.9077   17.8480 C   0  0  0  0  0  0  0  0  0  0  0  0
  -24.0434  -26.0598   18.5121 C   0  0  0  0  0  0  0  0  0  0  0  0
  -26.4440  -25.9342   17.8124 C   0  0  0  0  0  0  0  0  0  0  0  0
  -25.0429  -27.8761   17.1133 C   0  0  0  0  0  0  0  0  0  0  0  0
  -30.0767  -29.0500   21.6421 C   0  0  0  0  0  0  0  0  0  0  0  0
  -27.4168  -28.5538   28.1597 C   0  0  0  0  0  0  0  0  0  1  0  0
  -25.7778  -27.6823   19.5246 C   0  0  1  0  0  0  0  0  0  0  0  0
  -29.3030  -29.0523   19.2672 C   0  0  2  0  0  0  0  0  0  0  0  0
  -25.3200  -26.8890   18.2681 C   0  0  0  0  0  0  0  0  0  0  0  0
  -29.2950  -20.1951   21.2918 N   0  0  0  0  0  0  0  0  0  0  0  0
  -29.3372  -21.3989   20.6958 N   0  0  0  0  0  0  0  0  0  0  0  0
  -27.1934  -26.1594   28.9264 N   0  0  0  0  0  0  0  0  0  0  0  0
  -24.7071  -28.8676   21.4147 N   0  0  0  0  0  0  0  0  0  0  0  0
  -30.1193  -23.6466   23.6824 N   0  0  0  0  0  0  0  0  0  0  0  0
  -28.8367  -22.5230   18.6718 N   0  0  0  0  0  0  0  0  0  0  0  0
  -27.6027  -18.2612   17.8292 N   0  0  0  0  0  0  0  0  0  0  0  0
  -28.0087  -24.3155   24.4950 N   0  0  0  0  0  0  0  0  0  0  0  0
  -21.2839  -28.9668   22.4154 N   0  0  0  0  0  0  0  0  0  0  0  0
  -26.9691  -28.4979   19.3150 N   0  0  0  0  0  0  0  0  0  0  0  0
  -30.4474  -28.9068   20.2107 N   0  3  0  0  0  0  0  0  0  0  0  0
  -26.5406  -24.5778   30.5868 O   0  0  0  0  0  0  0  0  0  0  0  0
  -27.7497  -20.3683   16.9363 O   0  0  0  0  0  0  0  0  0  0  0  0
  -23.0229  -27.5105   22.9423 O   0  0  0  0  0  0  0  0  0  0  0  0
  -23.9105  -29.1165   19.2376 O   0  0  0  0  0  0  0  0  0  0  0  0
  -28.4996  -26.8892   19.9834 O   0  0  0  0  0  0  0  0  0  0  0  0
  -29.9191  -25.5241   25.0161 O   0  0  0  0  0  0  0  0  0  0  0  0
  -27.9664  -13.9678   21.3605 O   0  0  0  0  0  0  0  0  0  0  0  0
  -27.7309  -28.4279   26.7734 O   0  0  0  0  0  0  0  0  0  1  0  0
  -23.1582  -11.7651   19.8006 F   0  0  0  0  0  0  0  0  0  0  0  0
  -26.2710  -12.8080   23.2107 F   0  0  0  0  0  0  0  0  0  0  0  0
  1  2  1  0  0  0  0
  1  5  2  0  0  0  0
  2  6  2  0  0  0  0
  3 10  2  0  0  0  0
  3 18  1  0  0  0  0
  4 11  1  0  0  0  0
  4 18  2  0  0  0  0
  5 20  1  0  0  0  0
  6 22  1  0  0  0  0
  7 12  2  0  0  0  0
  7 21  1  0  0  0  0
  8  9  2  0  0  0  0
  8 24  1  0  0  0  0
  9 26  1  0  0  0  0
 10 27  1  0  0  0  0
 11 27  2  0  0  0  0
 12 28  1  0  0  0  0
 13 14  2  0  0  0  0
 13 29  1  0  0  0  0
 14 30  1  0  0  0  0
 15 23  1  0  0  0  0
 15 28  2  0  0  0  0
 16 25  1  0  0  0  0
 16 26  2  0  0  0  0
 17 30  2  0  0  0  0
 17 31  1  0  0  0  0
 18 32  1  0  0  0  0
 19 32  1  0  0  0  0
 19 33  2  0  0  0  0
 19 35  1  0  0  0  0
 20 22  2  0  0  0  0
 20 40  1  0  0  0  0
 21 23  2  0  0  0  0
 21 41  1  0  0  0  0
 22 51  1  0  0  0  0
 23 42  1  0  0  0  0
 24 25  2  0  0  0  0
 24 55  1  0  0  0  0
 25 67  1  0  0  0  0
 26 72  1  0  0  0  0
 27 82  1  0  0  0  0
 28 83  1  0  0  0  0
 29 31  2  0  0  0  0
 29 82  1  0  0  0  0
 30 84  1  0  0  0  0
 31 85  1  0  0  0  0
 32 65  2  0  0  0  0
 33 66  1  0  0  0  0
 33 70  1  0  0  0  0
 34 43  1  0  0  0  0
 34 67  1  0  0  0  0
 34 76  2  0  0  0  0
 35 71  1  0  0  0  0
 35 77  2  0  0  0  0
 36 52  1  0  0  0  0
 36 73  1  0  0  0  0
 36 78  2  0  0  0  0
 37 62  1  0  0  0  0
 37 68  1  0  0  0  0
 37 79  2  0  0  0  0
 38 63  1  0  0  0  0
 38 74  1  0  0  0  0
 38 80  2  0  0  0  0
 39 69  1  0  0  0  0
 39 72  1  0  0  0  0
 39 81  2  0  0  0  0
 40 44  1  0  0  0  0
 41 52  1  0  0  0  0
 42 68  1  0  0  0  0
 43 45  1  0  0  0  0
 44 47  1  0  0  0  0
 45 54  1  0  0  0  0
 46 48  1  0  0  0  0
 46 49  1  0  0  0  0
 47 51  1  0  0  0  0
 48 53  1  0  0  0  0
 49 69  1  0  0  0  0
 50 53  1  0  0  0  0
 50 69  1  0  0  0  0
 51 73  1  0  0  0  0
 52 68  1  0  0  0  0
 53 66  1  0  0  0  0
 54 61  1  0  0  0  0
 54 67  1  0  0  0  0
 56 63  1  0  0  0  0
 57 64  1  0  0  0  0
 58 64  1  0  0  0  0
 59 64  1  0  0  0  0
 60 75  1  0  0  0  0
 61 83  1  0  0  0  0
 62 64  1  0  0  0  0
 62 74  1  0  0  0  0
 63 75  1  0  0  0  0
 65 66  1  0  0  0  0
M  CHG  1  75   1
M  ISO  4  39 100  61 101  72 100  83 101
M  END
> <Batch ID>
0066

> <Smiles>
CNC(C)C(=O)NC(C(=O)N1Cc2cc([101O:1][101CH2:1]C3CCC(=O)N3c3cc([100NH:0][100C:0](=O)N4CCCC(n5nc(-c6ccc(Oc7ccc(F)cc7F)cc6)c(C(N)=O)c5N)C4)ccc3C)ccc2CC1C(=O)NC1CCCc2ccccc21)C(C)(C)C

> <Shape>
0.245

> <Color>
0.097

> <Negative vol penalty>
0.000

$$$$

  -OEChem-04042323213D

 89 98  0     1  0  0  0  0  0999 V2000
  -23.8225  -37.6141   22.5958 C   0  0  0  0  0  0  0  0  0  0  0  0
  -24.7669  -36.8659   21.9003 C   0  0  0  0  0  0  0  0  0  0  0  0
  -24.7354   -9.4259   21.8509 C   0  0  0  0  0  0  0  0  0  0  0  0
  -23.3312  -11.3123   22.4048 C   0  0  0  0  0  0  0  0  0  0  0  0
  -23.0773  -37.0210   23.6141 C   0  0  0  0  0  0  0  0  0  0  0  0
  -24.9674  -35.5244   22.2235 C   0  0  0  0  0  0  0  0  0  0  0  0
  -26.7010  -29.2569   19.2185 C   0  0  0  0  0  0  0  0  0  0  0  0
  -24.0333   -8.6359   22.7611 C   0  0  0  0  0  0  0  0  0  0  0  0
  -22.6290  -10.5223   23.3150 C   0  0  0  0  0  0  0  0  0  0  0  0
  -27.6002  -28.2022   19.3695 C   0  0  0  0  0  0  0  0  0  0  0  0
  -21.0854   -6.9834   22.8701 C   0  0  0  0  0  0  0  0  0  0  0  0
  -20.7064   -5.7047   22.4615 C   0  0  0  0  0  0  0  0  0  0  0  0
  -26.1991  -27.2625   21.0938 C   0  0  0  0  0  0  0  0  0  0  0  0
  -26.5683  -18.8323   17.1312 C   0  0  0  0  0  0  0  0  0  0  0  0
  -28.2804  -19.8711   18.4827 C   0  0  0  0  0  0  0  0  0  0  0  0
  -21.9963   -4.7459   24.2654 C   0  0  0  0  0  0  0  0  0  0  0  0
  -24.3844  -10.7641   21.6727 C   0  0  0  0  0  0  0  0  0  0  0  0
  -24.8204  -11.7666   19.3678 C   0  0  0  0  0  0  0  0  0  0  0  0
  -23.2619  -35.6690   23.9434 C   0  0  0  0  0  0  0  0  0  0  0  0
  -25.5477  -29.3282   20.0130 C   0  0  0  0  0  0  0  0  0  0  0  0
  -24.2249  -34.9130   23.2480 C   0  0  0  0  0  0  0  0  0  0  0  0
  -25.2856  -28.3178   20.9492 C   0  0  0  0  0  0  0  0  0  0  0  0
  -26.2310  -20.0776   16.6012 C   0  0  0  0  0  0  0  0  0  0  0  0
  -26.9185  -21.2197   17.0119 C   0  0  0  0  0  0  0  0  0  0  0  0
  -27.9432  -21.1165   17.9527 C   0  0  0  0  0  0  0  0  0  0  0  0
  -27.5930  -18.7290   18.0721 C   0  0  0  0  0  0  0  0  0  0  0  0
  -22.9801   -9.1841   23.4932 C   0  0  0  0  0  0  0  0  0  0  0  0
  -27.3508  -27.2063   20.3092 C   0  0  0  0  0  0  0  0  0  0  0  0
  -21.9199   -7.1433   23.9764 C   0  0  0  0  0  0  0  0  0  0  0  0
  -21.1619   -4.5860   23.1591 C   0  0  0  0  0  0  0  0  0  0  0  0
  -22.3753   -6.0246   24.6740 C   0  0  0  0  0  0  0  0  0  0  0  0
  -25.1097  -11.5808   20.7330 C   0  0  0  0  0  0  0  0  0  0  0  0
  -25.7966  -12.6247   18.9238 C   0  0  0  0  0  0  0  0  0  0  0  0
  -28.1167  -23.4081   19.0239 C   0  0  0  0  0  0  0  0  0  0  0  0
  -23.7638  -11.2131   18.5723 C   0  0  0  0  0  0  0  0  0  0  0  0
  -24.4253  -31.3881   22.1579 C   0  0  0  0  0  0  0  0  0  0  0  0
  -21.8108  -29.4708   22.0558 C   0  0  0  0  0  0  0  0  0  0  0  0
  -20.5004  -26.3919   21.3851 C   0  0  0  0  0  0  0  0  0  0  0  0
  -28.9255  -17.1873   19.5532 C   0  0  0  0  0  0  0  0  0  0  0  0
  -22.4663  -35.0843   25.0834 C   0  0  0  0  0  0  0  0  0  0  0  0
  -24.5741  -30.4583   19.8193 C   0  0  0  0  0  0  0  0  0  0  0  0
  -24.0516  -28.3373   21.8126 C   0  0  0  0  0  0  0  0  0  0  0  0
  -22.4748  -33.5580   25.1124 C   0  0  0  0  0  0  0  0  0  0  0  0
  -30.0500  -14.2155   21.1598 C   0  0  0  0  0  0  0  0  0  0  0  0
  -23.8917  -33.0282   24.9161 C   0  0  0  0  0  0  0  0  0  0  0  0
  -28.8412  -13.2804   21.0797 C   0  0  0  0  0  0  0  0  0  0  0  0
  -30.3826  -23.8564   18.4501 C   0  0  0  0  0  0  0  0  0  0  0  0
  -29.6304  -15.6666   21.3877 C   0  0  0  0  0  0  0  0  0  0  0  0
  -30.1002  -22.3793   18.2615 C   0  0  0  0  0  0  0  0  0  0  0  0
  -27.4344  -15.2498   20.3520 C   0  0  0  0  0  0  0  0  0  0  0  0
  -24.4538  -33.4484   23.5526 C   0  0  1  0  0  0  0  0  0  0  0  0
  -29.2866  -24.2993   19.4085 C   0  0  1  0  0  0  0  0  0  0  0  0
  -23.6920  -30.7029   21.0397 C   0  0  1  0  0  0  0  0  0  0  0  0
  -27.8039  -13.7866   20.0582 C   0  0  2  0  0  0  0  0  0  0  0  0
  -26.5526  -22.5537   16.4398 C   0  0  0  0  0  0  0  0  0  0  0  0
  -18.3389  -25.1179   21.4332 C   0  0  0  0  0  0  0  0  0  0  0  0
  -22.0211  -29.2332   25.0905 C   0  0  0  0  0  0  0  0  0  0  0  0
  -20.4895  -27.2563   24.9721 C   0  0  0  0  0  0  0  0  0  0  0  0
  -19.6901  -29.4977   24.2238 C   0  0  0  0  0  0  0  0  0  0  0  0
  -20.5900  -25.9019   18.4678 C   0  0  0  0  0  0  0  0  0  0  0  0
  -28.9657  -25.7785   19.3046 C   0  0  0  0  0  0  0  0  0  1  0  0
  -21.3588  -28.2386   22.8018 C   0  0  1  0  0  0  0  0  0  0  0  0
  -19.2773  -25.9687   20.5917 C   0  0  2  0  0  0  0  0  0  0  0  0
  -25.1300  -20.1606   15.5947 C   0  0  0  0  0  0  0  0  0  0  0  0
  -20.9142  -28.5568   24.2573 C   0  0  0  0  0  0  0  0  0  0  0  0
  -26.1854  -12.2657   21.1300 N   0  0  0  0  0  0  0  0  0  0  0  0
  -26.5808  -12.8901   20.0076 N   0  0  0  0  0  0  0  0  0  0  0  0
  -28.6586  -22.2722   18.3878 N   0  0  0  0  0  0  0  0  0  0  0  0
  -23.1333  -29.4663   21.5902 N   0  0  0  0  0  0  0  0  0  0  0  0
  -28.6501  -16.0780   20.3804 N   0  0  0  0  0  0  0  0  0  0  0  0
  -26.0521  -13.1706   17.7158 N   0  0  0  0  0  0  0  0  0  0  0  0
  -22.8471  -10.3493   19.1868 N   0  0  0  0  0  0  0  0  0  0  0  0
  -27.9351  -17.4642   18.6114 N   0  0  0  0  0  0  0  0  0  0  0  0
  -23.9025  -32.6202   22.5016 N   0  0  0  0  0  0  0  0  0  0  0  0
  -20.3218  -27.6222   21.9814 N   0  0  0  0  0  0  0  0  0  0  0  0
  -19.6838  -25.1777   19.3959 N   0  3  0  0  0  0  0  0  0  0  0  0
  -26.9561  -23.6678   19.3065 O   0  0  0  0  0  0  0  0  0  0  0  0
  -23.6461  -11.4638   17.3489 O   0  0  0  0  0  0  0  0  0  0  0  0
  -25.3928  -30.8390   22.6718 O   0  0  0  0  0  0  0  0  0  0  0  0
  -21.0174  -30.3999   21.8861 O   0  0  0  0  0  0  0  0  0  0  0  0
  -21.5115  -25.6985   21.4707 O   0  0  0  0  0  0  0  0  0  0  0  0
  -29.9758  -17.8267   19.6533 O   0  0  0  0  0  0  0  0  0  0  0  0
  -22.2946   -8.4135   24.3813 O   0  0  0  0  0  0  0  0  0  0  0  0
  -28.2272  -26.1760   20.4591 O   0  0  0  0  0  0  0  0  0  1  0  0
  -20.7966   -3.3582   22.7675 F   0  0  0  0  0  0  0  0  0  0  0  0
  -23.1762   -6.1721   25.7383 F   0  0  0  0  0  0  0  0  0  0  0  0
  -24.5645  -18.9525   15.3050 F   0  0  0  0  0  0  0  0  0  0  0  0
  -24.0931  -20.9568   15.9869 F   0  0  0  0  0  0  0  0  0  0  0  0
  -25.5512  -20.6660   14.4000 F   0  0  0  0  0  0  0  0  0  0  0  0
  1  2  1  0  0  0  0
  1  5  2  0  0  0  0
  2  6  2  0  0  0  0
  3  8  2  0  0  0  0
  3 17  1  0  0  0  0
  4  9  1  0  0  0  0
  4 17  2  0  0  0  0
  5 19  1  0  0  0  0
  6 21  1  0  0  0  0
  7 10  2  0  0  0  0
  7 20  1  0  0  0  0
  8 27  1  0  0  0  0
  9 27  2  0  0  0  0
 10 28  1  0  0  0  0
 11 12  2  0  0  0  0
 11 29  1  0  0  0  0
 12 30  1  0  0  0  0
 13 22  1  0  0  0  0
 13 28  2  0  0  0  0
 14 23  2  0  0  0  0
 14 26  1  0  0  0  0
 15 25  1  0  0  0  0
 15 26  2  0  0  0  0
 16 30  2  0  0  0  0
 16 31  1  0  0  0  0
 17 32  1  0  0  0  0
 18 32  1  0  0  0  0
 18 33  2  0  0  0  0
 18 35  1  0  0  0  0
 19 21  2  0  0  0  0
 19 40  1  0  0  0  0
 20 22  2  0  0  0  0
 20 41  1  0  0  0  0
 21 51  1  0  0  0  0
 22 42  1  0  0  0  0
 23 24  1  0  0  0  0
 23 64  1  0  0  0  0
 24 25  2  0  0  0  0
 24 55  1  0  0  0  0
 25 68  1  0  0  0  0
 26 73  1  0  0  0  0
 27 83  1  0  0  0  0
 28 84  1  0  0  0  0
 29 31  2  0  0  0  0
 29 83  1  0  0  0  0
 30 85  1  0  0  0  0
 31 86  1  0  0  0  0
 32 66  2  0  0  0  0
 33 67  1  0  0  0  0
 33 71  1  0  0  0  0
 34 52  1  0  0  0  0
 34 68  1  0  0  0  0
 34 77  2  0  0  0  0
 35 72  1  0  0  0  0
 35 78  2  0  0  0  0
 36 53  1  0  0  0  0
 36 74  1  0  0  0  0
 36 79  2  0  0  0  0
 37 62  1  0  0  0  0
 37 69  1  0  0  0  0
 37 80  2  0  0  0  0
 38 63  1  0  0  0  0
 38 75  1  0  0  0  0
 38 81  2  0  0  0  0
 39 70  1  0  0  0  0
 39 73  1  0  0  0  0
 39 82  2  0  0  0  0
 40 43  1  0  0  0  0
 41 53  1  0  0  0  0
 42 69  1  0  0  0  0
 43 45  1  0  0  0  0
 44 46  1  0  0  0  0
 44 48  1  0  0  0  0
 45 51  1  0  0  0  0
 46 54  1  0  0  0  0
 47 49  1  0  0  0  0
 47 52  1  0  0  0  0
 48 70  1  0  0  0  0
 49 68  1  0  0  0  0
 50 54  1  0  0  0  0
 50 70  1  0  0  0  0
 51 74  1  0  0  0  0
 52 61  1  0  0  0  0
 53 69  1  0  0  0  0
 54 67  1  0  0  0  0
 56 63  1  0  0  0  0
 57 65  1  0  0  0  0
 58 65  1  0  0  0  0
 59 65  1  0  0  0  0
 60 76  1  0  0  0  0
 61 84  1  0  0  0  0
 62 65  1  0  0  0  0
 62 75  1  0  0  0  0
 63 76  1  0  0  0  0
 64 87  1  0  0  0  0
 64 88  1  0  0  0  0
 64 89  1  0  0  0  0
 66 67  1  0  0  0  0
M  CHG  1  76   1
M  ISO  4  39 100  61 101  73 100  84 101
M  END
> <Batch ID>
0066

> <Smiles>
CNC(C)C(=O)NC(C(=O)N1Cc2cc([101O:1][101CH2:1]C3CCN(c4cc([100NH:0][100C:0](=O)N5CCCC(n6nc(-c7ccc(Oc8ccc(F)cc8F)cc7)c(C(N)=O)c6N)C5)cc(C(F)(F)F)c4C)C3=O)ccc2CC1C(=O)NC1CCCc2ccccc21)C(C)(C)C

> <Shape>
0.329

> <Color>
0.086

> <Negative vol penalty>
0.000

$$$$

  -OEChem-04042323213D

 87 96  0     1  0  0  0  0  0999 V2000
  -28.1401  -33.4880   26.2823 C   0  0  0  0  0  0  0  0  0  0  0  0
  -28.2220  -32.2540   25.6452 C   0  0  0  0  0  0  0  0  0  0  0  0
  -24.4716  -10.0108   23.0716 C   0  0  0  0  0  0  0  0  0  0  0  0
  -23.4821  -12.2149   23.0608 C   0  0  0  0  0  0  0  0  0  0  0  0
  -26.8940  -34.0637   26.5268 C   0  0  0  0  0  0  0  0  0  0  0  0
  -27.0576  -31.5944   25.2531 C   0  0  0  0  0  0  0  0  0  0  0  0
  -27.3844  -29.6938   20.5706 C   0  0  0  0  0  0  0  0  0  0  0  0
  -27.4048  -19.9748   20.1997 C   0  0  0  0  0  0  0  0  0  0  0  0
  -27.3674  -18.6163   19.8854 C   0  0  0  0  0  0  0  0  0  0  0  0
  -23.9132   -9.7663   24.3262 C   0  0  0  0  0  0  0  0  0  0  0  0
  -22.9237  -11.9704   24.3154 C   0  0  0  0  0  0  0  0  0  0  0  0
  -28.1005  -28.5079   20.4133 C   0  0  0  0  0  0  0  0  0  0  0  0
  -20.8944   -8.9085   25.5849 C   0  0  0  0  0  0  0  0  0  0  0  0
  -20.2748   -7.6757   25.7895 C   0  0  0  0  0  0  0  0  0  0  0  0
  -26.0303  -27.2703   20.3727 C   0  0  0  0  0  0  0  0  0  0  0  0
  -29.7824  -18.5468   19.8993 C   0  0  0  0  0  0  0  0  0  0  0  0
  -21.8269   -7.1923   27.5768 C   0  0  0  0  0  0  0  0  0  0  0  0
  -24.2561  -11.2352   22.4389 C   0  0  0  0  0  0  0  0  0  0  0  0
  -24.2539  -11.2226   19.8879 C   0  0  0  0  0  0  0  0  0  0  0  0
  -25.7142  -33.4154   26.1289 C   0  0  0  0  0  0  0  0  0  0  0  0
  -25.9840  -29.6756   20.6412 C   0  0  0  0  0  0  0  0  0  0  0  0
  -25.7945  -32.1614   25.4937 C   0  0  0  0  0  0  0  0  0  0  0  0
  -25.2986  -28.4576   20.5284 C   0  0  0  0  0  0  0  0  0  0  0  0
  -29.8197  -19.9053   20.2135 C   0  0  0  0  0  0  0  0  0  0  0  0
  -28.6309  -20.6193   20.3637 C   0  0  0  0  0  0  0  0  0  0  0  0
  -28.5562  -17.9023   19.7353 C   0  0  0  0  0  0  0  0  0  0  0  0
  -23.1392  -10.7461   24.9481 C   0  0  0  0  0  0  0  0  0  0  0  0
  -27.4236  -27.2956   20.3173 C   0  0  0  0  0  0  0  0  0  0  0  0
  -21.9804   -9.2831   26.3761 C   0  0  0  0  0  0  0  0  0  0  0  0
  -20.7410   -6.8176   26.7855 C   0  0  0  0  0  0  0  0  0  0  0  0
  -22.4466   -8.4251   27.3721 C   0  0  0  0  0  0  0  0  0  0  0  0
  -24.8331  -11.4885   21.1432 C   0  0  0  0  0  0  0  0  0  0  0  0
  -25.1952  -11.6416   18.9797 C   0  0  0  0  0  0  0  0  0  0  0  0
  -28.1442  -22.6599   21.7229 C   0  0  0  0  0  0  0  0  0  0  0  0
  -22.9790  -10.6482   19.5712 C   0  0  0  0  0  0  0  0  0  0  0  0
  -29.6853  -24.6323   22.0471 C   0  0  0  0  0  0  0  0  0  0  0  0
  -23.8378  -30.4986   22.8368 C   0  0  0  0  0  0  0  0  0  0  0  0
  -21.7293  -29.8302   20.4641 C   0  0  0  0  0  0  0  0  0  0  0  0
  -21.0632  -28.1527   17.5677 C   0  0  0  0  0  0  0  0  0  0  0  0
  -29.6040  -15.6670   19.2330 C   0  0  0  0  0  0  0  0  0  0  0  0
  -24.3884  -34.0549   26.4571 C   0  0  0  0  0  0  0  0  0  0  0  0
  -25.2250  -30.9663   20.7842 C   0  0  0  0  0  0  0  0  0  0  0  0
  -23.7950  -28.3861   20.5779 C   0  0  0  0  0  0  0  0  0  0  0  0
  -23.2176  -33.4658   25.6744 C   0  0  0  0  0  0  0  0  0  0  0  0
  -29.9246  -12.2025   18.4771 C   0  0  0  0  0  0  0  0  0  0  0  0
  -23.2734  -31.9416   25.6970 C   0  0  0  0  0  0  0  0  0  0  0  0
  -28.6002  -11.6030   18.9552 C   0  0  0  0  0  0  0  0  0  0  0  0
  -30.4065  -13.3211   19.3992 C   0  0  0  0  0  0  0  0  0  0  0  0
  -28.1000  -13.7836   20.1308 C   0  0  0  0  0  0  0  0  0  0  0  0
  -29.1820  -23.1032   19.9463 C   0  0  0  0  0  0  0  0  0  0  0  0
  -24.5551  -31.4265   25.0311 C   0  0  1  0  0  0  0  0  0  0  0  0
  -23.8252  -30.7757   21.3600 C   0  0  1  0  0  0  0  0  0  0  0  0
  -27.5416  -12.6967   19.1978 C   0  0  2  0  0  0  0  0  0  0  0  0
  -28.6417  -23.9963   21.1033 C   0  0  1  0  0  0  0  0  0  0  0  0
  -31.1470  -20.5704   20.3831 C   0  0  0  0  0  0  0  0  0  0  0  0
  -29.2236  -24.9658   23.4400 C   0  0  0  0  0  0  0  0  0  0  0  0
  -19.2407  -27.7752   15.8844 C   0  0  0  0  0  0  0  0  0  0  0  0
  -20.3157  -27.9604   22.4174 C   0  0  0  0  0  0  0  0  0  0  0  0
  -19.1373  -26.9257   20.4658 C   0  0  0  0  0  0  0  0  0  0  0  0
  -18.7848  -29.3372   20.9979 C   0  0  0  0  0  0  0  0  0  0  0  0
  -22.6918  -29.2944   15.3761 C   0  0  0  0  0  0  0  0  0  0  0  0
  -27.5372  -24.9522   20.7064 C   0  0  0  0  0  0  0  0  0  1  0  0
  -20.9897  -28.5959   20.0075 C   0  0  1  0  0  0  0  0  0  0  0  0
  -20.4554  -28.6119   16.2546 C   0  0  2  0  0  0  0  0  0  0  0  0
  -19.8353  -28.2056   20.9731 C   0  0  0  0  0  0  0  0  0  0  0  0
  -26.0483  -12.0341   21.0452 N   0  0  0  0  0  0  0  0  0  0  0  0
  -26.2405  -12.1143   19.7175 N   0  0  0  0  0  0  0  0  0  0  0  0
  -28.6468  -21.9593   20.6734 N   0  0  0  0  0  0  0  0  0  0  0  0
  -23.0980  -29.6746   20.7252 N   0  0  0  0  0  0  0  0  0  0  0  0
  -29.3531  -14.3225   19.5794 N   0  0  0  0  0  0  0  0  0  0  0  0
  -25.2226  -11.6480   17.6301 N   0  0  0  0  0  0  0  0  0  0  0  0
  -22.1346  -10.2735   20.6252 N   0  0  0  0  0  0  0  0  0  0  0  0
  -28.5179  -16.5221   19.4168 N   0  0  0  0  0  0  0  0  0  0  0  0
  -24.4367  -31.4901   23.5901 N   0  0  0  0  0  0  0  0  0  0  0  0
  -20.5599  -28.8605   18.6386 N   0  0  0  0  0  0  0  0  0  0  0  0
  -21.4549  -28.5018   15.1546 N   0  3  0  0  0  0  0  0  0  0  0  0
  -27.5440  -22.3282   22.7201 O   0  0  0  0  0  0  0  0  0  0  0  0
  -22.6066  -10.4573   18.3887 O   0  0  0  0  0  0  0  0  0  0  0  0
  -30.8379  -24.8535   21.6791 O   0  0  0  0  0  0  0  0  0  0  0  0
  -23.3398  -29.4625   23.2614 O   0  0  0  0  0  0  0  0  0  0  0  0
  -21.1168  -30.8948   20.5778 O   0  0  0  0  0  0  0  0  0  0  0  0
  -21.8979  -27.2532   17.6368 O   0  0  0  0  0  0  0  0  0  0  0  0
  -30.6929  -16.0279   18.7791 O   0  0  0  0  0  0  0  0  0  0  0  0
  -22.5940  -10.5077   26.1722 O   0  0  0  0  0  0  0  0  0  0  0  0
  -28.1201  -26.1366   20.1644 O   0  0  0  0  0  0  0  0  0  1  0  0
  -20.1449   -5.6344   26.9829 F   0  0  0  0  0  0  0  0  0  0  0  0
  -23.4887   -8.7800   28.1362 F   0  0  0  0  0  0  0  0  0  0  0  0
  1  2  1  0  0  0  0
  1  5  2  0  0  0  0
  2  6  2  0  0  0  0
  3 10  2  0  0  0  0
  3 18  1  0  0  0  0
  4 11  1  0  0  0  0
  4 18  2  0  0  0  0
  5 20  1  0  0  0  0
  6 22  1  0  0  0  0
  7 12  2  0  0  0  0
  7 21  1  0  0  0  0
  8  9  2  0  0  0  0
  8 25  1  0  0  0  0
  9 26  1  0  0  0  0
 10 27  1  0  0  0  0
 11 27  2  0  0  0  0
 12 28  1  0  0  0  0
 13 14  2  0  0  0  0
 13 29  1  0  0  0  0
 14 30  1  0  0  0  0
 15 23  1  0  0  0  0
 15 28  2  0  0  0  0
 16 24  1  0  0  0  0
 16 26  2  0  0  0  0
 17 30  2  0  0  0  0
 17 31  1  0  0  0  0
 18 32  1  0  0  0  0
 19 32  1  0  0  0  0
 19 33  2  0  0  0  0
 19 35  1  0  0  0  0
 20 22  2  0  0  0  0
 20 41  1  0  0  0  0
 21 23  2  0  0  0  0
 21 42  1  0  0  0  0
 22 51  1  0  0  0  0
 23 43  1  0  0  0  0
 24 25  2  0  0  0  0
 24 55  1  0  0  0  0
 25 68  1  0  0  0  0
 26 73  1  0  0  0  0
 27 84  1  0  0  0  0
 28 85  1  0  0  0  0
 29 31  2  0  0  0  0
 29 84  1  0  0  0  0
 30 86  1  0  0  0  0
 31 87  1  0  0  0  0
 32 66  2  0  0  0  0
 33 67  1  0  0  0  0
 33 71  1  0  0  0  0
 34 54  1  0  0  0  0
 34 68  1  0  0  0  0
 34 77  2  0  0  0  0
 35 72  1  0  0  0  0
 35 78  2  0  0  0  0
 36 54  1  0  0  0  0
 36 56  1  0  0  0  0
 36 79  2  0  0  0  0
 37 52  1  0  0  0  0
 37 74  1  0  0  0  0
 37 80  2  0  0  0  0
 38 63  1  0  0  0  0
 38 69  1  0  0  0  0
 38 81  2  0  0  0  0
 39 64  1  0  0  0  0
 39 75  1  0  0  0  0
 39 82  2  0  0  0  0
 40 70  1  0  0  0  0
 40 73  1  0  0  0  0
 40 83  2  0  0  0  0
 41 44  1  0  0  0  0
 42 52  1  0  0  0  0
 43 69  1  0  0  0  0
 44 46  1  0  0  0  0
 45 47  1  0  0  0  0
 45 48  1  0  0  0  0
 46 51  1  0  0  0  0
 47 53  1  0  0  0  0
 48 70  1  0  0  0  0
 49 53  1  0  0  0  0
 49 70  1  0  0  0  0
 50 54  1  0  0  0  0
 50 68  1  0  0  0  0
 51 74  1  0  0  0  0
 52 69  1  0  0  0  0
 53 67  1  0  0  0  0
 54 62  1  0  0  0  0
 57 64  1  0  0  0  0
 58 65  1  0  0  0  0
 59 65  1  0  0  0  0
 60 65  1  0  0  0  0
 61 76  1  0  0  0  0
 62 85  1  0  0  0  0
 63 65  1  0  0  0  0
 63 75  1  0  0  0  0
 64 76  1  0  0  0  0
 66 67  1  0  0  0  0
M  CHG  1  76   1
M  ISO  4  40 100  62 101  73 100  85 101
M  END
> <Batch ID>
0066

> <Smiles>
CNC(C)C(=O)NC(C(=O)N1Cc2cc([101O:1][101CH2:1]C3(C(C)=O)CN(c4ccc([100NH:0][100C:0](=O)N5CCCC(n6nc(-c7ccc(Oc8ccc(F)cc8F)cc7)c(C(N)=O)c6N)C5)cc4C)C3=O)ccc2CC1C(=O)NC1CCCc2ccccc21)C(C)(C)C

> <Shape>
0.296

> <Color>
0.085

> <Negative vol penalty>
0.000

$$$$

  -OEChem-04042323213D

 85 93  0     1  0  0  0  0  0999 V2000
  -24.1604   -8.3335   21.0164 C   0  0  0  0  0  0  0  0  0  0  0  0
  -24.6843   -9.5406   20.5649 C   0  0  0  0  0  0  0  0  0  0  0  0
  -22.6749  -27.9011   20.6346 C   0  0  0  0  0  0  0  0  0  0  0  0
  -23.7961  -26.9963   22.5739 C   0  0  0  0  0  0  0  0  0  0  0  0
  -22.8442   -8.2732   21.4723 C   0  0  0  0  0  0  0  0  0  0  0  0
  -23.8919  -10.6880   20.5681 C   0  0  0  0  0  0  0  0  0  0  0  0
  -26.3420  -14.7361   22.3722 C   0  0  0  0  0  0  0  0  0  0  0  0
  -30.8296  -22.9620   21.9357 C   0  0  0  0  0  0  0  0  0  0  0  0
  -21.4405  -27.5735   21.1954 C   0  0  0  0  0  0  0  0  0  0  0  0
  -22.5617  -26.6687   23.1348 C   0  0  0  0  0  0  0  0  0  0  0  0
  -27.2424  -15.3691   21.5164 C   0  0  0  0  0  0  0  0  0  0  0  0
  -19.3589  -28.8318   23.5441 C   0  0  0  0  0  0  0  0  0  0  0  0
  -31.3958  -21.8954   22.6339 C   0  0  0  0  0  0  0  0  0  0  0  0
  -18.3474  -29.7908   23.4902 C   0  0  0  0  0  0  0  0  0  0  0  0
  -25.5846  -17.0516   21.0265 C   0  0  0  0  0  0  0  0  0  0  0  0
  -31.2490  -21.8188   19.8491 C   0  0  0  0  0  0  0  0  0  0  0  0
  -16.9674  -28.2641   22.2245 C   0  0  0  0  0  0  0  0  0  0  0  0
  -23.8527  -27.6124   21.3238 C   0  0  0  0  0  0  0  0  0  0  0  0
  -25.8384  -29.1560   20.8970 C   0  0  0  0  0  0  0  0  0  0  0  0
  -22.0383   -9.4225   21.4901 C   0  0  0  0  0  0  0  0  0  0  0  0
  -25.0502  -15.2509   22.5535 C   0  0  0  0  0  0  0  0  0  0  0  0
  -22.5633  -10.6427   21.0234 C   0  0  0  0  0  0  0  0  0  0  0  0
  -24.6706  -16.4248   21.8872 C   0  0  0  0  0  0  0  0  0  0  0  0
  -30.7562  -22.9237   20.5433 C   0  0  0  0  0  0  0  0  0  0  0  0
  -21.3839  -26.9573   22.4455 C   0  0  0  0  0  0  0  0  0  0  0  0
  -26.8628  -16.5254   20.8412 C   0  0  0  0  0  0  0  0  0  0  0  0
  -19.1747  -27.5890   22.9381 C   0  0  0  0  0  0  0  0  0  0  0  0
  -17.1517  -29.5069   22.8305 C   0  0  0  0  0  0  0  0  0  0  0  0
  -31.8886  -20.7905   21.9397 C   0  0  0  0  0  0  0  0  0  0  0  0
  -17.9789  -27.3051   22.2784 C   0  0  0  0  0  0  0  0  0  0  0  0
  -31.8152  -20.7522   20.5473 C   0  0  0  0  0  0  0  0  0  0  0  0
  -25.1282  -27.9501   20.7448 C   0  0  0  0  0  0  0  0  0  0  0  0
  -26.9803  -28.9780   20.1548 C   0  0  0  0  0  0  0  0  0  0  0  0
  -25.4965  -30.3319   21.6427 C   0  0  0  0  0  0  0  0  0  0  0  0
  -22.1097  -14.1761   22.0044 C   0  0  0  0  0  0  0  0  0  0  0  0
  -21.2467  -16.9106   23.5210 C   0  0  0  0  0  0  0  0  0  0  0  0
  -29.8869  -18.2338   19.8179 C   0  0  0  0  0  0  0  0  0  0  0  0
  -22.0574  -20.0980   24.4320 C   0  0  0  0  0  0  0  0  0  0  0  0
  -30.0289  -24.1284   18.4538 C   0  0  0  0  0  0  0  0  0  0  0  0
  -20.6066   -9.2981   21.9477 C   0  0  0  0  0  0  0  0  0  0  0  0
  -24.0998  -14.5713   23.5007 C   0  0  0  0  0  0  0  0  0  0  0  0
  -23.3023  -17.0293   22.0630 C   0  0  0  0  0  0  0  0  0  0  0  0
  -19.9513  -10.6388   22.2693 C   0  0  0  0  0  0  0  0  0  0  0  0
  -28.6292  -26.6180   16.3278 C   0  0  0  0  0  0  0  0  0  0  0  0
  -20.2377  -11.6515   21.1652 C   0  0  0  0  0  0  0  0  0  0  0  0
  -27.6416  -27.3558   17.2347 C   0  0  0  0  0  0  0  0  0  0  0  0
  -28.6656  -25.1207   16.6285 C   0  0  0  0  0  0  0  0  0  0  0  0
  -27.9173  -25.5134   18.9426 C   0  0  0  0  0  0  0  0  0  0  0  0
  -21.7429  -11.9143   21.0346 C   0  0  1  0  0  0  0  0  0  0  0  0
  -22.6368  -14.8950   23.2139 C   0  0  1  0  0  0  0  0  0  0  0  0
  -27.8933  -27.0346   18.7210 C   0  0  2  0  0  0  0  0  0  0  0  0
  -21.1342  -22.0987   25.6330 C   0  0  0  0  0  0  0  0  0  0  0  0
  -19.4971  -17.5508   21.1046 C   0  0  0  0  0  0  0  0  0  0  0  0
  -19.3680  -19.9170   21.9125 C   0  0  0  0  0  0  0  0  0  0  0  0
  -18.4515  -18.0698   23.3163 C   0  0  0  0  0  0  0  0  0  0  0  0
  -24.2126  -20.0208   26.4589 C   0  0  0  0  0  0  0  0  0  0  0  0
  -29.1273  -17.0265   20.3150 C   0  0  0  0  0  0  0  0  0  1  0  0
  -20.9562  -18.3273   23.0879 C   0  0  1  0  0  0  0  0  0  0  0  0
  -21.9524  -20.8232   25.7615 C   0  0  2  0  0  0  0  0  0  0  0  0
  -19.5934  -18.4540   22.3503 C   0  0  0  0  0  0  0  0  0  0  0  0
  -25.7654  -27.0710   19.9668 N   0  0  0  0  0  0  0  0  0  0  0  0
  -26.8880  -27.7252   19.6235 N   0  0  0  0  0  0  0  0  0  0  0  0
  -22.4067  -16.3245   22.9950 N   0  0  0  0  0  0  0  0  0  0  0  0
  -28.9124  -24.8929   18.0540 N   0  0  0  0  0  0  0  0  0  0  0  0
  -28.0442  -29.7725   19.9112 N   0  0  0  0  0  0  0  0  0  0  0  0
  -24.2859  -30.3468   22.3487 N   0  0  0  0  0  0  0  0  0  0  0  0
  -30.1797  -24.0069   19.8348 N   0  0  0  0  0  0  0  0  0  0  0  0
  -22.1945  -12.7994   22.0868 N   0  0  0  0  0  0  0  0  0  0  0  0
  -21.0655  -19.1512   24.2870 N   0  0  0  0  0  0  0  0  0  0  0  0
  -31.2909  -18.1601   20.0891 N   0  0  0  0  0  0  0  0  0  0  0  0
  -23.3085  -21.1833   26.2636 N   0  3  0  0  0  0  0  0  0  0  0  0
  -26.2348  -31.3457   21.6685 O   0  0  0  0  0  0  0  0  0  0  0  0
  -21.6579  -14.8226   21.0665 O   0  0  0  0  0  0  0  0  0  0  0  0
  -20.4766  -16.3474   24.3029 O   0  0  0  0  0  0  0  0  0  0  0  0
  -29.3531  -19.1743   19.2411 O   0  0  0  0  0  0  0  0  0  0  0  0
  -22.9297  -20.3491   23.6034 O   0  0  0  0  0  0  0  0  0  0  0  0
  -30.8101  -23.6419   17.6323 O   0  0  0  0  0  0  0  0  0  0  0  0
  -33.7287  -19.0038   20.2250 O   0  0  0  0  0  0  0  0  0  0  0  0
  -32.3097  -19.6592   18.2511 O   0  0  0  0  0  0  0  0  0  0  0  0
  -20.1795  -26.6377   22.9932 O   0  0  0  0  0  0  0  0  0  0  0  0
  -27.7394  -17.1448   20.0048 O   0  0  0  0  0  0  0  0  0  1  0  0
  -16.1799  -30.4274   22.7802 F   0  0  0  0  0  0  0  0  0  0  0  0
  -32.4316  -19.7720   22.6213 F   0  0  0  0  0  0  0  0  0  0  0  0
  -17.7957  -26.1125   21.6954 F   0  0  0  0  0  0  0  0  0  0  0  0
  -32.4386  -19.3544   19.6631 S   0  0  0  0  0  0  0  0  0  0  0  0
  1  2  1  0  0  0  0
  1  5  2  0  0  0  0
  2  6  2  0  0  0  0
  3  9  2  0  0  0  0
  3 18  1  0  0  0  0
  4 10  1  0  0  0  0
  4 18  2  0  0  0  0
  5 20  1  0  0  0  0
  6 22  1  0  0  0  0
  7 11  2  0  0  0  0
  7 21  1  0  0  0  0
  8 13  2  0  0  0  0
  8 24  1  0  0  0  0
  9 25  1  0  0  0  0
 10 25  2  0  0  0  0
 11 26  1  0  0  0  0
 12 14  2  0  0  0  0
 12 27  1  0  0  0  0
 13 29  1  0  0  0  0
 14 28  1  0  0  0  0
 15 23  1  0  0  0  0
 15 26  2  0  0  0  0
 16 24  2  0  0  0  0
 16 31  1  0  0  0  0
 17 28  2  0  0  0  0
 17 30  1  0  0  0  0
 18 32  1  0  0  0  0
 19 32  1  0  0  0  0
 19 33  2  0  0  0  0
 19 34  1  0  0  0  0
 20 22  2  0  0  0  0
 20 40  1  0  0  0  0
 21 23  2  0  0  0  0
 21 41  1  0  0  0  0
 22 49  1  0  0  0  0
 23 42  1  0  0  0  0
 24 67  1  0  0  0  0
 25 80  1  0  0  0  0
 26 81  1  0  0  0  0
 27 30  2  0  0  0  0
 27 80  1  0  0  0  0
 28 82  1  0  0  0  0
 29 31  2  0  0  0  0
 29 83  1  0  0  0  0
 30 84  1  0  0  0  0
 31 85  1  0  0  0  0
 32 61  2  0  0  0  0
 33 62  1  0  0  0  0
 33 65  1  0  0  0  0
 34 66  1  0  0  0  0
 34 72  2  0  0  0  0
 35 50  1  0  0  0  0
 35 68  1  0  0  0  0
 35 73  2  0  0  0  0
 36 58  1  0  0  0  0
 36 63  1  0  0  0  0
 36 74  2  0  0  0  0
 37 57  1  0  0  0  0
 37 70  1  0  0  0  0
 37 75  2  0  0  0  0
 38 59  1  0  0  0  0
 38 69  1  0  0  0  0
 38 76  2  0  0  0  0
 39 64  1  0  0  0  0
 39 67  1  0  0  0  0
 39 77  2  0  0  0  0
 40 43  1  0  0  0  0
 41 50  1  0  0  0  0
 42 63  1  0  0  0  0
 43 45  1  0  0  0  0
 44 46  1  0  0  0  0
 44 47  1  0  0  0  0
 45 49  1  0  0  0  0
 46 51  1  0  0  0  0
 47 64  1  0  0  0  0
 48 51  1  0  0  0  0
 48 64  1  0  0  0  0
 49 68  1  0  0  0  0
 50 63  1  0  0  0  0
 51 62  1  0  0  0  0
 52 59  1  0  0  0  0
 53 60  1  0  0  0  0
 54 60  1  0  0  0  0
 55 60  1  0  0  0  0
 56 71  1  0  0  0  0
 57 81  1  0  0  0  0
 58 60  1  0  0  0  0
 58 69  1  0  0  0  0
 59 71  1  0  0  0  0
 61 62  1  0  0  0  0
 70 85  1  0  0  0  0
 78 85  2  0  0  0  0
 79 85  2  0  0  0  0
M  CHG  1  71   1
M  ISO  4  39 100  57 101  67 100  81 101
M  END
> <Batch ID>
0066

> <Smiles>
CNC(C)C(=O)NC(C(=O)N1Cc2cc([101O:1][101CH2:1]C(=O)NS(=O)(=O)c3cc([100NH:0][100C:0](=O)N4CCCC(n5nc(-c6ccc(Oc7ccc(F)cc7F)cc6)c(C(N)=O)c5N)C4)ccc3F)ccc2CC1C(=O)NC1CCCc2ccccc21)C(C)(C)C

> <Shape>
0.231

> <Color>
0.071

> <Negative vol penalty>
0.000

$$$$

  -OEChem-04042323213D

 86 94  0     1  0  0  0  0  0999 V2000
  -22.7016   -7.9221   20.5763 C   0  0  0  0  0  0  0  0  0  0  0  0
  -22.1721   -9.0950   20.0477 C   0  0  0  0  0  0  0  0  0  0  0  0
  -28.7973  -26.5421   19.7806 C   0  0  0  0  0  0  0  0  0  0  0  0
  -26.8125  -25.6358   18.7432 C   0  0  0  0  0  0  0  0  0  0  0  0
  -23.4354   -7.9618   21.7611 C   0  0  0  0  0  0  0  0  0  0  0  0
  -22.3752  -10.3082   20.7044 C   0  0  0  0  0  0  0  0  0  0  0  0
  -23.2697  -17.2914   19.3808 C   0  0  0  0  0  0  0  0  0  0  0  0
  -17.5676  -26.4189   24.7214 C   0  0  0  0  0  0  0  0  0  0  0  0
  -18.3597  -25.2708   24.7255 C   0  0  0  0  0  0  0  0  0  0  0  0
  -29.4544  -25.3274   19.5846 C   0  0  0  0  0  0  0  0  0  0  0  0
  -27.4696  -24.4212   18.5471 C   0  0  0  0  0  0  0  0  0  0  0  0
  -22.7536  -18.5325   19.7510 C   0  0  0  0  0  0  0  0  0  0  0  0
  -28.2905  -21.7072   20.3886 C   0  0  0  0  0  0  0  0  0  0  0  0
  -27.5984  -20.5378   20.7033 C   0  0  0  0  0  0  0  0  0  0  0  0
  -24.1048  -18.4917   21.7489 C   0  0  0  0  0  0  0  0  0  0  0  0
  -19.9660  -26.3739   23.2971 C   0  0  0  0  0  0  0  0  0  0  0  0
  -27.8130  -19.7949   18.4143 C   0  0  0  0  0  0  0  0  0  0  0  0
  -27.4763  -26.6963   19.3600 C   0  0  0  0  0  0  0  0  0  0  0  0
  -26.7564  -29.0476   18.6814 C   0  0  0  0  0  0  0  0  0  0  0  0
  -23.6558   -9.1775   22.4275 C   0  0  0  0  0  0  0  0  0  0  0  0
  -24.2006  -16.6349   20.1987 C   0  0  0  0  0  0  0  0  0  0  0  0
  -23.1115  -10.3641   21.9000 C   0  0  0  0  0  0  0  0  0  0  0  0
  -24.6331  -17.2435   21.3856 C   0  0  0  0  0  0  0  0  0  0  0  0
  -17.9747  -27.5445   24.0051 C   0  0  0  0  0  0  0  0  0  0  0  0
  -19.1739  -27.5220   23.2930 C   0  0  0  0  0  0  0  0  0  0  0  0
  -19.5589  -25.2483   24.0134 C   0  0  0  0  0  0  0  0  0  0  0  0
  -28.7906  -24.2670   18.9678 C   0  0  0  0  0  0  0  0  0  0  0  0
  -23.1690  -19.1315   20.9366 C   0  0  0  0  0  0  0  0  0  0  0  0
  -28.7438  -21.9205   19.0868 C   0  0  0  0  0  0  0  0  0  0  0  0
  -27.3596  -19.5816   19.7162 C   0  0  0  0  0  0  0  0  0  0  0  0
  -28.5051  -20.9644   18.0997 C   0  0  0  0  0  0  0  0  0  0  0  0
  -26.7969  -27.9506   19.5627 C   0  0  0  0  0  0  0  0  0  0  0  0
  -25.9885  -29.9824   19.3319 C   0  0  0  0  0  0  0  0  0  0  0  0
  -27.3589  -29.2074   17.3902 C   0  0  0  0  0  0  0  0  0  0  0  0
  -24.2454  -13.8788   21.7815 C   0  0  0  0  0  0  0  0  0  0  0  0
  -27.3268  -14.7098   22.3616 C   0  0  0  0  0  0  0  0  0  0  0  0
  -20.1135  -22.8825   24.6752 C   0  0  0  0  0  0  0  0  0  0  0  0
  -29.6594  -17.1872   22.6229 C   0  0  0  0  0  0  0  0  0  0  0  0
  -21.7361  -29.5621   23.5261 C   0  0  0  0  0  0  0  0  0  0  0  0
  -24.4153   -9.1639   23.7304 C   0  0  0  0  0  0  0  0  0  0  0  0
  -24.7678  -15.3088   19.7720 C   0  0  0  0  0  0  0  0  0  0  0  0
  -25.6456  -16.5896   22.2888 C   0  0  0  0  0  0  0  0  0  0  0  0
  -24.9029  -10.5434   24.1657 C   0  0  0  0  0  0  0  0  0  0  0  0
  -24.7661  -31.4210   23.7281 C   0  0  0  0  0  0  0  0  0  0  0  0
  -23.7851  -11.5723   24.0289 C   0  0  0  0  0  0  0  0  0  0  0  0
  -25.6264  -30.8413   22.6040 C   0  0  0  0  0  0  0  0  0  0  0  0
  -23.9173  -30.3447   24.4014 C   0  0  0  0  0  0  0  0  0  0  0  0
  -23.9448  -28.9678   22.3576 C   0  0  0  0  0  0  0  0  0  0  0  0
  -23.3313  -11.7031   22.5699 C   0  0  1  0  0  0  0  0  0  0  0  0
  -25.3241  -14.4945   20.9360 C   0  0  1  0  0  0  0  0  0  0  0  0
  -24.7768  -30.0250   21.6116 C   0  0  2  0  0  0  0  0  0  0  0  0
  -17.1095  -28.7618   24.0151 C   0  0  0  0  0  0  0  0  0  0  0  0
  -19.1182  -28.7199   21.0741 C   0  0  0  0  0  0  0  0  0  0  0  0
  -31.9228  -18.2341   22.9027 C   0  0  0  0  0  0  0  0  0  0  0  0
  -26.7457  -14.3063   25.3297 C   0  0  0  0  0  0  0  0  0  0  0  0
  -28.8394  -15.5802   25.8414 C   0  0  0  0  0  0  0  0  0  0  0  0
  -28.9648  -13.4357   24.5734 C   0  0  0  0  0  0  0  0  0  0  0  0
  -30.2068  -17.0576   19.7173 C   0  0  0  0  0  0  0  0  0  0  0  0
  -21.2378  -21.8890   24.4167 C   0  0  0  0  0  0  0  0  0  0  0  0
  -21.4101  -21.5691   22.9359 C   0  0  0  0  0  0  0  0  0  0  0  0
  -22.5690  -20.6119   22.6986 C   0  0  0  0  0  0  0  0  0  1  0  0
  -19.6308  -28.7159   22.5208 C   0  0  2  0  0  0  0  0  0  0  0  0
  -28.0380  -15.4952   23.4369 C   0  0  1  0  0  0  0  0  0  0  0  0
  -31.0594  -17.3169   22.0506 C   0  0  2  0  0  0  0  0  0  0  0  0
  -28.1264  -14.7160   24.7795 C   0  0  0  0  0  0  0  0  0  0  0  0
  -26.1096  -28.1670   20.6873 N   0  0  0  0  0  0  0  0  0  0  0  0
  -25.6301  -29.4109   20.5172 N   0  0  0  0  0  0  0  0  0  0  0  0
  -26.1661  -15.2906   21.8313 N   0  0  0  0  0  0  0  0  0  0  0  0
  -23.1348  -29.6084   23.4057 N   0  0  0  0  0  0  0  0  0  0  0  0
  -25.5919  -31.2294   18.9998 N   0  0  0  0  0  0  0  0  0  0  0  0
  -28.1152  -28.1482   16.8702 N   0  0  0  0  0  0  0  0  0  0  0  0
  -20.3638  -24.0843   24.0188 N   0  0  0  0  0  0  0  0  0  0  0  0
  -24.2769  -12.4977   21.8158 N   0  0  0  0  0  0  0  0  0  0  0  0
  -29.3320  -15.8724   22.8786 N   0  0  0  0  0  0  0  0  0  0  0  0
  -21.0706  -28.8485   22.5369 N   0  0  0  0  0  0  0  0  0  0  0  0
  -31.0048  -17.8727   20.6689 N   0  3  0  0  0  0  0  0  0  0  0  0
  -27.2440  -30.2644   16.7247 O   0  0  0  0  0  0  0  0  0  0  0  0
  -23.4447  -14.6031   22.3611 O   0  0  0  0  0  0  0  0  0  0  0  0
  -27.7882  -13.6243   22.0003 O   0  0  0  0  0  0  0  0  0  0  0  0
  -19.1460  -22.6033   25.3753 O   0  0  0  0  0  0  0  0  0  0  0  0
  -28.9306  -18.1556   22.8265 O   0  0  0  0  0  0  0  0  0  0  0  0
  -21.1253  -30.1201   24.4439 O   0  0  0  0  0  0  0  0  0  0  0  0
  -29.4315  -23.0816   18.7762 O   0  0  0  0  0  0  0  0  0  0  0  0
  -22.6664  -20.3426   21.3006 O   0  0  0  0  0  0  0  0  0  1  0  0
  -26.6963  -18.4580   20.0188 F   0  0  0  0  0  0  0  0  0  0  0  0
  -28.9391  -21.1632   16.8475 F   0  0  0  0  0  0  0  0  0  0  0  0
  1  2  1  0  0  0  0
  1  5  2  0  0  0  0
  2  6  2  0  0  0  0
  3 10  2  0  0  0  0
  3 18  1  0  0  0  0
  4 11  1  0  0  0  0
  4 18  2  0  0  0  0
  5 20  1  0  0  0  0
  6 22  1  0  0  0  0
  7 12  2  0  0  0  0
  7 21  1  0  0  0  0
  8  9  2  0  0  0  0
  8 24  1  0  0  0  0
  9 26  1  0  0  0  0
 10 27  1  0  0  0  0
 11 27  2  0  0  0  0
 12 28  1  0  0  0  0
 13 14  2  0  0  0  0
 13 29  1  0  0  0  0
 14 30  1  0  0  0  0
 15 23  1  0  0  0  0
 15 28  2  0  0  0  0
 16 25  1  0  0  0  0
 16 26  2  0  0  0  0
 17 30  2  0  0  0  0
 17 31  1  0  0  0  0
 18 32  1  0  0  0  0
 19 32  1  0  0  0  0
 19 33  2  0  0  0  0
 19 34  1  0  0  0  0
 20 22  2  0  0  0  0
 20 40  1  0  0  0  0
 21 23  2  0  0  0  0
 21 41  1  0  0  0  0
 22 49  1  0  0  0  0
 23 42  1  0  0  0  0
 24 25  2  0  0  0  0
 24 52  1  0  0  0  0
 25 62  1  0  0  0  0
 26 72  1  0  0  0  0
 27 83  1  0  0  0  0
 28 84  1  0  0  0  0
 29 31  2  0  0  0  0
 29 83  1  0  0  0  0
 30 85  1  0  0  0  0
 31 86  1  0  0  0  0
 32 66  2  0  0  0  0
 33 67  1  0  0  0  0
 33 70  1  0  0  0  0
 34 71  1  0  0  0  0
 34 77  2  0  0  0  0
 35 50  1  0  0  0  0
 35 73  1  0  0  0  0
 35 78  2  0  0  0  0
 36 63  1  0  0  0  0
 36 68  1  0  0  0  0
 36 79  2  0  0  0  0
 37 59  1  0  0  0  0
 37 72  1  0  0  0  0
 37 80  2  0  0  0  0
 38 64  1  0  0  0  0
 38 74  1  0  0  0  0
 38 81  2  0  0  0  0
 39 69  1  0  0  0  0
 39 75  1  0  0  0  0
 39 82  2  0  0  0  0
 40 43  1  0  0  0  0
 41 50  1  0  0  0  0
 42 68  1  0  0  0  0
 43 45  1  0  0  0  0
 44 46  1  0  0  0  0
 44 47  1  0  0  0  0
 45 49  1  0  0  0  0
 46 51  1  0  0  0  0
 47 69  1  0  0  0  0
 48 51  1  0  0  0  0
 48 69  1  0  0  0  0
 49 73  1  0  0  0  0
 50 68  1  0  0  0  0
 51 67  1  0  0  0  0
 53 62  1  0  0  0  0
 54 64  1  0  0  0  0
 55 65  1  0  0  0  0
 56 65  1  0  0  0  0
 57 65  1  0  0  0  0
 58 76  1  0  0  0  0
 59 60  1  0  0  0  0
 60 61  1  0  0  0  0
 61 84  1  0  0  0  0
 62 75  1  0  0  0  0
 63 65  1  0  0  0  0
 63 74  1  0  0  0  0
 64 76  1  0  0  0  0
 66 67  1  0  0  0  0
M  CHG  1  76   1
M  ISO  4  39 100  61 101  75 100  84 101
M  END
> <Batch ID>
0066

> <Smiles>
CNC(C)C(=O)NC(C(=O)N1Cc2cc([101O:1][101CH2:1]CCC(=O)Nc3ccc(C)c(C(C)[100NH:0][100C:0](=O)N4CCCC(n5nc(-c6ccc(Oc7ccc(F)cc7F)cc6)c(C(N)=O)c5N)C4)c3)ccc2CC1C(=O)NC1CCCc2ccccc21)C(C)(C)C

> <Shape>
0.247

> <Color>
0.057

> <Negative vol penalty>
0.000

$$$$

  -OEChem-04042323213D

 86 94  0     1  0  0  0  0  0999 V2000
  -32.5320  -33.7792   16.8294 C   0  0  0  0  0  0  0  0  0  0  0  0
  -33.2442  -33.2249   17.8881 C   0  0  0  0  0  0  0  0  0  0  0  0
  -23.0839   -9.7472   20.0017 C   0  0  0  0  0  0  0  0  0  0  0  0
  -23.7671   -9.9146   22.3130 C   0  0  0  0  0  0  0  0  0  0  0  0
  -31.1648  -33.5350   16.7068 C   0  0  0  0  0  0  0  0  0  0  0  0
  -32.5893  -32.4269   18.8256 C   0  0  0  0  0  0  0  0  0  0  0  0
  -34.6373  -25.6170   19.9755 C   0  0  0  0  0  0  0  0  0  0  0  0
  -22.3597   -8.5928   20.2993 C   0  0  0  0  0  0  0  0  0  0  0  0
  -23.0429   -8.7602   22.6107 C   0  0  0  0  0  0  0  0  0  0  0  0
  -35.1035  -24.3737   20.4033 C   0  0  0  0  0  0  0  0  0  0  0  0
  -23.4307   -5.4188   22.2706 C   0  0  0  0  0  0  0  0  0  0  0  0
  -24.0462   -4.4557   23.0700 C   0  0  0  0  0  0  0  0  0  0  0  0
  -30.9447  -17.8082   20.4245 C   0  0  0  0  0  0  0  0  0  0  0  0
  -30.3001  -20.0149   21.1675 C   0  0  0  0  0  0  0  0  0  0  0  0
  -33.2556  -24.2024   21.9537 C   0  0  0  0  0  0  0  0  0  0  0  0
  -29.2519  -18.0623   22.1295 C   0  0  0  0  0  0  0  0  0  0  0  0
  -22.2857   -4.6900   24.7079 C   0  0  0  0  0  0  0  0  0  0  0  0
  -23.7877  -10.4080   21.0085 C   0  0  0  0  0  0  0  0  0  0  0  0
  -31.0792  -19.1946   20.3515 C   0  0  0  0  0  0  0  0  0  0  0  0
  -24.0733  -12.9290   20.7425 C   0  0  0  0  0  0  0  0  0  0  0  0
  -30.4947  -32.7257   17.6378 C   0  0  0  0  0  0  0  0  0  0  0  0
  -33.4686  -26.1514   20.5249 C   0  0  0  0  0  0  0  0  0  0  0  0
  -31.2116  -32.1728   18.7161 C   0  0  0  0  0  0  0  0  0  0  0  0
  -32.7769  -25.4416   21.5202 C   0  0  0  0  0  0  0  0  0  0  0  0
  -30.0309  -17.2420   21.3135 C   0  0  0  0  0  0  0  0  0  0  0  0
  -22.3392   -8.0993   21.6038 C   0  0  0  0  0  0  0  0  0  0  0  0
  -34.4145  -23.6683   21.3902 C   0  0  0  0  0  0  0  0  0  0  0  0
  -22.2427   -6.0176   22.6898 C   0  0  0  0  0  0  0  0  0  0  0  0
  -23.4737   -4.0913   24.2886 C   0  0  0  0  0  0  0  0  0  0  0  0
  -29.3864  -19.4487   22.0565 C   0  0  0  0  0  0  0  0  0  0  0  0
  -21.6702   -5.6532   23.9084 C   0  0  0  0  0  0  0  0  0  0  0  0
  -24.5364  -11.6002   20.7016 C   0  0  0  0  0  0  0  0  0  0  0  0
  -25.1588  -13.6826   20.3679 C   0  0  0  0  0  0  0  0  0  0  0  0
  -22.7778  -13.4367   21.0882 C   0  0  0  0  0  0  0  0  0  0  0  0
  -32.0401  -19.7920   19.4129 C   0  0  0  0  0  0  0  0  0  0  0  0
  -31.0072  -28.9826   20.5692 C   0  0  0  0  0  0  0  0  0  0  0  0
  -29.3860  -26.3888   20.8016 C   0  0  0  0  0  0  0  0  0  0  0  0
  -33.9309  -19.7678   21.1170 C   0  0  0  0  0  0  0  0  0  0  0  0
  -28.1695  -23.5677   20.1203 C   0  0  0  0  0  0  0  0  0  0  0  0
  -30.5899  -14.8770   20.6497 C   0  0  0  0  0  0  0  0  0  0  0  0
  -29.0067  -32.5289   17.4903 C   0  0  0  0  0  0  0  0  0  0  0  0
  -32.9635  -27.5150   20.1383 C   0  0  0  0  0  0  0  0  0  0  0  0
  -31.5433  -26.0711   22.1075 C   0  0  0  0  0  0  0  0  0  0  0  0
  -28.4614  -31.3662   18.3156 C   0  0  0  0  0  0  0  0  0  0  0  0
  -29.6120  -12.2945   18.4022 C   0  0  0  0  0  0  0  0  0  0  0  0
  -29.0139  -31.4148   19.7366 C   0  0  0  0  0  0  0  0  0  0  0  0
  -28.1663  -11.9929   18.8034 C   0  0  0  0  0  0  0  0  0  0  0  0
  -30.4812  -12.6201   19.6155 C   0  0  0  0  0  0  0  0  0  0  0  0
  -28.5129  -13.3788   20.8882 C   0  0  0  0  0  0  0  0  0  0  0  0
  -30.5416  -31.2816   19.7393 C   0  0  1  0  0  0  0  0  0  0  0  0
  -31.4273  -27.6101   20.1320 C   0  0  1  0  0  0  0  0  0  0  0  0
  -27.5840  -13.1086   19.6933 C   0  0  2  0  0  0  0  0  0  0  0  0
  -36.0026  -19.8437   22.5093 C   0  0  0  0  0  0  0  0  0  0  0  0
  -26.3643  -21.8247   20.1468 C   0  0  0  0  0  0  0  0  0  0  0  0
  -29.1333  -26.8413   23.8074 C   0  0  0  0  0  0  0  0  0  0  0  0
  -27.4836  -24.9594   23.8804 C   0  0  0  0  0  0  0  0  0  0  0  0
  -26.9818  -27.0045   22.5430 C   0  0  0  0  0  0  0  0  0  0  0  0
  -28.0649  -23.4647   17.1644 C   0  0  0  0  0  0  0  0  0  0  0  0
  -35.5793  -21.6689   20.8397 C   0  0  0  0  0  0  0  0  0  1  0  0
  -28.7349  -25.3817   21.7154 C   0  0  1  0  0  0  0  0  0  0  0  0
  -35.4072  -20.1776   21.1421 C   0  0  2  0  0  0  0  0  0  0  0  0
  -26.9968  -22.9667   19.3667 C   0  0  2  0  0  0  0  0  0  0  0  0
  -28.1096  -26.0426   22.9761 C   0  0  0  0  0  0  0  0  0  0  0  0
  -25.8163  -11.5114   20.3302 N   0  0  0  0  0  0  0  0  0  0  0  0
  -26.1668  -12.7939   20.1342 N   0  0  0  0  0  0  0  0  0  0  0  0
  -30.7342  -26.6812   21.0408 N   0  0  0  0  0  0  0  0  0  0  0  0
  -29.8692  -13.6882   20.4090 N   0  0  0  0  0  0  0  0  0  0  0  0
  -25.3399  -15.0120   20.2189 N   0  0  0  0  0  0  0  0  0  0  0  0
  -21.7771  -12.5243   21.4493 N   0  0  0  0  0  0  0  0  0  0  0  0
  -29.8941  -15.8337   21.3881 N   0  0  0  0  0  0  0  0  0  0  0  0
  -33.3437  -20.0206   19.8618 N   0  0  0  0  0  0  0  0  0  0  0  0
  -30.9289  -29.9015   19.5401 N   0  0  0  0  0  0  0  0  0  0  0  0
  -27.7829  -24.6412   20.8945 N   0  0  0  0  0  0  0  0  0  0  0  0
  -27.4442  -22.4422   18.0454 N   0  3  0  0  0  0  0  0  0  0  0  0
  -22.5107  -14.6621   21.0614 O   0  0  0  0  0  0  0  0  0  0  0  0
  -30.7699  -29.1935   21.7528 O   0  0  0  0  0  0  0  0  0  0  0  0
  -28.7182  -26.9080   19.9028 O   0  0  0  0  0  0  0  0  0  0  0  0
  -33.3660  -19.2745   22.0894 O   0  0  0  0  0  0  0  0  0  0  0  0
  -29.3133  -23.1264   20.0341 O   0  0  0  0  0  0  0  0  0  0  0  0
  -31.7296  -15.0457   20.2083 O   0  0  0  0  0  0  0  0  0  0  0  0
  -21.6324   -6.9731   21.8946 O   0  0  0  0  0  0  0  0  0  0  0  0
  -34.8726  -22.4531   21.8000 O   0  0  0  0  0  0  0  0  0  1  0  0
  -24.0641   -3.1653   25.0555 F   0  0  0  0  0  0  0  0  0  0  0  0
  -28.6362  -20.2364   22.8380 F   0  0  0  0  0  0  0  0  0  0  0  0
  -20.5283   -6.2241   24.3159 F   0  0  0  0  0  0  0  0  0  0  0  0
  -31.5985  -20.1914   17.8423 S   0  0  0  0  0  0  0  0  0  0  0  0
  1  2  1  0  0  0  0
  1  5  2  0  0  0  0
  2  6  2  0  0  0  0
  3  8  2  0  0  0  0
  3 18  1  0  0  0  0
  4  9  1  0  0  0  0
  4 18  2  0  0  0  0
  5 21  1  0  0  0  0
  6 23  1  0  0  0  0
  7 10  2  0  0  0  0
  7 22  1  0  0  0  0
  8 26  1  0  0  0  0
  9 26  2  0  0  0  0
 10 27  1  0  0  0  0
 11 12  2  0  0  0  0
 11 28  1  0  0  0  0
 12 29  1  0  0  0  0
 13 19  2  0  0  0  0
 13 25  1  0  0  0  0
 14 19  1  0  0  0  0
 14 30  2  0  0  0  0
 15 24  1  0  0  0  0
 15 27  2  0  0  0  0
 16 25  2  0  0  0  0
 16 30  1  0  0  0  0
 17 29  2  0  0  0  0
 17 31  1  0  0  0  0
 18 32  1  0  0  0  0
 19 35  1  0  0  0  0
 20 32  1  0  0  0  0
 20 33  2  0  0  0  0
 20 34  1  0  0  0  0
 21 23  2  0  0  0  0
 21 41  1  0  0  0  0
 22 24  2  0  0  0  0
 22 42  1  0  0  0  0
 23 50  1  0  0  0  0
 24 43  1  0  0  0  0
 25 70  1  0  0  0  0
 26 81  1  0  0  0  0
 27 82  1  0  0  0  0
 28 31  2  0  0  0  0
 28 81  1  0  0  0  0
 29 83  1  0  0  0  0
 30 84  1  0  0  0  0
 31 85  1  0  0  0  0
 32 64  2  0  0  0  0
 33 65  1  0  0  0  0
 33 68  1  0  0  0  0
 34 69  1  0  0  0  0
 34 75  2  0  0  0  0
 35 71  1  0  0  0  0
 35 86  2  0  0  0  0
 36 51  1  0  0  0  0
 36 72  1  0  0  0  0
 36 76  2  0  0  0  0
 37 60  1  0  0  0  0
 37 66  1  0  0  0  0
 37 77  2  0  0  0  0
 38 61  1  0  0  0  0
 38 71  1  0  0  0  0
 38 78  2  0  0  0  0
 39 62  1  0  0  0  0
 39 73  1  0  0  0  0
 39 79  2  0  0  0  0
 40 67  1  0  0  0  0
 40 70  1  0  0  0  0
 40 80  2  0  0  0  0
 41 44  1  0  0  0  0
 42 51  1  0  0  0  0
 43 66  1  0  0  0  0
 44 46  1  0  0  0  0
 45 47  1  0  0  0  0
 45 48  1  0  0  0  0
 46 50  1  0  0  0  0
 47 52  1  0  0  0  0
 48 67  1  0  0  0  0
 49 52  1  0  0  0  0
 49 67  1  0  0  0  0
 50 72  1  0  0  0  0
 51 66  1  0  0  0  0
 52 65  1  0  0  0  0
 53 61  1  0  0  0  0
 54 62  1  0  0  0  0
 55 63  1  0  0  0  0
 56 63  1  0  0  0  0
 57 63  1  0  0  0  0
 58 74  1  0  0  0  0
 59 61  1  0  0  0  0
 59 82  1  0  0  0  0
 60 63  1  0  0  0  0
 60 73  1  0  0  0  0
 62 74  1  0  0  0  0
 64 65  1  0  0  0  0
M  CHG  1  74   1
M  ISO  4  40 100  59 101  70 100  82 101
M  END
> <Batch ID>
0066

> <Smiles>
CNC(C)C(=O)NC(C(=O)N1Cc2cc([101O:1][101CH2:1]C(C)C(=O)NC(=S)c3cc(F)cc([100NH:0][100C:0](=O)N4CCCC(n5nc(-c6ccc(Oc7ccc(F)cc7F)cc6)c(C(N)=O)c5N)C4)c3)ccc2CC1C(=O)NC1CCCc2ccccc21)C(C)(C)C

> <Shape>
0.234

> <Color>
0.210

> <Negative vol penalty>
0.000

$$$$

  -OEChem-04042323213D

 87 96  0     1  0  0  0  0  0999 V2000
  -28.1583  -34.3166   24.5938 C   0  0  0  0  0  0  0  0  0  0  0  0
  -27.3695  -33.2905   25.1040 C   0  0  0  0  0  0  0  0  0  0  0  0
  -23.0698   -9.3052   20.6424 C   0  0  0  0  0  0  0  0  0  0  0  0
  -23.7912  -10.7335   22.4526 C   0  0  0  0  0  0  0  0  0  0  0  0
  -31.5681  -17.9793   22.5908 C   0  0  0  0  0  0  0  0  0  0  0  0
  -28.4544  -34.3555   23.2319 C   0  0  0  0  0  0  0  0  0  0  0  0
  -26.8753  -32.3032   24.2523 C   0  0  0  0  0  0  0  0  0  0  0  0
  -28.4352  -25.3539   25.3315 C   0  0  0  0  0  0  0  0  0  0  0  0
  -31.2205  -16.7807   21.9678 C   0  0  0  0  0  0  0  0  0  0  0  0
  -22.3594   -8.5168   21.5476 C   0  0  0  0  0  0  0  0  0  0  0  0
  -23.0807   -9.9451   23.3578 C   0  0  0  0  0  0  0  0  0  0  0  0
  -28.5151  -23.9860   25.5934 C   0  0  0  0  0  0  0  0  0  0  0  0
  -23.0333   -6.0837   23.7949 C   0  0  0  0  0  0  0  0  0  0  0  0
  -23.1487   -4.6987   23.6766 C   0  0  0  0  0  0  0  0  0  0  0  0
  -27.2839  -23.5149   23.5660 C   0  0  0  0  0  0  0  0  0  0  0  0
  -28.9662  -16.9968   22.8096 C   0  0  0  0  0  0  0  0  0  0  0  0
  -20.7662   -4.5313   23.3122 C   0  0  0  0  0  0  0  0  0  0  0  0
  -23.7857  -10.4136   21.0950 C   0  0  0  0  0  0  0  0  0  0  0  0
  -30.6147  -18.6866   23.3234 C   0  0  0  0  0  0  0  0  0  0  0  0
  -24.0021  -11.9362   19.0597 C   0  0  0  0  0  0  0  0  0  0  0  0
  -27.9715  -33.3628   22.3647 C   0  0  0  0  0  0  0  0  0  0  0  0
  -27.7918  -25.8073   24.1765 C   0  0  0  0  0  0  0  0  0  0  0  0
  -27.1640  -32.3296   22.8773 C   0  0  0  0  0  0  0  0  0  0  0  0
  -27.2115  -24.8833   23.2920 C   0  0  0  0  0  0  0  0  0  0  0  0
  -29.3138  -18.1954   23.4328 C   0  0  0  0  0  0  0  0  0  0  0  0
  -29.9196  -16.2895   22.0771 C   0  0  0  0  0  0  0  0  0  0  0  0
  -22.3648   -8.8368   22.9053 C   0  0  0  0  0  0  0  0  0  0  0  0
  -27.9407  -23.0688   24.7130 C   0  0  0  0  0  0  0  0  0  0  0  0
  -21.7843   -6.6925   23.6719 C   0  0  0  0  0  0  0  0  0  0  0  0
  -22.0152   -3.9225   23.4352 C   0  0  0  0  0  0  0  0  0  0  0  0
  -20.6508   -5.9163   23.4305 C   0  0  0  0  0  0  0  0  0  0  0  0
  -24.5202  -11.2281   20.1605 C   0  0  0  0  0  0  0  0  0  0  0  0
  -25.0970  -12.5454   18.4971 C   0  0  0  0  0  0  0  0  0  0  0  0
  -31.0097  -19.9359   23.9621 C   0  0  0  0  0  0  0  0  0  0  0  0
  -22.6517  -12.0347   18.5879 C   0  0  0  0  0  0  0  0  0  0  0  0
  -26.7672  -28.7439   22.0783 C   0  0  0  0  0  0  0  0  0  0  0  0
  -27.6999  -26.5509   20.1467 C   0  0  0  0  0  0  0  0  0  0  0  0
  -29.2002  -24.0424   18.3878 C   0  0  0  0  0  0  0  0  0  0  0  0
  -30.3926  -14.2472   20.6801 C   0  0  0  0  0  0  0  0  0  0  0  0
  -28.2788  -33.4731   20.8922 C   0  0  0  0  0  0  0  0  0  0  0  0
  -27.6282  -27.2744   23.8855 C   0  0  0  0  0  0  0  0  0  0  0  0
  -26.4994  -25.4184   22.0798 C   0  0  0  0  0  0  0  0  0  0  0  0
  -28.0268  -32.1813   20.1189 C   0  0  0  0  0  0  0  0  0  0  0  0
  -29.8264  -12.0043   17.9735 C   0  0  0  0  0  0  0  0  0  0  0  0
  -27.1988  -19.1980   26.3246 C   0  0  0  0  0  0  0  0  0  0  0  0
  -26.6747  -31.5865   20.4994 C   0  0  0  0  0  0  0  0  0  0  0  0
  -28.3527  -11.6199   18.1234 C   0  0  0  0  0  0  0  0  0  0  0  0
  -26.2734  -20.2208   25.6743 C   0  0  0  0  0  0  0  0  0  0  0  0
  -27.7299  -18.1951   25.3047 C   0  0  0  0  0  0  0  0  0  0  0  0
  -30.5115  -12.1647   19.3295 C   0  0  0  0  0  0  0  0  0  0  0  0
  -28.3622  -12.6912   20.4123 C   0  0  0  0  0  0  0  0  0  0  0  0
  -27.5270  -19.9107   23.4927 C   0  0  0  0  0  0  0  0  0  0  0  0
  -26.6299  -31.2266   21.9894 C   0  0  1  0  0  0  0  0  0  0  0  0
  -27.6921  -27.6024   22.3830 C   0  0  1  0  0  0  0  0  0  0  0  0
  -27.6133  -12.5817   19.0741 C   0  0  2  0  0  0  0  0  0  0  0  0
  -26.9599  -20.9124   24.5005 C   0  0  2  0  0  0  0  0  0  1  0  0
  -29.8153  -23.3712   16.0493 C   0  0  0  0  0  0  0  0  0  0  0  0
  -24.7882  -25.8315   19.5914 C   0  0  0  0  0  0  0  0  0  0  0  0
  -25.5820  -24.3514   17.7347 C   0  0  0  0  0  0  0  0  0  0  0  0
  -26.0126  -26.8067   17.6409 C   0  0  0  0  0  0  0  0  0  0  0  0
  -31.9288  -22.2384   23.6089 C   0  0  0  0  0  0  0  0  0  0  0  0
  -32.0857  -23.9740   19.0423 C   0  0  0  0  0  0  0  0  0  0  0  0
  -27.3111  -25.3822   19.2769 C   0  0  1  0  0  0  0  0  0  0  0  0
  -30.2790  -24.0662   17.3201 C   0  0  2  0  0  0  0  0  0  0  0  0
  -25.9330  -25.5892   18.5875 C   0  0  0  0  0  0  0  0  0  0  0  0
  -25.8416  -11.3729   20.2911 N   0  0  0  0  0  0  0  0  0  0  0  0
  -26.1630  -12.1790   19.2650 N   0  0  0  0  0  0  0  0  0  0  0  0
  -28.3425  -18.8895   24.1649 N   0  0  2  0  0  0  0  0  0  0  0  0
  -27.2791  -26.5133   21.4817 N   0  0  0  0  0  0  0  0  0  0  0  0
  -29.7575  -13.0931   20.1747 N   0  0  0  0  0  0  0  0  0  0  0  0
  -25.2424  -13.3532   17.4253 N   0  0  0  0  0  0  0  0  0  0  0  0
  -21.6490  -11.3455   19.2836 N   0  0  0  0  0  0  0  0  0  0  0  0
  -29.5673  -15.0718   21.4439 N   0  0  0  0  0  0  0  0  0  0  0  0
  -31.4785  -20.9531   23.1251 N   0  0  0  0  0  0  0  0  0  0  0  0
  -27.3426  -29.9908   22.2325 N   0  0  0  0  0  0  0  0  0  0  0  0
  -28.4185  -25.1776   18.3494 N   0  0  0  0  0  0  0  0  0  0  0  0
  -31.5077  -23.3794   17.8097 N   0  3  0  0  0  0  0  0  0  0  0  0
  -30.9433  -20.0586   25.1964 O   0  0  0  0  0  0  0  0  0  0  0  0
  -22.3458  -12.7005   17.5698 O   0  0  0  0  0  0  0  0  0  0  0  0
  -25.6162  -28.5118   21.7276 O   0  0  0  0  0  0  0  0  0  0  0  0
  -28.3540  -27.4759   19.6571 O   0  0  0  0  0  0  0  0  0  0  0  0
  -29.0623  -23.1084   19.1747 O   0  0  0  0  0  0  0  0  0  0  0  0
  -31.5738  -14.5003   20.4295 O   0  0  0  0  0  0  0  0  0  0  0  0
  -21.6715   -8.0678   23.7888 O   0  0  0  0  0  0  0  0  0  0  0  0
  -28.0264  -21.7346   24.9725 O   0  0  0  0  0  0  0  0  0  1  0  0
  -22.1264   -2.5926   23.3201 F   0  0  0  0  0  0  0  0  0  0  0  0
  -19.4485   -6.4957   23.3102 F   0  0  0  0  0  0  0  0  0  0  0  0
  1  2  1  0  0  0  0
  1  6  2  0  0  0  0
  2  7  2  0  0  0  0
  3 10  2  0  0  0  0
  3 18  1  0  0  0  0
  4 11  1  0  0  0  0
  4 18  2  0  0  0  0
  5  9  2  0  0  0  0
  5 19  1  0  0  0  0
  6 21  1  0  0  0  0
  7 23  1  0  0  0  0
  8 12  2  0  0  0  0
  8 22  1  0  0  0  0
  9 26  1  0  0  0  0
 10 27  1  0  0  0  0
 11 27  2  0  0  0  0
 12 28  1  0  0  0  0
 13 14  2  0  0  0  0
 13 29  1  0  0  0  0
 14 30  1  0  0  0  0
 15 24  1  0  0  0  0
 15 28  2  0  0  0  0
 16 25  1  0  0  0  0
 16 26  2  0  0  0  0
 17 30  2  0  0  0  0
 17 31  1  0  0  0  0
 18 32  1  0  0  0  0
 19 25  2  0  0  0  0
 19 34  1  0  0  0  0
 20 32  1  0  0  0  0
 20 33  2  0  0  0  0
 20 35  1  0  0  0  0
 21 23  2  0  0  0  0
 21 40  1  0  0  0  0
 22 24  2  0  0  0  0
 22 41  1  0  0  0  0
 23 53  1  0  0  0  0
 24 42  1  0  0  0  0
 25 68  1  0  0  0  0
 26 73  1  0  0  0  0
 27 84  1  0  0  0  0
 28 85  1  0  0  0  0
 29 31  2  0  0  0  0
 29 84  1  0  0  0  0
 30 86  1  0  0  0  0
 31 87  1  0  0  0  0
 32 66  2  0  0  0  0
 33 67  1  0  0  0  0
 33 71  1  0  0  0  0
 34 74  1  0  0  0  0
 34 78  2  0  0  0  0
 35 72  1  0  0  0  0
 35 79  2  0  0  0  0
 36 54  1  0  0  0  0
 36 75  1  0  0  0  0
 36 80  2  0  0  0  0
 37 63  1  0  0  0  0
 37 69  1  0  0  0  0
 37 81  2  0  0  0  0
 38 64  1  0  0  0  0
 38 76  1  0  0  0  0
 38 82  2  0  0  0  0
 39 70  1  0  0  0  0
 39 73  1  0  0  0  0
 39 83  2  0  0  0  0
 40 43  1  0  0  0  0
 41 54  1  0  0  0  0
 42 69  1  0  0  0  0
 43 46  1  0  0  0  0
 44 47  1  0  0  0  0
 44 50  1  0  0  0  0
 45 48  1  0  0  0  0
 45 49  1  0  0  0  0
 46 53  1  0  0  0  0
 47 55  1  0  0  0  0
 48 56  1  0  0  0  0
 49 68  1  0  0  0  0
 50 70  1  0  0  0  0
 51 55  1  0  0  0  0
 51 70  1  0  0  0  0
 52 56  1  0  0  0  0
 52 68  1  0  0  0  0
 53 75  1  0  0  0  0
 54 69  1  0  0  0  0
 55 67  1  0  0  0  0
 56 85  1  0  0  0  0
 57 64  1  0  0  0  0
 58 65  1  0  0  0  0
 59 65  1  0  0  0  0
 60 65  1  0  0  0  0
 61 74  1  0  0  0  0
 62 77  1  0  0  0  0
 63 65  1  0  0  0  0
 63 76  1  0  0  0  0
 64 77  1  0  0  0  0
 66 67  1  0  0  0  0
M  CHG  1  77   1
M  ISO  4  39 100  56 101  73 100  85 101
M  END
> <Batch ID>
0066

> <Smiles>
CNC(=O)c1ccc([100NH:0][100C:0](=O)N2CCCC(n3nc(-c4ccc(Oc5ccc(F)cc5F)cc4)c(C(N)=O)c3N)C2)cc1N1CCC[101CH:1]([101O:1]c2ccc3c(c2)CN(C(=O)C(NC(=O)C(C)NC)C(C)(C)C)C(C(=O)NC2CCCc4ccccc42)C3)C1

> <Shape>
0.242

> <Color>
0.101

> <Negative vol penalty>
0.000

$$$$

  -OEChem-04042323213D

 86 95  0     1  0  0  0  0  0999 V2000
  -29.4649  -31.4209   26.5657 C   0  0  0  0  0  0  0  0  0  0  0  0
  -29.1604  -30.3894   25.6833 C   0  0  0  0  0  0  0  0  0  0  0  0
  -24.3416   -8.7648   21.4263 C   0  0  0  0  0  0  0  0  0  0  0  0
  -24.5632  -10.2416   23.3255 C   0  0  0  0  0  0  0  0  0  0  0  0
  -28.4423  -32.2012   27.1037 C   0  0  0  0  0  0  0  0  0  0  0  0
  -27.8329  -30.1368   25.3392 C   0  0  0  0  0  0  0  0  0  0  0  0
  -27.2254  -29.3753   20.3697 C   0  0  0  0  0  0  0  0  0  0  0  0
  -29.4678  -19.8765   17.7599 C   0  0  0  0  0  0  0  0  0  0  0  0
  -29.4708  -18.5201   18.0849 C   0  0  0  0  0  0  0  0  0  0  0  0
  -23.9601   -7.7276   22.2773 C   0  0  0  0  0  0  0  0  0  0  0  0
  -24.1817   -9.2044   24.1766 C   0  0  0  0  0  0  0  0  0  0  0  0
  -27.5856  -28.1253   19.8684 C   0  0  0  0  0  0  0  0  0  0  0  0
  -21.1732   -6.7567   23.9275 C   0  0  0  0  0  0  0  0  0  0  0  0
  -20.0783   -5.9788   23.5512 C   0  0  0  0  0  0  0  0  0  0  0  0
  -25.2669  -27.4598   19.8784 C   0  0  0  0  0  0  0  0  0  0  0  0
  -27.8745  -20.2964   19.5269 C   0  0  0  0  0  0  0  0  0  0  0  0
  -28.7968  -24.0087   16.9853 C   0  0  0  0  0  0  0  0  0  0  0  0
  -21.4807   -4.0115   23.5374 C   0  0  0  0  0  0  0  0  0  0  0  0
  -24.6432  -10.0218   21.9504 C   0  0  0  0  0  0  0  0  0  0  0  0
  -24.1964  -12.0300   20.4421 C   0  0  0  0  0  0  0  0  0  0  0  0
  -27.1024  -31.9643   26.7585 C   0  0  0  0  0  0  0  0  0  0  0  0
  -25.8821  -29.6737   20.6398 C   0  0  0  0  0  0  0  0  0  0  0  0
  -26.7913  -30.9138   25.8741 C   0  0  0  0  0  0  0  0  0  0  0  0
  -24.8920  -28.7153   20.3806 C   0  0  0  0  0  0  0  0  0  0  0  0
  -27.8775  -18.9399   19.8519 C   0  0  0  0  0  0  0  0  0  0  0  0
  -28.5195  -24.3332   18.3361 C   0  0  0  0  0  0  0  0  0  0  0  0
  -28.6697  -20.7647   18.4809 C   0  0  0  0  0  0  0  0  0  0  0  0
  -28.6757  -18.0517   19.1309 C   0  0  0  0  0  0  0  0  0  0  0  0
  -23.8802   -7.9474   23.6525 C   0  0  0  0  0  0  0  0  0  0  0  0
  -26.6067  -27.1663   19.6254 C   0  0  0  0  0  0  0  0  0  0  0  0
  -22.4219   -6.1620   24.1088 C   0  0  0  0  0  0  0  0  0  0  0  0
  -20.2320   -4.6062   23.3561 C   0  0  0  0  0  0  0  0  0  0  0  0
  -22.5756   -4.7895   23.9137 C   0  0  0  0  0  0  0  0  0  0  0  0
  -25.0379  -11.0935   21.0719 C   0  0  0  0  0  0  0  0  0  0  0  0
  -25.0504  -12.8292   19.7220 C   0  0  0  0  0  0  0  0  0  0  0  0
  -28.8819  -22.6365   16.9010 C   0  0  0  0  0  0  0  0  0  0  0  0
  -28.4437  -23.1494   19.0363 C   0  0  0  0  0  0  0  0  0  0  0  0
  -22.7703  -12.1655   20.5026 C   0  0  0  0  0  0  0  0  0  0  0  0
  -24.2351  -30.4393   23.2485 C   0  0  0  0  0  0  0  0  0  0  0  0
  -21.8213  -30.8706   21.1249 C   0  0  0  0  0  0  0  0  0  0  0  0
  -20.4791  -30.1326   18.0751 C   0  0  0  0  0  0  0  0  0  0  0  0
  -29.7522  -15.7791   19.2813 C   0  0  0  0  0  0  0  0  0  0  0  0
  -26.0275  -32.8038   27.4023 C   0  0  0  0  0  0  0  0  0  0  0  0
  -25.5071  -31.0361   21.1552 C   0  0  0  0  0  0  0  0  0  0  0  0
  -23.4336  -28.9929   20.6347 C   0  0  0  0  0  0  0  0  0  0  0  0
  -24.6775  -32.7115   26.6957 C   0  0  0  0  0  0  0  0  0  0  0  0
  -29.9694  -12.2795   18.6627 C   0  0  0  0  0  0  0  0  0  0  0  0
  -24.3304  -31.2567   26.3957 C   0  0  0  0  0  0  0  0  0  0  0  0
  -28.6366  -11.7360   19.1825 C   0  0  0  0  0  0  0  0  0  0  0  0
  -30.4943  -13.4208   19.5320 C   0  0  0  0  0  0  0  0  0  0  0  0
  -28.2117  -13.9749   20.2751 C   0  0  0  0  0  0  0  0  0  0  0  0
  -25.3655  -30.6248   25.4573 C   0  0  1  0  0  0  0  0  0  0  0  0
  -24.1640  -31.0525   21.8786 C   0  0  1  0  0  0  0  0  0  0  0  0
  -27.6111  -12.8669   19.3946 C   0  0  2  0  0  0  0  0  0  0  0  0
  -27.0151  -18.4650   20.9761 C   0  0  0  0  0  0  0  0  0  0  0  0
  -18.4786  -30.6072   16.6364 C   0  0  0  0  0  0  0  0  0  0  0  0
  -20.1446  -28.9823   22.8376 C   0  0  0  0  0  0  0  0  0  0  0  0
  -18.5649  -28.7483   20.9094 C   0  0  0  0  0  0  0  0  0  0  0  0
  -18.9112  -30.9784   21.9722 C   0  0  0  0  0  0  0  0  0  0  0  0
  -22.1485  -31.3402   15.9506 C   0  0  0  0  0  0  0  0  0  0  0  0
  -28.3431  -25.7141   18.8958 C   0  0  0  0  0  0  0  0  0  1  0  0
  -20.7440  -29.9910   20.5377 C   0  0  1  0  0  0  0  0  0  0  0  0
  -19.8993  -31.0200   16.9884 C   0  0  2  0  0  0  0  0  0  0  0  0
  -19.6188  -29.6688   21.5611 C   0  0  0  0  0  0  0  0  0  0  0  0
  -26.3274  -11.2792   20.7776 N   0  0  0  0  0  0  0  0  0  0  0  0
  -28.6659  -22.1247   18.1539 N   0  0  0  0  0  0  0  0  0  0  0  0
  -26.3026  -12.3416   19.9549 N   0  0  0  0  0  0  0  0  0  0  0  0
  -23.1179  -30.3375   21.1446 N   0  0  0  0  0  0  0  0  0  0  0  0
  -29.4706  -14.4569   19.6854 N   0  0  0  0  0  0  0  0  0  0  0  0
  -24.8447  -13.8944   18.9186 N   0  0  0  0  0  0  0  0  0  0  0  0
  -22.0460  -11.2602   21.2901 N   0  0  0  0  0  0  0  0  0  0  0  0
  -28.6920  -16.6701   19.4448 N   0  0  0  0  0  0  0  0  0  0  0  0
  -25.1396  -31.0534   24.0936 N   0  0  0  0  0  0  0  0  0  0  0  0
  -20.2787  -30.6658   19.3309 N   0  0  0  0  0  0  0  0  0  0  0  0
  -20.7316  -30.9391   15.7548 N   0  3  0  0  0  0  0  0  0  0  0  0
  -22.1550  -13.0526   19.8638 O   0  0  0  0  0  0  0  0  0  0  0  0
  -23.5211  -29.4809   23.5193 O   0  0  0  0  0  0  0  0  0  0  0  0
  -21.5245  -31.9922   21.5439 O   0  0  0  0  0  0  0  0  0  0  0  0
  -21.0492  -29.0708   17.8344 O   0  0  0  0  0  0  0  0  0  0  0  0
  -30.8436  -16.0917   18.7986 O   0  0  0  0  0  0  0  0  0  0  0  0
  -29.1229  -21.8514   15.8578 O   0  0  0  0  0  0  0  0  0  0  0  0
  -28.2088  -22.9194   20.3233 O   0  0  0  0  0  0  0  0  0  0  0  0
  -23.5078   -6.9356   24.4832 O   0  0  0  0  0  0  0  0  0  0  0  0
  -26.9556  -25.9451   19.1367 O   0  0  0  0  0  0  0  0  0  1  0  0
  -19.1801   -3.8591   22.9962 F   0  0  0  0  0  0  0  0  0  0  0  0
  -23.7725   -4.2123   24.0875 F   0  0  0  0  0  0  0  0  0  0  0  0
  1  2  1  0  0  0  0
  1  5  2  0  0  0  0
  2  6  2  0  0  0  0
  3 10  2  0  0  0  0
  3 19  1  0  0  0  0
  4 11  1  0  0  0  0
  4 19  2  0  0  0  0
  5 21  1  0  0  0  0
  6 23  1  0  0  0  0
  7 12  2  0  0  0  0
  7 22  1  0  0  0  0
  8  9  2  0  0  0  0
  8 27  1  0  0  0  0
  9 28  1  0  0  0  0
 10 29  1  0  0  0  0
 11 29  2  0  0  0  0
 12 30  1  0  0  0  0
 13 14  2  0  0  0  0
 13 31  1  0  0  0  0
 14 32  1  0  0  0  0
 15 24  1  0  0  0  0
 15 30  2  0  0  0  0
 16 25  1  0  0  0  0
 16 27  2  0  0  0  0
 17 26  1  0  0  0  0
 17 36  2  0  0  0  0
 18 32  2  0  0  0  0
 18 33  1  0  0  0  0
 19 34  1  0  0  0  0
 20 34  1  0  0  0  0
 20 35  2  0  0  0  0
 20 38  1  0  0  0  0
 21 23  2  0  0  0  0
 21 43  1  0  0  0  0
 22 24  2  0  0  0  0
 22 44  1  0  0  0  0
 23 52  1  0  0  0  0
 24 45  1  0  0  0  0
 25 28  2  0  0  0  0
 25 55  1  0  0  0  0
 26 37  2  0  0  0  0
 26 61  1  0  0  0  0
 27 66  1  0  0  0  0
 28 72  1  0  0  0  0
 29 83  1  0  0  0  0
 30 84  1  0  0  0  0
 31 33  2  0  0  0  0
 31 83  1  0  0  0  0
 32 85  1  0  0  0  0
 33 86  1  0  0  0  0
 34 65  2  0  0  0  0
 35 67  1  0  0  0  0
 35 70  1  0  0  0  0
 36 66  1  0  0  0  0
 36 81  1  0  0  0  0
 37 66  1  0  0  0  0
 37 82  1  0  0  0  0
 38 71  1  0  0  0  0
 38 76  2  0  0  0  0
 39 53  1  0  0  0  0
 39 73  1  0  0  0  0
 39 77  2  0  0  0  0
 40 62  1  0  0  0  0
 40 68  1  0  0  0  0
 40 78  2  0  0  0  0
 41 63  1  0  0  0  0
 41 74  1  0  0  0  0
 41 79  2  0  0  0  0
 42 69  1  0  0  0  0
 42 72  1  0  0  0  0
 42 80  2  0  0  0  0
 43 46  1  0  0  0  0
 44 53  1  0  0  0  0
 45 68  1  0  0  0  0
 46 48  1  0  0  0  0
 47 49  1  0  0  0  0
 47 50  1  0  0  0  0
 48 52  1  0  0  0  0
 49 54  1  0  0  0  0
 50 69  1  0  0  0  0
 51 54  1  0  0  0  0
 51 69  1  0  0  0  0
 52 73  1  0  0  0  0
 53 68  1  0  0  0  0
 54 67  1  0  0  0  0
 56 63  1  0  0  0  0
 57 64  1  0  0  0  0
 58 64  1  0  0  0  0
 59 64  1  0  0  0  0
 60 75  1  0  0  0  0
 61 84  1  0  0  0  0
 62 64  1  0  0  0  0
 62 74  1  0  0  0  0
 63 75  1  0  0  0  0
 65 67  1  0  0  0  0
M  CHG  1  75   1
M  ISO  4  42 100  61 101  72 100  84 101
M  END
> <Batch ID>
0066

> <Smiles>
CNC(C)C(=O)NC(C(=O)N1Cc2cc([101O:1][101CH2:1]C3CC(=O)N(c4ccc([100NH:0][100C:0](=O)N5CCCC(n6nc(-c7ccc(Oc8ccc(F)cc8F)cc7)c(C(N)=O)c6N)C5)c(C)c4)C3=O)ccc2CC1C(=O)NC1CCCc2ccccc21)C(C)(C)C

> <Shape>
0.338

> <Color>
0.107

> <Negative vol penalty>
0.000

$$$$

  -OEChem-04042323213D

 88 97  0     1  0  0  0  0  0999 V2000
  -27.0565  -32.9065   27.7759 C   0  0  0  0  0  0  0  0  0  0  0  0
  -27.5129  -31.9690   26.8549 C   0  0  0  0  0  0  0  0  0  0  0  0
  -23.9321   -8.8668   20.1960 C   0  0  0  0  0  0  0  0  0  0  0  0
  -22.8893  -10.8543   21.0900 C   0  0  0  0  0  0  0  0  0  0  0  0
  -25.6901  -33.0310   28.0234 C   0  0  0  0  0  0  0  0  0  0  0  0
  -26.6031  -31.1546   26.1816 C   0  0  0  0  0  0  0  0  0  0  0  0
  -27.0480  -29.1136   20.4247 C   0  0  0  0  0  0  0  0  0  0  0  0
  -22.9996   -8.0756   20.8669 C   0  0  0  0  0  0  0  0  0  0  0  0
  -21.9567  -10.0632   21.7609 C   0  0  0  0  0  0  0  0  0  0  0  0
  -27.4772  -27.8995   19.8905 C   0  0  0  0  0  0  0  0  0  0  0  0
  -22.4990   -6.9415   24.0114 C   0  0  0  0  0  0  0  0  0  0  0  0
  -22.9725   -5.8215   24.6947 C   0  0  0  0  0  0  0  0  0  0  0  0
  -29.8219  -18.7548   19.4639 C   0  0  0  0  0  0  0  0  0  0  0  0
  -25.1892  -27.1418   19.7896 C   0  0  0  0  0  0  0  0  0  0  0  0
  -28.9594  -23.9503   16.9018 C   0  0  0  0  0  0  0  0  0  0  0  0
  -28.0526  -19.7972   17.5757 C   0  0  0  0  0  0  0  0  0  0  0  0
  -21.5884   -4.3971   23.3190 C   0  0  0  0  0  0  0  0  0  0  0  0
  -23.8770  -10.2561   20.3076 C   0  0  0  0  0  0  0  0  0  0  0  0
  -29.7984  -20.1267   19.2130 C   0  0  0  0  0  0  0  0  0  0  0  0
  -24.7296  -11.6010   18.3146 C   0  0  0  0  0  0  0  0  0  0  0  0
  -24.7623  -32.2243   27.3457 C   0  0  0  0  0  0  0  0  0  0  0  0
  -25.6847  -29.3472   20.6559 C   0  0  0  0  0  0  0  0  0  0  0  0
  -25.2230  -31.2674   26.4213 C   0  0  0  0  0  0  0  0  0  0  0  0
  -24.7450  -28.3607   20.3244 C   0  0  0  0  0  0  0  0  0  0  0  0
  -28.6211  -24.2105   18.2527 C   0  0  0  0  0  0  0  0  0  0  0  0
  -28.9138  -20.6479   18.2689 C   0  0  0  0  0  0  0  0  0  0  0  0
  -28.9608  -17.9041   18.7707 C   0  0  0  0  0  0  0  0  0  0  0  0
  -22.0119   -8.6738   21.6493 C   0  0  0  0  0  0  0  0  0  0  0  0
  -26.5481  -26.9122   19.5756 C   0  0  0  0  0  0  0  0  0  0  0  0
  -21.5701   -6.7893   22.9819 C   0  0  0  0  0  0  0  0  0  0  0  0
  -22.5173   -4.5493   24.3485 C   0  0  0  0  0  0  0  0  0  0  0  0
  -28.0762  -18.4253   17.8266 C   0  0  0  0  0  0  0  0  0  0  0  0
  -21.1149   -5.5171   22.6357 C   0  0  0  0  0  0  0  0  0  0  0  0
  -24.8404  -11.0738   19.6152 C   0  0  0  0  0  0  0  0  0  0  0  0
  -25.8973  -12.2993   18.1266 C   0  0  0  0  0  0  0  0  0  0  0  0
  -29.1042  -22.5869   16.7693 C   0  0  0  0  0  0  0  0  0  0  0  0
  -28.5697  -22.9982   18.9047 C   0  0  0  0  0  0  0  0  0  0  0  0
  -30.7327  -21.0551   21.2819 C   0  0  0  0  0  0  0  0  0  0  0  0
  -30.7151  -20.9807   19.9606 C   0  0  0  0  0  0  0  0  0  0  0  0
  -23.6663  -11.4711   17.3616 C   0  0  0  0  0  0  0  0  0  0  0  0
  -23.9159  -29.9439   23.2287 C   0  0  0  0  0  0  0  0  0  0  0  0
  -21.5632  -30.3607   21.0348 C   0  0  0  0  0  0  0  0  0  0  0  0
  -20.3618  -29.6892   17.9119 C   0  0  0  0  0  0  0  0  0  0  0  0
  -29.8040  -15.8329   19.9306 C   0  0  0  0  0  0  0  0  0  0  0  0
  -23.2985  -32.3626   27.6813 C   0  0  0  0  0  0  0  0  0  0  0  0
  -25.2356  -30.6724   21.2078 C   0  0  0  0  0  0  0  0  0  0  0  0
  -23.2683  -28.5697   20.5345 C   0  0  0  0  0  0  0  0  0  0  0  0
  -22.3739  -31.7200   26.6506 C   0  0  0  0  0  0  0  0  0  0  0  0
  -30.1441  -12.4177   20.8784 C   0  0  0  0  0  0  0  0  0  0  0  0
  -22.8697  -30.3244   26.2853 C   0  0  0  0  0  0  0  0  0  0  0  0
  -28.7855  -11.8070   20.5273 C   0  0  0  0  0  0  0  0  0  0  0  0
  -30.0051  -13.8442   21.4071 C   0  0  0  0  0  0  0  0  0  0  0  0
  -27.8823  -14.1436   20.1933 C   0  0  0  0  0  0  0  0  0  0  0  0
  -24.2654  -30.3829   25.6527 C   0  0  1  0  0  0  0  0  0  0  0  0
  -23.8682  -30.6067   21.8811 C   0  0  1  0  0  0  0  0  0  0  0  0
  -27.9765  -12.7304   19.5953 C   0  0  2  0  0  0  0  0  0  0  0  0
  -18.3957  -30.1391   16.4188 C   0  0  0  0  0  0  0  0  0  0  0  0
  -19.9065  -28.3415   22.6121 C   0  0  0  0  0  0  0  0  0  0  0  0
  -18.4072  -28.1199   20.6193 C   0  0  0  0  0  0  0  0  0  0  0  0
  -18.6229  -30.3188   21.7772 C   0  0  0  0  0  0  0  0  0  0  0  0
  -22.0541  -31.0446   15.8974 C   0  0  0  0  0  0  0  0  0  0  0  0
  -28.3679  -25.5604   18.8569 C   0  0  0  0  0  0  0  0  0  1  0  0
  -20.5448  -29.4623   20.3755 C   0  0  1  0  0  0  0  0  0  0  0  0
  -19.7847  -30.5944   16.8385 C   0  0  2  0  0  0  0  0  0  0  0  0
  -19.3983  -29.0556   21.3437 C   0  0  0  0  0  0  0  0  0  0  0  0
  -25.9879  -11.4084   20.2113 N   0  0  0  0  0  0  0  0  0  0  0  0
  -28.8653  -22.0184   17.9932 N   0  0  0  0  0  0  0  0  0  0  0  0
  -26.6089  -12.1533   19.2809 N   0  0  0  0  0  0  0  0  0  0  0  0
  -22.8793  -29.8796   21.0825 N   0  0  0  0  0  0  0  0  0  0  0  0
  -29.2312  -14.6618   20.4703 N   0  0  0  0  0  0  0  0  0  0  0  0
  -26.3746  -13.0177   17.0880 N   0  0  0  0  0  0  0  0  0  0  0  0
  -22.5387  -10.7186   17.7172 N   0  0  0  0  0  0  0  0  0  0  0  0
  -28.9867  -16.5107   19.0266 N   0  0  0  0  0  0  0  0  0  0  0  0
  -24.1775  -30.8103   24.2729 N   0  0  0  0  0  0  0  0  0  0  0  0
  -20.0951  -30.1646   19.1784 N   0  0  0  0  0  0  0  0  0  0  0  0
  -20.6628  -30.5951   15.6344 N   0  3  0  0  0  0  0  0  0  0  0  0
  -23.7219  -11.9929   16.2223 O   0  0  0  0  0  0  0  0  0  0  0  0
  -23.7279  -28.7360   23.3149 O   0  0  0  0  0  0  0  0  0  0  0  0
  -21.2056  -31.4524   21.4843 O   0  0  0  0  0  0  0  0  0  0  0  0
  -20.9836  -28.6612   17.6528 O   0  0  0  0  0  0  0  0  0  0  0  0
  -30.9466  -16.1921   20.2262 O   0  0  0  0  0  0  0  0  0  0  0  0
  -29.4144  -21.8534   15.7070 O   0  0  0  0  0  0  0  0  0  0  0  0
  -28.2990  -22.7089   20.1725 O   0  0  0  0  0  0  0  0  0  0  0  0
  -21.1016   -7.9022   22.3039 O   0  0  0  0  0  0  0  0  0  0  0  0
  -26.9644  -25.7260   19.0546 O   0  0  0  0  0  0  0  0  0  1  0  0
  -22.9733   -3.4737   25.0038 F   0  0  0  0  0  0  0  0  0  0  0  0
  -27.2443  -17.6171   17.1541 F   0  0  0  0  0  0  0  0  0  0  0  0
  -20.2235   -5.3645   21.6469 F   0  0  0  0  0  0  0  0  0  0  0  0
  1  2  1  0  0  0  0
  1  5  2  0  0  0  0
  2  6  2  0  0  0  0
  3  8  2  0  0  0  0
  3 18  1  0  0  0  0
  4  9  1  0  0  0  0
  4 18  2  0  0  0  0
  5 21  1  0  0  0  0
  6 23  1  0  0  0  0
  7 10  2  0  0  0  0
  7 22  1  0  0  0  0
  8 28  1  0  0  0  0
  9 28  2  0  0  0  0
 10 29  1  0  0  0  0
 11 12  2  0  0  0  0
 11 30  1  0  0  0  0
 12 31  1  0  0  0  0
 13 19  1  0  0  0  0
 13 27  2  0  0  0  0
 14 24  1  0  0  0  0
 14 29  2  0  0  0  0
 15 25  1  0  0  0  0
 15 36  2  0  0  0  0
 16 26  1  0  0  0  0
 16 32  2  0  0  0  0
 17 31  2  0  0  0  0
 17 33  1  0  0  0  0
 18 34  1  0  0  0  0
 19 26  2  0  0  0  0
 19 39  1  0  0  0  0
 20 34  1  0  0  0  0
 20 35  2  0  0  0  0
 20 40  1  0  0  0  0
 21 23  2  0  0  0  0
 21 45  1  0  0  0  0
 22 24  2  0  0  0  0
 22 46  1  0  0  0  0
 23 54  1  0  0  0  0
 24 47  1  0  0  0  0
 25 37  2  0  0  0  0
 25 62  1  0  0  0  0
 26 67  1  0  0  0  0
 27 32  1  0  0  0  0
 27 73  1  0  0  0  0
 28 84  1  0  0  0  0
 29 85  1  0  0  0  0
 30 33  2  0  0  0  0
 30 84  1  0  0  0  0
 31 86  1  0  0  0  0
 32 87  1  0  0  0  0
 33 88  1  0  0  0  0
 34 66  2  0  0  0  0
 35 68  1  0  0  0  0
 35 71  1  0  0  0  0
 36 67  1  0  0  0  0
 36 82  1  0  0  0  0
 37 67  1  0  0  0  0
 37 83  1  0  0  0  0
 38 39  2  0  0  0  0
 40 72  1  0  0  0  0
 40 77  2  0  0  0  0
 41 55  1  0  0  0  0
 41 74  1  0  0  0  0
 41 78  2  0  0  0  0
 42 63  1  0  0  0  0
 42 69  1  0  0  0  0
 42 79  2  0  0  0  0
 43 64  1  0  0  0  0
 43 75  1  0  0  0  0
 43 80  2  0  0  0  0
 44 70  1  0  0  0  0
 44 73  1  0  0  0  0
 44 81  2  0  0  0  0
 45 48  1  0  0  0  0
 46 55  1  0  0  0  0
 47 69  1  0  0  0  0
 48 50  1  0  0  0  0
 49 51  1  0  0  0  0
 49 52  1  0  0  0  0
 50 54  1  0  0  0  0
 51 56  1  0  0  0  0
 52 70  1  0  0  0  0
 53 56  1  0  0  0  0
 53 70  1  0  0  0  0
 54 74  1  0  0  0  0
 55 69  1  0  0  0  0
 56 68  1  0  0  0  0
 57 64  1  0  0  0  0
 58 65  1  0  0  0  0
 59 65  1  0  0  0  0
 60 65  1  0  0  0  0
 61 76  1  0  0  0  0
 62 85  1  0  0  0  0
 63 65  1  0  0  0  0
 63 75  1  0  0  0  0
 64 76  1  0  0  0  0
 66 68  1  0  0  0  0
M  CHG  1  76   1
M  ISO  4  44 100  62 101  73 100  85 101
M  END
> <Batch ID>
0066

> <Smiles>
C=Cc1cc([100NH:0][100C:0](=O)N2CCCC(n3nc(-c4ccc(Oc5ccc(F)cc5F)cc4)c(C(N)=O)c3N)C2)c(F)cc1N1C(=O)CC([101CH2:1][101O:1]c2ccc3c(c2)CN(C(=O)C(NC(=O)C(C)NC)C(C)(C)C)C(C(=O)NC2CCCc4ccccc42)C3)C1=O

> <Shape>
0.304

> <Color>
0.102

> <Negative vol penalty>
0.000

$$$$

  -OEChem-04042323213D

 87 95  0     1  0  0  0  0  0999 V2000
  -19.0139  -24.1710   22.9770 C   0  0  0  0  0  0  0  0  0  0  0  0
  -20.2497  -24.3387   22.3605 C   0  0  0  0  0  0  0  0  0  0  0  0
  -23.6933  -12.3014   19.3042 C   0  0  0  0  0  0  0  0  0  0  0  0
  -24.8618  -14.0241   20.5307 C   0  0  0  0  0  0  0  0  0  0  0  0
  -18.2127  -25.2806   23.2432 C   0  0  0  0  0  0  0  0  0  0  0  0
  -20.6845  -25.6160   22.0087 C   0  0  0  0  0  0  0  0  0  0  0  0
  -25.5265  -26.4300   23.2486 C   0  0  0  0  0  0  0  0  0  0  0  0
  -24.7507  -11.4211   19.5332 C   0  0  0  0  0  0  0  0  0  0  0  0
  -25.9192  -13.1437   20.7597 C   0  0  0  0  0  0  0  0  0  0  0  0
  -26.4985  -25.8776   22.4157 C   0  0  0  0  0  0  0  0  0  0  0  0
  -28.5722  -11.9370   19.0460 C   0  0  0  0  0  0  0  0  0  0  0  0
  -29.8679  -12.4169   18.8555 C   0  0  0  0  0  0  0  0  0  0  0  0
  -26.7961  -28.0217   21.3510 C   0  0  0  0  0  0  0  0  0  0  0  0
  -24.1853  -22.2718   15.9152 C   0  0  0  0  0  0  0  0  0  0  0  0
  -24.5520  -21.8285   18.2617 C   0  0  0  0  0  0  0  0  0  0  0  0
  -30.3835  -11.9430   21.1678 C   0  0  0  0  0  0  0  0  0  0  0  0
  -23.7489  -13.6030   19.8029 C   0  0  0  0  0  0  0  0  0  0  0  0
  -25.7291  -23.6374   17.1757 C   0  0  0  0  0  0  0  0  0  0  0  0
  -21.5217  -14.7074   20.3754 C   0  0  0  0  0  0  0  0  0  0  0  0
  -18.6421  -26.5731   22.9033 C   0  0  0  0  0  0  0  0  0  0  0  0
  -25.1735  -27.7821   23.1313 C   0  0  0  0  0  0  0  0  0  0  0  0
  -19.8877  -26.7438   22.2693 C   0  0  0  0  0  0  0  0  0  0  0  0
  -25.8211  -28.5894   22.1853 C   0  0  0  0  0  0  0  0  0  0  0  0
  -23.9152  -21.5211   17.0593 C   0  0  0  0  0  0  0  0  0  0  0  0
  -25.8636  -11.8422   20.2610 C   0  0  0  0  0  0  0  0  0  0  0  0
  -27.1315  -26.6727   21.4648 C   0  0  0  0  0  0  0  0  0  0  0  0
  -28.1821  -11.4602   20.2975 C   0  0  0  0  0  0  0  0  0  0  0  0
  -30.7736  -12.4199   19.9163 C   0  0  0  0  0  0  0  0  0  0  0  0
  -25.0923  -23.3300   15.9734 C   0  0  0  0  0  0  0  0  0  0  0  0
  -25.4590  -22.8867   18.3199 C   0  0  0  0  0  0  0  0  0  0  0  0
  -29.0877  -11.4631   21.3583 C   0  0  0  0  0  0  0  0  0  0  0  0
  -22.6572  -14.5130   19.5662 C   0  0  0  0  0  0  0  0  0  0  0  0
  -20.7933  -15.6696   19.7196 C   0  0  0  0  0  0  0  0  0  0  0  0
  -26.6949  -24.7646   17.2372 C   0  0  0  0  0  0  0  0  0  0  0  0
  -21.1580  -14.0748   21.6096 C   0  0  0  0  0  0  0  0  0  0  0  0
  -22.5042  -29.3490   22.4081 C   0  0  0  0  0  0  0  0  0  0  0  0
  -24.2852  -31.9494   23.1751 C   0  0  0  0  0  0  0  0  0  0  0  0
  -27.3817  -33.3471   23.4994 C   0  0  0  0  0  0  0  0  0  0  0  0
  -30.0931  -25.0411   18.6838 C   0  0  0  0  0  0  0  0  0  0  0  0
  -22.2768  -20.0080   15.8878 C   0  0  0  0  0  0  0  0  0  0  0  0
  -17.7206  -27.7373   23.1681 C   0  0  0  0  0  0  0  0  0  0  0  0
  -24.1421  -28.3692   24.0553 C   0  0  0  0  0  0  0  0  0  0  0  0
  -25.4929  -30.0515   22.0329 C   0  0  0  0  0  0  0  0  0  0  0  0
  -18.4184  -29.0935   23.1030 C   0  0  0  0  0  0  0  0  0  0  0  0
  -19.9434  -17.3778   15.3271 C   0  0  0  0  0  0  0  0  0  0  0  0
  -19.3017  -29.1803   21.8624 C   0  0  0  0  0  0  0  0  0  0  0  0
  -20.2671  -16.3651   16.4279 C   0  0  0  0  0  0  0  0  0  0  0  0
  -21.2036  -18.0540   14.7900 C   0  0  0  0  0  0  0  0  0  0  0  0
  -22.3879  -17.6515   16.9124 C   0  0  0  0  0  0  0  0  0  0  0  0
  -20.4050  -28.1158   21.8951 C   0  0  1  0  0  0  0  0  0  0  0  0
  -23.4947  -29.6346   23.5013 C   0  0  1  0  0  0  0  0  0  0  0  0
  -21.1441  -16.9916   17.5298 C   0  0  2  0  0  0  0  0  0  0  0  0
  -28.5170  -35.5009   24.1074 C   0  0  0  0  0  0  0  0  0  0  0  0
  -23.5365  -33.1093   20.4541 C   0  0  0  0  0  0  0  0  0  0  0  0
  -25.4066  -34.7529   20.7180 C   0  0  0  0  0  0  0  0  0  0  0  0
  -23.5069  -34.7576   22.3346 C   0  0  0  0  0  0  0  0  0  0  0  0
  -28.7885  -32.0957   25.7828 C   0  0  0  0  0  0  0  0  0  0  0  0
  -28.2185  -26.7072   19.3498 C   0  0  0  0  0  0  0  0  0  1  0  0
  -25.1991  -32.8810   22.4162 C   0  0  1  0  0  0  0  0  0  0  0  0
  -28.0070  -34.1619   24.6172 C   0  0  2  0  0  0  0  0  0  0  0  0
  -28.7186  -25.6576   18.3611 C   0  0  2  0  0  0  0  0  0  0  0  0
  -24.4173  -33.8472   21.4820 C   0  0  0  0  0  0  0  0  0  0  0  0
  -22.6547  -15.2893   18.4792 N   0  0  0  0  0  0  0  0  0  0  0  0
  -21.5087  -15.9807   18.6008 N   0  0  0  0  0  0  0  0  0  0  0  0
  -24.4731  -30.5775   22.9553 N   0  0  0  0  0  0  0  0  0  0  0  0
  -21.9820  -18.6282   15.8897 N   0  0  0  0  0  0  0  0  0  0  0  0
  -19.6171  -16.2714   19.9965 N   0  0  0  0  0  0  0  0  0  0  0  0
  -22.0204  -13.1080   22.1444 N   0  0  0  0  0  0  0  0  0  0  0  0
  -22.9943  -20.4458   17.0005 N   0  0  0  0  0  0  0  0  0  0  0  0
  -27.7149  -24.6340   18.1648 N   0  0  0  0  0  0  0  0  0  0  0  0
  -21.4687  -28.5176   22.7903 N   0  0  0  0  0  0  0  0  0  0  0  0
  -26.0207  -33.5523   23.4175 N   0  0  0  0  0  0  0  0  0  0  0  0
  -29.1515  -33.4218   25.2200 N   0  3  0  0  0  0  0  0  0  0  0  0
  -30.2589  -23.8640   18.2493 O   0  5  0  0  0  0  0  0  0  0  0  0
  -26.5335  -25.7339   16.5004 O   0  0  0  0  0  0  0  0  0  0  0  0
  -20.0916  -14.3466   22.2116 O   0  0  0  0  0  0  0  0  0  0  0  0
  -22.6665  -29.8473   21.3004 O   0  0  0  0  0  0  0  0  0  0  0  0
  -23.4407  -32.4214   23.9404 O   0  0  0  0  0  0  0  0  0  0  0  0
  -28.0358  -32.6057   22.7693 O   0  0  0  0  0  0  0  0  0  0  0  0
  -30.9007  -25.7727   19.3209 O   0  0  0  0  0  0  0  0  0  0  0  0
  -21.8956  -20.7518   14.9804 O   0  0  0  0  0  0  0  0  0  0  0  0
  -26.8955  -10.9833   20.4849 O   0  0  0  0  0  0  0  0  0  0  0  0
  -28.0801  -26.1359   20.6501 O   0  0  0  0  0  0  0  0  0  1  0  0
  -32.0183  -12.8794   19.7327 F   0  0  0  0  0  0  0  0  0  0  0  0
  -25.3444  -24.0444   14.8672 F   0  0  0  0  0  0  0  0  0  0  0  0
  -26.0642  -23.1737   19.4814 F   0  0  0  0  0  0  0  0  0  0  0  0
  -28.7191  -11.0052   22.5626 F   0  0  0  0  0  0  0  0  0  0  0  0
  1  2  1  0  0  0  0
  1  5  2  0  0  0  0
  2  6  2  0  0  0  0
  3  8  2  0  0  0  0
  3 17  1  0  0  0  0
  4  9  1  0  0  0  0
  4 17  2  0  0  0  0
  5 20  1  0  0  0  0
  6 22  1  0  0  0  0
  7 10  2  0  0  0  0
  7 21  1  0  0  0  0
  8 25  1  0  0  0  0
  9 25  2  0  0  0  0
 10 26  1  0  0  0  0
 11 12  2  0  0  0  0
 11 27  1  0  0  0  0
 12 28  1  0  0  0  0
 13 23  1  0  0  0  0
 13 26  2  0  0  0  0
 14 24  1  0  0  0  0
 14 29  2  0  0  0  0
 15 24  2  0  0  0  0
 15 30  1  0  0  0  0
 16 28  2  0  0  0  0
 16 31  1  0  0  0  0
 17 32  1  0  0  0  0
 18 29  1  0  0  0  0
 18 30  2  0  0  0  0
 18 34  1  0  0  0  0
 19 32  1  0  0  0  0
 19 33  2  0  0  0  0
 19 35  1  0  0  0  0
 20 22  2  0  0  0  0
 20 41  1  0  0  0  0
 21 23  2  0  0  0  0
 21 42  1  0  0  0  0
 22 50  1  0  0  0  0
 23 43  1  0  0  0  0
 24 69  1  0  0  0  0
 25 82  1  0  0  0  0
 26 83  1  0  0  0  0
 27 31  2  0  0  0  0
 27 82  1  0  0  0  0
 28 84  1  0  0  0  0
 29 85  1  0  0  0  0
 30 86  1  0  0  0  0
 31 87  1  0  0  0  0
 32 63  2  0  0  0  0
 33 64  1  0  0  0  0
 33 67  1  0  0  0  0
 34 70  1  0  0  0  0
 34 75  2  0  0  0  0
 35 68  1  0  0  0  0
 35 76  2  0  0  0  0
 36 51  1  0  0  0  0
 36 71  1  0  0  0  0
 36 77  2  0  0  0  0
 37 59  1  0  0  0  0
 37 65  1  0  0  0  0
 37 78  2  0  0  0  0
 38 60  1  0  0  0  0
 38 72  1  0  0  0  0
 38 79  2  0  0  0  0
 39 61  1  0  0  0  0
 39 74  1  0  0  0  0
 39 80  2  0  0  0  0
 40 66  1  0  0  0  0
 40 69  1  0  0  0  0
 40 81  2  0  0  0  0
 41 44  1  0  0  0  0
 42 51  1  0  0  0  0
 43 65  1  0  0  0  0
 44 46  1  0  0  0  0
 45 47  1  0  0  0  0
 45 48  1  0  0  0  0
 46 50  1  0  0  0  0
 47 52  1  0  0  0  0
 48 66  1  0  0  0  0
 49 52  1  0  0  0  0
 49 66  1  0  0  0  0
 50 71  1  0  0  0  0
 51 65  1  0  0  0  0
 52 64  1  0  0  0  0
 53 60  1  0  0  0  0
 54 62  1  0  0  0  0
 55 62  1  0  0  0  0
 56 62  1  0  0  0  0
 57 73  1  0  0  0  0
 58 61  1  0  0  0  0
 58 83  1  0  0  0  0
 59 62  1  0  0  0  0
 59 72  1  0  0  0  0
 60 73  1  0  0  0  0
 61 70  1  0  0  0  0
 63 64  1  0  0  0  0
M  CHG  2  73   1  74  -1
M  ISO  4  40 100  58 101  69 100  83 101
M  END
> <Batch ID>
0066

> <Smiles>
CNC(C)C(=O)NC(C(=O)N1Cc2cc([101O:1][101CH2:1]C(NC(=O)c3c(F)cc([100NH:0][100C:0](=O)N4CCCC(n5nc(-c6ccc(Oc7ccc(F)cc7F)cc6)c(C(N)=O)c5N)C4)cc3F)C(=O)O)ccc2CC1C(=O)NC1CCCc2ccccc21)C(C)(C)C

> <Shape>
0.235

> <Color>
0.110

> <Negative vol penalty>
0.000

$$$$

  -OEChem-04042323213D

 89 98  0     1  0  0  0  0  0999 V2000
  -27.7568  -35.0004   24.1334 C   0  0  0  0  0  0  0  0  0  0  0  0
  -27.9904  -33.6739   23.7850 C   0  0  0  0  0  0  0  0  0  0  0  0
  -22.9883  -13.8793   23.0371 C   0  0  0  0  0  0  0  0  0  0  0  0
  -23.2119  -15.0208   20.9195 C   0  0  0  0  0  0  0  0  0  0  0  0
  -26.4914  -35.3936   24.5670 C   0  0  0  0  0  0  0  0  0  0  0  0
  -26.9589  -32.7396   23.8710 C   0  0  0  0  0  0  0  0  0  0  0  0
  -26.7216  -29.7278   19.8068 C   0  0  0  0  0  0  0  0  0  0  0  0
  -22.5894  -12.7208   22.3705 C   0  0  0  0  0  0  0  0  0  0  0  0
  -22.8130  -13.8623   20.2529 C   0  0  0  0  0  0  0  0  0  0  0  0
  -27.6473  -28.6881   19.7299 C   0  0  0  0  0  0  0  0  0  0  0  0
  -24.0568  -10.2024   20.6567 C   0  0  0  0  0  0  0  0  0  0  0  0
  -24.6251   -8.9942   21.0600 C   0  0  0  0  0  0  0  0  0  0  0  0
  -25.9682  -27.1434   20.5135 C   0  0  0  0  0  0  0  0  0  0  0  0
  -30.9402  -20.6268   20.1096 C   0  0  0  0  0  0  0  0  0  0  0  0
  -30.8004  -21.3779   22.7927 C   0  0  0  0  0  0  0  0  0  0  0  0
  -22.4306   -8.1450   21.6081 C   0  0  0  0  0  0  0  0  0  0  0  0
  -23.2995  -15.0293   22.3116 C   0  0  0  0  0  0  0  0  0  0  0  0
  -22.9751  -16.9543   23.9538 C   0  0  0  0  0  0  0  0  0  0  0  0
  -25.4413  -34.4656   24.6492 C   0  0  0  0  0  0  0  0  0  0  0  0
  -25.4132  -29.4847   20.2488 C   0  0  0  0  0  0  0  0  0  0  0  0
  -25.6786  -33.1205   24.3074 C   0  0  0  0  0  0  0  0  0  0  0  0
  -25.0272  -28.1813   20.5927 C   0  0  0  0  0  0  0  0  0  0  0  0
  -31.0085  -19.6570   21.1097 C   0  0  0  0  0  0  0  0  0  0  0  0
  -30.8020  -21.9722   20.4509 C   0  0  0  0  0  0  0  0  0  0  0  0
  -30.9387  -20.0325   22.4513 C   0  0  0  0  0  0  0  0  0  0  0  0
  -22.5017  -12.7123   20.9784 C   0  0  0  0  0  0  0  0  0  0  0  0
  -27.2715  -27.3962   20.0861 C   0  0  0  0  0  0  0  0  0  0  0  0
  -22.6755  -10.3821   20.7291 C   0  0  0  0  0  0  0  0  0  0  0  0
  -23.8120   -7.9654   21.5357 C   0  0  0  0  0  0  0  0  0  0  0  0
  -30.7321  -22.3477   21.7925 C   0  0  0  0  0  0  0  0  0  0  0  0
  -21.8624   -9.3534   21.2048 C   0  0  0  0  0  0  0  0  0  0  0  0
  -23.7112  -16.2265   22.9997 C   0  0  0  0  0  0  0  0  0  0  0  0
  -23.7990  -17.9971   24.3005 C   0  0  0  0  0  0  0  0  0  0  0  0
  -31.3879  -22.7875   18.1833 C   0  0  0  0  0  0  0  0  0  0  0  0
  -33.3895  -19.1554   23.6847 C   0  0  0  0  0  0  0  0  0  0  0  0
  -32.2138  -18.6522   24.0672 C   0  0  0  0  0  0  0  0  0  0  0  0
  -21.6639  -16.7096   24.4797 C   0  0  0  0  0  0  0  0  0  0  0  0
  -23.6510  -30.4836   22.6984 C   0  0  0  0  0  0  0  0  0  0  0  0
  -21.3051  -28.8385   21.1778 C   0  0  0  0  0  0  0  0  0  0  0  0
  -20.9941  -25.6861   19.4506 C   0  0  0  0  0  0  0  0  0  0  0  0
  -29.8300  -18.3338   23.8596 C   0  0  0  0  0  0  0  0  0  0  0  0
  -24.1030  -34.9279   25.1686 C   0  0  0  0  0  0  0  0  0  0  0  0
  -24.4191  -30.6123   20.3006 C   0  0  0  0  0  0  0  0  0  0  0  0
  -23.6290  -27.8641   21.0540 C   0  0  0  0  0  0  0  0  0  0  0  0
  -31.0036  -23.7324   17.0604 C   0  0  0  0  0  0  0  0  0  0  0  0
  -22.9656  -33.9532   24.8742 C   0  0  0  0  0  0  0  0  0  0  0  0
  -30.6848  -25.1410   17.5112 C   0  0  0  0  0  0  0  0  0  0  0  0
  -27.2970  -20.7536   22.5751 C   0  0  0  0  0  0  0  0  0  0  0  0
  -23.3834  -32.5265   25.2158 C   0  0  0  0  0  0  0  0  0  0  0  0
  -26.0365  -19.8900   22.5732 C   0  0  0  0  0  0  0  0  0  0  0  0
  -28.5443  -19.9110   22.3358 C   0  0  0  0  0  0  0  0  0  0  0  0
  -30.1327  -24.2766   19.7675 C   0  0  0  0  0  0  0  0  0  0  0  0
  -27.4501  -17.9163   23.3109 C   0  0  0  0  0  0  0  0  0  0  0  0
  -24.5787  -32.0826   24.3638 C   0  0  1  0  0  0  0  0  0  0  0  0
  -23.2594  -30.3431   21.2546 C   0  0  1  0  0  0  0  0  0  0  0  0
  -29.6066  -25.0822   18.5806 C   0  0  1  0  0  0  0  0  0  0  0  0
  -26.1661  -18.7232   23.5672 C   0  0  2  0  0  0  0  0  0  0  0  0
  -31.1569  -18.2233   20.7152 C   0  0  0  0  0  0  0  0  0  0  0  0
  -19.4180  -24.9696   17.6341 C   0  0  0  0  0  0  0  0  0  0  0  0
  -19.5992  -27.7784   23.4748 C   0  0  0  0  0  0  0  0  0  0  0  0
  -19.0235  -25.8057   22.0446 C   0  0  0  0  0  0  0  0  0  0  0  0
  -18.3667  -28.1014   21.3228 C   0  0  0  0  0  0  0  0  0  0  0  0
  -23.2216  -24.8849   17.6743 C   0  0  0  0  0  0  0  0  0  0  0  0
  -29.1914  -26.4852   19.0184 C   0  0  0  0  0  0  0  0  0  1  0  0
  -20.7982  -27.4170   21.2170 C   0  0  1  0  0  0  0  0  0  0  0  0
  -20.8128  -25.4821   17.9573 C   0  0  2  0  0  0  0  0  0  0  0  0
  -19.4741  -27.2819   22.0205 C   0  0  0  0  0  0  0  0  0  0  0  0
  -24.9104  -16.7617   22.7557 N   0  0  0  0  0  0  0  0  0  0  0  0
  -24.9341  -17.8370   23.5615 N   0  0  0  0  0  0  0  0  0  0  0  0
  -30.7315  -22.9771   19.4116 N   0  0  0  0  0  0  0  0  0  0  0  0
  -22.6951  -29.0015   21.0939 N   0  0  0  0  0  0  0  0  0  0  0  0
  -28.6262  -18.7892   23.2825 N   0  0  0  0  0  0  0  0  0  0  0  0
  -23.6560  -19.0263   25.1623 N   0  0  0  0  0  0  0  0  0  0  0  0
  -20.9552  -15.5935   24.0147 N   0  0  0  0  0  0  0  0  0  0  0  0
  -24.1448  -31.7313   23.0286 N   0  0  0  0  0  0  0  0  0  0  0  0
  -20.7019  -26.9796   19.8285 N   0  0  0  0  0  0  0  0  0  0  0  0
  -31.0087  -19.0410   23.5052 N   0  0  0  0  0  0  0  0  0  0  0  0
  -21.8062  -24.4964   17.4448 N   0  3  0  0  0  0  0  0  0  0  0  0
  -32.1959  -21.8888   17.9337 O   0  0  0  0  0  0  0  0  0  0  0  0
  -21.1299  -17.4677   25.3245 O   0  0  0  0  0  0  0  0  0  0  0  0
  -23.5139  -29.5311   23.4571 O   0  0  0  0  0  0  0  0  0  0  0  0
  -20.4969  -29.7698   21.2130 O   0  0  0  0  0  0  0  0  0  0  0  0
  -21.3549  -24.7870   20.2068 O   0  0  0  0  0  0  0  0  0  0  0  0
  -29.8522  -17.3841   24.6532 O   0  0  0  0  0  0  0  0  0  0  0  0
  -22.1127  -11.5820   20.3276 O   0  0  0  0  0  0  0  0  0  0  0  0
  -28.1731  -26.3796   20.0125 O   0  0  0  0  0  0  0  0  0  1  0  0
  -24.3578   -6.8046   21.9215 F   0  0  0  0  0  0  0  0  0  0  0  0
  -30.5985  -23.6380   22.1312 F   0  0  0  0  0  0  0  0  0  0  0  0
  -20.5345   -9.5196   21.2756 F   0  0  0  0  0  0  0  0  0  0  0  0
  1  2  1  0  0  0  0
  1  5  2  0  0  0  0
  2  6  2  0  0  0  0
  3  8  2  0  0  0  0
  3 17  1  0  0  0  0
  4  9  1  0  0  0  0
  4 17  2  0  0  0  0
  5 19  1  0  0  0  0
  6 21  1  0  0  0  0
  7 10  2  0  0  0  0
  7 20  1  0  0  0  0
  8 26  1  0  0  0  0
  9 26  2  0  0  0  0
 10 27  1  0  0  0  0
 11 12  2  0  0  0  0
 11 28  1  0  0  0  0
 12 29  1  0  0  0  0
 13 22  1  0  0  0  0
 13 27  2  0  0  0  0
 14 23  1  0  0  0  0
 14 24  2  0  0  0  0
 15 25  1  0  0  0  0
 15 30  2  0  0  0  0
 16 29  2  0  0  0  0
 16 31  1  0  0  0  0
 17 32  1  0  0  0  0
 18 32  1  0  0  0  0
 18 33  2  0  0  0  0
 18 37  1  0  0  0  0
 19 21  2  0  0  0  0
 19 42  1  0  0  0  0
 20 22  2  0  0  0  0
 20 43  1  0  0  0  0
 21 54  1  0  0  0  0
 22 44  1  0  0  0  0
 23 25  2  0  0  0  0
 23 58  1  0  0  0  0
 24 30  1  0  0  0  0
 24 70  1  0  0  0  0
 25 77  1  0  0  0  0
 26 85  1  0  0  0  0
 27 86  1  0  0  0  0
 28 31  2  0  0  0  0
 28 85  1  0  0  0  0
 29 87  1  0  0  0  0
 30 88  1  0  0  0  0
 31 89  1  0  0  0  0
 32 68  2  0  0  0  0
 33 69  1  0  0  0  0
 33 73  1  0  0  0  0
 34 45  1  0  0  0  0
 34 70  1  0  0  0  0
 34 79  2  0  0  0  0
 35 36  2  0  0  0  0
 36 77  1  0  0  0  0
 37 74  1  0  0  0  0
 37 80  2  0  0  0  0
 38 55  1  0  0  0  0
 38 75  1  0  0  0  0
 38 81  2  0  0  0  0
 39 65  1  0  0  0  0
 39 71  1  0  0  0  0
 39 82  2  0  0  0  0
 40 66  1  0  0  0  0
 40 76  1  0  0  0  0
 40 83  2  0  0  0  0
 41 72  1  0  0  0  0
 41 77  1  0  0  0  0
 41 84  2  0  0  0  0
 42 46  1  0  0  0  0
 43 55  1  0  0  0  0
 44 71  1  0  0  0  0
 45 47  1  0  0  0  0
 46 49  1  0  0  0  0
 47 56  1  0  0  0  0
 48 50  1  0  0  0  0
 48 51  1  0  0  0  0
 49 54  1  0  0  0  0
 50 57  1  0  0  0  0
 51 72  1  0  0  0  0
 52 56  1  0  0  0  0
 52 70  1  0  0  0  0
 53 57  1  0  0  0  0
 53 72  1  0  0  0  0
 54 75  1  0  0  0  0
 55 71  1  0  0  0  0
 56 64  1  0  0  0  0
 57 69  1  0  0  0  0
 59 66  1  0  0  0  0
 60 67  1  0  0  0  0
 61 67  1  0  0  0  0
 62 67  1  0  0  0  0
 63 78  1  0  0  0  0
 64 86  1  0  0  0  0
 65 67  1  0  0  0  0
 65 76  1  0  0  0  0
 66 78  1  0  0  0  0
 68 69  1  0  0  0  0
M  CHG  1  78   1
M  ISO  4  41 100  64 101  77 100  86 101
M  END
> <Batch ID>
0066

> <Smiles>
C=C[100N:0](c1cc(F)c(N2CC([101CH2:1][101O:1]c3ccc4c(c3)CN(C(=O)C(NC(=O)C(C)NC)C(C)(C)C)C(C(=O)NC3CCCc5ccccc53)C4)CCC2=O)cc1C)[100C:0](=O)N1CCCC(n2nc(-c3ccc(Oc4ccc(F)cc4F)cc3)c(C(N)=O)c2N)C1

> <Shape>
0.260

> <Color>
0.070

> <Negative vol penalty>
0.000

$$$$

  -OEChem-04042323213D

 85 94  0     1  0  0  0  0  0999 V2000
  -16.4884  -27.2839   26.3505 C   0  0  0  0  0  0  0  0  0  0  0  0
  -17.3280  -26.4201   25.6544 C   0  0  0  0  0  0  0  0  0  0  0  0
  -23.8255  -13.8392   19.8306 C   0  0  0  0  0  0  0  0  0  0  0  0
  -26.2283  -13.7302   19.6027 C   0  0  0  0  0  0  0  0  0  0  0  0
  -16.4187  -28.6286   25.9886 C   0  0  0  0  0  0  0  0  0  0  0  0
  -18.0975  -26.9003   24.5954 C   0  0  0  0  0  0  0  0  0  0  0  0
  -23.7159  -25.0610   22.9966 C   0  0  0  0  0  0  0  0  0  0  0  0
  -31.0963  -19.6533   19.3231 C   0  0  0  0  0  0  0  0  0  0  0  0
  -23.7555  -12.4480   19.7584 C   0  0  0  0  0  0  0  0  0  0  0  0
  -26.1583  -12.3390   19.5305 C   0  0  0  0  0  0  0  0  0  0  0  0
  -24.1706  -24.1751   22.0208 C   0  0  0  0  0  0  0  0  0  0  0  0
  -22.9776   -8.9049   19.9964 C   0  0  0  0  0  0  0  0  0  0  0  0
  -31.9206  -18.5373   19.4669 C   0  0  0  0  0  0  0  0  0  0  0  0
  -22.1556   -8.2486   20.9124 C   0  0  0  0  0  0  0  0  0  0  0  0
  -31.1904  -18.2929   21.7569 C   0  0  0  0  0  0  0  0  0  0  0  0
  -24.5486  -26.0281   20.5233 C   0  0  0  0  0  0  0  0  0  0  0  0
  -23.4566   -9.1596   22.7329 C   0  0  0  0  0  0  0  0  0  0  0  0
  -25.0619  -14.4803   19.7527 C   0  0  0  0  0  0  0  0  0  0  0  0
  -30.3661  -19.4089   21.6131 C   0  0  0  0  0  0  0  0  0  0  0  0
  -24.5308  -16.8452   18.9569 C   0  0  0  0  0  0  0  0  0  0  0  0
  -17.1950  -29.1276   24.9308 C   0  0  0  0  0  0  0  0  0  0  0  0
  -23.6638  -26.4384   22.7388 C   0  0  0  0  0  0  0  0  0  0  0  0
  -18.0371  -28.2527   24.2182 C   0  0  0  0  0  0  0  0  0  0  0  0
  -24.0952  -26.9296   21.4984 C   0  0  0  0  0  0  0  0  0  0  0  0
  -30.3190  -20.0891   20.3963 C   0  0  0  0  0  0  0  0  0  0  0  0
  -24.9219  -11.6979   19.6084 C   0  0  0  0  0  0  0  0  0  0  0  0
  -24.5843  -24.6583   20.7829 C   0  0  0  0  0  0  0  0  0  0  0  0
  -24.0392   -9.6886   20.4487 C   0  0  0  0  0  0  0  0  0  0  0  0
  -31.9677  -17.8572   20.6838 C   0  0  0  0  0  0  0  0  0  0  0  0
  -22.3950   -8.3759   22.2806 C   0  0  0  0  0  0  0  0  0  0  0  0
  -24.2787   -9.8160   21.8169 C   0  0  0  0  0  0  0  0  0  0  0  0
  -25.1348  -15.9174   19.8266 C   0  0  0  0  0  0  0  0  0  0  0  0
  -24.9000  -18.0716   19.4530 C   0  0  0  0  0  0  0  0  0  0  0  0
  -29.5464  -22.4352   20.9546 C   0  0  0  0  0  0  0  0  0  0  0  0
  -29.5603  -19.8412   22.7624 C   0  0  0  0  0  0  0  0  0  0  0  0
  -23.7094  -16.6186   17.8039 C   0  0  0  0  0  0  0  0  0  0  0  0
  -21.3470  -28.6112   22.6155 C   0  0  0  0  0  0  0  0  0  0  0  0
  -23.8288  -30.6690   22.2565 C   0  0  0  0  0  0  0  0  0  0  0  0
  -27.0672  -31.1635   21.3000 C   0  0  0  0  0  0  0  0  0  0  0  0
  -17.0504  -30.5786   24.5458 C   0  0  0  0  0  0  0  0  0  0  0  0
  -23.1959  -27.3834   23.8114 C   0  0  0  0  0  0  0  0  0  0  0  0
  -24.0780  -28.4014   21.1788 C   0  0  0  0  0  0  0  0  0  0  0  0
  -28.5333  -23.3818   20.3518 C   0  0  0  0  0  0  0  0  0  0  0  0
  -18.1793  -31.0873   23.6530 C   0  0  0  0  0  0  0  0  0  0  0  0
  -26.1010  -20.2637   23.5345 C   0  0  0  0  0  0  0  0  0  0  0  0
  -18.4550  -30.0979   22.5252 C   0  0  0  0  0  0  0  0  0  0  0  0
  -25.4033  -19.2701   22.6038 C   0  0  0  0  0  0  0  0  0  0  0  0
  -27.4413  -19.7262   24.0298 C   0  0  0  0  0  0  0  0  0  0  0  0
  -28.4812  -21.3082   19.1787 C   0  0  0  0  0  0  0  0  0  0  0  0
  -27.6676  -18.3022   22.0234 C   0  0  0  0  0  0  0  0  0  0  0  0
  -18.9060  -28.7411   23.0795 C   0  0  1  0  0  0  0  0  0  0  0  0
  -22.7008  -28.7164   23.2588 C   0  0  1  0  0  0  0  0  0  0  0  0
  -27.5804  -22.4558   19.6091 C   0  0  2  0  0  0  0  0  0  0  0  0
  -26.3361  -18.8267   21.4611 C   0  0  1  0  0  0  0  0  0  0  0  0
  -28.8054  -32.9608   21.0856 C   0  0  0  0  0  0  0  0  0  0  0  0
  -22.4408  -31.7084   19.7459 C   0  0  0  0  0  0  0  0  0  0  0  0
  -24.6039  -32.7769   19.0768 C   0  0  0  0  0  0  0  0  0  0  0  0
  -23.4654  -33.4815   21.1815 C   0  0  0  0  0  0  0  0  0  0  0  0
  -28.8730  -29.8066   23.2124 C   0  0  0  0  0  0  0  0  0  0  0  0
  -26.8725  -23.1299   18.4472 C   0  0  0  0  0  0  0  0  0  0  0  0
  -26.0026  -24.2886   18.9100 C   0  0  0  0  0  0  0  0  0  1  0  0
  -24.5968  -31.2228   21.0808 C   0  0  1  0  0  0  0  0  0  0  0  0
  -28.2204  -31.8790   21.9802 C   0  0  2  0  0  0  0  0  0  0  0  0
  -23.7754  -32.2694   20.2763 C   0  0  0  0  0  0  0  0  0  0  0  0
  -25.8347  -16.5043   20.8012 N   0  0  0  0  0  0  0  0  0  0  0  0
  -25.6729  -17.8139   20.5468 N   0  0  0  0  0  0  0  0  0  0  0  0
  -29.4829  -21.2326   20.2256 N   0  0  0  0  0  0  0  0  0  0  0  0
  -28.2777  -19.3067   22.9059 N   0  0  0  0  0  0  0  0  0  0  0  0
  -23.6062  -29.2847   22.2580 N   0  0  0  0  0  0  0  0  0  0  0  0
  -24.6358  -19.3344   19.0558 N   0  0  0  0  0  0  0  0  0  0  0  0
  -24.3313  -16.4987   16.5536 N   0  0  0  0  0  0  0  0  0  0  0  0
  -20.2929  -28.7982   23.4891 N   0  0  0  0  0  0  0  0  0  0  0  0
  -25.8530  -31.7342   21.6182 N   0  0  0  0  0  0  0  0  0  0  0  0
  -29.3030  -30.9121   22.3180 N   0  3  0  0  0  0  0  0  0  0  0  0
  -30.2865  -22.7627   21.8708 O   0  0  0  0  0  0  0  0  0  0  0  0
  -30.0828  -20.6629   23.5140 O   0  0  0  0  0  0  0  0  0  0  0  0
  -22.4595  -16.5415   17.8777 O   0  0  0  0  0  0  0  0  0  0  0  0
  -21.2650  -28.3791   21.4150 O   0  0  0  0  0  0  0  0  0  0  0  0
  -23.4469  -31.4353   23.1445 O   0  0  0  0  0  0  0  0  0  0  0  0
  -27.2278  -30.1973   20.5575 O   0  0  0  0  0  0  0  0  0  0  0  0
  -24.8540  -10.3403   19.5381 O   0  0  0  0  0  0  0  0  0  0  0  0
  -25.0280  -23.7957   19.8284 O   0  0  0  0  0  0  0  0  0  1  0  0
  -32.7589  -16.7852   20.8222 F   0  0  0  0  0  0  0  0  0  0  0  0
  -21.6046   -7.7468   23.1601 F   0  0  0  0  0  0  0  0  0  0  0  0
  -25.2963  -10.5684   22.2575 F   0  0  0  0  0  0  0  0  0  0  0  0
  1  2  1  0  0  0  0
  1  5  2  0  0  0  0
  2  6  2  0  0  0  0
  3  9  2  0  0  0  0
  3 18  1  0  0  0  0
  4 10  1  0  0  0  0
  4 18  2  0  0  0  0
  5 21  1  0  0  0  0
  6 23  1  0  0  0  0
  7 11  2  0  0  0  0
  7 22  1  0  0  0  0
  8 13  2  0  0  0  0
  8 25  1  0  0  0  0
  9 26  1  0  0  0  0
 10 26  2  0  0  0  0
 11 27  1  0  0  0  0
 12 14  2  0  0  0  0
 12 28  1  0  0  0  0
 13 29  1  0  0  0  0
 14 30  1  0  0  0  0
 15 19  1  0  0  0  0
 15 29  2  0  0  0  0
 16 24  1  0  0  0  0
 16 27  2  0  0  0  0
 17 30  2  0  0  0  0
 17 31  1  0  0  0  0
 18 32  1  0  0  0  0
 19 25  2  0  0  0  0
 19 35  1  0  0  0  0
 20 32  1  0  0  0  0
 20 33  2  0  0  0  0
 20 36  1  0  0  0  0
 21 23  2  0  0  0  0
 21 40  1  0  0  0  0
 22 24  2  0  0  0  0
 22 41  1  0  0  0  0
 23 51  1  0  0  0  0
 24 42  1  0  0  0  0
 25 67  1  0  0  0  0
 26 81  1  0  0  0  0
 27 82  1  0  0  0  0
 28 31  2  0  0  0  0
 28 81  1  0  0  0  0
 29 83  1  0  0  0  0
 30 84  1  0  0  0  0
 31 85  1  0  0  0  0
 32 65  2  0  0  0  0
 33 66  1  0  0  0  0
 33 70  1  0  0  0  0
 34 43  1  0  0  0  0
 34 67  1  0  0  0  0
 34 75  2  0  0  0  0
 35 68  1  0  0  0  0
 35 76  2  0  0  0  0
 36 71  1  0  0  0  0
 36 77  2  0  0  0  0
 37 52  1  0  0  0  0
 37 72  1  0  0  0  0
 37 78  2  0  0  0  0
 38 62  1  0  0  0  0
 38 69  1  0  0  0  0
 38 79  2  0  0  0  0
 39 63  1  0  0  0  0
 39 73  1  0  0  0  0
 39 80  2  0  0  0  0
 40 44  1  0  0  0  0
 41 52  1  0  0  0  0
 42 69  1  0  0  0  0
 43 53  1  0  0  0  0
 44 46  1  0  0  0  0
 45 47  1  0  0  0  0
 45 48  1  0  0  0  0
 46 51  1  0  0  0  0
 47 54  1  0  0  0  0
 48 68  1  0  0  0  0
 49 53  1  0  0  0  0
 49 67  1  0  0  0  0
 50 54  1  0  0  0  0
 50 68  1  0  0  0  0
 51 72  1  0  0  0  0
 52 69  1  0  0  0  0
 53 60  1  0  0  0  0
 54 66  1  0  0  0  0
 55 63  1  0  0  0  0
 56 64  1  0  0  0  0
 57 64  1  0  0  0  0
 58 64  1  0  0  0  0
 59 74  1  0  0  0  0
 60 61  1  0  0  0  0
 61 82  1  0  0  0  0
 62 64  1  0  0  0  0
 62 73  1  0  0  0  0
 63 74  1  0  0  0  0
 65 66  1  0  0  0  0
M  CHG  1  74   1
M  ISO  4  19 100  35 100  61 101  82 101
M  END
> <Batch ID>
0066

> <Smiles>
CNC(C)C(=O)NC(C(=O)N1Cc2cc([101O:1][101CH2:1]CC3CC(=O)N(c4ccc(F)c[100c:0]4[100C:0](=O)N4CCCC(n5nc(-c6ccc(Oc7ccc(F)cc7F)cc6)c(C(N)=O)c5N)C4)C3)ccc2CC1C(=O)NC1CCCc2ccccc21)C(C)(C)C

> <Shape>
0.218

> <Color>
0.051

> <Negative vol penalty>
0.000

$$$$

  -OEChem-04042323213D

 85 93  0     1  0  0  0  0  0999 V2000
  -20.6851  -22.5747   30.0619 C   0  0  0  0  0  0  0  0  0  0  0  0
  -21.5734  -22.2258   29.0498 C   0  0  0  0  0  0  0  0  0  0  0  0
  -22.8912   -9.9692   20.0707 C   0  0  0  0  0  0  0  0  0  0  0  0
  -23.6078  -10.0858   22.3751 C   0  0  0  0  0  0  0  0  0  0  0  0
  -32.8688  -17.2023   23.2790 C   0  0  0  0  0  0  0  0  0  0  0  0
  -19.7514  -23.5881   29.8497 C   0  0  0  0  0  0  0  0  0  0  0  0
  -21.5279  -22.8895   27.8243 C   0  0  0  0  0  0  0  0  0  0  0  0
  -26.1281  -24.1621   26.1320 C   0  0  0  0  0  0  0  0  0  0  0  0
  -32.2420  -16.2972   22.4226 C   0  0  0  0  0  0  0  0  0  0  0  0
  -22.0706   -8.8848   20.3807 C   0  0  0  0  0  0  0  0  0  0  0  0
  -22.7871   -9.0013   22.6851 C   0  0  0  0  0  0  0  0  0  0  0  0
  -26.8936  -23.1532   25.5490 C   0  0  0  0  0  0  0  0  0  0  0  0
  -22.8750   -5.6373   22.3591 C   0  0  0  0  0  0  0  0  0  0  0  0
  -23.4104   -4.6271   23.1582 C   0  0  0  0  0  0  0  0  0  0  0  0
  -26.2723  -23.9549   23.3603 C   0  0  0  0  0  0  0  0  0  0  0  0
  -30.1067  -17.3196   22.9047 C   0  0  0  0  0  0  0  0  0  0  0  0
  -21.6925   -5.0234   24.8102 C   0  0  0  0  0  0  0  0  0  0  0  0
  -23.6598  -10.5697   21.0679 C   0  0  0  0  0  0  0  0  0  0  0  0
  -32.1145  -18.1661   23.9484 C   0  0  0  0  0  0  0  0  0  0  0  0
  -24.1647  -13.0543   20.7861 C   0  0  0  0  0  0  0  0  0  0  0  0
  -19.7008  -24.2712   28.6243 C   0  0  0  0  0  0  0  0  0  0  0  0
  -25.4190  -25.0698   25.3323 C   0  0  0  0  0  0  0  0  0  0  0  0
  -20.5918  -23.9121   27.5950 C   0  0  0  0  0  0  0  0  0  0  0  0
  -25.5006  -24.9759   23.9356 C   0  0  0  0  0  0  0  0  0  0  0  0
  -30.8610  -16.3559   22.2354 C   0  0  0  0  0  0  0  0  0  0  0  0
  -30.7335  -18.2247   23.7612 C   0  0  0  0  0  0  0  0  0  0  0  0
  -22.0185   -8.4008   21.6879 C   0  0  0  0  0  0  0  0  0  0  0  0
  -26.9635  -23.0477   24.1630 C   0  0  0  0  0  0  0  0  0  0  0  0
  -21.7485   -6.3406   22.7856 C   0  0  0  0  0  0  0  0  0  0  0  0
  -22.8191   -4.3201   24.3837 C   0  0  0  0  0  0  0  0  0  0  0  0
  -21.1572   -6.0337   24.0111 C   0  0  0  0  0  0  0  0  0  0  0  0
  -24.5082  -11.6896   20.7482 C   0  0  0  0  0  0  0  0  0  0  0  0
  -25.3091  -13.7073   20.3981 C   0  0  0  0  0  0  0  0  0  0  0  0
  -22.9224  -13.6762   21.1405 C   0  0  0  0  0  0  0  0  0  0  0  0
  -32.8004  -19.0965   24.8364 C   0  0  0  0  0  0  0  0  0  0  0  0
  -22.3486  -25.7961   24.9460 C   0  0  0  0  0  0  0  0  0  0  0  0
  -23.5438  -28.1403   23.0490 C   0  0  0  0  0  0  0  0  0  0  0  0
  -29.1816  -20.1376   23.6819 C   0  0  0  0  0  0  0  0  0  0  0  0
  -26.1100  -29.2635   21.0996 C   0  0  0  0  0  0  0  0  0  0  0  0
  -30.8269  -14.4181   20.6259 C   0  0  0  0  0  0  0  0  0  0  0  0
  -18.6428  -25.3274   28.4252 C   0  0  0  0  0  0  0  0  0  0  0  0
  -24.6192  -26.1687   25.9764 C   0  0  0  0  0  0  0  0  0  0  0  0
  -24.7744  -25.9379   23.0324 C   0  0  0  0  0  0  0  0  0  0  0  0
  -18.9077  -26.2368   27.2280 C   0  0  0  0  0  0  0  0  0  0  0  0
  -29.6039  -11.9222   18.4006 C   0  0  0  0  0  0  0  0  0  0  0  0
  -19.2975  -25.4109   26.0062 C   0  0  0  0  0  0  0  0  0  0  0  0
  -28.1409  -11.7515   18.8161 C   0  0  0  0  0  0  0  0  0  0  0  0
  -30.5096  -12.1751   19.6046 C   0  0  0  0  0  0  0  0  0  0  0  0
  -28.6279  -13.1105   20.8905 C   0  0  0  0  0  0  0  0  0  0  0  0
  -20.5899  -24.6257   26.2605 C   0  0  1  0  0  0  0  0  0  0  0  0
  -23.5253  -26.7225   25.0687 C   0  0  1  0  0  0  0  0  0  0  0  0
  -27.6677  -12.9182   19.7052 C   0  0  2  0  0  0  0  0  0  0  0  0
  -26.7811  -31.1984   19.6493 C   0  0  0  0  0  0  0  0  0  0  0  0
  -21.6972  -27.1241   20.8429 C   0  0  0  0  0  0  0  0  0  0  0  0
  -23.0616  -28.4267   19.1967 C   0  0  0  0  0  0  0  0  0  0  0  0
  -21.8402  -29.6147   21.0187 C   0  0  0  0  0  0  0  0  0  0  0  0
  -29.9177  -19.2330   25.9171 C   0  0  0  0  0  0  0  0  0  0  0  0
  -28.4419  -29.8879   22.8118 C   0  0  0  0  0  0  0  0  0  0  0  0
  -28.3947  -21.1735   24.4716 C   0  0  0  0  0  0  0  0  0  1  0  0
  -23.8956  -28.2560   21.5855 C   0  0  1  0  0  0  0  0  0  0  0  0
  -26.8242  -30.6020   21.0477 C   0  0  2  0  0  0  0  0  0  0  0  0
  -22.6359  -28.3359   20.6777 C   0  0  0  0  0  0  0  0  0  0  0  0
  -25.7717  -11.4864   20.3660 N   0  0  0  0  0  0  0  0  0  0  0  0
  -26.2323  -12.7320   20.1602 N   0  0  0  0  0  0  0  0  0  0  0  0
  -24.0006  -26.9913   23.7100 N   0  0  0  0  0  0  0  0  0  0  0  0
  -30.0017  -13.2966   20.3978 N   0  0  0  0  0  0  0  0  0  0  0  0
  -25.6056  -15.0149   20.2405 N   0  0  0  0  0  0  0  0  0  0  0  0
  -21.8483  -12.8574   21.5152 N   0  0  0  0  0  0  0  0  0  0  0  0
  -32.7000  -20.4354   24.5405 N   0  0  0  0  0  0  0  0  0  0  0  0
  -30.2251  -15.4358   21.3654 N   0  0  0  0  0  0  0  0  0  0  0  0
  -21.7404  -25.4967   26.1501 N   0  0  0  0  0  0  0  0  0  0  0  0
  -24.7892  -29.4035   21.4700 N   0  0  0  0  0  0  0  0  0  0  0  0
  -29.9295  -19.2166   24.4462 N   0  0  0  0  0  0  0  0  0  0  0  0
  -28.2512  -30.4436   21.4473 N   0  3  0  0  0  0  0  0  0  0  0  0
  -22.7644  -14.9202   21.1096 O   0  0  0  0  0  0  0  0  0  0  0  0
  -22.0163  -25.3847   23.8406 O   0  0  0  0  0  0  0  0  0  0  0  0
  -22.8940  -29.0399   23.5877 O   0  0  0  0  0  0  0  0  0  0  0  0
  -29.1469  -20.1788   22.4495 O   0  0  0  0  0  0  0  0  0  0  0  0
  -26.6670  -28.2006   20.8344 O   0  0  0  0  0  0  0  0  0  0  0  0
  -31.9728  -14.4834   20.1737 O   0  0  0  0  0  0  0  0  0  0  0  0
  -21.2177   -7.3428   21.9909 O   0  0  0  0  0  0  0  0  0  0  0  0
  -27.7095  -22.0635   23.5914 O   0  0  0  0  0  0  0  0  0  1  0  0
  -23.3324   -3.3489   25.1502 F   0  0  0  0  0  0  0  0  0  0  0  0
  -20.0741   -6.7051   24.4257 F   0  0  0  0  0  0  0  0  0  0  0  0
  -33.6508  -18.5601   26.1741 S   0  0  0  0  0  0  0  0  0  0  0  0
  1  2  1  0  0  0  0
  1  6  2  0  0  0  0
  2  7  2  0  0  0  0
  3 10  2  0  0  0  0
  3 18  1  0  0  0  0
  4 11  1  0  0  0  0
  4 18  2  0  0  0  0
  5  9  2  0  0  0  0
  5 19  1  0  0  0  0
  6 21  1  0  0  0  0
  7 23  1  0  0  0  0
  8 12  2  0  0  0  0
  8 22  1  0  0  0  0
  9 25  1  0  0  0  0
 10 27  1  0  0  0  0
 11 27  2  0  0  0  0
 12 28  1  0  0  0  0
 13 14  2  0  0  0  0
 13 29  1  0  0  0  0
 14 30  1  0  0  0  0
 15 24  1  0  0  0  0
 15 28  2  0  0  0  0
 16 25  2  0  0  0  0
 16 26  1  0  0  0  0
 17 30  2  0  0  0  0
 17 31  1  0  0  0  0
 18 32  1  0  0  0  0
 19 26  2  0  0  0  0
 19 35  1  0  0  0  0
 20 32  1  0  0  0  0
 20 33  2  0  0  0  0
 20 34  1  0  0  0  0
 21 23  2  0  0  0  0
 21 41  1  0  0  0  0
 22 24  2  0  0  0  0
 22 42  1  0  0  0  0
 23 50  1  0  0  0  0
 24 43  1  0  0  0  0
 25 70  1  0  0  0  0
 26 73  1  0  0  0  0
 27 81  1  0  0  0  0
 28 82  1  0  0  0  0
 29 31  2  0  0  0  0
 29 81  1  0  0  0  0
 30 83  1  0  0  0  0
 31 84  1  0  0  0  0
 32 63  2  0  0  0  0
 33 64  1  0  0  0  0
 33 67  1  0  0  0  0
 34 68  1  0  0  0  0
 34 75  2  0  0  0  0
 35 69  1  0  0  0  0
 35 85  2  0  0  0  0
 36 51  1  0  0  0  0
 36 71  1  0  0  0  0
 36 76  2  0  0  0  0
 37 60  1  0  0  0  0
 37 65  1  0  0  0  0
 37 77  2  0  0  0  0
 38 59  1  0  0  0  0
 38 73  1  0  0  0  0
 38 78  2  0  0  0  0
 39 61  1  0  0  0  0
 39 72  1  0  0  0  0
 39 79  2  0  0  0  0
 40 66  1  0  0  0  0
 40 70  1  0  0  0  0
 40 80  2  0  0  0  0
 41 44  1  0  0  0  0
 42 51  1  0  0  0  0
 43 65  1  0  0  0  0
 44 46  1  0  0  0  0
 45 47  1  0  0  0  0
 45 48  1  0  0  0  0
 46 50  1  0  0  0  0
 47 52  1  0  0  0  0
 48 66  1  0  0  0  0
 49 52  1  0  0  0  0
 49 66  1  0  0  0  0
 50 71  1  0  0  0  0
 51 65  1  0  0  0  0
 52 64  1  0  0  0  0
 53 61  1  0  0  0  0
 54 62  1  0  0  0  0
 55 62  1  0  0  0  0
 56 62  1  0  0  0  0
 57 73  1  0  0  0  0
 58 74  1  0  0  0  0
 59 82  1  0  0  0  0
 60 62  1  0  0  0  0
 60 72  1  0  0  0  0
 61 74  1  0  0  0  0
 63 64  1  0  0  0  0
M  CHG  1  74   1
M  ISO  4  40 100  59 101  70 100  82 101
M  END
> <Batch ID>
0066

> <Smiles>
CNC(C)C(=O)NC(C(=O)N1Cc2cc([101O:1][101CH2:1]C(=O)N(C)c3cc([100NH:0][100C:0](=O)N4CCCC(n5nc(-c6ccc(Oc7ccc(F)cc7F)cc6)c(C(N)=O)c5N)C4)ccc3C(N)=S)ccc2CC1C(=O)NC1CCCc2ccccc21)C(C)(C)C

> <Shape>
0.239

> <Color>
0.205

> <Negative vol penalty>
0.000

$$$$

  -OEChem-04042323213D

 87 96  0     1  0  0  0  0  0999 V2000
  -28.0747  -37.8361   21.1673 C   0  0  0  0  0  0  0  0  0  0  0  0
  -28.4998  -36.5728   20.7688 C   0  0  0  0  0  0  0  0  0  0  0  0
  -25.6350  -11.0083   21.5069 C   0  0  0  0  0  0  0  0  0  0  0  0
  -25.6050  -12.8193   19.9080 C   0  0  0  0  0  0  0  0  0  0  0  0
  -27.1702  -37.9659   22.2204 C   0  0  0  0  0  0  0  0  0  0  0  0
  -28.0216  -35.4386   21.4240 C   0  0  0  0  0  0  0  0  0  0  0  0
  -26.8678  -29.9624   18.9368 C   0  0  0  0  0  0  0  0  0  0  0  0
  -30.4548  -21.4644   22.9615 C   0  0  0  0  0  0  0  0  0  0  0  0
  -30.6310  -20.1132   23.2595 C   0  0  0  0  0  0  0  0  0  0  0  0
  -24.2708  -10.8036   21.3008 C   0  0  0  0  0  0  0  0  0  0  0  0
  -24.2407  -12.6146   19.7018 C   0  0  0  0  0  0  0  0  0  0  0  0
  -27.6046  -28.7798   18.8895 C   0  0  0  0  0  0  0  0  0  0  0  0
  -22.2950   -9.3267   18.9882 C   0  0  0  0  0  0  0  0  0  0  0  0
  -21.8537   -8.0135   18.8264 C   0  0  0  0  0  0  0  0  0  0  0  0
  -29.9228  -20.8909   20.6756 C   0  0  0  0  0  0  0  0  0  0  0  0
  -26.3988  -27.9587   20.8107 C   0  0  0  0  0  0  0  0  0  0  0  0
  -20.4301   -8.2532   20.7636 C   0  0  0  0  0  0  0  0  0  0  0  0
  -26.3021  -12.0162   20.8106 C   0  0  0  0  0  0  0  0  0  0  0  0
  -30.0991  -19.5396   20.9736 C   0  0  0  0  0  0  0  0  0  0  0  0
  -28.7764  -11.6293   20.3247 C   0  0  0  0  0  0  0  0  0  0  0  0
  -26.6732  -36.8323   22.8825 C   0  0  0  0  0  0  0  0  0  0  0  0
  -25.8969  -30.1569   19.9298 C   0  0  0  0  0  0  0  0  0  0  0  0
  -27.1106  -35.5535   22.4878 C   0  0  0  0  0  0  0  0  0  0  0  0
  -25.6493  -29.1437   20.8669 C   0  0  0  0  0  0  0  0  0  0  0  0
  -30.1006  -21.8532   21.6695 C   0  0  0  0  0  0  0  0  0  0  0  0
  -30.4532  -19.1508   22.2656 C   0  0  0  0  0  0  0  0  0  0  0  0
  -23.5736  -11.6067   20.3982 C   0  0  0  0  0  0  0  0  0  0  0  0
  -27.3721  -27.7788   19.8282 C   0  0  0  0  0  0  0  0  0  0  0  0
  -21.8039  -10.1032   20.0378 C   0  0  0  0  0  0  0  0  0  0  0  0
  -20.9212   -7.4767   19.7141 C   0  0  0  0  0  0  0  0  0  0  0  0
  -20.8714   -9.5665   20.9255 C   0  0  0  0  0  0  0  0  0  0  0  0
  -27.7113  -12.2284   21.0235 C   0  0  0  0  0  0  0  0  0  0  0  0
  -29.9056  -12.1579   20.9008 C   0  0  0  0  0  0  0  0  0  0  0  0
  -29.5883  -23.8386   20.2209 C   0  0  0  0  0  0  0  0  0  0  0  0
  -29.9874  -24.3150   22.1489 C   0  0  0  0  0  0  0  0  0  0  0  0
  -29.9083  -18.5592   19.9119 C   0  0  0  0  0  0  0  0  0  0  0  0
  -28.7476  -10.6800   19.2506 C   0  0  0  0  0  0  0  0  0  0  0  0
  -25.5018  -32.2322   22.3049 C   0  0  0  0  0  0  0  0  0  0  0  0
  -22.6443  -30.7302   22.6223 C   0  0  0  0  0  0  0  0  0  0  0  0
  -20.7743  -27.9220   22.1081 C   0  0  0  0  0  0  0  0  0  0  0  0
  -30.9919  -17.2514   23.8303 C   0  0  0  0  0  0  0  0  0  0  0  0
  -25.7334  -37.0250   24.0462 C   0  0  0  0  0  0  0  0  0  0  0  0
  -25.0921  -31.4274   19.9511 C   0  0  0  0  0  0  0  0  0  0  0  0
  -24.6040  -29.2949   21.9408 C   0  0  0  0  0  0  0  0  0  0  0  0
  -24.9866  -35.7542   24.4430 C   0  0  0  0  0  0  0  0  0  0  0  0
  -31.5099  -13.9446   25.0443 C   0  0  0  0  0  0  0  0  0  0  0  0
  -25.9477  -34.5722   24.5202 C   0  0  0  0  0  0  0  0  0  0  0  0
  -30.6964  -13.0741   24.0837 C   0  0  0  0  0  0  0  0  0  0  0  0
  -30.8170  -15.2762   25.3280 C   0  0  0  0  0  0  0  0  0  0  0  0
  -29.6236  -15.1743   23.1752 C   0  0  0  0  0  0  0  0  0  0  0  0
  -26.5955  -34.2980   23.1575 C   0  0  1  0  0  0  0  0  0  0  0  0
  -29.6308  -25.2001   20.9399 C   0  0  0  0  0  0  0  0  0  0  0  0
  -24.4865  -31.7283   21.3186 C   0  0  1  0  0  0  0  0  0  0  0  0
  -30.3124  -13.8496   22.8083 C   0  0  2  0  0  0  0  0  0  0  0  0
  -28.9253  -18.8955   18.8305 C   0  0  0  0  0  0  0  0  0  0  0  0
  -18.4835  -26.9799   22.5102 C   0  0  0  0  0  0  0  0  0  0  0  0
  -23.3438  -30.2891   25.5593 C   0  0  0  0  0  0  0  0  0  0  0  0
  -21.5269  -28.5697   25.6617 C   0  0  0  0  0  0  0  0  0  0  0  0
  -20.9668  -30.9439   25.1400 C   0  0  0  0  0  0  0  0  0  0  0  0
  -20.2740  -27.5937   19.2097 C   0  0  0  0  0  0  0  0  0  0  0  0
  -28.3220  -25.9558   21.0242 C   0  0  0  0  0  0  0  0  0  1  0  0
  -22.1442  -29.5370   23.4003 C   0  0  1  0  0  0  0  0  0  0  0  0
  -19.3805  -27.7304   21.5382 C   0  0  2  0  0  0  0  0  0  0  0  0
  -22.0166  -29.8325   24.9214 C   0  0  0  0  0  0  0  0  0  0  0  0
  -28.1267  -13.0729   21.9714 N   0  0  0  0  0  0  0  0  0  0  0  0
  -29.4654  -13.0081   21.8722 N   0  0  0  0  0  0  0  0  0  0  0  0
  -29.9277  -23.1854   21.3763 N   0  0  0  0  0  0  0  0  0  0  0  0
  -23.8476  -30.5578   21.9237 N   0  0  0  0  0  0  0  0  0  0  0  0
  -30.4871  -15.9565   24.0737 N   0  0  0  0  0  0  0  0  0  0  0  0
  -31.2222  -11.9736   20.6664 N   0  0  0  0  0  0  0  0  0  0  0  0
  -27.5025  -10.2420   18.7792 N   0  0  0  0  0  0  0  0  0  0  0  0
  -30.6388  -17.7843   22.5909 N   0  0  0  0  0  0  0  0  0  0  0  0
  -25.6697  -33.6037   22.2884 N   0  0  0  0  0  0  0  0  0  0  0  0
  -20.8964  -29.1287   22.7641 N   0  0  0  0  0  0  0  0  0  0  0  0
  -19.4431  -26.9586   20.2648 N   0  3  0  0  0  0  0  0  0  0  0  0
  -29.3432  -23.4519   19.1005 O   0  0  0  0  0  0  0  0  0  0  0  0
  -30.2185  -24.4965   23.3231 O   0  0  0  0  0  0  0  0  0  0  0  0
  -30.4901  -17.4768   19.8416 O   0  0  0  0  0  0  0  0  0  0  0  0
  -29.7952  -10.2208   18.7356 O   0  0  0  0  0  0  0  0  0  0  0  0
  -26.0884  -31.4358   23.0283 O   0  0  0  0  0  0  0  0  0  0  0  0
  -21.9875  -31.7744   22.6282 O   0  0  0  0  0  0  0  0  0  0  0  0
  -21.6646  -27.0834   21.9870 O   0  0  0  0  0  0  0  0  0  0  0  0
  -31.7087  -17.8329   24.6488 O   0  0  0  0  0  0  0  0  0  0  0  0
  -22.2424  -11.4071   20.1966 O   0  0  0  0  0  0  0  0  0  0  0  0
  -28.0903  -26.6238   19.7846 O   0  0  0  0  0  0  0  0  0  1  0  0
  -20.4964   -6.2161   19.5576 F   0  0  0  0  0  0  0  0  0  0  0  0
  -20.3951  -10.3080   21.9350 F   0  0  0  0  0  0  0  0  0  0  0  0
  1  2  1  0  0  0  0
  1  5  2  0  0  0  0
  2  6  2  0  0  0  0
  3 10  2  0  0  0  0
  3 18  1  0  0  0  0
  4 11  1  0  0  0  0
  4 18  2  0  0  0  0
  5 21  1  0  0  0  0
  6 23  1  0  0  0  0
  7 12  2  0  0  0  0
  7 22  1  0  0  0  0
  8  9  2  0  0  0  0
  8 25  1  0  0  0  0
  9 26  1  0  0  0  0
 10 27  1  0  0  0  0
 11 27  2  0  0  0  0
 12 28  1  0  0  0  0
 13 14  2  0  0  0  0
 13 29  1  0  0  0  0
 14 30  1  0  0  0  0
 15 19  1  0  0  0  0
 15 25  2  0  0  0  0
 16 24  1  0  0  0  0
 16 28  2  0  0  0  0
 17 30  2  0  0  0  0
 17 31  1  0  0  0  0
 18 32  1  0  0  0  0
 19 26  2  0  0  0  0
 19 36  1  0  0  0  0
 20 32  1  0  0  0  0
 20 33  2  0  0  0  0
 20 37  1  0  0  0  0
 21 23  2  0  0  0  0
 21 42  1  0  0  0  0
 22 24  2  0  0  0  0
 22 43  1  0  0  0  0
 23 51  1  0  0  0  0
 24 44  1  0  0  0  0
 25 67  1  0  0  0  0
 26 72  1  0  0  0  0
 27 84  1  0  0  0  0
 28 85  1  0  0  0  0
 29 31  2  0  0  0  0
 29 84  1  0  0  0  0
 30 86  1  0  0  0  0
 31 87  1  0  0  0  0
 32 65  2  0  0  0  0
 33 66  1  0  0  0  0
 33 70  1  0  0  0  0
 34 52  1  0  0  0  0
 34 67  1  0  0  0  0
 34 76  2  0  0  0  0
 35 52  1  0  0  0  0
 35 67  1  0  0  0  0
 35 77  2  0  0  0  0
 36 55  1  0  0  0  0
 36 78  2  0  0  0  0
 37 71  1  0  0  0  0
 37 79  2  0  0  0  0
 38 53  1  0  0  0  0
 38 73  1  0  0  0  0
 38 80  2  0  0  0  0
 39 62  1  0  0  0  0
 39 68  1  0  0  0  0
 39 81  2  0  0  0  0
 40 63  1  0  0  0  0
 40 74  1  0  0  0  0
 40 82  2  0  0  0  0
 41 69  1  0  0  0  0
 41 72  1  0  0  0  0
 41 83  2  0  0  0  0
 42 45  1  0  0  0  0
 43 53  1  0  0  0  0
 44 68  1  0  0  0  0
 45 47  1  0  0  0  0
 46 48  1  0  0  0  0
 46 49  1  0  0  0  0
 47 51  1  0  0  0  0
 48 54  1  0  0  0  0
 49 69  1  0  0  0  0
 50 54  1  0  0  0  0
 50 69  1  0  0  0  0
 51 73  1  0  0  0  0
 52 61  1  0  0  0  0
 53 68  1  0  0  0  0
 54 66  1  0  0  0  0
 56 63  1  0  0  0  0
 57 64  1  0  0  0  0
 58 64  1  0  0  0  0
 59 64  1  0  0  0  0
 60 75  1  0  0  0  0
 61 85  1  0  0  0  0
 62 64  1  0  0  0  0
 62 74  1  0  0  0  0
 63 75  1  0  0  0  0
 65 66  1  0  0  0  0
M  CHG  1  75   1
M  ISO  4  41 100  61 101  72 100  85 101
M  END
> <Batch ID>
0066

> <Smiles>
CNC(C)C(=O)NC(C(=O)N1Cc2cc([101O:1][101CH2:1]C3C(=O)N(c4ccc([100NH:0][100C:0](=O)N5CCCC(n6nc(-c7ccc(Oc8ccc(F)cc8F)cc7)c(C(N)=O)c6N)C5)c(C(C)=O)c4)C3=O)ccc2CC1C(=O)NC1CCCc2ccccc21)C(C)(C)C

> <Shape>
0.312

> <Color>
0.091

> <Negative vol penalty>
0.000

$$$$

  -OEChem-04042323213D

 89 98  0     1  0  0  0  0  0999 V2000
  -17.2682  -27.0966   20.3277 C   0  0  0  0  0  0  0  0  0  0  0  0
  -18.4957  -26.4633   20.4938 C   0  0  0  0  0  0  0  0  0  0  0  0
  -22.6468  -10.5139   21.0127 C   0  0  0  0  0  0  0  0  0  0  0  0
  -24.5050   -9.0398   21.4725 C   0  0  0  0  0  0  0  0  0  0  0  0
  -17.2181  -28.4750   20.1247 C   0  0  0  0  0  0  0  0  0  0  0  0
  -19.6740  -27.2080   20.4558 C   0  0  0  0  0  0  0  0  0  0  0  0
  -24.7641  -26.2139   23.7130 C   0  0  0  0  0  0  0  0  0  0  0  0
  -28.4439  -18.5725   19.5970 C   0  0  0  0  0  0  0  0  0  0  0  0
  -28.7351  -18.1702   21.9614 C   0  0  0  0  0  0  0  0  0  0  0  0
  -28.7609  -19.9175   19.7868 C   0  0  0  0  0  0  0  0  0  0  0  0
  -29.0523  -19.5152   22.1512 C   0  0  0  0  0  0  0  0  0  0  0  0
  -21.9010   -9.8846   22.0093 C   0  0  0  0  0  0  0  0  0  0  0  0
  -23.7591   -8.4106   22.4692 C   0  0  0  0  0  0  0  0  0  0  0  0
  -25.9671  -25.5810   23.4034 C   0  0  0  0  0  0  0  0  0  0  0  0
  -21.2983   -6.0995   22.6552 C   0  0  0  0  0  0  0  0  0  0  0  0
  -21.3164   -4.7054   22.6955 C   0  0  0  0  0  0  0  0  0  0  0  0
  -26.9466  -27.7190   22.8659 C   0  0  0  0  0  0  0  0  0  0  0  0
  -22.2354   -4.7818   24.9286 C   0  0  0  0  0  0  0  0  0  0  0  0
  -23.9489  -10.0914   20.7442 C   0  0  0  0  0  0  0  0  0  0  0  0
  -24.4027  -10.8328   18.3459 C   0  0  0  0  0  0  0  0  0  0  0  0
  -18.3958  -29.2385   20.0939 C   0  0  0  0  0  0  0  0  0  0  0  0
  -24.6397  -27.6053   23.5907 C   0  0  0  0  0  0  0  0  0  0  0  0
  -19.6397  -28.5978   20.2509 C   0  0  0  0  0  0  0  0  0  0  0  0
  -25.7416  -28.3674   23.1770 C   0  0  0  0  0  0  0  0  0  0  0  0
  -28.4309  -17.6988   20.6843 C   0  0  0  0  0  0  0  0  0  0  0  0
  -29.0652  -20.3888   21.0638 C   0  0  0  0  0  0  0  0  0  0  0  0
  -22.4571   -8.8330   22.7376 C   0  0  0  0  0  0  0  0  0  0  0  0
  -27.0577  -26.3333   22.9770 C   0  0  0  0  0  0  0  0  0  0  0  0
  -21.7489   -6.8349   23.7516 C   0  0  0  0  0  0  0  0  0  0  0  0
  -21.7849   -4.0465   23.8322 C   0  0  0  0  0  0  0  0  0  0  0  0
  -22.2174   -6.1760   24.8883 C   0  0  0  0  0  0  0  0  0  0  0  0
  -24.7196  -10.7407   19.7144 C   0  0  0  0  0  0  0  0  0  0  0  0
  -25.4447  -11.5412   17.7991 C   0  0  0  0  0  0  0  0  0  0  0  0
  -29.4444  -22.7616   20.2656 C   0  0  0  0  0  0  0  0  0  0  0  0
  -23.2679  -10.3237   17.6327 C   0  0  0  0  0  0  0  0  0  0  0  0
  -22.8369  -29.5509   21.8392 C   0  0  0  0  0  0  0  0  0  0  0  0
  -24.2272  -31.8459   23.6620 C   0  0  0  0  0  0  0  0  0  0  0  0
  -29.3307  -15.4515   20.1910 C   0  0  0  0  0  0  0  0  0  0  0  0
  -26.8644  -32.7979   25.6076 C   0  0  0  0  0  0  0  0  0  0  0  0
  -18.2944  -30.7189   19.8244 C   0  0  0  0  0  0  0  0  0  0  0  0
  -23.3432  -28.2757   23.9542 C   0  0  0  0  0  0  0  0  0  0  0  0
  -25.6660  -29.8662   23.0488 C   0  0  0  0  0  0  0  0  0  0  0  0
  -19.5655  -31.4897   20.1715 C   0  0  0  0  0  0  0  0  0  0  0  0
  -30.0968  -12.4411   18.4047 C   0  0  0  0  0  0  0  0  0  0  0  0
  -20.7930  -30.7703   19.6215 C   0  0  0  0  0  0  0  0  0  0  0  0
  -28.7839  -11.6597   18.4383 C   0  0  0  0  0  0  0  0  0  0  0  0
  -30.3068  -13.2355   19.6899 C   0  0  0  0  0  0  0  0  0  0  0  0
  -29.7798  -22.2882   22.5550 C   0  0  0  0  0  0  0  0  0  0  0  0
  -27.8647  -13.3765   20.0609 C   0  0  0  0  0  0  0  0  0  0  0  0
  -20.9382  -29.3749   20.2408 C   0  0  1  0  0  0  0  0  0  0  0  0
  -29.9389  -24.0396   20.9230 C   0  0  1  0  0  0  0  0  0  0  0  0
  -23.1741  -29.6437   23.3005 C   0  0  1  0  0  0  0  0  0  0  0  0
  -29.6695  -23.8021   22.4132 C   0  0  1  0  0  0  0  0  0  0  0  0
  -27.5987  -12.5842   18.7687 C   0  0  2  0  0  0  0  0  0  0  0  0
  -31.9635  -25.4830   21.2252 C   0  0  0  0  0  0  0  0  0  0  0  0
  -27.7363  -34.7456   26.9281 C   0  0  0  0  0  0  0  0  0  0  0  0
  -25.0382  -33.2369   21.0702 C   0  0  0  0  0  0  0  0  0  0  0  0
  -26.6692  -34.5995   22.3936 C   0  0  0  0  0  0  0  0  0  0  0  0
  -24.2266  -34.7732   22.8689 C   0  0  0  0  0  0  0  0  0  0  0  0
  -26.8307  -31.2514   28.1307 C   0  0  0  0  0  0  0  0  0  0  0  0
  -25.8997  -16.3195   19.5193 C   0  0  0  0  0  0  0  0  0  0  0  0
  -31.4219  -24.2257   20.6204 C   0  0  0  0  0  0  0  0  0  0  0  0
  -28.2784  -24.2987   22.8145 C   0  0  0  0  0  0  0  0  0  1  0  0
  -25.4772  -32.6855   23.5540 C   0  0  1  0  0  0  0  0  0  0  0  0
  -26.9220  -33.4620   26.9715 C   0  0  2  0  0  0  0  0  0  0  0  0
  -28.0918  -16.2608   20.4813 C   0  0  2  0  0  0  0  0  0  0  0  0
  -25.3540  -33.7953   22.4721 C   0  0  0  0  0  0  0  0  0  0  0  0
  -25.8728  -11.3422   20.0183 N   0  0  0  0  0  0  0  0  0  0  0  0
  -26.2896  -11.8192   18.8330 N   0  0  0  0  0  0  0  0  0  0  0  0
  -29.3900  -21.7653   21.2583 N   0  0  0  0  0  0  0  0  0  0  0  0
  -24.3748  -30.4746   23.4097 N   0  0  0  0  0  0  0  0  0  0  0  0
  -29.1500  -14.0843   19.9806 N   0  0  0  0  0  0  0  0  0  0  0  0
  -25.7114  -11.9472   16.5396 N   0  0  0  0  0  0  0  0  0  0  0  0
  -23.3438   -9.0340   17.0894 N   0  0  0  0  0  0  0  0  0  0  0  0
  -21.4823  -29.4698   21.5785 N   0  0  0  0  0  0  0  0  0  0  0  0
  -25.7490  -33.1873   24.8966 N   0  0  0  0  0  0  0  0  0  0  0  0
  -27.5433  -32.5448   27.9684 N   0  3  0  0  0  0  0  0  0  0  0  0
  -29.2173  -22.6869   19.0661 O   0  0  0  0  0  0  0  0  0  0  0  0
  -22.2237  -10.9990   17.4676 O   0  0  0  0  0  0  0  0  0  0  0  0
  -23.7388  -29.5544   21.0096 O   0  0  0  0  0  0  0  0  0  0  0  0
  -23.1606  -32.3856   23.9662 O   0  0  0  0  0  0  0  0  0  0  0  0
  -30.4250  -16.0197   20.1500 O   0  0  0  0  0  0  0  0  0  0  0  0
  -27.7249  -32.0151   25.2110 O   0  0  0  0  0  0  0  0  0  0  0  0
  -21.7296   -8.2189   23.7104 O   0  0  0  0  0  0  0  0  0  0  0  0
  -28.2330  -25.7180   22.6735 O   0  0  0  0  0  0  0  0  0  1  0  0
  -27.2785  -16.0366   19.3148 O   0  0  0  0  0  0  0  0  0  0  0  0
  -21.8007   -2.7077   23.8713 F   0  0  0  0  0  0  0  0  0  0  0  0
  -22.6505   -6.8770   25.9451 F   0  0  0  0  0  0  0  0  0  0  0  0
  -27.4451  -15.6769   21.5428 F   0  0  0  0  0  0  0  0  0  0  0  0
  1  2  1  0  0  0  0
  1  5  2  0  0  0  0
  2  6  2  0  0  0  0
  3 12  2  0  0  0  0
  3 19  1  0  0  0  0
  4 13  1  0  0  0  0
  4 19  2  0  0  0  0
  5 21  1  0  0  0  0
  6 23  1  0  0  0  0
  7 14  2  0  0  0  0
  7 22  1  0  0  0  0
  8 10  2  0  0  0  0
  8 25  1  0  0  0  0
  9 11  1  0  0  0  0
  9 25  2  0  0  0  0
 10 26  1  0  0  0  0
 11 26  2  0  0  0  0
 12 27  1  0  0  0  0
 13 27  2  0  0  0  0
 14 28  1  0  0  0  0
 15 16  2  0  0  0  0
 15 29  1  0  0  0  0
 16 30  1  0  0  0  0
 17 24  1  0  0  0  0
 17 28  2  0  0  0  0
 18 30  2  0  0  0  0
 18 31  1  0  0  0  0
 19 32  1  0  0  0  0
 20 32  1  0  0  0  0
 20 33  2  0  0  0  0
 20 35  1  0  0  0  0
 21 23  2  0  0  0  0
 21 40  1  0  0  0  0
 22 24  2  0  0  0  0
 22 41  1  0  0  0  0
 23 50  1  0  0  0  0
 24 42  1  0  0  0  0
 25 66  1  0  0  0  0
 26 70  1  0  0  0  0
 27 84  1  0  0  0  0
 28 85  1  0  0  0  0
 29 31  2  0  0  0  0
 29 84  1  0  0  0  0
 30 87  1  0  0  0  0
 31 88  1  0  0  0  0
 32 68  2  0  0  0  0
 33 69  1  0  0  0  0
 33 73  1  0  0  0  0
 34 51  1  0  0  0  0
 34 70  1  0  0  0  0
 34 78  2  0  0  0  0
 35 74  1  0  0  0  0
 35 79  2  0  0  0  0
 36 52  1  0  0  0  0
 36 75  1  0  0  0  0
 36 80  2  0  0  0  0
 37 64  1  0  0  0  0
 37 71  1  0  0  0  0
 37 81  2  0  0  0  0
 38 66  1  0  0  0  0
 38 72  1  0  0  0  0
 38 82  2  0  0  0  0
 39 65  1  0  0  0  0
 39 76  1  0  0  0  0
 39 83  2  0  0  0  0
 40 43  1  0  0  0  0
 41 52  1  0  0  0  0
 42 71  1  0  0  0  0
 43 45  1  0  0  0  0
 44 46  1  0  0  0  0
 44 47  1  0  0  0  0
 45 50  1  0  0  0  0
 46 54  1  0  0  0  0
 47 72  1  0  0  0  0
 48 53  1  0  0  0  0
 48 70  1  0  0  0  0
 49 54  1  0  0  0  0
 49 72  1  0  0  0  0
 50 75  1  0  0  0  0
 51 53  1  0  0  0  0
 51 62  1  0  0  0  0
 52 71  1  0  0  0  0
 53 63  1  0  0  0  0
 54 69  1  0  0  0  0
 55 62  1  0  0  0  0
 56 65  1  0  0  0  0
 57 67  1  0  0  0  0
 58 67  1  0  0  0  0
 59 67  1  0  0  0  0
 60 77  1  0  0  0  0
 61 86  1  0  0  0  0
 63 85  1  0  0  0  0
 64 67  1  0  0  0  0
 64 76  1  0  0  0  0
 65 77  1  0  0  0  0
 66 86  1  0  0  0  0
 66 89  1  0  0  0  0
 68 69  1  0  0  0  0
M  CHG  1  77   1
M  ISO  4  38 100  63 101  66 100  85 101
M  END
> <Batch ID>
0066

> <Smiles>
CCC1C(=O)N(c2ccc([100C:0](F)(OC)[100C:0](=O)N3CCCC(n4nc(-c5ccc(Oc6ccc(F)cc6F)cc5)c(C(N)=O)c4N)C3)cc2)CC1[101CH2:1][101O:1]c1ccc2c(c1)CN(C(=O)C(NC(=O)C(C)NC)C(C)(C)C)C(C(=O)NC1CCCc3ccccc31)C2

> <Shape>
0.303

> <Color>
0.112

> <Negative vol penalty>
0.000

$$$$

  -OEChem-04042323213D

 89 98  0     1  0  0  0  0  0999 V2000
  -19.4538  -23.4910   23.0019 C   0  0  0  0  0  0  0  0  0  0  0  0
  -20.7969  -23.6518   22.6767 C   0  0  0  0  0  0  0  0  0  0  0  0
  -23.7119  -10.0103   21.8134 C   0  0  0  0  0  0  0  0  0  0  0  0
  -21.6910  -10.6140   20.6349 C   0  0  0  0  0  0  0  0  0  0  0  0
  -18.5901  -24.5844   22.9527 C   0  0  0  0  0  0  0  0  0  0  0  0
  -21.2768  -24.9060   22.3011 C   0  0  0  0  0  0  0  0  0  0  0  0
  -25.6695  -26.0566   24.5429 C   0  0  0  0  0  0  0  0  0  0  0  0
  -25.1315  -19.9873   19.8484 C   0  0  0  0  0  0  0  0  0  0  0  0
  -26.3121  -20.5235   20.3624 C   0  0  0  0  0  0  0  0  0  0  0  0
  -23.2735   -8.6882   21.8880 C   0  0  0  0  0  0  0  0  0  0  0  0
  -21.2526   -9.2919   20.7095 C   0  0  0  0  0  0  0  0  0  0  0  0
  -26.8222  -25.4682   24.0244 C   0  0  0  0  0  0  0  0  0  0  0  0
  -22.5219   -5.2253   22.7049 C   0  0  0  0  0  0  0  0  0  0  0  0
  -22.6568   -4.5637   23.9253 C   0  0  0  0  0  0  0  0  0  0  0  0
  -27.3203  -27.5066   22.8345 C   0  0  0  0  0  0  0  0  0  0  0  0
  -25.4496  -22.7538   20.0172 C   0  0  0  0  0  0  0  0  0  0  0  0
  -21.2463   -6.2186   24.9783 C   0  0  0  0  0  0  0  0  0  0  0  0
  -22.9207  -10.9732   21.1869 C   0  0  0  0  0  0  0  0  0  0  0  0
  -24.5454  -12.8129   20.4916 C   0  0  0  0  0  0  0  0  0  0  0  0
  -19.0617  -25.8546   22.5856 C   0  0  0  0  0  0  0  0  0  0  0  0
  -25.3272  -27.3730   24.2018 C   0  0  0  0  0  0  0  0  0  0  0  0
  -20.4183  -26.0171   22.2456 C   0  0  0  0  0  0  0  0  0  0  0  0
  -26.1640  -28.1103   23.3520 C   0  0  0  0  0  0  0  0  0  0  0  0
  -24.1099  -20.8344   19.4187 C   0  0  0  0  0  0  0  0  0  0  0  0
  -24.2689  -22.2176   19.5031 C   0  0  0  0  0  0  0  0  0  0  0  0
  -26.4711  -21.9067   20.4468 C   0  0  0  0  0  0  0  0  0  0  0  0
  -22.0438   -8.3290   21.3361 C   0  0  0  0  0  0  0  0  0  0  0  0
  -27.6463  -26.1922   23.1679 C   0  0  0  0  0  0  0  0  0  0  0  0
  -21.7493   -6.3837   22.6211 C   0  0  0  0  0  0  0  0  0  0  0  0
  -22.0189   -5.0603   25.0621 C   0  0  0  0  0  0  0  0  0  0  0  0
  -21.1115   -6.8803   23.7578 C   0  0  0  0  0  0  0  0  0  0  0  0
  -23.3728  -12.3391   21.1099 C   0  0  0  0  0  0  0  0  0  0  0  0
  -24.5156  -14.1711   20.6941 C   0  0  0  0  0  0  0  0  0  0  0  0
  -28.9174  -21.7814   20.8444 C   0  0  0  0  0  0  0  0  0  0  0  0
  -25.5699  -12.0900   19.7963 C   0  0  0  0  0  0  0  0  0  0  0  0
  -22.8742  -28.7383   22.7109 C   0  0  0  0  0  0  0  0  0  0  0  0
  -24.3698  -31.4797   23.5887 C   0  0  0  0  0  0  0  0  0  0  0  0
  -27.2723  -33.0406   24.4752 C   0  0  0  0  0  0  0  0  0  0  0  0
  -21.7626  -19.0254   20.7413 C   0  0  0  0  0  0  0  0  0  0  0  0
  -18.0804  -26.9968   22.5011 C   0  0  0  0  0  0  0  0  0  0  0  0
  -24.0944  -28.0022   24.7907 C   0  0  0  0  0  0  0  0  0  0  0  0
  -25.8519  -29.5336   22.9710 C   0  0  0  0  0  0  0  0  0  0  0  0
  -30.0689  -22.2800   21.6988 C   0  0  0  0  0  0  0  0  0  0  0  0
  -18.7462  -28.3697   22.4555 C   0  0  0  0  0  0  0  0  0  0  0  0
  -30.0862  -23.7769   21.9018 C   0  0  0  0  0  0  0  0  0  0  0  0
  -21.5418  -16.9935   23.6567 C   0  0  0  0  0  0  0  0  0  0  0  0
  -19.8965  -28.3721   21.4536 C   0  0  0  0  0  0  0  0  0  0  0  0
  -22.0891  -15.6397   23.2013 C   0  0  0  0  0  0  0  0  0  0  0  0
  -20.7405  -17.6789   22.5520 C   0  0  0  0  0  0  0  0  0  0  0  0
  -22.0001  -16.4690   20.8132 C   0  0  0  0  0  0  0  0  0  0  0  0
  -27.6448  -23.8469   21.4840 C   0  0  0  0  0  0  0  0  0  0  0  0
  -20.9818  -27.3669   21.8573 C   0  0  1  0  0  0  0  0  0  0  0  0
  -23.5714  -29.1757   23.9680 C   0  0  1  0  0  0  0  0  0  0  0  0
  -22.8624  -15.7649   21.8748 C   0  0  2  0  0  0  0  0  0  0  0  0
  -28.7501  -24.2107   22.4644 C   0  0  2  0  0  0  0  0  0  1  0  0
  -23.1880  -23.1438   19.0511 C   0  0  0  0  0  0  0  0  0  0  0  0
  -28.1873  -35.2932   25.0964 C   0  0  0  0  0  0  0  0  0  0  0  0
  -24.0139  -19.0398   16.9125 C   0  0  0  0  0  0  0  0  0  0  0  0
  -21.5449  -19.3853   16.8459 C   0  0  0  0  0  0  0  0  0  0  0  0
  -24.2642  -32.3277   20.6596 C   0  0  0  0  0  0  0  0  0  0  0  0
  -25.9848  -34.0719   21.1748 C   0  0  0  0  0  0  0  0  0  0  0  0
  -23.7563  -34.1523   22.2928 C   0  0  0  0  0  0  0  0  0  0  0  0
  -28.1227  -32.0877   27.1449 C   0  0  0  0  0  0  0  0  0  0  0  0
  -22.8553  -20.2370   18.8712 C   0  0  1  0  0  0  0  0  0  0  0  0
  -25.4185  -32.3711   22.9686 C   0  0  1  0  0  0  0  0  0  0  0  0
  -27.5982  -33.9901   25.6139 C   0  0  2  0  0  0  0  0  0  0  0  0
  -22.8741  -19.9804   17.3294 C   0  0  0  0  0  0  0  0  0  0  0  0
  -24.8611  -33.2033   21.7794 C   0  0  0  0  0  0  0  0  0  0  0  0
  -22.6508  -13.3168   21.6639 N   0  0  0  0  0  0  0  0  0  0  0  0
  -23.3717  -14.4185   21.3945 N   0  0  0  0  0  0  0  0  0  0  0  0
  -27.6953  -22.4635   20.9821 N   0  0  0  0  0  0  0  0  0  0  0  0
  -24.6321  -30.1025   23.5676 N   0  0  0  0  0  0  0  0  0  0  0  0
  -21.5311  -17.7675   21.3219 N   0  0  0  0  0  0  0  0  0  0  0  0
  -25.3566  -15.1658   20.3398 N   0  0  0  0  0  0  0  0  0  0  0  0
  -25.4315  -11.8974   18.4150 N   0  0  0  0  0  0  0  0  0  0  0  0
  -21.7947  -27.9034   22.9277 N   0  0  0  0  0  0  0  0  0  0  0  0
  -25.9656  -33.1752   24.0561 N   0  0  0  0  0  0  0  0  0  0  0  0
  -22.5266  -19.0207   19.5806 N   0  0  0  0  0  0  0  0  0  0  0  0
  -28.5819  -33.3660   26.5433 N   0  3  0  0  0  0  0  0  0  0  0  0
  -29.1080  -20.7878   20.1378 O   0  0  0  0  0  0  0  0  0  0  0  0
  -26.5700  -11.6143   20.3853 O   0  0  0  0  0  0  0  0  0  0  0  0
  -23.2844  -29.1305   21.6248 O   0  0  0  0  0  0  0  0  0  0  0  0
  -23.3586  -31.9871   24.0802 O   0  0  0  0  0  0  0  0  0  0  0  0
  -28.0956  -32.2603   24.0021 O   0  0  0  0  0  0  0  0  0  0  0  0
  -21.3257  -20.0753   21.2246 O   0  0  0  0  0  0  0  0  0  0  0  0
  -21.6158   -7.0390   21.4085 O   0  0  0  0  0  0  0  0  0  0  0  0
  -28.7717  -25.6201   22.6599 O   0  0  0  0  0  0  0  0  0  1  0  0
  -22.1472   -4.4239   26.2337 F   0  0  0  0  0  0  0  0  0  0  0  0
  -20.3670   -7.9921   23.6833 F   0  0  0  0  0  0  0  0  0  0  0  0
  1  2  1  0  0  0  0
  1  5  2  0  0  0  0
  2  6  2  0  0  0  0
  3 10  2  0  0  0  0
  3 18  1  0  0  0  0
  4 11  1  0  0  0  0
  4 18  2  0  0  0  0
  5 20  1  0  0  0  0
  6 22  1  0  0  0  0
  7 12  2  0  0  0  0
  7 21  1  0  0  0  0
  8  9  2  0  0  0  0
  8 24  1  0  0  0  0
  9 26  1  0  0  0  0
 10 27  1  0  0  0  0
 11 27  2  0  0  0  0
 12 28  1  0  0  0  0
 13 14  2  0  0  0  0
 13 29  1  0  0  0  0
 14 30  1  0  0  0  0
 15 23  1  0  0  0  0
 15 28  2  0  0  0  0
 16 25  1  0  0  0  0
 16 26  2  0  0  0  0
 17 30  2  0  0  0  0
 17 31  1  0  0  0  0
 18 32  1  0  0  0  0
 19 32  1  0  0  0  0
 19 33  2  0  0  0  0
 19 35  1  0  0  0  0
 20 22  2  0  0  0  0
 20 40  1  0  0  0  0
 21 23  2  0  0  0  0
 21 41  1  0  0  0  0
 22 52  1  0  0  0  0
 23 42  1  0  0  0  0
 24 25  2  0  0  0  0
 24 64  1  0  0  0  0
 25 56  1  0  0  0  0
 26 71  1  0  0  0  0
 27 86  1  0  0  0  0
 28 87  1  0  0  0  0
 29 31  2  0  0  0  0
 29 86  1  0  0  0  0
 30 88  1  0  0  0  0
 31 89  1  0  0  0  0
 32 69  2  0  0  0  0
 33 70  1  0  0  0  0
 33 74  1  0  0  0  0
 34 43  1  0  0  0  0
 34 71  1  0  0  0  0
 34 80  2  0  0  0  0
 35 75  1  0  0  0  0
 35 81  2  0  0  0  0
 36 53  1  0  0  0  0
 36 76  1  0  0  0  0
 36 82  2  0  0  0  0
 37 65  1  0  0  0  0
 37 72  1  0  0  0  0
 37 83  2  0  0  0  0
 38 66  1  0  0  0  0
 38 77  1  0  0  0  0
 38 84  2  0  0  0  0
 39 73  1  0  0  0  0
 39 78  1  0  0  0  0
 39 85  2  0  0  0  0
 40 44  1  0  0  0  0
 41 53  1  0  0  0  0
 42 72  1  0  0  0  0
 43 45  1  0  0  0  0
 44 47  1  0  0  0  0
 45 55  1  0  0  0  0
 46 48  1  0  0  0  0
 46 49  1  0  0  0  0
 47 52  1  0  0  0  0
 48 54  1  0  0  0  0
 49 73  1  0  0  0  0
 50 54  1  0  0  0  0
 50 73  1  0  0  0  0
 51 55  1  0  0  0  0
 51 71  1  0  0  0  0
 52 76  1  0  0  0  0
 53 72  1  0  0  0  0
 54 70  1  0  0  0  0
 55 87  1  0  0  0  0
 57 66  1  0  0  0  0
 58 67  1  0  0  0  0
 59 67  1  0  0  0  0
 60 68  1  0  0  0  0
 61 68  1  0  0  0  0
 62 68  1  0  0  0  0
 63 79  1  0  0  0  0
 64 67  1  0  0  0  0
 64 78  1  0  0  0  0
 65 68  1  0  0  0  0
 65 77  1  0  0  0  0
 66 79  1  0  0  0  0
 69 70  1  0  0  0  0
M  CHG  1  79   1
M  ISO  4  39 100  55 101  78 100  87 101
M  END
> <Batch ID>
0066

> <Smiles>
CNC(C)C(=O)NC(C(=O)N1Cc2cc([101O:1][101CH:1]3CCC(=O)N(c4ccc(C([100NH:0][100C:0](=O)N5CCCC(n6nc(-c7ccc(Oc8ccc(F)cc8F)cc7)c(C(N)=O)c6N)C5)C(C)C)c(C)c4)C3)ccc2CC1C(=O)NC1CCCc2ccccc21)C(C)(C)C

> <Shape>
0.256

> <Color>
0.160

> <Negative vol penalty>
0.000

$$$$

  -OEChem-04042323212D

  0  0  0     0  0  0  0  0  0999 V2000
M  END
$$$$
