
  -OEChem-04042323243D

 85 93  0     1  0  0  0  0  0999 V2000
  -27.3053  -37.8870   21.9649 C   0  0  0  0  0  0  0  0  0  0  0  0
  -27.7991  -36.8467   21.1843 C   0  0  0  0  0  0  0  0  0  0  0  0
  -24.7934   -8.6789   21.6215 C   0  0  0  0  0  0  0  0  0  0  0  0
  -23.2452  -10.0184   20.3387 C   0  0  0  0  0  0  0  0  0  0  0  0
  -26.6373  -37.6066   23.1562 C   0  0  0  0  0  0  0  0  0  0  0  0
  -27.6263  -35.5254   21.5951 C   0  0  0  0  0  0  0  0  0  0  0  0
  -26.6257  -28.9427   18.9526 C   0  0  0  0  0  0  0  0  0  0  0  0
  -23.7431   -8.2331   22.4237 C   0  0  0  0  0  0  0  0  0  0  0  0
  -22.1947   -9.5725   21.1408 C   0  0  0  0  0  0  0  0  0  0  0  0
  -27.1551  -27.6558   19.0382 C   0  0  0  0  0  0  0  0  0  0  0  0
  -21.2458   -5.9623   22.2228 C   0  0  0  0  0  0  0  0  0  0  0  0
  -21.1859   -4.5995   22.5141 C   0  0  0  0  0  0  0  0  0  0  0  0
  -25.0818  -19.7406   17.7823 C   0  0  0  0  0  0  0  0  0  0  0  0
  -25.3016  -17.3529   17.4862 C   0  0  0  0  0  0  0  0  0  0  0  0
  -25.9156  -27.2880   21.0748 C   0  0  0  0  0  0  0  0  0  0  0  0
  -26.9782  -18.5763   18.7230 C   0  0  0  0  0  0  0  0  0  0  0  0
  -21.3541   -5.0962   24.8725 C   0  0  0  0  0  0  0  0  0  0  0  0
  -24.5445   -9.5717   20.5790 C   0  0  0  0  0  0  0  0  0  0  0  0
  -24.5962  -18.5370   17.2713 C   0  0  0  0  0  0  0  0  0  0  0  0
  -26.1023   -9.4431   18.5630 C   0  0  0  0  0  0  0  0  0  0  0  0
  -26.4477  -36.2809   23.5770 C   0  0  0  0  0  0  0  0  0  0  0  0
  -25.7444  -29.4166   19.9349 C   0  0  0  0  0  0  0  0  0  0  0  0
  -26.9563  -35.2272   22.7938 C   0  0  0  0  0  0  0  0  0  0  0  0
  -25.3745  -28.5804   20.9980 C   0  0  0  0  0  0  0  0  0  0  0  0
  -26.2728  -19.7603   18.5081 C   0  0  0  0  0  0  0  0  0  0  0  0
  -26.4926  -17.3726   18.2121 C   0  0  0  0  0  0  0  0  0  0  0  0
  -22.4437   -8.6798   22.1833 C   0  0  0  0  0  0  0  0  0  0  0  0
  -26.8023  -26.8292   20.1010 C   0  0  0  0  0  0  0  0  0  0  0  0
  -21.3599   -6.8921   23.2564 C   0  0  0  0  0  0  0  0  0  0  0  0
  -21.2400   -4.1664   23.8389 C   0  0  0  0  0  0  0  0  0  0  0  0
  -21.4140   -6.4590   24.5812 C   0  0  0  0  0  0  0  0  0  0  0  0
  -25.6292  -10.0331   19.7504 C   0  0  0  0  0  0  0  0  0  0  0  0
  -27.1350  -10.2558   18.1636 C   0  0  0  0  0  0  0  0  0  0  0  0
  -27.0208  -23.2741   19.5938 C   0  0  0  0  0  0  0  0  0  0  0  0
  -26.6325  -24.5534   19.5888 C   0  0  0  0  0  0  0  0  0  1  0  0
  -23.3544  -18.5165   16.5148 C   0  0  0  0  0  0  0  0  0  0  0  0
  -25.6488   -8.2658   17.8819 C   0  0  0  0  0  0  0  0  0  0  0  0
  -26.1923  -22.2413   18.9059 C   0  0  0  0  0  0  0  0  0  0  0  0
  -25.8001  -31.8003   22.0370 C   0  0  0  0  0  0  0  0  0  0  0  0
  -22.7510  -30.8514   22.6068 C   0  0  0  0  0  0  0  0  0  0  0  0
  -20.4239  -28.3576   22.4945 C   0  0  0  0  0  0  0  0  0  0  0  0
  -28.4059  -16.0142   19.1287 C   0  0  0  0  0  0  0  0  0  0  0  0
  -25.7608  -36.0291   24.8959 C   0  0  0  0  0  0  0  0  0  0  0  0
  -25.1612  -30.7978   19.8137 C   0  0  0  0  0  0  0  0  0  0  0  0
  -24.4163  -29.0344   22.0676 C   0  0  0  0  0  0  0  0  0  0  0  0
  -25.2909  -34.5875   25.0725 C   0  0  0  0  0  0  0  0  0  0  0  0
  -30.4634  -13.2179   19.9192 C   0  0  0  0  0  0  0  0  0  0  0  0
  -26.3943  -33.6135   24.6716 C   0  0  0  0  0  0  0  0  0  0  0  0
  -29.5016  -12.0294   19.8516 C   0  0  0  0  0  0  0  0  0  0  0  0
  -29.7877  -14.4625   20.4919 C   0  0  0  0  0  0  0  0  0  0  0  0
  -27.5755  -13.6630   19.7597 C   0  0  0  0  0  0  0  0  0  0  0  0
  -26.7669  -33.7799   23.1935 C   0  0  1  0  0  0  0  0  0  0  0  0
  -24.6736  -31.3595   21.1457 C   0  0  1  0  0  0  0  0  0  0  0  0
  -28.1927  -12.4041   19.1290 C   0  0  2  0  0  0  0  0  0  0  0  0
  -22.3161  -19.5449   16.8581 C   0  0  0  0  0  0  0  0  0  0  0  0
  -18.0290  -27.8710   23.0646 C   0  0  0  0  0  0  0  0  0  0  0  0
  -23.4959  -30.6567   25.5593 C   0  0  0  0  0  0  0  0  0  0  0  0
  -21.4271  -29.2935   25.9196 C   0  0  0  0  0  0  0  0  0  0  0  0
  -21.2431  -31.6475   25.1149 C   0  0  0  0  0  0  0  0  0  0  0  0
  -19.7503  -27.7708   19.6730 C   0  0  0  0  0  0  0  0  0  0  0  0
  -22.0959  -29.8625   23.5406 C   0  0  1  0  0  0  0  0  0  0  0  0
  -18.9940  -28.3365   21.9853 C   0  0  2  0  0  0  0  0  0  0  0  0
  -22.0851  -30.3569   25.0146 C   0  0  0  0  0  0  0  0  0  0  0  0
  -26.3059  -11.1354   20.0837 N   0  0  0  0  0  0  0  0  0  0  0  0
  -27.2148  -11.2445   19.0998 N   0  0  0  0  0  0  0  0  0  0  0  0
  -23.8780  -30.3954   21.9084 N   0  0  0  0  0  0  0  0  0  0  0  0
  -28.5571  -14.7590   19.7552 N   0  0  0  0  0  0  0  0  0  0  0  0
  -27.9736  -10.2140   17.1065 N   0  0  0  0  0  0  0  0  0  0  0  0
  -24.5761   -7.5488   18.4292 N   0  0  0  0  0  0  0  0  0  0  0  0
  -26.7660  -20.9826   19.0270 N   0  0  0  0  0  0  0  0  0  0  0  0
  -27.2088  -16.1697   18.4306 N   0  0  0  0  0  0  0  0  0  0  0  0
  -25.7774  -33.1464   22.3484 N   0  0  0  0  0  0  0  0  0  0  0  0
  -20.7714  -29.5967   22.9898 N   0  0  0  0  0  0  0  0  0  0  0  0
  -18.8731  -27.4171   20.8186 N   0  3  0  0  0  0  0  0  0  0  0  0
  -23.0876  -17.7156   15.6162 O   0  0  0  0  0  0  0  0  0  0  0  0
  -26.1896   -7.8525   16.8282 O   0  0  0  0  0  0  0  0  0  0  0  0
  -25.1530  -22.5410   18.3301 O   0  0  0  0  0  0  0  0  0  0  0  0
  -26.6278  -30.9796   22.4154 O   0  0  0  0  0  0  0  0  0  0  0  0
  -22.2759  -31.9843   22.4957 O   0  0  0  0  0  0  0  0  0  0  0  0
  -21.1579  -27.3725   22.4601 O   0  0  0  0  0  0  0  0  0  0  0  0
  -29.2862  -16.8768   19.1830 O   0  0  0  0  0  0  0  0  0  0  0  0
  -21.4185   -8.2447   22.9657 O   0  0  0  0  0  0  0  0  0  0  0  0
  -27.3181  -25.5729   20.1873 O   0  0  0  0  0  0  0  0  0  1  0  0
  -21.1809   -2.8578   24.1185 F   0  0  0  0  0  0  0  0  0  0  0  0
  -21.5224   -7.3475   25.5785 F   0  0  0  0  0  0  0  0  0  0  0  0
  1  2  1  0  0  0  0
  1  5  2  0  0  0  0
  2  6  2  0  0  0  0
  3  8  2  0  0  0  0
  3 18  1  0  0  0  0
  4  9  1  0  0  0  0
  4 18  2  0  0  0  0
  5 21  1  0  0  0  0
  6 23  1  0  0  0  0
  7 10  2  0  0  0  0
  7 22  1  0  0  0  0
  8 27  1  0  0  0  0
  9 27  2  0  0  0  0
 10 28  1  0  0  0  0
 11 12  2  0  0  0  0
 11 29  1  0  0  0  0
 12 30  1  0  0  0  0
 13 19  1  0  0  0  0
 13 25  2  0  0  0  0
 14 19  2  0  0  0  0
 14 26  1  0  0  0  0
 15 24  1  0  0  0  0
 15 28  2  0  0  0  0
 16 25  1  0  0  0  0
 16 26  2  0  0  0  0
 17 30  2  0  0  0  0
 17 31  1  0  0  0  0
 18 32  1  0  0  0  0
 19 36  1  0  0  0  0
 20 32  1  0  0  0  0
 20 33  2  0  0  0  0
 20 37  1  0  0  0  0
 21 23  2  0  0  0  0
 21 43  1  0  0  0  0
 22 24  2  0  0  0  0
 22 44  1  0  0  0  0
 23 52  1  0  0  0  0
 24 45  1  0  0  0  0
 25 70  1  0  0  0  0
 26 71  1  0  0  0  0
 27 82  1  0  0  0  0
 28 83  1  0  0  0  0
 29 31  2  0  0  0  0
 29 82  1  0  0  0  0
 30 84  1  0  0  0  0
 31 85  1  0  0  0  0
 32 64  2  0  0  0  0
 33 65  1  0  0  0  0
 33 68  1  0  0  0  0
 34 35  2  0  0  0  0
 34 38  1  0  0  0  0
 35 83  1  0  0  0  0
 36 55  1  0  0  0  0
 36 75  2  0  0  0  0
 37 69  1  0  0  0  0
 37 76  2  0  0  0  0
 38 70  1  0  0  0  0
 38 77  2  0  0  0  0
 39 53  1  0  0  0  0
 39 72  1  0  0  0  0
 39 78  2  0  0  0  0
 40 61  1  0  0  0  0
 40 66  1  0  0  0  0
 40 79  2  0  0  0  0
 41 62  1  0  0  0  0
 41 73  1  0  0  0  0
 41 80  2  0  0  0  0
 42 67  1  0  0  0  0
 42 71  1  0  0  0  0
 42 81  2  0  0  0  0
 43 46  1  0  0  0  0
 44 53  1  0  0  0  0
 45 66  1  0  0  0  0
 46 48  1  0  0  0  0
 47 49  1  0  0  0  0
 47 50  1  0  0  0  0
 48 52  1  0  0  0  0
 49 54  1  0  0  0  0
 50 67  1  0  0  0  0
 51 54  1  0  0  0  0
 51 67  1  0  0  0  0
 52 72  1  0  0  0  0
 53 66  1  0  0  0  0
 54 65  1  0  0  0  0
 56 62  1  0  0  0  0
 57 63  1  0  0  0  0
 58 63  1  0  0  0  0
 59 63  1  0  0  0  0
 60 74  1  0  0  0  0
 61 63  1  0  0  0  0
 61 73  1  0  0  0  0
 62 74  1  0  0  0  0
 64 65  1  0  0  0  0
M  CHG  1  74   1
M  ISO  4  35 101  42 100  71 100  83 101
M  END
> <Batch ID>
0067

> <Smiles>
CNC(C)C(=O)NC(C(=O)N1Cc2cc([101O:1][101CH:1]=CC(=O)Nc3cc([100NH:0][100C:0](=O)N4CCCC(n5nc(-c6ccc(Oc7ccc(F)cc7F)cc6)c(C(N)=O)c5N)C4)cc(C(C)=O)c3)ccc2CC1C(=O)NC1CCCc2ccccc21)C(C)(C)C

> <Shape>
0.294

> <Color>
0.103

> <Negative vol penalty>
0.000

$$$$

  -OEChem-04042323243D

 85 93  0     1  0  0  0  0  0999 V2000
  -28.0037  -31.7297   28.1071 C   0  0  0  0  0  0  0  0  0  0  0  0
  -28.2166  -30.8124   27.0831 C   0  0  0  0  0  0  0  0  0  0  0  0
  -24.2685   -9.1528   21.3989 C   0  0  0  0  0  0  0  0  0  0  0  0
  -23.8466  -10.9357   22.9737 C   0  0  0  0  0  0  0  0  0  0  0  0
  -26.7075  -32.1410   28.4147 C   0  0  0  0  0  0  0  0  0  0  0  0
  -27.1332  -30.3049   26.3667 C   0  0  0  0  0  0  0  0  0  0  0  0
  -27.0172  -28.8229   20.4257 C   0  0  0  0  0  0  0  0  0  0  0  0
  -27.1863  -19.1137   18.8754 C   0  0  0  0  0  0  0  0  0  0  0  0
  -27.0992  -20.5057   18.8807 C   0  0  0  0  0  0  0  0  0  0  0  0
  -23.7298   -8.2317   22.2973 C   0  0  0  0  0  0  0  0  0  0  0  0
  -23.3079  -10.0147   23.8722 C   0  0  0  0  0  0  0  0  0  0  0  0
  -27.1437  -27.6042   19.7603 C   0  0  0  0  0  0  0  0  0  0  0  0
  -20.6588   -7.2299   23.2962 C   0  0  0  0  0  0  0  0  0  0  0  0
  -19.7683   -6.2803   22.7952 C   0  0  0  0  0  0  0  0  0  0  0  0
  -24.7408  -27.4118   19.6685 C   0  0  0  0  0  0  0  0  0  0  0  0
  -29.5078  -19.2564   19.5290 C   0  0  0  0  0  0  0  0  0  0  0  0
  -21.2419   -4.5117   23.5284 C   0  0  0  0  0  0  0  0  0  0  0  0
  -24.3270  -10.5048   21.7371 C   0  0  0  0  0  0  0  0  0  0  0  0
  -24.1962  -12.1745   19.8130 C   0  0  0  0  0  0  0  0  0  0  0  0
  -25.6084  -31.6456   27.6953 C   0  0  0  0  0  0  0  0  0  0  0  0
  -25.7495  -29.3407   20.7276 C   0  0  0  0  0  0  0  0  0  0  0  0
  -25.8209  -30.7089   26.6659 C   0  0  0  0  0  0  0  0  0  0  0  0
  -24.6009  -28.6384   20.3355 C   0  0  0  0  0  0  0  0  0  0  0  0
  -28.3906  -18.4890   19.1996 C   0  0  0  0  0  0  0  0  0  0  0  0
  -28.2164  -21.2732   19.2101 C   0  0  0  0  0  0  0  0  0  0  0  0
  -29.4207  -20.6486   19.5342 C   0  0  0  0  0  0  0  0  0  0  0  0
  -23.2495   -8.6627   23.5339 C   0  0  0  0  0  0  0  0  0  0  0  0
  -26.0055  -26.8971   19.3842 C   0  0  0  0  0  0  0  0  0  0  0  0
  -21.8409   -6.8204   23.9132 C   0  0  0  0  0  0  0  0  0  0  0  0
  -20.0599   -4.9212   22.9113 C   0  0  0  0  0  0  0  0  0  0  0  0
  -22.1324   -5.4613   24.0293 C   0  0  0  0  0  0  0  0  0  0  0  0
  -24.8838  -11.4566   20.8098 C   0  0  0  0  0  0  0  0  0  0  0  0
  -25.1654  -12.9381   19.2095 C   0  0  0  0  0  0  0  0  0  0  0  0
  -22.8058  -12.1532   19.4639 C   0  0  0  0  0  0  0  0  0  0  0  0
  -24.2012  -30.0615   23.4085 C   0  0  0  0  0  0  0  0  0  0  0  0
  -21.9847  -31.2365   21.3521 C   0  0  0  0  0  0  0  0  0  0  0  0
  -31.8269  -20.9266   20.2105 C   0  0  0  0  0  0  0  0  0  0  0  0
  -26.9777  -23.4430   18.9073 C   0  0  0  0  0  0  0  0  0  0  0  0
  -20.6212  -31.1882   18.2240 C   0  0  0  0  0  0  0  0  0  0  0  0
  -29.5974  -16.2969   19.4907 C   0  0  0  0  0  0  0  0  0  0  0  0
  -24.2219  -32.0837   28.0955 C   0  0  0  0  0  0  0  0  0  0  0  0
  -25.6298  -30.6695   21.4222 C   0  0  0  0  0  0  0  0  0  0  0  0
  -23.2169  -29.1609   20.6181 C   0  0  0  0  0  0  0  0  0  0  0  0
  -23.1600  -31.7829   27.0409 C   0  0  0  0  0  0  0  0  0  0  0  0
  -30.2080  -12.7917   19.6255 C   0  0  0  0  0  0  0  0  0  0  0  0
  -23.3108  -30.3559   26.5234 C   0  0  0  0  0  0  0  0  0  0  0  0
  -28.8207  -12.1909   19.8636 C   0  0  0  0  0  0  0  0  0  0  0  0
  -30.3897  -14.1124   20.3714 C   0  0  0  0  0  0  0  0  0  0  0  0
  -27.9592  -14.5145   20.3596 C   0  0  0  0  0  0  0  0  0  0  0  0
  -24.6735  -30.1546   25.8496 C   0  0  1  0  0  0  0  0  0  0  0  0
  -24.2934  -30.8531   22.1347 C   0  0  1  0  0  0  0  0  0  0  0  0
  -27.7059  -13.2158   19.5766 C   0  0  2  0  0  0  0  0  0  0  0  0
  -32.7793  -22.0596   20.4999 C   0  0  0  0  0  0  0  0  0  0  0  0
  -18.7968  -32.2331   16.8539 C   0  0  0  0  0  0  0  0  0  0  0  0
  -19.9208  -29.5040   22.7834 C   0  0  0  0  0  0  0  0  0  0  0  0
  -18.3869  -29.8429   20.8339 C   0  0  0  0  0  0  0  0  0  0  0  0
  -19.1256  -31.8003   22.1925 C   0  0  0  0  0  0  0  0  0  0  0  0
  -22.5589  -32.3155   16.2918 C   0  0  0  0  0  0  0  0  0  0  0  0
  -27.2841  -24.9246   19.0234 C   0  0  0  0  0  0  0  0  0  1  0  0
  -20.7762  -30.6715   20.6454 C   0  0  1  0  0  0  0  0  0  0  0  0
  -20.2589  -32.3083   17.2657 C   0  0  2  0  0  0  0  0  0  0  0  0
  -19.5783  -30.4436   21.6101 C   0  0  0  0  0  0  0  0  0  0  0  0
  -26.1890  -11.7387   20.8408 N   0  0  0  0  0  0  0  0  0  0  0  0
  -26.3293  -12.6423   19.8560 N   0  0  0  0  0  0  0  0  0  0  0  0
  -23.1521  -30.4614   21.3051 N   0  0  0  0  0  0  0  0  0  0  0  0
  -29.2994  -15.0350   20.0473 N   0  0  0  0  0  0  0  0  0  0  0  0
  -25.1271  -13.8268   18.1941 N   0  0  0  0  0  0  0  0  0  0  0  0
  -21.9485  -11.3117   20.1858 N   0  0  0  0  0  0  0  0  0  0  0  0
  -28.1036  -22.6838   19.2072 N   0  0  0  0  0  0  0  0  0  0  0  0
  -30.5544  -21.3964   19.8659 N   0  0  0  0  0  0  0  0  0  0  0  0
  -28.4788  -17.0748   19.1939 N   0  0  0  0  0  0  0  0  0  0  0  0
  -24.6711  -30.7311   24.5222 N   0  0  0  0  0  0  0  0  0  0  0  0
  -20.4888  -31.5788   19.5397 N   0  0  0  0  0  0  0  0  0  0  0  0
  -21.0979  -32.2302   16.0365 N   0  3  0  0  0  0  0  0  0  0  0  0
  -22.3404  -12.8473   18.5283 O   0  0  0  0  0  0  0  0  0  0  0  0
  -23.7368  -28.9278   23.3831 O   0  0  0  0  0  0  0  0  0  0  0  0
  -21.8981  -32.3288   21.9188 O   0  0  0  0  0  0  0  0  0  0  0  0
  -32.1976  -19.7597   20.2857 O   0  0  0  0  0  0  0  0  0  0  0  0
  -25.8642  -23.0404   18.5870 O   0  0  0  0  0  0  0  0  0  0  0  0
  -20.9818  -30.0765   17.8434 O   0  0  0  0  0  0  0  0  0  0  0  0
  -30.7582  -16.6497   19.2669 O   0  0  0  0  0  0  0  0  0  0  0  0
  -22.7235   -7.7643   24.4107 O   0  0  0  0  0  0  0  0  0  0  0  0
  -26.1261  -25.7071   18.7352 O   0  0  0  0  0  0  0  0  0  1  0  0
  -19.2039   -4.0094   22.4316 F   0  0  0  0  0  0  0  0  0  0  0  0
  -23.2659   -5.0617   24.6221 F   0  0  0  0  0  0  0  0  0  0  0  0
  1  2  1  0  0  0  0
  1  5  2  0  0  0  0
  2  6  2  0  0  0  0
  3 10  2  0  0  0  0
  3 18  1  0  0  0  0
  4 11  1  0  0  0  0
  4 18  2  0  0  0  0
  5 20  1  0  0  0  0
  6 22  1  0  0  0  0
  7 12  2  0  0  0  0
  7 21  1  0  0  0  0
  8  9  2  0  0  0  0
  8 24  1  0  0  0  0
  9 25  1  0  0  0  0
 10 27  1  0  0  0  0
 11 27  2  0  0  0  0
 12 28  1  0  0  0  0
 13 14  2  0  0  0  0
 13 29  1  0  0  0  0
 14 30  1  0  0  0  0
 15 23  1  0  0  0  0
 15 28  2  0  0  0  0
 16 24  2  0  0  0  0
 16 26  1  0  0  0  0
 17 30  2  0  0  0  0
 17 31  1  0  0  0  0
 18 32  1  0  0  0  0
 19 32  1  0  0  0  0
 19 33  2  0  0  0  0
 19 34  1  0  0  0  0
 20 22  2  0  0  0  0
 20 41  1  0  0  0  0
 21 23  2  0  0  0  0
 21 42  1  0  0  0  0
 22 50  1  0  0  0  0
 23 43  1  0  0  0  0
 24 71  1  0  0  0  0
 25 26  2  0  0  0  0
 25 69  1  0  0  0  0
 26 70  1  0  0  0  0
 27 82  1  0  0  0  0
 28 83  1  0  0  0  0
 29 31  2  0  0  0  0
 29 82  1  0  0  0  0
 30 84  1  0  0  0  0
 31 85  1  0  0  0  0
 32 63  2  0  0  0  0
 33 64  1  0  0  0  0
 33 67  1  0  0  0  0
 34 68  1  0  0  0  0
 34 75  2  0  0  0  0
 35 51  1  0  0  0  0
 35 72  1  0  0  0  0
 35 76  2  0  0  0  0
 36 60  1  0  0  0  0
 36 65  1  0  0  0  0
 36 77  2  0  0  0  0
 37 53  1  0  0  0  0
 37 70  1  0  0  0  0
 37 78  2  0  0  0  0
 38 59  1  0  0  0  0
 38 69  1  0  0  0  0
 38 79  2  0  0  0  0
 39 61  1  0  0  0  0
 39 73  1  0  0  0  0
 39 80  2  0  0  0  0
 40 66  1  0  0  0  0
 40 71  1  0  0  0  0
 40 81  2  0  0  0  0
 41 44  1  0  0  0  0
 42 51  1  0  0  0  0
 43 65  1  0  0  0  0
 44 46  1  0  0  0  0
 45 47  1  0  0  0  0
 45 48  1  0  0  0  0
 46 50  1  0  0  0  0
 47 52  1  0  0  0  0
 48 66  1  0  0  0  0
 49 52  1  0  0  0  0
 49 66  1  0  0  0  0
 50 72  1  0  0  0  0
 51 65  1  0  0  0  0
 52 64  1  0  0  0  0
 54 61  1  0  0  0  0
 55 62  1  0  0  0  0
 56 62  1  0  0  0  0
 57 62  1  0  0  0  0
 58 74  1  0  0  0  0
 59 83  1  0  0  0  0
 60 62  1  0  0  0  0
 60 73  1  0  0  0  0
 61 74  1  0  0  0  0
 63 64  1  0  0  0  0
M  CHG  1  74   1
M  ISO  4  40 100  59 101  71 100  83 101
M  END
> <Batch ID>
0067

> <Smiles>
CNC(C)C(=O)NC(C(=O)N1Cc2cc([101O:1][101CH2:1]C(=O)Nc3ccc([100NH:0][100C:0](=O)N4CCCC(n5nc(-c6ccc(Oc7ccc(F)cc7F)cc6)c(C(N)=O)c5N)C4)cc3NC(C)=O)ccc2CC1C(=O)NC1CCCc2ccccc21)C(C)(C)C

> <Shape>
0.282

> <Color>
0.098

> <Negative vol penalty>
0.000

$$$$

  -OEChem-04042323243D

 86 95  0     1  0  0  0  0  0999 V2000
  -24.5093  -31.0581   27.5075 C   0  0  0  0  0  0  0  0  0  0  0  0
  -25.4544  -30.1957   26.9614 C   0  0  0  0  0  0  0  0  0  0  0  0
  -23.0786   -9.8641   20.0381 C   0  0  0  0  0  0  0  0  0  0  0  0
  -23.7924  -10.0091   22.3417 C   0  0  0  0  0  0  0  0  0  0  0  0
  -23.1718  -30.9557   27.1273 C   0  0  0  0  0  0  0  0  0  0  0  0
  -25.0625  -29.2294   26.0356 C   0  0  0  0  0  0  0  0  0  0  0  0
  -28.2900  -27.1992   21.2432 C   0  0  0  0  0  0  0  0  0  0  0  0
  -31.3842  -19.0388   20.2798 C   0  0  0  0  0  0  0  0  0  0  0  0
  -31.1923  -17.6601   20.3681 C   0  0  0  0  0  0  0  0  0  0  0  0
  -22.3227   -8.7324   20.3435 C   0  0  0  0  0  0  0  0  0  0  0  0
  -23.0365   -8.8774   22.6472 C   0  0  0  0  0  0  0  0  0  0  0  0
  -29.0801  -26.0658   21.0568 C   0  0  0  0  0  0  0  0  0  0  0  0
  -19.7920   -8.1345   23.2319 C   0  0  0  0  0  0  0  0  0  0  0  0
  -19.0115   -8.1709   24.3874 C   0  0  0  0  0  0  0  0  0  0  0  0
  -27.2066  -24.9338   20.0431 C   0  0  0  0  0  0  0  0  0  0  0  0
  -29.7251  -19.3801   22.0025 C   0  0  0  0  0  0  0  0  0  0  0  0
  -20.2257   -6.2765   25.2672 C   0  0  0  0  0  0  0  0  0  0  0  0
  -23.8135  -10.5024   21.0371 C   0  0  0  0  0  0  0  0  0  0  0  0
  -24.1735  -13.0136   20.7684 C   0  0  0  0  0  0  0  0  0  0  0  0
  -22.7648  -29.9941   26.1890 C   0  0  0  0  0  0  0  0  0  0  0  0
  -26.9469  -27.2047   20.8401 C   0  0  0  0  0  0  0  0  0  0  0  0
  -23.7181  -29.1132   25.6435 C   0  0  0  0  0  0  0  0  0  0  0  0
  -26.4022  -26.0694   20.2232 C   0  0  0  0  0  0  0  0  0  0  0  0
  -29.5332  -18.0013   22.0909 C   0  0  0  0  0  0  0  0  0  0  0  0
  -30.6506  -19.8989   21.0970 C   0  0  0  0  0  0  0  0  0  0  0  0
  -30.2668  -17.1413   21.2736 C   0  0  0  0  0  0  0  0  0  0  0  0
  -22.3016   -8.2390   21.6481 C   0  0  0  0  0  0  0  0  0  0  0  0
  -28.5377  -24.9318   20.4594 C   0  0  0  0  0  0  0  0  0  0  0  0
  -20.7893   -7.1691   23.0940 C   0  0  0  0  0  0  0  0  0  0  0  0
  -19.2284   -7.2419   25.4050 C   0  0  0  0  0  0  0  0  0  0  0  0
  -21.0062   -6.2401   24.1116 C   0  0  0  0  0  0  0  0  0  0  0  0
  -24.5951  -11.6712   20.7221 C   0  0  0  0  0  0  0  0  0  0  0  0
  -25.2774  -13.7337   20.3819 C   0  0  0  0  0  0  0  0  0  0  0  0
  -31.7451  -21.9802   20.1490 C   0  0  0  0  0  0  0  0  0  0  0  0
  -22.8982  -13.5607   21.1287 C   0  0  0  0  0  0  0  0  0  0  0  0
  -24.1591  -27.5378   22.3303 C   0  0  0  0  0  0  0  0  0  0  0  0
  -22.9834  -27.5189   19.3071 C   0  0  0  0  0  0  0  0  0  0  0  0
  -23.3938  -26.6052   16.0447 C   0  0  0  0  0  0  0  0  0  0  0  0
  -30.7454  -14.7607   20.6030 C   0  0  0  0  0  0  0  0  0  0  0  0
  -21.3001  -29.8904   25.8445 C   0  0  0  0  0  0  0  0  0  0  0  0
  -26.1154  -28.4445   21.0239 C   0  0  0  0  0  0  0  0  0  0  0  0
  -24.9715  -26.0312   19.7542 C   0  0  0  0  0  0  0  0  0  0  0  0
  -21.0282  -29.0853   24.5764 C   0  0  0  0  0  0  0  0  0  0  0  0
  -29.6636  -12.2106   18.3661 C   0  0  0  0  0  0  0  0  0  0  0  0
  -21.8288  -27.7869   24.5864 C   0  0  0  0  0  0  0  0  0  0  0  0
  -28.2138  -11.9534   18.7834 C   0  0  0  0  0  0  0  0  0  0  0  0
  -30.5559  -12.5087   19.5697 C   0  0  0  0  0  0  0  0  0  0  0  0
  -28.6262  -13.3268   20.8645 C   0  0  0  0  0  0  0  0  0  0  0  0
  -30.1434  -22.2406   21.8752 C   0  0  0  0  0  0  0  0  0  0  0  0
  -23.3359  -28.0683   24.6177 C   0  0  1  0  0  0  0  0  0  0  0  0
  -24.6164  -28.1614   21.0421 C   0  0  1  0  0  0  0  0  0  0  0  0
  -27.6761  -13.0859   19.6800 C   0  0  2  0  0  0  0  0  0  0  0  0
  -30.3507  -23.5966   21.2195 C   0  0  1  0  0  0  0  0  0  1  0  0
  -31.7106  -23.4650   20.5160 C   0  0  0  0  0  0  0  0  0  0  0  0
  -28.5368  -17.4730   23.0711 C   0  0  0  0  0  0  0  0  0  0  0  0
  -32.8647  -23.7442   21.4907 C   0  0  0  0  0  0  0  0  0  0  0  0
  -31.8503  -24.3450   19.2736 C   0  0  0  0  0  0  0  0  0  0  0  0
  -22.2465  -26.6949   13.8146 C   0  0  0  0  0  0  0  0  0  0  0  0
  -21.1094  -25.2762   20.1837 C   0  0  0  0  0  0  0  0  0  0  0  0
  -20.6925  -24.7742   17.7665 C   0  0  0  0  0  0  0  0  0  0  0  0
  -20.0572  -26.9967   18.7046 C   0  0  0  0  0  0  0  0  0  0  0  0
  -25.5875  -28.1923   14.8499 C   0  0  0  0  0  0  0  0  0  0  0  0
  -22.5011  -26.4519   18.3542 C   0  0  1  0  0  0  0  0  0  0  0  0
  -23.2264  -27.3833   14.7520 C   0  0  2  0  0  0  0  0  0  0  0  0
  -21.1165  -25.8745   18.7627 C   0  0  0  0  0  0  0  0  0  0  0  0
  -25.8674  -11.5434   20.3364 N   0  0  0  0  0  0  0  0  0  0  0  0
  -26.2549  -12.8146   20.1367 N   0  0  0  0  0  0  0  0  0  0  0  0
  -30.8492  -21.3106   21.0084 N   0  0  0  0  0  0  0  0  0  0  0  0
  -24.1972  -27.2661   19.9619 N   0  0  0  0  0  0  0  0  0  0  0  0
  -29.9859  -13.5946   20.3702 N   0  0  0  0  0  0  0  0  0  0  0  0
  -25.4976  -15.0570   20.2311 N   0  0  0  0  0  0  0  0  0  0  0  0
  -21.8740  -12.6792   21.5008 N   0  0  0  0  0  0  0  0  0  0  0  0
  -30.0876  -15.7378   21.3494 N   0  0  0  0  0  0  0  0  0  0  0  0
  -23.8056  -28.4526   23.3038 N   0  0  0  0  0  0  0  0  0  0  0  0
  -22.5304  -27.0495   17.0237 N   0  0  0  0  0  0  0  0  0  0  0  0
  -24.5356  -27.5118   14.0516 N   0  3  0  0  0  0  0  0  0  0  0  0
  -32.4921  -21.5226   19.2951 O   0  0  0  0  0  0  0  0  0  0  0  0
  -22.6685  -14.7937   21.1051 O   0  0  0  0  0  0  0  0  0  0  0  0
  -24.1277  -26.3171   22.4330 O   0  0  0  0  0  0  0  0  0  0  0  0
  -22.3117  -28.5422   19.4593 O   0  0  0  0  0  0  0  0  0  0  0  0
  -24.2063  -25.6919   16.1720 O   0  0  0  0  0  0  0  0  0  0  0  0
  -31.8847  -14.8945   20.1490 O   0  0  0  0  0  0  0  0  0  0  0  0
  -21.5638   -7.1348   21.9466 O   0  0  0  0  0  0  0  0  0  0  0  0
  -29.3065  -23.8239   20.2769 O   0  0  0  0  0  0  0  0  0  1  0  0
  -18.4798   -7.2779   26.5152 F   0  0  0  0  0  0  0  0  0  0  0  0
  -21.9636   -5.3111   23.9854 F   0  0  0  0  0  0  0  0  0  0  0  0
  1  2  1  0  0  0  0
  1  5  2  0  0  0  0
  2  6  2  0  0  0  0
  3 10  2  0  0  0  0
  3 18  1  0  0  0  0
  4 11  1  0  0  0  0
  4 18  2  0  0  0  0
  5 20  1  0  0  0  0
  6 22  1  0  0  0  0
  7 12  2  0  0  0  0
  7 21  1  0  0  0  0
  8  9  2  0  0  0  0
  8 25  1  0  0  0  0
  9 26  1  0  0  0  0
 10 27  1  0  0  0  0
 11 27  2  0  0  0  0
 12 28  1  0  0  0  0
 13 14  2  0  0  0  0
 13 29  1  0  0  0  0
 14 30  1  0  0  0  0
 15 23  1  0  0  0  0
 15 28  2  0  0  0  0
 16 24  1  0  0  0  0
 16 25  2  0  0  0  0
 17 30  2  0  0  0  0
 17 31  1  0  0  0  0
 18 32  1  0  0  0  0
 19 32  1  0  0  0  0
 19 33  2  0  0  0  0
 19 35  1  0  0  0  0
 20 22  2  0  0  0  0
 20 40  1  0  0  0  0
 21 23  2  0  0  0  0
 21 41  1  0  0  0  0
 22 50  1  0  0  0  0
 23 42  1  0  0  0  0
 24 26  2  0  0  0  0
 24 55  1  0  0  0  0
 25 68  1  0  0  0  0
 26 73  1  0  0  0  0
 27 83  1  0  0  0  0
 28 84  1  0  0  0  0
 29 31  2  0  0  0  0
 29 83  1  0  0  0  0
 30 85  1  0  0  0  0
 31 86  1  0  0  0  0
 32 66  2  0  0  0  0
 33 67  1  0  0  0  0
 33 71  1  0  0  0  0
 34 54  1  0  0  0  0
 34 68  1  0  0  0  0
 34 77  2  0  0  0  0
 35 72  1  0  0  0  0
 35 78  2  0  0  0  0
 36 51  1  0  0  0  0
 36 74  1  0  0  0  0
 36 79  2  0  0  0  0
 37 63  1  0  0  0  0
 37 69  1  0  0  0  0
 37 80  2  0  0  0  0
 38 64  1  0  0  0  0
 38 75  1  0  0  0  0
 38 81  2  0  0  0  0
 39 70  1  0  0  0  0
 39 73  1  0  0  0  0
 39 82  2  0  0  0  0
 40 43  1  0  0  0  0
 41 51  1  0  0  0  0
 42 69  1  0  0  0  0
 43 45  1  0  0  0  0
 44 46  1  0  0  0  0
 44 47  1  0  0  0  0
 45 50  1  0  0  0  0
 46 52  1  0  0  0  0
 47 70  1  0  0  0  0
 48 52  1  0  0  0  0
 48 70  1  0  0  0  0
 49 53  1  0  0  0  0
 49 68  1  0  0  0  0
 50 74  1  0  0  0  0
 51 69  1  0  0  0  0
 52 67  1  0  0  0  0
 53 54  1  0  0  0  0
 53 84  1  0  0  0  0
 54 56  1  0  0  0  0
 54 57  1  0  0  0  0
 58 64  1  0  0  0  0
 59 65  1  0  0  0  0
 60 65  1  0  0  0  0
 61 65  1  0  0  0  0
 62 76  1  0  0  0  0
 63 65  1  0  0  0  0
 63 75  1  0  0  0  0
 64 76  1  0  0  0  0
 66 67  1  0  0  0  0
M  CHG  1  76   1
M  ISO  4  39 100  53 101  73 100  84 101
M  END
> <Batch ID>
0067

> <Smiles>
CNC(C)C(=O)NC(C(=O)N1Cc2cc([101O:1][101CH:1]3CN(c4ccc([100NH:0][100C:0](=O)N5CCCC(n6nc(-c7ccc(Oc8ccc(F)cc8F)cc7)c(C(N)=O)c6N)C5)c(C)c4)C(=O)C3(C)C)ccc2CC1C(=O)NC1CCCc2ccccc21)C(C)(C)C

> <Shape>
0.272

> <Color>
0.191

> <Negative vol penalty>
0.000

$$$$

  -OEChem-04042323243D

 82 90  0     1  0  0  0  0  0999 V2000
  -14.0773  -24.8873   20.8634 C   0  0  0  0  0  0  0  0  0  0  0  0
  -14.8312  -24.4179   21.9342 C   0  0  0  0  0  0  0  0  0  0  0  0
  -23.0719   -9.8737   19.9414 C   0  0  0  0  0  0  0  0  0  0  0  0
  -23.8394   -9.8745   22.2322 C   0  0  0  0  0  0  0  0  0  0  0  0
  -14.7012  -25.1958   19.6553 C   0  0  0  0  0  0  0  0  0  0  0  0
  -16.2094  -24.2557   21.7973 C   0  0  0  0  0  0  0  0  0  0  0  0
  -22.2837  -24.6875   25.5698 C   0  0  0  0  0  0  0  0  0  0  0  0
  -22.3288   -8.7200   20.1907 C   0  0  0  0  0  0  0  0  0  0  0  0
  -23.0962   -8.7208   22.4816 C   0  0  0  0  0  0  0  0  0  0  0  0
  -23.4185  -23.9368   25.8737 C   0  0  0  0  0  0  0  0  0  0  0  0
  -19.8700   -7.9216   23.0926 C   0  0  0  0  0  0  0  0  0  0  0  0
  -19.1169   -7.8786   24.2659 C   0  0  0  0  0  0  0  0  0  0  0  0
  -24.3994  -24.5769   23.7648 C   0  0  0  0  0  0  0  0  0  0  0  0
  -28.7716  -18.6790   24.5112 C   0  0  0  0  0  0  0  0  0  0  0  0
  -20.3606   -5.9391   24.9931 C   0  0  0  0  0  0  0  0  0  0  0  0
  -23.8273  -10.4510   20.9621 C   0  0  0  0  0  0  0  0  0  0  0  0
  -24.1689  -12.9765   20.8477 C   0  0  0  0  0  0  0  0  0  0  0  0
  -16.0891  -25.0465   19.5065 C   0  0  0  0  0  0  0  0  0  0  0  0
  -22.1936  -25.3810   24.3543 C   0  0  0  0  0  0  0  0  0  0  0  0
  -16.8522  -24.5613   20.5856 C   0  0  0  0  0  0  0  0  0  0  0  0
  -23.2635  -25.3378   23.4490 C   0  0  0  0  0  0  0  0  0  0  0  0
  -29.6185  -17.6247   24.0623 C   0  0  0  0  0  0  0  0  0  0  0  0
  -22.3409   -8.1435   21.4608 C   0  0  0  0  0  0  0  0  0  0  0  0
  -24.4754  -23.8791   24.9699 C   0  0  0  0  0  0  0  0  0  0  0  0
  -20.8684   -6.9733   22.8695 C   0  0  0  0  0  0  0  0  0  0  0  0
  -19.3622   -6.8874   25.2161 C   0  0  0  0  0  0  0  0  0  0  0  0
  -21.1136   -5.9821   23.8197 C   0  0  0  0  0  0  0  0  0  0  0  0
  -24.5956  -11.6425   20.7050 C   0  0  0  0  0  0  0  0  0  0  0  0
  -29.9603  -17.7651   22.7353 C   0  0  0  0  0  0  0  0  0  0  0  0
  -25.2599  -13.7268   20.4828 C   0  0  0  0  0  0  0  0  0  0  0  0
  -28.4987  -19.5852   23.5101 C   0  0  0  0  0  0  0  0  0  0  0  0
  -22.8999  -13.4912   21.2722 C   0  0  0  0  0  0  0  0  0  0  0  0
  -20.2617  -25.2474   21.8336 C   0  0  0  0  0  0  0  0  0  0  0  0
  -21.9386  -27.8623   20.8995 C   0  0  0  0  0  0  0  0  0  0  0  0
  -27.0060  -21.3036   24.5840 C   0  0  0  0  0  0  0  0  0  0  0  0
  -24.8212  -29.6785   21.0974 C   0  0  0  0  0  0  0  0  0  0  0  0
  -30.7444  -14.7450   20.6558 C   0  0  0  0  0  0  0  0  0  0  0  0
  -16.7121  -25.3481   18.1665 C   0  0  0  0  0  0  0  0  0  0  0  0
  -20.9738  -26.2080   24.0531 C   0  0  0  0  0  0  0  0  0  0  0  0
  -23.2246  -26.0807   22.1394 C   0  0  0  0  0  0  0  0  0  0  0  0
  -18.2297  -25.5041   18.2216 C   0  0  0  0  0  0  0  0  0  0  0  0
  -29.5987  -12.3669   18.2665 C   0  0  0  0  0  0  0  0  0  0  0  0
  -18.8533  -24.3739   19.0344 C   0  0  0  0  0  0  0  0  0  0  0  0
  -28.1627  -12.0722   18.7033 C   0  0  0  0  0  0  0  0  0  0  0  0
  -30.5198  -12.5845   19.4649 C   0  0  0  0  0  0  0  0  0  0  0  0
  -28.6227  -13.3120   20.8597 C   0  0  0  0  0  0  0  0  0  0  0  0
  -18.3530  -24.3956   20.4838 C   0  0  1  0  0  0  0  0  0  0  0  0
  -20.7747  -26.4578   22.5614 C   0  0  1  0  0  0  0  0  0  0  0  0
  -27.6446  -13.1406   19.6848 C   0  0  2  0  0  0  0  0  0  0  0  0
  -30.0718  -16.5125   24.9310 C   0  0  0  0  0  0  0  0  0  0  0  0
  -25.9115  -31.7485   20.1899 C   0  0  0  0  0  0  0  0  0  0  0  0
  -22.4805  -26.4195   18.2661 C   0  0  0  0  0  0  0  0  0  0  0  0
  -24.3043  -28.0744   17.8151 C   0  0  0  0  0  0  0  0  0  0  0  0
  -21.9436  -28.8509   18.0322 C   0  0  0  0  0  0  0  0  0  0  0  0
  -25.0370  -30.8858   23.7909 C   0  0  0  0  0  0  0  0  0  0  0  0
  -30.8145  -16.8922   21.8982 C   0  0  0  0  0  0  0  0  0  0  0  0
  -26.2967  -22.5782   24.1659 C   0  0  0  0  0  0  0  0  0  1  0  0
  -23.1948  -28.0958   20.0954 C   0  0  1  0  0  0  0  0  0  0  0  0
  -25.0646  -31.1619   21.3086 C   0  0  2  0  0  0  0  0  0  0  0  0
  -22.9810  -27.8445   18.5759 C   0  0  0  0  0  0  0  0  0  0  0  0
  -25.8591  -11.5477   20.2823 N   0  0  0  0  0  0  0  0  0  0  0  0
  -26.2357  -12.8316   20.1562 N   0  0  0  0  0  0  0  0  0  0  0  0
  -22.0077  -26.8703   21.8878 N   0  0  0  0  0  0  0  0  0  0  0  0
  -29.9722  -13.6107   20.3554 N   0  0  0  0  0  0  0  0  0  0  0  0
  -25.4702  -15.0585   20.4127 N   0  0  0  0  0  0  0  0  0  0  0  0
  -21.8890  -12.5812   21.6104 N   0  0  0  0  0  0  0  0  0  0  0  0
  -27.7146  -20.7632   23.5163 N   0  0  0  0  0  0  0  0  0  0  0  0
  -19.0291  -25.4304   21.2364 N   0  0  0  0  0  0  0  0  0  0  0  0
  -23.6427  -29.4456   20.4206 N   0  0  0  0  0  0  0  0  0  0  0  0
  -30.1481  -15.6716   21.5023 N   0  0  0  0  0  0  0  0  0  0  0  0
  -25.7690  -31.3924   22.6015 N   0  3  0  0  0  0  0  0  0  0  0  0
  -22.6639  -14.7217   21.3336 O   0  0  0  0  0  0  0  0  0  0  0  0
  -20.9351  -24.2238   21.8140 O   0  0  0  0  0  0  0  0  0  0  0  0
  -20.9353  -28.5403   20.6643 O   0  0  0  0  0  0  0  0  0  0  0  0
  -26.9215  -20.8665   25.7270 O   0  0  0  0  0  0  0  0  0  0  0  0
  -25.6006  -28.8131   21.4901 O   0  0  0  0  0  0  0  0  0  0  0  0
  -31.8788  -14.9216   20.1989 O   0  0  0  0  0  0  0  0  0  0  0  0
  -21.6157   -7.0178   21.7045 O   0  0  0  0  0  0  0  0  0  0  0  0
  -25.5840  -23.1465   25.2638 O   0  0  0  0  0  0  0  0  0  1  0  0
  -18.6400   -6.8471   26.3435 F   0  0  0  0  0  0  0  0  0  0  0  0
  -22.0722   -5.0691   23.6115 F   0  0  0  0  0  0  0  0  0  0  0  0
  -29.2616  -19.1635   22.0362 S   0  0  0  0  0  0  0  0  0  0  0  0
  1  2  1  0  0  0  0
  1  5  2  0  0  0  0
  2  6  2  0  0  0  0
  3  8  2  0  0  0  0
  3 16  1  0  0  0  0
  4  9  1  0  0  0  0
  4 16  2  0  0  0  0
  5 18  1  0  0  0  0
  6 20  1  0  0  0  0
  7 10  2  0  0  0  0
  7 19  1  0  0  0  0
  8 23  1  0  0  0  0
  9 23  2  0  0  0  0
 10 24  1  0  0  0  0
 11 12  2  0  0  0  0
 11 25  1  0  0  0  0
 12 26  1  0  0  0  0
 13 21  1  0  0  0  0
 13 24  2  0  0  0  0
 14 22  1  0  0  0  0
 14 31  2  0  0  0  0
 15 26  2  0  0  0  0
 15 27  1  0  0  0  0
 16 28  1  0  0  0  0
 17 28  1  0  0  0  0
 17 30  2  0  0  0  0
 17 32  1  0  0  0  0
 18 20  2  0  0  0  0
 18 38  1  0  0  0  0
 19 21  2  0  0  0  0
 19 39  1  0  0  0  0
 20 47  1  0  0  0  0
 21 40  1  0  0  0  0
 22 29  2  0  0  0  0
 22 50  1  0  0  0  0
 23 78  1  0  0  0  0
 24 79  1  0  0  0  0
 25 27  2  0  0  0  0
 25 78  1  0  0  0  0
 26 80  1  0  0  0  0
 27 81  1  0  0  0  0
 28 61  2  0  0  0  0
 29 56  1  0  0  0  0
 29 82  1  0  0  0  0
 30 62  1  0  0  0  0
 30 65  1  0  0  0  0
 31 67  1  0  0  0  0
 31 82  1  0  0  0  0
 32 66  1  0  0  0  0
 32 72  2  0  0  0  0
 33 48  1  0  0  0  0
 33 68  1  0  0  0  0
 33 73  2  0  0  0  0
 34 58  1  0  0  0  0
 34 63  1  0  0  0  0
 34 74  2  0  0  0  0
 35 57  1  0  0  0  0
 35 67  1  0  0  0  0
 35 75  2  0  0  0  0
 36 59  1  0  0  0  0
 36 69  1  0  0  0  0
 36 76  2  0  0  0  0
 37 64  1  0  0  0  0
 37 70  1  0  0  0  0
 37 77  2  0  0  0  0
 38 41  1  0  0  0  0
 39 48  1  0  0  0  0
 40 63  1  0  0  0  0
 41 43  1  0  0  0  0
 42 44  1  0  0  0  0
 42 45  1  0  0  0  0
 43 47  1  0  0  0  0
 44 49  1  0  0  0  0
 45 64  1  0  0  0  0
 46 49  1  0  0  0  0
 46 64  1  0  0  0  0
 47 68  1  0  0  0  0
 48 63  1  0  0  0  0
 49 62  1  0  0  0  0
 51 59  1  0  0  0  0
 52 60  1  0  0  0  0
 53 60  1  0  0  0  0
 54 60  1  0  0  0  0
 55 71  1  0  0  0  0
 56 70  1  0  0  0  0
 57 79  1  0  0  0  0
 58 60  1  0  0  0  0
 58 69  1  0  0  0  0
 59 71  1  0  0  0  0
 61 62  1  0  0  0  0
M  CHG  1  71   1
M  ISO  4  37 100  57 101  70 100  79 101
M  END
> <Batch ID>
0067

> <Smiles>
CNC(C)C(=O)NC(C(=O)N1Cc2cc([101O:1][101CH2:1]C(=O)Nc3cc(C)c(C[100NH:0][100C:0](=O)N4CCCC(n5nc(-c6ccc(Oc7ccc(F)cc7F)cc6)c(C(N)=O)c5N)C4)s3)ccc2CC1C(=O)NC1CCCc2ccccc21)C(C)(C)C

> <Shape>
0.261

> <Color>
0.191

> <Negative vol penalty>
0.000

$$$$

  -OEChem-04042323243D

 86 95  0     1  0  0  0  0  0999 V2000
  -25.8408  -35.4490   23.0156 C   0  0  0  0  0  0  0  0  0  0  0  0
  -26.4232  -34.2026   22.8094 C   0  0  0  0  0  0  0  0  0  0  0  0
  -24.4222  -12.5475   21.3560 C   0  0  0  0  0  0  0  0  0  0  0  0
  -25.9454  -12.5733   19.4809 C   0  0  0  0  0  0  0  0  0  0  0  0
  -24.5441  -35.5364   23.5204 C   0  0  0  0  0  0  0  0  0  0  0  0
  -25.7097  -33.0426   23.1091 C   0  0  0  0  0  0  0  0  0  0  0  0
  -26.1021  -29.5290   19.4834 C   0  0  0  0  0  0  0  0  0  0  0  0
  -23.8280  -11.3883   20.8574 C   0  0  0  0  0  0  0  0  0  0  0  0
  -25.3512  -11.4140   18.9823 C   0  0  0  0  0  0  0  0  0  0  0  0
  -27.2804  -28.7850   19.4427 C   0  0  0  0  0  0  0  0  0  0  0  0
  -24.5041   -8.0761   20.7839 C   0  0  0  0  0  0  0  0  0  0  0  0
  -24.2459   -7.0417   21.6833 C   0  0  0  0  0  0  0  0  0  0  0  0
  -26.1643  -26.9670   20.5690 C   0  0  0  0  0  0  0  0  0  0  0  0
  -30.4780  -21.5689   16.2816 C   0  0  0  0  0  0  0  0  0  0  0  0
  -28.5354  -21.8005   17.6991 C   0  0  0  0  0  0  0  0  0  0  0  0
  -28.9898  -19.6937   16.6075 C   0  0  0  0  0  0  0  0  0  0  0  0
  -21.8895   -7.1824   21.1687 C   0  0  0  0  0  0  0  0  0  0  0  0
  -25.4809  -13.1401   20.6677 C   0  0  0  0  0  0  0  0  0  0  0  0
  -27.1852  -14.4210   22.0685 C   0  0  0  0  0  0  0  0  0  0  0  0
  -23.8107  -34.3768   23.8174 C   0  0  0  0  0  0  0  0  0  0  0  0
  -24.9470  -29.0010   20.0780 C   0  0  0  0  0  0  0  0  0  0  0  0
  -24.4024  -33.1146   23.6197 C   0  0  0  0  0  0  0  0  0  0  0  0
  -24.9718  -27.7054   20.6137 C   0  0  0  0  0  0  0  0  0  0  0  0
  -29.6789  -22.3483   17.1179 C   0  0  0  0  0  0  0  0  0  0  0  0
  -30.1334  -20.2415   16.0263 C   0  0  0  0  0  0  0  0  0  0  0  0
  -28.1908  -20.4732   17.4439 C   0  0  0  0  0  0  0  0  0  0  0  0
  -24.2925  -10.8215   19.6706 C   0  0  0  0  0  0  0  0  0  0  0  0
  -27.3124  -27.5049   19.9881 C   0  0  0  0  0  0  0  0  0  0  0  0
  -23.4550   -8.6638   20.0770 C   0  0  0  0  0  0  0  0  0  0  0  0
  -22.9386   -6.5948   21.8757 C   0  0  0  0  0  0  0  0  0  0  0  0
  -22.1477   -8.2169   20.2693 C   0  0  0  0  0  0  0  0  0  0  0  0
  -26.0948  -14.3379   21.1819 C   0  0  0  0  0  0  0  0  0  0  0  0
  -27.3817  -15.7688   22.2456 C   0  0  0  0  0  0  0  0  0  0  0  0
  -31.1494  -24.3986   16.8724 C   0  0  0  0  0  0  0  0  0  0  0  0
  -27.9518  -13.3736   22.6775 C   0  0  0  0  0  0  0  0  0  0  0  0
  -23.1226  -29.8176   22.5495 C   0  0  0  0  0  0  0  0  0  0  0  0
  -21.2595  -27.3882   21.4776 C   0  0  0  0  0  0  0  0  0  0  0  0
  -21.0284  -24.4739   19.7168 C   0  0  0  0  0  0  0  0  0  0  0  0
  -26.1298  -20.5522   18.8905 C   0  0  0  0  0  0  0  0  0  0  0  0
  -22.4297  -34.5221   24.4057 C   0  0  0  0  0  0  0  0  0  0  0  0
  -23.6765  -29.8061   20.0900 C   0  0  0  0  0  0  0  0  0  0  0  0
  -23.7534  -27.0850   21.2452 C   0  0  0  0  0  0  0  0  0  0  0  0
  -21.6037  -33.2398   24.3450 C   0  0  0  0  0  0  0  0  0  0  0  0
  -25.0179  -19.9337   22.2159 C   0  0  0  0  0  0  0  0  0  0  0  0
  -22.4324  -32.0482   24.8144 C   0  0  0  0  0  0  0  0  0  0  0  0
  -25.2728  -18.4373   22.4109 C   0  0  0  0  0  0  0  0  0  0  0  0
  -24.5603  -20.2503   20.7932 C   0  0  0  0  0  0  0  0  0  0  0  0
  -29.2000  -24.5754   18.1927 C   0  0  0  0  0  0  0  0  0  0  0  0
  -25.6888  -18.2395   19.9260 C   0  0  0  0  0  0  0  0  0  0  0  0
  -23.6514  -31.8331   23.9093 C   0  0  1  0  0  0  0  0  0  0  0  0
  -31.0226  -25.8451   17.3277 C   0  0  1  0  0  0  0  0  0  0  0  0
  -22.7019  -29.3681   21.1789 C   0  0  1  0  0  0  0  0  0  0  0  0
  -30.1147  -25.7379   18.5538 C   0  0  1  0  0  0  0  0  0  0  0  0
  -26.2142  -17.8798   21.3254 C   0  0  2  0  0  0  0  0  0  0  0  0
  -32.3696  -26.4814   17.6255 C   0  0  0  0  0  0  0  0  0  0  0  0
  -19.3828  -22.7008   19.0494 C   0  0  0  0  0  0  0  0  0  0  0  0
  -21.3806  -26.2193   24.2934 C   0  0  0  0  0  0  0  0  0  0  0  0
  -20.5628  -24.0483   23.3522 C   0  0  0  0  0  0  0  0  0  0  0  0
  -19.1330  -26.0871   23.2048 C   0  0  0  0  0  0  0  0  0  0  0  0
  -21.4161  -25.0345   16.8368 C   0  0  0  0  0  0  0  0  0  0  0  0
  -29.3453  -27.0145   18.8555 C   0  0  0  0  0  0  0  0  0  1  0  0
  -21.1844  -25.9032   21.7385 C   0  0  1  0  0  0  0  0  0  0  0  0
  -20.0443  -24.0127   18.6569 C   0  0  2  0  0  0  0  0  0  0  0  0
  -20.5889  -25.5766   23.1371 C   0  0  0  0  0  0  0  0  0  0  0  0
  -25.6311  -15.5373   20.8210 N   0  0  0  0  0  0  0  0  0  0  0  0
  -26.4339  -16.3869   21.4842 N   0  0  0  0  0  0  0  0  0  0  0  0
  -30.0316  -23.7063   17.3807 N   0  0  0  0  0  0  0  0  0  0  0  0
  -22.5369  -27.9143   21.2383 N   0  0  0  0  0  0  0  0  0  0  0  0
  -25.5025  -19.6950   19.8192 N   0  0  0  0  0  0  0  0  0  0  0  0
  -30.9409  -19.4528   15.1807 N   0  0  0  0  0  0  0  0  0  0  0  0
  -28.2711  -16.4736   22.9768 N   0  0  0  0  0  0  0  0  0  0  0  0
  -27.6158  -12.0443   22.3873 N   0  0  0  0  0  0  0  0  0  0  0  0
  -27.0299  -19.9166   18.0358 N   0  0  0  0  0  0  0  0  0  0  0  0
  -23.2572  -31.1871   22.6757 N   0  0  0  0  0  0  0  0  0  0  0  0
  -20.4391  -25.3299   20.6230 N   0  0  0  0  0  0  0  0  0  0  0  0
  -20.7405  -23.8167   17.3539 N   0  3  0  0  0  0  0  0  0  0  0  0
  -32.0505  -24.0023   16.1473 O   0  0  0  0  0  0  0  0  0  0  0  0
  -28.8961  -13.6094   23.4689 O   0  0  0  0  0  0  0  0  0  0  0  0
  -23.3098  -28.9839   23.4279 O   0  0  0  0  0  0  0  0  0  0  0  0
  -20.2221  -28.0556   21.4787 O   0  0  0  0  0  0  0  0  0  0  0  0
  -22.2015  -24.1082   19.7407 O   0  0  0  0  0  0  0  0  0  0  0  0
  -25.9069  -21.7655   18.8738 O   0  0  0  0  0  0  0  0  0  0  0  0
  -23.7130   -9.6902   19.1839 O   0  0  0  0  0  0  0  0  0  0  0  0
  -28.4614  -26.7767   19.9503 O   0  0  0  0  0  0  0  0  0  1  0  0
  -22.6911   -5.6004   22.7382 F   0  0  0  0  0  0  0  0  0  0  0  0
  -21.1359   -8.7767   19.5921 F   0  0  0  0  0  0  0  0  0  0  0  0
  1  2  1  0  0  0  0
  1  5  2  0  0  0  0
  2  6  2  0  0  0  0
  3  8  2  0  0  0  0
  3 18  1  0  0  0  0
  4  9  1  0  0  0  0
  4 18  2  0  0  0  0
  5 20  1  0  0  0  0
  6 22  1  0  0  0  0
  7 10  2  0  0  0  0
  7 21  1  0  0  0  0
  8 27  1  0  0  0  0
  9 27  2  0  0  0  0
 10 28  1  0  0  0  0
 11 12  2  0  0  0  0
 11 29  1  0  0  0  0
 12 30  1  0  0  0  0
 13 23  1  0  0  0  0
 13 28  2  0  0  0  0
 14 24  1  0  0  0  0
 14 25  2  0  0  0  0
 15 24  2  0  0  0  0
 15 26  1  0  0  0  0
 16 25  1  0  0  0  0
 16 26  2  0  0  0  0
 17 30  2  0  0  0  0
 17 31  1  0  0  0  0
 18 32  1  0  0  0  0
 19 32  1  0  0  0  0
 19 33  2  0  0  0  0
 19 35  1  0  0  0  0
 20 22  2  0  0  0  0
 20 40  1  0  0  0  0
 21 23  2  0  0  0  0
 21 41  1  0  0  0  0
 22 50  1  0  0  0  0
 23 42  1  0  0  0  0
 24 67  1  0  0  0  0
 25 70  1  0  0  0  0
 26 73  1  0  0  0  0
 27 83  1  0  0  0  0
 28 84  1  0  0  0  0
 29 31  2  0  0  0  0
 29 83  1  0  0  0  0
 30 85  1  0  0  0  0
 31 86  1  0  0  0  0
 32 65  2  0  0  0  0
 33 66  1  0  0  0  0
 33 71  1  0  0  0  0
 34 51  1  0  0  0  0
 34 67  1  0  0  0  0
 34 77  2  0  0  0  0
 35 72  1  0  0  0  0
 35 78  2  0  0  0  0
 36 52  1  0  0  0  0
 36 74  1  0  0  0  0
 36 79  2  0  0  0  0
 37 62  1  0  0  0  0
 37 68  1  0  0  0  0
 37 80  2  0  0  0  0
 38 63  1  0  0  0  0
 38 75  1  0  0  0  0
 38 81  2  0  0  0  0
 39 69  1  0  0  0  0
 39 73  1  0  0  0  0
 39 82  2  0  0  0  0
 40 43  1  0  0  0  0
 41 52  1  0  0  0  0
 42 68  1  0  0  0  0
 43 45  1  0  0  0  0
 44 46  1  0  0  0  0
 44 47  1  0  0  0  0
 45 50  1  0  0  0  0
 46 54  1  0  0  0  0
 47 69  1  0  0  0  0
 48 53  1  0  0  0  0
 48 67  1  0  0  0  0
 49 54  1  0  0  0  0
 49 69  1  0  0  0  0
 50 74  1  0  0  0  0
 51 53  1  0  0  0  0
 51 55  1  0  0  0  0
 52 68  1  0  0  0  0
 53 61  1  0  0  0  0
 54 66  1  0  0  0  0
 56 63  1  0  0  0  0
 57 64  1  0  0  0  0
 58 64  1  0  0  0  0
 59 64  1  0  0  0  0
 60 76  1  0  0  0  0
 61 84  1  0  0  0  0
 62 64  1  0  0  0  0
 62 75  1  0  0  0  0
 63 76  1  0  0  0  0
 65 66  1  0  0  0  0
M  CHG  1  76   1
M  ISO  4  39 100  61 101  73 100  84 101
M  END
> <Batch ID>
0067

> <Smiles>
CNC(C)C(=O)NC(C(=O)N1Cc2cc([101O:1][101CH2:1]C3CN(c4cc(N)cc([100NH:0][100C:0](=O)N5CCCC(n6nc(-c7ccc(Oc8ccc(F)cc8F)cc7)c(C(N)=O)c6N)C5)c4)C(=O)C3C)ccc2CC1C(=O)NC1CCCc2ccccc21)C(C)(C)C

> <Shape>
0.249

> <Color>
0.078

> <Negative vol penalty>
0.000

$$$$

  -OEChem-04042323243D

 86 94  0     1  0  0  0  0  0999 V2000
  -17.6717  -32.4186   23.6668 C   0  0  0  0  0  0  0  0  0  0  0  0
  -18.8441  -32.6868   22.9675 C   0  0  0  0  0  0  0  0  0  0  0  0
  -26.3370  -12.7743   20.3287 C   0  0  0  0  0  0  0  0  0  0  0  0
  -24.6528  -14.5061   20.3642 C   0  0  0  0  0  0  0  0  0  0  0  0
  -17.5930  -31.2950   24.4886 C   0  0  0  0  0  0  0  0  0  0  0  0
  -19.9389  -31.8321   23.0905 C   0  0  0  0  0  0  0  0  0  0  0  0
  -25.4605  -29.2554   19.3236 C   0  0  0  0  0  0  0  0  0  0  0  0
  -25.4807  -11.9271   21.0320 C   0  0  0  0  0  0  0  0  0  0  0  0
  -23.7965  -13.6589   21.0674 C   0  0  0  0  0  0  0  0  0  0  0  0
  -26.8457  -29.1174   19.4002 C   0  0  0  0  0  0  0  0  0  0  0  0
  -22.8088   -9.9675   20.3584 C   0  0  0  0  0  0  0  0  0  0  0  0
  -22.6947   -8.6493   19.9170 C   0  0  0  0  0  0  0  0  0  0  0  0
  -28.2445  -23.4471   15.2532 C   0  0  0  0  0  0  0  0  0  0  0  0
  -26.5681  -27.1631   20.7869 C   0  0  0  0  0  0  0  0  0  0  0  0
  -29.6639  -23.4877   17.6545 C   0  0  0  0  0  0  0  0  0  0  0  0
  -23.4876   -7.8632   22.0596 C   0  0  0  0  0  0  0  0  0  0  0  0
  -25.9231  -14.0639   19.9949 C   0  0  0  0  0  0  0  0  0  0  0  0
  -28.6665  -24.6618   15.7934 C   0  0  0  0  0  0  0  0  0  0  0  0
  -26.9140  -15.0723   17.8715 C   0  0  0  0  0  0  0  0  0  0  0  0
  -18.6842  -30.4208   24.6141 C   0  0  0  0  0  0  0  0  0  0  0  0
  -24.6174  -28.3532   19.9881 C   0  0  0  0  0  0  0  0  0  0  0  0
  -19.8752  -30.6964   23.9157 C   0  0  0  0  0  0  0  0  0  0  0  0
  -25.1725  -27.2904   20.7150 C   0  0  0  0  0  0  0  0  0  0  0  0
  -29.3763  -24.6822   16.9940 C   0  0  0  0  0  0  0  0  0  0  0  0
  -29.2418  -22.2729   17.1143 C   0  0  0  0  0  0  0  0  0  0  0  0
  -24.2105  -12.3694   21.4013 C   0  0  0  0  0  0  0  0  0  0  0  0
  -27.3998  -28.0728   20.1344 C   0  0  0  0  0  0  0  0  0  0  0  0
  -23.2625  -10.2336   21.6504 C   0  0  0  0  0  0  0  0  0  0  0  0
  -23.0340   -7.5971   20.7676 C   0  0  0  0  0  0  0  0  0  0  0  0
  -28.5320  -22.2526   15.9137 C   0  0  0  0  0  0  0  0  0  0  0  0
  -23.6018   -9.1814   22.5009 C   0  0  0  0  0  0  0  0  0  0  0  0
  -26.8074  -14.9397   19.2689 C   0  0  0  0  0  0  0  0  0  0  0  0
  -27.8876  -16.0240   17.6901 C   0  0  0  0  0  0  0  0  0  0  0  0
  -28.3547  -25.8889   15.0887 C   0  0  0  0  0  0  0  0  0  0  0  0
  -26.1970  -14.3957   16.8304 C   0  0  0  0  0  0  0  0  0  0  0  0
  -22.4503  -28.5954   22.3008 C   0  0  0  0  0  0  0  0  0  0  0  0
  -21.9288  -25.4701   21.6058 C   0  0  0  0  0  0  0  0  0  0  0  0
  -30.5224  -26.0863   18.7429 C   0  0  0  0  0  0  0  0  0  0  0  0
  -23.1302  -22.5510   20.3088 C   0  0  0  0  0  0  0  0  0  0  0  0
  -30.2275  -20.9070   18.9876 C   0  0  0  0  0  0  0  0  0  0  0  0
  -18.5681  -29.2447   25.5511 C   0  0  0  0  0  0  0  0  0  0  0  0
  -23.1249  -28.5003   19.8735 C   0  0  0  0  0  0  0  0  0  0  0  0
  -24.3108  -26.2831   21.4300 C   0  0  0  0  0  0  0  0  0  0  0  0
  -19.6451  -28.1848   25.3347 C   0  0  0  0  0  0  0  0  0  0  0  0
  -31.1200  -18.0991   20.9866 C   0  0  0  0  0  0  0  0  0  0  0  0
  -21.0187  -28.8368   25.2119 C   0  0  0  0  0  0  0  0  0  0  0  0
  -30.0864  -17.0377   20.6030 C   0  0  0  0  0  0  0  0  0  0  0  0
  -30.5107  -19.4997   21.0159 C   0  0  0  0  0  0  0  0  0  0  0  0
  -28.7670  -18.8322   19.4087 C   0  0  0  0  0  0  0  0  0  0  0  0
  -21.0759  -29.7794   24.0037 C   0  0  1  0  0  0  0  0  0  0  0  0
  -22.3687  -27.8249   21.0134 C   0  0  1  0  0  0  0  0  0  0  0  0
  -29.3491  -17.4132   19.3026 C   0  0  2  0  0  0  0  0  0  0  0  0
  -22.4857  -20.1580   19.9143 C   0  0  0  0  0  0  0  0  0  0  0  0
  -22.3533  -24.8701   24.5672 C   0  0  0  0  0  0  0  0  0  0  0  0
  -22.6443  -22.4574   23.9652 C   0  0  0  0  0  0  0  0  0  0  0  0
  -20.4769  -23.6034   23.5046 C   0  0  0  0  0  0  0  0  0  0  0  0
  -23.4337  -22.8312   17.3782 C   0  0  0  0  0  0  0  0  0  0  0  0
  -30.7883  -27.5681   18.9829 C   0  0  0  0  0  0  0  0  0  0  0  0
  -29.5152  -28.3930   19.0958 C   0  0  0  0  0  0  0  0  0  1  0  0
  -22.4974  -24.1580   22.0897 C   0  0  1  0  0  0  0  0  0  0  0  0
  -22.5275  -21.5609   19.3286 C   0  0  2  0  0  0  0  0  0  0  0  0
  -22.0095  -23.7922   23.5199 C   0  0  0  0  0  0  0  0  0  0  0  0
  -27.6464  -15.7428   19.9285 N   0  0  0  0  0  0  0  0  0  0  0  0
  -28.2895  -16.3891   18.9412 N   0  0  0  0  0  0  0  0  0  0  0  0
  -22.8573  -26.4732   21.2931 N   0  0  0  0  0  0  0  0  0  0  0  0
  -29.8329  -19.7873   19.7499 N   0  0  0  0  0  0  0  0  0  0  0  0
  -28.4305  -16.5757   16.5841 N   0  0  0  0  0  0  0  0  0  0  0  0
  -29.2039  -26.3790   14.1721 N   0  0  0  0  0  0  0  0  0  0  0  0
  -25.2305  -13.4474   17.1921 N   0  0  0  0  0  0  0  0  0  0  0  0
  -29.8116  -25.9042   17.5597 N   0  0  0  0  0  0  0  0  0  0  0  0
  -29.5342  -21.0608   17.7875 N   0  0  0  0  0  0  0  0  0  0  0  0
  -21.2264  -29.0230   22.7792 N   0  0  0  0  0  0  0  0  0  0  0  0
  -22.1617  -23.1677   21.0723 N   0  0  0  0  0  0  0  0  0  0  0  0
  -27.2129  -26.5464   15.3443 N   0  3  0  0  0  0  0  0  0  0  0  0
  -23.3290  -21.5221   18.0728 N   0  3  0  0  0  0  0  0  0  0  0  0
  -26.4187  -14.6135   15.6151 O   0  0  0  0  0  0  0  0  0  0  0  0
  -23.5426  -28.7865   22.8224 O   0  0  0  0  0  0  0  0  0  0  0  0
  -20.7063  -25.5979   21.5021 O   0  0  0  0  0  0  0  0  0  0  0  0
  -30.9063  -25.2197   19.5214 O   0  0  0  0  0  0  0  0  0  0  0  0
  -24.3395  -22.7541   20.3917 O   0  0  0  0  0  0  0  0  0  0  0  0
  -31.1338  -21.6576   19.3581 O   0  0  0  0  0  0  0  0  0  0  0  0
  -23.3745  -11.5428   22.0873 O   0  0  0  0  0  0  0  0  0  0  0  0
  -28.7515  -27.9361   20.2114 O   0  0  0  0  0  0  0  0  0  1  0  0
  -22.9228   -6.3312   20.3441 F   0  0  0  0  0  0  0  0  0  0  0  0
  -28.1212  -21.0911   15.3853 F   0  0  0  0  0  0  0  0  0  0  0  0
  -24.0370   -9.4308   23.7436 F   0  0  0  0  0  0  0  0  0  0  0  0
  1  2  1  0  0  0  0
  1  5  2  0  0  0  0
  2  6  2  0  0  0  0
  3  8  2  0  0  0  0
  3 17  1  0  0  0  0
  4  9  1  0  0  0  0
  4 17  2  0  0  0  0
  5 20  1  0  0  0  0
  6 22  1  0  0  0  0
  7 10  2  0  0  0  0
  7 21  1  0  0  0  0
  8 26  1  0  0  0  0
  9 26  2  0  0  0  0
 10 27  1  0  0  0  0
 11 12  2  0  0  0  0
 11 28  1  0  0  0  0
 12 29  1  0  0  0  0
 13 18  1  0  0  0  0
 13 30  2  0  0  0  0
 14 23  1  0  0  0  0
 14 27  2  0  0  0  0
 15 24  1  0  0  0  0
 15 25  2  0  0  0  0
 16 29  2  0  0  0  0
 16 31  1  0  0  0  0
 17 32  1  0  0  0  0
 18 24  2  0  0  0  0
 18 34  1  0  0  0  0
 19 32  1  0  0  0  0
 19 33  2  0  0  0  0
 19 35  1  0  0  0  0
 20 22  2  0  0  0  0
 20 41  1  0  0  0  0
 21 23  2  0  0  0  0
 21 42  1  0  0  0  0
 22 50  1  0  0  0  0
 23 43  1  0  0  0  0
 24 70  1  0  0  0  0
 25 30  1  0  0  0  0
 25 71  1  0  0  0  0
 26 82  1  0  0  0  0
 27 83  1  0  0  0  0
 28 31  2  0  0  0  0
 28 82  1  0  0  0  0
 29 84  1  0  0  0  0
 30 85  1  0  0  0  0
 31 86  1  0  0  0  0
 32 63  2  0  0  0  0
 33 64  1  0  0  0  0
 33 67  1  0  0  0  0
 34 68  1  0  0  0  0
 34 74  2  0  0  0  0
 35 69  1  0  0  0  0
 35 76  2  0  0  0  0
 36 51  1  0  0  0  0
 36 72  1  0  0  0  0
 36 77  2  0  0  0  0
 37 60  1  0  0  0  0
 37 65  1  0  0  0  0
 37 78  2  0  0  0  0
 38 58  1  0  0  0  0
 38 70  1  0  0  0  0
 38 79  2  0  0  0  0
 39 61  1  0  0  0  0
 39 73  1  0  0  0  0
 39 80  2  0  0  0  0
 40 66  1  0  0  0  0
 40 71  1  0  0  0  0
 40 81  2  0  0  0  0
 41 44  1  0  0  0  0
 42 51  1  0  0  0  0
 43 65  1  0  0  0  0
 44 46  1  0  0  0  0
 45 47  1  0  0  0  0
 45 48  1  0  0  0  0
 46 50  1  0  0  0  0
 47 52  1  0  0  0  0
 48 66  1  0  0  0  0
 49 52  1  0  0  0  0
 49 66  1  0  0  0  0
 50 72  1  0  0  0  0
 51 65  1  0  0  0  0
 52 64  1  0  0  0  0
 53 61  1  0  0  0  0
 54 62  1  0  0  0  0
 55 62  1  0  0  0  0
 56 62  1  0  0  0  0
 57 75  1  0  0  0  0
 58 59  1  0  0  0  0
 59 83  1  0  0  0  0
 60 62  1  0  0  0  0
 60 73  1  0  0  0  0
 61 75  1  0  0  0  0
 63 64  1  0  0  0  0
M  CHG  2  74   1  75   1
M  ISO  4  40 100  59 101  71 100  83 101
M  END
> <Batch ID>
0067

> <Smiles>
CNC(C)C(=O)NC(C(=O)N1Cc2cc([101O:1][101CH2:1]CC(=O)Nc3cc([100NH:0][100C:0](=O)N4CCCC(n5nc(-c6ccc(Oc7ccc(F)cc7F)cc6)c(C(N)=O)c5N)C4)c(F)cc3C(=N)N)ccc2CC1C(=O)NC1CCCc2ccccc21)C(C)(C)C

> <Shape>
0.241

> <Color>
0.099

> <Negative vol penalty>
0.000

$$$$

  -OEChem-04042323243D

 83 91  0     1  0  0  0  0  0999 V2000
  -23.9349   -8.0447   22.0635 C   0  0  0  0  0  0  0  0  0  0  0  0
  -24.6216   -9.0687   21.4192 C   0  0  0  0  0  0  0  0  0  0  0  0
  -21.9887  -28.3495   21.3623 C   0  0  0  0  0  0  0  0  0  0  0  0
  -22.9554  -27.3724   23.3492 C   0  0  0  0  0  0  0  0  0  0  0  0
  -22.5754   -8.1845   22.3394 C   0  0  0  0  0  0  0  0  0  0  0  0
  -23.9489  -10.2328   21.0493 C   0  0  0  0  0  0  0  0  0  0  0  0
  -26.5555  -14.4251   22.1783 C   0  0  0  0  0  0  0  0  0  0  0  0
  -20.7177  -28.2387   21.9262 C   0  0  0  0  0  0  0  0  0  0  0  0
  -21.6844  -27.2616   23.9131 C   0  0  0  0  0  0  0  0  0  0  0  0
  -27.6053  -14.7704   21.3283 C   0  0  0  0  0  0  0  0  0  0  0  0
  -18.8474  -29.9026   24.1992 C   0  0  0  0  0  0  0  0  0  0  0  0
  -17.9938  -31.0007   24.0945 C   0  0  0  0  0  0  0  0  0  0  0  0
  -26.1856  -16.3906   20.2427 C   0  0  0  0  0  0  0  0  0  0  0  0
  -30.0151  -19.9872   23.0567 C   0  0  0  0  0  0  0  0  0  0  0  0
  -29.2942  -22.2906   22.9501 C   0  0  0  0  0  0  0  0  0  0  0  0
  -29.5407  -21.0067   20.9184 C   0  0  0  0  0  0  0  0  0  0  0  0
  -16.4000  -29.6465   22.8850 C   0  0  0  0  0  0  0  0  0  0  0  0
  -23.1075  -27.9163   22.0738 C   0  0  0  0  0  0  0  0  0  0  0  0
  -25.3059  -29.1194   21.5970 C   0  0  0  0  0  0  0  0  0  0  0  0
  -21.8878   -9.3548   21.9814 C   0  0  0  0  0  0  0  0  0  0  0  0
  -25.3075  -15.0534   22.0595 C   0  0  0  0  0  0  0  0  0  0  0  0
  -22.5786  -10.3878   21.3194 C   0  0  0  0  0  0  0  0  0  0  0  0
  -25.1223  -16.0533   21.0941 C   0  0  0  0  0  0  0  0  0  0  0  0
  -29.6926  -21.1830   23.6984 C   0  0  0  0  0  0  0  0  0  0  0  0
  -29.9392  -19.8991   21.6667 C   0  0  0  0  0  0  0  0  0  0  0  0
  -29.2182  -22.2025   21.5600 C   0  0  0  0  0  0  0  0  0  0  0  0
  -20.5656  -27.6948   23.2016 C   0  0  0  0  0  0  0  0  0  0  0  0
  -27.4196  -15.7512   20.3585 C   0  0  0  0  0  0  0  0  0  0  0  0
  -18.4773  -28.6763   23.6467 C   0  0  0  0  0  0  0  0  0  0  0  0
  -16.7701  -30.8727   23.4374 C   0  0  0  0  0  0  0  0  0  0  0  0
  -17.2536  -28.5483   22.9897 C   0  0  0  0  0  0  0  0  0  0  0  0
  -24.4207  -28.0299   21.4916 C   0  0  0  0  0  0  0  0  0  0  0  0
  -26.4088  -28.7370   20.8733 C   0  0  0  0  0  0  0  0  0  0  0  0
  -25.1456  -30.3658   22.2874 C   0  0  0  0  0  0  0  0  0  0  0  0
  -22.3594  -14.0757   21.3836 C   0  0  0  0  0  0  0  0  0  0  0  0
  -21.5965  -17.1475   22.0940 C   0  0  0  0  0  0  0  0  0  0  0  0
  -30.2464  -18.4231   19.6490 C   0  0  0  0  0  0  0  0  0  0  0  0
  -22.6018  -20.3994   22.3414 C   0  0  0  0  0  0  0  0  0  0  0  0
  -28.6869  -23.4093   19.4134 C   0  0  0  0  0  0  0  0  0  0  0  0
  -20.4077   -9.4407   22.2582 C   0  0  0  0  0  0  0  0  0  0  0  0
  -24.1931  -14.6884   23.0016 C   0  0  0  0  0  0  0  0  0  0  0  0
  -23.8079  -16.7721   20.9389 C   0  0  0  0  0  0  0  0  0  0  0  0
  -19.8527  -10.8599   22.1687 C   0  0  0  0  0  0  0  0  0  0  0  0
  -27.6867  -25.9851   17.1681 C   0  0  0  0  0  0  0  0  0  0  0  0
  -20.3608  -11.5534   20.9086 C   0  0  0  0  0  0  0  0  0  0  0  0
  -26.8212  -26.9042   18.0331 C   0  0  0  0  0  0  0  0  0  0  0  0
  -27.4941  -24.5146   17.5345 C   0  0  0  0  0  0  0  0  0  0  0  0
  -26.8099  -25.1196   19.8225 C   0  0  0  0  0  0  0  0  0  0  0  0
  -21.8893  -11.6759   20.9247 C   0  0  1  0  0  0  0  0  0  0  0  0
  -22.8111  -15.0296   22.4530 C   0  0  1  0  0  0  0  0  0  0  0  0
  -27.0181  -26.6153   19.5342 C   0  0  2  0  0  0  0  0  0  0  0  0
  -29.7753  -21.2771   25.1848 C   0  0  0  0  0  0  0  0  0  0  0  0
  -21.7447  -22.6884   22.9098 C   0  0  0  0  0  0  0  0  0  0  0  0
  -20.2065  -17.2978   19.3819 C   0  0  0  0  0  0  0  0  0  0  0  0
  -20.2151  -19.7925   19.5939 C   0  0  0  0  0  0  0  0  0  0  0  0
  -18.9688  -18.4059   21.2513 C   0  0  0  0  0  0  0  0  0  0  0  0
  -24.4920  -20.6725   24.6023 C   0  0  0  0  0  0  0  0  0  0  0  0
  -30.6714  -16.9849   19.3756 C   0  0  0  0  0  0  0  0  0  0  0  0
  -29.7674  -15.9579   20.0405 C   0  0  0  0  0  0  0  0  0  1  0  0
  -21.4963  -18.4331   21.3090 C   0  0  1  0  0  0  0  0  0  0  0  0
  -22.4153  -21.4306   23.4397 C   0  0  2  0  0  0  0  0  0  0  0  0
  -20.2460  -18.4676   20.3854 C   0  0  0  0  0  0  0  0  0  0  0  0
  -24.9182  -27.0303   20.7586 N   0  0  0  0  0  0  0  0  0  0  0  0
  -26.1280  -27.4903   20.3967 N   0  0  0  0  0  0  0  0  0  0  0  0
  -22.7471  -16.3755   21.8795 N   0  0  0  0  0  0  0  0  0  0  0  0
  -27.7006  -24.3159   18.9707 N   0  0  0  0  0  0  0  0  0  0  0  0
  -27.5817  -29.3488   20.6044 N   0  0  0  0  0  0  0  0  0  0  0  0
  -23.9499  -30.5961   22.9815 N   0  0  0  0  0  0  0  0  0  0  0  0
  -30.2666  -18.6857   21.0162 N   0  0  0  0  0  0  0  0  0  0  0  0
  -28.8148  -23.3281   20.7997 N   0  0  0  0  0  0  0  0  0  0  0  0
  -22.3006  -12.7575   21.7938 N   0  0  0  0  0  0  0  0  0  0  0  0
  -21.5462  -19.5139   22.2877 N   0  0  0  0  0  0  0  0  0  0  0  0
  -23.7332  -21.8106   24.0226 N   0  3  0  0  0  0  0  0  0  0  0  0
  -26.0295  -31.2557   22.2751 O   0  0  0  0  0  0  0  0  0  0  0  0
  -22.0832  -14.5042   20.2692 O   0  0  0  0  0  0  0  0  0  0  0  0
  -20.6908  -16.8431   22.8741 O   0  0  0  0  0  0  0  0  0  0  0  0
  -29.9395  -19.1958   18.7472 O   0  0  0  0  0  0  0  0  0  0  0  0
  -23.5837  -20.3835   21.6024 O   0  0  0  0  0  0  0  0  0  0  0  0
  -29.3865  -22.7734   18.6209 O   0  0  0  0  0  0  0  0  0  0  0  0
  -19.3255  -27.5868   23.7522 O   0  0  0  0  0  0  0  0  0  0  0  0
  -28.4425  -16.0896   19.5271 O   0  0  0  0  0  0  0  0  0  1  0  0
  -15.9498  -31.9270   23.3383 F   0  0  0  0  0  0  0  0  0  0  0  0
  -16.8921  -27.3726   22.4580 F   0  0  0  0  0  0  0  0  0  0  0  0
  1  2  1  0  0  0  0
  1  5  2  0  0  0  0
  2  6  2  0  0  0  0
  3  8  2  0  0  0  0
  3 18  1  0  0  0  0
  4  9  1  0  0  0  0
  4 18  2  0  0  0  0
  5 20  1  0  0  0  0
  6 22  1  0  0  0  0
  7 10  2  0  0  0  0
  7 21  1  0  0  0  0
  8 27  1  0  0  0  0
  9 27  2  0  0  0  0
 10 28  1  0  0  0  0
 11 12  2  0  0  0  0
 11 29  1  0  0  0  0
 12 30  1  0  0  0  0
 13 23  1  0  0  0  0
 13 28  2  0  0  0  0
 14 24  2  0  0  0  0
 14 25  1  0  0  0  0
 15 24  1  0  0  0  0
 15 26  2  0  0  0  0
 16 25  2  0  0  0  0
 16 26  1  0  0  0  0
 17 30  2  0  0  0  0
 17 31  1  0  0  0  0
 18 32  1  0  0  0  0
 19 32  1  0  0  0  0
 19 33  2  0  0  0  0
 19 34  1  0  0  0  0
 20 22  2  0  0  0  0
 20 40  1  0  0  0  0
 21 23  2  0  0  0  0
 21 41  1  0  0  0  0
 22 49  1  0  0  0  0
 23 42  1  0  0  0  0
 24 52  1  0  0  0  0
 25 69  1  0  0  0  0
 26 70  1  0  0  0  0
 27 80  1  0  0  0  0
 28 81  1  0  0  0  0
 29 31  2  0  0  0  0
 29 80  1  0  0  0  0
 30 82  1  0  0  0  0
 31 83  1  0  0  0  0
 32 63  2  0  0  0  0
 33 64  1  0  0  0  0
 33 67  1  0  0  0  0
 34 68  1  0  0  0  0
 34 74  2  0  0  0  0
 35 50  1  0  0  0  0
 35 71  1  0  0  0  0
 35 75  2  0  0  0  0
 36 60  1  0  0  0  0
 36 65  1  0  0  0  0
 36 76  2  0  0  0  0
 37 58  1  0  0  0  0
 37 69  1  0  0  0  0
 37 77  2  0  0  0  0
 38 61  1  0  0  0  0
 38 72  1  0  0  0  0
 38 78  2  0  0  0  0
 39 66  1  0  0  0  0
 39 70  1  0  0  0  0
 39 79  2  0  0  0  0
 40 43  1  0  0  0  0
 41 50  1  0  0  0  0
 42 65  1  0  0  0  0
 43 45  1  0  0  0  0
 44 46  1  0  0  0  0
 44 47  1  0  0  0  0
 45 49  1  0  0  0  0
 46 51  1  0  0  0  0
 47 66  1  0  0  0  0
 48 51  1  0  0  0  0
 48 66  1  0  0  0  0
 49 71  1  0  0  0  0
 50 65  1  0  0  0  0
 51 64  1  0  0  0  0
 53 61  1  0  0  0  0
 54 62  1  0  0  0  0
 55 62  1  0  0  0  0
 56 62  1  0  0  0  0
 57 73  1  0  0  0  0
 58 59  1  0  0  0  0
 59 81  1  0  0  0  0
 60 62  1  0  0  0  0
 60 72  1  0  0  0  0
 61 73  1  0  0  0  0
 63 64  1  0  0  0  0
M  CHG  1  73   1
M  ISO  4  39 100  59 101  70 100  81 101
M  END
> <Batch ID>
0067

> <Smiles>
CNC(C)C(=O)NC(C(=O)N1Cc2cc([101O:1][101CH2:1]CC(=O)Nc3cc(C)cc([100NH:0][100C:0](=O)N4CCCC(n5nc(-c6ccc(Oc7ccc(F)cc7F)cc6)c(C(N)=O)c5N)C4)c3)ccc2CC1C(=O)NC1CCCc2ccccc21)C(C)(C)C

> <Shape>
0.248

> <Color>
0.086

> <Negative vol penalty>
0.000

$$$$

  -OEChem-04042323243D

 83 91  0     1  0  0  0  0  0999 V2000
  -32.5874  -30.5168   16.8983 C   0  0  0  0  0  0  0  0  0  0  0  0
  -32.2010  -29.6576   17.9220 C   0  0  0  0  0  0  0  0  0  0  0  0
  -31.9064  -19.0327   21.3851 C   0  0  0  0  0  0  0  0  0  0  0  0
  -23.2975   -9.6561   21.5401 C   0  0  0  0  0  0  0  0  0  0  0  0
  -23.9016  -10.7731   23.5954 C   0  0  0  0  0  0  0  0  0  0  0  0
  -31.9695  -31.7591   16.7620 C   0  0  0  0  0  0  0  0  0  0  0  0
  -31.1971  -30.0407   18.8106 C   0  0  0  0  0  0  0  0  0  0  0  0
  -27.8494  -26.3401   19.6726 C   0  0  0  0  0  0  0  0  0  0  0  0
  -31.0023  -20.0604   21.6534 C   0  0  0  0  0  0  0  0  0  0  0  0
  -31.4412  -17.7859   20.9670 C   0  0  0  0  0  0  0  0  0  0  0  0
  -22.6479   -8.6617   22.2714 C   0  0  0  0  0  0  0  0  0  0  0  0
  -23.2520   -9.7787   24.3268 C   0  0  0  0  0  0  0  0  0  0  0  0
  -28.2315  -25.3280   20.5520 C   0  0  0  0  0  0  0  0  0  0  0  0
  -23.5025   -5.9111   24.0401 C   0  0  0  0  0  0  0  0  0  0  0  0
  -23.7250   -4.5850   23.6692 C   0  0  0  0  0  0  0  0  0  0  0  0
  -26.9601  -26.3833   22.3096 C   0  0  0  0  0  0  0  0  0  0  0  0
  -21.3635   -4.3087   23.2401 C   0  0  0  0  0  0  0  0  0  0  0  0
  -23.9244  -10.7118   22.2021 C   0  0  0  0  0  0  0  0  0  0  0  0
  -24.0398  -12.9369   20.9599 C   0  0  0  0  0  0  0  0  0  0  0  0
  -30.9508  -32.1537   17.6435 C   0  0  0  0  0  0  0  0  0  0  0  0
  -27.0272  -27.3891   20.1087 C   0  0  0  0  0  0  0  0  0  0  0  0
  -30.5658  -31.2901   18.6868 C   0  0  0  0  0  0  0  0  0  0  0  0
  -26.5669  -27.4062   21.4331 C   0  0  0  0  0  0  0  0  0  0  0  0
  -29.1676  -18.5944   21.0856 C   0  0  0  0  0  0  0  0  0  0  0  0
  -29.6329  -19.8412   21.5037 C   0  0  0  0  0  0  0  0  0  0  0  0
  -30.0719  -17.5668   20.8173 C   0  0  0  0  0  0  0  0  0  0  0  0
  -22.6252   -8.7230   23.6647 C   0  0  0  0  0  0  0  0  0  0  0  0
  -27.7892  -25.3510   21.8715 C   0  0  0  0  0  0  0  0  0  0  0  0
  -22.2104   -6.4360   24.0110 C   0  0  0  0  0  0  0  0  0  0  0  0
  -22.6555   -3.7838   23.2692 C   0  0  0  0  0  0  0  0  0  0  0  0
  -21.1410   -5.6348   23.6109 C   0  0  0  0  0  0  0  0  0  0  0  0
  -24.5960  -11.7390   21.4472 C   0  0  0  0  0  0  0  0  0  0  0  0
  -25.0799  -13.5613   20.3158 C   0  0  0  0  0  0  0  0  0  0  0  0
  -22.7026  -13.4403   21.0788 C   0  0  0  0  0  0  0  0  0  0  0  0
  -27.3508  -30.5422   20.3472 C   0  0  0  0  0  0  0  0  0  0  0  0
  -24.2150  -30.4105   21.1670 C   0  0  0  0  0  0  0  0  0  0  0  0
  -21.6235  -28.5802   22.4242 C   0  0  0  0  0  0  0  0  0  0  0  0
  -29.0441  -22.1884   22.1987 C   0  0  0  0  0  0  0  0  0  0  0  0
  -30.4037  -15.1771   20.0922 C   0  0  0  0  0  0  0  0  0  0  0  0
  -30.3449  -33.5258   17.4852 C   0  0  0  0  0  0  0  0  0  0  0  0
  -26.6022  -28.4589   19.1407 C   0  0  0  0  0  0  0  0  0  0  0  0
  -25.6662  -28.4991   21.9455 C   0  0  0  0  0  0  0  0  0  0  0  0
  -29.0299  -33.7018   18.2402 C   0  0  0  0  0  0  0  0  0  0  0  0
  -29.6733  -11.8513   19.0516 C   0  0  0  0  0  0  0  0  0  0  0  0
  -29.1538  -33.1615   19.6613 C   0  0  0  0  0  0  0  0  0  0  0  0
  -28.2415  -11.6242   19.5420 C   0  0  0  0  0  0  0  0  0  0  0  0
  -30.4829  -12.6940   20.0356 C   0  0  0  0  0  0  0  0  0  0  0  0
  -28.4310  -13.7421   20.9077 C   0  0  0  0  0  0  0  0  0  0  0  0
  -29.4635  -31.6596   19.6555 C   0  0  1  0  0  0  0  0  0  0  0  0
  -26.1814  -29.7541   19.8284 C   0  0  1  0  0  0  0  0  0  0  0  0
  -27.5575  -12.9529   19.9189 C   0  0  2  0  0  0  0  0  0  0  0  0
  -27.6974  -18.3588   20.9257 C   0  0  0  0  0  0  0  0  0  0  0  0
  -19.1896  -28.7555   23.0096 C   0  0  0  0  0  0  0  0  0  0  0  0
  -26.8944  -22.4644   23.4879 C   0  0  0  0  0  0  0  0  0  0  0  0
  -24.9356  -31.9807   23.6821 C   0  0  0  0  0  0  0  0  0  0  0  0
  -22.7275  -31.3071   24.6510 C   0  0  0  0  0  0  0  0  0  0  0  0
  -22.8074  -32.6954   22.5800 C   0  0  0  0  0  0  0  0  0  0  0  0
  -20.8865  -26.4656   20.4891 C   0  0  0  0  0  0  0  0  0  0  0  0
  -23.4541  -30.2541   22.4614 C   0  0  1  0  0  0  0  0  0  0  0  0
  -20.1998  -28.3824   21.9358 C   0  0  2  0  0  0  0  0  0  0  0  0
  -27.7857  -23.0305   22.3924 C   0  0  1  0  0  0  0  0  0  1  0  0
  -23.4997  -31.5396   23.3348 C   0  0  0  0  0  0  0  0  0  0  0  0
  -25.8890  -11.6080   21.1389 N   0  0  0  0  0  0  0  0  0  0  0  0
  -26.1539  -12.7316   20.4509 N   0  0  0  0  0  0  0  0  0  0  0  0
  -25.2834  -29.5260   20.9623 N   0  0  0  0  0  0  0  0  0  0  0  0
  -29.7753  -13.9389   20.3428 N   0  0  0  0  0  0  0  0  0  0  0  0
  -25.1714  -14.7336   19.6526 N   0  0  0  0  0  0  0  0  0  0  0  0
  -21.7586  -12.6716   21.7732 N   0  0  0  0  0  0  0  0  0  0  0  0
  -28.7337  -20.8978   21.7828 N   0  0  0  0  0  0  0  0  0  0  0  0
  -29.6218  -16.2919   20.3932 N   0  0  0  0  0  0  0  0  0  0  0  0
  -28.2657  -30.8977   19.3745 N   0  0  0  0  0  0  0  0  0  0  0  0
  -22.1077  -29.8284   22.0945 N   0  0  0  0  0  0  0  0  0  0  0  0
  -19.9761  -26.9593   21.5542 N   0  3  0  0  0  0  0  0  0  0  0  0
  -22.3510  -14.5316   20.5699 O   0  0  0  0  0  0  0  0  0  0  0  0
  -27.4173  -30.8093   21.5413 O   0  0  0  0  0  0  0  0  0  0  0  0
  -23.8696  -31.2807   20.3638 O   0  0  0  0  0  0  0  0  0  0  0  0
  -22.2427  -27.7153   23.0400 O   0  0  0  0  0  0  0  0  0  0  0  0
  -30.1613  -22.6608   22.3881 O   0  0  0  0  0  0  0  0  0  0  0  0
  -31.5407  -15.2436   19.6181 O   0  0  0  0  0  0  0  0  0  0  0  0
  -21.9913   -7.7530   24.3787 O   0  0  0  0  0  0  0  0  0  0  0  0
  -28.1612  -24.3647   22.7321 O   0  0  0  0  0  0  0  0  0  1  0  0
  -22.8696   -2.5108   22.9116 F   0  0  0  0  0  0  0  0  0  0  0  0
  -19.8977   -6.1339   23.5798 F   0  0  0  0  0  0  0  0  0  0  0  0
  1  2  1  0  0  0  0
  1  6  2  0  0  0  0
  2  7  2  0  0  0  0
  3  9  2  0  0  0  0
  3 10  1  0  0  0  0
  4 11  2  0  0  0  0
  4 18  1  0  0  0  0
  5 12  1  0  0  0  0
  5 18  2  0  0  0  0
  6 20  1  0  0  0  0
  7 22  1  0  0  0  0
  8 13  2  0  0  0  0
  8 21  1  0  0  0  0
  9 25  1  0  0  0  0
 10 26  2  0  0  0  0
 11 27  1  0  0  0  0
 12 27  2  0  0  0  0
 13 28  1  0  0  0  0
 14 15  2  0  0  0  0
 14 29  1  0  0  0  0
 15 30  1  0  0  0  0
 16 23  1  0  0  0  0
 16 28  2  0  0  0  0
 17 30  2  0  0  0  0
 17 31  1  0  0  0  0
 18 32  1  0  0  0  0
 19 32  1  0  0  0  0
 19 33  2  0  0  0  0
 19 34  1  0  0  0  0
 20 22  2  0  0  0  0
 20 40  1  0  0  0  0
 21 23  2  0  0  0  0
 21 41  1  0  0  0  0
 22 49  1  0  0  0  0
 23 42  1  0  0  0  0
 24 25  2  0  0  0  0
 24 26  1  0  0  0  0
 24 52  1  0  0  0  0
 25 69  1  0  0  0  0
 26 70  1  0  0  0  0
 27 80  1  0  0  0  0
 28 81  1  0  0  0  0
 29 31  2  0  0  0  0
 29 80  1  0  0  0  0
 30 82  1  0  0  0  0
 31 83  1  0  0  0  0
 32 63  2  0  0  0  0
 33 64  1  0  0  0  0
 33 67  1  0  0  0  0
 34 68  1  0  0  0  0
 34 74  2  0  0  0  0
 35 50  1  0  0  0  0
 35 71  1  0  0  0  0
 35 75  2  0  0  0  0
 36 59  1  0  0  0  0
 36 65  1  0  0  0  0
 36 76  2  0  0  0  0
 37 60  1  0  0  0  0
 37 72  1  0  0  0  0
 37 77  2  0  0  0  0
 38 61  1  0  0  0  0
 38 69  1  0  0  0  0
 38 78  2  0  0  0  0
 39 66  1  0  0  0  0
 39 70  1  0  0  0  0
 39 79  2  0  0  0  0
 40 43  1  0  0  0  0
 41 50  1  0  0  0  0
 42 65  1  0  0  0  0
 43 45  1  0  0  0  0
 44 46  1  0  0  0  0
 44 47  1  0  0  0  0
 45 49  1  0  0  0  0
 46 51  1  0  0  0  0
 47 66  1  0  0  0  0
 48 51  1  0  0  0  0
 48 66  1  0  0  0  0
 49 71  1  0  0  0  0
 50 65  1  0  0  0  0
 51 64  1  0  0  0  0
 53 60  1  0  0  0  0
 54 61  1  0  0  0  0
 55 62  1  0  0  0  0
 56 62  1  0  0  0  0
 57 62  1  0  0  0  0
 58 73  1  0  0  0  0
 59 62  1  0  0  0  0
 59 72  1  0  0  0  0
 60 73  1  0  0  0  0
 61 81  1  0  0  0  0
 63 64  1  0  0  0  0
M  CHG  1  73   1
M  ISO  4  39 100  61 101  70 100  81 101
M  END
> <Batch ID>
0067

> <Smiles>
CNC(C)C(=O)NC(C(=O)N1Cc2cc([101O:1][101CH:1](C)C(=O)Nc3cccc([100NH:0][100C:0](=O)N4CCCC(n5nc(-c6ccc(Oc7ccc(F)cc7F)cc6)c(C(N)=O)c5N)C4)c3C)ccc2CC1C(=O)NC1CCCc2ccccc21)C(C)(C)C

> <Shape>
0.304

> <Color>
0.158

> <Negative vol penalty>
0.000

$$$$

  -OEChem-04042323243D

 82 90  0     1  0  0  0  0  0999 V2000
  -17.1062  -30.2538   22.5694 C   0  0  0  0  0  0  0  0  0  0  0  0
  -18.3735  -29.7273   22.3407 C   0  0  0  0  0  0  0  0  0  0  0  0
  -32.6474  -18.2978   21.8081 C   0  0  0  0  0  0  0  0  0  0  0  0
  -23.0696   -9.9124   21.4599 C   0  0  0  0  0  0  0  0  0  0  0  0
  -23.8459  -10.7726   23.5800 C   0  0  0  0  0  0  0  0  0  0  0  0
  -16.4125  -29.9181   23.7312 C   0  0  0  0  0  0  0  0  0  0  0  0
  -18.9482  -28.8658   23.2744 C   0  0  0  0  0  0  0  0  0  0  0  0
  -22.6124  -24.0971   22.1167 C   0  0  0  0  0  0  0  0  0  0  0  0
  -31.8524  -19.3801   22.1850 C   0  0  0  0  0  0  0  0  0  0  0  0
  -32.0556  -17.1404   21.3021 C   0  0  0  0  0  0  0  0  0  0  0  0
  -22.3309   -8.9352   22.1269 C   0  0  0  0  0  0  0  0  0  0  0  0
  -23.1072   -9.7953   24.2470 C   0  0  0  0  0  0  0  0  0  0  0  0
  -23.9982  -23.9486   22.1527 C   0  0  0  0  0  0  0  0  0  0  0  0
  -22.9150   -5.9635   23.6276 C   0  0  0  0  0  0  0  0  0  0  0  0
  -22.9781   -4.6585   23.1392 C   0  0  0  0  0  0  0  0  0  0  0  0
  -23.8380  -23.0508   24.3859 C   0  0  0  0  0  0  0  0  0  0  0  0
  -29.8737  -18.1477   21.5500 C   0  0  0  0  0  0  0  0  0  0  0  0
  -20.5906   -4.6814   22.7695 C   0  0  0  0  0  0  0  0  0  0  0  0
  -23.8272  -10.8311   22.1865 C   0  0  0  0  0  0  0  0  0  0  0  0
  -24.1608  -13.1302   21.1325 C   0  0  0  0  0  0  0  0  0  0  0  0
  -16.9750  -29.0444   24.6750 C   0  0  0  0  0  0  0  0  0  0  0  0
  -21.8287  -23.7331   23.2211 C   0  0  0  0  0  0  0  0  0  0  0  0
  -18.2619  -28.5192   24.4506 C   0  0  0  0  0  0  0  0  0  0  0  0
  -22.4422  -23.1933   24.3605 C   0  0  0  0  0  0  0  0  0  0  0  0
  -30.4655  -19.3051   22.0560 C   0  0  0  0  0  0  0  0  0  0  0  0
  -30.6687  -17.0654   21.1731 C   0  0  0  0  0  0  0  0  0  0  0  0
  -22.3497   -8.8766   23.5204 C   0  0  0  0  0  0  0  0  0  0  0  0
  -24.6115  -23.4281   23.2885 C   0  0  0  0  0  0  0  0  0  0  0  0
  -21.6897   -6.6274   23.6871 C   0  0  0  0  0  0  0  0  0  0  0  0
  -21.8160   -4.0174   22.7101 C   0  0  0  0  0  0  0  0  0  0  0  0
  -20.5275   -5.9864   23.2580 C   0  0  0  0  0  0  0  0  0  0  0  0
  -24.5909  -11.8405   21.4981 C   0  0  0  0  0  0  0  0  0  0  0  0
  -25.2481  -13.6906   20.5080 C   0  0  0  0  0  0  0  0  0  0  0  0
  -27.8037  -21.8214   22.8732 C   0  0  0  0  0  0  0  0  0  0  0  0
  -26.4965  -22.1013   22.8922 C   0  0  0  0  0  0  0  0  0  1  0  0
  -22.8919  -13.7648   21.3392 C   0  0  0  0  0  0  0  0  0  0  0  0
  -28.2746  -20.4957   22.3764 C   0  0  0  0  0  0  0  0  0  0  0  0
  -19.8811  -25.2831   25.1981 C   0  0  0  0  0  0  0  0  0  0  0  0
  -19.2839  -22.3002   26.3242 C   0  0  0  0  0  0  0  0  0  0  0  0
  -20.3490  -19.0804   26.7059 C   0  0  0  0  0  0  0  0  0  0  0  0
  -30.7124  -14.7263   20.2387 C   0  0  0  0  0  0  0  0  0  0  0  0
  -16.2065  -28.7481   25.9385 C   0  0  0  0  0  0  0  0  0  0  0  0
  -20.3326  -23.8747   23.1564 C   0  0  0  0  0  0  0  0  0  0  0  0
  -21.6440  -22.7683   25.5650 C   0  0  0  0  0  0  0  0  0  0  0  0
  -16.7305  -27.5329   26.6993 C   0  0  0  0  0  0  0  0  0  0  0  0
  -29.5881  -11.6044   18.9477 C   0  0  0  0  0  0  0  0  0  0  0  0
  -18.2506  -27.5888   26.8128 C   0  0  0  0  0  0  0  0  0  0  0  0
  -28.1524  -11.4936   19.4661 C   0  0  0  0  0  0  0  0  0  0  0  0
  -30.5111  -12.2640   19.9708 C   0  0  0  0  0  0  0  0  0  0  0  0
  -28.6120  -13.4505   20.9978 C   0  0  0  0  0  0  0  0  0  0  0  0
  -18.9086  -27.5617   25.4280 C   0  0  1  0  0  0  0  0  0  0  0  0
  -19.6795  -23.9509   24.5330 C   0  0  1  0  0  0  0  0  0  0  0  0
  -27.6313  -12.8513   19.9767 C   0  0  2  0  0  0  0  0  0  0  0  0
  -19.6599  -16.8826   27.7020 C   0  0  0  0  0  0  0  0  0  0  0  0
  -19.9720  -23.3481   29.1060 C   0  0  0  0  0  0  0  0  0  0  0  0
  -20.1957  -20.9740   29.8688 C   0  0  0  0  0  0  0  0  0  0  0  0
  -18.0011  -21.8106   29.0284 C   0  0  0  0  0  0  0  0  0  0  0  0
  -20.3871  -17.7405   24.0673 C   0  0  0  0  0  0  0  0  0  0  0  0
  -19.8877  -21.4196   27.3914 C   0  0  1  0  0  0  0  0  0  0  0  0
  -19.6552  -17.7536   26.4554 C   0  0  2  0  0  0  0  0  0  0  0  0
  -19.5296  -21.8978   28.8269 C   0  0  0  0  0  0  0  0  0  0  0  0
  -25.8530  -11.5959   21.1357 N   0  0  0  0  0  0  0  0  0  0  0  0
  -26.2253  -12.7395   20.5360 N   0  0  0  0  0  0  0  0  0  0  0  0
  -20.1850  -22.9323   25.4556 N   0  0  0  0  0  0  0  0  0  0  0  0
  -29.9554  -13.5474   20.4057 N   0  0  0  0  0  0  0  0  0  0  0  0
  -25.4542  -14.8992   19.9430 N   0  0  0  0  0  0  0  0  0  0  0  0
  -21.8850  -13.0465   21.9984 N   0  0  0  0  0  0  0  0  0  0  0  0
  -29.6588  -20.4049   22.4385 N   0  0  0  0  0  0  0  0  0  0  0  0
  -30.0682  -15.8895   20.6590 N   0  0  0  0  0  0  0  0  0  0  0  0
  -18.9084  -26.2164   24.8945 N   0  0  0  0  0  0  0  0  0  0  0  0
  -19.4565  -20.0588   27.0900 N   0  0  0  0  0  0  0  0  0  0  0  0
  -20.3395  -17.0100   25.3600 N   0  3  0  0  0  0  0  0  0  0  0  0
  -22.6524  -14.9283   20.9362 O   0  0  0  0  0  0  0  0  0  0  0  0
  -27.4831  -19.6478   21.9811 O   0  0  0  0  0  0  0  0  0  0  0  0
  -20.8468  -25.4513   25.9335 O   0  0  0  0  0  0  0  0  0  0  0  0
  -18.0577  -22.4171   26.2590 O   0  0  0  0  0  0  0  0  0  0  0  0
  -21.5618  -19.2327   26.5775 O   0  0  0  0  0  0  0  0  0  0  0  0
  -31.8376  -14.7089   19.7332 O   0  0  0  0  0  0  0  0  0  0  0  0
  -21.6288   -7.9233   24.1716 O   0  0  0  0  0  0  0  0  0  0  0  0
  -25.9640  -23.2826   23.3264 O   0  0  0  0  0  0  0  0  0  1  0  0
  -21.8769   -2.7648   22.2396 F   0  0  0  0  0  0  0  0  0  0  0  0
  -19.3477   -6.6195   23.3116 F   0  0  0  0  0  0  0  0  0  0  0  0
  1  2  1  0  0  0  0
  1  6  2  0  0  0  0
  2  7  2  0  0  0  0
  3  9  2  0  0  0  0
  3 10  1  0  0  0  0
  4 11  2  0  0  0  0
  4 19  1  0  0  0  0
  5 12  1  0  0  0  0
  5 19  2  0  0  0  0
  6 21  1  0  0  0  0
  7 23  1  0  0  0  0
  8 13  2  0  0  0  0
  8 22  1  0  0  0  0
  9 25  1  0  0  0  0
 10 26  2  0  0  0  0
 11 27  1  0  0  0  0
 12 27  2  0  0  0  0
 13 28  1  0  0  0  0
 14 15  2  0  0  0  0
 14 29  1  0  0  0  0
 15 30  1  0  0  0  0
 16 24  1  0  0  0  0
 16 28  2  0  0  0  0
 17 25  2  0  0  0  0
 17 26  1  0  0  0  0
 18 30  2  0  0  0  0
 18 31  1  0  0  0  0
 19 32  1  0  0  0  0
 20 32  1  0  0  0  0
 20 33  2  0  0  0  0
 20 36  1  0  0  0  0
 21 23  2  0  0  0  0
 21 42  1  0  0  0  0
 22 24  2  0  0  0  0
 22 43  1  0  0  0  0
 23 51  1  0  0  0  0
 24 44  1  0  0  0  0
 25 68  1  0  0  0  0
 26 69  1  0  0  0  0
 27 79  1  0  0  0  0
 28 80  1  0  0  0  0
 29 31  2  0  0  0  0
 29 79  1  0  0  0  0
 30 81  1  0  0  0  0
 31 82  1  0  0  0  0
 32 62  2  0  0  0  0
 33 63  1  0  0  0  0
 33 66  1  0  0  0  0
 34 35  2  0  0  0  0
 34 37  1  0  0  0  0
 35 80  1  0  0  0  0
 36 67  1  0  0  0  0
 36 73  2  0  0  0  0
 37 68  1  0  0  0  0
 37 74  2  0  0  0  0
 38 52  1  0  0  0  0
 38 70  1  0  0  0  0
 38 75  2  0  0  0  0
 39 59  1  0  0  0  0
 39 64  1  0  0  0  0
 39 76  2  0  0  0  0
 40 60  1  0  0  0  0
 40 71  1  0  0  0  0
 40 77  2  0  0  0  0
 41 65  1  0  0  0  0
 41 69  1  0  0  0  0
 41 78  2  0  0  0  0
 42 45  1  0  0  0  0
 43 52  1  0  0  0  0
 44 64  1  0  0  0  0
 45 47  1  0  0  0  0
 46 48  1  0  0  0  0
 46 49  1  0  0  0  0
 47 51  1  0  0  0  0
 48 53  1  0  0  0  0
 49 65  1  0  0  0  0
 50 53  1  0  0  0  0
 50 65  1  0  0  0  0
 51 70  1  0  0  0  0
 52 64  1  0  0  0  0
 53 63  1  0  0  0  0
 54 60  1  0  0  0  0
 55 61  1  0  0  0  0
 56 61  1  0  0  0  0
 57 61  1  0  0  0  0
 58 72  1  0  0  0  0
 59 61  1  0  0  0  0
 59 71  1  0  0  0  0
 60 72  1  0  0  0  0
 62 63  1  0  0  0  0
M  CHG  1  72   1
M  ISO  4  35 101  41 100  69 100  80 101
M  END
> <Batch ID>
0067

> <Smiles>
CNC(C)C(=O)NC(C(=O)N1Cc2cc([101O:1][101CH:1]=CC(=O)Nc3cccc([100NH:0][100C:0](=O)N4CCCC(n5nc(-c6ccc(Oc7ccc(F)cc7F)cc6)c(C(N)=O)c5N)C4)c3)ccc2CC1C(=O)NC1CCCc2ccccc21)C(C)(C)C

> <Shape>
0.193

> <Color>
0.175

> <Negative vol penalty>
0.000

$$$$

  -OEChem-04042323243D

 93103  0     1  0  0  0  0  0999 V2000
  -26.1220  -34.4268   26.8703 C   0  0  0  0  0  0  0  0  0  0  0  0
  -26.7590  -33.7219   25.8540 C   0  0  0  0  0  0  0  0  0  0  0  0
  -25.9927  -11.7156   21.4419 C   0  0  0  0  0  0  0  0  0  0  0  0
  -25.7223  -13.7433   20.1565 C   0  0  0  0  0  0  0  0  0  0  0  0
  -25.0931  -33.8263   27.5946 C   0  0  0  0  0  0  0  0  0  0  0  0
  -26.3681  -32.4156   25.5621 C   0  0  0  0  0  0  0  0  0  0  0  0
  -26.2683  -29.7469   20.0509 C   0  0  0  0  0  0  0  0  0  0  0  0
  -29.9769  -22.8541   20.3753 C   0  0  0  0  0  0  0  0  0  0  0  0
  -30.1485  -21.6919   21.1273 C   0  0  0  0  0  0  0  0  0  0  0  0
  -24.6843  -11.3446   21.1320 C   0  0  0  0  0  0  0  0  0  0  0  0
  -24.4139  -13.3723   19.8465 C   0  0  0  0  0  0  0  0  0  0  0  0
  -27.1604  -28.8905   19.4072 C   0  0  0  0  0  0  0  0  0  0  0  0
  -21.5632  -12.1197   22.1722 C   0  0  0  0  0  0  0  0  0  0  0  0
  -20.7669  -11.6295   23.2072 C   0  0  0  0  0  0  0  0  0  0  0  0
  -25.8651  -26.9948   20.1473 C   0  0  0  0  0  0  0  0  0  0  0  0
  -29.8243  -21.5284   18.3613 C   0  0  0  0  0  0  0  0  0  0  0  0
  -20.4980   -9.5462   22.0135 C   0  0  0  0  0  0  0  0  0  0  0  0
  -26.5117  -12.9150   20.9542 C   0  0  0  0  0  0  0  0  0  0  0  0
  -29.0424  -12.5940   20.9683 C   0  0  0  0  0  0  0  0  0  0  0  0
  -24.6829  -32.5153   27.3050 C   0  0  0  0  0  0  0  0  0  0  0  0
  -25.1721  -29.2323   20.7580 C   0  0  0  0  0  0  0  0  0  0  0  0
  -25.3336  -31.7965   26.2842 C   0  0  0  0  0  0  0  0  0  0  0  0
  -24.9592  -27.8469   20.7970 C   0  0  0  0  0  0  0  0  0  0  0  0
  -29.8147  -22.7723   18.9923 C   0  0  0  0  0  0  0  0  0  0  0  0
  -29.9960  -20.3662   19.1133 C   0  0  0  0  0  0  0  0  0  0  0  0
  -30.1581  -20.4480   20.4963 C   0  0  0  0  0  0  0  0  0  0  0  0
  -23.8949  -12.1729   20.3343 C   0  0  0  0  0  0  0  0  0  0  0  0
  -26.9605  -27.5140   19.4577 C   0  0  0  0  0  0  0  0  0  0  0  0
  -21.8269  -11.3232   21.0578 C   0  0  0  0  0  0  0  0  0  0  0  0
  -20.2344  -10.3427   23.1279 C   0  0  0  0  0  0  0  0  0  0  0  0
  -21.2943  -10.0365   20.9785 C   0  0  0  0  0  0  0  0  0  0  0  0
  -27.8630  -13.2991   21.2745 C   0  0  0  0  0  0  0  0  0  0  0  0
  -30.0507  -13.3714   21.4835 C   0  0  0  0  0  0  0  0  0  0  0  0
  -28.9605  -25.3600   16.5659 C   0  0  0  0  0  0  0  0  0  0  0  0
  -30.1920  -25.1848   18.5959 C   0  0  0  0  0  0  0  0  0  0  0  0
  -29.2114  -11.3479   20.2796 C   0  0  0  0  0  0  0  0  0  0  0  0
  -24.2261  -29.3037   23.7917 C   0  0  0  0  0  0  0  0  0  0  0  0
  -21.5835  -27.8523   22.5950 C   0  0  0  0  0  0  0  0  0  0  0  0
  -20.1870  -25.9572   20.1241 C   0  0  0  0  0  0  0  0  0  0  0  0
  -30.5058  -19.2114   22.6634 C   0  0  0  0  0  0  0  0  0  0  0  0
  -23.5979  -31.8916   28.1467 C   0  0  0  0  0  0  0  0  0  0  0  0
  -24.2041  -30.1709   21.4246 C   0  0  0  0  0  0  0  0  0  0  0  0
  -23.7864  -27.2451   21.5256 C   0  0  0  0  0  0  0  0  0  0  0  0
  -28.8653  -23.9311   17.0054 C   0  0  0  0  0  0  0  0  0  0  0  0
  -22.9912  -30.6360   27.5256 C   0  0  0  0  0  0  0  0  0  0  0  0
  -28.9225  -16.9380   18.1499 C   0  0  0  0  0  0  0  0  0  0  0  0
  -30.9322  -16.5333   24.9706 C   0  0  0  0  0  0  0  0  0  0  0  0
  -24.0897  -29.7080   27.0166 C   0  0  0  0  0  0  0  0  0  0  0  0
  -29.9062  -16.6238   17.0284 C   0  0  0  0  0  0  0  0  0  0  0  0
  -30.3063  -15.3345   24.2542 C   0  0  0  0  0  0  0  0  0  0  0  0
  -28.7125  -18.4420   18.3021 C   0  0  0  0  0  0  0  0  0  0  0  0
  -30.1619  -17.8236   24.6959 C   0  0  0  0  0  0  0  0  0  0  0  0
  -31.0137  -18.8600   17.4299 C   0  0  0  0  0  0  0  0  0  0  0  0
  -29.3226  -16.9301   22.5590 C   0  0  0  0  0  0  0  0  0  0  0  0
  -24.9214  -30.3863   25.9214 C   0  0  1  0  0  0  0  0  0  0  0  0
  -23.4096  -29.5113   22.5476 C   0  0  1  0  0  0  0  0  0  0  0  0
  -31.2348  -17.3479   17.2689 C   0  0  2  0  0  0  0  0  0  0  0  0
  -30.1016  -15.6189   22.7532 C   0  0  2  0  0  0  0  0  0  0  0  0
  -29.7782  -26.1838   17.5278 C   0  0  1  0  0  0  0  0  0  0  0  0
  -32.2178  -17.0638   16.1350 C   0  0  0  0  0  0  0  0  0  0  0  0
  -31.0132  -26.7423   16.8299 C   0  0  0  0  0  0  0  0  0  0  0  0
  -18.0156  -24.9012   19.4405 C   0  0  0  0  0  0  0  0  0  0  0  0
  -21.9939  -25.6636   24.6810 C   0  0  0  0  0  0  0  0  0  0  0  0
  -20.4296  -24.2155   23.3678 C   0  0  0  0  0  0  0  0  0  0  0  0
  -19.6139  -26.3578   24.3517 C   0  0  0  0  0  0  0  0  0  0  0  0
  -20.0733  -27.5353   17.6231 C   0  0  0  0  0  0  0  0  0  0  0  0
  -28.9256  -27.2747   18.1397 C   0  0  0  0  0  0  0  0  0  1  0  0
  -21.1651  -26.4216   22.3562 C   0  0  1  0  0  0  0  0  0  0  0  0
  -18.9074  -26.1276   19.3253 C   0  0  2  0  0  0  0  0  0  0  0  0
  -20.8239  -25.6755   23.6770 C   0  0  0  0  0  0  0  0  0  0  0  0
  -28.0987  -14.4368   21.9333 N   0  0  0  0  0  0  0  0  0  0  0  0
  -29.4378  -14.4525   22.0454 N   0  0  0  0  0  0  0  0  0  0  0  0
  -29.6432  -23.9330   18.2418 N   0  0  0  0  0  0  0  0  0  0  0  0
  -30.0021  -19.1278   18.4598 N   0  0  1  0  0  0  0  0  0  0  0  0
  -22.8715  -28.2038   22.1669 N   0  0  0  0  0  0  0  0  0  0  0  0
  -30.0103  -18.0296   23.2538 N   0  0  0  0  0  0  0  0  0  0  0  0
  -31.3929  -13.2288   21.5062 N   0  0  0  0  0  0  0  0  0  0  0  0
  -28.0695  -10.6805   19.8159 N   0  0  0  0  0  0  0  0  0  0  0  0
  -30.3337  -19.2815   21.2814 N   0  0  0  0  0  0  0  0  0  0  0  0
  -24.2056  -30.3756   24.6636 N   0  0  0  0  0  0  0  0  0  0  0  0
  -20.0665  -26.4721   21.3975 N   0  0  0  0  0  0  0  0  0  0  0  0
  -19.2212  -26.3470   17.8851 N   0  3  0  0  0  0  0  0  0  0  0  0
  -28.4346  -25.7923   15.5480 O   0  0  0  0  0  0  0  0  0  0  0  0
  -30.8767  -25.4454   19.5760 O   0  0  0  0  0  0  0  0  0  0  0  0
  -30.3404  -10.8331   20.0957 O   0  0  0  0  0  0  0  0  0  0  0  0
  -24.8288  -28.2485   23.9497 O   0  0  0  0  0  0  0  0  0  0  0  0
  -20.7938  -28.6312   23.1349 O   0  0  0  0  0  0  0  0  0  0  0  0
  -21.1915  -25.4176   19.6657 O   0  0  0  0  0  0  0  0  0  0  0  0
  -31.0675  -20.0840   23.3306 O   0  0  0  0  0  0  0  0  0  0  0  0
  -22.6182  -11.8111   20.0314 O   0  0  0  0  0  0  0  0  0  0  0  0
  -27.8302  -26.6758   18.8308 O   0  0  0  0  0  0  0  0  0  1  0  0
  -19.4710   -9.8715   24.1226 F   0  0  0  0  0  0  0  0  0  0  0  0
  -21.5451   -9.2662   19.9110 F   0  0  0  0  0  0  0  0  0  0  0  0
  1  2  1  0  0  0  0
  1  5  2  0  0  0  0
  2  6  2  0  0  0  0
  3 10  2  0  0  0  0
  3 18  1  0  0  0  0
  4 11  1  0  0  0  0
  4 18  2  0  0  0  0
  5 20  1  0  0  0  0
  6 22  1  0  0  0  0
  7 12  2  0  0  0  0
  7 21  1  0  0  0  0
  8  9  2  0  0  0  0
  8 24  1  0  0  0  0
  9 26  1  0  0  0  0
 10 27  1  0  0  0  0
 11 27  2  0  0  0  0
 12 28  1  0  0  0  0
 13 14  2  0  0  0  0
 13 29  1  0  0  0  0
 14 30  1  0  0  0  0
 15 23  1  0  0  0  0
 15 28  2  0  0  0  0
 16 24  2  0  0  0  0
 16 25  1  0  0  0  0
 17 30  2  0  0  0  0
 17 31  1  0  0  0  0
 18 32  1  0  0  0  0
 19 32  1  0  0  0  0
 19 33  2  0  0  0  0
 19 36  1  0  0  0  0
 20 22  2  0  0  0  0
 20 41  1  0  0  0  0
 21 23  2  0  0  0  0
 21 42  1  0  0  0  0
 22 55  1  0  0  0  0
 23 43  1  0  0  0  0
 24 73  1  0  0  0  0
 25 26  2  0  0  0  0
 25 74  1  0  0  0  0
 26 79  1  0  0  0  0
 27 90  1  0  0  0  0
 28 91  1  0  0  0  0
 29 31  2  0  0  0  0
 29 90  1  0  0  0  0
 30 92  1  0  0  0  0
 31 93  1  0  0  0  0
 32 71  2  0  0  0  0
 33 72  1  0  0  0  0
 33 77  1  0  0  0  0
 34 44  1  0  0  0  0
 34 59  1  0  0  0  0
 34 83  2  0  0  0  0
 35 59  1  0  0  0  0
 35 73  1  0  0  0  0
 35 84  2  0  0  0  0
 36 78  1  0  0  0  0
 36 85  2  0  0  0  0
 37 56  1  0  0  0  0
 37 80  1  0  0  0  0
 37 86  2  0  0  0  0
 38 68  1  0  0  0  0
 38 75  1  0  0  0  0
 38 87  2  0  0  0  0
 39 69  1  0  0  0  0
 39 81  1  0  0  0  0
 39 88  2  0  0  0  0
 40 76  1  0  0  0  0
 40 79  1  0  0  0  0
 40 89  2  0  0  0  0
 41 45  1  0  0  0  0
 42 56  1  0  0  0  0
 43 75  1  0  0  0  0
 44 73  1  0  0  0  0
 45 48  1  0  0  0  0
 46 49  1  0  0  0  0
 46 51  1  0  0  0  0
 47 50  1  0  0  0  0
 47 52  1  0  0  0  0
 48 55  1  0  0  0  0
 49 57  1  0  0  0  0
 50 58  1  0  0  0  0
 51 74  1  0  0  0  0
 52 76  1  0  0  0  0
 53 57  1  0  0  0  0
 53 74  1  0  0  0  0
 54 58  1  0  0  0  0
 54 76  1  0  0  0  0
 55 80  1  0  0  0  0
 56 75  1  0  0  0  0
 57 60  1  0  0  0  0
 58 72  1  0  0  0  0
 59 61  1  0  0  0  0
 59 67  1  0  0  0  0
 62 69  1  0  0  0  0
 63 70  1  0  0  0  0
 64 70  1  0  0  0  0
 65 70  1  0  0  0  0
 66 82  1  0  0  0  0
 67 91  1  0  0  0  0
 68 70  1  0  0  0  0
 68 81  1  0  0  0  0
 69 82  1  0  0  0  0
 71 72  1  0  0  0  0
M  CHG  1  82   1
M  ISO  4  40 100  67 101  79 100  91 101
M  END
> <Batch ID>
0067

> <Smiles>
CNC(C)C(=O)NC(C(=O)N1Cc2cc([101O:1][101CH2:1]C3(C)C(=O)CN(c4ccc([100NH:0][100C:0](=O)N5CCCC(n6nc(-c7ccc(Oc8ccc(F)cc8F)cc7)c(C(N)=O)c6N)C5)c(N5CCCC(C)C5)c4)C3=O)ccc2CC1C(=O)NC1CCCc2ccccc21)C(C)(C)C

> <Shape>
0.304

> <Color>
0.060

> <Negative vol penalty>
0.000

$$$$

  -OEChem-04042323243D

 89 98  0     1  0  0  0  0  0999 V2000
  -32.2584  -32.1418   24.5581 C   0  0  0  0  0  0  0  0  0  0  0  0
  -31.7843  -31.1194   23.7424 C   0  0  0  0  0  0  0  0  0  0  0  0
  -24.3482   -9.1509   21.4935 C   0  0  0  0  0  0  0  0  0  0  0  0
  -24.4904  -10.6417   23.3893 C   0  0  0  0  0  0  0  0  0  0  0  0
  -31.4475  -32.6598   25.5671 C   0  0  0  0  0  0  0  0  0  0  0  0
  -30.4993  -30.6137   23.9359 C   0  0  0  0  0  0  0  0  0  0  0  0
  -26.6551  -28.5806   19.6238 C   0  0  0  0  0  0  0  0  0  0  0  0
  -23.9735   -8.1085   22.3412 C   0  0  0  0  0  0  0  0  0  0  0  0
  -24.1156   -9.5994   24.2371 C   0  0  0  0  0  0  0  0  0  0  0  0
  -26.3461  -27.2985   19.1716 C   0  0  0  0  0  0  0  0  0  0  0  0
  -21.1750   -7.0764   23.9337 C   0  0  0  0  0  0  0  0  0  0  0  0
  -20.1085   -6.2697   23.5370 C   0  0  0  0  0  0  0  0  0  0  0  0
  -24.4349  -27.2468   20.6426 C   0  0  0  0  0  0  0  0  0  0  0  0
  -29.8109  -19.1937   19.9691 C   0  0  0  0  0  0  0  0  0  0  0  0
  -27.3964  -19.2690   19.9313 C   0  0  0  0  0  0  0  0  0  0  0  0
  -21.5591   -4.3379   23.5650 C   0  0  0  0  0  0  0  0  0  0  0  0
  -24.6067  -10.4175   22.0175 C   0  0  0  0  0  0  0  0  0  0  0  0
  -24.1443  -12.4068   20.4890 C   0  0  0  0  0  0  0  0  0  0  0  0
  -30.1484  -32.1668   25.7668 C   0  0  0  0  0  0  0  0  0  0  0  0
  -25.8612  -29.2021   20.5984 C   0  0  0  0  0  0  0  0  0  0  0  0
  -29.6708  -31.1246   24.9494 C   0  0  0  0  0  0  0  0  0  0  0  0
  -24.7345  -28.5378   21.1036 C   0  0  0  0  0  0  0  0  0  0  0  0
  -29.8498  -20.5649   20.2212 C   0  0  0  0  0  0  0  0  0  0  0  0
  -27.4353  -20.6404   20.1835 C   0  0  0  0  0  0  0  0  0  0  0  0
  -28.5842  -18.5457   19.8240 C   0  0  0  0  0  0  0  0  0  0  0  0
  -23.8572   -8.3328   23.7130 C   0  0  0  0  0  0  0  0  0  0  0  0
  -25.2376  -26.6302   19.6831 C   0  0  0  0  0  0  0  0  0  0  0  0
  -22.4337   -6.5139   24.1460 C   0  0  0  0  0  0  0  0  0  0  0  0
  -20.3005   -4.9005   23.3527 C   0  0  0  0  0  0  0  0  0  0  0  0
  -22.6257   -5.1446   23.9617 C   0  0  0  0  0  0  0  0  0  0  0  0
  -28.6620  -21.2883   20.3285 C   0  0  0  0  0  0  0  0  0  0  0  0
  -24.9943  -11.4945   21.1424 C   0  0  0  0  0  0  0  0  0  0  0  0
  -24.9942  -13.2236   19.7840 C   0  0  0  0  0  0  0  0  0  0  0  0
  -24.9804  -20.8913   20.7511 C   0  0  0  0  0  0  0  0  0  0  0  0
  -22.7143  -12.5070   20.5168 C   0  0  0  0  0  0  0  0  0  0  0  0
  -26.3593  -30.2700   23.5506 C   0  0  0  0  0  0  0  0  0  0  0  0
  -23.3259  -31.3777   23.2436 C   0  0  0  0  0  0  0  0  0  0  0  0
  -20.2865  -31.1148   21.7141 C   0  0  0  0  0  0  0  0  0  0  0  0
  -29.6302  -16.2875   19.4330 C   0  0  0  0  0  0  0  0  0  0  0  0
  -29.3261  -32.7258   26.9009 C   0  0  0  0  0  0  0  0  0  0  0  0
  -26.1926  -30.5961   21.0562 C   0  0  0  0  0  0  0  0  0  0  0  0
  -23.8384  -29.1693   22.1364 C   0  0  0  0  0  0  0  0  0  0  0  0
  -24.0199  -22.0581   20.7821 C   0  0  0  0  0  0  0  0  0  0  0  0
  -27.8402  -32.3917   26.7982 C   0  0  0  0  0  0  0  0  0  0  0  0
  -29.9480  -12.7915   18.8379 C   0  0  0  0  0  0  0  0  0  0  0  0
  -27.6466  -30.9152   26.4675 C   0  0  0  0  0  0  0  0  0  0  0  0
  -28.6176  -12.2175   19.3306 C   0  0  0  0  0  0  0  0  0  0  0  0
  -30.4247  -13.9496   19.7127 C   0  0  0  0  0  0  0  0  0  0  0  0
  -26.1476  -22.7971   19.9981 C   0  0  0  0  0  0  0  0  0  0  0  0
  -28.1130  -14.4502   20.4016 C   0  0  0  0  0  0  0  0  0  0  0  0
  -28.2735  -30.5667   25.1121 C   0  0  1  0  0  0  0  0  0  0  0  0
  -25.6108  -30.9290   22.4266 C   0  0  1  0  0  0  0  0  0  0  0  0
  -24.6595  -23.0721   19.8443 C   0  0  2  0  0  0  0  0  0  0  0  0
  -27.5599  -13.3235   19.5138 C   0  0  2  0  0  0  0  0  0  0  0  0
  -17.9936  -32.1346   21.6998 C   0  0  0  0  0  0  0  0  0  0  0  0
  -22.6643  -29.9206   25.8415 C   0  0  0  0  0  0  0  0  0  0  0  0
  -20.2369  -30.1656   25.2792 C   0  0  0  0  0  0  0  0  0  0  0  0
  -21.6447  -32.1945   25.6320 C   0  0  0  0  0  0  0  0  0  0  0  0
  -20.5405  -31.9305   18.8805 C   0  0  0  0  0  0  0  0  0  0  0  0
  -24.2805  -24.5073   20.1660 C   0  0  0  0  0  0  0  0  0  1  0  0
  -21.9513  -30.8234   23.5301 C   0  0  1  0  0  0  0  0  0  0  0  0
  -19.3832  -32.1585   21.0822 C   0  0  2  0  0  0  0  0  0  0  0  0
  -31.1636  -21.2542   20.3766 C   0  0  0  0  0  0  0  0  0  0  0  0
  -21.6421  -30.7631   25.0527 C   0  0  0  0  0  0  0  0  0  0  0  0
  -26.2852  -11.7108   20.8760 N   0  0  0  0  0  0  0  0  0  0  0  0
  -26.2526  -12.7684   20.0474 N   0  0  0  0  0  0  0  0  0  0  0  0
  -26.2188  -21.3782   20.2925 N   0  0  0  0  0  0  0  0  0  0  0  0
  -24.2077  -30.5311   22.5569 N   0  0  0  0  0  0  0  0  0  0  0  0
  -29.3725  -14.9606   19.8377 N   0  0  0  0  0  0  0  0  0  0  0  0
  -24.7804  -14.2796   18.9706 N   0  0  0  0  0  0  0  0  0  0  0  0
  -21.9951  -11.5877   21.2927 N   0  0  0  0  0  0  0  0  0  0  0  0
  -28.5448  -17.1526   19.5681 N   0  0  0  0  0  0  0  0  0  0  0  0
  -27.4208  -31.0127   24.0312 N   0  0  0  0  0  0  0  0  0  0  0  0
  -21.0149  -31.6368   22.7620 N   0  0  0  0  0  0  0  0  0  0  0  0
  -19.2512  -31.9115   19.6185 N   0  3  0  0  0  0  0  0  0  0  0  0
  -24.6663  -19.7730   21.1325 O   0  0  0  0  0  0  0  0  0  0  0  0
  -22.0917  -13.3755   19.8598 O   0  0  0  0  0  0  0  0  0  0  0  0
  -25.9994  -29.1699   23.9529 O   0  0  0  0  0  0  0  0  0  0  0  0
  -23.6047  -32.5224   23.6092 O   0  0  0  0  0  0  0  0  0  0  0  0
  -20.3378  -29.9518   21.3200 O   0  0  0  0  0  0  0  0  0  0  0  0
  -30.7241  -16.6248   18.9732 O   0  0  0  0  0  0  0  0  0  0  0  0
  -23.4913   -7.3159   24.5405 O   0  0  0  0  0  0  0  0  0  0  0  0
  -24.9341  -25.3784   19.2439 O   0  0  0  0  0  0  0  0  0  1  0  0
  -19.2758   -4.1257   22.9733 F   0  0  0  0  0  0  0  0  0  0  0  0
  -23.8323   -4.5983   24.1652 F   0  0  0  0  0  0  0  0  0  0  0  0
  -28.7020  -22.6073   20.5706 F   0  0  0  0  0  0  0  0  0  0  0  0
  -32.2377  -20.4204   20.2476 F   0  0  0  0  0  0  0  0  0  0  0  0
  -31.3714  -22.2469   19.4619 F   0  0  0  0  0  0  0  0  0  0  0  0
  -31.3044  -21.8463   21.5982 F   0  0  0  0  0  0  0  0  0  0  0  0
  1  2  1  0  0  0  0
  1  5  2  0  0  0  0
  2  6  2  0  0  0  0
  3  8  2  0  0  0  0
  3 17  1  0  0  0  0
  4  9  1  0  0  0  0
  4 17  2  0  0  0  0
  5 19  1  0  0  0  0
  6 21  1  0  0  0  0
  7 10  2  0  0  0  0
  7 20  1  0  0  0  0
  8 26  1  0  0  0  0
  9 26  2  0  0  0  0
 10 27  1  0  0  0  0
 11 12  2  0  0  0  0
 11 28  1  0  0  0  0
 12 29  1  0  0  0  0
 13 22  1  0  0  0  0
 13 27  2  0  0  0  0
 14 23  2  0  0  0  0
 14 25  1  0  0  0  0
 15 24  1  0  0  0  0
 15 25  2  0  0  0  0
 16 29  2  0  0  0  0
 16 30  1  0  0  0  0
 17 32  1  0  0  0  0
 18 32  1  0  0  0  0
 18 33  2  0  0  0  0
 18 35  1  0  0  0  0
 19 21  2  0  0  0  0
 19 40  1  0  0  0  0
 20 22  2  0  0  0  0
 20 41  1  0  0  0  0
 21 51  1  0  0  0  0
 22 42  1  0  0  0  0
 23 31  1  0  0  0  0
 23 63  1  0  0  0  0
 24 31  2  0  0  0  0
 24 67  1  0  0  0  0
 25 72  1  0  0  0  0
 26 82  1  0  0  0  0
 27 83  1  0  0  0  0
 28 30  2  0  0  0  0
 28 82  1  0  0  0  0
 29 84  1  0  0  0  0
 30 85  1  0  0  0  0
 31 86  1  0  0  0  0
 32 65  2  0  0  0  0
 33 66  1  0  0  0  0
 33 70  1  0  0  0  0
 34 43  1  0  0  0  0
 34 67  1  0  0  0  0
 34 76  2  0  0  0  0
 35 71  1  0  0  0  0
 35 77  2  0  0  0  0
 36 52  1  0  0  0  0
 36 73  1  0  0  0  0
 36 78  2  0  0  0  0
 37 61  1  0  0  0  0
 37 68  1  0  0  0  0
 37 79  2  0  0  0  0
 38 62  1  0  0  0  0
 38 74  1  0  0  0  0
 38 80  2  0  0  0  0
 39 69  1  0  0  0  0
 39 72  1  0  0  0  0
 39 81  2  0  0  0  0
 40 44  1  0  0  0  0
 41 52  1  0  0  0  0
 42 68  1  0  0  0  0
 43 53  1  0  0  0  0
 44 46  1  0  0  0  0
 45 47  1  0  0  0  0
 45 48  1  0  0  0  0
 46 51  1  0  0  0  0
 47 54  1  0  0  0  0
 48 69  1  0  0  0  0
 49 53  1  0  0  0  0
 49 67  1  0  0  0  0
 50 54  1  0  0  0  0
 50 69  1  0  0  0  0
 51 73  1  0  0  0  0
 52 68  1  0  0  0  0
 53 60  1  0  0  0  0
 54 66  1  0  0  0  0
 55 62  1  0  0  0  0
 56 64  1  0  0  0  0
 57 64  1  0  0  0  0
 58 64  1  0  0  0  0
 59 75  1  0  0  0  0
 60 83  1  0  0  0  0
 61 64  1  0  0  0  0
 61 74  1  0  0  0  0
 62 75  1  0  0  0  0
 63 87  1  0  0  0  0
 63 88  1  0  0  0  0
 63 89  1  0  0  0  0
 65 66  1  0  0  0  0
M  CHG  1  75   1
M  ISO  4  39 100  60 101  72 100  83 101
M  END
> <Batch ID>
0067

> <Smiles>
CNC(C)C(=O)NC(C(=O)N1Cc2cc([101O:1][101CH2:1]C3CC(=O)N(c4cc([100NH:0][100C:0](=O)N5CCCC(n6nc(-c7ccc(Oc8ccc(F)cc8F)cc7)c(C(N)=O)c6N)C5)cc(C(F)(F)F)c4F)C3)ccc2CC1C(=O)NC1CCCc2ccccc21)C(C)(C)C

> <Shape>
0.284

> <Color>
0.107

> <Negative vol penalty>
0.000

$$$$

  -OEChem-04042323243D

 84 92  0     1  0  0  0  0  0999 V2000
  -18.4624  -31.6083   22.9150 C   0  0  0  0  0  0  0  0  0  0  0  0
  -19.8508  -31.5295   22.8757 C   0  0  0  0  0  0  0  0  0  0  0  0
  -28.0163  -12.7029   22.4214 C   0  0  0  0  0  0  0  0  0  0  0  0
  -26.8064  -12.9721   20.3476 C   0  0  0  0  0  0  0  0  0  0  0  0
  -17.6968  -30.4459   22.8353 C   0  0  0  0  0  0  0  0  0  0  0  0
  -20.4745  -30.2879   22.7579 C   0  0  0  0  0  0  0  0  0  0  0  0
  -25.6620  -29.0445   19.7498 C   0  0  0  0  0  0  0  0  0  0  0  0
  -27.4890  -11.4193   22.5625 C   0  0  0  0  0  0  0  0  0  0  0  0
  -26.2790  -11.6884   20.4887 C   0  0  0  0  0  0  0  0  0  0  0  0
  -26.9809  -28.8949   20.1764 C   0  0  0  0  0  0  0  0  0  0  0  0
  -23.8158  -10.1869   22.2519 C   0  0  0  0  0  0  0  0  0  0  0  0
  -22.4530  -10.0158   22.0087 C   0  0  0  0  0  0  0  0  0  0  0  0
  -26.6741  -26.5039   20.2668 C   0  0  0  0  0  0  0  0  0  0  0  0
  -30.7157  -24.1265   17.8279 C   0  0  0  0  0  0  0  0  0  0  0  0
  -29.0750  -23.5313   19.4985 C   0  0  0  0  0  0  0  0  0  0  0  0
  -22.9650   -8.4490   20.2423 C   0  0  0  0  0  0  0  0  0  0  0  0
  -27.6749  -13.4793   21.3140 C   0  0  0  0  0  0  0  0  0  0  0  0
  -29.4138  -15.1674   20.5176 C   0  0  0  0  0  0  0  0  0  0  0  0
  -18.3111  -29.1902   22.7067 C   0  0  0  0  0  0  0  0  0  0  0  0
  -24.8346  -27.9238   19.5887 C   0  0  0  0  0  0  0  0  0  0  0  0
  -19.7164  -29.1074   22.6777 C   0  0  0  0  0  0  0  0  0  0  0  0
  -25.3459  -26.6417   19.8355 C   0  0  0  0  0  0  0  0  0  0  0  0
  -30.4780  -22.9223   17.1654 C   0  0  0  0  0  0  0  0  0  0  0  0
  -30.0143  -24.4310   18.9946 C   0  0  0  0  0  0  0  0  0  0  0  0
  -28.8372  -22.3271   18.8359 C   0  0  0  0  0  0  0  0  0  0  0  0
  -26.6204  -10.9121   21.5962 C   0  0  0  0  0  0  0  0  0  0  0  0
  -27.4862  -27.6247   20.4377 C   0  0  0  0  0  0  0  0  0  0  0  0
  -24.7532   -9.4891   21.4902 C   0  0  0  0  0  0  0  0  0  0  0  0
  -22.0276   -9.1468   21.0039 C   0  0  0  0  0  0  0  0  0  0  0  0
  -24.3278   -8.6201   20.4855 C   0  0  0  0  0  0  0  0  0  0  0  0
  -29.5387  -22.0226   17.6693 C   0  0  0  0  0  0  0  0  0  0  0  0
  -28.2189  -14.8056   21.1680 C   0  0  0  0  0  0  0  0  0  0  0  0
  -29.4799  -16.5324   20.6552 C   0  0  0  0  0  0  0  0  0  0  0  0
  -30.3778  -14.3434   19.8487 C   0  0  0  0  0  0  0  0  0  0  0  0
  -22.1246  -26.9269   20.9175 C   0  0  0  0  0  0  0  0  0  0  0  0
  -22.3294  -24.6034   18.6631 C   0  0  0  0  0  0  0  0  0  0  0  0
  -31.1494  -26.6577   19.3064 C   0  0  0  0  0  0  0  0  0  0  0  0
  -24.2961  -22.7771   16.5552 C   0  0  0  0  0  0  0  0  0  0  0  0
  -27.1023  -21.5648   20.4958 C   0  0  0  0  0  0  0  0  0  0  0  0
  -17.4429  -27.9575   22.6717 C   0  0  0  0  0  0  0  0  0  0  0  0
  -23.4223  -28.1000   19.1021 C   0  0  0  0  0  0  0  0  0  0  0  0
  -24.5048  -25.4049   19.6585 C   0  0  0  0  0  0  0  0  0  0  0  0
  -18.1719  -26.7131   22.1711 C   0  0  0  0  0  0  0  0  0  0  0  0
  -26.7358  -19.6926   23.5021 C   0  0  0  0  0  0  0  0  0  0  0  0
  -19.5312  -26.5812   22.8505 C   0  0  0  0  0  0  0  0  0  0  0  0
  -27.1873  -18.2841   23.1093 C   0  0  0  0  0  0  0  0  0  0  0  0
  -25.9772  -20.3816   22.3691 C   0  0  0  0  0  0  0  0  0  0  0  0
  -27.1297  -18.9999   20.6863 C   0  0  0  0  0  0  0  0  0  0  0  0
  -20.4291  -27.7811   22.5256 C   0  0  1  0  0  0  0  0  0  0  0  0
  -22.5144  -26.9294   19.4663 C   0  0  1  0  0  0  0  0  0  0  0  0
  -27.9544  -18.2904   21.7725 C   0  0  2  0  0  0  0  0  0  0  0  0
  -31.2295  -22.6006   15.9176 C   0  0  0  0  0  0  0  0  0  0  0  0
  -24.1835  -20.9257   14.8649 C   0  0  0  0  0  0  0  0  0  0  0  0
  -22.0499  -22.5659   20.9171 C   0  0  0  0  0  0  0  0  0  0  0  0
  -22.8843  -20.8101   19.3393 C   0  0  0  0  0  0  0  0  0  0  0  0
  -20.7570  -22.0166   18.8480 C   0  0  0  0  0  0  0  0  0  0  0  0
  -25.3120  -24.5290   14.3970 C   0  0  0  0  0  0  0  0  0  0  0  0
  -31.0936  -27.8056   20.3081 C   0  0  0  0  0  0  0  0  0  0  0  0
  -29.7176  -28.4468   20.4061 C   0  0  0  0  0  0  0  0  0  1  0  0
  -22.9588  -23.2330   18.5944 C   0  0  1  0  0  0  0  0  0  0  0  0
  -24.1460  -22.4300   15.0850 C   0  0  2  0  0  0  0  0  0  0  0  0
  -22.1780  -22.1797   19.4300 C   0  0  0  0  0  0  0  0  0  0  0  0
  -27.5725  -15.8559   21.6808 N   0  0  0  0  0  0  0  0  0  0  0  0
  -28.3641  -16.8911   21.3528 N   0  0  0  0  0  0  0  0  0  0  0  0
  -23.1283  -25.6297   19.1869 N   0  0  0  0  0  0  0  0  0  0  0  0
  -26.7667  -20.3530   21.1359 N   0  0  0  0  0  0  0  0  0  0  0  0
  -30.3829  -17.4488   20.2464 N   0  0  0  0  0  0  0  0  0  0  0  0
  -30.1555  -12.9605   19.7998 N   0  0  0  0  0  0  0  0  0  0  0  0
  -30.2554  -25.6529   19.6666 N   0  0  0  0  0  0  0  0  0  0  0  0
  -27.8828  -21.4147   19.3500 N   0  0  0  0  0  0  0  0  0  0  0  0
  -20.9819  -27.6528   21.1943 N   0  0  0  0  0  0  0  0  0  0  0  0
  -23.0723  -22.9065   17.1770 N   0  0  0  0  0  0  0  0  0  0  0  0
  -25.2456  -23.0486   14.2918 N   0  3  0  0  0  0  0  0  0  0  0  0
  -31.4142  -14.8175   19.3246 O   0  0  0  0  0  0  0  0  0  0  0  0
  -22.8091  -26.3106   21.7258 O   0  0  0  0  0  0  0  0  0  0  0  0
  -21.1740  -24.7591   18.2601 O   0  0  0  0  0  0  0  0  0  0  0  0
  -31.8996  -26.6738   18.3363 O   0  0  0  0  0  0  0  0  0  0  0  0
  -25.3898  -22.9156   17.0986 O   0  0  0  0  0  0  0  0  0  0  0  0
  -26.7480  -22.6569   20.9470 O   0  0  0  0  0  0  0  0  0  0  0  0
  -26.1058   -9.6595   21.7334 O   0  0  0  0  0  0  0  0  0  0  0  0
  -28.7730  -27.4759   20.8549 O   0  0  0  0  0  0  0  0  0  1  0  0
  -20.7189   -8.9814   20.7716 F   0  0  0  0  0  0  0  0  0  0  0  0
  -25.2236   -7.9461   19.7513 F   0  0  0  0  0  0  0  0  0  0  0  0
  -29.3122  -20.8648   17.0306 F   0  0  0  0  0  0  0  0  0  0  0  0
  1  2  1  0  0  0  0
  1  5  2  0  0  0  0
  2  6  2  0  0  0  0
  3  8  2  0  0  0  0
  3 17  1  0  0  0  0
  4  9  1  0  0  0  0
  4 17  2  0  0  0  0
  5 19  1  0  0  0  0
  6 21  1  0  0  0  0
  7 10  2  0  0  0  0
  7 20  1  0  0  0  0
  8 26  1  0  0  0  0
  9 26  2  0  0  0  0
 10 27  1  0  0  0  0
 11 12  2  0  0  0  0
 11 28  1  0  0  0  0
 12 29  1  0  0  0  0
 13 22  1  0  0  0  0
 13 27  2  0  0  0  0
 14 23  2  0  0  0  0
 14 24  1  0  0  0  0
 15 24  2  0  0  0  0
 15 25  1  0  0  0  0
 16 29  2  0  0  0  0
 16 30  1  0  0  0  0
 17 32  1  0  0  0  0
 18 32  1  0  0  0  0
 18 33  2  0  0  0  0
 18 34  1  0  0  0  0
 19 21  2  0  0  0  0
 19 40  1  0  0  0  0
 20 22  2  0  0  0  0
 20 41  1  0  0  0  0
 21 49  1  0  0  0  0
 22 42  1  0  0  0  0
 23 31  1  0  0  0  0
 23 52  1  0  0  0  0
 24 69  1  0  0  0  0
 25 31  2  0  0  0  0
 25 70  1  0  0  0  0
 26 80  1  0  0  0  0
 27 81  1  0  0  0  0
 28 30  2  0  0  0  0
 28 80  1  0  0  0  0
 29 82  1  0  0  0  0
 30 83  1  0  0  0  0
 31 84  1  0  0  0  0
 32 63  2  0  0  0  0
 33 64  1  0  0  0  0
 33 67  1  0  0  0  0
 34 68  1  0  0  0  0
 34 74  2  0  0  0  0
 35 50  1  0  0  0  0
 35 71  1  0  0  0  0
 35 75  2  0  0  0  0
 36 60  1  0  0  0  0
 36 65  1  0  0  0  0
 36 76  2  0  0  0  0
 37 58  1  0  0  0  0
 37 69  1  0  0  0  0
 37 77  2  0  0  0  0
 38 61  1  0  0  0  0
 38 72  1  0  0  0  0
 38 78  2  0  0  0  0
 39 66  1  0  0  0  0
 39 70  1  0  0  0  0
 39 79  2  0  0  0  0
 40 43  1  0  0  0  0
 41 50  1  0  0  0  0
 42 65  1  0  0  0  0
 43 45  1  0  0  0  0
 44 46  1  0  0  0  0
 44 47  1  0  0  0  0
 45 49  1  0  0  0  0
 46 51  1  0  0  0  0
 47 66  1  0  0  0  0
 48 51  1  0  0  0  0
 48 66  1  0  0  0  0
 49 71  1  0  0  0  0
 50 65  1  0  0  0  0
 51 64  1  0  0  0  0
 53 61  1  0  0  0  0
 54 62  1  0  0  0  0
 55 62  1  0  0  0  0
 56 62  1  0  0  0  0
 57 73  1  0  0  0  0
 58 59  1  0  0  0  0
 59 81  1  0  0  0  0
 60 62  1  0  0  0  0
 60 72  1  0  0  0  0
 61 73  1  0  0  0  0
 63 64  1  0  0  0  0
M  CHG  1  73   1
M  ISO  4  39 100  59 101  70 100  81 101
M  END
> <Batch ID>
0067

> <Smiles>
CNC(C)C(=O)NC(C(=O)N1Cc2cc([101O:1][101CH2:1]CC(=O)Nc3cc(C)c(F)c([100NH:0][100C:0](=O)N4CCCC(n5nc(-c6ccc(Oc7ccc(F)cc7F)cc6)c(C(N)=O)c5N)C4)c3)ccc2CC1C(=O)NC1CCCc2ccccc21)C(C)(C)C

> <Shape>
0.268

> <Color>
0.082

> <Negative vol penalty>
0.000

$$$$

  -OEChem-04042323243D

 85 93  0     1  0  0  0  0  0999 V2000
  -22.1074  -11.0933   20.7357 C   0  0  0  0  0  0  0  0  0  0  0  0
  -21.9229  -12.2793   21.4391 C   0  0  0  0  0  0  0  0  0  0  0  0
  -19.4716  -26.5167   21.7711 C   0  0  0  0  0  0  0  0  0  0  0  0
  -19.1901  -27.3510   19.5212 C   0  0  0  0  0  0  0  0  0  0  0  0
  -23.3623  -10.7814   20.2143 C   0  0  0  0  0  0  0  0  0  0  0  0
  -22.9935  -13.1537   21.6224 C   0  0  0  0  0  0  0  0  0  0  0  0
  -22.7631  -19.2711   21.7939 C   0  0  0  0  0  0  0  0  0  0  0  0
  -26.1970  -26.5377   23.5676 C   0  0  0  0  0  0  0  0  0  0  0  0
  -18.0901  -26.3624   21.8867 C   0  0  0  0  0  0  0  0  0  0  0  0
  -17.8086  -27.1966   19.6369 C   0  0  0  0  0  0  0  0  0  0  0  0
  -22.7350  -20.1794   22.8512 C   0  0  0  0  0  0  0  0  0  0  0  0
  -15.7377  -24.1519   20.8803 C   0  0  0  0  0  0  0  0  0  0  0  0
  -27.0287  -27.5475   23.0838 C   0  0  0  0  0  0  0  0  0  0  0  0
  -15.2624  -22.9639   21.4354 C   0  0  0  0  0  0  0  0  0  0  0  0
  -25.1245  -20.4559   22.6692 C   0  0  0  0  0  0  0  0  0  0  0  0
  -14.1887  -24.2178   23.1995 C   0  0  0  0  0  0  0  0  0  0  0  0
  -20.0216  -27.0110   20.5884 C   0  0  0  0  0  0  0  0  0  0  0  0
  -22.3743  -26.2199   19.9997 C   0  0  0  0  0  0  0  0  0  0  0  0
  -24.4465  -11.6569   20.3830 C   0  0  0  0  0  0  0  0  0  0  0  0
  -23.9756  -18.9396   21.1724 C   0  0  0  0  0  0  0  0  0  0  0  0
  -24.2644  -12.8526   21.1039 C   0  0  0  0  0  0  0  0  0  0  0  0
  -25.1649  -19.5450   21.6026 C   0  0  0  0  0  0  0  0  0  0  0  0
  -24.8692  -28.1881   24.7297 C   0  0  0  0  0  0  0  0  0  0  0  0
  -25.1172  -26.8580   24.3905 C   0  0  0  0  0  0  0  0  0  0  0  0
  -25.7010  -29.1979   24.2459 C   0  0  0  0  0  0  0  0  0  0  0  0
  -17.2586  -26.7023   20.8196 C   0  0  0  0  0  0  0  0  0  0  0  0
  -23.9162  -20.7698   23.2910 C   0  0  0  0  0  0  0  0  0  0  0  0
  -15.4386  -25.3730   21.4848 C   0  0  0  0  0  0  0  0  0  0  0  0
  -14.4878  -22.9968   22.5950 C   0  0  0  0  0  0  0  0  0  0  0  0
  -26.7808  -28.8776   23.4230 C   0  0  0  0  0  0  0  0  0  0  0  0
  -14.6641  -25.4059   22.6444 C   0  0  0  0  0  0  0  0  0  0  0  0
  -21.4485  -27.1712   20.4685 C   0  0  0  0  0  0  0  0  0  0  0  0
  -23.5898  -26.8542   20.0819 C   0  0  0  0  0  0  0  0  0  0  0  0
  -22.1551  -24.8826   19.5317 C   0  0  0  0  0  0  0  0  0  0  0  0
  -25.6536  -16.2640   20.8123 C   0  0  0  0  0  0  0  0  0  0  0  0
  -27.5058  -18.1412   18.9234 C   0  0  0  0  0  0  0  0  0  0  0  0
  -23.9998  -24.6052   24.2478 C   0  0  0  0  0  0  0  0  0  0  0  0
  -28.5765  -21.2796   18.1168 C   0  0  0  0  0  0  0  0  0  0  0  0
  -25.2043  -31.5771   23.6262 C   0  0  0  0  0  0  0  0  0  0  0  0
  -25.7956  -11.2545   19.8418 C   0  0  0  0  0  0  0  0  0  0  0  0
  -23.9854  -17.9782   20.0156 C   0  0  0  0  0  0  0  0  0  0  0  0
  -26.4900  -19.2383   20.9556 C   0  0  0  0  0  0  0  0  0  0  0  0
  -26.7879  -12.4114   19.7576 C   0  0  0  0  0  0  0  0  0  0  0  0
  -25.5912  -31.1934   19.9662 C   0  0  0  0  0  0  0  0  0  0  0  0
  -26.7760  -13.2201   21.0509 C   0  0  0  0  0  0  0  0  0  0  0  0
  -24.5863  -30.0925   19.6323 C   0  0  0  0  0  0  0  0  0  0  0  0
  -25.1632  -31.9992   21.1889 C   0  0  0  0  0  0  0  0  0  0  0  0
  -23.9006  -30.0543   22.0633 C   0  0  0  0  0  0  0  0  0  0  0  0
  -25.3954  -13.8383   21.3023 C   0  0  1  0  0  0  0  0  0  0  0  0
  -25.3458  -17.3246   19.7934 C   0  0  1  0  0  0  0  0  0  0  0  0
  -24.3294  -29.2023   20.8594 C   0  0  1  0  0  0  0  0  0  0  0  0
  -23.7105  -28.5321   25.6140 C   0  0  0  0  0  0  0  0  0  0  0  0
  -30.1201  -22.4936   16.5544 C   0  0  0  0  0  0  0  0  0  0  0  0
  -29.8962  -17.2531   20.5989 C   0  0  0  0  0  0  0  0  0  0  0  0
  -31.1916  -19.1690   19.6400 C   0  0  0  0  0  0  0  0  0  0  0  0
  -30.3326  -17.3711   18.1392 C   0  0  0  0  0  0  0  0  0  0  0  0
  -25.7540  -31.0088   25.9514 C   0  0  0  0  0  0  0  0  0  0  0  0
  -26.3435  -22.7962   16.9033 C   0  0  0  0  0  0  0  0  0  0  0  0
  -23.0583  -23.7724   25.1104 C   0  0  0  0  0  0  0  0  0  0  0  0
  -22.7047  -22.4313   24.4857 C   0  0  0  0  0  0  0  0  0  1  0  0
  -28.7083  -19.0263   19.1462 C   0  0  1  0  0  0  0  0  0  0  0  0
  -28.7037  -21.9881   16.7803 C   0  0  2  0  0  0  0  0  0  0  0  0
  -30.0076  -18.2094   19.3948 C   0  0  0  0  0  0  0  0  0  0  0  0
  -22.0263  -28.3222   20.8225 N   0  0  0  0  0  0  0  0  0  0  0  0
  -23.3283  -28.0983   20.5760 N   0  0  0  0  0  0  0  0  0  0  0  0
  -26.4485  -18.2872   19.8326 N   0  0  0  0  0  0  0  0  0  0  0  0
  -24.8642  -31.1344   22.3314 N   0  0  0  0  0  0  0  0  0  0  0  0
  -24.8460  -26.4636   19.7791 N   0  0  0  0  0  0  0  0  0  0  0  0
  -20.8440  -24.3876   19.5130 N   0  0  0  0  0  0  0  0  0  0  0  0
  -24.2863  -25.8175   24.8698 N   0  0  0  0  0  0  0  0  0  0  0  0
  -25.2038  -15.0041   20.4664 N   0  0  0  0  0  0  0  0  0  0  0  0
  -28.7756  -19.9206   17.9955 N   0  0  0  0  0  0  0  0  0  0  0  0
  -25.4620  -30.5793   24.5856 N   0  0  0  0  0  0  0  0  0  0  0  0
  -27.7743  -23.1515   16.7201 N   0  3  0  0  0  0  0  0  0  0  0  0
  -23.0961  -24.1424   19.1570 O   0  0  0  0  0  0  0  0  0  0  0  0
  -26.2560  -16.5662   21.8358 O   0  0  0  0  0  0  0  0  0  0  0  0
  -27.5018  -17.3544   17.9734 O   0  0  0  0  0  0  0  0  0  0  0  0
  -24.4139  -24.2089   23.1635 O   0  0  0  0  0  0  0  0  0  0  0  0
  -28.3292  -21.8730   19.1643 O   0  0  0  0  0  0  0  0  0  0  0  0
  -25.2229  -32.7779   23.9234 O   0  0  0  0  0  0  0  0  0  0  0  0
  -15.9106  -26.5516   20.9320 O   0  0  0  0  0  0  0  0  0  0  0  0
  -23.8918  -21.6562   24.3232 O   0  0  0  0  0  0  0  0  0  1  0  0
  -14.0301  -21.8560   23.1271 F   0  0  0  0  0  0  0  0  0  0  0  0
  -27.5883  -29.8391   22.9526 F   0  0  0  0  0  0  0  0  0  0  0  0
  -14.3724  -26.5759   23.2290 F   0  0  0  0  0  0  0  0  0  0  0  0
  1  2  1  0  0  0  0
  1  5  2  0  0  0  0
  2  6  2  0  0  0  0
  3  9  2  0  0  0  0
  3 17  1  0  0  0  0
  4 10  1  0  0  0  0
  4 17  2  0  0  0  0
  5 19  1  0  0  0  0
  6 21  1  0  0  0  0
  7 11  2  0  0  0  0
  7 20  1  0  0  0  0
  8 13  2  0  0  0  0
  8 24  1  0  0  0  0
  9 26  1  0  0  0  0
 10 26  2  0  0  0  0
 11 27  1  0  0  0  0
 12 14  2  0  0  0  0
 12 28  1  0  0  0  0
 13 30  1  0  0  0  0
 14 29  1  0  0  0  0
 15 22  1  0  0  0  0
 15 27  2  0  0  0  0
 16 29  2  0  0  0  0
 16 31  1  0  0  0  0
 17 32  1  0  0  0  0
 18 32  1  0  0  0  0
 18 33  2  0  0  0  0
 18 34  1  0  0  0  0
 19 21  2  0  0  0  0
 19 40  1  0  0  0  0
 20 22  2  0  0  0  0
 20 41  1  0  0  0  0
 21 49  1  0  0  0  0
 22 42  1  0  0  0  0
 23 24  2  0  0  0  0
 23 25  1  0  0  0  0
 23 52  1  0  0  0  0
 24 70  1  0  0  0  0
 25 30  2  0  0  0  0
 25 73  1  0  0  0  0
 26 81  1  0  0  0  0
 27 82  1  0  0  0  0
 28 31  2  0  0  0  0
 28 81  1  0  0  0  0
 29 83  1  0  0  0  0
 30 84  1  0  0  0  0
 31 85  1  0  0  0  0
 32 64  2  0  0  0  0
 33 65  1  0  0  0  0
 33 68  1  0  0  0  0
 34 69  1  0  0  0  0
 34 75  2  0  0  0  0
 35 50  1  0  0  0  0
 35 71  1  0  0  0  0
 35 76  2  0  0  0  0
 36 61  1  0  0  0  0
 36 66  1  0  0  0  0
 36 77  2  0  0  0  0
 37 59  1  0  0  0  0
 37 70  1  0  0  0  0
 37 78  2  0  0  0  0
 38 62  1  0  0  0  0
 38 72  1  0  0  0  0
 38 79  2  0  0  0  0
 39 67  1  0  0  0  0
 39 73  1  0  0  0  0
 39 80  2  0  0  0  0
 40 43  1  0  0  0  0
 41 50  1  0  0  0  0
 42 66  1  0  0  0  0
 43 45  1  0  0  0  0
 44 46  1  0  0  0  0
 44 47  1  0  0  0  0
 45 49  1  0  0  0  0
 46 51  1  0  0  0  0
 47 67  1  0  0  0  0
 48 51  1  0  0  0  0
 48 67  1  0  0  0  0
 49 71  1  0  0  0  0
 50 66  1  0  0  0  0
 51 65  1  0  0  0  0
 53 62  1  0  0  0  0
 54 63  1  0  0  0  0
 55 63  1  0  0  0  0
 56 63  1  0  0  0  0
 57 73  1  0  0  0  0
 58 74  1  0  0  0  0
 59 60  1  0  0  0  0
 60 82  1  0  0  0  0
 61 63  1  0  0  0  0
 61 72  1  0  0  0  0
 62 74  1  0  0  0  0
 64 65  1  0  0  0  0
M  CHG  1  74   1
M  ISO  4  39 100  60 101  73 100  82 101
M  END
> <Batch ID>
0067

> <Smiles>
CNC(C)C(=O)NC(C(=O)N1Cc2cc([101O:1][101CH2:1]CC(=O)Nc3ccc(F)c([100N:0](C)[100C:0](=O)N4CCCC(n5nc(-c6ccc(Oc7ccc(F)cc7F)cc6)c(C(N)=O)c5N)C4)c3C)ccc2CC1C(=O)NC1CCCc2ccccc21)C(C)(C)C

> <Shape>
0.213

> <Color>
0.055

> <Negative vol penalty>
0.000

$$$$

  -OEChem-04042323243D

 86 95  0     1  0  0  0  0  0999 V2000
  -27.7064  -37.7794   19.1266 C   0  0  0  0  0  0  0  0  0  0  0  0
  -28.2066  -36.4886   18.9884 C   0  0  0  0  0  0  0  0  0  0  0  0
  -24.3556   -9.0337   21.3551 C   0  0  0  0  0  0  0  0  0  0  0  0
  -23.8990  -10.5904   23.1454 C   0  0  0  0  0  0  0  0  0  0  0  0
  -26.8065  -38.0710   20.1508 C   0  0  0  0  0  0  0  0  0  0  0  0
  -27.8079  -35.4889   19.8750 C   0  0  0  0  0  0  0  0  0  0  0  0
  -26.9776  -29.5562   18.6024 C   0  0  0  0  0  0  0  0  0  0  0  0
  -25.6161  -21.8235   19.7733 C   0  0  0  0  0  0  0  0  0  0  0  0
  -24.6010  -20.8924   19.5540 C   0  0  0  0  0  0  0  0  0  0  0  0
  -24.1619   -7.9672   22.2329 C   0  0  0  0  0  0  0  0  0  0  0  0
  -23.7053   -9.5239   24.0233 C   0  0  0  0  0  0  0  0  0  0  0  0
  -27.7873  -28.4358   18.7836 C   0  0  0  0  0  0  0  0  0  0  0  0
  -21.5516   -6.3154   23.6081 C   0  0  0  0  0  0  0  0  0  0  0  0
  -20.7759   -5.2441   23.1653 C   0  0  0  0  0  0  0  0  0  0  0  0
  -26.6558  -27.9616   20.8607 C   0  0  0  0  0  0  0  0  0  0  0  0
  -27.2595  -20.0553   19.6742 C   0  0  0  0  0  0  0  0  0  0  0  0
  -22.6543   -3.7564   23.4741 C   0  0  0  0  0  0  0  0  0  0  0  0
  -24.2242  -10.3453   21.8113 C   0  0  0  0  0  0  0  0  0  0  0  0
  -23.4524  -12.0799   20.1075 C   0  0  0  0  0  0  0  0  0  0  0  0
  -26.3891  -37.0722   21.0445 C   0  0  0  0  0  0  0  0  0  0  0  0
  -26.0067  -29.8945   19.5559 C   0  0  0  0  0  0  0  0  0  0  0  0
  -26.9025  -35.7678   20.9129 C   0  0  0  0  0  0  0  0  0  0  0  0
  -25.8334  -29.0854   20.6879 C   0  0  0  0  0  0  0  0  0  0  0  0
  -26.9454  -21.4050   19.8333 C   0  0  0  0  0  0  0  0  0  0  0  0
  -24.9151  -19.5427   19.3950 C   0  0  0  0  0  0  0  0  0  0  0  0
  -26.2443  -19.1241   19.4550 C   0  0  0  0  0  0  0  0  0  0  0  0
  -23.8367   -8.2123   23.5671 C   0  0  0  0  0  0  0  0  0  0  0  0
  -27.6284  -27.6399   19.9143 C   0  0  0  0  0  0  0  0  0  0  0  0
  -22.8787   -6.1073   23.9838 C   0  0  0  0  0  0  0  0  0  0  0  0
  -21.3272   -3.9646   23.0984 C   0  0  0  0  0  0  0  0  0  0  0  0
  -23.4301   -4.8278   23.9168 C   0  0  0  0  0  0  0  0  0  0  0  0
  -24.4248  -11.4474   20.9051 C   0  0  0  0  0  0  0  0  0  0  0  0
  -24.1434  -13.0578   19.4346 C   0  0  0  0  0  0  0  0  0  0  0  0
  -30.1192  -23.1906   20.9368 C   0  0  0  0  0  0  0  0  0  0  0  0
  -29.1825  -22.0454   20.7128 C   0  0  0  0  0  0  0  0  0  0  0  0
  -22.0500  -11.8079   19.9858 C   0  0  0  0  0  0  0  0  0  0  0  0
  -25.5055  -32.3909   21.4587 C   0  0  0  0  0  0  0  0  0  0  0  0
  -22.7522  -30.8196   22.1463 C   0  0  0  0  0  0  0  0  0  0  0  0
  -21.0587  -27.8593   22.2680 C   0  0  0  0  0  0  0  0  0  0  0  0
  -27.8642  -17.1988   19.3308 C   0  0  0  0  0  0  0  0  0  0  0  0
  -25.4511  -37.4462   22.1647 C   0  0  0  0  0  0  0  0  0  0  0  0
  -25.1233  -31.0912   19.3325 C   0  0  0  0  0  0  0  0  0  0  0  0
  -24.7918  -29.3938   21.7312 C   0  0  0  0  0  0  0  0  0  0  0  0
  -24.7904  -36.2433   22.8332 C   0  0  0  0  0  0  0  0  0  0  0  0
  -29.1203  -13.8818   19.0191 C   0  0  0  0  0  0  0  0  0  0  0  0
  -25.8252  -35.1629   23.1308 C   0  0  0  0  0  0  0  0  0  0  0  0
  -27.9307  -13.0048   19.4164 C   0  0  0  0  0  0  0  0  0  0  0  0
  -29.1859  -15.1602   19.8528 C   0  0  0  0  0  0  0  0  0  0  0  0
  -26.7596  -15.0748   20.2712 C   0  0  0  0  0  0  0  0  0  0  0  0
  -27.7732  -23.7644   19.6868 C   0  0  0  0  0  0  0  0  0  0  0  0
  -26.4749  -34.6505   21.8397 C   0  0  1  0  0  0  0  0  0  0  0  0
  -24.5140  -31.6331   20.6219 C   0  0  1  0  0  0  0  0  0  0  0  0
  -26.6142  -13.8064   19.4147 C   0  0  2  0  0  0  0  0  0  0  0  0
  -29.0821  -24.4025   19.2315 C   0  0  1  0  0  0  0  0  0  0  0  0
  -18.8364  -26.8860   22.9095 C   0  0  0  0  0  0  0  0  0  0  0  0
  -23.5086  -31.0417   25.0940 C   0  0  0  0  0  0  0  0  0  0  0  0
  -21.8054  -29.2756   25.5922 C   0  0  0  0  0  0  0  0  0  0  0  0
  -21.0907  -31.4515   24.6037 C   0  0  0  0  0  0  0  0  0  0  0  0
  -20.5502  -26.9060   19.5127 C   0  0  0  0  0  0  0  0  0  0  0  0
  -28.8850  -25.8824   18.9202 C   0  0  0  0  0  0  0  0  0  1  0  0
  -22.3368  -29.7866   23.1658 C   0  0  1  0  0  0  0  0  0  0  0  0
  -19.6739  -27.4703   21.7826 C   0  0  2  0  0  0  0  0  0  0  0  0
  -22.2064  -30.3839   24.5954 C   0  0  0  0  0  0  0  0  0  0  0  0
  -25.6409  -11.9787   20.7539 N   0  0  0  0  0  0  0  0  0  0  0  0
  -30.0939  -24.2931   20.2798 N   0  0  0  0  0  0  0  0  0  0  0  0
  -25.4373  -12.9553   19.8535 N   0  0  0  0  0  0  0  0  0  0  0  0
  -27.9932  -22.3667   20.0564 N   0  0  0  0  0  0  0  0  0  0  0  0
  -23.9568  -30.5780   21.4708 N   0  0  0  0  0  0  0  0  0  0  0  0
  -27.9053  -15.8690   19.8007 N   0  0  0  0  0  0  0  0  0  0  0  0
  -23.8706  -18.6165   19.1761 N   0  0  0  0  0  0  0  0  0  0  0  0
  -23.7643  -13.9866   18.5313 N   0  0  0  0  0  0  0  0  0  0  0  0
  -21.5024  -10.7679   20.7493 N   0  0  0  0  0  0  0  0  0  0  0  0
  -26.5875  -17.7586   19.2957 N   0  0  0  0  0  0  0  0  0  0  0  0
  -25.5860  -33.7365   21.1549 N   0  0  0  0  0  0  0  0  0  0  0  0
  -21.1109  -29.1811   22.6571 N   0  0  0  0  0  0  0  0  0  0  0  0
  -19.7722  -26.4557   20.6954 N   0  3  0  0  0  0  0  0  0  0  0  0
  -29.5559  -20.9788   21.1823 O   0  0  0  0  0  0  0  0  0  0  0  0
  -21.3076  -12.4567   19.2103 O   0  0  0  0  0  0  0  0  0  0  0  0
  -26.1488  -31.7989   22.3174 O   0  0  0  0  0  0  0  0  0  0  0  0
  -22.0308  -31.8010   21.9513 O   0  0  0  0  0  0  0  0  0  0  0  0
  -21.9990  -27.0686   22.3024 O   0  0  0  0  0  0  0  0  0  0  0  0
  -28.8827  -17.7876   18.9594 O   0  0  0  0  0  0  0  0  0  0  0  0
  -23.6473   -7.1718   24.4239 O   0  0  0  0  0  0  0  0  0  0  0  0
  -28.4178  -26.5461   20.0940 O   0  0  0  0  0  0  0  0  0  1  0  0
  -20.5817   -2.9356   22.6746 F   0  0  0  0  0  0  0  0  0  0  0  0
  -24.7041   -4.6214   24.2776 F   0  0  0  0  0  0  0  0  0  0  0  0
  1  2  1  0  0  0  0
  1  5  2  0  0  0  0
  2  6  2  0  0  0  0
  3 10  2  0  0  0  0
  3 18  1  0  0  0  0
  4 11  1  0  0  0  0
  4 18  2  0  0  0  0
  5 20  1  0  0  0  0
  6 22  1  0  0  0  0
  7 12  2  0  0  0  0
  7 21  1  0  0  0  0
  8  9  2  0  0  0  0
  8 24  1  0  0  0  0
  9 25  1  0  0  0  0
 10 27  1  0  0  0  0
 11 27  2  0  0  0  0
 12 28  1  0  0  0  0
 13 14  2  0  0  0  0
 13 29  1  0  0  0  0
 14 30  1  0  0  0  0
 15 23  1  0  0  0  0
 15 28  2  0  0  0  0
 16 24  2  0  0  0  0
 16 26  1  0  0  0  0
 17 30  2  0  0  0  0
 17 31  1  0  0  0  0
 18 32  1  0  0  0  0
 19 32  1  0  0  0  0
 19 33  2  0  0  0  0
 19 36  1  0  0  0  0
 20 22  2  0  0  0  0
 20 41  1  0  0  0  0
 21 23  2  0  0  0  0
 21 42  1  0  0  0  0
 22 51  1  0  0  0  0
 23 43  1  0  0  0  0
 24 67  1  0  0  0  0
 25 26  2  0  0  0  0
 25 70  1  0  0  0  0
 26 73  1  0  0  0  0
 27 83  1  0  0  0  0
 28 84  1  0  0  0  0
 29 31  2  0  0  0  0
 29 83  1  0  0  0  0
 30 85  1  0  0  0  0
 31 86  1  0  0  0  0
 32 64  2  0  0  0  0
 33 66  1  0  0  0  0
 33 71  1  0  0  0  0
 34 35  1  0  0  0  0
 34 65  2  0  0  0  0
 35 67  1  0  0  0  0
 35 77  2  0  0  0  0
 36 72  1  0  0  0  0
 36 78  2  0  0  0  0
 37 52  1  0  0  0  0
 37 74  1  0  0  0  0
 37 79  2  0  0  0  0
 38 61  1  0  0  0  0
 38 68  1  0  0  0  0
 38 80  2  0  0  0  0
 39 62  1  0  0  0  0
 39 75  1  0  0  0  0
 39 81  2  0  0  0  0
 40 69  1  0  0  0  0
 40 73  1  0  0  0  0
 40 82  2  0  0  0  0
 41 44  1  0  0  0  0
 42 52  1  0  0  0  0
 43 68  1  0  0  0  0
 44 46  1  0  0  0  0
 45 47  1  0  0  0  0
 45 48  1  0  0  0  0
 46 51  1  0  0  0  0
 47 53  1  0  0  0  0
 48 69  1  0  0  0  0
 49 53  1  0  0  0  0
 49 69  1  0  0  0  0
 50 54  1  0  0  0  0
 50 67  1  0  0  0  0
 51 74  1  0  0  0  0
 52 68  1  0  0  0  0
 53 66  1  0  0  0  0
 54 60  1  0  0  0  0
 54 65  1  0  0  0  0
 55 62  1  0  0  0  0
 56 63  1  0  0  0  0
 57 63  1  0  0  0  0
 58 63  1  0  0  0  0
 59 76  1  0  0  0  0
 60 84  1  0  0  0  0
 61 63  1  0  0  0  0
 61 75  1  0  0  0  0
 62 76  1  0  0  0  0
 64 66  1  0  0  0  0
M  CHG  1  76   1
M  ISO  4  40 100  60 101  73 100  84 101
M  END
> <Batch ID>
0067

> <Smiles>
CNC(C)C(=O)NC(C(=O)N1Cc2cc([101O:1][101CH2:1]C3CN(c4ccc(N)c([100NH:0][100C:0](=O)N5CCCC(n6nc(-c7ccc(Oc8ccc(F)cc8F)cc7)c(C(N)=O)c6N)C5)c4)C(=O)C=N3)ccc2CC1C(=O)NC1CCCc2ccccc21)C(C)(C)C

> <Shape>
0.305

> <Color>
0.100

> <Negative vol penalty>
0.000

$$$$

  -OEChem-04042323243D

 84 92  0     1  0  0  0  0  0999 V2000
  -27.0810  -24.5947   16.0607 C   0  0  0  0  0  0  0  0  0  0  0  0
  -26.0635  -25.4484   16.4716 C   0  0  0  0  0  0  0  0  0  0  0  0
  -23.2304  -25.2768   20.8169 C   0  0  0  0  0  0  0  0  0  0  0  0
  -24.7780  -12.6757   19.8212 C   0  0  0  0  0  0  0  0  0  0  0  0
  -25.5022  -13.8279   21.8174 C   0  0  0  0  0  0  0  0  0  0  0  0
  -28.1780  -24.3739   16.8907 C   0  0  0  0  0  0  0  0  0  0  0  0
  -26.1483  -26.0908   17.7073 C   0  0  0  0  0  0  0  0  0  0  0  0
  -22.7047  -29.4559   18.7181 C   0  0  0  0  0  0  0  0  0  0  0  0
  -22.2249  -25.2034   21.7808 C   0  0  0  0  0  0  0  0  0  0  0  0
  -23.5747  -24.1432   20.0805 C   0  0  0  0  0  0  0  0  0  0  0  0
  -25.4698  -11.5351   20.2284 C   0  0  0  0  0  0  0  0  0  0  0  0
  -26.1941  -12.6872   22.2247 C   0  0  0  0  0  0  0  0  0  0  0  0
  -21.3832  -29.1186   19.0071 C   0  0  0  0  0  0  0  0  0  0  0  0
  -25.0125   -8.9891   22.4060 C   0  0  0  0  0  0  0  0  0  0  0  0
  -24.3597   -7.7614   22.2963 C   0  0  0  0  0  0  0  0  0  0  0  0
  -21.7989  -29.5217   21.3489 C   0  0  0  0  0  0  0  0  0  0  0  0
  -21.9080  -22.8629   21.2721 C   0  0  0  0  0  0  0  0  0  0  0  0
  -26.0933   -6.9725   20.8099 C   0  0  0  0  0  0  0  0  0  0  0  0
  -24.7942  -13.8222   20.6156 C   0  0  0  0  0  0  0  0  0  0  0  0
  -22.7442  -15.3350   20.4873 C   0  0  0  0  0  0  0  0  0  0  0  0
  -28.2696  -25.0046   18.1424 C   0  0  0  0  0  0  0  0  0  0  0  0
  -23.5877  -29.8187   19.7453 C   0  0  0  0  0  0  0  0  0  0  0  0
  -27.2590  -25.8995   18.5490 C   0  0  0  0  0  0  0  0  0  0  0  0
  -23.1304  -29.8656   21.0700 C   0  0  0  0  0  0  0  0  0  0  0  0
  -21.5637  -23.9965   22.0084 C   0  0  0  0  0  0  0  0  0  0  0  0
  -22.9135  -22.9363   20.3081 C   0  0  0  0  0  0  0  0  0  0  0  0
  -26.1778  -11.5408   21.4302 C   0  0  0  0  0  0  0  0  0  0  0  0
  -20.9308  -29.1487   20.3230 C   0  0  0  0  0  0  0  0  0  0  0  0
  -26.2056   -9.2087   21.7176 C   0  0  0  0  0  0  0  0  0  0  0  0
  -24.9001   -6.7530   21.4983 C   0  0  0  0  0  0  0  0  0  0  0  0
  -26.7460   -8.2003   20.9195 C   0  0  0  0  0  0  0  0  0  0  0  0
  -24.0802  -15.0009   20.1952 C   0  0  0  0  0  0  0  0  0  0  0  0
  -22.5477  -16.5424   19.8627 C   0  0  0  0  0  0  0  0  0  0  0  0
  -21.7681  -14.6181   21.2547 C   0  0  0  0  0  0  0  0  0  0  0  0
  -26.3042  -28.6312   20.8918 C   0  0  0  0  0  0  0  0  0  0  0  0
  -26.2696  -31.3295   22.6919 C   0  0  0  0  0  0  0  0  0  0  0  0
  -19.0259  -25.8349   23.6425 C   0  0  0  0  0  0  0  0  0  0  0  0
  -24.4484  -33.8445   24.1079 C   0  0  0  0  0  0  0  0  0  0  0  0
  -24.2365  -21.6872   18.5658 C   0  0  0  0  0  0  0  0  0  0  0  0
  -29.4829  -24.7359   18.9974 C   0  0  0  0  0  0  0  0  0  0  0  0
  -25.0030  -30.2055   19.4139 C   0  0  0  0  0  0  0  0  0  0  0  0
  -24.0329  -30.2679   22.2067 C   0  0  0  0  0  0  0  0  0  0  0  0
  -29.2725  -25.1074   20.4616 C   0  0  0  0  0  0  0  0  0  0  0  0
  -25.4219  -19.0268   16.5178 C   0  0  0  0  0  0  0  0  0  0  0  0
  -28.6968  -26.5119   20.5640 C   0  0  0  0  0  0  0  0  0  0  0  0
  -25.0686  -17.7698   17.3159 C   0  0  0  0  0  0  0  0  0  0  0  0
  -25.8488  -20.1760   17.4292 C   0  0  0  0  0  0  0  0  0  0  0  0
  -24.5494  -19.2429   19.3027 C   0  0  0  0  0  0  0  0  0  0  0  0
  -27.3150  -26.5854   19.9020 C   0  0  1  0  0  0  0  0  0  0  0  0
  -25.9543  -30.0626   20.5979 C   0  0  1  0  0  0  0  0  0  0  0  0
  -24.0510  -18.0781   18.4317 C   0  0  2  0  0  0  0  0  0  0  0  0
  -24.6933  -35.8809   25.5537 C   0  0  0  0  0  0  0  0  0  0  0  0
  -26.5826  -29.5456   25.1474 C   0  0  0  0  0  0  0  0  0  0  0  0
  -25.8743  -31.4865   26.5615 C   0  0  0  0  0  0  0  0  0  0  0  0
  -27.9555  -31.6354   25.1944 C   0  0  0  0  0  0  0  0  0  0  0  0
  -23.4109  -35.6218   21.9810 C   0  0  0  0  0  0  0  0  0  0  0  0
  -20.4814  -23.9181   23.0461 C   0  0  0  0  0  0  0  0  0  0  0  0
  -17.8595  -26.6451   23.1056 C   0  0  0  0  0  0  0  0  0  0  0  0
  -18.1797  -27.3168   21.7751 C   0  0  0  0  0  0  0  0  0  0  0  0
  -19.3873  -28.2362   21.8853 C   0  0  0  0  0  0  0  0  0  1  0  0
  -25.7070  -31.7077   24.0408 C   0  0  1  0  0  0  0  0  0  0  0  0
  -24.6545  -35.3483   24.1297 C   0  0  2  0  0  0  0  0  0  0  0  0
  -26.5131  -31.0843   25.2150 C   0  0  0  0  0  0  0  0  0  0  0  0
  -24.6894  -15.9216   19.4434 N   0  0  0  0  0  0  0  0  0  0  0  0
  -23.7318  -16.8461   19.2577 N   0  0  0  0  0  0  0  0  0  0  0  0
  -25.4096  -30.6312   21.8324 N   0  0  0  0  0  0  0  0  0  0  0  0
  -24.8347  -20.4138   18.4587 N   0  0  0  0  0  0  0  0  0  0  0  0
  -21.4794  -17.3632   19.7774 N   0  0  0  0  0  0  0  0  0  0  0  0
  -22.1365  -13.3930   21.8271 N   0  0  0  0  0  0  0  0  0  0  0  0
  -23.2630  -21.7852   19.5594 N   0  0  0  0  0  0  0  0  0  0  0  0
  -26.8970  -27.9683   19.8342 N   0  0  0  0  0  0  0  0  0  0  0  0
  -19.3957  -24.8269   22.7641 N   0  0  0  0  0  0  0  0  0  0  0  0
  -25.6475  -33.1652   24.0642 N   0  0  0  0  0  0  0  0  0  0  0  0
  -23.5492  -36.0333   23.4017 N   0  3  0  0  0  0  0  0  0  0  0  0
  -20.5987  -15.0431   21.4139 O   0  0  0  0  0  0  0  0  0  0  0  0
  -26.0561  -28.1633   21.9969 O   0  0  0  0  0  0  0  0  0  0  0  0
  -27.4270  -31.6484   22.4084 O   0  0  0  0  0  0  0  0  0  0  0  0
  -19.5630  -26.0602   24.7237 O   0  0  0  0  0  0  0  0  0  0  0  0
  -23.3351  -33.3244   24.1313 O   0  0  0  0  0  0  0  0  0  0  0  0
  -24.5443  -22.6143   17.8122 O   0  0  0  0  0  0  0  0  0  0  0  0
  -26.8529  -10.4279   21.8281 O   0  0  0  0  0  0  0  0  0  0  0  0
  -19.6416  -28.8193   20.6079 O   0  0  0  0  0  0  0  0  0  1  0  0
  -24.2740   -5.5735   21.3943 F   0  0  0  0  0  0  0  0  0  0  0  0
  -27.8926   -8.4049   20.2567 F   0  0  0  0  0  0  0  0  0  0  0  0
  1  2  1  0  0  0  0
  1  6  2  0  0  0  0
  2  7  2  0  0  0  0
  3  9  2  0  0  0  0
  3 10  1  0  0  0  0
  4 11  2  0  0  0  0
  4 19  1  0  0  0  0
  5 12  1  0  0  0  0
  5 19  2  0  0  0  0
  6 21  1  0  0  0  0
  7 23  1  0  0  0  0
  8 13  2  0  0  0  0
  8 22  1  0  0  0  0
  9 25  1  0  0  0  0
 10 26  2  0  0  0  0
 11 27  1  0  0  0  0
 12 27  2  0  0  0  0
 13 28  1  0  0  0  0
 14 15  2  0  0  0  0
 14 29  1  0  0  0  0
 15 30  1  0  0  0  0
 16 24  1  0  0  0  0
 16 28  2  0  0  0  0
 17 25  2  0  0  0  0
 17 26  1  0  0  0  0
 18 30  2  0  0  0  0
 18 31  1  0  0  0  0
 19 32  1  0  0  0  0
 20 32  1  0  0  0  0
 20 33  2  0  0  0  0
 20 34  1  0  0  0  0
 21 23  2  0  0  0  0
 21 40  1  0  0  0  0
 22 24  2  0  0  0  0
 22 41  1  0  0  0  0
 23 49  1  0  0  0  0
 24 42  1  0  0  0  0
 25 57  1  0  0  0  0
 26 70  1  0  0  0  0
 27 81  1  0  0  0  0
 28 82  1  0  0  0  0
 29 31  2  0  0  0  0
 29 81  1  0  0  0  0
 30 83  1  0  0  0  0
 31 84  1  0  0  0  0
 32 64  2  0  0  0  0
 33 65  1  0  0  0  0
 33 68  1  0  0  0  0
 34 69  1  0  0  0  0
 34 75  2  0  0  0  0
 35 50  1  0  0  0  0
 35 71  1  0  0  0  0
 35 76  2  0  0  0  0
 36 61  1  0  0  0  0
 36 66  1  0  0  0  0
 36 77  2  0  0  0  0
 37 58  1  0  0  0  0
 37 72  1  0  0  0  0
 37 78  2  0  0  0  0
 38 62  1  0  0  0  0
 38 73  1  0  0  0  0
 38 79  2  0  0  0  0
 39 67  1  0  0  0  0
 39 70  1  0  0  0  0
 39 80  2  0  0  0  0
 40 43  1  0  0  0  0
 41 50  1  0  0  0  0
 42 66  1  0  0  0  0
 43 45  1  0  0  0  0
 44 46  1  0  0  0  0
 44 47  1  0  0  0  0
 45 49  1  0  0  0  0
 46 51  1  0  0  0  0
 47 67  1  0  0  0  0
 48 51  1  0  0  0  0
 48 67  1  0  0  0  0
 49 71  1  0  0  0  0
 50 66  1  0  0  0  0
 51 65  1  0  0  0  0
 52 62  1  0  0  0  0
 53 63  1  0  0  0  0
 54 63  1  0  0  0  0
 55 63  1  0  0  0  0
 56 74  1  0  0  0  0
 57 72  1  0  0  0  0
 58 59  1  0  0  0  0
 59 60  1  0  0  0  0
 60 82  1  0  0  0  0
 61 63  1  0  0  0  0
 61 73  1  0  0  0  0
 62 74  1  0  0  0  0
 64 65  1  0  0  0  0
M  CHG  1  74   1
M  ISO  4  39 100  60 101  70 100  82 101
M  END
> <Batch ID>
0067

> <Smiles>
CNC(C)C(=O)NC(C(=O)N1Cc2cc([101O:1][101CH2:1]CCC(=O)NCc3cccc([100NH:0][100C:0](=O)N4CCCC(n5nc(-c6ccc(Oc7ccc(F)cc7F)cc6)c(C(N)=O)c5N)C4)c3)ccc2CC1C(=O)NC1CCCc2ccccc21)C(C)(C)C

> <Shape>
0.246

> <Color>
0.080

> <Negative vol penalty>
0.000

$$$$

  -OEChem-04042323243D

 84 92  0     1  0  0  0  0  0999 V2000
  -24.3103   -7.0289   23.6889 C   0  0  0  0  0  0  0  0  0  0  0  0
  -25.4923   -7.7620   23.6619 C   0  0  0  0  0  0  0  0  0  0  0  0
  -24.4940  -31.5222   22.9952 C   0  0  0  0  0  0  0  0  0  0  0  0
  -25.3737  -31.3995   20.7484 C   0  0  0  0  0  0  0  0  0  0  0  0
  -23.2492   -7.3884   22.8589 C   0  0  0  0  0  0  0  0  0  0  0  0
  -25.6143   -8.8546   22.8042 C   0  0  0  0  0  0  0  0  0  0  0  0
  -28.7341  -15.2883   22.3673 C   0  0  0  0  0  0  0  0  0  0  0  0
  -25.1660  -32.7285   23.1924 C   0  0  0  0  0  0  0  0  0  0  0  0
  -26.0457  -32.6059   20.9455 C   0  0  0  0  0  0  0  0  0  0  0  0
  -29.5490  -16.0347   21.5173 C   0  0  0  0  0  0  0  0  0  0  0  0
  -24.7418  -35.9799   22.3669 C   0  0  0  0  0  0  0  0  0  0  0  0
  -24.0393  -37.0218   22.9724 C   0  0  0  0  0  0  0  0  0  0  0  0
  -27.6218  -16.6113   20.1859 C   0  0  0  0  0  0  0  0  0  0  0  0
  -28.3067  -22.5754   18.9261 C   0  0  0  0  0  0  0  0  0  0  0  0
  -27.5815  -24.3160   17.4158 C   0  0  0  0  0  0  0  0  0  0  0  0
  -25.6544  -37.0668   24.7687 C   0  0  0  0  0  0  0  0  0  0  0  0
  -24.5980  -30.8576   21.7732 C   0  0  0  0  0  0  0  0  0  0  0  0
  -22.6008  -29.4359   21.0679 C   0  0  0  0  0  0  0  0  0  0  0  0
  -23.3548   -8.4918   21.9975 C   0  0  0  0  0  0  0  0  0  0  0  0
  -27.3563  -15.1888   22.1264 C   0  0  0  0  0  0  0  0  0  0  0  0
  -24.5541   -9.2285   21.9609 C   0  0  0  0  0  0  0  0  0  0  0  0
  -26.7912  -15.8652   21.0359 C   0  0  0  0  0  0  0  0  0  0  0  0
  -27.4474  -23.6317   18.6238 C   0  0  0  0  0  0  0  0  0  0  0  0
  -29.3003  -22.2035   18.0204 C   0  0  0  0  0  0  0  0  0  0  0  0
  -25.9417  -33.2704   22.1676 C   0  0  0  0  0  0  0  0  0  0  0  0
  -28.9934  -16.6939   20.4247 C   0  0  0  0  0  0  0  0  0  0  0  0
  -25.9006  -35.4815   22.9624 C   0  0  0  0  0  0  0  0  0  0  0  0
  -24.4956  -37.5652   24.1733 C   0  0  0  0  0  0  0  0  0  0  0  0
  -28.5750  -23.9441   16.5100 C   0  0  0  0  0  0  0  0  0  0  0  0
  -26.3569  -36.0249   24.1632 C   0  0  0  0  0  0  0  0  0  0  0  0
  -29.4344  -22.8878   16.8123 C   0  0  0  0  0  0  0  0  0  0  0  0
  -23.9046  -29.6112   21.5690 C   0  0  0  0  0  0  0  0  0  0  0  0
  -22.4130  -28.0753   21.0678 C   0  0  0  0  0  0  0  0  0  0  0  0
  -21.6449  -30.4153   20.6406 C   0  0  0  0  0  0  0  0  0  0  0  0
  -25.3590  -12.8023   21.4786 C   0  0  0  0  0  0  0  0  0  0  0  0
  -23.1109  -15.1230   21.7658 C   0  0  0  0  0  0  0  0  0  0  0  0
  -30.1758  -20.3466   19.4796 C   0  0  0  0  0  0  0  0  0  0  0  0
  -22.3434  -18.4457   21.6324 C   0  0  0  0  0  0  0  0  0  0  0  0
  -26.1687  -23.4362   20.7855 C   0  0  0  0  0  0  0  0  0  0  0  0
  -22.1981   -8.8135   21.0847 C   0  0  0  0  0  0  0  0  0  0  0  0
  -26.4868  -14.4016   23.0681 C   0  0  0  0  0  0  0  0  0  0  0  0
  -25.3146  -15.8067   20.7451 C   0  0  0  0  0  0  0  0  0  0  0  0
  -22.2729  -10.2114   20.4761 C   0  0  0  0  0  0  0  0  0  0  0  0
  -23.7985  -24.1037   23.3573 C   0  0  0  0  0  0  0  0  0  0  0  0
  -23.6738  -10.4852   19.9382 C   0  0  0  0  0  0  0  0  0  0  0  0
  -23.4335  -25.5742   23.1412 C   0  0  0  0  0  0  0  0  0  0  0  0
  -25.2750  -23.8376   23.0692 C   0  0  0  0  0  0  0  0  0  0  0  0
  -25.3783  -25.7651   21.5385 C   0  0  0  0  0  0  0  0  0  0  0  0
  -24.7159  -10.4351   21.0621 C   0  0  1  0  0  0  0  0  0  0  0  0
  -25.1758  -13.9482   22.4331 C   0  0  1  0  0  0  0  0  0  0  0  0
  -23.8867  -26.0692   21.7537 C   0  0  2  0  0  0  0  0  0  0  0  0
  -20.4152  -20.0333   21.8751 C   0  0  0  0  0  0  0  0  0  0  0  0
  -22.0906  -14.3014   19.0101 C   0  0  0  0  0  0  0  0  0  0  0  0
  -20.8413  -16.4684   18.9033 C   0  0  0  0  0  0  0  0  0  0  0  0
  -20.2973  -14.8034   20.6794 C   0  0  0  0  0  0  0  0  0  0  0  0
  -23.6279  -19.8411   23.9043 C   0  0  0  0  0  0  0  0  0  0  0  0
  -31.2815  -19.2996   19.4062 C   0  0  0  0  0  0  0  0  0  0  0  0
  -30.9477  -18.0239   20.1646 C   0  0  0  0  0  0  0  0  0  1  0  0
  -22.4606  -16.1043   20.8207 C   0  0  1  0  0  0  0  0  0  0  0  0
  -21.5682  -19.3394   22.5835 C   0  0  2  0  0  0  0  0  0  0  0  0
  -21.4506  -15.4191   19.8575 C   0  0  0  0  0  0  0  0  0  0  0  0
  -24.5028  -28.4544   21.8659 N   0  0  0  0  0  0  0  0  0  0  0  0
  -23.5706  -27.5392   21.5504 N   0  0  0  0  0  0  0  0  0  0  0  0
  -24.5071  -15.0191   21.6912 N   0  0  0  0  0  0  0  0  0  0  0  0
  -25.6309  -24.3292   21.7364 N   0  0  0  0  0  0  0  0  0  0  0  0
  -21.3724  -27.2970   20.7021 N   0  0  0  0  0  0  0  0  0  0  0  0
  -22.0006  -31.7694   20.7067 N   0  0  0  0  0  0  0  0  0  0  0  0
  -30.1705  -21.1311   18.3294 N   0  0  0  0  0  0  0  0  0  0  0  0
  -26.4380  -24.0100   19.5434 N   0  0  0  0  0  0  0  0  0  0  0  0
  -24.6791  -11.6549   21.8400 N   0  0  0  0  0  0  0  0  0  0  0  0
  -21.8761  -17.1486   21.6551 N   0  0  0  0  0  0  0  0  0  0  0  0
  -22.4629  -20.3832   23.1587 N   0  3  0  0  0  0  0  0  0  0  0  0
  -20.5029  -30.1000   20.2283 O   0  0  0  0  0  0  0  0  0  0  0  0
  -26.0638  -12.9488   20.4869 O   0  0  0  0  0  0  0  0  0  0  0  0
  -22.4066  -14.4779   22.5464 O   0  0  0  0  0  0  0  0  0  0  0  0
  -29.4257  -20.4372   20.4458 O   0  0  0  0  0  0  0  0  0  0  0  0
  -23.2683  -18.8578   20.9359 O   0  0  0  0  0  0  0  0  0  0  0  0
  -26.3498  -22.2438   21.0448 O   0  0  0  0  0  0  0  0  0  0  0  0
  -26.5973  -34.4476   22.3596 O   0  0  0  0  0  0  0  0  0  0  0  0
  -29.7866  -17.4226   19.5930 O   0  0  0  0  0  0  0  0  0  1  0  0
  -23.8217  -38.5668   24.7538 F   0  0  0  0  0  0  0  0  0  0  0  0
  -28.7040  -24.6014   15.3503 F   0  0  0  0  0  0  0  0  0  0  0  0
  -27.4701  -35.5510   24.7394 F   0  0  0  0  0  0  0  0  0  0  0  0
  -30.3857  -22.5393   15.9346 F   0  0  0  0  0  0  0  0  0  0  0  0
  1  2  1  0  0  0  0
  1  5  2  0  0  0  0
  2  6  2  0  0  0  0
  3  8  2  0  0  0  0
  3 17  1  0  0  0  0
  4  9  1  0  0  0  0
  4 17  2  0  0  0  0
  5 19  1  0  0  0  0
  6 21  1  0  0  0  0
  7 10  2  0  0  0  0
  7 20  1  0  0  0  0
  8 25  1  0  0  0  0
  9 25  2  0  0  0  0
 10 26  1  0  0  0  0
 11 12  2  0  0  0  0
 11 27  1  0  0  0  0
 12 28  1  0  0  0  0
 13 22  1  0  0  0  0
 13 26  2  0  0  0  0
 14 23  2  0  0  0  0
 14 24  1  0  0  0  0
 15 23  1  0  0  0  0
 15 29  2  0  0  0  0
 16 28  2  0  0  0  0
 16 30  1  0  0  0  0
 17 32  1  0  0  0  0
 18 32  1  0  0  0  0
 18 33  2  0  0  0  0
 18 34  1  0  0  0  0
 19 21  2  0  0  0  0
 19 40  1  0  0  0  0
 20 22  2  0  0  0  0
 20 41  1  0  0  0  0
 21 49  1  0  0  0  0
 22 42  1  0  0  0  0
 23 69  1  0  0  0  0
 24 31  2  0  0  0  0
 24 68  1  0  0  0  0
 25 79  1  0  0  0  0
 26 80  1  0  0  0  0
 27 30  2  0  0  0  0
 27 79  1  0  0  0  0
 28 81  1  0  0  0  0
 29 31  1  0  0  0  0
 29 82  1  0  0  0  0
 30 83  1  0  0  0  0
 31 84  1  0  0  0  0
 32 62  2  0  0  0  0
 33 63  1  0  0  0  0
 33 66  1  0  0  0  0
 34 67  1  0  0  0  0
 34 73  2  0  0  0  0
 35 50  1  0  0  0  0
 35 70  1  0  0  0  0
 35 74  2  0  0  0  0
 36 59  1  0  0  0  0
 36 64  1  0  0  0  0
 36 75  2  0  0  0  0
 37 57  1  0  0  0  0
 37 68  1  0  0  0  0
 37 76  2  0  0  0  0
 38 60  1  0  0  0  0
 38 71  1  0  0  0  0
 38 77  2  0  0  0  0
 39 65  1  0  0  0  0
 39 69  1  0  0  0  0
 39 78  2  0  0  0  0
 40 43  1  0  0  0  0
 41 50  1  0  0  0  0
 42 64  1  0  0  0  0
 43 45  1  0  0  0  0
 44 46  1  0  0  0  0
 44 47  1  0  0  0  0
 45 49  1  0  0  0  0
 46 51  1  0  0  0  0
 47 65  1  0  0  0  0
 48 51  1  0  0  0  0
 48 65  1  0  0  0  0
 49 70  1  0  0  0  0
 50 64  1  0  0  0  0
 51 63  1  0  0  0  0
 52 60  1  0  0  0  0
 53 61  1  0  0  0  0
 54 61  1  0  0  0  0
 55 61  1  0  0  0  0
 56 72  1  0  0  0  0
 57 58  1  0  0  0  0
 58 80  1  0  0  0  0
 59 61  1  0  0  0  0
 59 71  1  0  0  0  0
 60 72  1  0  0  0  0
 62 63  1  0  0  0  0
M  CHG  1  72   1
M  ISO  4  39 100  58 101  69 100  80 101
M  END
> <Batch ID>
0067

> <Smiles>
CNC(C)C(=O)NC(C(=O)N1Cc2cc([101O:1][101CH2:1]CC(=O)Nc3cc([100NH:0][100C:0](=O)N4CCCC(n5nc(-c6ccc(Oc7ccc(F)cc7F)cc6)c(C(N)=O)c5N)C4)cc(F)c3F)ccc2CC1C(=O)NC1CCCc2ccccc21)C(C)(C)C

> <Shape>
0.233

> <Color>
0.061

> <Negative vol penalty>
0.000

$$$$

  -OEChem-04042323243D

 84 92  0     1  0  0  0  0  0999 V2000
  -32.8681  -10.5903   23.3812 C   0  0  0  0  0  0  0  0  0  0  0  0
  -32.5320  -11.8777   23.7873 C   0  0  0  0  0  0  0  0  0  0  0  0
  -23.0001   -9.8942   19.9808 C   0  0  0  0  0  0  0  0  0  0  0  0
  -23.7252   -9.9445   22.2849 C   0  0  0  0  0  0  0  0  0  0  0  0
  -31.9809   -9.5374   23.6005 C   0  0  0  0  0  0  0  0  0  0  0  0
  -31.3077  -12.1131   24.4121 C   0  0  0  0  0  0  0  0  0  0  0  0
  -31.7435  -15.1053   28.4743 C   0  0  0  0  0  0  0  0  0  0  0  0
  -31.6385  -19.3383   22.7367 C   0  0  0  0  0  0  0  0  0  0  0  0
  -22.2334   -8.7598   20.2468 C   0  0  0  0  0  0  0  0  0  0  0  0
  -22.9584   -8.8101   22.5509 C   0  0  0  0  0  0  0  0  0  0  0  0
  -31.8816  -16.4736   28.2454 C   0  0  0  0  0  0  0  0  0  0  0  0
  -23.2021   -5.4712   22.0782 C   0  0  0  0  0  0  0  0  0  0  0  0
  -32.0534  -18.7726   21.5311 C   0  0  0  0  0  0  0  0  0  0  0  0
  -23.7894   -4.4537   22.8301 C   0  0  0  0  0  0  0  0  0  0  0  0
  -29.5384  -16.7846   28.7270 C   0  0  0  0  0  0  0  0  0  0  0  0
  -22.0655   -4.6966   24.5053 C   0  0  0  0  0  0  0  0  0  0  0  0
  -23.7461  -10.4865   20.9998 C   0  0  0  0  0  0  0  0  0  0  0  0
  -24.1319  -13.0021   20.8244 C   0  0  0  0  0  0  0  0  0  0  0  0
  -30.7493   -9.7583   24.2369 C   0  0  0  0  0  0  0  0  0  0  0  0
  -30.4973  -14.5639   28.8213 C   0  0  0  0  0  0  0  0  0  0  0  0
  -30.4026  -11.0624   24.6389 C   0  0  0  0  0  0  0  0  0  0  0  0
  -29.3877  -15.4095   28.9623 C   0  0  0  0  0  0  0  0  0  0  0  0
  -30.1808  -17.4503   23.1210 C   0  0  0  0  0  0  0  0  0  0  0  0
  -30.7022  -18.6771   23.5317 C   0  0  0  0  0  0  0  0  0  0  0  0
  -30.5957  -16.8846   21.9154 C   0  0  0  0  0  0  0  0  0  0  0  0
  -22.2125   -8.2177   21.5319 C   0  0  0  0  0  0  0  0  0  0  0  0
  -30.7784  -17.3131   28.3689 C   0  0  0  0  0  0  0  0  0  0  0  0
  -22.0465   -6.1015   22.5399 C   0  0  0  0  0  0  0  0  0  0  0  0
  -23.2212   -4.0664   24.0436 C   0  0  0  0  0  0  0  0  0  0  0  0
  -31.5320  -17.5458   21.1204 C   0  0  0  0  0  0  0  0  0  0  0  0
  -21.4782   -5.7141   23.7534 C   0  0  0  0  0  0  0  0  0  0  0  0
  -24.5388  -11.6580   20.7255 C   0  0  0  0  0  0  0  0  0  0  0  0
  -25.2419  -13.7245   20.4603 C   0  0  0  0  0  0  0  0  0  0  0  0
  -22.8641  -13.5486   21.2111 C   0  0  0  0  0  0  0  0  0  0  0  0
  -28.5220  -12.4534   27.4993 C   0  0  0  0  0  0  0  0  0  0  0  0
  -26.8855  -12.8314   30.2744 C   0  0  0  0  0  0  0  0  0  0  0  0
  -31.0415  -20.1033   25.5798 C   0  0  0  0  0  0  0  0  0  0  0  0
  -26.1763  -14.7931   32.9754 C   0  0  0  0  0  0  0  0  0  0  0  0
  -30.7215  -14.6845   20.6947 C   0  0  0  0  0  0  0  0  0  0  0  0
  -29.8028   -8.5969   24.4097 C   0  0  0  0  0  0  0  0  0  0  0  0
  -30.3707  -13.0896   29.0910 C   0  0  0  0  0  0  0  0  0  0  0  0
  -28.0323  -14.8809   29.3523 C   0  0  0  0  0  0  0  0  0  0  0  0
  -28.6860   -8.8657   25.4151 C   0  0  0  0  0  0  0  0  0  0  0  0
  -29.6028  -12.2324   18.3681 C   0  0  0  0  0  0  0  0  0  0  0  0
  -28.0610  -10.2346   25.1654 C   0  0  0  0  0  0  0  0  0  0  0  0
  -28.1522  -11.9750   18.7821 C   0  0  0  0  0  0  0  0  0  0  0  0
  -30.5034  -12.4753   19.5780 C   0  0  0  0  0  0  0  0  0  0  0  0
  -28.5881  -13.2643   20.9116 C   0  0  0  0  0  0  0  0  0  0  0  0
  -29.0946  -11.3535   25.3421 C   0  0  1  0  0  0  0  0  0  0  0  0
  -28.9431  -12.5743   28.9365 C   0  0  1  0  0  0  0  0  0  0  0  0
  -27.6304  -13.0784   19.7233 C   0  0  2  0  0  0  0  0  0  0  0  0
  -29.1749  -16.7407   23.9739 C   0  0  0  0  0  0  0  0  0  0  0  0
  -24.7724  -14.8496   35.0547 C   0  0  0  0  0  0  0  0  0  0  0  0
  -24.4193  -13.4546   28.5894 C   0  0  0  0  0  0  0  0  0  0  0  0
  -23.3460  -14.4103   30.6395 C   0  0  0  0  0  0  0  0  0  0  0  0
  -23.9846  -11.9997   30.5766 C   0  0  0  0  0  0  0  0  0  0  0  0
  -28.5609  -14.9591   34.7204 C   0  0  0  0  0  0  0  0  0  0  0  0
  -30.2213  -20.5189   26.7958 C   0  0  0  0  0  0  0  0  0  0  0  0
  -29.7673  -19.3392   27.6420 C   0  0  0  0  0  0  0  0  0  1  0  0
  -25.7936  -13.7570   30.7540 C   0  0  1  0  0  0  0  0  0  0  0  0
  -26.1230  -14.4818   34.4602 C   0  0  2  0  0  0  0  0  0  0  0  0
  -24.4109  -13.4154   30.1306 C   0  0  0  0  0  0  0  0  0  0  0  0
  -25.8081  -11.5314   20.3293 N   0  0  0  0  0  0  0  0  0  0  0  0
  -26.2083  -12.8051   20.1761 N   0  0  0  0  0  0  0  0  0  0  0  0
  -27.9580  -13.4314   29.5993 N   0  0  0  0  0  0  0  0  0  0  0  0
  -29.9485  -13.5362   20.4215 N   0  0  0  0  0  0  0  0  0  0  0  0
  -25.4756  -15.0502   20.3585 N   0  0  0  0  0  0  0  0  0  0  0  0
  -21.8321  -12.6646   21.5543 N   0  0  0  0  0  0  0  0  0  0  0  0
  -30.2957  -19.2694   24.7510 N   0  0  0  0  0  0  0  0  0  0  0  0
  -30.0774  -15.6396   21.4804 N   0  0  0  0  0  0  0  0  0  0  0  0
  -29.3220  -11.6142   26.7474 N   0  0  0  0  0  0  0  0  0  0  0  0
  -25.8222  -13.7011   32.2116 N   0  0  0  0  0  0  0  0  0  0  0  0
  -27.1791  -15.2417   35.1870 N   0  3  0  0  0  0  0  0  0  0  0  0
  -22.6476  -14.7840   21.2351 O   0  0  0  0  0  0  0  0  0  0  0  0
  -27.5429  -13.0742   27.1022 O   0  0  0  0  0  0  0  0  0  0  0  0
  -26.7938  -11.6216   30.4969 O   0  0  0  0  0  0  0  0  0  0  0  0
  -32.1953  -20.4829   25.4099 O   0  0  0  0  0  0  0  0  0  0  0  0
  -26.4961  -15.8959   32.5371 O   0  0  0  0  0  0  0  0  0  0  0  0
  -31.8602  -14.8233   20.2407 O   0  0  0  0  0  0  0  0  0  0  0  0
  -21.4642   -7.1109   21.7919 O   0  0  0  0  0  0  0  0  0  0  0  0
  -30.9103  -18.6489   28.1453 O   0  0  0  0  0  0  0  0  0  1  0  0
  -23.7844   -3.0882   24.7648 F   0  0  0  0  0  0  0  0  0  0  0  0
  -31.9378  -17.0130   19.9589 F   0  0  0  0  0  0  0  0  0  0  0  0
  -20.3675   -6.3151   24.2015 F   0  0  0  0  0  0  0  0  0  0  0  0
  1  2  1  0  0  0  0
  1  5  2  0  0  0  0
  2  6  2  0  0  0  0
  3  9  2  0  0  0  0
  3 17  1  0  0  0  0
  4 10  1  0  0  0  0
  4 17  2  0  0  0  0
  5 19  1  0  0  0  0
  6 21  1  0  0  0  0
  7 11  2  0  0  0  0
  7 20  1  0  0  0  0
  8 13  2  0  0  0  0
  8 24  1  0  0  0  0
  9 26  1  0  0  0  0
 10 26  2  0  0  0  0
 11 27  1  0  0  0  0
 12 14  2  0  0  0  0
 12 28  1  0  0  0  0
 13 30  1  0  0  0  0
 14 29  1  0  0  0  0
 15 22  1  0  0  0  0
 15 27  2  0  0  0  0
 16 29  2  0  0  0  0
 16 31  1  0  0  0  0
 17 32  1  0  0  0  0
 18 32  1  0  0  0  0
 18 33  2  0  0  0  0
 18 34  1  0  0  0  0
 19 21  2  0  0  0  0
 19 40  1  0  0  0  0
 20 22  2  0  0  0  0
 20 41  1  0  0  0  0
 21 49  1  0  0  0  0
 22 42  1  0  0  0  0
 23 24  2  0  0  0  0
 23 25  1  0  0  0  0
 23 52  1  0  0  0  0
 24 69  1  0  0  0  0
 25 30  2  0  0  0  0
 25 70  1  0  0  0  0
 26 80  1  0  0  0  0
 27 81  1  0  0  0  0
 28 31  2  0  0  0  0
 28 80  1  0  0  0  0
 29 82  1  0  0  0  0
 30 83  1  0  0  0  0
 31 84  1  0  0  0  0
 32 63  2  0  0  0  0
 33 64  1  0  0  0  0
 33 67  1  0  0  0  0
 34 68  1  0  0  0  0
 34 74  2  0  0  0  0
 35 50  1  0  0  0  0
 35 71  1  0  0  0  0
 35 75  2  0  0  0  0
 36 60  1  0  0  0  0
 36 65  1  0  0  0  0
 36 76  2  0  0  0  0
 37 58  1  0  0  0  0
 37 69  1  0  0  0  0
 37 77  2  0  0  0  0
 38 61  1  0  0  0  0
 38 72  1  0  0  0  0
 38 78  2  0  0  0  0
 39 66  1  0  0  0  0
 39 70  1  0  0  0  0
 39 79  2  0  0  0  0
 40 43  1  0  0  0  0
 41 50  1  0  0  0  0
 42 65  1  0  0  0  0
 43 45  1  0  0  0  0
 44 46  1  0  0  0  0
 44 47  1  0  0  0  0
 45 49  1  0  0  0  0
 46 51  1  0  0  0  0
 47 66  1  0  0  0  0
 48 51  1  0  0  0  0
 48 66  1  0  0  0  0
 49 71  1  0  0  0  0
 50 65  1  0  0  0  0
 51 64  1  0  0  0  0
 53 61  1  0  0  0  0
 54 62  1  0  0  0  0
 55 62  1  0  0  0  0
 56 62  1  0  0  0  0
 57 73  1  0  0  0  0
 58 59  1  0  0  0  0
 59 81  1  0  0  0  0
 60 62  1  0  0  0  0
 60 72  1  0  0  0  0
 61 73  1  0  0  0  0
 63 64  1  0  0  0  0
M  CHG  1  73   1
M  ISO  4  39 100  59 101  70 100  81 101
M  END
> <Batch ID>
0067

> <Smiles>
CNC(C)C(=O)NC(C(=O)N1Cc2cc([101O:1][101CH2:1]CC(=O)Nc3ccc(F)c([100NH:0][100C:0](=O)N4CCCC(n5nc(-c6ccc(Oc7ccc(F)cc7F)cc6)c(C(N)=O)c5N)C4)c3C)ccc2CC1C(=O)NC1CCCc2ccccc21)C(C)(C)C

> <Shape>
0.177

> <Color>
0.198

> <Negative vol penalty>
0.000

$$$$

  -OEChem-04042323243D

 85 93  0     1  0  0  0  0  0999 V2000
  -26.5463  -20.1147   26.5212 C   0  0  0  0  0  0  0  0  0  0  0  0
  -26.9094  -20.8761   25.4149 C   0  0  0  0  0  0  0  0  0  0  0  0
  -32.2135  -22.2502   15.8124 C   0  0  0  0  0  0  0  0  0  0  0  0
  -27.1773  -12.7056   20.9890 C   0  0  0  0  0  0  0  0  0  0  0  0
  -27.0900  -13.0347   18.5971 C   0  0  0  0  0  0  0  0  0  0  0  0
  -25.2088  -20.0434   26.9084 C   0  0  0  0  0  0  0  0  0  0  0  0
  -25.9349  -21.5659   24.6945 C   0  0  0  0  0  0  0  0  0  0  0  0
  -27.3362  -26.3011   23.5724 C   0  0  0  0  0  0  0  0  0  0  0  0
  -31.5669  -21.4918   16.7882 C   0  0  0  0  0  0  0  0  0  0  0  0
  -26.4615  -11.5164   20.8515 C   0  0  0  0  0  0  0  0  0  0  0  0
  -26.3741  -11.8454   18.4596 C   0  0  0  0  0  0  0  0  0  0  0  0
  -28.2269  -26.4673   22.5128 C   0  0  0  0  0  0  0  0  0  0  0  0
  -24.3449   -8.5762   21.1658 C   0  0  0  0  0  0  0  0  0  0  0  0
  -23.2952   -8.3429   22.0543 C   0  0  0  0  0  0  0  0  0  0  0  0
  -31.6754  -23.4722   15.4087 C   0  0  0  0  0  0  0  0  0  0  0  0
  -26.3887  -27.0632   21.0689 C   0  0  0  0  0  0  0  0  0  0  0  0
  -29.8440  -23.1772   16.9565 C   0  0  0  0  0  0  0  0  0  0  0  0
  -22.1939  -10.3490   21.2799 C   0  0  0  0  0  0  0  0  0  0  0  0
  -27.4915  -13.4648   19.8618 C   0  0  0  0  0  0  0  0  0  0  0  0
  -29.6289  -14.8529   19.9738 C   0  0  0  0  0  0  0  0  0  0  0  0
  -24.2187  -20.7404   26.1981 C   0  0  0  0  0  0  0  0  0  0  0  0
  -25.9614  -26.5044   23.3851 C   0  0  0  0  0  0  0  0  0  0  0  0
  -24.5827  -21.5028   25.0717 C   0  0  0  0  0  0  0  0  0  0  0  0
  -25.4829  -26.9014   22.1284 C   0  0  0  0  0  0  0  0  0  0  0  0
  -30.3821  -21.9552   17.3603 C   0  0  0  0  0  0  0  0  0  0  0  0
  -26.0599  -11.0863   19.5869 C   0  0  0  0  0  0  0  0  0  0  0  0
  -27.7529  -26.8456   21.2601 C   0  0  0  0  0  0  0  0  0  0  0  0
  -24.3191   -9.6960   20.3344 C   0  0  0  0  0  0  0  0  0  0  0  0
  -22.2197   -9.2293   22.1113 C   0  0  0  0  0  0  0  0  0  0  0  0
  -23.2436  -10.5823   20.3915 C   0  0  0  0  0  0  0  0  0  0  0  0
  -30.4906  -23.9356   15.9807 C   0  0  0  0  0  0  0  0  0  0  0  0
  -28.2305  -14.6937   20.0032 C   0  0  0  0  0  0  0  0  0  0  0  0
  -29.8248  -16.2007   20.1512 C   0  0  0  0  0  0  0  0  0  0  0  0
  -30.6587  -13.8703   19.8015 C   0  0  0  0  0  0  0  0  0  0  0  0
  -23.3714  -24.6766   23.6184 C   0  0  0  0  0  0  0  0  0  0  0  0
  -21.8237  -27.4764   23.0814 C   0  0  0  0  0  0  0  0  0  0  0  0
  -29.2376  -26.2791   18.0017 C   0  0  0  0  0  0  0  0  0  0  0  0
  -21.9142  -30.6366   21.7961 C   0  0  0  0  0  0  0  0  0  0  0  0
  -28.5425  -21.4997   19.0200 C   0  0  0  0  0  0  0  0  0  0  0  0
  -22.7799  -20.5949   26.6263 C   0  0  0  0  0  0  0  0  0  0  0  0
  -25.0168  -26.3469   24.5450 C   0  0  0  0  0  0  0  0  0  0  0  0
  -24.0186  -27.1518   21.8803 C   0  0  0  0  0  0  0  0  0  0  0  0
  -21.8575  -21.6570   26.0333 C   0  0  0  0  0  0  0  0  0  0  0  0
  -26.5864  -19.8510   21.4964 C   0  0  0  0  0  0  0  0  0  0  0  0
  -22.1204  -21.8185   24.5394 C   0  0  0  0  0  0  0  0  0  0  0  0
  -26.9548  -18.3754   21.3263 C   0  0  0  0  0  0  0  0  0  0  0  0
  -26.5323  -20.5803   20.1552 C   0  0  0  0  0  0  0  0  0  0  0  0
  -28.1046  -18.9688   19.1554 C   0  0  0  0  0  0  0  0  0  0  0  0
  -23.5578  -22.2852   24.2795 C   0  0  1  0  0  0  0  0  0  0  0  0
  -23.5784  -26.0806   24.1121 C   0  0  1  0  0  0  0  0  0  0  0  0
  -28.2351  -18.2076   20.4848 C   0  0  2  0  0  0  0  0  0  0  0  0
  -20.4844  -32.6735   21.4731 C   0  0  0  0  0  0  0  0  0  0  0  0
  -20.3653  -26.0864   20.7900 C   0  0  0  0  0  0  0  0  0  0  0  0
  -19.7017  -28.3441   19.9351 C   0  0  0  0  0  0  0  0  0  0  0  0
  -18.9291  -27.5869   22.1829 C   0  0  0  0  0  0  0  0  0  0  0  0
  -28.1214  -26.1769   13.6038 C   0  0  0  0  0  0  0  0  0  0  0  0
  -23.7253  -32.3098   23.4329 C   0  0  0  0  0  0  0  0  0  0  0  0
  -28.1223  -26.7438   18.9129 C   0  0  0  0  0  0  0  0  0  1  0  0
  -21.3546  -28.2204   21.8545 C   0  0  1  0  0  0  0  0  0  0  0  0
  -21.4871  -31.9727   22.3766 C   0  0  2  0  0  0  0  0  0  0  0  0
  -20.1151  -27.5529   21.1945 C   0  0  0  0  0  0  0  0  0  0  0  0
  -27.5838  -15.8481   20.1851 N   0  0  0  0  0  0  0  0  0  0  0  0
  -28.8710  -25.1337   14.2924 N   0  0  0  0  0  0  0  0  0  0  0  0
  -28.5803  -16.7456   20.2718 N   0  0  0  0  0  0  0  0  0  0  0  0
  -23.1339  -26.9786   23.0443 N   0  0  0  0  0  0  0  0  0  0  0  0
  -27.7802  -20.3801   19.4154 N   0  0  0  0  0  0  0  0  0  0  0  0
  -30.9385  -16.9611   20.2145 N   0  0  0  0  0  0  0  0  0  0  0  0
  -30.2826  -12.5309   19.6317 N   0  0  0  0  0  0  0  0  0  0  0  0
  -29.7253  -21.1850   18.3518 N   0  0  0  0  0  0  0  0  0  0  0  0
  -23.6852  -23.7019   24.5462 N   0  0  0  0  0  0  0  0  0  0  0  0
  -21.1379  -29.6013   22.2724 N   0  0  0  0  0  0  0  0  0  0  0  0
  -28.7735  -26.0354   16.7188 N   0  0  0  0  0  0  0  0  0  0  0  0
  -22.6688  -32.8645   22.5479 N   0  3  0  0  0  0  0  0  0  0  0  0
  -31.8770  -14.1689   19.8145 O   0  0  0  0  0  0  0  0  0  0  0  0
  -22.9561  -24.4914   22.4804 O   0  0  0  0  0  0  0  0  0  0  0  0
  -21.0584  -27.3481   24.0403 O   0  0  0  0  0  0  0  0  0  0  0  0
  -30.3951  -26.1427   18.3878 O   0  0  0  0  0  0  0  0  0  0  0  0
  -22.8410  -30.5232   20.9970 O   0  0  0  0  0  0  0  0  0  0  0  0
  -28.1868  -22.6518   19.2807 O   0  0  0  0  0  0  0  0  0  0  0  0
  -30.9007  -26.4404   15.4467 O   0  0  0  0  0  0  0  0  0  0  0  0
  -25.3616   -9.9258   19.4523 O   0  0  0  0  0  0  0  0  0  0  0  0
  -28.6201  -27.0080   20.2240 O   0  0  0  0  0  0  0  0  0  1  0  0
  -21.2110   -9.0043   22.9635 F   0  0  0  0  0  0  0  0  0  0  0  0
  -23.2127  -11.6592   19.5944 F   0  0  0  0  0  0  0  0  0  0  0  0
  -29.8085  -25.4841   15.4679 S   0  0  1  0  0  0  0  0  0  0  0  0
  1  2  1  0  0  0  0
  1  6  2  0  0  0  0
  2  7  2  0  0  0  0
  3  9  1  0  0  0  0
  3 15  2  0  0  0  0
  4 10  2  0  0  0  0
  4 19  1  0  0  0  0
  5 11  1  0  0  0  0
  5 19  2  0  0  0  0
  6 21  1  0  0  0  0
  7 23  1  0  0  0  0
  8 12  2  0  0  0  0
  8 22  1  0  0  0  0
  9 25  2  0  0  0  0
 10 26  1  0  0  0  0
 11 26  2  0  0  0  0
 12 27  1  0  0  0  0
 13 14  2  0  0  0  0
 13 28  1  0  0  0  0
 14 29  1  0  0  0  0
 15 31  1  0  0  0  0
 16 24  1  0  0  0  0
 16 27  2  0  0  0  0
 17 25  1  0  0  0  0
 17 31  2  0  0  0  0
 18 29  2  0  0  0  0
 18 30  1  0  0  0  0
 19 32  1  0  0  0  0
 20 32  1  0  0  0  0
 20 33  2  0  0  0  0
 20 34  1  0  0  0  0
 21 23  2  0  0  0  0
 21 40  1  0  0  0  0
 22 24  2  0  0  0  0
 22 41  1  0  0  0  0
 23 49  1  0  0  0  0
 24 42  1  0  0  0  0
 25 69  1  0  0  0  0
 26 81  1  0  0  0  0
 27 82  1  0  0  0  0
 28 30  2  0  0  0  0
 28 81  1  0  0  0  0
 29 83  1  0  0  0  0
 30 84  1  0  0  0  0
 31 85  1  0  0  0  0
 32 62  2  0  0  0  0
 33 64  1  0  0  0  0
 33 67  1  0  0  0  0
 34 68  1  0  0  0  0
 34 74  2  0  0  0  0
 35 50  1  0  0  0  0
 35 70  1  0  0  0  0
 35 75  2  0  0  0  0
 36 59  1  0  0  0  0
 36 65  1  0  0  0  0
 36 76  2  0  0  0  0
 37 58  1  0  0  0  0
 37 72  1  0  0  0  0
 37 77  2  0  0  0  0
 38 60  1  0  0  0  0
 38 71  1  0  0  0  0
 38 78  2  0  0  0  0
 39 66  1  0  0  0  0
 39 69  1  0  0  0  0
 39 79  2  0  0  0  0
 40 43  1  0  0  0  0
 41 50  1  0  0  0  0
 42 65  1  0  0  0  0
 43 45  1  0  0  0  0
 44 46  1  0  0  0  0
 44 47  1  0  0  0  0
 45 49  1  0  0  0  0
 46 51  1  0  0  0  0
 47 66  1  0  0  0  0
 48 51  1  0  0  0  0
 48 66  1  0  0  0  0
 49 70  1  0  0  0  0
 50 65  1  0  0  0  0
 51 64  1  0  0  0  0
 52 60  1  0  0  0  0
 53 61  1  0  0  0  0
 54 61  1  0  0  0  0
 55 61  1  0  0  0  0
 56 63  1  0  0  0  0
 57 73  1  0  0  0  0
 58 82  1  0  0  0  0
 59 61  1  0  0  0  0
 59 71  1  0  0  0  0
 60 73  1  0  0  0  0
 62 64  1  0  0  0  0
 63 85  2  0  0  0  0
 72 85  1  0  0  0  0
 80 85  2  0  0  0  0
M  CHG  1  73   1
M  ISO  4  39 100  58 101  69 100  82 101
M  END
> <Batch ID>
0067

> <Smiles>
CN=S(=O)(NC(=O)[101CH2:1][101O:1]c1ccc2c(c1)CN(C(=O)C(NC(=O)C(C)NC)C(C)(C)C)C(C(=O)NC1CCCc3ccccc31)C2)c1cccc([100NH:0][100C:0](=O)N2CCCC(n3nc(-c4ccc(Oc5ccc(F)cc5F)cc4)c(C(N)=O)c3N)C2)c1

> <Shape>
0.226

> <Color>
0.084

> <Negative vol penalty>
0.000

$$$$

  -OEChem-04042323243D

 85 93  0     1  0  0  0  0  0999 V2000
  -19.1104  -24.1446   23.1808 C   0  0  0  0  0  0  0  0  0  0  0  0
  -20.4317  -24.2637   22.7619 C   0  0  0  0  0  0  0  0  0  0  0  0
  -24.0575  -11.1325   23.4647 C   0  0  0  0  0  0  0  0  0  0  0  0
  -23.3344  -13.3922   23.0089 C   0  0  0  0  0  0  0  0  0  0  0  0
  -18.2827  -25.2664   23.2004 C   0  0  0  0  0  0  0  0  0  0  0  0
  -20.9257  -25.5046   22.3613 C   0  0  0  0  0  0  0  0  0  0  0  0
  -25.5026  -26.4889   24.2922 C   0  0  0  0  0  0  0  0  0  0  0  0
  -23.3907  -11.1661   24.6894 C   0  0  0  0  0  0  0  0  0  0  0  0
  -22.6676  -13.4259   24.2336 C   0  0  0  0  0  0  0  0  0  0  0  0
  -26.5951  -25.8674   23.6891 C   0  0  0  0  0  0  0  0  0  0  0  0
  -20.2144  -10.8539   25.8057 C   0  0  0  0  0  0  0  0  0  0  0  0
  -19.4430   -9.7454   26.1545 C   0  0  0  0  0  0  0  0  0  0  0  0
  -28.3230  -20.0995   19.2712 C   0  0  0  0  0  0  0  0  0  0  0  0
  -27.0759  -27.8988   22.4802 C   0  0  0  0  0  0  0  0  0  0  0  0
  -30.5298  -18.3987   19.4120 C   0  0  0  0  0  0  0  0  0  0  0  0
  -20.8036   -9.4183   28.1240 C   0  0  0  0  0  0  0  0  0  0  0  0
  -24.0294  -12.2455   22.6245 C   0  0  0  0  0  0  0  0  0  0  0  0
  -29.6030  -20.6298   19.4325 C   0  0  0  0  0  0  0  0  0  0  0  0
  -24.1986  -11.7953   20.1192 C   0  0  0  0  0  0  0  0  0  0  0  0
  -18.7696  -26.5235   22.8090 C   0  0  0  0  0  0  0  0  0  0  0  0
  -25.1814  -27.8190   23.9850 C   0  0  0  0  0  0  0  0  0  0  0  0
  -20.1033  -26.6441   22.3744 C   0  0  0  0  0  0  0  0  0  0  0  0
  -25.9803  -28.5357   23.0826 C   0  0  0  0  0  0  0  0  0  0  0  0
  -30.7064  -19.7794   19.5028 C   0  0  0  0  0  0  0  0  0  0  0  0
  -29.2497  -17.8684   19.2507 C   0  0  0  0  0  0  0  0  0  0  0  0
  -22.6958  -12.3128   25.0739 C   0  0  0  0  0  0  0  0  0  0  0  0
  -27.3803  -26.5713   22.7808 C   0  0  0  0  0  0  0  0  0  0  0  0
  -21.2804  -11.2446   26.6160 C   0  0  0  0  0  0  0  0  0  0  0  0
  -19.7376   -9.0275   27.3136 C   0  0  0  0  0  0  0  0  0  0  0  0
  -28.1464  -18.7189   19.1804 C   0  0  0  0  0  0  0  0  0  0  0  0
  -21.5750  -10.5268   27.7751 C   0  0  0  0  0  0  0  0  0  0  0  0
  -24.7184  -12.2116   21.3595 C   0  0  0  0  0  0  0  0  0  0  0  0
  -25.2417  -11.9525   19.2396 C   0  0  0  0  0  0  0  0  0  0  0  0
  -29.7630  -22.0954   19.5272 C   0  0  0  0  0  0  0  0  0  0  0  0
  -22.8899  -11.3099   19.7915 C   0  0  0  0  0  0  0  0  0  0  0  0
  -22.6763  -29.2781   22.6816 C   0  0  0  0  0  0  0  0  0  0  0  0
  -24.3219  -31.9605   23.4686 C   0  0  0  0  0  0  0  0  0  0  0  0
  -29.1677  -24.1571   20.7784 C   0  0  0  0  0  0  0  0  0  0  0  0
  -27.3309  -33.4164   24.1564 C   0  0  0  0  0  0  0  0  0  0  0  0
  -30.0617  -15.4840   19.2123 C   0  0  0  0  0  0  0  0  0  0  0  0
  -17.8238  -27.6983   22.8022 C   0  0  0  0  0  0  0  0  0  0  0  0
  -24.0155  -28.4834   24.6643 C   0  0  0  0  0  0  0  0  0  0  0  0
  -25.6900  -29.9720   22.7342 C   0  0  0  0  0  0  0  0  0  0  0  0
  -18.5305  -29.0488   22.7182 C   0  0  0  0  0  0  0  0  0  0  0  0
  -30.0273  -11.9268   19.0625 C   0  0  0  0  0  0  0  0  0  0  0  0
  -19.6062  -29.0221   21.6371 C   0  0  0  0  0  0  0  0  0  0  0  0
  -28.6127  -11.5585   19.5159 C   0  0  0  0  0  0  0  0  0  0  0  0
  -30.5726  -13.1313   19.8278 C   0  0  0  0  0  0  0  0  0  0  0  0
  -28.2913  -13.9485   20.2722 C   0  0  0  0  0  0  0  0  0  0  0  0
  -20.6830  -27.9778   21.9558 C   0  0  1  0  0  0  0  0  0  0  0  0
  -23.4753  -29.6809   23.8887 C   0  0  1  0  0  0  0  0  0  0  0  0
  -27.6747  -12.7811   19.4844 C   0  0  2  0  0  0  0  0  0  0  0  0
  -28.3630  -35.6318   24.7257 C   0  0  0  0  0  0  0  0  0  0  0  0
  -24.0373  -32.8377   20.5601 C   0  0  0  0  0  0  0  0  0  0  0  0
  -25.8480  -34.5192   20.9629 C   0  0  0  0  0  0  0  0  0  0  0  0
  -23.7084  -34.6634   22.2373 C   0  0  0  0  0  0  0  0  0  0  0  0
  -28.3360  -32.4119   26.7525 C   0  0  0  0  0  0  0  0  0  0  0  0
  -28.3639  -24.5568   21.9870 C   0  0  0  0  0  0  0  0  0  1  0  0
  -25.3534  -32.8222   22.7813 C   0  0  1  0  0  0  0  0  0  0  0  0
  -27.7686  -34.3444   25.2752 C   0  0  2  0  0  0  0  0  0  0  0  0
  -24.7413  -33.6830   21.6403 C   0  0  0  0  0  0  0  0  0  0  0  0
  -25.9927  -12.6036   21.2791 N   0  0  0  0  0  0  0  0  0  0  0  0
  -26.2824  -12.4343   19.9777 N   0  0  0  0  0  0  0  0  0  0  0  0
  -24.5355  -30.5756   23.4199 N   0  0  0  0  0  0  0  0  0  0  0  0
  -29.6331  -14.2522   19.7505 N   0  0  0  0  0  0  0  0  0  0  0  0
  -32.0101  -20.2983   19.6659 N   0  0  0  0  0  0  0  0  0  0  0  0
  -25.3610  -11.7241   17.9144 N   0  0  0  0  0  0  0  0  0  0  0  0
  -21.9381  -11.2112   20.8156 N   0  0  0  0  0  0  0  0  0  0  0  0
  -29.0726  -16.4656   19.1597 N   0  0  0  0  0  0  0  0  0  0  0  0
  -29.1415  -22.7355   20.5273 N   0  0  0  0  0  0  0  0  0  0  0  0
  -21.5874  -28.4775   22.9692 N   0  0  0  0  0  0  0  0  0  0  0  0
  -26.0030  -33.5980   23.8323 N   0  0  0  0  0  0  0  0  0  0  0  0
  -30.5208  -22.6970   18.6108 N   0  3  0  0  0  0  0  0  0  0  0  0
  -28.7941  -33.6797   26.1281 N   0  3  0  0  0  0  0  0  0  0  0  0
  -22.5788  -10.9583   18.6283 O   0  0  0  0  0  0  0  0  0  0  0  0
  -23.0214  -29.6662   21.5716 O   0  0  0  0  0  0  0  0  0  0  0  0
  -23.3657  -32.4967   24.0342 O   0  0  0  0  0  0  0  0  0  0  0  0
  -29.7907  -24.9272   20.0617 O   0  0  0  0  0  0  0  0  0  0  0  0
  -28.0918  -32.6135   23.6208 O   0  0  0  0  0  0  0  0  0  0  0  0
  -31.2135  -15.6470   18.8014 O   0  0  0  0  0  0  0  0  0  0  0  0
  -22.0448  -12.3459   26.2687 O   0  0  0  0  0  0  0  0  0  0  0  0
  -28.4469  -25.9668   22.1903 O   0  0  0  0  0  0  0  0  0  1  0  0
  -18.9958   -7.9640   27.6493 F   0  0  0  0  0  0  0  0  0  0  0  0
  -26.9115  -18.2197   19.0275 F   0  0  0  0  0  0  0  0  0  0  0  0
  -22.5972  -10.8981   28.5581 F   0  0  0  0  0  0  0  0  0  0  0  0
  1  2  1  0  0  0  0
  1  5  2  0  0  0  0
  2  6  2  0  0  0  0
  3  8  2  0  0  0  0
  3 17  1  0  0  0  0
  4  9  1  0  0  0  0
  4 17  2  0  0  0  0
  5 20  1  0  0  0  0
  6 22  1  0  0  0  0
  7 10  2  0  0  0  0
  7 21  1  0  0  0  0
  8 26  1  0  0  0  0
  9 26  2  0  0  0  0
 10 27  1  0  0  0  0
 11 12  2  0  0  0  0
 11 28  1  0  0  0  0
 12 29  1  0  0  0  0
 13 18  1  0  0  0  0
 13 30  2  0  0  0  0
 14 23  1  0  0  0  0
 14 27  2  0  0  0  0
 15 24  1  0  0  0  0
 15 25  2  0  0  0  0
 16 29  2  0  0  0  0
 16 31  1  0  0  0  0
 17 32  1  0  0  0  0
 18 24  2  0  0  0  0
 18 34  1  0  0  0  0
 19 32  1  0  0  0  0
 19 33  2  0  0  0  0
 19 35  1  0  0  0  0
 20 22  2  0  0  0  0
 20 41  1  0  0  0  0
 21 23  2  0  0  0  0
 21 42  1  0  0  0  0
 22 50  1  0  0  0  0
 23 43  1  0  0  0  0
 24 66  1  0  0  0  0
 25 30  1  0  0  0  0
 25 69  1  0  0  0  0
 26 81  1  0  0  0  0
 27 82  1  0  0  0  0
 28 31  2  0  0  0  0
 28 81  1  0  0  0  0
 29 83  1  0  0  0  0
 30 84  1  0  0  0  0
 31 85  1  0  0  0  0
 32 62  2  0  0  0  0
 33 63  1  0  0  0  0
 33 67  1  0  0  0  0
 34 70  1  0  0  0  0
 34 73  2  0  0  0  0
 35 68  1  0  0  0  0
 35 75  2  0  0  0  0
 36 51  1  0  0  0  0
 36 71  1  0  0  0  0
 36 76  2  0  0  0  0
 37 59  1  0  0  0  0
 37 64  1  0  0  0  0
 37 77  2  0  0  0  0
 38 58  1  0  0  0  0
 38 70  1  0  0  0  0
 38 78  2  0  0  0  0
 39 60  1  0  0  0  0
 39 72  1  0  0  0  0
 39 79  2  0  0  0  0
 40 65  1  0  0  0  0
 40 69  1  0  0  0  0
 40 80  2  0  0  0  0
 41 44  1  0  0  0  0
 42 51  1  0  0  0  0
 43 64  1  0  0  0  0
 44 46  1  0  0  0  0
 45 47  1  0  0  0  0
 45 48  1  0  0  0  0
 46 50  1  0  0  0  0
 47 52  1  0  0  0  0
 48 65  1  0  0  0  0
 49 52  1  0  0  0  0
 49 65  1  0  0  0  0
 50 71  1  0  0  0  0
 51 64  1  0  0  0  0
 52 63  1  0  0  0  0
 53 60  1  0  0  0  0
 54 61  1  0  0  0  0
 55 61  1  0  0  0  0
 56 61  1  0  0  0  0
 57 74  1  0  0  0  0
 58 82  1  0  0  0  0
 59 61  1  0  0  0  0
 59 72  1  0  0  0  0
 60 74  1  0  0  0  0
 62 63  1  0  0  0  0
M  CHG  2  73   1  74   1
M  ISO  4  40 100  58 101  69 100  82 101
M  END
> <Batch ID>
0067

> <Smiles>
CNC(C)C(=O)NC(C(=O)N1Cc2cc([101O:1][101CH2:1]C(=O)NC(=N)c3cc(F)c([100NH:0][100C:0](=O)N4CCCC(n5nc(-c6ccc(Oc7ccc(F)cc7F)cc6)c(C(N)=O)c5N)C4)cc3N)ccc2CC1C(=O)NC1CCCc2ccccc21)C(C)(C)C

> <Shape>
0.271

> <Color>
0.093

> <Negative vol penalty>
0.000

$$$$

  -OEChem-04042323243D

 84 92  0     1  0  0  0  0  0999 V2000
  -17.7229  -30.2116   23.0265 C   0  0  0  0  0  0  0  0  0  0  0  0
  -18.9902  -29.6742   22.8254 C   0  0  0  0  0  0  0  0  0  0  0  0
  -23.1243   -9.8139   20.0205 C   0  0  0  0  0  0  0  0  0  0  0  0
  -23.7546  -10.0246   22.3433 C   0  0  0  0  0  0  0  0  0  0  0  0
  -16.7713  -29.4972   23.7531 C   0  0  0  0  0  0  0  0  0  0  0  0
  -19.3071  -28.4225   23.3519 C   0  0  0  0  0  0  0  0  0  0  0  0
  -22.9743  -24.2001   20.8562 C   0  0  0  0  0  0  0  0  0  0  0  0
  -22.3812   -8.6736   20.3256 C   0  0  0  0  0  0  0  0  0  0  0  0
  -23.0114   -8.8843   22.6484 C   0  0  0  0  0  0  0  0  0  0  0  0
  -24.3095  -23.8669   21.0801 C   0  0  0  0  0  0  0  0  0  0  0  0
  -20.9871   -6.2361   24.1000 C   0  0  0  0  0  0  0  0  0  0  0  0
  -20.1670   -6.2780   25.2275 C   0  0  0  0  0  0  0  0  0  0  0  0
  -23.6135  -22.1121   22.5818 C   0  0  0  0  0  0  0  0  0  0  0  0
  -30.4208  -20.0316   21.1379 C   0  0  0  0  0  0  0  0  0  0  0  0
  -31.0575  -17.8028   20.4567 C   0  0  0  0  0  0  0  0  0  0  0  0
  -29.3286  -18.1113   22.1159 C   0  0  0  0  0  0  0  0  0  0  0  0
  -18.9427   -8.1268   24.2684 C   0  0  0  0  0  0  0  0  0  0  0  0
  -23.8111  -10.4893   21.0294 C   0  0  0  0  0  0  0  0  0  0  0  0
  -24.1295  -13.0009   20.7161 C   0  0  0  0  0  0  0  0  0  0  0  0
  -17.0735  -28.2318   24.2805 C   0  0  0  0  0  0  0  0  0  0  0  0
  -21.9474  -23.4976   21.5030 C   0  0  0  0  0  0  0  0  0  0  0  0
  -18.3591  -27.6910   24.0874 C   0  0  0  0  0  0  0  0  0  0  0  0
  -22.2661  -22.4366   22.3625 C   0  0  0  0  0  0  0  0  0  0  0  0
  -31.2093  -19.1858   20.3578 C   0  0  0  0  0  0  0  0  0  0  0  0
  -29.4804  -19.4943   22.0170 C   0  0  0  0  0  0  0  0  0  0  0  0
  -30.1171  -17.2655   21.3358 C   0  0  0  0  0  0  0  0  0  0  0  0
  -22.3247   -8.2088   21.6395 C   0  0  0  0  0  0  0  0  0  0  0  0
  -24.6294  -22.8247   21.9452 C   0  0  0  0  0  0  0  0  0  0  0  0
  -20.7850   -7.1396   23.0567 C   0  0  0  0  0  0  0  0  0  0  0  0
  -19.1449   -7.2233   25.3118 C   0  0  0  0  0  0  0  0  0  0  0  0
  -19.7628   -8.0849   23.1409 C   0  0  0  0  0  0  0  0  0  0  0  0
  -24.5794  -11.6670   20.7148 C   0  0  0  0  0  0  0  0  0  0  0  0
  -25.2314  -13.7353   20.3513 C   0  0  0  0  0  0  0  0  0  0  0  0
  -22.8316  -13.5290   21.0199 C   0  0  0  0  0  0  0  0  0  0  0  0
  -19.6540  -24.2702   23.5638 C   0  0  0  0  0  0  0  0  0  0  0  0
  -18.7145  -21.2052   23.0685 C   0  0  0  0  0  0  0  0  0  0  0  0
  -19.5542  -18.0332   22.1302 C   0  0  0  0  0  0  0  0  0  0  0  0
  -28.7010  -21.7415   22.8352 C   0  0  0  0  0  0  0  0  0  0  0  0
  -30.6666  -14.8811   20.7364 C   0  0  0  0  0  0  0  0  0  0  0  0
  -16.0274  -27.5179   25.0994 C   0  0  0  0  0  0  0  0  0  0  0  0
  -20.5113  -23.8519   21.2302 C   0  0  0  0  0  0  0  0  0  0  0  0
  -21.2001  -21.6381   23.0657 C   0  0  0  0  0  0  0  0  0  0  0  0
  -16.3223  -26.0342   25.3045 C   0  0  0  0  0  0  0  0  0  0  0  0
  -29.7148  -12.2603   18.5223 C   0  0  0  0  0  0  0  0  0  0  0  0
  -17.7774  -25.8309   25.7144 C   0  0  0  0  0  0  0  0  0  0  0  0
  -28.2569  -11.9820   18.8955 C   0  0  0  0  0  0  0  0  0  0  0  0
  -30.5585  -12.6035   19.7487 C   0  0  0  0  0  0  0  0  0  0  0  0
  -28.5689  -13.4093   20.9576 C   0  0  0  0  0  0  0  0  0  0  0  0
  -18.7327  -26.3253   24.6215 C   0  0  1  0  0  0  0  0  0  0  0  0
  -19.5643  -23.4042   22.3393 C   0  0  1  0  0  0  0  0  0  0  0  0
  -27.6656  -13.1225   19.7471 C   0  0  2  0  0  0  0  0  0  0  0  0
  -32.2157  -19.7608   19.4189 C   0  0  0  0  0  0  0  0  0  0  0  0
  -18.5817  -15.7353   21.8633 C   0  0  0  0  0  0  0  0  0  0  0  0
  -18.7849  -20.8264   26.0953 C   0  0  0  0  0  0  0  0  0  0  0  0
  -18.7478  -18.3519   25.7165 C   0  0  0  0  0  0  0  0  0  0  0  0
  -16.8325  -19.7572   24.9553 C   0  0  0  0  0  0  0  0  0  0  0  0
  -20.1478  -17.9926   19.2311 C   0  0  0  0  0  0  0  0  0  0  0  0
  -26.2568  -21.9520   23.4438 C   0  0  0  0  0  0  0  0  0  1  0  0
  -19.0285  -19.8742   23.7079 C   0  0  1  0  0  0  0  0  0  0  0  0
  -18.8912  -17.0562   21.1761 C   0  0  2  0  0  0  0  0  0  0  0  0
  -27.6890  -22.3026   23.8192 C   0  0  2  0  0  0  0  0  0  0  0  0
  -18.3688  -19.7185   25.1072 C   0  0  0  0  0  0  0  0  0  0  0  0
  -25.8667  -11.5573   20.3759 N   0  0  0  0  0  0  0  0  0  0  0  0
  -26.2351  -12.8317   20.1608 N   0  0  0  0  0  0  0  0  0  0  0  0
  -19.8109  -22.0270   22.7713 N   0  0  0  0  0  0  0  0  0  0  0  0
  -29.9393  -13.6946   20.5043 N   0  0  0  0  0  0  0  0  0  0  0  0
  -25.4299  -15.0593   20.1781 N   0  0  0  0  0  0  0  0  0  0  0  0
  -21.8131  -12.6347   21.3766 N   0  0  0  0  0  0  0  0  0  0  0  0
  -28.6809  -20.3528   22.8082 N   0  0  0  0  0  0  0  0  0  0  0  0
  -29.9637  -15.8605   21.4373 N   0  0  0  0  0  0  0  0  0  0  0  0
  -18.8085  -25.3630   23.5432 N   0  0  0  0  0  0  0  0  0  0  0  0
  -18.6315  -18.8542   22.7433 N   0  0  0  0  0  0  0  0  0  0  0  0
  -19.7816  -16.7834   20.0126 N   0  3  0  0  0  0  0  0  0  0  0  0
  -22.5781  -14.7561   20.9604 O   0  0  0  0  0  0  0  0  0  0  0  0
  -20.4316  -23.9685   24.4616 O   0  0  0  0  0  0  0  0  0  0  0  0
  -17.5402  -21.5017   22.8347 O   0  0  0  0  0  0  0  0  0  0  0  0
  -20.7687  -18.0625   22.3161 O   0  0  0  0  0  0  0  0  0  0  0  0
  -29.4227  -22.4945   22.1878 O   0  0  0  0  0  0  0  0  0  0  0  0
  -31.8181  -15.0287   20.3188 O   0  0  0  0  0  0  0  0  0  0  0  0
  -21.5995   -7.0962   21.9376 O   0  0  0  0  0  0  0  0  0  0  0  0
  -25.9318  -22.4978   22.1660 O   0  0  0  0  0  0  0  0  0  1  0  0
  -18.3565   -7.2624   26.3939 F   0  0  0  0  0  0  0  0  0  0  0  0
  -19.5631   -8.9548   22.1412 F   0  0  0  0  0  0  0  0  0  0  0  0
  -27.7893  -23.6616   23.8825 F   0  0  0  0  0  0  0  0  0  0  0  0
  1  2  1  0  0  0  0
  1  5  2  0  0  0  0
  2  6  2  0  0  0  0
  3  8  2  0  0  0  0
  3 18  1  0  0  0  0
  4  9  1  0  0  0  0
  4 18  2  0  0  0  0
  5 20  1  0  0  0  0
  6 22  1  0  0  0  0
  7 10  2  0  0  0  0
  7 21  1  0  0  0  0
  8 27  1  0  0  0  0
  9 27  2  0  0  0  0
 10 28  1  0  0  0  0
 11 12  2  0  0  0  0
 11 29  1  0  0  0  0
 12 30  1  0  0  0  0
 13 23  1  0  0  0  0
 13 28  2  0  0  0  0
 14 24  2  0  0  0  0
 14 25  1  0  0  0  0
 15 24  1  0  0  0  0
 15 26  2  0  0  0  0
 16 25  2  0  0  0  0
 16 26  1  0  0  0  0
 17 30  2  0  0  0  0
 17 31  1  0  0  0  0
 18 32  1  0  0  0  0
 19 32  1  0  0  0  0
 19 33  2  0  0  0  0
 19 34  1  0  0  0  0
 20 22  2  0  0  0  0
 20 40  1  0  0  0  0
 21 23  2  0  0  0  0
 21 41  1  0  0  0  0
 22 49  1  0  0  0  0
 23 42  1  0  0  0  0
 24 52  1  0  0  0  0
 25 69  1  0  0  0  0
 26 70  1  0  0  0  0
 27 80  1  0  0  0  0
 28 81  1  0  0  0  0
 29 31  2  0  0  0  0
 29 80  1  0  0  0  0
 30 82  1  0  0  0  0
 31 83  1  0  0  0  0
 32 63  2  0  0  0  0
 33 64  1  0  0  0  0
 33 67  1  0  0  0  0
 34 68  1  0  0  0  0
 34 74  2  0  0  0  0
 35 50  1  0  0  0  0
 35 71  1  0  0  0  0
 35 75  2  0  0  0  0
 36 59  1  0  0  0  0
 36 65  1  0  0  0  0
 36 76  2  0  0  0  0
 37 60  1  0  0  0  0
 37 72  1  0  0  0  0
 37 77  2  0  0  0  0
 38 61  1  0  0  0  0
 38 69  1  0  0  0  0
 38 78  2  0  0  0  0
 39 66  1  0  0  0  0
 39 70  1  0  0  0  0
 39 79  2  0  0  0  0
 40 43  1  0  0  0  0
 41 50  1  0  0  0  0
 42 65  1  0  0  0  0
 43 45  1  0  0  0  0
 44 46  1  0  0  0  0
 44 47  1  0  0  0  0
 45 49  1  0  0  0  0
 46 51  1  0  0  0  0
 47 66  1  0  0  0  0
 48 51  1  0  0  0  0
 48 66  1  0  0  0  0
 49 71  1  0  0  0  0
 50 65  1  0  0  0  0
 51 64  1  0  0  0  0
 53 60  1  0  0  0  0
 54 62  1  0  0  0  0
 55 62  1  0  0  0  0
 56 62  1  0  0  0  0
 57 73  1  0  0  0  0
 58 61  1  0  0  0  0
 58 81  1  0  0  0  0
 59 62  1  0  0  0  0
 59 72  1  0  0  0  0
 60 73  1  0  0  0  0
 61 84  1  0  0  0  0
 63 64  1  0  0  0  0
M  CHG  1  73   1
M  ISO  4  39 100  58 101  70 100  81 101
M  END
> <Batch ID>
0067

> <Smiles>
CNC(C)C(=O)NC(C(=O)N1Cc2cc([101O:1][101CH2:1]C(F)C(=O)Nc3cc(C)cc([100NH:0][100C:0](=O)N4CCCC(n5nc(-c6ccc(Oc7ccc(F)cc7F)cc6)c(C(N)=O)c5N)C4)c3)ccc2CC1C(=O)NC1CCCc2ccccc21)C(C)(C)C

> <Shape>
0.210

> <Color>
0.205

> <Negative vol penalty>
0.000

$$$$

  -OEChem-04042323243D

 84 92  0     1  0  0  0  0  0999 V2000
  -21.6759  -12.4405   19.9038 C   0  0  0  0  0  0  0  0  0  0  0  0
  -21.5916  -13.7941   20.2138 C   0  0  0  0  0  0  0  0  0  0  0  0
  -24.5280  -30.7612   22.6147 C   0  0  0  0  0  0  0  0  0  0  0  0
  -24.5861  -29.2206   24.4749 C   0  0  0  0  0  0  0  0  0  0  0  0
  -22.8916  -11.7707   20.0357 C   0  0  0  0  0  0  0  0  0  0  0  0
  -22.7229  -14.4785   20.6569 C   0  0  0  0  0  0  0  0  0  0  0  0
  -23.2719  -18.9836   18.4103 C   0  0  0  0  0  0  0  0  0  0  0  0
  -25.6414  -31.4251   23.1297 C   0  0  0  0  0  0  0  0  0  0  0  0
  -25.6995  -29.8845   24.9899 C   0  0  0  0  0  0  0  0  0  0  0  0
  -22.4695  -20.0267   18.8706 C   0  0  0  0  0  0  0  0  0  0  0  0
  -26.2909  -33.6831   25.5595 C   0  0  0  0  0  0  0  0  0  0  0  0
  -26.2603  -35.0774   25.5815 C   0  0  0  0  0  0  0  0  0  0  0  0
  -24.3179  -20.8655   20.1740 C   0  0  0  0  0  0  0  0  0  0  0  0
  -15.1943  -24.2499   24.4058 C   0  0  0  0  0  0  0  0  0  0  0  0
  -16.5048  -21.9026   23.6605 C   0  0  0  0  0  0  0  0  0  0  0  0
  -28.2181  -35.1427   24.1673 C   0  0  0  0  0  0  0  0  0  0  0  0
  -24.0004  -29.6590   23.2873 C   0  0  0  0  0  0  0  0  0  0  0  0
  -22.8463  -27.8887   21.8583 C   0  0  0  0  0  0  0  0  0  0  0  0
  -24.0405  -12.4495   20.4714 C   0  0  0  0  0  0  0  0  0  0  0  0
  -24.6024  -18.8673   18.8376 C   0  0  0  0  0  0  0  0  0  0  0  0
  -23.9548  -13.8168   20.7960 C   0  0  0  0  0  0  0  0  0  0  0  0
  -25.1359  -19.8215   19.7157 C   0  0  0  0  0  0  0  0  0  0  0  0
  -16.3852  -24.3155   23.6825 C   0  0  0  0  0  0  0  0  0  0  0  0
  -14.6587  -23.0106   24.7566 C   0  0  0  0  0  0  0  0  0  0  0  0
  -17.0404  -23.1419   23.3099 C   0  0  0  0  0  0  0  0  0  0  0  0
  -26.2272  -30.9867   24.3173 C   0  0  0  0  0  0  0  0  0  0  0  0
  -22.9915  -20.9662   19.7548 C   0  0  0  0  0  0  0  0  0  0  0  0
  -27.2852  -33.0185   24.8415 C   0  0  0  0  0  0  0  0  0  0  0  0
  -27.2239  -35.8072   24.8854 C   0  0  0  0  0  0  0  0  0  0  0  0
  -15.3140  -21.8370   24.3839 C   0  0  0  0  0  0  0  0  0  0  0  0
  -28.2487  -33.7483   24.1454 C   0  0  0  0  0  0  0  0  0  0  0  0
  -22.8499  -28.9731   22.7561 C   0  0  0  0  0  0  0  0  0  0  0  0
  -21.5159  -27.6060   21.6669 C   0  0  0  0  0  0  0  0  0  0  0  0
  -20.2183  -22.5629   21.3990 C   0  0  0  0  0  0  0  0  0  0  0  0
  -21.0758  -21.6674   20.8990 C   0  0  0  0  0  0  0  0  0  1  0  0
  -23.9470  -27.1986   21.2519 C   0  0  0  0  0  0  0  0  0  0  0  0
  -19.0084  -22.1023   22.1409 C   0  0  0  0  0  0  0  0  0  0  0  0
  -26.2568  -16.6867   20.4538 C   0  0  0  0  0  0  0  0  0  0  0  0
  -28.7636  -18.6098   19.7188 C   0  0  0  0  0  0  0  0  0  0  0  0
  -29.8766  -21.7242   18.8770 C   0  0  0  0  0  0  0  0  0  0  0  0
  -16.3670  -26.8343   23.6408 C   0  0  0  0  0  0  0  0  0  0  0  0
  -25.3214  -11.6721   20.6436 C   0  0  0  0  0  0  0  0  0  0  0  0
  -25.4628  -17.7516   18.3110 C   0  0  0  0  0  0  0  0  0  0  0  0
  -26.5641  -19.7530   20.1888 C   0  0  0  0  0  0  0  0  0  0  0  0
  -26.5598  -12.5569   20.7612 C   0  0  0  0  0  0  0  0  0  0  0  0
  -17.3737  -30.1897   23.0042 C   0  0  0  0  0  0  0  0  0  0  0  0
  -26.3085  -13.6994   21.7403 C   0  0  0  0  0  0  0  0  0  0  0  0
  -18.8878  -30.0831   22.8090 C   0  0  0  0  0  0  0  0  0  0  0  0
  -16.8713  -29.2277   24.0793 C   0  0  0  0  0  0  0  0  0  0  0  0
  -18.7813  -27.7194   23.6972 C   0  0  0  0  0  0  0  0  0  0  0  0
  -25.1655  -14.5996   21.2560 C   0  0  1  0  0  0  0  0  0  0  0  0
  -26.6520  -17.4371   19.2134 C   0  0  1  0  0  0  0  0  0  0  0  0
  -19.3249  -28.6232   22.5785 C   0  0  2  0  0  0  0  0  0  0  0  0
  -31.9819  -22.9957   18.3786 C   0  0  0  0  0  0  0  0  0  0  0  0
  -29.4297  -18.6692   22.6958 C   0  0  0  0  0  0  0  0  0  0  0  0
  -30.8948  -20.6515   22.2573 C   0  0  0  0  0  0  0  0  0  0  0  0
  -31.4130  -18.4586   21.1871 C   0  0  0  0  0  0  0  0  0  0  0  0
  -28.9677  -22.3839   16.1388 C   0  0  0  0  0  0  0  0  0  0  0  0
  -29.4283  -19.7968   20.3732 C   0  0  1  0  0  0  0  0  0  0  0  0
  -30.8296  -22.1944   17.7930 C   0  0  2  0  0  0  0  0  0  0  0  0
  -30.2639  -19.3945   21.6211 C   0  0  0  0  0  0  0  0  0  0  0  0
  -21.6195  -29.3535   23.1102 N   0  0  0  0  0  0  0  0  0  0  0  0
  -20.8303  -28.5035   22.4315 N   0  0  0  0  0  0  0  0  0  0  0  0
  -27.3635  -18.6400   19.6505 N   0  0  0  0  0  0  0  0  0  0  0  0
  -17.3202  -27.8635   23.7927 N   0  0  0  0  0  0  0  0  0  0  0  0
  -13.4543  -22.9467   25.4876 N   0  0  0  0  0  0  0  0  0  0  0  0
  -20.8773  -26.6798   20.9206 N   0  0  0  0  0  0  0  0  0  0  0  0
  -25.2488  -27.6182   21.5577 N   0  0  0  0  0  0  0  0  0  0  0  0
  -18.2515  -23.1819   22.5761 N   0  0  0  0  0  0  0  0  0  0  0  0
  -16.9096  -25.5859   23.3380 N   0  0  0  0  0  0  0  0  0  0  0  0
  -25.6272  -15.4819   20.2059 N   0  0  0  0  0  0  0  0  0  0  0  0
  -30.1984  -20.4613   19.3273 N   0  0  0  0  0  0  0  0  0  0  0  0
  -30.1119  -23.0535   16.8093 N   0  3  0  0  0  0  0  0  0  0  0  0
  -23.7806  -26.2490   20.4493 O   0  0  0  0  0  0  0  0  0  0  0  0
  -18.7794  -20.9096   22.3045 O   0  0  0  0  0  0  0  0  0  0  0  0
  -26.5061  -17.1648   21.5543 O   0  0  0  0  0  0  0  0  0  0  0  0
  -29.4613  -17.6931   19.2777 O   0  0  0  0  0  0  0  0  0  0  0  0
  -28.9426  -22.4102   19.2863 O   0  0  0  0  0  0  0  0  0  0  0  0
  -15.1567  -27.0505   23.7430 O   0  0  0  0  0  0  0  0  0  0  0  0
  -27.3137  -31.6342   24.8201 O   0  0  0  0  0  0  0  0  0  0  0  0
  -22.2103  -21.9849   20.2062 O   0  0  0  0  0  0  0  0  0  1  0  0
  -27.1935  -37.1462   24.9053 F   0  0  0  0  0  0  0  0  0  0  0  0
  -14.8088  -20.6406   24.7165 F   0  0  0  0  0  0  0  0  0  0  0  0
  -29.2056  -33.1154   23.4529 F   0  0  0  0  0  0  0  0  0  0  0  0
  1  2  1  0  0  0  0
  1  5  2  0  0  0  0
  2  6  2  0  0  0  0
  3  8  2  0  0  0  0
  3 17  1  0  0  0  0
  4  9  1  0  0  0  0
  4 17  2  0  0  0  0
  5 19  1  0  0  0  0
  6 21  1  0  0  0  0
  7 10  2  0  0  0  0
  7 20  1  0  0  0  0
  8 26  1  0  0  0  0
  9 26  2  0  0  0  0
 10 27  1  0  0  0  0
 11 12  2  0  0  0  0
 11 28  1  0  0  0  0
 12 29  1  0  0  0  0
 13 22  1  0  0  0  0
 13 27  2  0  0  0  0
 14 23  1  0  0  0  0
 14 24  2  0  0  0  0
 15 25  1  0  0  0  0
 15 30  2  0  0  0  0
 16 29  2  0  0  0  0
 16 31  1  0  0  0  0
 17 32  1  0  0  0  0
 18 32  1  0  0  0  0
 18 33  2  0  0  0  0
 18 36  1  0  0  0  0
 19 21  2  0  0  0  0
 19 42  1  0  0  0  0
 20 22  2  0  0  0  0
 20 43  1  0  0  0  0
 21 51  1  0  0  0  0
 22 44  1  0  0  0  0
 23 25  2  0  0  0  0
 23 70  1  0  0  0  0
 24 30  1  0  0  0  0
 24 66  1  0  0  0  0
 25 69  1  0  0  0  0
 26 80  1  0  0  0  0
 27 81  1  0  0  0  0
 28 31  2  0  0  0  0
 28 80  1  0  0  0  0
 29 82  1  0  0  0  0
 30 83  1  0  0  0  0
 31 84  1  0  0  0  0
 32 62  2  0  0  0  0
 33 63  1  0  0  0  0
 33 67  1  0  0  0  0
 34 35  2  0  0  0  0
 34 37  1  0  0  0  0
 35 81  1  0  0  0  0
 36 68  1  0  0  0  0
 36 74  2  0  0  0  0
 37 69  1  0  0  0  0
 37 75  2  0  0  0  0
 38 52  1  0  0  0  0
 38 71  1  0  0  0  0
 38 76  2  0  0  0  0
 39 59  1  0  0  0  0
 39 64  1  0  0  0  0
 39 77  2  0  0  0  0
 40 60  1  0  0  0  0
 40 72  1  0  0  0  0
 40 78  2  0  0  0  0
 41 65  1  0  0  0  0
 41 70  1  0  0  0  0
 41 79  2  0  0  0  0
 42 45  1  0  0  0  0
 43 52  1  0  0  0  0
 44 64  1  0  0  0  0
 45 47  1  0  0  0  0
 46 48  1  0  0  0  0
 46 49  1  0  0  0  0
 47 51  1  0  0  0  0
 48 53  1  0  0  0  0
 49 65  1  0  0  0  0
 50 53  1  0  0  0  0
 50 65  1  0  0  0  0
 51 71  1  0  0  0  0
 52 64  1  0  0  0  0
 53 63  1  0  0  0  0
 54 60  1  0  0  0  0
 55 61  1  0  0  0  0
 56 61  1  0  0  0  0
 57 61  1  0  0  0  0
 58 73  1  0  0  0  0
 59 61  1  0  0  0  0
 59 72  1  0  0  0  0
 60 73  1  0  0  0  0
 62 63  1  0  0  0  0
M  CHG  1  73   1
M  ISO  4  35 101  41 100  70 100  81 101
M  END
> <Batch ID>
0067

> <Smiles>
CNC(C)C(=O)NC(C(=O)N1Cc2cc([101O:1][101CH:1]=CC(=O)Nc3cc(F)c(N)cc3[100NH:0][100C:0](=O)N3CCCC(n4nc(-c5ccc(Oc6ccc(F)cc6F)cc5)c(C(N)=O)c4N)C3)ccc2CC1C(=O)NC1CCCc2ccccc21)C(C)(C)C

> <Shape>
0.244

> <Color>
0.059

> <Negative vol penalty>
0.000

$$$$

  -OEChem-04042323243D

 82 90  0     1  0  0  0  0  0999 V2000
  -23.6153  -30.7372   20.2741 C   0  0  0  0  0  0  0  0  0  0  0  0
  -23.7865  -29.3636   20.4134 C   0  0  0  0  0  0  0  0  0  0  0  0
  -22.9549   -9.8821   20.0484 C   0  0  0  0  0  0  0  0  0  0  0  0
  -23.6106  -10.0717   22.3660 C   0  0  0  0  0  0  0  0  0  0  0  0
  -24.3551  -31.6145   21.0659 C   0  0  0  0  0  0  0  0  0  0  0  0
  -24.6984  -28.8666   21.3439 C   0  0  0  0  0  0  0  0  0  0  0  0
  -24.1653  -23.7336   24.6416 C   0  0  0  0  0  0  0  0  0  0  0  0
  -32.6567  -17.4530   23.3230 C   0  0  0  0  0  0  0  0  0  0  0  0
  -32.0756  -16.5113   22.4738 C   0  0  0  0  0  0  0  0  0  0  0  0
  -22.1555   -8.7837   20.3644 C   0  0  0  0  0  0  0  0  0  0  0  0
  -22.8111   -8.9733   22.6820 C   0  0  0  0  0  0  0  0  0  0  0  0
  -24.6886  -22.4523   24.4738 C   0  0  0  0  0  0  0  0  0  0  0  0
  -22.9949   -5.6061   22.4394 C   0  0  0  0  0  0  0  0  0  0  0  0
  -23.5364   -4.6295   23.2753 C   0  0  0  0  0  0  0  0  0  0  0  0
  -26.5035  -23.0050   25.9638 C   0  0  0  0  0  0  0  0  0  0  0  0
  -29.9028  -17.4871   22.8785 C   0  0  0  0  0  0  0  0  0  0  0  0
  -21.7682   -5.0184   24.8751 C   0  0  0  0  0  0  0  0  0  0  0  0
  -23.6825  -10.5261   21.0492 C   0  0  0  0  0  0  0  0  0  0  0  0
  -24.1292  -13.0161   20.7200 C   0  0  0  0  0  0  0  0  0  0  0  0
  -25.2695  -31.1278   22.0134 C   0  0  0  0  0  0  0  0  0  0  0  0
  -24.8141  -24.6654   25.4646 C   0  0  0  0  0  0  0  0  0  0  0  0
  -25.4521  -29.7382   22.1482 C   0  0  0  0  0  0  0  0  0  0  0  0
  -25.9849  -24.2966   26.1424 C   0  0  0  0  0  0  0  0  0  0  0  0
  -31.8608  -18.4117   23.9501 C   0  0  0  0  0  0  0  0  0  0  0  0
  -30.6987  -16.5284   22.2515 C   0  0  0  0  0  0  0  0  0  0  0  0
  -30.4839  -18.4288   23.7278 C   0  0  0  0  0  0  0  0  0  0  0  0
  -22.0835   -8.3293   21.6812 C   0  0  0  0  0  0  0  0  0  0  0  0
  -25.8595  -22.0888   25.1326 C   0  0  0  0  0  0  0  0  0  0  0  0
  -21.8401   -6.2889   22.8214 C   0  0  0  0  0  0  0  0  0  0  0  0
  -22.9230   -4.3357   24.4931 C   0  0  0  0  0  0  0  0  0  0  0  0
  -21.2267   -5.9950   24.0392 C   0  0  0  0  0  0  0  0  0  0  0  0
  -24.5090  -11.6605   20.7233 C   0  0  0  0  0  0  0  0  0  0  0  0
  -25.2654  -13.6901   20.3443 C   0  0  0  0  0  0  0  0  0  0  0  0
  -22.8626  -13.6126   21.0290 C   0  0  0  0  0  0  0  0  0  0  0  0
  -26.1629  -27.5069   25.0063 C   0  0  0  0  0  0  0  0  0  0  0  0
  -26.4366  -27.4640   28.2383 C   0  0  0  0  0  0  0  0  0  0  0  0
  -28.2819  -19.5371   24.2344 C   0  0  0  0  0  0  0  0  0  0  0  0
  -26.6104  -25.6234   31.1069 C   0  0  0  0  0  0  0  0  0  0  0  0
  -30.7553  -14.5533   20.6888 C   0  0  0  0  0  0  0  0  0  0  0  0
  -26.0809  -32.1158   22.8134 C   0  0  0  0  0  0  0  0  0  0  0  0
  -24.2222  -26.0348   25.6562 C   0  0  0  0  0  0  0  0  0  0  0  0
  -26.7086  -25.2533   27.0532 C   0  0  0  0  0  0  0  0  0  0  0  0
  -26.7537  -31.5013   24.0382 C   0  0  0  0  0  0  0  0  0  0  0  0
  -29.6538  -11.9741   18.4953 C   0  0  0  0  0  0  0  0  0  0  0  0
  -27.4341  -30.1866   23.6701 C   0  0  0  0  0  0  0  0  0  0  0  0
  -28.1859  -11.7741   18.8791 C   0  0  0  0  0  0  0  0  0  0  0  0
  -30.5223  -12.2792   19.7144 C   0  0  0  0  0  0  0  0  0  0  0  0
  -28.5853  -13.1939   20.9313 C   0  0  0  0  0  0  0  0  0  0  0  0
  -26.4136  -29.1601   23.1638 C   0  0  1  0  0  0  0  0  0  0  0  0
  -25.2457  -27.0696   26.1132 C   0  0  1  0  0  0  0  0  0  0  0  0
  -27.6604  -12.9482   19.7281 C   0  0  2  0  0  0  0  0  0  0  0  0
  -32.5104  -19.4080   24.8546 C   0  0  0  0  0  0  0  0  0  0  0  0
  -26.8708  -25.8670   33.5909 C   0  0  0  0  0  0  0  0  0  0  0  0
  -29.4125  -28.0272   27.8687 C   0  0  0  0  0  0  0  0  0  0  0  0
  -29.7696  -27.3233   30.2446 C   0  0  0  0  0  0  0  0  0  0  0  0
  -28.3339  -29.2981   29.7331 C   0  0  0  0  0  0  0  0  0  0  0  0
  -23.9840  -24.3606   31.6228 C   0  0  0  0  0  0  0  0  0  0  0  0
  -27.7891  -20.6998   25.0756 C   0  0  0  0  0  0  0  0  0  1  0  0
  -27.4775  -26.9760   29.2166 C   0  0  1  0  0  0  0  0  0  0  0  0
  -25.8882  -25.7580   32.4353 C   0  0  2  0  0  0  0  0  0  0  0  0
  -28.7360  -27.8885   29.2471 C   0  0  0  0  0  0  0  0  0  0  0  0
  -25.7866  -11.4822   20.3769 N   0  0  0  0  0  0  0  0  0  0  0  0
  -26.2194  -12.7345   20.1525 N   0  0  0  0  0  0  0  0  0  0  0  0
  -26.0938  -26.5826   27.2031 N   0  0  0  0  0  0  0  0  0  0  0  0
  -29.9657  -13.4050   20.4678 N   0  0  0  0  0  0  0  0  0  0  0  0
  -25.5314  -15.0010   20.1625 N   0  0  0  0  0  0  0  0  0  0  0  0
  -21.8013  -12.7744   21.3971 N   0  0  0  0  0  0  0  0  0  0  0  0
  -29.6599  -19.3933   24.3548 N   0  0  0  0  0  0  0  0  0  0  0  0
  -30.1089  -15.5715   21.3887 N   0  0  0  0  0  0  0  0  0  0  0  0
  -25.6891  -28.5781   24.2732 N   0  0  0  0  0  0  0  0  0  0  0  0
  -26.8008  -26.8482   30.5028 N   0  0  0  0  0  0  0  0  0  0  0  0
  -25.0140  -24.5744   32.6718 N   0  3  0  0  0  0  0  0  0  0  0  0
  -22.6729  -14.8509   20.9644 O   0  0  0  0  0  0  0  0  0  0  0  0
  -27.2227  -26.9171   24.8313 O   0  0  0  0  0  0  0  0  0  0  0  0
  -25.9404  -28.5829   28.3911 O   0  0  0  0  0  0  0  0  0  0  0  0
  -27.5120  -18.8583   23.5627 O   0  0  0  0  0  0  0  0  0  0  0  0
  -26.9730  -24.5406   30.6525 O   0  0  0  0  0  0  0  0  0  0  0  0
  -31.9101  -14.6385   20.2631 O   0  0  0  0  0  0  0  0  0  0  0  0
  -21.3033   -7.2576   21.9900 O   0  0  0  0  0  0  0  0  0  0  0  0
  -26.3728  -20.8390   24.9701 O   0  0  0  0  0  0  0  0  0  1  0  0
  -23.4423   -3.3968   25.2950 F   0  0  0  0  0  0  0  0  0  0  0  0
  -20.1164   -6.6468   24.4110 F   0  0  0  0  0  0  0  0  0  0  0  0
  1  2  1  0  0  0  0
  1  5  2  0  0  0  0
  2  6  2  0  0  0  0
  3 10  2  0  0  0  0
  3 18  1  0  0  0  0
  4 11  1  0  0  0  0
  4 18  2  0  0  0  0
  5 20  1  0  0  0  0
  6 22  1  0  0  0  0
  7 12  2  0  0  0  0
  7 21  1  0  0  0  0
  8  9  2  0  0  0  0
  8 24  1  0  0  0  0
  9 25  1  0  0  0  0
 10 27  1  0  0  0  0
 11 27  2  0  0  0  0
 12 28  1  0  0  0  0
 13 14  2  0  0  0  0
 13 29  1  0  0  0  0
 14 30  1  0  0  0  0
 15 23  1  0  0  0  0
 15 28  2  0  0  0  0
 16 25  2  0  0  0  0
 16 26  1  0  0  0  0
 17 30  2  0  0  0  0
 17 31  1  0  0  0  0
 18 32  1  0  0  0  0
 19 32  1  0  0  0  0
 19 33  2  0  0  0  0
 19 34  1  0  0  0  0
 20 22  2  0  0  0  0
 20 40  1  0  0  0  0
 21 23  2  0  0  0  0
 21 41  1  0  0  0  0
 22 49  1  0  0  0  0
 23 42  1  0  0  0  0
 24 26  2  0  0  0  0
 24 52  1  0  0  0  0
 25 69  1  0  0  0  0
 26 68  1  0  0  0  0
 27 79  1  0  0  0  0
 28 80  1  0  0  0  0
 29 31  2  0  0  0  0
 29 79  1  0  0  0  0
 30 81  1  0  0  0  0
 31 82  1  0  0  0  0
 32 62  2  0  0  0  0
 33 63  1  0  0  0  0
 33 66  1  0  0  0  0
 34 67  1  0  0  0  0
 34 73  2  0  0  0  0
 35 50  1  0  0  0  0
 35 70  1  0  0  0  0
 35 74  2  0  0  0  0
 36 59  1  0  0  0  0
 36 64  1  0  0  0  0
 36 75  2  0  0  0  0
 37 58  1  0  0  0  0
 37 68  1  0  0  0  0
 37 76  2  0  0  0  0
 38 60  1  0  0  0  0
 38 71  1  0  0  0  0
 38 77  2  0  0  0  0
 39 65  1  0  0  0  0
 39 69  1  0  0  0  0
 39 78  2  0  0  0  0
 40 43  1  0  0  0  0
 41 50  1  0  0  0  0
 42 64  1  0  0  0  0
 43 45  1  0  0  0  0
 44 46  1  0  0  0  0
 44 47  1  0  0  0  0
 45 49  1  0  0  0  0
 46 51  1  0  0  0  0
 47 65  1  0  0  0  0
 48 51  1  0  0  0  0
 48 65  1  0  0  0  0
 49 70  1  0  0  0  0
 50 64  1  0  0  0  0
 51 63  1  0  0  0  0
 53 60  1  0  0  0  0
 54 61  1  0  0  0  0
 55 61  1  0  0  0  0
 56 61  1  0  0  0  0
 57 72  1  0  0  0  0
 58 80  1  0  0  0  0
 59 61  1  0  0  0  0
 59 71  1  0  0  0  0
 60 72  1  0  0  0  0
 62 63  1  0  0  0  0
M  CHG  1  72   1
M  ISO  4  39 100  58 101  69 100  80 101
M  END
> <Batch ID>
0067

> <Smiles>
CNC(C)C(=O)NC(C(=O)N1Cc2cc([101O:1][101CH2:1]C(=O)Nc3cc([100NH:0][100C:0](=O)N4CCCC(n5nc(-c6ccc(Oc7ccc(F)cc7F)cc6)c(C(N)=O)c5N)C4)ccc3C)ccc2CC1C(=O)NC1CCCc2ccccc21)C(C)(C)C

> <Shape>
0.240

> <Color>
0.214

> <Negative vol penalty>
0.000

$$$$

  -OEChem-04042323243D

 92101  0     1  0  0  0  0  0999 V2000
  -21.0077  -21.3598   27.0572 C   0  0  0  0  0  0  0  0  0  0  0  0
  -22.3887  -21.4261   26.9034 C   0  0  0  0  0  0  0  0  0  0  0  0
  -23.5026   -9.8883   22.4838 C   0  0  0  0  0  0  0  0  0  0  0  0
  -23.4603   -9.7872   20.0703 C   0  0  0  0  0  0  0  0  0  0  0  0
  -20.1749  -22.0329   26.1643 C   0  0  0  0  0  0  0  0  0  0  0  0
  -22.9378  -22.1649   25.8559 C   0  0  0  0  0  0  0  0  0  0  0  0
  -28.6602  -26.1605   24.2416 C   0  0  0  0  0  0  0  0  0  0  0  0
  -22.6429   -8.7916   22.5449 C   0  0  0  0  0  0  0  0  0  0  0  0
  -22.6006   -8.6905   20.1313 C   0  0  0  0  0  0  0  0  0  0  0  0
  -29.6573  -26.2724   23.2736 C   0  0  0  0  0  0  0  0  0  0  0  0
  -22.8649   -5.4321   22.2332 C   0  0  0  0  0  0  0  0  0  0  0  0
  -23.1694   -4.4196   23.1429 C   0  0  0  0  0  0  0  0  0  0  0  0
  -28.1232  -27.4591   21.8392 C   0  0  0  0  0  0  0  0  0  0  0  0
  -27.9097  -22.2622   19.7704 C   0  0  0  0  0  0  0  0  0  0  0  0
  -21.0526   -4.7785   24.2509 C   0  0  0  0  0  0  0  0  0  0  0  0
  -23.9113  -10.3862   21.2466 C   0  0  0  0  0  0  0  0  0  0  0  0
  -26.2063  -11.4965   21.1589 C   0  0  0  0  0  0  0  0  0  0  0  0
  -20.7142  -22.7882   25.1111 C   0  0  0  0  0  0  0  0  0  0  0  0
  -27.3817  -26.6884   24.0108 C   0  0  0  0  0  0  0  0  0  0  0  0
  -22.1114  -22.8477   24.9473 C   0  0  0  0  0  0  0  0  0  0  0  0
  -27.1124  -27.3549   22.8069 C   0  0  0  0  0  0  0  0  0  0  0  0
  -26.7413  -20.8884   21.3969 C   0  0  0  0  0  0  0  0  0  0  0  0
  -27.6368  -21.3182   22.3947 C   0  0  0  0  0  0  0  0  0  0  0  0
  -26.8805  -21.3770   20.0897 C   0  0  0  0  0  0  0  0  0  0  0  0
  -28.8074  -22.6705   20.7535 C   0  0  0  0  0  0  0  0  0  0  0  0
  -22.1919   -8.1927   21.3686 C   0  0  0  0  0  0  0  0  0  0  0  0
  -29.3881  -26.9192   22.0710 C   0  0  0  0  0  0  0  0  0  0  0  0
  -21.6543   -6.1179   22.3323 C   0  0  0  0  0  0  0  0  0  0  0  0
  -22.2632   -4.0928   24.1518 C   0  0  0  0  0  0  0  0  0  0  0  0
  -20.7481   -5.7911   23.3411 C   0  0  0  0  0  0  0  0  0  0  0  0
  -28.6743  -22.1991   22.0592 C   0  0  0  0  0  0  0  0  0  0  0  0
  -24.7989  -11.5194   21.1829 C   0  0  0  0  0  0  0  0  0  0  0  0
  -26.5701  -12.8195   21.0963 C   0  0  0  0  0  0  0  0  0  0  0  0
  -24.7189  -21.0319   15.6700 C   0  0  0  0  0  0  0  0  0  0  0  0
  -24.8838  -20.7716   16.9707 C   0  0  0  0  0  0  0  0  0  0  0  0
  -27.1044  -10.3794   21.1904 C   0  0  0  0  0  0  0  0  0  0  0  0
  -25.9995  -21.4010   17.7351 C   0  0  0  0  0  0  0  0  0  0  0  0
  -24.4540  -25.4675   23.8065 C   0  0  0  0  0  0  0  0  0  0  0  0
  -23.5866  -28.5882   23.6290 C   0  0  0  0  0  0  0  0  0  0  0  0
  -30.1296  -24.1293   19.1831 C   0  0  0  0  0  0  0  0  0  0  0  0
  -24.4567  -31.7981   22.8634 C   0  0  0  0  0  0  0  0  0  0  0  0
  -25.7731  -17.9385   23.2674 C   0  0  0  0  0  0  0  0  0  0  0  0
  -19.7728  -23.4600   24.1431 C   0  0  0  0  0  0  0  0  0  0  0  0
  -26.3250  -26.5829   25.0759 C   0  0  0  0  0  0  0  0  0  0  0  0
  -27.5269  -20.8017   23.8076 C   0  0  0  0  0  0  0  0  0  0  0  0
  -25.7622  -27.9567   22.5185 C   0  0  0  0  0  0  0  0  0  0  0  0
  -25.6063  -19.9392   21.7112 C   0  0  0  0  0  0  0  0  0  0  0  0
  -20.4437  -24.5272   23.2822 C   0  0  0  0  0  0  0  0  0  0  0  0
  -23.8229  -16.9656   20.2313 C   0  0  0  0  0  0  0  0  0  0  0  0
  -21.7604  -24.0059   22.7155 C   0  0  0  0  0  0  0  0  0  0  0  0
  -23.9758  -15.4455   20.2608 C   0  0  0  0  0  0  0  0  0  0  0  0
  -26.1403  -20.2387   24.1013 C   0  0  0  0  0  0  0  0  0  0  0  0
  -23.8834  -17.5533   21.6361 C   0  0  0  0  0  0  0  0  0  0  0  0
  -25.2782  -15.6702   22.4261 C   0  0  0  0  0  0  0  0  0  0  0  0
  -22.7455  -23.6590   23.8384 C   0  0  1  0  0  0  0  0  0  0  0  0
  -24.9075  -26.7064   24.5256 C   0  0  1  0  0  0  0  0  0  0  0  0
  -25.2453  -15.0346   21.0261 C   0  0  1  0  0  0  0  0  0  0  0  0
  -23.5238  -34.1263   22.7838 C   0  0  0  0  0  0  0  0  0  0  0  0
  -22.0792  -27.8940   21.0686 C   0  0  0  0  0  0  0  0  0  0  0  0
  -21.9864  -30.3401   20.5428 C   0  0  0  0  0  0  0  0  0  0  0  0
  -20.8730  -29.4644   22.5961 C   0  0  0  0  0  0  0  0  0  0  0  0
  -26.4258  -32.7794   24.8430 C   0  0  0  0  0  0  0  0  0  0  0  0
  -31.3480  -25.0382   19.2685 C   0  0  0  0  0  0  0  0  0  0  0  0
  -31.0334  -26.4798   18.8843 C   0  0  0  0  0  0  0  0  0  0  0  0
  -29.9396  -27.0698   19.7625 C   0  0  0  0  0  0  0  0  0  1  0  0
  -23.3970  -29.5831   22.5096 C   0  0  1  0  0  0  0  0  0  0  0  0
  -24.2709  -33.1002   23.6214 C   0  0  2  0  0  0  0  0  0  0  0  0
  -22.1089  -29.3075   21.6836 C   0  0  0  0  0  0  0  0  0  0  0  0
  -24.3025  -12.7586   21.1392 N   0  0  0  0  0  0  0  0  0  0  0  0
  -25.4040  -13.5268   21.0872 N   0  0  0  0  0  0  0  0  0  0  0  0
  -24.7602  -27.8221   23.5887 N   0  0  0  0  0  0  0  0  0  0  0  0
  -25.7325  -19.3224   23.0395 N   0  0  0  0  0  0  0  0  0  0  0  0
  -25.0902  -17.1208   22.3528 N   0  0  0  0  0  0  0  0  0  0  0  0
  -27.7706  -13.4351   21.0488 N   0  0  0  0  0  0  0  0  0  0  0  0
  -26.5628   -9.0883   21.2547 N   0  0  0  0  0  0  0  0  0  0  0  0
  -25.9947  -20.9985   19.0754 N   0  0  0  0  0  0  0  0  0  0  0  0
  -29.8391  -23.5525   20.4300 N   0  0  0  0  0  0  0  0  0  0  0  0
  -23.3480  -24.8620   24.3716 N   0  0  0  0  0  0  0  0  0  0  0  0
  -23.4400  -30.9045   23.1263 N   0  0  0  0  0  0  0  0  0  0  0  0
  -25.5939  -33.6739   23.9975 N   0  3  0  0  0  0  0  0  0  0  0  0
  -28.3505  -10.5225   21.1789 O   0  0  0  0  0  0  0  0  0  0  0  0
  -26.7874  -22.1676   17.1938 O   0  0  0  0  0  0  0  0  0  0  0  0
  -25.0617  -25.0898   22.8116 O   0  0  0  0  0  0  0  0  0  0  0  0
  -22.7286  -28.4992   24.5108 O   0  0  0  0  0  0  0  0  0  0  0  0
  -29.5174  -23.9578   18.1343 O   0  0  0  0  0  0  0  0  0  0  0  0
  -25.4067  -31.5954   22.1104 O   0  0  0  0  0  0  0  0  0  0  0  0
  -26.3941  -17.4584   24.2241 O   0  0  0  0  0  0  0  0  0  0  0  0
  -21.3532   -7.1223   21.4278 O   0  0  0  0  0  0  0  0  0  0  0  0
  -30.3665  -27.0300   21.1172 O   0  0  0  0  0  0  0  0  0  1  0  0
  -22.5551   -3.1194   25.0244 F   0  0  0  0  0  0  0  0  0  0  0  0
  -19.5830   -6.4456   23.4406 F   0  0  0  0  0  0  0  0  0  0  0  0
  -29.5449  -22.5918   23.0021 F   0  0  0  0  0  0  0  0  0  0  0  0
  1  2  1  0  0  0  0
  1  5  2  0  0  0  0
  2  6  2  0  0  0  0
  3  8  2  0  0  0  0
  3 16  1  0  0  0  0
  4  9  1  0  0  0  0
  4 16  2  0  0  0  0
  5 18  1  0  0  0  0
  6 20  1  0  0  0  0
  7 10  2  0  0  0  0
  7 19  1  0  0  0  0
  8 26  1  0  0  0  0
  9 26  2  0  0  0  0
 10 27  1  0  0  0  0
 11 12  2  0  0  0  0
 11 28  1  0  0  0  0
 12 29  1  0  0  0  0
 13 21  1  0  0  0  0
 13 27  2  0  0  0  0
 14 24  1  0  0  0  0
 14 25  2  0  0  0  0
 15 29  2  0  0  0  0
 15 30  1  0  0  0  0
 16 32  1  0  0  0  0
 17 32  1  0  0  0  0
 17 33  2  0  0  0  0
 17 36  1  0  0  0  0
 18 20  2  0  0  0  0
 18 43  1  0  0  0  0
 19 21  2  0  0  0  0
 19 44  1  0  0  0  0
 20 55  1  0  0  0  0
 21 46  1  0  0  0  0
 22 23  1  0  0  0  0
 22 24  2  0  0  0  0
 22 47  1  0  0  0  0
 23 31  2  0  0  0  0
 23 45  1  0  0  0  0
 24 76  1  0  0  0  0
 25 31  1  0  0  0  0
 25 77  1  0  0  0  0
 26 88  1  0  0  0  0
 27 89  1  0  0  0  0
 28 30  2  0  0  0  0
 28 88  1  0  0  0  0
 29 90  1  0  0  0  0
 30 91  1  0  0  0  0
 31 92  1  0  0  0  0
 32 69  2  0  0  0  0
 33 70  1  0  0  0  0
 33 74  1  0  0  0  0
 34 35  2  0  0  0  0
 35 37  1  0  0  0  0
 36 75  1  0  0  0  0
 36 81  2  0  0  0  0
 37 76  1  0  0  0  0
 37 82  2  0  0  0  0
 38 56  1  0  0  0  0
 38 78  1  0  0  0  0
 38 83  2  0  0  0  0
 39 66  1  0  0  0  0
 39 71  1  0  0  0  0
 39 84  2  0  0  0  0
 40 63  1  0  0  0  0
 40 77  1  0  0  0  0
 40 85  2  0  0  0  0
 41 67  1  0  0  0  0
 41 79  1  0  0  0  0
 41 86  2  0  0  0  0
 42 72  1  0  0  0  0
 42 73  1  0  0  0  0
 42 87  2  0  0  0  0
 43 48  1  0  0  0  0
 44 56  1  0  0  0  0
 45 52  1  0  0  0  0
 46 71  1  0  0  0  0
 47 72  1  0  0  0  0
 48 50  1  0  0  0  0
 49 51  1  0  0  0  0
 49 53  1  0  0  0  0
 50 55  1  0  0  0  0
 51 57  1  0  0  0  0
 52 72  1  0  0  0  0
 53 73  1  0  0  0  0
 54 57  1  0  0  0  0
 54 73  1  0  0  0  0
 55 78  1  0  0  0  0
 56 71  1  0  0  0  0
 57 70  1  0  0  0  0
 58 67  1  0  0  0  0
 59 68  1  0  0  0  0
 60 68  1  0  0  0  0
 61 68  1  0  0  0  0
 62 80  1  0  0  0  0
 63 64  1  0  0  0  0
 64 65  1  0  0  0  0
 65 89  1  0  0  0  0
 66 68  1  0  0  0  0
 66 79  1  0  0  0  0
 67 80  1  0  0  0  0
 69 70  1  0  0  0  0
M  CHG  1  80   1
M  ISO  4  42 100  65 101  72 100  89 101
M  END
> <Batch ID>
0067

> <Smiles>
C=CC(=O)Nc1cc(NC(=O)CC[101CH2:1][101O:1]c2ccc3c(c2)CN(C(=O)C(NC(=O)C(C)NC)C(C)(C)C)C(C(=O)NC2CCCc4ccccc42)C3)c(F)c2c1C[100N:0]([100C:0](=O)N1CCCC(n3nc(-c4ccc(Oc5ccc(F)cc5F)cc4)c(C(N)=O)c3N)C1)CC2

> <Shape>
0.244

> <Color>
0.084

> <Negative vol penalty>
0.000

$$$$

  -OEChem-04042323243D

 86 95  0     1  0  0  0  0  0999 V2000
  -23.0209  -32.7622   20.0134 C   0  0  0  0  0  0  0  0  0  0  0  0
  -24.2556  -32.1246   19.9465 C   0  0  0  0  0  0  0  0  0  0  0  0
  -23.1037   -9.8923   19.9241 C   0  0  0  0  0  0  0  0  0  0  0  0
  -23.8753   -9.8790   22.2135 C   0  0  0  0  0  0  0  0  0  0  0  0
  -21.9038  -32.0687   20.4773 C   0  0  0  0  0  0  0  0  0  0  0  0
  -24.3741  -30.7935   20.3445 C   0  0  0  0  0  0  0  0  0  0  0  0
  -28.0551  -26.5405   17.9219 C   0  0  0  0  0  0  0  0  0  0  0  0
  -22.3756   -8.7268   20.1626 C   0  0  0  0  0  0  0  0  0  0  0  0
  -23.1471   -8.7134   22.4521 C   0  0  0  0  0  0  0  0  0  0  0  0
  -29.3005  -26.0474   18.3087 C   0  0  0  0  0  0  0  0  0  0  0  0
  -19.9324   -7.8673   23.0603 C   0  0  0  0  0  0  0  0  0  0  0  0
  -19.1821   -7.8026   24.2344 C   0  0  0  0  0  0  0  0  0  0  0  0
  -28.2166  -24.2084   19.4324 C   0  0  0  0  0  0  0  0  0  0  0  0
  -30.1687  -19.2949   22.7130 C   0  0  0  0  0  0  0  0  0  0  0  0
  -30.6877  -19.2502   20.3538 C   0  0  0  0  0  0  0  0  0  0  0  0
  -20.4514   -5.8715   24.9392 C   0  0  0  0  0  0  0  0  0  0  0  0
  -23.8536  -10.4684   20.9495 C   0  0  0  0  0  0  0  0  0  0  0  0
  -24.1632  -12.9990   20.8608 C   0  0  0  0  0  0  0  0  0  0  0  0
  -22.0067  -30.7255   20.8721 C   0  0  0  0  0  0  0  0  0  0  0  0
  -26.8786  -25.8761   18.2973 C   0  0  0  0  0  0  0  0  0  0  0  0
  -23.2576  -30.0818   20.8153 C   0  0  0  0  0  0  0  0  0  0  0  0
  -26.9576  -24.6937   19.0469 C   0  0  0  0  0  0  0  0  0  0  0  0
  -30.0138  -17.9087   22.7051 C   0  0  0  0  0  0  0  0  0  0  0  0
  -30.5056  -19.9657   21.5373 C   0  0  0  0  0  0  0  0  0  0  0  0
  -30.1958  -17.1933   21.5217 C   0  0  0  0  0  0  0  0  0  0  0  0
  -22.3973   -8.1373   21.4266 C   0  0  0  0  0  0  0  0  0  0  0  0
  -29.3812  -24.8828   19.0665 C   0  0  0  0  0  0  0  0  0  0  0  0
  -20.9422   -6.9340   22.8256 C   0  0  0  0  0  0  0  0  0  0  0  0
  -19.4416   -6.8048   25.1738 C   0  0  0  0  0  0  0  0  0  0  0  0
  -30.5328  -17.8640   20.3460 C   0  0  0  0  0  0  0  0  0  0  0  0
  -21.2017   -5.9362   23.7651 C   0  0  0  0  0  0  0  0  0  0  0  0
  -24.6063  -11.6721   20.7035 C   0  0  0  0  0  0  0  0  0  0  0  0
  -25.2440  -13.7668   20.5019 C   0  0  0  0  0  0  0  0  0  0  0  0
  -30.3918  -22.1963   20.4146 C   0  0  0  0  0  0  0  0  0  0  0  0
  -22.8885  -13.4933   21.2928 C   0  0  0  0  0  0  0  0  0  0  0  0
  -24.3380  -26.6318   20.0517 C   0  0  0  0  0  0  0  0  0  0  0  0
  -23.2488  -23.7601   19.0080 C   0  0  0  0  0  0  0  0  0  0  0  0
  -23.9735  -20.6518   17.7995 C   0  0  0  0  0  0  0  0  0  0  0  0
  -30.6975  -14.8787   20.6628 C   0  0  0  0  0  0  0  0  0  0  0  0
  -20.7811  -30.0314   21.4113 C   0  0  0  0  0  0  0  0  0  0  0  0
  -25.5442  -26.4063   17.8494 C   0  0  0  0  0  0  0  0  0  0  0  0
  -25.7253  -23.9318   19.4584 C   0  0  0  0  0  0  0  0  0  0  0  0
  -20.9139  -28.5115   21.4604 C   0  0  0  0  0  0  0  0  0  0  0  0
  -32.2309  -23.0336   22.5410 C   0  0  0  0  0  0  0  0  0  0  0  0
  -29.6011  -12.4821   18.2688 C   0  0  0  0  0  0  0  0  0  0  0  0
  -22.2560  -28.1122   22.0656 C   0  0  0  0  0  0  0  0  0  0  0  0
  -32.0393  -23.8603   21.2706 C   0  0  0  0  0  0  0  0  0  0  0  0
  -28.1675  -12.1669   18.7017 C   0  0  0  0  0  0  0  0  0  0  0  0
  -31.0730  -22.0717   22.7831 C   0  0  0  0  0  0  0  0  0  0  0  0
  -30.5195  -12.7067   19.4687 C   0  0  0  0  0  0  0  0  0  0  0  0
  -28.6108  -13.3891   20.8689 C   0  0  0  0  0  0  0  0  0  0  0  0
  -23.4212  -28.6313   21.2146 C   0  0  1  0  0  0  0  0  0  0  0  0
  -30.6512  -23.6813   20.6655 C   0  0  1  0  0  0  0  0  0  1  0  0
  -24.3881  -25.9305   18.7238 C   0  0  1  0  0  0  0  0  0  0  0  0
  -27.6341  -13.2190   19.6938 C   0  0  2  0  0  0  0  0  0  0  0  0
  -29.6513  -17.2167   23.9792 C   0  0  0  0  0  0  0  0  0  0  0  0
  -22.8758  -18.5142   17.0764 C   0  0  0  0  0  0  0  0  0  0  0  0
  -22.7697  -23.0208   21.9292 C   0  0  0  0  0  0  0  0  0  0  0  0
  -22.5951  -20.6255   21.2219 C   0  0  0  0  0  0  0  0  0  0  0  0
  -20.9599  -22.3009   20.3606 C   0  0  0  0  0  0  0  0  0  0  0  0
  -25.0484  -20.8933   15.0526 C   0  0  0  0  0  0  0  0  0  0  0  0
  -23.3388  -22.3376   19.5053 C   0  0  1  0  0  0  0  0  0  0  0  0
  -23.4055  -19.8681   16.6301 C   0  0  2  0  0  0  0  0  0  0  0  0
  -22.4392  -22.0864   20.7483 C   0  0  0  0  0  0  0  0  0  0  0  0
  -25.8701  -11.5977   20.2777 N   0  0  0  0  0  0  0  0  0  0  0  0
  -26.2303  -12.8874   20.1642 N   0  0  0  0  0  0  0  0  0  0  0  0
  -30.6639  -21.3949   21.5459 N   0  0  0  0  0  0  0  0  0  0  0  0
  -24.4436  -24.4938   19.0015 N   0  0  0  0  0  0  0  0  0  0  0  0
  -29.9522  -13.7189   20.3623 N   0  0  0  0  0  0  0  0  0  0  0  0
  -25.4373  -15.1017   20.4453 N   0  0  0  0  0  0  0  0  0  0  0  0
  -21.8898  -12.5672   21.6232 N   0  0  0  0  0  0  0  0  0  0  0  0
  -30.0428  -15.7848   21.4965 N   0  0  0  0  0  0  0  0  0  0  0  0
  -23.6010  -27.8006   20.0433 N   0  0  0  0  0  0  0  0  0  0  0  0
  -23.0301  -21.4852   18.3622 N   0  0  0  0  0  0  0  0  0  0  0  0
  -24.4562  -19.6444   15.5972 N   0  3  0  0  0  0  0  0  0  0  0  0
  -30.0257  -21.8064   19.3072 O   0  0  0  0  0  0  0  0  0  0  0  0
  -22.6372  -14.7200   21.3674 O   0  0  0  0  0  0  0  0  0  0  0  0
  -24.9233  -26.1475   21.0132 O   0  0  0  0  0  0  0  0  0  0  0  0
  -22.1601  -24.2016   18.6321 O   0  0  0  0  0  0  0  0  0  0  0  0
  -25.1367  -20.5336   18.1784 O   0  0  0  0  0  0  0  0  0  0  0  0
  -31.8219  -15.0677   20.1918 O   0  0  0  0  0  0  0  0  0  0  0  0
  -21.6867   -7.0001   21.6599 O   0  0  0  0  0  0  0  0  0  0  0  0
  -30.5955  -24.3996   19.4459 O   0  0  0  0  0  0  0  0  0  1  0  0
  -18.7220   -6.7437   26.3019 F   0  0  0  0  0  0  0  0  0  0  0  0
  -30.7102  -17.1872   19.2023 F   0  0  0  0  0  0  0  0  0  0  0  0
  -22.1713   -5.0375   23.5457 F   0  0  0  0  0  0  0  0  0  0  0  0
  1  2  1  0  0  0  0
  1  5  2  0  0  0  0
  2  6  2  0  0  0  0
  3  8  2  0  0  0  0
  3 17  1  0  0  0  0
  4  9  1  0  0  0  0
  4 17  2  0  0  0  0
  5 19  1  0  0  0  0
  6 21  1  0  0  0  0
  7 10  2  0  0  0  0
  7 20  1  0  0  0  0
  8 26  1  0  0  0  0
  9 26  2  0  0  0  0
 10 27  1  0  0  0  0
 11 12  2  0  0  0  0
 11 28  1  0  0  0  0
 12 29  1  0  0  0  0
 13 22  1  0  0  0  0
 13 27  2  0  0  0  0
 14 23  2  0  0  0  0
 14 24  1  0  0  0  0
 15 24  2  0  0  0  0
 15 30  1  0  0  0  0
 16 29  2  0  0  0  0
 16 31  1  0  0  0  0
 17 32  1  0  0  0  0
 18 32  1  0  0  0  0
 18 33  2  0  0  0  0
 18 35  1  0  0  0  0
 19 21  2  0  0  0  0
 19 40  1  0  0  0  0
 20 22  2  0  0  0  0
 20 41  1  0  0  0  0
 21 52  1  0  0  0  0
 22 42  1  0  0  0  0
 23 25  1  0  0  0  0
 23 56  1  0  0  0  0
 24 67  1  0  0  0  0
 25 30  2  0  0  0  0
 25 72  1  0  0  0  0
 26 82  1  0  0  0  0
 27 83  1  0  0  0  0
 28 31  2  0  0  0  0
 28 82  1  0  0  0  0
 29 84  1  0  0  0  0
 30 85  1  0  0  0  0
 31 86  1  0  0  0  0
 32 65  2  0  0  0  0
 33 66  1  0  0  0  0
 33 70  1  0  0  0  0
 34 53  1  0  0  0  0
 34 67  1  0  0  0  0
 34 76  2  0  0  0  0
 35 71  1  0  0  0  0
 35 77  2  0  0  0  0
 36 54  1  0  0  0  0
 36 73  1  0  0  0  0
 36 78  2  0  0  0  0
 37 62  1  0  0  0  0
 37 68  1  0  0  0  0
 37 79  2  0  0  0  0
 38 63  1  0  0  0  0
 38 74  1  0  0  0  0
 38 80  2  0  0  0  0
 39 69  1  0  0  0  0
 39 72  1  0  0  0  0
 39 81  2  0  0  0  0
 40 43  1  0  0  0  0
 41 54  1  0  0  0  0
 42 68  1  0  0  0  0
 43 46  1  0  0  0  0
 44 47  1  0  0  0  0
 44 49  1  0  0  0  0
 45 48  1  0  0  0  0
 45 50  1  0  0  0  0
 46 52  1  0  0  0  0
 47 53  1  0  0  0  0
 48 55  1  0  0  0  0
 49 67  1  0  0  0  0
 50 69  1  0  0  0  0
 51 55  1  0  0  0  0
 51 69  1  0  0  0  0
 52 73  1  0  0  0  0
 53 83  1  0  0  0  0
 54 68  1  0  0  0  0
 55 66  1  0  0  0  0
 57 63  1  0  0  0  0
 58 64  1  0  0  0  0
 59 64  1  0  0  0  0
 60 64  1  0  0  0  0
 61 75  1  0  0  0  0
 62 64  1  0  0  0  0
 62 74  1  0  0  0  0
 63 75  1  0  0  0  0
 65 66  1  0  0  0  0
M  CHG  1  75   1
M  ISO  4  39 100  53 101  72 100  83 101
M  END
> <Batch ID>
0067

> <Smiles>
CNC(C)C(=O)NC(C(=O)N1Cc2cc([101O:1][101CH:1]3CCCN(c4cc(C)c([100NH:0][100C:0](=O)N5CCCC(n6nc(-c7ccc(Oc8ccc(F)cc8F)cc7)c(C(N)=O)c6N)C5)c(F)c4)C3=O)ccc2CC1C(=O)NC1CCCc2ccccc21)C(C)(C)C

> <Shape>
0.287

> <Color>
0.205

> <Negative vol penalty>
0.000

$$$$

  -OEChem-04042323243D

 85 93  0     1  0  0  0  0  0999 V2000
  -23.7593   -8.0599   21.8214 C   0  0  0  0  0  0  0  0  0  0  0  0
  -24.4987   -9.0910   21.2508 C   0  0  0  0  0  0  0  0  0  0  0  0
  -24.1145  -30.4379   20.8246 C   0  0  0  0  0  0  0  0  0  0  0  0
  -24.1983  -29.0258   22.7832 C   0  0  0  0  0  0  0  0  0  0  0  0
  -22.4029   -8.2413   22.0885 C   0  0  0  0  0  0  0  0  0  0  0  0
  -23.8818  -10.3038   20.9458 C   0  0  0  0  0  0  0  0  0  0  0  0
  -26.6470  -14.3013   22.3664 C   0  0  0  0  0  0  0  0  0  0  0  0
  -22.7277  -30.5245   20.9463 C   0  0  0  0  0  0  0  0  0  0  0  0
  -22.8115  -29.1124   22.9049 C   0  0  0  0  0  0  0  0  0  0  0  0
  -27.7234  -14.6525   21.5528 C   0  0  0  0  0  0  0  0  0  0  0  0
  -20.0918  -27.7149   21.4621 C   0  0  0  0  0  0  0  0  0  0  0  0
  -19.3891  -26.5378   21.7193 C   0  0  0  0  0  0  0  0  0  0  0  0
  -26.3905  -16.3967   20.5527 C   0  0  0  0  0  0  0  0  0  0  0  0
  -30.1279  -21.7906   21.2735 C   0  0  0  0  0  0  0  0  0  0  0  0
  -29.4259  -22.8198   23.3435 C   0  0  0  0  0  0  0  0  0  0  0  0
  -18.5532  -27.4867   23.7780 C   0  0  0  0  0  0  0  0  0  0  0  0
  -24.8498  -29.6885   21.7430 C   0  0  0  0  0  0  0  0  0  0  0  0
  -27.2417  -30.4529   22.1928 C   0  0  0  0  0  0  0  0  0  0  0  0
  -21.7713   -9.4603   21.7955 C   0  0  0  0  0  0  0  0  0  0  0  0
  -25.4288  -14.9893   22.2714 C   0  0  0  0  0  0  0  0  0  0  0  0
  -22.5154  -10.5012   21.2080 C   0  0  0  0  0  0  0  0  0  0  0  0
  -25.3010  -16.0540   21.3680 C   0  0  0  0  0  0  0  0  0  0  0  0
  -29.8039  -22.9328   22.0056 C   0  0  0  0  0  0  0  0  0  0  0  0
  -30.0737  -20.5353   21.8793 C   0  0  0  0  0  0  0  0  0  0  0  0
  -22.0761  -29.8618   21.9865 C   0  0  0  0  0  0  0  0  0  0  0  0
  -27.5943  -15.6984   20.6437 C   0  0  0  0  0  0  0  0  0  0  0  0
  -20.0253  -28.7779   22.3629 C   0  0  0  0  0  0  0  0  0  0  0  0
  -18.6198  -26.4237   22.8772 C   0  0  0  0  0  0  0  0  0  0  0  0
  -29.3717  -21.5645   23.9493 C   0  0  0  0  0  0  0  0  0  0  0  0
  -19.2560  -28.6638   23.5208 C   0  0  0  0  0  0  0  0  0  0  0  0
  -29.6956  -20.4223   23.2172 C   0  0  0  0  0  0  0  0  0  0  0  0
  -26.2824  -29.5983   21.6174 C   0  0  0  0  0  0  0  0  0  0  0  0
  -28.4479  -29.9451   21.7761 C   0  0  0  0  0  0  0  0  0  0  0  0
  -27.0588  -31.6030   23.0293 C   0  0  0  0  0  0  0  0  0  0  0  0
  -22.4524  -14.1842   21.4992 C   0  0  0  0  0  0  0  0  0  0  0  0
  -21.8102  -17.2364   22.3900 C   0  0  0  0  0  0  0  0  0  0  0  0
  -30.7976  -19.3121   19.8031 C   0  0  0  0  0  0  0  0  0  0  0  0
  -22.9491  -20.4202   22.8523 C   0  0  0  0  0  0  0  0  0  0  0  0
  -30.2141  -24.4966   20.0735 C   0  0  0  0  0  0  0  0  0  0  0  0
  -20.2922   -9.5931   22.0586 C   0  0  0  0  0  0  0  0  0  0  0  0
  -24.2858  -14.6156   23.1750 C   0  0  0  0  0  0  0  0  0  0  0  0
  -24.0209  -16.8374   21.2415 C   0  0  0  0  0  0  0  0  0  0  0  0
  -19.7994  -11.0379   22.0508 C   0  0  0  0  0  0  0  0  0  0  0  0
  -30.4366  -27.4983   18.1716 C   0  0  0  0  0  0  0  0  0  0  0  0
  -20.3557  -11.7851   20.8430 C   0  0  0  0  0  0  0  0  0  0  0  0
  -29.4885  -28.4571   18.8954 C   0  0  0  0  0  0  0  0  0  0  0  0
  -29.9044  -26.0663   18.1723 C   0  0  0  0  0  0  0  0  0  0  0  0
  -28.6017  -26.4952   20.2188 C   0  0  0  0  0  0  0  0  0  0  0  0
  -21.8876  -11.8399   20.8857 C   0  0  1  0  0  0  0  0  0  0  0  0
  -22.9280  -15.0497   22.6315 C   0  0  1  0  0  0  0  0  0  0  0  0
  -29.1265  -27.9380   20.3007 C   0  0  2  0  0  0  0  0  0  0  0  0
  -22.1817  -22.7048   23.5515 C   0  0  0  0  0  0  0  0  0  0  0  0
  -20.4692  -17.6142   19.6755 C   0  0  0  0  0  0  0  0  0  0  0  0
  -20.5807  -20.0882   20.0427 C   0  0  0  0  0  0  0  0  0  0  0  0
  -19.2516  -18.6574   21.5947 C   0  0  0  0  0  0  0  0  0  0  0  0
  -24.8147  -20.4708   25.1492 C   0  0  0  0  0  0  0  0  0  0  0  0
  -31.0651  -17.8896   19.3603 C   0  0  0  0  0  0  0  0  0  0  0  0
  -28.4465  -17.1259   18.9353 C   0  0  0  0  0  0  0  0  0  1  0  0
  -21.7767  -18.5712   21.6856 C   0  0  1  0  0  0  0  0  0  0  0  0
  -22.7901  -21.3887   24.0104 C   0  0  2  0  0  0  0  0  0  0  0  0
  -20.5432  -18.7169   20.7504 C   0  0  0  0  0  0  0  0  0  0  0  0
  -26.8318  -28.6217   20.8904 N   0  0  0  0  0  0  0  0  0  0  0  0
  -28.1494  -28.8596   21.0062 N   0  0  0  0  0  0  0  0  0  0  0  0
  -22.9300  -16.4299   22.1423 N   0  0  0  0  0  0  0  0  0  0  0  0
  -29.5871  -25.6411   19.5373 N   0  0  0  0  0  0  0  0  0  0  0  0
  -29.7242  -30.3257   21.9968 N   0  0  0  0  0  0  0  0  0  0  0  0
  -25.7523  -31.9869   23.3611 N   0  0  0  0  0  0  0  0  0  0  0  0
  -30.4034  -19.3777   21.1342 N   0  0  0  0  0  0  0  0  0  0  0  0
  -29.8589  -24.2083   21.3908 N   0  0  0  0  0  0  0  0  0  0  0  0
  -22.3313  -12.8469   21.8256 N   0  0  0  0  0  0  0  0  0  0  0  0
  -21.8578  -19.5863   22.7303 N   0  0  0  0  0  0  0  0  0  0  0  0
  -24.1139  -21.6744   24.6322 N   0  3  0  0  0  0  0  0  0  0  0  0
  -28.0247  -32.2800   23.4560 O   0  0  0  0  0  0  0  0  0  0  0  0
  -22.2116  -14.6922   20.4103 O   0  0  0  0  0  0  0  0  0  0  0  0
  -20.8806  -16.9241   23.1383 O   0  0  0  0  0  0  0  0  0  0  0  0
  -30.9204  -20.2444   19.0127 O   0  0  0  0  0  0  0  0  0  0  0  0
  -23.9406  -20.4073   22.1261 O   0  0  0  0  0  0  0  0  0  0  0  0
  -31.0285  -23.8375   19.4220 O   0  0  0  0  0  0  0  0  0  0  0  0
  -20.7229  -29.9462   22.1057 O   0  0  0  0  0  0  0  0  0  0  0  0
  -28.6431  -16.0428   19.8480 O   0  0  0  0  0  0  0  0  0  1  0  0
  -17.9438  -25.2938   23.1233 F   0  0  0  0  0  0  0  0  0  0  0  0
  -29.0083  -21.4560   25.2338 F   0  0  0  0  0  0  0  0  0  0  0  0
  -19.1873  -29.6820   24.3893 F   0  0  0  0  0  0  0  0  0  0  0  0
  -29.6397  -19.2211   23.8096 F   0  0  0  0  0  0  0  0  0  0  0  0
  -29.9587  -17.4885   17.9858 S   0  0  0  0  0  0  0  0  0  0  0  0
  1  2  1  0  0  0  0
  1  5  2  0  0  0  0
  2  6  2  0  0  0  0
  3  8  2  0  0  0  0
  3 17  1  0  0  0  0
  4  9  1  0  0  0  0
  4 17  2  0  0  0  0
  5 19  1  0  0  0  0
  6 21  1  0  0  0  0
  7 10  2  0  0  0  0
  7 20  1  0  0  0  0
  8 25  1  0  0  0  0
  9 25  2  0  0  0  0
 10 26  1  0  0  0  0
 11 12  2  0  0  0  0
 11 27  1  0  0  0  0
 12 28  1  0  0  0  0
 13 22  1  0  0  0  0
 13 26  2  0  0  0  0
 14 23  2  0  0  0  0
 14 24  1  0  0  0  0
 15 23  1  0  0  0  0
 15 29  2  0  0  0  0
 16 28  2  0  0  0  0
 16 30  1  0  0  0  0
 17 32  1  0  0  0  0
 18 32  1  0  0  0  0
 18 33  2  0  0  0  0
 18 34  1  0  0  0  0
 19 21  2  0  0  0  0
 19 40  1  0  0  0  0
 20 22  2  0  0  0  0
 20 41  1  0  0  0  0
 21 49  1  0  0  0  0
 22 42  1  0  0  0  0
 23 69  1  0  0  0  0
 24 31  2  0  0  0  0
 24 68  1  0  0  0  0
 25 79  1  0  0  0  0
 26 80  1  0  0  0  0
 27 30  2  0  0  0  0
 27 79  1  0  0  0  0
 28 81  1  0  0  0  0
 29 31  1  0  0  0  0
 29 82  1  0  0  0  0
 30 83  1  0  0  0  0
 31 84  1  0  0  0  0
 32 62  2  0  0  0  0
 33 63  1  0  0  0  0
 33 66  1  0  0  0  0
 34 67  1  0  0  0  0
 34 73  2  0  0  0  0
 35 50  1  0  0  0  0
 35 70  1  0  0  0  0
 35 74  2  0  0  0  0
 36 59  1  0  0  0  0
 36 64  1  0  0  0  0
 36 75  2  0  0  0  0
 37 57  1  0  0  0  0
 37 68  1  0  0  0  0
 37 76  2  0  0  0  0
 38 60  1  0  0  0  0
 38 71  1  0  0  0  0
 38 77  2  0  0  0  0
 39 65  1  0  0  0  0
 39 69  1  0  0  0  0
 39 78  2  0  0  0  0
 40 43  1  0  0  0  0
 41 50  1  0  0  0  0
 42 64  1  0  0  0  0
 43 45  1  0  0  0  0
 44 46  1  0  0  0  0
 44 47  1  0  0  0  0
 45 49  1  0  0  0  0
 46 51  1  0  0  0  0
 47 65  1  0  0  0  0
 48 51  1  0  0  0  0
 48 65  1  0  0  0  0
 49 70  1  0  0  0  0
 50 64  1  0  0  0  0
 51 63  1  0  0  0  0
 52 60  1  0  0  0  0
 53 61  1  0  0  0  0
 54 61  1  0  0  0  0
 55 61  1  0  0  0  0
 56 72  1  0  0  0  0
 57 85  1  0  0  0  0
 58 80  1  0  0  0  0
 58 85  1  0  0  0  0
 59 61  1  0  0  0  0
 59 71  1  0  0  0  0
 60 72  1  0  0  0  0
 62 63  1  0  0  0  0
M  CHG  1  72   1
M  ISO  4  39 100  58 101  69 100  80 101
M  END
> <Batch ID>
0067

> <Smiles>
CNC(C)C(=O)NC(C(=O)N1Cc2cc([101O:1][101CH2:1]SCC(=O)Nc3cc([100NH:0][100C:0](=O)N4CCCC(n5nc(-c6ccc(Oc7ccc(F)cc7F)cc6)c(C(N)=O)c5N)C4)cc(F)c3F)ccc2CC1C(=O)NC1CCCc2ccccc21)C(C)(C)C

> <Shape>
0.255

> <Color>
0.076

> <Negative vol penalty>
0.000

$$$$

  -OEChem-04042323243D

 91100  0     1  0  0  0  0  0999 V2000
  -21.9979  -31.7887   18.0403 C   0  0  0  0  0  0  0  0  0  0  0  0
  -22.9649  -30.9467   18.5800 C   0  0  0  0  0  0  0  0  0  0  0  0
  -23.1471   -9.6950   20.1984 C   0  0  0  0  0  0  0  0  0  0  0  0
  -23.7866  -10.0550   22.5002 C   0  0  0  0  0  0  0  0  0  0  0  0
  -21.0367  -32.3659   18.8691 C   0  0  0  0  0  0  0  0  0  0  0  0
  -22.9720  -30.6824   19.9492 C   0  0  0  0  0  0  0  0  0  0  0  0
  -23.6614  -25.7717   20.9761 C   0  0  0  0  0  0  0  0  0  0  0  0
  -22.4125   -8.5718   20.5781 C   0  0  0  0  0  0  0  0  0  0  0  0
  -23.0519   -8.9318   22.8800 C   0  0  0  0  0  0  0  0  0  0  0  0
  -24.9618  -25.2778   20.8813 C   0  0  0  0  0  0  0  0  0  0  0  0
  -19.8120   -8.1475   23.4350 C   0  0  0  0  0  0  0  0  0  0  0  0
  -18.9961   -8.2589   24.5608 C   0  0  0  0  0  0  0  0  0  0  0  0
  -25.1881  -25.4308   23.2781 C   0  0  0  0  0  0  0  0  0  0  0  0
  -31.8620  -16.9726   22.2253 C   0  0  0  0  0  0  0  0  0  0  0  0
  -31.5341  -18.9395   23.5894 C   0  0  0  0  0  0  0  0  0  0  0  0
  -29.6352  -17.8418   22.5762 C   0  0  0  0  0  0  0  0  0  0  0  0
  -20.2328   -6.4817   25.6328 C   0  0  0  0  0  0  0  0  0  0  0  0
  -23.8343  -10.4366   21.1594 C   0  0  0  0  0  0  0  0  0  0  0  0
  -24.1356  -12.9254   20.6874 C   0  0  0  0  0  0  0  0  0  0  0  0
  -21.0261  -32.1009   20.2476 C   0  0  0  0  0  0  0  0  0  0  0  0
  -23.1175  -26.1097   22.2236 C   0  0  0  0  0  0  0  0  0  0  0  0
  -22.0106  -31.2577   20.7974 C   0  0  0  0  0  0  0  0  0  0  0  0
  -23.8797  -25.9264   23.3862 C   0  0  0  0  0  0  0  0  0  0  0  0
  -32.3856  -17.9942   23.0177 C   0  0  0  0  0  0  0  0  0  0  0  0
  -30.4867  -16.8965   22.0045 C   0  0  0  0  0  0  0  0  0  0  0  0
  -22.3649   -8.1902   21.9189 C   0  0  0  0  0  0  0  0  0  0  0  0
  -25.7263  -25.1100   22.0321 C   0  0  0  0  0  0  0  0  0  0  0  0
  -20.8382   -7.2031   23.4080 C   0  0  0  0  0  0  0  0  0  0  0  0
  -19.2065   -7.4260   25.6597 C   0  0  0  0  0  0  0  0  0  0  0  0
  -21.0486   -6.3703   24.5070 C   0  0  0  0  0  0  0  0  0  0  0  0
  -30.1588  -18.8634   23.3686 C   0  0  0  0  0  0  0  0  0  0  0  0
  -24.5938  -11.5967   20.7677 C   0  0  0  0  0  0  0  0  0  0  0  0
  -25.2313  -13.6419   20.2718 C   0  0  0  0  0  0  0  0  0  0  0  0
  -22.8359  -13.4639   20.9638 C   0  0  0  0  0  0  0  0  0  0  0  0
  -22.0336  -28.7890   23.5465 C   0  0  0  0  0  0  0  0  0  0  0  0
  -21.1872  -26.7941   25.9604 C   0  0  0  0  0  0  0  0  0  0  0  0
  -28.0855  -21.9537   22.4836 C   0  0  0  0  0  0  0  0  0  0  0  0
  -21.6975  -23.8401   27.5914 C   0  0  0  0  0  0  0  0  0  0  0  0
  -30.6610  -14.8417   20.5575 C   0  0  0  0  0  0  0  0  0  0  0  0
  -19.9959  -32.7854   21.1105 C   0  0  0  0  0  0  0  0  0  0  0  0
  -21.7039  -26.6160   22.3114 C   0  0  0  0  0  0  0  0  0  0  0  0
  -23.3351  -26.2551   24.7515 C   0  0  0  0  0  0  0  0  0  0  0  0
  -19.8453  -32.1571   22.4936 C   0  0  0  0  0  0  0  0  0  0  0  0
  -29.7154  -12.0813   18.5171 C   0  0  0  0  0  0  0  0  0  0  0  0
  -21.2142  -31.9079   23.1187 C   0  0  0  0  0  0  0  0  0  0  0  0
  -28.2610  -11.8184   18.9141 C   0  0  0  0  0  0  0  0  0  0  0  0
  -30.5626  -12.5059   19.7154 C   0  0  0  0  0  0  0  0  0  0  0  0
  -34.3721  -19.1159   24.0587 C   0  0  0  0  0  0  0  0  0  0  0  0
  -28.5735  -13.3743   20.8810 C   0  0  0  0  0  0  0  0  0  0  0  0
  -35.8144  -18.7005   24.3387 C   0  0  0  0  0  0  0  0  0  0  0  0
  -34.7002  -17.2661   22.4659 C   0  0  0  0  0  0  0  0  0  0  0  0
  -22.0362  -30.9270   22.2739 C   0  0  1  0  0  0  0  0  0  0  0  0
  -21.4325  -27.4124   23.5840 C   0  0  1  0  0  0  0  0  0  0  0  0
  -27.6665  -13.0067   19.6953 C   0  0  2  0  0  0  0  0  0  0  0  0
  -20.8775  -22.5051   29.5517 C   0  0  0  0  0  0  0  0  0  0  0  0
  -22.7155  -28.6372   27.8518 C   0  0  0  0  0  0  0  0  0  0  0  0
  -22.6747  -26.8052   29.5578 C   0  0  0  0  0  0  0  0  0  0  0  0
  -20.5356  -27.7995   28.7466 C   0  0  0  0  0  0  0  0  0  0  0  0
  -20.8413  -21.6008   25.8561 C   0  0  0  0  0  0  0  0  0  0  0  0
  -28.4127  -22.8049   21.2655 C   0  0  0  0  0  0  0  0  0  0  0  0
  -27.2772  -23.7344   20.8666 C   0  0  0  0  0  0  0  0  0  1  0  0
  -21.8593  -26.2866   27.2133 C   0  0  1  0  0  0  0  0  0  0  0  0
  -20.7301  -22.7687   28.0612 C   0  0  2  0  0  0  0  0  0  0  0  0
  -21.9575  -27.3777   28.3166 C   0  0  0  0  0  0  0  0  0  0  0  0
  -25.8802  -11.4735   20.4301 N   0  0  0  0  0  0  0  0  0  0  0  0
  -26.2397  -12.7341   20.1335 N   0  0  0  0  0  0  0  0  0  0  0  0
  -33.7527  -18.0694   23.2369 N   0  0  3  0  0  0  0  0  0  0  0  0
  -21.9500  -26.7530   24.7847 N   0  0  0  0  0  0  0  0  0  0  0  0
  -29.9400  -13.6387   20.4039 N   0  0  0  0  0  0  0  0  0  0  0  0
  -25.4209  -14.9535   20.0148 N   0  0  0  0  0  0  0  0  0  0  0  0
  -21.8246  -12.5878   21.3810 N   0  0  0  0  0  0  0  0  0  0  0  0
  -29.9552  -15.8591   21.1989 N   0  0  0  0  0  0  0  0  0  0  0  0
  -21.5878  -29.5692   22.4968 N   0  0  0  0  0  0  0  0  0  0  0  0
  -21.1231  -25.0934   27.6166 N   0  0  0  0  0  0  0  0  0  0  0  0
  -29.1500  -21.1235   22.8085 N   0  0  0  0  0  0  0  0  0  0  0  0
  -20.9762  -21.4927   27.3316 N   0  3  0  0  0  0  0  0  0  0  0  0
  -22.5745  -14.6833   20.8285 O   0  0  0  0  0  0  0  0  0  0  0  0
  -22.8409  -29.1194   24.4072 O   0  0  0  0  0  0  0  0  0  0  0  0
  -20.0257  -27.2051   26.0212 O   0  0  0  0  0  0  0  0  0  0  0  0
  -27.0119  -22.0223   23.0760 O   0  0  0  0  0  0  0  0  0  0  0  0
  -22.8488  -23.5908   27.2409 O   0  0  0  0  0  0  0  0  0  0  0  0
  -31.8096  -14.9696   20.1257 O   0  0  0  0  0  0  0  0  0  0  0  0
  -27.7008  -19.4642   24.2342 O   0  0  0  0  0  0  0  0  0  0  0  0
  -37.1311  -16.6672   23.3118 O   0  0  0  0  0  0  0  0  0  0  0  0
  -36.7966  -18.7574   21.9085 O   0  0  0  0  0  0  0  0  0  0  0  0
  -21.6479   -7.0943   22.2898 O   0  0  0  0  0  0  0  0  0  0  0  0
  -26.9961  -24.6288   21.9424 O   0  0  0  0  0  0  0  0  0  1  0  0
  -18.4239   -7.5341   26.7414 F   0  0  0  0  0  0  0  0  0  0  0  0
  -22.0337   -5.4620   24.4874 F   0  0  0  0  0  0  0  0  0  0  0  0
  -29.0603  -20.0819   24.1053 S   0  0  1  0  0  0  0  0  0  0  0  0
  -36.3396  -17.8068   22.9008 S   0  0  0  0  0  0  0  0  0  0  0  0
  1  2  1  0  0  0  0
  1  5  2  0  0  0  0
  2  6  2  0  0  0  0
  3  8  2  0  0  0  0
  3 18  1  0  0  0  0
  4  9  1  0  0  0  0
  4 18  2  0  0  0  0
  5 20  1  0  0  0  0
  6 22  1  0  0  0  0
  7 10  2  0  0  0  0
  7 21  1  0  0  0  0
  8 26  1  0  0  0  0
  9 26  2  0  0  0  0
 10 27  1  0  0  0  0
 11 12  2  0  0  0  0
 11 28  1  0  0  0  0
 12 29  1  0  0  0  0
 13 23  1  0  0  0  0
 13 27  2  0  0  0  0
 14 24  2  0  0  0  0
 14 25  1  0  0  0  0
 15 24  1  0  0  0  0
 15 31  2  0  0  0  0
 16 25  2  0  0  0  0
 16 31  1  0  0  0  0
 17 29  2  0  0  0  0
 17 30  1  0  0  0  0
 18 32  1  0  0  0  0
 19 32  1  0  0  0  0
 19 33  2  0  0  0  0
 19 34  1  0  0  0  0
 20 22  2  0  0  0  0
 20 40  1  0  0  0  0
 21 23  2  0  0  0  0
 21 41  1  0  0  0  0
 22 52  1  0  0  0  0
 23 42  1  0  0  0  0
 24 67  1  0  0  0  0
 25 72  1  0  0  0  0
 26 86  1  0  0  0  0
 27 87  1  0  0  0  0
 28 30  2  0  0  0  0
 28 86  1  0  0  0  0
 29 88  1  0  0  0  0
 30 89  1  0  0  0  0
 31 90  1  0  0  0  0
 32 65  2  0  0  0  0
 33 66  1  0  0  0  0
 33 70  1  0  0  0  0
 34 71  1  0  0  0  0
 34 77  2  0  0  0  0
 35 53  1  0  0  0  0
 35 73  1  0  0  0  0
 35 78  2  0  0  0  0
 36 62  1  0  0  0  0
 36 68  1  0  0  0  0
 36 79  2  0  0  0  0
 37 60  1  0  0  0  0
 37 75  1  0  0  0  0
 37 80  2  0  0  0  0
 38 63  1  0  0  0  0
 38 74  1  0  0  0  0
 38 81  2  0  0  0  0
 39 69  1  0  0  0  0
 39 72  1  0  0  0  0
 39 82  2  0  0  0  0
 40 43  1  0  0  0  0
 41 53  1  0  0  0  0
 42 68  1  0  0  0  0
 43 45  1  0  0  0  0
 44 46  1  0  0  0  0
 44 47  1  0  0  0  0
 45 52  1  0  0  0  0
 46 54  1  0  0  0  0
 47 69  1  0  0  0  0
 48 50  1  0  0  0  0
 48 67  1  0  0  0  0
 49 54  1  0  0  0  0
 49 69  1  0  0  0  0
 50 91  1  0  0  0  0
 51 67  1  0  0  0  0
 51 91  1  0  0  0  0
 52 73  1  0  0  0  0
 53 68  1  0  0  0  0
 54 66  1  0  0  0  0
 55 63  1  0  0  0  0
 56 64  1  0  0  0  0
 57 64  1  0  0  0  0
 58 64  1  0  0  0  0
 59 76  1  0  0  0  0
 60 61  1  0  0  0  0
 61 87  1  0  0  0  0
 62 64  1  0  0  0  0
 62 74  1  0  0  0  0
 63 76  1  0  0  0  0
 65 66  1  0  0  0  0
 75 90  1  0  0  0  0
 83 90  2  0  0  0  0
 84 91  2  0  0  0  0
 85 91  2  0  0  0  0
M  CHG  1  76   1
M  ISO  4  39 100  61 101  72 100  87 101
M  END
> <Batch ID>
0067

> <Smiles>
CNC(C)C(=O)NC(C(=O)N1Cc2cc([101O:1][101CH2:1]CC(=O)NS(=O)c3cc([100NH:0][100C:0](=O)N4CCCC(n5nc(-c6ccc(Oc7ccc(F)cc7F)cc6)c(C(N)=O)c5N)C4)cc(N4CCS(=O)(=O)C4)c3)ccc2CC1C(=O)NC1CCCc2ccccc21)C(C)(C)C

> <Shape>
0.218

> <Color>
0.189

> <Negative vol penalty>
0.000

$$$$

  -OEChem-04042323243D

 83 91  0     1  0  0  0  0  0999 V2000
  -18.4675  -31.6214   22.9236 C   0  0  0  0  0  0  0  0  0  0  0  0
  -19.8558  -31.5414   22.8813 C   0  0  0  0  0  0  0  0  0  0  0  0
  -28.0184  -12.7004   22.4147 C   0  0  0  0  0  0  0  0  0  0  0  0
  -26.8059  -12.9691   20.3424 C   0  0  0  0  0  0  0  0  0  0  0  0
  -17.7008  -30.4595   22.8469 C   0  0  0  0  0  0  0  0  0  0  0  0
  -20.4781  -30.2991   22.7634 C   0  0  0  0  0  0  0  0  0  0  0  0
  -25.6579  -29.0481   19.7450 C   0  0  0  0  0  0  0  0  0  0  0  0
  -27.4924  -11.4163   22.5560 C   0  0  0  0  0  0  0  0  0  0  0  0
  -26.2799  -11.6850   20.4836 C   0  0  0  0  0  0  0  0  0  0  0  0
  -26.9776  -28.8979   20.1688 C   0  0  0  0  0  0  0  0  0  0  0  0
  -23.8200  -10.1807   22.2491 C   0  0  0  0  0  0  0  0  0  0  0  0
  -22.4571  -10.0084   22.0073 C   0  0  0  0  0  0  0  0  0  0  0  0
  -26.6690  -26.5073   20.2627 C   0  0  0  0  0  0  0  0  0  0  0  0
  -29.0662  -23.5314   19.4922 C   0  0  0  0  0  0  0  0  0  0  0  0
  -30.7036  -24.1242   17.8176 C   0  0  0  0  0  0  0  0  0  0  0  0
  -29.5256  -22.0204   17.6639 C   0  0  0  0  0  0  0  0  0  0  0  0
  -22.9685   -8.4426   20.2399 C   0  0  0  0  0  0  0  0  0  0  0  0
  -27.6751  -13.4768   21.3079 C   0  0  0  0  0  0  0  0  0  0  0  0
  -29.4116  -15.1668   20.5101 C   0  0  0  0  0  0  0  0  0  0  0  0
  -18.3138  -29.2032   22.7183 C   0  0  0  0  0  0  0  0  0  0  0  0
  -24.8292  -27.9280   19.5871 C   0  0  0  0  0  0  0  0  0  0  0  0
  -19.7189  -29.1192   22.6863 C   0  0  0  0  0  0  0  0  0  0  0  0
  -25.3400  -26.6457   19.8343 C   0  0  0  0  0  0  0  0  0  0  0  0
  -30.0047  -24.4302   18.9853 C   0  0  0  0  0  0  0  0  0  0  0  0
  -28.8267  -22.3265   18.8315 C   0  0  0  0  0  0  0  0  0  0  0  0
  -26.6232  -10.9086   21.5904 C   0  0  0  0  0  0  0  0  0  0  0  0
  -27.4825  -27.6276   20.4305 C   0  0  0  0  0  0  0  0  0  0  0  0
  -24.7572   -9.4840   21.4861 C   0  0  0  0  0  0  0  0  0  0  0  0
  -22.0313   -9.1394   21.0028 C   0  0  0  0  0  0  0  0  0  0  0  0
  -30.4641  -22.9192   17.1569 C   0  0  0  0  0  0  0  0  0  0  0  0
  -24.3314   -8.6149   20.4816 C   0  0  0  0  0  0  0  0  0  0  0  0
  -28.2177  -14.8036   21.1618 C   0  0  0  0  0  0  0  0  0  0  0  0
  -29.4766  -16.5318   20.6481 C   0  0  0  0  0  0  0  0  0  0  0  0
  -30.3756  -14.3438   19.8399 C   0  0  0  0  0  0  0  0  0  0  0  0
  -22.1214  -26.9347   20.9231 C   0  0  0  0  0  0  0  0  0  0  0  0
  -22.3192  -24.6086   18.6709 C   0  0  0  0  0  0  0  0  0  0  0  0
  -31.1423  -26.6564   19.2921 C   0  0  0  0  0  0  0  0  0  0  0  0
  -24.2797  -22.7782   16.5607 C   0  0  0  0  0  0  0  0  0  0  0  0
  -27.0943  -21.5620   20.4931 C   0  0  0  0  0  0  0  0  0  0  0  0
  -17.4445  -27.9711   22.6867 C   0  0  0  0  0  0  0  0  0  0  0  0
  -23.4160  -28.1048   19.1035 C   0  0  0  0  0  0  0  0  0  0  0  0
  -24.4975  -25.4094   19.6605 C   0  0  0  0  0  0  0  0  0  0  0  0
  -18.1713  -26.7256   22.1859 C   0  0  0  0  0  0  0  0  0  0  0  0
  -26.7329  -19.6886   23.4992 C   0  0  0  0  0  0  0  0  0  0  0  0
  -19.5321  -26.5933   22.8624 C   0  0  0  0  0  0  0  0  0  0  0  0
  -27.1852  -18.2806   23.1054 C   0  0  0  0  0  0  0  0  0  0  0  0
  -25.9724  -20.3773   22.3673 C   0  0  0  0  0  0  0  0  0  0  0  0
  -27.1242  -18.9972   20.6827 C   0  0  0  0  0  0  0  0  0  0  0  0
  -20.4302  -27.7921   22.5341 C   0  0  1  0  0  0  0  0  0  0  0  0
  -22.5079  -26.9353   19.4711 C   0  0  1  0  0  0  0  0  0  0  0  0
  -27.9508  -18.2880   21.7678 C   0  0  2  0  0  0  0  0  0  0  0  0
  -24.1618  -20.9250   14.8728 C   0  0  0  0  0  0  0  0  0  0  0  0
  -22.0432  -22.5738   20.9278 C   0  0  0  0  0  0  0  0  0  0  0  0
  -22.8726  -20.8156   19.3502 C   0  0  0  0  0  0  0  0  0  0  0  0
  -20.7451  -22.0232   18.8623 C   0  0  0  0  0  0  0  0  0  0  0  0
  -25.2922  -24.5269   14.3982 C   0  0  0  0  0  0  0  0  0  0  0  0
  -31.0897  -27.8054   20.2925 C   0  0  0  0  0  0  0  0  0  0  0  0
  -29.7145  -28.4478   20.3930 C   0  0  0  0  0  0  0  0  0  1  0  0
  -22.9474  -23.2376   18.6023 C   0  0  1  0  0  0  0  0  0  0  0  0
  -24.1260  -22.4296   15.0912 C   0  0  2  0  0  0  0  0  0  0  0  0
  -22.1676  -22.1858   19.4409 C   0  0  0  0  0  0  0  0  0  0  0  0
  -27.5710  -15.8532   21.6757 N   0  0  0  0  0  0  0  0  0  0  0  0
  -28.3613  -16.8893   21.3471 N   0  0  0  0  0  0  0  0  0  0  0  0
  -23.1201  -25.6348   19.1917 N   0  0  0  0  0  0  0  0  0  0  0  0
  -26.7605  -20.3498   21.1332 N   0  0  0  0  0  0  0  0  0  0  0  0
  -30.3784  -17.4491   20.2386 N   0  0  0  0  0  0  0  0  0  0  0  0
  -30.1544  -12.9607   19.7908 N   0  0  0  0  0  0  0  0  0  0  0  0
  -30.2483  -25.6527   19.6553 N   0  0  0  0  0  0  0  0  0  0  0  0
  -27.8736  -21.4130   19.3463 N   0  0  0  0  0  0  0  0  0  0  0  0
  -20.9799  -27.6619   21.2017 N   0  0  0  0  0  0  0  0  0  0  0  0
  -23.0573  -22.9094   17.1851 N   0  0  0  0  0  0  0  0  0  0  0  0
  -25.2243  -23.0464   14.2949 N   0  3  0  0  0  0  0  0  0  0  0  0
  -31.4109  -14.8190   19.3148 O   0  0  0  0  0  0  0  0  0  0  0  0
  -22.8072  -26.3188   21.7306 O   0  0  0  0  0  0  0  0  0  0  0  0
  -21.1630  -24.7647   18.2704 O   0  0  0  0  0  0  0  0  0  0  0  0
  -31.8903  -26.6707   18.3202 O   0  0  0  0  0  0  0  0  0  0  0  0
  -25.3747  -22.9165   17.1015 O   0  0  0  0  0  0  0  0  0  0  0  0
  -26.7395  -22.6537   20.9451 O   0  0  0  0  0  0  0  0  0  0  0  0
  -26.1099   -9.6555   21.7278 O   0  0  0  0  0  0  0  0  0  0  0  0
  -28.7701  -27.4782   20.8449 O   0  0  0  0  0  0  0  0  0  1  0  0
  -20.7225   -8.9729   20.7718 F   0  0  0  0  0  0  0  0  0  0  0  0
  -31.1358  -22.6248   16.0360 F   0  0  0  0  0  0  0  0  0  0  0  0
  -25.2270   -7.9419   19.7462 F   0  0  0  0  0  0  0  0  0  0  0  0
  1  2  1  0  0  0  0
  1  5  2  0  0  0  0
  2  6  2  0  0  0  0
  3  8  2  0  0  0  0
  3 18  1  0  0  0  0
  4  9  1  0  0  0  0
  4 18  2  0  0  0  0
  5 20  1  0  0  0  0
  6 22  1  0  0  0  0
  7 10  2  0  0  0  0
  7 21  1  0  0  0  0
  8 26  1  0  0  0  0
  9 26  2  0  0  0  0
 10 27  1  0  0  0  0
 11 12  2  0  0  0  0
 11 28  1  0  0  0  0
 12 29  1  0  0  0  0
 13 23  1  0  0  0  0
 13 27  2  0  0  0  0
 14 24  2  0  0  0  0
 14 25  1  0  0  0  0
 15 24  1  0  0  0  0
 15 30  2  0  0  0  0
 16 25  2  0  0  0  0
 16 30  1  0  0  0  0
 17 29  2  0  0  0  0
 17 31  1  0  0  0  0
 18 32  1  0  0  0  0
 19 32  1  0  0  0  0
 19 33  2  0  0  0  0
 19 34  1  0  0  0  0
 20 22  2  0  0  0  0
 20 40  1  0  0  0  0
 21 23  2  0  0  0  0
 21 41  1  0  0  0  0
 22 49  1  0  0  0  0
 23 42  1  0  0  0  0
 24 68  1  0  0  0  0
 25 69  1  0  0  0  0
 26 79  1  0  0  0  0
 27 80  1  0  0  0  0
 28 31  2  0  0  0  0
 28 79  1  0  0  0  0
 29 81  1  0  0  0  0
 30 82  1  0  0  0  0
 31 83  1  0  0  0  0
 32 62  2  0  0  0  0
 33 63  1  0  0  0  0
 33 66  1  0  0  0  0
 34 67  1  0  0  0  0
 34 73  2  0  0  0  0
 35 50  1  0  0  0  0
 35 70  1  0  0  0  0
 35 74  2  0  0  0  0
 36 59  1  0  0  0  0
 36 64  1  0  0  0  0
 36 75  2  0  0  0  0
 37 57  1  0  0  0  0
 37 68  1  0  0  0  0
 37 76  2  0  0  0  0
 38 60  1  0  0  0  0
 38 71  1  0  0  0  0
 38 77  2  0  0  0  0
 39 65  1  0  0  0  0
 39 69  1  0  0  0  0
 39 78  2  0  0  0  0
 40 43  1  0  0  0  0
 41 50  1  0  0  0  0
 42 64  1  0  0  0  0
 43 45  1  0  0  0  0
 44 46  1  0  0  0  0
 44 47  1  0  0  0  0
 45 49  1  0  0  0  0
 46 51  1  0  0  0  0
 47 65  1  0  0  0  0
 48 51  1  0  0  0  0
 48 65  1  0  0  0  0
 49 70  1  0  0  0  0
 50 64  1  0  0  0  0
 51 63  1  0  0  0  0
 52 60  1  0  0  0  0
 53 61  1  0  0  0  0
 54 61  1  0  0  0  0
 55 61  1  0  0  0  0
 56 72  1  0  0  0  0
 57 58  1  0  0  0  0
 58 80  1  0  0  0  0
 59 61  1  0  0  0  0
 59 71  1  0  0  0  0
 60 72  1  0  0  0  0
 62 63  1  0  0  0  0
M  CHG  1  72   1
M  ISO  4  39 100  58 101  69 100  80 101
M  END
> <Batch ID>
0067

> <Smiles>
CNC(C)C(=O)NC(C(=O)N1Cc2cc([101O:1][101CH2:1]CC(=O)Nc3cc(F)cc([100NH:0][100C:0](=O)N4CCCC(n5nc(-c6ccc(Oc7ccc(F)cc7F)cc6)c(C(N)=O)c5N)C4)c3)ccc2CC1C(=O)NC1CCCc2ccccc21)C(C)(C)C

> <Shape>
0.268

> <Color>
0.082

> <Negative vol penalty>
0.000

$$$$

  -OEChem-04042323243D

 84 92  0     1  0  0  0  0  0999 V2000
  -24.3133  -32.6612   23.3635 C   0  0  0  0  0  0  0  0  0  0  0  0
  -23.9631  -31.3635   23.0045 C   0  0  0  0  0  0  0  0  0  0  0  0
  -23.0000   -9.8940   19.9830 C   0  0  0  0  0  0  0  0  0  0  0  0
  -23.7234   -9.9485   22.2875 C   0  0  0  0  0  0  0  0  0  0  0  0
  -32.6449  -17.4500   23.4538 C   0  0  0  0  0  0  0  0  0  0  0  0
  -25.4223  -32.8824   24.1791 C   0  0  0  0  0  0  0  0  0  0  0  0
  -24.7224  -30.2863   23.4602 C   0  0  0  0  0  0  0  0  0  0  0  0
  -24.0657  -23.4316   25.4344 C   0  0  0  0  0  0  0  0  0  0  0  0
  -32.0572  -16.5527   22.5622 C   0  0  0  0  0  0  0  0  0  0  0  0
  -22.2329   -8.7602   20.2505 C   0  0  0  0  0  0  0  0  0  0  0  0
  -22.9563   -8.8147   22.5551 C   0  0  0  0  0  0  0  0  0  0  0  0
  -24.6112  -22.1767   25.1670 C   0  0  0  0  0  0  0  0  0  0  0  0
  -23.1999   -5.4749   22.0888 C   0  0  0  0  0  0  0  0  0  0  0  0
  -23.7865   -4.4587   22.8431 C   0  0  0  0  0  0  0  0  0  0  0  0
  -26.4592  -22.6738   26.6357 C   0  0  0  0  0  0  0  0  0  0  0  0
  -29.8784  -17.4514   23.0938 C   0  0  0  0  0  0  0  0  0  0  0  0
  -22.0614   -4.7050   24.5165 C   0  0  0  0  0  0  0  0  0  0  0  0
  -23.7453  -10.4881   21.0014 C   0  0  0  0  0  0  0  0  0  0  0  0
  -31.8494  -18.3480   24.1655 C   0  0  0  0  0  0  0  0  0  0  0  0
  -24.1316  -13.0033   20.8216 C   0  0  0  0  0  0  0  0  0  0  0  0
  -26.1898  -31.8067   24.6529 C   0  0  0  0  0  0  0  0  0  0  0  0
  -24.7195  -24.3227   26.2975 C   0  0  0  0  0  0  0  0  0  0  0  0
  -25.8434  -30.4935   24.2818 C   0  0  0  0  0  0  0  0  0  0  0  0
  -25.9186  -23.9383   26.9144 C   0  0  0  0  0  0  0  0  0  0  0  0
  -30.6740  -16.5534   22.3822 C   0  0  0  0  0  0  0  0  0  0  0  0
  -30.4662  -18.3487   23.9855 C   0  0  0  0  0  0  0  0  0  0  0  0
  -22.2110   -8.2205   21.5366 C   0  0  0  0  0  0  0  0  0  0  0  0
  -25.8096  -21.7987   25.7654 C   0  0  0  0  0  0  0  0  0  0  0  0
  -22.0441   -6.1062   22.5485 C   0  0  0  0  0  0  0  0  0  0  0  0
  -23.2173   -4.0737   24.0569 C   0  0  0  0  0  0  0  0  0  0  0  0
  -21.4748   -5.7212   23.7623 C   0  0  0  0  0  0  0  0  0  0  0  0
  -24.5384  -11.6590   20.7255 C   0  0  0  0  0  0  0  0  0  0  0  0
  -25.2419  -13.7249   20.4568 C   0  0  0  0  0  0  0  0  0  0  0  0
  -32.4836  -19.2696   25.0857 C   0  0  0  0  0  0  0  0  0  0  0  0
  -22.8635  -13.5507   21.2062 C   0  0  0  0  0  0  0  0  0  0  0  0
  -25.9915  -27.2192   25.9878 C   0  0  0  0  0  0  0  0  0  0  0  0
  -26.3666  -26.9719   29.2003 C   0  0  0  0  0  0  0  0  0  0  0  0
  -28.2575  -19.3691   24.6293 C   0  0  0  0  0  0  0  0  0  0  0  0
  -26.6697  -24.9527   31.9349 C   0  0  0  0  0  0  0  0  0  0  0  0
  -30.7215  -14.6846   20.6935 C   0  0  0  0  0  0  0  0  0  0  0  0
  -27.4076  -32.0985   25.4934 C   0  0  0  0  0  0  0  0  0  0  0  0
  -24.1043  -25.6623   26.5964 C   0  0  0  0  0  0  0  0  0  0  0  0
  -26.6494  -24.8503   27.8645 C   0  0  0  0  0  0  0  0  0  0  0  0
  -27.9388  -30.8779   26.2405 C   0  0  0  0  0  0  0  0  0  0  0  0
  -29.6042  -12.2283   18.3707 C   0  0  0  0  0  0  0  0  0  0  0  0
  -28.0159  -29.6732   25.3080 C   0  0  0  0  0  0  0  0  0  0  0  0
  -28.1532  -11.9718   18.7841 C   0  0  0  0  0  0  0  0  0  0  0  0
  -30.5039  -12.4734   19.5808 C   0  0  0  0  0  0  0  0  0  0  0  0
  -28.5877  -13.2650   20.9115 C   0  0  0  0  0  0  0  0  0  0  0  0
  -26.6276  -29.2973   24.7763 C   0  0  1  0  0  0  0  0  0  0  0  0
  -25.1190  -26.6890   27.0901 C   0  0  1  0  0  0  0  0  0  0  0  0
  -27.6309  -13.0770   19.7229 C   0  0  2  0  0  0  0  0  0  0  0  0
  -27.0020  -25.0397   34.4207 C   0  0  0  0  0  0  0  0  0  0  0  0
  -29.3167  -27.6283   28.7805 C   0  0  0  0  0  0  0  0  0  0  0  0
  -29.7629  -26.7795   31.0932 C   0  0  0  0  0  0  0  0  0  0  0  0
  -28.2695  -28.7489   30.7558 C   0  0  0  0  0  0  0  0  0  0  0  0
  -24.0886  -23.5971   32.4441 C   0  0  0  0  0  0  0  0  0  0  0  0
  -27.7661  -20.4625   25.5597 C   0  0  0  0  0  0  0  0  0  1  0  0
  -27.4479  -26.4459   30.1130 C   0  0  1  0  0  0  0  0  0  0  0  0
  -25.9864  -24.9831   33.2901 C   0  0  2  0  0  0  0  0  0  0  0  0
  -28.6867  -27.3840   30.1663 C   0  0  0  0  0  0  0  0  0  0  0  0
  -25.8079  -11.5314   20.3305 N   0  0  0  0  0  0  0  0  0  0  0  0
  -26.2084  -12.8048   20.1751 N   0  0  0  0  0  0  0  0  0  0  0  0
  -26.0110  -26.1521   28.1199 N   0  0  0  0  0  0  0  0  0  0  0  0
  -29.9485  -13.5359   20.4219 N   0  0  0  0  0  0  0  0  0  0  0  0
  -25.4759  -15.0504   20.3528 N   0  0  0  0  0  0  0  0  0  0  0  0
  -32.6693  -18.9261   26.3700 N   0  0  0  0  0  0  0  0  0  0  0  0
  -21.8312  -12.6675   21.5504 N   0  0  0  0  0  0  0  0  0  0  0  0
  -29.6414  -19.2504   24.6990 N   0  0  0  0  0  0  0  0  0  0  0  0
  -30.0769  -15.6413   21.4770 N   0  0  0  0  0  0  0  0  0  0  0  0
  -25.8767  -28.5813   25.7852 N   0  0  0  0  0  0  0  0  0  0  0  0
  -26.8146  -26.2184   31.4075 N   0  0  0  0  0  0  0  0  0  0  0  0
  -32.8938  -20.4758   24.6630 N   0  3  0  0  0  0  0  0  0  0  0  0
  -25.1459  -23.7663   33.4739 N   0  3  0  0  0  0  0  0  0  0  0  0
  -22.6472  -14.7862   21.2278 O   0  0  0  0  0  0  0  0  0  0  0  0
  -26.7164  -26.4498   25.3679 O   0  0  0  0  0  0  0  0  0  0  0  0
  -25.8514  -28.0665   29.4413 O   0  0  0  0  0  0  0  0  0  0  0  0
  -27.4819  -18.7176   23.9375 O   0  0  0  0  0  0  0  0  0  0  0  0
  -27.0412  -23.9107   31.3995 O   0  0  0  0  0  0  0  0  0  0  0  0
  -31.8605  -14.8224   20.2401 O   0  0  0  0  0  0  0  0  0  0  0  0
  -21.4624   -7.1143   21.7982 O   0  0  0  0  0  0  0  0  0  0  0  0
  -26.3446  -20.5747   25.5056 O   0  0  0  0  0  0  0  0  0  1  0  0
  -23.7799   -3.0968   24.7803 F   0  0  0  0  0  0  0  0  0  0  0  0
  -20.3638   -6.3231   24.2085 F   0  0  0  0  0  0  0  0  0  0  0  0
  1  2  1  0  0  0  0
  1  6  2  0  0  0  0
  2  7  2  0  0  0  0
  3 10  2  0  0  0  0
  3 18  1  0  0  0  0
  4 11  1  0  0  0  0
  4 18  2  0  0  0  0
  5  9  2  0  0  0  0
  5 19  1  0  0  0  0
  6 21  1  0  0  0  0
  7 23  1  0  0  0  0
  8 12  2  0  0  0  0
  8 22  1  0  0  0  0
  9 25  1  0  0  0  0
 10 27  1  0  0  0  0
 11 27  2  0  0  0  0
 12 28  1  0  0  0  0
 13 14  2  0  0  0  0
 13 29  1  0  0  0  0
 14 30  1  0  0  0  0
 15 24  1  0  0  0  0
 15 28  2  0  0  0  0
 16 25  2  0  0  0  0
 16 26  1  0  0  0  0
 17 30  2  0  0  0  0
 17 31  1  0  0  0  0
 18 32  1  0  0  0  0
 19 26  2  0  0  0  0
 19 34  1  0  0  0  0
 20 32  1  0  0  0  0
 20 33  2  0  0  0  0
 20 35  1  0  0  0  0
 21 23  2  0  0  0  0
 21 41  1  0  0  0  0
 22 24  2  0  0  0  0
 22 42  1  0  0  0  0
 23 50  1  0  0  0  0
 24 43  1  0  0  0  0
 25 70  1  0  0  0  0
 26 69  1  0  0  0  0
 27 81  1  0  0  0  0
 28 82  1  0  0  0  0
 29 31  2  0  0  0  0
 29 81  1  0  0  0  0
 30 83  1  0  0  0  0
 31 84  1  0  0  0  0
 32 62  2  0  0  0  0
 33 63  1  0  0  0  0
 33 66  1  0  0  0  0
 34 67  1  0  0  0  0
 34 73  2  0  0  0  0
 35 68  1  0  0  0  0
 35 75  2  0  0  0  0
 36 51  1  0  0  0  0
 36 71  1  0  0  0  0
 36 76  2  0  0  0  0
 37 59  1  0  0  0  0
 37 64  1  0  0  0  0
 37 77  2  0  0  0  0
 38 58  1  0  0  0  0
 38 69  1  0  0  0  0
 38 78  2  0  0  0  0
 39 60  1  0  0  0  0
 39 72  1  0  0  0  0
 39 79  2  0  0  0  0
 40 65  1  0  0  0  0
 40 70  1  0  0  0  0
 40 80  2  0  0  0  0
 41 44  1  0  0  0  0
 42 51  1  0  0  0  0
 43 64  1  0  0  0  0
 44 46  1  0  0  0  0
 45 47  1  0  0  0  0
 45 48  1  0  0  0  0
 46 50  1  0  0  0  0
 47 52  1  0  0  0  0
 48 65  1  0  0  0  0
 49 52  1  0  0  0  0
 49 65  1  0  0  0  0
 50 71  1  0  0  0  0
 51 64  1  0  0  0  0
 52 63  1  0  0  0  0
 53 60  1  0  0  0  0
 54 61  1  0  0  0  0
 55 61  1  0  0  0  0
 56 61  1  0  0  0  0
 57 74  1  0  0  0  0
 58 82  1  0  0  0  0
 59 61  1  0  0  0  0
 59 72  1  0  0  0  0
 60 74  1  0  0  0  0
 62 63  1  0  0  0  0
M  CHG  2  73   1  74   1
M  ISO  4  40 100  58 101  70 100  82 101
M  END
> <Batch ID>
0067

> <Smiles>
CNC(C)C(=O)NC(C(=O)N1Cc2cc([101O:1][101CH2:1]C(=O)Nc3cc([100NH:0][100C:0](=O)N4CCCC(n5nc(-c6ccc(Oc7ccc(F)cc7F)cc6)c(C(N)=O)c5N)C4)ccc3C(=N)N)ccc2CC1C(=O)NC1CCCc2ccccc21)C(C)(C)C

> <Shape>
0.236

> <Color>
0.186

> <Negative vol penalty>
0.000

$$$$

  -OEChem-04042323243D

 83 91  0     1  0  0  0  0  0999 V2000
  -25.0593   -9.9824   25.5744 C   0  0  0  0  0  0  0  0  0  0  0  0
  -25.3675  -11.3377   25.5140 C   0  0  0  0  0  0  0  0  0  0  0  0
  -22.6656  -10.1824   20.1258 C   0  0  0  0  0  0  0  0  0  0  0  0
  -24.2815   -9.4430   21.7627 C   0  0  0  0  0  0  0  0  0  0  0  0
  -23.7610   -9.5768   25.8805 C   0  0  0  0  0  0  0  0  0  0  0  0
  -24.3771  -12.2883   25.7587 C   0  0  0  0  0  0  0  0  0  0  0  0
  -25.9683  -16.0134   28.7978 C   0  0  0  0  0  0  0  0  0  0  0  0
  -31.2640  -19.0976   20.8794 C   0  0  0  0  0  0  0  0  0  0  0  0
  -31.1064  -17.7136   20.8074 C   0  0  0  0  0  0  0  0  0  0  0  0
  -21.9314   -9.0128   20.3222 C   0  0  0  0  0  0  0  0  0  0  0  0
  -23.5472   -8.2734   21.9592 C   0  0  0  0  0  0  0  0  0  0  0  0
  -26.7673  -17.0033   28.2271 C   0  0  0  0  0  0  0  0  0  0  0  0
  -20.7620   -7.3335   23.6263 C   0  0  0  0  0  0  0  0  0  0  0  0
  -20.5465   -6.9184   24.9404 C   0  0  0  0  0  0  0  0  0  0  0  0
  -24.8464  -18.4539   28.0687 C   0  0  0  0  0  0  0  0  0  0  0  0
  -29.4784  -17.8062   22.5902 C   0  0  0  0  0  0  0  0  0  0  0  0
  -21.6915   -4.8430   24.4726 C   0  0  0  0  0  0  0  0  0  0  0  0
  -23.8407  -10.3975   20.8459 C   0  0  0  0  0  0  0  0  0  0  0  0
  -24.1627  -12.9281   20.8444 C   0  0  0  0  0  0  0  0  0  0  0  0
  -22.7564  -10.5229   26.1386 C   0  0  0  0  0  0  0  0  0  0  0  0
  -24.5979  -16.2328   28.9985 C   0  0  0  0  0  0  0  0  0  0  0  0
  -23.0637  -11.8950   26.0673 C   0  0  0  0  0  0  0  0  0  0  0  0
  -24.0328  -17.4662   28.6444 C   0  0  0  0  0  0  0  0  0  0  0  0
  -30.5288  -19.8360   21.8069 C   0  0  0  0  0  0  0  0  0  0  0  0
  -30.2136  -17.0679   21.6628 C   0  0  0  0  0  0  0  0  0  0  0  0
  -29.6360  -19.1903   22.6622 C   0  0  0  0  0  0  0  0  0  0  0  0
  -22.3722   -8.0583   21.2390 C   0  0  0  0  0  0  0  0  0  0  0  0
  -26.2058  -18.2227   27.8598 C   0  0  0  0  0  0  0  0  0  0  0  0
  -21.4421   -6.5032   22.7352 C   0  0  0  0  0  0  0  0  0  0  0  0
  -21.0113   -5.6732   25.3635 C   0  0  0  0  0  0  0  0  0  0  0  0
  -21.9069   -5.2580   23.1584 C   0  0  0  0  0  0  0  0  0  0  0  0
  -24.5999  -11.6052   20.6430 C   0  0  0  0  0  0  0  0  0  0  0  0
  -25.2481  -13.7024   20.5145 C   0  0  0  0  0  0  0  0  0  0  0  0
  -22.8893  -13.4136   21.2898 C   0  0  0  0  0  0  0  0  0  0  0  0
  -21.9290  -14.8807   27.9249 C   0  0  0  0  0  0  0  0  0  0  0  0
  -20.5200  -16.8922   30.0442 C   0  0  0  0  0  0  0  0  0  0  0  0
  -27.9575  -19.4252   24.5254 C   0  0  0  0  0  0  0  0  0  0  0  0
  -20.6934  -19.7820   31.8512 C   0  0  0  0  0  0  0  0  0  0  0  0
  -30.7064  -14.7815   20.7268 C   0  0  0  0  0  0  0  0  0  0  0  0
  -21.3564  -10.0370   26.4189 C   0  0  0  0  0  0  0  0  0  0  0  0
  -23.7551  -15.1647   29.6398 C   0  0  0  0  0  0  0  0  0  0  0  0
  -22.5708  -17.7590   28.8576 C   0  0  0  0  0  0  0  0  0  0  0  0
  -20.4532  -11.1034   27.0332 C   0  0  0  0  0  0  0  0  0  0  0  0
  -29.6049  -12.4733   18.2497 C   0  0  0  0  0  0  0  0  0  0  0  0
  -20.5882  -12.4194   26.2738 C   0  0  0  0  0  0  0  0  0  0  0  0
  -28.1686  -12.1505   18.6681 C   0  0  0  0  0  0  0  0  0  0  0  0
  -30.5211  -12.6524   19.4588 C   0  0  0  0  0  0  0  0  0  0  0  0
  -28.6121  -13.2960   20.8768 C   0  0  0  0  0  0  0  0  0  0  0  0
  -22.0226  -12.9561   26.3508 C   0  0  1  0  0  0  0  0  0  0  0  0
  -22.2691  -15.3069   29.3251 C   0  0  1  0  0  0  0  0  0  0  0  0
  -27.6377  -13.1708   19.6941 C   0  0  2  0  0  0  0  0  0  0  0  0
  -30.7180  -21.3172   21.8617 C   0  0  0  0  0  0  0  0  0  0  0  0
  -19.3726  -21.1792   33.4639 C   0  0  0  0  0  0  0  0  0  0  0  0
  -18.7729  -17.8860   27.7485 C   0  0  0  0  0  0  0  0  0  0  0  0
  -18.1789  -19.8720   29.1525 C   0  0  0  0  0  0  0  0  0  0  0  0
  -17.5683  -17.5778   29.9184 C   0  0  0  0  0  0  0  0  0  0  0  0
  -22.7492  -19.4977   33.9612 C   0  0  0  0  0  0  0  0  0  0  0  0
  -27.3717  -20.5583   25.3603 C   0  0  0  0  0  0  0  0  0  0  0  0
  -26.3520  -20.0813   26.3833 C   0  0  0  0  0  0  0  0  0  1  0  0
  -19.9890  -18.3042   29.9873 C   0  0  1  0  0  0  0  0  0  0  0  0
  -20.4070  -20.0747   33.3130 C   0  0  2  0  0  0  0  0  0  0  0  0
  -18.6545  -18.4041   29.1958 C   0  0  0  0  0  0  0  0  0  0  0  0
  -25.8644  -11.5391   20.2180 N   0  0  0  0  0  0  0  0  0  0  0  0
  -26.2310  -12.8302   20.1495 N   0  0  0  0  0  0  0  0  0  0  0  0
  -21.7870  -16.6806   29.4822 N   0  0  0  0  0  0  0  0  0  0  0  0
  -29.9564  -13.6363   20.3850 N   0  0  0  0  0  0  0  0  0  0  0  0
  -25.4480  -15.0375   20.5039 N   0  0  0  0  0  0  0  0  0  0  0  0
  -22.6857  -13.5910   22.6651 N   0  0  0  0  0  0  0  0  0  0  0  0
  -28.8814  -19.9220   23.6098 N   0  0  0  0  0  0  0  0  0  0  0  0
  -30.0539  -15.6619   21.5892 N   0  0  0  0  0  0  0  0  0  0  0  0
  -22.2637  -13.5710   27.6386 N   0  0  0  0  0  0  0  0  0  0  0  0
  -19.8997  -18.7627   31.3694 N   0  0  0  0  0  0  0  0  0  0  0  0
  -21.6537  -20.5000   34.0100 N   0  3  0  0  0  0  0  0  0  0  0  0
  -21.9540  -13.6666   20.4931 O   0  0  0  0  0  0  0  0  0  0  0  0
  -21.4006  -15.6805   27.1615 O   0  0  0  0  0  0  0  0  0  0  0  0
  -19.8389  -16.0108   30.5742 O   0  0  0  0  0  0  0  0  0  0  0  0
  -27.6215  -18.2564   24.6839 O   0  0  0  0  0  0  0  0  0  0  0  0
  -21.5343  -20.3987   31.2007 O   0  0  0  0  0  0  0  0  0  0  0  0
  -31.8330  -14.9810   20.2652 O   0  0  0  0  0  0  0  0  0  0  0  0
  -21.6559   -6.9171   21.4311 O   0  0  0  0  0  0  0  0  0  0  0  0
  -26.9833  -19.1903   27.3020 O   0  0  0  0  0  0  0  0  0  1  0  0
  -20.8057   -5.2754   26.6259 F   0  0  0  0  0  0  0  0  0  0  0  0
  -22.5620   -4.4566   22.3073 F   0  0  0  0  0  0  0  0  0  0  0  0
  1  2  1  0  0  0  0
  1  5  2  0  0  0  0
  2  6  2  0  0  0  0
  3 10  2  0  0  0  0
  3 18  1  0  0  0  0
  4 11  1  0  0  0  0
  4 18  2  0  0  0  0
  5 20  1  0  0  0  0
  6 22  1  0  0  0  0
  7 12  2  0  0  0  0
  7 21  1  0  0  0  0
  8  9  2  0  0  0  0
  8 24  1  0  0  0  0
  9 25  1  0  0  0  0
 10 27  1  0  0  0  0
 11 27  2  0  0  0  0
 12 28  1  0  0  0  0
 13 14  2  0  0  0  0
 13 29  1  0  0  0  0
 14 30  1  0  0  0  0
 15 23  1  0  0  0  0
 15 28  2  0  0  0  0
 16 25  2  0  0  0  0
 16 26  1  0  0  0  0
 17 30  2  0  0  0  0
 17 31  1  0  0  0  0
 18 32  1  0  0  0  0
 19 32  1  0  0  0  0
 19 33  2  0  0  0  0
 19 34  1  0  0  0  0
 20 22  2  0  0  0  0
 20 40  1  0  0  0  0
 21 23  2  0  0  0  0
 21 41  1  0  0  0  0
 22 49  1  0  0  0  0
 23 42  1  0  0  0  0
 24 26  2  0  0  0  0
 24 52  1  0  0  0  0
 25 70  1  0  0  0  0
 26 69  1  0  0  0  0
 27 80  1  0  0  0  0
 28 81  1  0  0  0  0
 29 31  2  0  0  0  0
 29 80  1  0  0  0  0
 30 82  1  0  0  0  0
 31 83  1  0  0  0  0
 32 63  2  0  0  0  0
 33 64  1  0  0  0  0
 33 67  1  0  0  0  0
 34 68  1  0  0  0  0
 34 74  2  0  0  0  0
 35 50  1  0  0  0  0
 35 71  1  0  0  0  0
 35 75  2  0  0  0  0
 36 60  1  0  0  0  0
 36 65  1  0  0  0  0
 36 76  2  0  0  0  0
 37 58  1  0  0  0  0
 37 69  1  0  0  0  0
 37 77  2  0  0  0  0
 38 61  1  0  0  0  0
 38 72  1  0  0  0  0
 38 78  2  0  0  0  0
 39 66  1  0  0  0  0
 39 70  1  0  0  0  0
 39 79  2  0  0  0  0
 40 43  1  0  0  0  0
 41 50  1  0  0  0  0
 42 65  1  0  0  0  0
 43 45  1  0  0  0  0
 44 46  1  0  0  0  0
 44 47  1  0  0  0  0
 45 49  1  0  0  0  0
 46 51  1  0  0  0  0
 47 66  1  0  0  0  0
 48 51  1  0  0  0  0
 48 66  1  0  0  0  0
 49 71  1  0  0  0  0
 50 65  1  0  0  0  0
 51 64  1  0  0  0  0
 53 61  1  0  0  0  0
 54 62  1  0  0  0  0
 55 62  1  0  0  0  0
 56 62  1  0  0  0  0
 57 73  1  0  0  0  0
 58 59  1  0  0  0  0
 59 81  1  0  0  0  0
 60 62  1  0  0  0  0
 60 72  1  0  0  0  0
 61 73  1  0  0  0  0
 63 64  1  0  0  0  0
M  CHG  1  73   1
M  ISO  4  39 100  59 101  70 100  81 101
M  END
> <Batch ID>
0067

> <Smiles>
CNC(C)C(=O)NC(C(=O)N1Cc2cc([101O:1][101CH2:1]CC(=O)Nc3cc([100NH:0][100C:0](=O)N4CCCC(n5nc(-c6ccc(Oc7ccc(F)cc7F)cc6)c(C(N)=O)c5N)C4)ccc3C)ccc2CC1C(=O)NC1CCCc2ccccc21)C(C)(C)C

> <Shape>
0.192

> <Color>
0.178

> <Negative vol penalty>
0.000

$$$$

  -OEChem-04042323243D

 82 90  0     1  0  0  0  0  0999 V2000
  -23.6153  -30.7372   20.2741 C   0  0  0  0  0  0  0  0  0  0  0  0
  -23.7865  -29.3636   20.4134 C   0  0  0  0  0  0  0  0  0  0  0  0
  -22.9549   -9.8821   20.0484 C   0  0  0  0  0  0  0  0  0  0  0  0
  -23.6106  -10.0717   22.3660 C   0  0  0  0  0  0  0  0  0  0  0  0
  -24.3551  -31.6145   21.0659 C   0  0  0  0  0  0  0  0  0  0  0  0
  -24.6984  -28.8666   21.3439 C   0  0  0  0  0  0  0  0  0  0  0  0
  -24.1653  -23.7336   24.6416 C   0  0  0  0  0  0  0  0  0  0  0  0
  -32.6567  -17.4530   23.3230 C   0  0  0  0  0  0  0  0  0  0  0  0
  -32.0756  -16.5113   22.4738 C   0  0  0  0  0  0  0  0  0  0  0  0
  -22.1555   -8.7837   20.3644 C   0  0  0  0  0  0  0  0  0  0  0  0
  -22.8111   -8.9733   22.6820 C   0  0  0  0  0  0  0  0  0  0  0  0
  -24.6886  -22.4523   24.4738 C   0  0  0  0  0  0  0  0  0  0  0  0
  -22.9949   -5.6061   22.4394 C   0  0  0  0  0  0  0  0  0  0  0  0
  -23.5364   -4.6295   23.2753 C   0  0  0  0  0  0  0  0  0  0  0  0
  -26.5035  -23.0050   25.9638 C   0  0  0  0  0  0  0  0  0  0  0  0
  -29.9028  -17.4871   22.8785 C   0  0  0  0  0  0  0  0  0  0  0  0
  -21.7682   -5.0184   24.8751 C   0  0  0  0  0  0  0  0  0  0  0  0
  -23.6825  -10.5261   21.0492 C   0  0  0  0  0  0  0  0  0  0  0  0
  -24.1292  -13.0161   20.7200 C   0  0  0  0  0  0  0  0  0  0  0  0
  -25.2695  -31.1278   22.0134 C   0  0  0  0  0  0  0  0  0  0  0  0
  -24.8141  -24.6654   25.4646 C   0  0  0  0  0  0  0  0  0  0  0  0
  -25.4521  -29.7382   22.1482 C   0  0  0  0  0  0  0  0  0  0  0  0
  -25.9849  -24.2966   26.1424 C   0  0  0  0  0  0  0  0  0  0  0  0
  -31.8608  -18.4117   23.9501 C   0  0  0  0  0  0  0  0  0  0  0  0
  -30.6987  -16.5284   22.2515 C   0  0  0  0  0  0  0  0  0  0  0  0
  -30.4839  -18.4288   23.7278 C   0  0  0  0  0  0  0  0  0  0  0  0
  -22.0835   -8.3293   21.6812 C   0  0  0  0  0  0  0  0  0  0  0  0
  -25.8595  -22.0888   25.1326 C   0  0  0  0  0  0  0  0  0  0  0  0
  -21.8401   -6.2889   22.8214 C   0  0  0  0  0  0  0  0  0  0  0  0
  -22.9230   -4.3357   24.4931 C   0  0  0  0  0  0  0  0  0  0  0  0
  -21.2267   -5.9950   24.0392 C   0  0  0  0  0  0  0  0  0  0  0  0
  -24.5090  -11.6605   20.7233 C   0  0  0  0  0  0  0  0  0  0  0  0
  -25.2654  -13.6901   20.3443 C   0  0  0  0  0  0  0  0  0  0  0  0
  -22.8626  -13.6126   21.0290 C   0  0  0  0  0  0  0  0  0  0  0  0
  -26.1629  -27.5069   25.0063 C   0  0  0  0  0  0  0  0  0  0  0  0
  -26.4366  -27.4640   28.2383 C   0  0  0  0  0  0  0  0  0  0  0  0
  -28.2819  -19.5371   24.2344 C   0  0  0  0  0  0  0  0  0  0  0  0
  -26.6104  -25.6234   31.1069 C   0  0  0  0  0  0  0  0  0  0  0  0
  -30.7553  -14.5533   20.6888 C   0  0  0  0  0  0  0  0  0  0  0  0
  -26.0809  -32.1158   22.8134 C   0  0  0  0  0  0  0  0  0  0  0  0
  -24.2222  -26.0348   25.6562 C   0  0  0  0  0  0  0  0  0  0  0  0
  -26.7086  -25.2533   27.0532 C   0  0  0  0  0  0  0  0  0  0  0  0
  -26.7537  -31.5013   24.0382 C   0  0  0  0  0  0  0  0  0  0  0  0
  -29.6538  -11.9741   18.4953 C   0  0  0  0  0  0  0  0  0  0  0  0
  -27.4341  -30.1866   23.6701 C   0  0  0  0  0  0  0  0  0  0  0  0
  -28.1859  -11.7741   18.8791 C   0  0  0  0  0  0  0  0  0  0  0  0
  -30.5223  -12.2792   19.7144 C   0  0  0  0  0  0  0  0  0  0  0  0
  -28.5853  -13.1939   20.9313 C   0  0  0  0  0  0  0  0  0  0  0  0
  -26.4136  -29.1601   23.1638 C   0  0  1  0  0  0  0  0  0  0  0  0
  -25.2457  -27.0696   26.1132 C   0  0  1  0  0  0  0  0  0  0  0  0
  -27.6604  -12.9482   19.7281 C   0  0  2  0  0  0  0  0  0  0  0  0
  -32.5104  -19.4080   24.8546 C   0  0  0  0  0  0  0  0  0  0  0  0
  -26.8708  -25.8670   33.5909 C   0  0  0  0  0  0  0  0  0  0  0  0
  -29.4125  -28.0272   27.8687 C   0  0  0  0  0  0  0  0  0  0  0  0
  -29.7696  -27.3233   30.2446 C   0  0  0  0  0  0  0  0  0  0  0  0
  -28.3339  -29.2981   29.7331 C   0  0  0  0  0  0  0  0  0  0  0  0
  -23.9840  -24.3606   31.6228 C   0  0  0  0  0  0  0  0  0  0  0  0
  -27.7891  -20.6998   25.0756 C   0  0  0  0  0  0  0  0  0  1  0  0
  -27.4775  -26.9760   29.2166 C   0  0  1  0  0  0  0  0  0  0  0  0
  -25.8882  -25.7580   32.4353 C   0  0  2  0  0  0  0  0  0  0  0  0
  -28.7360  -27.8885   29.2471 C   0  0  0  0  0  0  0  0  0  0  0  0
  -25.7866  -11.4822   20.3769 N   0  0  0  0  0  0  0  0  0  0  0  0
  -26.2194  -12.7345   20.1525 N   0  0  0  0  0  0  0  0  0  0  0  0
  -26.0938  -26.5826   27.2031 N   0  0  0  0  0  0  0  0  0  0  0  0
  -29.9657  -13.4050   20.4678 N   0  0  0  0  0  0  0  0  0  0  0  0
  -25.5314  -15.0010   20.1625 N   0  0  0  0  0  0  0  0  0  0  0  0
  -21.8013  -12.7744   21.3971 N   0  0  0  0  0  0  0  0  0  0  0  0
  -29.6599  -19.3933   24.3548 N   0  0  0  0  0  0  0  0  0  0  0  0
  -30.1089  -15.5715   21.3887 N   0  0  0  0  0  0  0  0  0  0  0  0
  -25.6891  -28.5781   24.2732 N   0  0  0  0  0  0  0  0  0  0  0  0
  -26.8008  -26.8482   30.5028 N   0  0  0  0  0  0  0  0  0  0  0  0
  -25.0140  -24.5744   32.6718 N   0  3  0  0  0  0  0  0  0  0  0  0
  -22.6729  -14.8509   20.9644 O   0  0  0  0  0  0  0  0  0  0  0  0
  -27.2227  -26.9171   24.8313 O   0  0  0  0  0  0  0  0  0  0  0  0
  -25.9404  -28.5829   28.3911 O   0  0  0  0  0  0  0  0  0  0  0  0
  -27.5120  -18.8583   23.5627 O   0  0  0  0  0  0  0  0  0  0  0  0
  -26.9730  -24.5406   30.6525 O   0  0  0  0  0  0  0  0  0  0  0  0
  -31.9101  -14.6385   20.2631 O   0  0  0  0  0  0  0  0  0  0  0  0
  -21.3033   -7.2576   21.9900 O   0  0  0  0  0  0  0  0  0  0  0  0
  -26.3728  -20.8390   24.9701 O   0  0  0  0  0  0  0  0  0  1  0  0
  -23.4423   -3.3968   25.2950 F   0  0  0  0  0  0  0  0  0  0  0  0
  -20.1164   -6.6468   24.4110 F   0  0  0  0  0  0  0  0  0  0  0  0
  1  2  1  0  0  0  0
  1  5  2  0  0  0  0
  2  6  2  0  0  0  0
  3 10  2  0  0  0  0
  3 18  1  0  0  0  0
  4 11  1  0  0  0  0
  4 18  2  0  0  0  0
  5 20  1  0  0  0  0
  6 22  1  0  0  0  0
  7 12  2  0  0  0  0
  7 21  1  0  0  0  0
  8  9  2  0  0  0  0
  8 24  1  0  0  0  0
  9 25  1  0  0  0  0
 10 27  1  0  0  0  0
 11 27  2  0  0  0  0
 12 28  1  0  0  0  0
 13 14  2  0  0  0  0
 13 29  1  0  0  0  0
 14 30  1  0  0  0  0
 15 23  1  0  0  0  0
 15 28  2  0  0  0  0
 16 25  2  0  0  0  0
 16 26  1  0  0  0  0
 17 30  2  0  0  0  0
 17 31  1  0  0  0  0
 18 32  1  0  0  0  0
 19 32  1  0  0  0  0
 19 33  2  0  0  0  0
 19 34  1  0  0  0  0
 20 22  2  0  0  0  0
 20 40  1  0  0  0  0
 21 23  2  0  0  0  0
 21 41  1  0  0  0  0
 22 49  1  0  0  0  0
 23 42  1  0  0  0  0
 24 26  2  0  0  0  0
 24 52  1  0  0  0  0
 25 69  1  0  0  0  0
 26 68  1  0  0  0  0
 27 79  1  0  0  0  0
 28 80  1  0  0  0  0
 29 31  2  0  0  0  0
 29 79  1  0  0  0  0
 30 81  1  0  0  0  0
 31 82  1  0  0  0  0
 32 62  2  0  0  0  0
 33 63  1  0  0  0  0
 33 66  1  0  0  0  0
 34 67  1  0  0  0  0
 34 73  2  0  0  0  0
 35 50  1  0  0  0  0
 35 70  1  0  0  0  0
 35 74  2  0  0  0  0
 36 59  1  0  0  0  0
 36 64  1  0  0  0  0
 36 75  2  0  0  0  0
 37 58  1  0  0  0  0
 37 68  1  0  0  0  0
 37 76  2  0  0  0  0
 38 60  1  0  0  0  0
 38 71  1  0  0  0  0
 38 77  2  0  0  0  0
 39 65  1  0  0  0  0
 39 69  1  0  0  0  0
 39 78  2  0  0  0  0
 40 43  1  0  0  0  0
 41 50  1  0  0  0  0
 42 64  1  0  0  0  0
 43 45  1  0  0  0  0
 44 46  1  0  0  0  0
 44 47  1  0  0  0  0
 45 49  1  0  0  0  0
 46 51  1  0  0  0  0
 47 65  1  0  0  0  0
 48 51  1  0  0  0  0
 48 65  1  0  0  0  0
 49 70  1  0  0  0  0
 50 64  1  0  0  0  0
 51 63  1  0  0  0  0
 53 60  1  0  0  0  0
 54 61  1  0  0  0  0
 55 61  1  0  0  0  0
 56 61  1  0  0  0  0
 57 72  1  0  0  0  0
 58 80  1  0  0  0  0
 59 61  1  0  0  0  0
 59 71  1  0  0  0  0
 60 72  1  0  0  0  0
 62 63  1  0  0  0  0
M  CHG  1  72   1
M  ISO  4  39 100  58 101  69 100  80 101
M  END
> <Batch ID>
0067

> <Smiles>
CNC(C)C(=O)NC(C(=O)N1Cc2cc([101O:1][101CH2:1]C(=O)Nc3cc([100NH:0][100C:0](=O)N4CCCC(n5nc(-c6ccc(Oc7ccc(F)cc7F)cc6)c(C(N)=O)c5N)C4)ccc3C)ccc2CC1C(=O)NC1CCCc2ccccc21)C(C)(C)C

> <Shape>
0.240

> <Color>
0.214

> <Negative vol penalty>
0.000

$$$$

  -OEChem-04042323243D

 88 96  0     1  0  0  0  0  0999 V2000
  -22.0561  -23.2176   21.0598 C   0  0  0  0  0  0  0  0  0  0  0  0
  -23.3363  -23.7432   20.9175 C   0  0  0  0  0  0  0  0  0  0  0  0
  -26.9564  -13.4208   21.3055 C   0  0  0  0  0  0  0  0  0  0  0  0
  -26.9095  -13.5136   18.8917 C   0  0  0  0  0  0  0  0  0  0  0  0
  -20.9507  -24.0672   21.0573 C   0  0  0  0  0  0  0  0  0  0  0  0
  -23.5117  -25.1189   20.7715 C   0  0  0  0  0  0  0  0  0  0  0  0
  -27.2776  -26.9128   23.6428 C   0  0  0  0  0  0  0  0  0  0  0  0
  -26.2059  -12.2455   21.2749 C   0  0  0  0  0  0  0  0  0  0  0  0
  -26.1590  -12.3383   18.8611 C   0  0  0  0  0  0  0  0  0  0  0  0
  -28.5792  -26.7058   23.1880 C   0  0  0  0  0  0  0  0  0  0  0  0
  -26.7463   -8.9594   20.6896 C   0  0  0  0  0  0  0  0  0  0  0  0
  -27.1516   -7.9098   21.5140 C   0  0  0  0  0  0  0  0  0  0  0  0
  -28.6385  -28.9663   22.3477 C   0  0  0  0  0  0  0  0  0  0  0  0
  -31.1437  -23.4757   18.4221 C   0  0  0  0  0  0  0  0  0  0  0  0
  -32.1198  -21.6601   17.1622 C   0  0  0  0  0  0  0  0  0  0  0  0
  -25.0169   -7.9726   22.6436 C   0  0  0  0  0  0  0  0  0  0  0  0
  -27.3082  -14.0549   20.1139 C   0  0  0  0  0  0  0  0  0  0  0  0
  -29.4859  -15.3835   20.1219 C   0  0  0  0  0  0  0  0  0  0  0  0
  -21.1133  -25.4549   20.9208 C   0  0  0  0  0  0  0  0  0  0  0  0
  -26.6417  -28.1466   23.4435 C   0  0  0  0  0  0  0  0  0  0  0  0
  -22.4073  -25.9878   20.7658 C   0  0  0  0  0  0  0  0  0  0  0  0
  -27.3298  -29.1872   22.8033 C   0  0  0  0  0  0  0  0  0  0  0  0
  -31.0271  -22.2216   17.8227 C   0  0  0  0  0  0  0  0  0  0  0  0
  -32.3529  -24.1684   18.3608 C   0  0  0  0  0  0  0  0  0  0  0  0
  -33.4456  -23.6068   17.7003 C   0  0  0  0  0  0  0  0  0  0  0  0
  -25.8072  -11.7042   20.0527 C   0  0  0  0  0  0  0  0  0  0  0  0
  -29.2588  -27.7317   22.5377 C   0  0  0  0  0  0  0  0  0  0  0  0
  -25.4763   -9.5157   20.8422 C   0  0  0  0  0  0  0  0  0  0  0  0
  -26.2869   -7.4164   22.4910 C   0  0  0  0  0  0  0  0  0  0  0  0
  -33.3291  -22.3526   17.1010 C   0  0  0  0  0  0  0  0  0  0  0  0
  -24.6116   -9.0223   21.8192 C   0  0  0  0  0  0  0  0  0  0  0  0
  -28.0830  -15.2693   20.1449 C   0  0  0  0  0  0  0  0  0  0  0  0
  -29.7212  -16.7359   20.1684 C   0  0  0  0  0  0  0  0  0  0  0  0
  -30.4869  -14.3587   20.0635 C   0  0  0  0  0  0  0  0  0  0  0  0
  -24.0499  -29.1066   21.8737 C   0  0  0  0  0  0  0  0  0  0  0  0
  -24.7286  -31.9506   23.2785 C   0  0  0  0  0  0  0  0  0  0  0  0
  -31.4519  -26.1242   19.6673 C   0  0  0  0  0  0  0  0  0  0  0  0
  -27.0618  -33.9974   24.6975 C   0  0  0  0  0  0  0  0  0  0  0  0
  -28.6179  -21.9322   18.4998 C   0  0  0  0  0  0  0  0  0  0  0  0
  -19.8849  -26.3288   20.8764 C   0  0  0  0  0  0  0  0  0  0  0  0
  -25.2471  -28.3625   23.9639 C   0  0  0  0  0  0  0  0  0  0  0  0
  -26.6991  -30.5370   22.5825 C   0  0  0  0  0  0  0  0  0  0  0  0
  -20.1832  -27.8102   21.0927 C   0  0  0  0  0  0  0  0  0  0  0  0
  -26.5805  -20.5956   21.0959 C   0  0  0  0  0  0  0  0  0  0  0  0
  -21.3714  -28.2454   20.2409 C   0  0  0  0  0  0  0  0  0  0  0  0
  -26.9052  -19.1002   21.0781 C   0  0  0  0  0  0  0  0  0  0  0  0
  -26.5660  -21.1897   19.6886 C   0  0  0  0  0  0  0  0  0  0  0  0
  -28.1002  -19.4412   18.8775 C   0  0  0  0  0  0  0  0  0  0  0  0
  -22.6400  -27.4769   20.6299 C   0  0  1  0  0  0  0  0  0  0  0  0
  -24.5114  -29.4926   23.2505 C   0  0  1  0  0  0  0  0  0  0  0  0
  -28.1903  -18.8120   20.2773 C   0  0  2  0  0  0  0  0  0  0  0  0
  -27.3249  -36.2753   25.7168 C   0  0  0  0  0  0  0  0  0  0  0  0
  -24.6453  -33.2022   20.4970 C   0  0  0  0  0  0  0  0  0  0  0  0
  -25.8222  -35.2018   21.4377 C   0  0  0  0  0  0  0  0  0  0  0  0
  -23.5642  -34.5706   22.2895 C   0  0  0  0  0  0  0  0  0  0  0  0
  -27.9104  -32.8638   27.2963 C   0  0  0  0  0  0  0  0  0  0  0  0
  -34.1913  -26.4094   16.0410 C   0  0  0  0  0  0  0  0  0  0  0  0
  -31.9769  -27.4639   20.1708 C   0  0  0  0  0  0  0  0  0  0  0  0
  -30.9345  -28.2646   20.9365 C   0  0  0  0  0  0  0  0  0  1  0  0
  -25.5636  -33.1529   22.9095 C   0  0  1  0  0  0  0  0  0  0  0  0
  -27.0453  -34.8044   25.9831 C   0  0  2  0  0  0  0  0  0  0  0  0
  -24.9103  -34.0059   21.7857 C   0  0  0  0  0  0  0  0  0  0  0  0
  -27.4701  -16.4547   20.2019 N   0  0  0  0  0  0  0  0  0  0  0  0
  -28.4927  -17.3265   20.2151 N   0  0  0  0  0  0  0  0  0  0  0  0
  -25.3315  -30.6969   23.1039 N   0  0  0  0  0  0  0  0  0  0  0  0
  -27.8164  -20.8804   18.9918 N   0  0  0  0  0  0  0  0  0  0  0  0
  -30.8570  -17.4655   20.1737 N   0  0  0  0  0  0  0  0  0  0  0  0
  -30.0717  -13.0207   20.0208 N   0  0  0  0  0  0  0  0  0  0  0  0
  -32.4478  -25.4391   18.9764 N   0  0  0  0  0  0  0  0  0  0  0  0
  -29.7988  -21.5180   17.8845 N   0  0  0  0  0  0  0  0  0  0  0  0
  -34.6950  -24.3004   17.6245 N   0  0  0  0  0  0  0  0  0  0  0  0
  -23.2029  -28.0150   21.8497 N   0  0  0  0  0  0  0  0  0  0  0  0
  -25.8012  -33.8814   24.1510 N   0  0  0  0  0  0  0  0  0  0  0  0
  -28.0777  -34.2935   26.9287 N   0  3  0  0  0  0  0  0  0  0  0  0
  -31.7136  -14.6210   20.0661 O   0  0  0  0  0  0  0  0  0  0  0  0
  -24.4326  -29.7523   20.9050 O   0  0  0  0  0  0  0  0  0  0  0  0
  -23.5861  -32.1179   23.7125 O   0  0  0  0  0  0  0  0  0  0  0  0
  -30.3005  -25.7552   19.8732 O   0  0  0  0  0  0  0  0  0  0  0  0
  -28.0907  -33.5209   24.2233 O   0  0  0  0  0  0  0  0  0  0  0  0
  -28.2947  -23.1145   18.6399 O   0  0  0  0  0  0  0  0  0  0  0  0
  -36.5644  -25.3555   16.2002 O   0  0  0  0  0  0  0  0  0  0  0  0
  -34.7513  -24.0668   15.0182 O   0  0  0  0  0  0  0  0  0  0  0  0
  -25.0751  -10.5572   20.0225 O   0  0  0  0  0  0  0  0  0  0  0  0
  -30.5291  -27.5322   22.0922 O   0  0  0  0  0  0  0  0  0  1  0  0
  -26.6757   -6.4074   23.2815 F   0  0  0  0  0  0  0  0  0  0  0  0
  -34.3720  -21.8020   16.4632 F   0  0  0  0  0  0  0  0  0  0  0  0
  -23.3898   -9.5519   21.9697 F   0  0  0  0  0  0  0  0  0  0  0  0
  -35.1802  -24.9319   16.0992 S   0  0  0  0  0  0  0  0  0  0  0  0
  1  2  1  0  0  0  0
  1  5  2  0  0  0  0
  2  6  2  0  0  0  0
  3  8  2  0  0  0  0
  3 17  1  0  0  0  0
  4  9  1  0  0  0  0
  4 17  2  0  0  0  0
  5 19  1  0  0  0  0
  6 21  1  0  0  0  0
  7 10  2  0  0  0  0
  7 20  1  0  0  0  0
  8 26  1  0  0  0  0
  9 26  2  0  0  0  0
 10 27  1  0  0  0  0
 11 12  2  0  0  0  0
 11 28  1  0  0  0  0
 12 29  1  0  0  0  0
 13 22  1  0  0  0  0
 13 27  2  0  0  0  0
 14 23  2  0  0  0  0
 14 24  1  0  0  0  0
 15 23  1  0  0  0  0
 15 30  2  0  0  0  0
 16 29  2  0  0  0  0
 16 31  1  0  0  0  0
 17 32  1  0  0  0  0
 18 32  1  0  0  0  0
 18 33  2  0  0  0  0
 18 34  1  0  0  0  0
 19 21  2  0  0  0  0
 19 40  1  0  0  0  0
 20 22  2  0  0  0  0
 20 41  1  0  0  0  0
 21 49  1  0  0  0  0
 22 42  1  0  0  0  0
 23 70  1  0  0  0  0
 24 25  2  0  0  0  0
 24 69  1  0  0  0  0
 25 30  1  0  0  0  0
 25 71  1  0  0  0  0
 26 83  1  0  0  0  0
 27 84  1  0  0  0  0
 28 31  2  0  0  0  0
 28 83  1  0  0  0  0
 29 85  1  0  0  0  0
 30 86  1  0  0  0  0
 31 87  1  0  0  0  0
 32 63  2  0  0  0  0
 33 64  1  0  0  0  0
 33 67  1  0  0  0  0
 34 68  1  0  0  0  0
 34 75  2  0  0  0  0
 35 50  1  0  0  0  0
 35 72  1  0  0  0  0
 35 76  2  0  0  0  0
 36 60  1  0  0  0  0
 36 65  1  0  0  0  0
 36 77  2  0  0  0  0
 37 58  1  0  0  0  0
 37 69  1  0  0  0  0
 37 78  2  0  0  0  0
 38 61  1  0  0  0  0
 38 73  1  0  0  0  0
 38 79  2  0  0  0  0
 39 66  1  0  0  0  0
 39 70  1  0  0  0  0
 39 80  2  0  0  0  0
 40 43  1  0  0  0  0
 41 50  1  0  0  0  0
 42 65  1  0  0  0  0
 43 45  1  0  0  0  0
 44 46  1  0  0  0  0
 44 47  1  0  0  0  0
 45 49  1  0  0  0  0
 46 51  1  0  0  0  0
 47 66  1  0  0  0  0
 48 51  1  0  0  0  0
 48 66  1  0  0  0  0
 49 72  1  0  0  0  0
 50 65  1  0  0  0  0
 51 64  1  0  0  0  0
 52 61  1  0  0  0  0
 53 62  1  0  0  0  0
 54 62  1  0  0  0  0
 55 62  1  0  0  0  0
 56 74  1  0  0  0  0
 57 88  1  0  0  0  0
 58 59  1  0  0  0  0
 59 84  1  0  0  0  0
 60 62  1  0  0  0  0
 60 73  1  0  0  0  0
 61 74  1  0  0  0  0
 63 64  1  0  0  0  0
 71 88  1  0  0  0  0
 81 88  2  0  0  0  0
 82 88  2  0  0  0  0
M  CHG  1  74   1
M  ISO  4  39 100  59 101  70 100  84 101
M  END
> <Batch ID>
0067

> <Smiles>
CNC(C)C(=O)NC(C(=O)N1Cc2cc([101O:1][101CH2:1]CC(=O)Nc3cc([100NH:0][100C:0](=O)N4CCCC(n5nc(-c6ccc(Oc7ccc(F)cc7F)cc6)c(C(N)=O)c5N)C4)cc(F)c3NS(C)(=O)=O)ccc2CC1C(=O)NC1CCCc2ccccc21)C(C)(C)C

> <Shape>
0.247

> <Color>
0.093

> <Negative vol penalty>
0.000

$$$$

  -OEChem-04042323243D

 83 91  0     1  0  0  0  0  0999 V2000
  -17.2723  -30.4781   24.0306 C   0  0  0  0  0  0  0  0  0  0  0  0
  -18.6304  -30.7801   24.0320 C   0  0  0  0  0  0  0  0  0  0  0  0
  -24.7395  -12.8059   19.7019 C   0  0  0  0  0  0  0  0  0  0  0  0
  -25.4344  -13.3717   21.9456 C   0  0  0  0  0  0  0  0  0  0  0  0
  -16.8366  -29.2334   23.5781 C   0  0  0  0  0  0  0  0  0  0  0  0
  -19.5536  -29.8370   23.5818 C   0  0  0  0  0  0  0  0  0  0  0  0
  -25.8601  -29.3622   20.2175 C   0  0  0  0  0  0  0  0  0  0  0  0
  -27.3490  -21.0000   24.0194 C   0  0  0  0  0  0  0  0  0  0  0  0
  -28.2650  -21.5564   24.9121 C   0  0  0  0  0  0  0  0  0  0  0  0
  -25.4280  -11.5963   19.7936 C   0  0  0  0  0  0  0  0  0  0  0  0
  -26.1230  -12.1621   22.0373 C   0  0  0  0  0  0  0  0  0  0  0  0
  -27.1185  -28.7803   20.3651 C   0  0  0  0  0  0  0  0  0  0  0  0
  -27.7649   -9.0631   22.9957 C   0  0  0  0  0  0  0  0  0  0  0  0
  -27.6211   -8.3214   24.1682 C   0  0  0  0  0  0  0  0  0  0  0  0
  -28.1888  -22.4327   22.2647 C   0  0  0  0  0  0  0  0  0  0  0  0
  -26.2439  -26.6922   19.5320 C   0  0  0  0  0  0  0  0  0  0  0  0
  -25.2412   -8.1699   23.7803 C   0  0  0  0  0  0  0  0  0  0  0  0
  -24.7427  -13.6936   20.7779 C   0  0  0  0  0  0  0  0  0  0  0  0
  -29.1048  -22.9892   23.1574 C   0  0  0  0  0  0  0  0  0  0  0  0
  -22.6916  -15.1880   21.0372 C   0  0  0  0  0  0  0  0  0  0  0  0
  -17.7542  -28.2782   23.1131 C   0  0  0  0  0  0  0  0  0  0  0  0
  -24.7798  -28.6091   19.7355 C   0  0  0  0  0  0  0  0  0  0  0  0
  -19.1299  -28.5779   23.1239 C   0  0  0  0  0  0  0  0  0  0  0  0
  -24.9735  -27.2675   19.3768 C   0  0  0  0  0  0  0  0  0  0  0  0
  -27.3109  -21.4381   22.6956 C   0  0  0  0  0  0  0  0  0  0  0  0
  -29.1429  -22.5510   24.4812 C   0  0  0  0  0  0  0  0  0  0  0  0
  -26.1198  -11.2744   20.9613 C   0  0  0  0  0  0  0  0  0  0  0  0
  -27.3099  -27.4443   20.0250 C   0  0  0  0  0  0  0  0  0  0  0  0
  -26.6470   -9.3583   22.2155 C   0  0  0  0  0  0  0  0  0  0  0  0
  -26.3592   -7.8748   24.5605 C   0  0  0  0  0  0  0  0  0  0  0  0
  -25.3851   -8.9116   22.6078 C   0  0  0  0  0  0  0  0  0  0  0  0
  -24.0321  -14.9435   20.6835 C   0  0  0  0  0  0  0  0  0  0  0  0
  -22.5012  -16.5200   20.7612 C   0  0  0  0  0  0  0  0  0  0  0  0
  -30.0227  -24.0415   22.6772 C   0  0  0  0  0  0  0  0  0  0  0  0
  -21.7067  -14.2914   21.5679 C   0  0  0  0  0  0  0  0  0  0  0  0
  -21.9616  -27.7239   20.9092 C   0  0  0  0  0  0  0  0  0  0  0  0
  -21.5099  -26.5775   17.9085 C   0  0  0  0  0  0  0  0  0  0  0  0
  -22.8925  -25.4479   15.0000 C   0  0  0  0  0  0  0  0  0  0  0  0
  -26.2106  -21.1938   20.4426 C   0  0  0  0  0  0  0  0  0  0  0  0
  -17.2396  -26.9289   22.6780 C   0  0  0  0  0  0  0  0  0  0  0  0
  -23.4351  -29.2589   19.5569 C   0  0  0  0  0  0  0  0  0  0  0  0
  -23.8512  -26.4213   18.8357 C   0  0  0  0  0  0  0  0  0  0  0  0
  -18.2514  -26.1239   21.8664 C   0  0  0  0  0  0  0  0  0  0  0  0
  -24.0576  -20.0046   17.8682 C   0  0  0  0  0  0  0  0  0  0  0  0
  -19.6211  -26.1571   22.5369 C   0  0  0  0  0  0  0  0  0  0  0  0
  -23.6799  -18.5963   18.3332 C   0  0  0  0  0  0  0  0  0  0  0  0
  -25.5053  -20.3472   18.2153 C   0  0  0  0  0  0  0  0  0  0  0  0
  -25.4892  -18.7501   20.0910 C   0  0  0  0  0  0  0  0  0  0  0  0
  -20.1600  -27.5904   22.6201 C   0  0  1  0  0  0  0  0  0  0  0  0
  -22.2847  -28.2570   19.5420 C   0  0  1  0  0  0  0  0  0  0  0  0
  -24.0206  -18.3838   19.8213 C   0  0  2  0  0  0  0  0  0  0  0  0
  -22.2694  -24.5462   12.7426 C   0  0  0  0  0  0  0  0  0  0  0  0
  -20.8303  -23.8856   19.1740 C   0  0  0  0  0  0  0  0  0  0  0  0
  -21.1526  -22.8270   16.9281 C   0  0  0  0  0  0  0  0  0  0  0  0
  -19.3647  -24.5357   17.2546 C   0  0  0  0  0  0  0  0  0  0  0  0
  -24.2203  -27.6962   13.6069 C   0  0  0  0  0  0  0  0  0  0  0  0
  -30.3018  -26.2846   21.6836 C   0  0  0  0  0  0  0  0  0  0  0  0
  -29.3721  -27.3824   21.2080 C   0  0  0  0  0  0  0  0  0  1  0  0
  -21.7847  -25.2665   17.2123 C   0  0  1  0  0  0  0  0  0  0  0  0
  -22.6066  -25.7906   13.5491 C   0  0  2  0  0  0  0  0  0  0  0  0
  -20.8040  -24.1438   17.6542 C   0  0  0  0  0  0  0  0  0  0  0  0
  -24.6495  -16.0326   20.2181 N   0  0  0  0  0  0  0  0  0  0  0  0
  -23.6927  -16.9744   20.2775 N   0  0  0  0  0  0  0  0  0  0  0  0
  -22.5535  -27.1003   18.6853 N   0  0  0  0  0  0  0  0  0  0  0  0
  -25.7536  -20.1259   19.6416 N   0  0  0  0  0  0  0  0  0  0  0  0
  -30.0627  -23.1030   25.3997 N   0  0  0  0  0  0  0  0  0  0  0  0
  -21.4325  -17.3350   20.8875 N   0  0  0  0  0  0  0  0  0  0  0  0
  -31.3340  -23.8136   22.7528 N   0  0  0  0  0  0  0  0  0  0  0  0
  -22.0698  -12.9563   21.7914 N   0  0  0  0  0  0  0  0  0  0  0  0
  -26.3800  -20.8730   21.7891 N   0  0  0  0  0  0  0  0  0  0  0  0
  -20.6790  -28.0105   21.3362 N   0  0  0  0  0  0  0  0  0  0  0  0
  -21.7613  -25.5512   15.7816 N   0  0  0  0  0  0  0  0  0  0  0  0
  -29.4957  -25.1721   22.1923 N   0  3  0  0  0  0  0  0  0  0  0  0
  -23.7925  -26.4459   12.9283 N   0  3  0  0  0  0  0  0  0  0  0  0
  -20.5344  -14.6593   21.8207 O   0  0  0  0  0  0  0  0  0  0  0  0
  -22.8124  -27.0975   21.5300 O   0  0  0  0  0  0  0  0  0  0  0  0
  -20.4124  -27.1213   17.7625 O   0  0  0  0  0  0  0  0  0  0  0  0
  -24.0070  -25.1176   15.3993 O   0  0  0  0  0  0  0  0  0  0  0  0
  -26.4091  -22.3177   19.9742 O   0  0  0  0  0  0  0  0  0  0  0  0
  -26.7916  -10.0940   21.0513 O   0  0  0  0  0  0  0  0  0  0  0  0
  -28.5369  -26.8737   20.1687 O   0  0  0  0  0  0  0  0  0  1  0  0
  -26.2214   -7.1612   25.6856 F   0  0  0  0  0  0  0  0  0  0  0  0
  -24.3075   -9.1911   21.8617 F   0  0  0  0  0  0  0  0  0  0  0  0
  1  2  1  0  0  0  0
  1  5  2  0  0  0  0
  2  6  2  0  0  0  0
  3 10  2  0  0  0  0
  3 18  1  0  0  0  0
  4 11  1  0  0  0  0
  4 18  2  0  0  0  0
  5 21  1  0  0  0  0
  6 23  1  0  0  0  0
  7 12  2  0  0  0  0
  7 22  1  0  0  0  0
  8  9  2  0  0  0  0
  8 25  1  0  0  0  0
  9 26  1  0  0  0  0
 10 27  1  0  0  0  0
 11 27  2  0  0  0  0
 12 28  1  0  0  0  0
 13 14  2  0  0  0  0
 13 29  1  0  0  0  0
 14 30  1  0  0  0  0
 15 19  1  0  0  0  0
 15 25  2  0  0  0  0
 16 24  1  0  0  0  0
 16 28  2  0  0  0  0
 17 30  2  0  0  0  0
 17 31  1  0  0  0  0
 18 32  1  0  0  0  0
 19 26  2  0  0  0  0
 19 34  1  0  0  0  0
 20 32  1  0  0  0  0
 20 33  2  0  0  0  0
 20 35  1  0  0  0  0
 21 23  2  0  0  0  0
 21 40  1  0  0  0  0
 22 24  2  0  0  0  0
 22 41  1  0  0  0  0
 23 49  1  0  0  0  0
 24 42  1  0  0  0  0
 25 70  1  0  0  0  0
 26 66  1  0  0  0  0
 27 80  1  0  0  0  0
 28 81  1  0  0  0  0
 29 31  2  0  0  0  0
 29 80  1  0  0  0  0
 30 82  1  0  0  0  0
 31 83  1  0  0  0  0
 32 62  2  0  0  0  0
 33 63  1  0  0  0  0
 33 67  1  0  0  0  0
 34 68  1  0  0  0  0
 34 73  2  0  0  0  0
 35 69  1  0  0  0  0
 35 75  2  0  0  0  0
 36 50  1  0  0  0  0
 36 71  1  0  0  0  0
 36 76  2  0  0  0  0
 37 59  1  0  0  0  0
 37 64  1  0  0  0  0
 37 77  2  0  0  0  0
 38 60  1  0  0  0  0
 38 72  1  0  0  0  0
 38 78  2  0  0  0  0
 39 65  1  0  0  0  0
 39 70  1  0  0  0  0
 39 79  2  0  0  0  0
 40 43  1  0  0  0  0
 41 50  1  0  0  0  0
 42 64  1  0  0  0  0
 43 45  1  0  0  0  0
 44 46  1  0  0  0  0
 44 47  1  0  0  0  0
 45 49  1  0  0  0  0
 46 51  1  0  0  0  0
 47 65  1  0  0  0  0
 48 51  1  0  0  0  0
 48 65  1  0  0  0  0
 49 71  1  0  0  0  0
 50 64  1  0  0  0  0
 51 63  1  0  0  0  0
 52 60  1  0  0  0  0
 53 61  1  0  0  0  0
 54 61  1  0  0  0  0
 55 61  1  0  0  0  0
 56 74  1  0  0  0  0
 57 58  1  0  0  0  0
 57 73  1  0  0  0  0
 58 81  1  0  0  0  0
 59 61  1  0  0  0  0
 59 72  1  0  0  0  0
 60 74  1  0  0  0  0
 62 63  1  0  0  0  0
M  CHG  2  73   1  74   1
M  ISO  4  39 100  58 101  70 100  81 101
M  END
> <Batch ID>
0067

> <Smiles>
CNC(C)C(=O)NC(C(=O)N1Cc2cc([101O:1][101CH2:1]CNC(=N)c3cc([100NH:0][100C:0](=O)N4CCCC(n5nc(-c6ccc(Oc7ccc(F)cc7F)cc6)c(C(N)=O)c5N)C4)ccc3N)ccc2CC1C(=O)NC1CCCc2ccccc21)C(C)(C)C

> <Shape>
0.191

> <Color>
0.101

> <Negative vol penalty>
0.000

$$$$

  -OEChem-04042323243D

 87 95  0     1  0  0  0  0  0999 V2000
  -16.6596  -28.6163   23.4733 C   0  0  0  0  0  0  0  0  0  0  0  0
  -17.4414  -28.1307   22.4300 C   0  0  0  0  0  0  0  0  0  0  0  0
  -24.5189   -9.0156   21.9829 C   0  0  0  0  0  0  0  0  0  0  0  0
  -23.3877   -9.2785   19.8644 C   0  0  0  0  0  0  0  0  0  0  0  0
  -17.0526  -29.7629   24.1622 C   0  0  0  0  0  0  0  0  0  0  0  0
  -18.6163  -28.7923   22.0743 C   0  0  0  0  0  0  0  0  0  0  0  0
  -22.4844  -25.6121   21.3197 C   0  0  0  0  0  0  0  0  0  0  0  0
  -23.0773  -16.8384   14.7122 C   0  0  0  0  0  0  0  0  0  0  0  0
  -23.9530  -16.1528   15.5541 C   0  0  0  0  0  0  0  0  0  0  0  0
  -23.4336   -8.2889   22.4723 C   0  0  0  0  0  0  0  0  0  0  0  0
  -22.3023   -8.5518   20.3537 C   0  0  0  0  0  0  0  0  0  0  0  0
  -22.5146  -24.9224   20.1084 C   0  0  0  0  0  0  0  0  0  0  0  0
  -22.2242   -5.1417   22.2166 C   0  0  0  0  0  0  0  0  0  0  0  0
  -22.4943   -3.9685   22.9211 C   0  0  0  0  0  0  0  0  0  0  0  0
  -24.1282  -26.5004   19.2570 C   0  0  0  0  0  0  0  0  0  0  0  0
  -24.3588  -18.1888   16.7900 C   0  0  0  0  0  0  0  0  0  0  0  0
  -21.3840   -4.8795   24.8639 C   0  0  0  0  0  0  0  0  0  0  0  0
  -24.4960   -9.5104   20.6790 C   0  0  0  0  0  0  0  0  0  0  0  0
  -26.7480   -9.7551   19.5058 C   0  0  0  0  0  0  0  0  0  0  0  0
  -18.2379  -30.4334   23.8211 C   0  0  0  0  0  0  0  0  0  0  0  0
  -23.2690  -26.7594   21.5052 C   0  0  0  0  0  0  0  0  0  0  0  0
  -19.0248  -29.9498   22.7584 C   0  0  0  0  0  0  0  0  0  0  0  0
  -24.1081  -27.2015   20.4724 C   0  0  0  0  0  0  0  0  0  0  0  0
  -22.8424  -18.1992   14.9092 C   0  0  0  0  0  0  0  0  0  0  0  0
  -24.5938  -16.8280   16.5929 C   0  0  0  0  0  0  0  0  0  0  0  0
  -23.4831  -18.8744   15.9481 C   0  0  0  0  0  0  0  0  0  0  0  0
  -22.3253   -8.0570   21.6577 C   0  0  0  0  0  0  0  0  0  0  0  0
  -23.3344  -25.3681   19.0758 C   0  0  0  0  0  0  0  0  0  0  0  0
  -21.5341   -6.1839   22.8358 C   0  0  0  0  0  0  0  0  0  0  0  0
  -22.0742   -3.8374   24.2447 C   0  0  0  0  0  0  0  0  0  0  0  0
  -21.1140   -6.0528   24.1595 C   0  0  0  0  0  0  0  0  0  0  0  0
  -25.6166  -10.2617   20.1730 C   0  0  0  0  0  0  0  0  0  0  0  0
  -27.5118  -10.8639   19.2346 C   0  0  0  0  0  0  0  0  0  0  0  0
  -23.3268  -22.4612   17.0413 C   0  0  0  0  0  0  0  0  0  0  0  0
  -23.7549  -23.3873   17.9054 C   0  0  0  0  0  0  0  0  0  1  0  0
  -27.0789   -8.4031   19.1619 C   0  0  0  0  0  0  0  0  0  0  0  0
  -23.8196  -21.0570   17.1493 C   0  0  0  0  0  0  0  0  0  0  0  0
  -22.6596  -29.8206   22.1064 C   0  0  0  0  0  0  0  0  0  0  0  0
  -25.8876  -30.0097   22.3633 C   0  0  0  0  0  0  0  0  0  0  0  0
  -28.9394  -28.7153   21.5518 C   0  0  0  0  0  0  0  0  0  0  0  0
  -26.2002  -16.6503   18.5253 C   0  0  0  0  0  0  0  0  0  0  0  0
  -21.9775  -20.8502   12.4141 C   0  0  0  0  0  0  0  0  0  0  0  0
  -18.5972  -31.6960   24.5637 C   0  0  0  0  0  0  0  0  0  0  0  0
  -23.2452  -27.4768   22.8270 C   0  0  0  0  0  0  0  0  0  0  0  0
  -24.9851  -28.4160   20.6281 C   0  0  0  0  0  0  0  0  0  0  0  0
  -20.0495  -32.1243   24.3697 C   0  0  0  0  0  0  0  0  0  0  0  0
  -28.4614  -15.2544   20.8950 C   0  0  0  0  0  0  0  0  0  0  0  0
  -20.4334  -32.0577   22.8949 C   0  0  0  0  0  0  0  0  0  0  0  0
  -28.0955  -13.7684   20.9136 C   0  0  0  0  0  0  0  0  0  0  0  0
  -27.2279  -16.1402   20.7296 C   0  0  0  0  0  0  0  0  0  0  0  0
  -26.0082  -14.3217   19.6006 C   0  0  0  0  0  0  0  0  0  0  0  0
  -20.3188  -30.6254   22.3592 C   0  0  1  0  0  0  0  0  0  0  0  0
  -23.6987  -28.9299   22.7265 C   0  0  1  0  0  0  0  0  0  0  0  0
  -27.2250  -13.3872   19.7001 C   0  0  2  0  0  0  0  0  0  0  0  0
  -31.3961  -29.1093   21.8780 C   0  0  0  0  0  0  0  0  0  0  0  0
  -25.7915  -32.2799   20.3269 C   0  0  0  0  0  0  0  0  0  0  0  0
  -28.2543  -31.9854   19.9863 C   0  0  0  0  0  0  0  0  0  0  0  0
  -27.3771  -32.6480   22.2255 C   0  0  0  0  0  0  0  0  0  0  0  0
  -29.2941  -26.1117   22.9137 C   0  0  0  0  0  0  0  0  0  0  0  0
  -21.8994  -18.9080   13.9920 C   0  0  0  0  0  0  0  0  0  0  0  0
  -27.0222  -30.2829   21.4056 C   0  0  1  0  0  0  0  0  0  0  0  0
  -30.1573  -28.3988   22.4009 C   0  0  2  0  0  0  0  0  0  0  0  0
  -27.0934  -31.7772   20.9821 C   0  0  0  0  0  0  0  0  0  0  0  0
  -25.6543  -11.5890   20.3171 N   0  0  0  0  0  0  0  0  0  0  0  0
  -26.8186  -11.9259   19.7366 N   0  0  0  0  0  0  0  0  0  0  0  0
  -24.9219  -29.0870   21.9370 N   0  0  0  0  0  0  0  0  0  0  0  0
  -26.4543  -15.7231   19.5581 N   0  0  0  0  0  0  0  0  0  0  0  0
  -28.7020  -11.0244   18.6182 N   0  0  0  0  0  0  0  0  0  0  0  0
  -26.1825   -7.3853   19.5151 N   0  0  0  0  0  0  0  0  0  0  0  0
  -22.7181  -21.8550   11.8006 N   0  0  0  0  0  0  0  0  0  0  0  0
  -20.6230  -20.7308   12.1207 N   0  0  0  0  0  0  0  0  0  0  0  0
  -23.2577  -20.2561   16.1640 N   0  0  0  0  0  0  0  0  0  0  0  0
  -25.4833  -16.1311   17.4478 N   0  0  0  0  0  0  0  0  0  0  0  0
  -21.4547  -29.8350   22.7828 N   0  0  0  0  0  0  0  0  0  0  0  0
  -28.2316  -29.7871   22.0535 N   0  0  0  0  0  0  0  0  0  0  0  0
  -22.6120  -19.9882   13.3085 N   0  3  0  0  0  0  0  0  0  0  0  0
  -30.4216  -26.9321   22.4011 N   0  3  0  0  0  0  0  0  0  0  0  0
  -28.1459   -8.1046   18.5738 O   0  0  0  0  0  0  0  0  0  0  0  0
  -24.6163  -20.7288   18.0206 O   0  0  0  0  0  0  0  0  0  0  0  0
  -22.9313  -30.4495   21.0903 O   0  0  0  0  0  0  0  0  0  0  0  0
  -25.8632  -30.5881   23.4525 O   0  0  0  0  0  0  0  0  0  0  0  0
  -28.6472  -28.0780   20.5424 O   0  0  0  0  0  0  0  0  0  0  0  0
  -26.6134  -17.8115   18.5796 O   0  0  0  0  0  0  0  0  0  0  0  0
  -21.2661   -7.3477   22.1349 O   0  0  0  0  0  0  0  0  0  0  0  0
  -23.3653  -24.6971   17.8923 O   0  0  0  0  0  0  0  0  0  1  0  0
  -22.3322   -2.7101   24.9205 F   0  0  0  0  0  0  0  0  0  0  0  0
  -20.4496   -7.0501   24.7593 F   0  0  0  0  0  0  0  0  0  0  0  0
  1  2  1  0  0  0  0
  1  5  2  0  0  0  0
  2  6  2  0  0  0  0
  3 10  2  0  0  0  0
  3 18  1  0  0  0  0
  4 11  1  0  0  0  0
  4 18  2  0  0  0  0
  5 20  1  0  0  0  0
  6 22  1  0  0  0  0
  7 12  2  0  0  0  0
  7 21  1  0  0  0  0
  8  9  2  0  0  0  0
  8 24  1  0  0  0  0
  9 25  1  0  0  0  0
 10 27  1  0  0  0  0
 11 27  2  0  0  0  0
 12 28  1  0  0  0  0
 13 14  2  0  0  0  0
 13 29  1  0  0  0  0
 14 30  1  0  0  0  0
 15 23  1  0  0  0  0
 15 28  2  0  0  0  0
 16 25  2  0  0  0  0
 16 26  1  0  0  0  0
 17 30  2  0  0  0  0
 17 31  1  0  0  0  0
 18 32  1  0  0  0  0
 19 32  1  0  0  0  0
 19 33  2  0  0  0  0
 19 36  1  0  0  0  0
 20 22  2  0  0  0  0
 20 43  1  0  0  0  0
 21 23  2  0  0  0  0
 21 44  1  0  0  0  0
 22 52  1  0  0  0  0
 23 45  1  0  0  0  0
 24 26  2  0  0  0  0
 24 60  1  0  0  0  0
 25 73  1  0  0  0  0
 26 72  1  0  0  0  0
 27 84  1  0  0  0  0
 28 85  1  0  0  0  0
 29 31  2  0  0  0  0
 29 84  1  0  0  0  0
 30 86  1  0  0  0  0
 31 87  1  0  0  0  0
 32 64  2  0  0  0  0
 33 65  1  0  0  0  0
 33 68  1  0  0  0  0
 34 35  2  0  0  0  0
 34 37  1  0  0  0  0
 35 85  1  0  0  0  0
 36 69  1  0  0  0  0
 36 78  2  0  0  0  0
 37 72  1  0  0  0  0
 37 79  2  0  0  0  0
 38 53  1  0  0  0  0
 38 74  1  0  0  0  0
 38 80  2  0  0  0  0
 39 61  1  0  0  0  0
 39 66  1  0  0  0  0
 39 81  2  0  0  0  0
 40 62  1  0  0  0  0
 40 75  1  0  0  0  0
 40 82  2  0  0  0  0
 41 67  1  0  0  0  0
 41 73  1  0  0  0  0
 41 83  2  0  0  0  0
 42 70  1  0  0  0  0
 42 71  1  0  0  0  0
 42 76  2  0  0  0  0
 43 46  1  0  0  0  0
 44 53  1  0  0  0  0
 45 66  1  0  0  0  0
 46 48  1  0  0  0  0
 47 49  1  0  0  0  0
 47 50  1  0  0  0  0
 48 52  1  0  0  0  0
 49 54  1  0  0  0  0
 50 67  1  0  0  0  0
 51 54  1  0  0  0  0
 51 67  1  0  0  0  0
 52 74  1  0  0  0  0
 53 66  1  0  0  0  0
 54 65  1  0  0  0  0
 55 62  1  0  0  0  0
 56 63  1  0  0  0  0
 57 63  1  0  0  0  0
 58 63  1  0  0  0  0
 59 77  1  0  0  0  0
 60 76  1  0  0  0  0
 61 63  1  0  0  0  0
 61 75  1  0  0  0  0
 62 77  1  0  0  0  0
 64 65  1  0  0  0  0
M  CHG  2  76   1  77   1
M  ISO  4  35 101  41 100  73 100  85 101
M  END
> <Batch ID>
0067

> <Smiles>
CNC(C)C(=O)NC(C(=O)N1Cc2cc([101O:1][101CH:1]=CC(=O)Nc3cc([100NH:0][100C:0](=O)N4CCCC(n5nc(-c6ccc(Oc7ccc(F)cc7F)cc6)c(C(N)=O)c5N)C4)ccc3CN=C(N)N)ccc2CC1C(=O)NC1CCCc2ccccc21)C(C)(C)C

> <Shape>
0.240

> <Color>
0.085

> <Negative vol penalty>
0.000

$$$$

  -OEChem-04042323243D

 84 92  0     1  0  0  0  0  0999 V2000
  -24.3133  -32.6612   23.3635 C   0  0  0  0  0  0  0  0  0  0  0  0
  -23.9631  -31.3635   23.0045 C   0  0  0  0  0  0  0  0  0  0  0  0
  -23.0000   -9.8940   19.9830 C   0  0  0  0  0  0  0  0  0  0  0  0
  -23.7234   -9.9485   22.2875 C   0  0  0  0  0  0  0  0  0  0  0  0
  -32.6449  -17.4500   23.4538 C   0  0  0  0  0  0  0  0  0  0  0  0
  -25.4223  -32.8824   24.1791 C   0  0  0  0  0  0  0  0  0  0  0  0
  -24.7224  -30.2863   23.4602 C   0  0  0  0  0  0  0  0  0  0  0  0
  -24.0657  -23.4316   25.4344 C   0  0  0  0  0  0  0  0  0  0  0  0
  -32.0572  -16.5527   22.5622 C   0  0  0  0  0  0  0  0  0  0  0  0
  -22.2329   -8.7602   20.2505 C   0  0  0  0  0  0  0  0  0  0  0  0
  -22.9563   -8.8147   22.5551 C   0  0  0  0  0  0  0  0  0  0  0  0
  -24.6112  -22.1767   25.1670 C   0  0  0  0  0  0  0  0  0  0  0  0
  -23.1999   -5.4749   22.0888 C   0  0  0  0  0  0  0  0  0  0  0  0
  -23.7865   -4.4587   22.8431 C   0  0  0  0  0  0  0  0  0  0  0  0
  -26.4592  -22.6738   26.6357 C   0  0  0  0  0  0  0  0  0  0  0  0
  -29.8784  -17.4514   23.0938 C   0  0  0  0  0  0  0  0  0  0  0  0
  -22.0614   -4.7050   24.5165 C   0  0  0  0  0  0  0  0  0  0  0  0
  -23.7453  -10.4881   21.0014 C   0  0  0  0  0  0  0  0  0  0  0  0
  -31.8494  -18.3480   24.1655 C   0  0  0  0  0  0  0  0  0  0  0  0
  -24.1316  -13.0033   20.8216 C   0  0  0  0  0  0  0  0  0  0  0  0
  -26.1898  -31.8067   24.6529 C   0  0  0  0  0  0  0  0  0  0  0  0
  -24.7195  -24.3227   26.2975 C   0  0  0  0  0  0  0  0  0  0  0  0
  -25.8434  -30.4935   24.2818 C   0  0  0  0  0  0  0  0  0  0  0  0
  -25.9186  -23.9383   26.9144 C   0  0  0  0  0  0  0  0  0  0  0  0
  -30.6740  -16.5534   22.3822 C   0  0  0  0  0  0  0  0  0  0  0  0
  -30.4662  -18.3487   23.9855 C   0  0  0  0  0  0  0  0  0  0  0  0
  -22.2110   -8.2205   21.5366 C   0  0  0  0  0  0  0  0  0  0  0  0
  -25.8096  -21.7987   25.7654 C   0  0  0  0  0  0  0  0  0  0  0  0
  -22.0441   -6.1062   22.5485 C   0  0  0  0  0  0  0  0  0  0  0  0
  -23.2173   -4.0737   24.0569 C   0  0  0  0  0  0  0  0  0  0  0  0
  -21.4748   -5.7212   23.7623 C   0  0  0  0  0  0  0  0  0  0  0  0
  -24.5384  -11.6590   20.7255 C   0  0  0  0  0  0  0  0  0  0  0  0
  -25.2419  -13.7249   20.4568 C   0  0  0  0  0  0  0  0  0  0  0  0
  -32.4836  -19.2696   25.0857 C   0  0  0  0  0  0  0  0  0  0  0  0
  -22.8635  -13.5507   21.2062 C   0  0  0  0  0  0  0  0  0  0  0  0
  -25.9915  -27.2192   25.9878 C   0  0  0  0  0  0  0  0  0  0  0  0
  -26.3666  -26.9719   29.2003 C   0  0  0  0  0  0  0  0  0  0  0  0
  -28.2575  -19.3691   24.6293 C   0  0  0  0  0  0  0  0  0  0  0  0
  -26.6697  -24.9527   31.9349 C   0  0  0  0  0  0  0  0  0  0  0  0
  -30.7215  -14.6846   20.6935 C   0  0  0  0  0  0  0  0  0  0  0  0
  -27.4076  -32.0985   25.4934 C   0  0  0  0  0  0  0  0  0  0  0  0
  -24.1043  -25.6623   26.5964 C   0  0  0  0  0  0  0  0  0  0  0  0
  -26.6494  -24.8503   27.8645 C   0  0  0  0  0  0  0  0  0  0  0  0
  -27.9388  -30.8779   26.2405 C   0  0  0  0  0  0  0  0  0  0  0  0
  -29.6042  -12.2283   18.3707 C   0  0  0  0  0  0  0  0  0  0  0  0
  -28.0159  -29.6732   25.3080 C   0  0  0  0  0  0  0  0  0  0  0  0
  -28.1532  -11.9718   18.7841 C   0  0  0  0  0  0  0  0  0  0  0  0
  -30.5039  -12.4734   19.5808 C   0  0  0  0  0  0  0  0  0  0  0  0
  -28.5877  -13.2650   20.9115 C   0  0  0  0  0  0  0  0  0  0  0  0
  -26.6276  -29.2973   24.7763 C   0  0  1  0  0  0  0  0  0  0  0  0
  -25.1190  -26.6890   27.0901 C   0  0  1  0  0  0  0  0  0  0  0  0
  -27.6309  -13.0770   19.7229 C   0  0  2  0  0  0  0  0  0  0  0  0
  -27.0020  -25.0397   34.4207 C   0  0  0  0  0  0  0  0  0  0  0  0
  -29.3167  -27.6283   28.7805 C   0  0  0  0  0  0  0  0  0  0  0  0
  -29.7629  -26.7795   31.0932 C   0  0  0  0  0  0  0  0  0  0  0  0
  -28.2695  -28.7489   30.7558 C   0  0  0  0  0  0  0  0  0  0  0  0
  -24.0886  -23.5971   32.4441 C   0  0  0  0  0  0  0  0  0  0  0  0
  -27.7661  -20.4625   25.5597 C   0  0  0  0  0  0  0  0  0  1  0  0
  -27.4479  -26.4459   30.1130 C   0  0  1  0  0  0  0  0  0  0  0  0
  -25.9864  -24.9831   33.2901 C   0  0  2  0  0  0  0  0  0  0  0  0
  -28.6867  -27.3840   30.1663 C   0  0  0  0  0  0  0  0  0  0  0  0
  -25.8079  -11.5314   20.3305 N   0  0  0  0  0  0  0  0  0  0  0  0
  -26.2084  -12.8048   20.1751 N   0  0  0  0  0  0  0  0  0  0  0  0
  -26.0110  -26.1521   28.1199 N   0  0  0  0  0  0  0  0  0  0  0  0
  -29.9485  -13.5359   20.4219 N   0  0  0  0  0  0  0  0  0  0  0  0
  -25.4759  -15.0504   20.3528 N   0  0  0  0  0  0  0  0  0  0  0  0
  -32.6693  -18.9261   26.3700 N   0  0  0  0  0  0  0  0  0  0  0  0
  -21.8312  -12.6675   21.5504 N   0  0  0  0  0  0  0  0  0  0  0  0
  -29.6414  -19.2504   24.6990 N   0  0  0  0  0  0  0  0  0  0  0  0
  -30.0769  -15.6413   21.4770 N   0  0  0  0  0  0  0  0  0  0  0  0
  -25.8767  -28.5813   25.7852 N   0  0  0  0  0  0  0  0  0  0  0  0
  -26.8146  -26.2184   31.4075 N   0  0  0  0  0  0  0  0  0  0  0  0
  -32.8938  -20.4758   24.6630 N   0  3  0  0  0  0  0  0  0  0  0  0
  -25.1459  -23.7663   33.4739 N   0  3  0  0  0  0  0  0  0  0  0  0
  -22.6472  -14.7862   21.2278 O   0  0  0  0  0  0  0  0  0  0  0  0
  -26.7164  -26.4498   25.3679 O   0  0  0  0  0  0  0  0  0  0  0  0
  -25.8514  -28.0665   29.4413 O   0  0  0  0  0  0  0  0  0  0  0  0
  -27.4819  -18.7176   23.9375 O   0  0  0  0  0  0  0  0  0  0  0  0
  -27.0412  -23.9107   31.3995 O   0  0  0  0  0  0  0  0  0  0  0  0
  -31.8605  -14.8224   20.2401 O   0  0  0  0  0  0  0  0  0  0  0  0
  -21.4624   -7.1143   21.7982 O   0  0  0  0  0  0  0  0  0  0  0  0
  -26.3446  -20.5747   25.5056 O   0  0  0  0  0  0  0  0  0  1  0  0
  -23.7799   -3.0968   24.7803 F   0  0  0  0  0  0  0  0  0  0  0  0
  -20.3638   -6.3231   24.2085 F   0  0  0  0  0  0  0  0  0  0  0  0
  1  2  1  0  0  0  0
  1  6  2  0  0  0  0
  2  7  2  0  0  0  0
  3 10  2  0  0  0  0
  3 18  1  0  0  0  0
  4 11  1  0  0  0  0
  4 18  2  0  0  0  0
  5  9  2  0  0  0  0
  5 19  1  0  0  0  0
  6 21  1  0  0  0  0
  7 23  1  0  0  0  0
  8 12  2  0  0  0  0
  8 22  1  0  0  0  0
  9 25  1  0  0  0  0
 10 27  1  0  0  0  0
 11 27  2  0  0  0  0
 12 28  1  0  0  0  0
 13 14  2  0  0  0  0
 13 29  1  0  0  0  0
 14 30  1  0  0  0  0
 15 24  1  0  0  0  0
 15 28  2  0  0  0  0
 16 25  2  0  0  0  0
 16 26  1  0  0  0  0
 17 30  2  0  0  0  0
 17 31  1  0  0  0  0
 18 32  1  0  0  0  0
 19 26  2  0  0  0  0
 19 34  1  0  0  0  0
 20 32  1  0  0  0  0
 20 33  2  0  0  0  0
 20 35  1  0  0  0  0
 21 23  2  0  0  0  0
 21 41  1  0  0  0  0
 22 24  2  0  0  0  0
 22 42  1  0  0  0  0
 23 50  1  0  0  0  0
 24 43  1  0  0  0  0
 25 70  1  0  0  0  0
 26 69  1  0  0  0  0
 27 81  1  0  0  0  0
 28 82  1  0  0  0  0
 29 31  2  0  0  0  0
 29 81  1  0  0  0  0
 30 83  1  0  0  0  0
 31 84  1  0  0  0  0
 32 62  2  0  0  0  0
 33 63  1  0  0  0  0
 33 66  1  0  0  0  0
 34 67  1  0  0  0  0
 34 73  2  0  0  0  0
 35 68  1  0  0  0  0
 35 75  2  0  0  0  0
 36 51  1  0  0  0  0
 36 71  1  0  0  0  0
 36 76  2  0  0  0  0
 37 59  1  0  0  0  0
 37 64  1  0  0  0  0
 37 77  2  0  0  0  0
 38 58  1  0  0  0  0
 38 69  1  0  0  0  0
 38 78  2  0  0  0  0
 39 60  1  0  0  0  0
 39 72  1  0  0  0  0
 39 79  2  0  0  0  0
 40 65  1  0  0  0  0
 40 70  1  0  0  0  0
 40 80  2  0  0  0  0
 41 44  1  0  0  0  0
 42 51  1  0  0  0  0
 43 64  1  0  0  0  0
 44 46  1  0  0  0  0
 45 47  1  0  0  0  0
 45 48  1  0  0  0  0
 46 50  1  0  0  0  0
 47 52  1  0  0  0  0
 48 65  1  0  0  0  0
 49 52  1  0  0  0  0
 49 65  1  0  0  0  0
 50 71  1  0  0  0  0
 51 64  1  0  0  0  0
 52 63  1  0  0  0  0
 53 60  1  0  0  0  0
 54 61  1  0  0  0  0
 55 61  1  0  0  0  0
 56 61  1  0  0  0  0
 57 74  1  0  0  0  0
 58 82  1  0  0  0  0
 59 61  1  0  0  0  0
 59 72  1  0  0  0  0
 60 74  1  0  0  0  0
 62 63  1  0  0  0  0
M  CHG  2  73   1  74   1
M  ISO  4  40 100  58 101  70 100  82 101
M  END
> <Batch ID>
0067

> <Smiles>
CNC(C)C(=O)NC(C(=O)N1Cc2cc([101O:1][101CH2:1]C(=O)Nc3cc([100NH:0][100C:0](=O)N4CCCC(n5nc(-c6ccc(Oc7ccc(F)cc7F)cc6)c(C(N)=O)c5N)C4)ccc3C(=N)N)ccc2CC1C(=O)NC1CCCc2ccccc21)C(C)(C)C

> <Shape>
0.236

> <Color>
0.186

> <Negative vol penalty>
0.000

$$$$

  -OEChem-04042323243D

 91100  0     1  0  0  0  0  0999 V2000
  -20.6885  -34.3650   20.7631 C   0  0  0  0  0  0  0  0  0  0  0  0
  -20.5622  -33.6170   19.5969 C   0  0  0  0  0  0  0  0  0  0  0  0
  -22.8493  -10.0748   20.0467 C   0  0  0  0  0  0  0  0  0  0  0  0
  -24.2726   -9.4551   21.8980 C   0  0  0  0  0  0  0  0  0  0  0  0
  -27.6801  -18.3284   15.1898 C   0  0  0  0  0  0  0  0  0  0  0  0
  -21.8895  -34.3527   21.4711 C   0  0  0  0  0  0  0  0  0  0  0  0
  -21.6373  -32.8570   19.1375 C   0  0  0  0  0  0  0  0  0  0  0  0
  -21.0295  -25.7355   18.2397 C   0  0  0  0  0  0  0  0  0  0  0  0
  -26.5486  -19.0479   14.8057 C   0  0  0  0  0  0  0  0  0  0  0  0
  -22.1379   -8.8843   20.1951 C   0  0  0  0  0  0  0  0  0  0  0  0
  -23.5612   -8.2645   22.0464 C   0  0  0  0  0  0  0  0  0  0  0  0
  -20.9288  -24.4022   17.8417 C   0  0  0  0  0  0  0  0  0  0  0  0
  -20.6240   -7.2710   23.3904 C   0  0  0  0  0  0  0  0  0  0  0  0
  -20.2605   -6.8918   24.6825 C   0  0  0  0  0  0  0  0  0  0  0  0
  -23.2688  -24.3967   17.2314 C   0  0  0  0  0  0  0  0  0  0  0  0
  -25.7467  -19.0032   17.0843 C   0  0  0  0  0  0  0  0  0  0  0  0
  -21.5273   -4.8489   24.4393 C   0  0  0  0  0  0  0  0  0  0  0  0
  -23.9168  -10.3602   20.8981 C   0  0  0  0  0  0  0  0  0  0  0  0
  -27.8449  -17.9461   16.5211 C   0  0  0  0  0  0  0  0  0  0  0  0
  -24.1472  -12.9001   20.8402 C   0  0  0  0  0  0  0  0  0  0  0  0
  -22.9767  -33.5846   21.0253 C   0  0  0  0  0  0  0  0  0  0  0  0
  -22.2553  -26.4006   18.1493 C   0  0  0  0  0  0  0  0  0  0  0  0
  -22.8544  -32.8355   19.8395 C   0  0  0  0  0  0  0  0  0  0  0  0
  -23.3786  -25.7285   17.6402 C   0  0  0  0  0  0  0  0  0  0  0  0
  -25.5819  -19.3854   15.7530 C   0  0  0  0  0  0  0  0  0  0  0  0
  -26.8782  -18.2836   17.4684 C   0  0  0  0  0  0  0  0  0  0  0  0
  -22.4938   -7.9791   21.1950 C   0  0  0  0  0  0  0  0  0  0  0  0
  -22.0457  -23.7346   17.3386 C   0  0  0  0  0  0  0  0  0  0  0  0
  -21.4390   -6.4391   22.6226 C   0  0  0  0  0  0  0  0  0  0  0  0
  -20.7122   -5.6808   25.2070 C   0  0  0  0  0  0  0  0  0  0  0  0
  -21.8907   -5.2281   23.1471 C   0  0  0  0  0  0  0  0  0  0  0  0
  -24.6524  -11.5896   20.7450 C   0  0  0  0  0  0  0  0  0  0  0  0
  -25.2374  -13.7054   20.6181 C   0  0  0  0  0  0  0  0  0  0  0  0
  -23.8804  -20.0057   14.0564 C   0  0  0  0  0  0  0  0  0  0  0  0
  -29.0609  -17.1806   16.8982 C   0  0  0  0  0  0  0  0  0  0  0  0
  -22.8118  -13.3494   21.1059 C   0  0  0  0  0  0  0  0  0  0  0  0
  -24.1762  -29.5734   18.7148 C   0  0  0  0  0  0  0  0  0  0  0  0
  -26.0117  -27.2604   19.5459 C   0  0  0  0  0  0  0  0  0  0  0  0
  -27.5580  -24.4670   20.7474 C   0  0  0  0  0  0  0  0  0  0  0  0
  -29.8372  -15.0209   17.8236 C   0  0  0  0  0  0  0  0  0  0  0  0
  -24.2704  -33.6402   21.7987 C   0  0  0  0  0  0  0  0  0  0  0  0
  -22.3954  -27.8549   18.5088 C   0  0  0  0  0  0  0  0  0  0  0  0
  -24.6686  -26.4943   17.5286 C   0  0  0  0  0  0  0  0  0  0  0  0
  -22.8585  -21.0476   13.6385 C   0  0  0  0  0  0  0  0  0  0  0  0
  -25.2388  -32.5136   21.4476 C   0  0  0  0  0  0  0  0  0  0  0  0
  -21.9504  -21.5066   14.7552 C   0  0  0  0  0  0  0  0  0  0  0  0
  -30.1692  -12.5808   20.3599 C   0  0  0  0  0  0  0  0  0  0  0  0
  -25.3453  -32.3534   19.9343 C   0  0  0  0  0  0  0  0  0  0  0  0
  -28.7220  -12.2165   20.7022 C   0  0  0  0  0  0  0  0  0  0  0  0
  -30.3528  -12.8304   18.8636 C   0  0  0  0  0  0  0  0  0  0  0  0
  -27.9795  -13.4341   18.6164 C   0  0  0  0  0  0  0  0  0  0  0  0
  -23.6788  -20.8574   16.4078 C   0  0  0  0  0  0  0  0  0  0  0  0
  -23.9899  -31.9790   19.3225 C   0  0  1  0  0  0  0  0  0  0  0  0
  -23.7611  -28.1935   19.1329 C   0  0  1  0  0  0  0  0  0  0  0  0
  -27.7280  -13.2418   20.1207 C   0  0  1  0  0  0  0  0  0  0  0  0
  -22.7998  -21.9946   15.9085 C   0  0  2  0  0  0  0  0  0  1  0  0
  -29.6815  -23.7115   21.8506 C   0  0  0  0  0  0  0  0  0  0  0  0
  -27.4748  -27.4917   16.8795 C   0  0  0  0  0  0  0  0  0  0  0  0
  -29.1905  -25.8969   17.7634 C   0  0  0  0  0  0  0  0  0  0  0  0
  -28.8473  -28.1014   18.8793 C   0  0  0  0  0  0  0  0  0  0  0  0
  -26.1071  -23.4919   23.1355 C   0  0  0  0  0  0  0  0  0  0  0  0
  -29.1039  -19.3588   19.7178 C   0  0  0  0  0  0  0  0  0  0  0  0
  -27.0960  -26.2961   19.1363 C   0  0  1  0  0  0  0  0  0  0  0  0
  -28.2544  -24.1899   22.0675 C   0  0  2  0  0  0  0  0  0  0  0  0
  -28.1247  -26.9392   18.1638 C   0  0  0  0  0  0  0  0  0  0  0  0
  -25.9617  -11.5596   20.4826 N   0  0  0  0  0  0  0  0  0  0  0  0
  -26.2884  -12.8612   20.4110 N   0  0  0  0  0  0  0  0  0  0  0  0
  -24.4079  -20.1322   15.3539 N   0  0  0  0  0  0  0  0  0  0  0  0
  -24.8724  -27.3133   18.7338 N   0  0  0  0  0  0  0  0  0  0  0  0
  -29.3812  -13.8193   18.3933 N   0  0  0  0  0  0  0  0  0  0  0  0
  -25.3900  -15.0462   20.5816 N   0  0  0  0  0  0  0  0  0  0  0  0
  -22.4316  -13.5643   22.4376 N   0  0  0  0  0  0  0  0  0  0  0  0
  -27.0262  -17.9025   18.8393 N   0  0  0  0  0  0  0  0  0  0  0  0
  -28.8320  -15.9178   17.4452 N   0  0  0  0  0  0  0  0  0  0  0  0
  -23.7068  -30.5767   19.5410 N   0  0  0  0  0  0  0  0  0  0  0  0
  -27.6796  -25.7886   20.3734 N   0  0  0  0  0  0  0  0  0  0  0  0
  -27.5187  -23.1429   22.8314 N   0  3  0  0  0  0  0  0  0  0  0  0
  -24.2215  -19.1617   13.2232 O   0  0  0  0  0  0  0  0  0  0  0  0
  -30.1664  -17.6679   16.6784 O   0  0  0  0  0  0  0  0  0  0  0  0
  -21.9752  -13.5384   20.1905 O   0  0  0  0  0  0  0  0  0  0  0  0
  -24.8725  -29.7186   17.7169 O   0  0  0  0  0  0  0  0  0  0  0  0
  -26.1704  -27.9533   20.5549 O   0  0  0  0  0  0  0  0  0  0  0  0
  -26.9685  -23.5973   20.1098 O   0  0  0  0  0  0  0  0  0  0  0  0
  -31.0363  -15.2888   17.6977 O   0  0  0  0  0  0  0  0  0  0  0  0
  -26.7063  -20.3557   19.5589 O   0  0  0  0  0  0  0  0  0  0  0  0
  -27.1827  -18.6442   21.3446 O   0  0  0  0  0  0  0  0  0  0  0  0
  -21.7996   -6.8174   21.3402 O   0  0  0  0  0  0  0  0  0  0  0  0
  -21.9416  -22.4317   16.9561 O   0  0  0  0  0  0  0  0  0  1  0  0
  -20.3643   -5.3174   26.4484 F   0  0  0  0  0  0  0  0  0  0  0  0
  -22.6749   -4.4253   22.4147 F   0  0  0  0  0  0  0  0  0  0  0  0
  -27.3606  -19.1353   19.9925 S   0  0  0  0  0  0  0  0  0  0  0  0
  1  2  1  0  0  0  0
  1  6  2  0  0  0  0
  2  7  2  0  0  0  0
  3 10  2  0  0  0  0
  3 18  1  0  0  0  0
  4 11  1  0  0  0  0
  4 18  2  0  0  0  0
  5  9  2  0  0  0  0
  5 19  1  0  0  0  0
  6 21  1  0  0  0  0
  7 23  1  0  0  0  0
  8 12  2  0  0  0  0
  8 22  1  0  0  0  0
  9 25  1  0  0  0  0
 10 27  1  0  0  0  0
 11 27  2  0  0  0  0
 12 28  1  0  0  0  0
 13 14  2  0  0  0  0
 13 29  1  0  0  0  0
 14 30  1  0  0  0  0
 15 24  1  0  0  0  0
 15 28  2  0  0  0  0
 16 25  2  0  0  0  0
 16 26  1  0  0  0  0
 17 30  2  0  0  0  0
 17 31  1  0  0  0  0
 18 32  1  0  0  0  0
 19 26  2  0  0  0  0
 19 35  1  0  0  0  0
 20 32  1  0  0  0  0
 20 33  2  0  0  0  0
 20 36  1  0  0  0  0
 21 23  2  0  0  0  0
 21 41  1  0  0  0  0
 22 24  2  0  0  0  0
 22 42  1  0  0  0  0
 23 53  1  0  0  0  0
 24 43  1  0  0  0  0
 25 68  1  0  0  0  0
 26 73  1  0  0  0  0
 27 87  1  0  0  0  0
 28 88  1  0  0  0  0
 29 31  2  0  0  0  0
 29 87  1  0  0  0  0
 30 89  1  0  0  0  0
 31 90  1  0  0  0  0
 32 66  2  0  0  0  0
 33 67  1  0  0  0  0
 33 71  1  0  0  0  0
 34 44  1  0  0  0  0
 34 68  1  0  0  0  0
 34 78  2  0  0  0  0
 35 74  1  0  0  0  0
 35 79  2  0  0  0  0
 36 72  1  0  0  0  0
 36 80  2  0  0  0  0
 37 54  1  0  0  0  0
 37 75  1  0  0  0  0
 37 81  2  0  0  0  0
 38 63  1  0  0  0  0
 38 69  1  0  0  0  0
 38 82  2  0  0  0  0
 39 64  1  0  0  0  0
 39 76  1  0  0  0  0
 39 83  2  0  0  0  0
 40 70  1  0  0  0  0
 40 74  1  0  0  0  0
 40 84  2  0  0  0  0
 41 45  1  0  0  0  0
 42 54  1  0  0  0  0
 43 69  1  0  0  0  0
 44 46  1  0  0  0  0
 45 48  1  0  0  0  0
 46 56  1  0  0  0  0
 47 49  1  0  0  0  0
 47 50  1  0  0  0  0
 48 53  1  0  0  0  0
 49 55  1  0  0  0  0
 50 70  1  0  0  0  0
 51 55  1  0  0  0  0
 51 70  1  0  0  0  0
 52 56  1  0  0  0  0
 52 68  1  0  0  0  0
 53 75  1  0  0  0  0
 54 69  1  0  0  0  0
 55 67  1  0  0  0  0
 56 88  1  0  0  0  0
 57 64  1  0  0  0  0
 58 65  1  0  0  0  0
 59 65  1  0  0  0  0
 60 65  1  0  0  0  0
 61 77  1  0  0  0  0
 62 91  1  0  0  0  0
 63 65  1  0  0  0  0
 63 76  1  0  0  0  0
 64 77  1  0  0  0  0
 66 67  1  0  0  0  0
 73 91  1  0  0  0  0
 85 91  2  0  0  0  0
 86 91  2  0  0  0  0
M  CHG  1  77   1
M  ISO  4  40 100  56 101  74 100  88 101
M  END
> <Batch ID>
0067

> <Smiles>
CNC(C)C(=O)NC(C(=O)N1Cc2cc([101O:1][101CH:1]3CCC(=O)N(c4ccc(C(=O)[100NH:0][100C:0](=O)N5CCCC(n6nc(-c7ccc(Oc8ccc(F)cc8F)cc7)c(C(N)=O)c6N)C5)c(NS(C)(=O)=O)c4)C3)ccc2CC1C(=O)NC1CCCc2ccccc21)C(C)(C)C

> <Shape>
0.235

> <Color>
0.147

> <Negative vol penalty>
0.000

$$$$

  -OEChem-04042323243D

 85 94  0     1  0  0  0  0  0999 V2000
  -29.0449  -35.0173   22.5502 C   0  0  0  0  0  0  0  0  0  0  0  0
  -29.1438  -33.6781   22.9138 C   0  0  0  0  0  0  0  0  0  0  0  0
  -23.5884   -9.6396   21.4921 C   0  0  0  0  0  0  0  0  0  0  0  0
  -24.2451  -10.7115   23.5553 C   0  0  0  0  0  0  0  0  0  0  0  0
  -27.8304  -35.5261   22.0920 C   0  0  0  0  0  0  0  0  0  0  0  0
  -28.0279  -32.8472   22.8205 C   0  0  0  0  0  0  0  0  0  0  0  0
  -29.1144  -28.3621   20.7351 C   0  0  0  0  0  0  0  0  0  0  0  0
  -31.7735  -19.3876   21.2670 C   0  0  0  0  0  0  0  0  0  0  0  0
  -31.3439  -18.1358   20.8267 C   0  0  0  0  0  0  0  0  0  0  0  0
  -23.0180   -8.5934   22.2171 C   0  0  0  0  0  0  0  0  0  0  0  0
  -23.6747   -9.6653   24.2804 C   0  0  0  0  0  0  0  0  0  0  0  0
  -29.7408  -27.4175   21.5469 C   0  0  0  0  0  0  0  0  0  0  0  0
  -20.1680   -8.0236   23.9450 C   0  0  0  0  0  0  0  0  0  0  0  0
  -18.9038   -7.5798   23.5571 C   0  0  0  0  0  0  0  0  0  0  0  0
  -27.6200  -26.3235   21.9002 C   0  0  0  0  0  0  0  0  0  0  0  0
  -29.4749  -20.0870   21.5213 C   0  0  0  0  0  0  0  0  0  0  0  0
  -19.8040   -5.3758   23.1454 C   0  0  0  0  0  0  0  0  0  0  0  0
  -24.2020  -10.6986   22.1611 C   0  0  0  0  0  0  0  0  0  0  0  0
  -24.1625  -12.9676   20.9959 C   0  0  0  0  0  0  0  0  0  0  0  0
  -26.7015  -34.6988   21.9839 C   0  0  0  0  0  0  0  0  0  0  0  0
  -27.7319  -28.3008   20.5082 C   0  0  0  0  0  0  0  0  0  0  0  0
  -26.7968  -33.3458   22.3617 C   0  0  0  0  0  0  0  0  0  0  0  0
  -26.9789  -27.2671   21.0830 C   0  0  0  0  0  0  0  0  0  0  0  0
  -29.0453  -18.8351   21.0809 C   0  0  0  0  0  0  0  0  0  0  0  0
  -30.8390  -20.3632   21.6144 C   0  0  0  0  0  0  0  0  0  0  0  0
  -29.9798  -17.8595   20.7336 C   0  0  0  0  0  0  0  0  0  0  0  0
  -23.0612   -8.6062   23.6112 C   0  0  0  0  0  0  0  0  0  0  0  0
  -28.9932  -26.3997   22.1319 C   0  0  0  0  0  0  0  0  0  0  0  0
  -21.2502   -7.1436   23.9330 C   0  0  0  0  0  0  0  0  0  0  0  0
  -18.7218   -6.2559   23.1573 C   0  0  0  0  0  0  0  0  0  0  0  0
  -21.0682   -5.8197   23.5332 C   0  0  0  0  0  0  0  0  0  0  0  0
  -24.7919  -11.7794   21.4127 C   0  0  0  0  0  0  0  0  0  0  0  0
  -25.1425  -13.6585   20.3260 C   0  0  0  0  0  0  0  0  0  0  0  0
  -32.5899  -22.0801   22.2206 C   0  0  0  0  0  0  0  0  0  0  0  0
  -22.8127  -13.4076   21.1965 C   0  0  0  0  0  0  0  0  0  0  0  0
  -25.2714  -30.2186   21.1178 C   0  0  0  0  0  0  0  0  0  0  0  0
  -23.6282  -28.0141   19.3967 C   0  0  0  0  0  0  0  0  0  0  0  0
  -23.4089  -24.8051   18.2560 C   0  0  0  0  0  0  0  0  0  0  0  0
  -30.3760  -15.5127   19.9078 C   0  0  0  0  0  0  0  0  0  0  0  0
  -25.3980  -35.3052   21.5281 C   0  0  0  0  0  0  0  0  0  0  0  0
  -27.0756  -29.3118   19.6084 C   0  0  0  0  0  0  0  0  0  0  0  0
  -25.4952  -27.1450   20.8543 C   0  0  0  0  0  0  0  0  0  0  0  0
  -24.3598  -34.2696   21.1036 C   0  0  0  0  0  0  0  0  0  0  0  0
  -29.7362  -12.1955   18.7837 C   0  0  0  0  0  0  0  0  0  0  0  0
  -24.2764  -33.1453   22.1311 C   0  0  0  0  0  0  0  0  0  0  0  0
  -28.3411  -11.8892   19.3332 C   0  0  0  0  0  0  0  0  0  0  0  0
  -30.5569  -13.0389   19.7578 C   0  0  0  0  0  0  0  0  0  0  0  0
  -28.5080  -13.9658   20.7639 C   0  0  0  0  0  0  0  0  0  0  0  0
  -30.3702  -22.7221   22.3394 C   0  0  0  0  0  0  0  0  0  0  0  0
  -25.6150  -32.4070   22.2509 C   0  0  1  0  0  0  0  0  0  0  0  0
  -25.5779  -29.4537   19.8614 C   0  0  1  0  0  0  0  0  0  0  0  0
  -27.6210  -13.1731   19.7900 C   0  0  2  0  0  0  0  0  0  0  0  0
  -31.2438  -23.7341   23.0466 C   0  0  2  0  0  0  0  0  0  0  0  0
  -27.5782  -18.5658   20.9929 C   0  0  0  0  0  0  0  0  0  0  0  0
  -21.9329  -23.2916   16.9039 C   0  0  0  0  0  0  0  0  0  0  0  0
  -21.6953  -27.8025   21.7481 C   0  0  0  0  0  0  0  0  0  0  0  0
  -20.8438  -25.6629   20.7656 C   0  0  0  0  0  0  0  0  0  0  0  0
  -20.6048  -27.7978   19.4975 C   0  0  0  0  0  0  0  0  0  0  0  0
  -25.5355  -24.3283   16.2537 C   0  0  0  0  0  0  0  0  0  0  0  0
  -30.9639  -25.1664   22.6331 C   0  0  0  0  0  0  0  0  0  1  0  0
  -22.8894  -26.7383   19.7214 C   0  0  1  0  0  0  0  0  0  0  0  0
  -23.1179  -24.2444   16.8757 C   0  0  2  0  0  0  0  0  0  0  0  0
  -21.5359  -27.0035   20.4392 C   0  0  0  0  0  0  0  0  0  0  0  0
  -26.0725  -11.7156   21.0387 N   0  0  0  0  0  0  0  0  0  0  0  0
  -26.2558  -12.8725   20.3799 N   0  0  0  0  0  0  0  0  0  0  0  0
  -31.2780  -21.6408   22.0668 N   0  0  0  0  0  0  0  0  0  0  0  0
  -24.8984  -28.1613   19.9719 N   0  0  0  0  0  0  0  0  0  0  0  0
  -29.8134  -14.2404   20.1432 N   0  0  0  0  0  0  0  0  0  0  0  0
  -25.1518  -14.8556   19.7020 N   0  0  0  0  0  0  0  0  0  0  0  0
  -21.9372  -12.5751   21.9069 N   0  0  0  0  0  0  0  0  0  0  0  0
  -29.5636  -16.5813   20.2856 N   0  0  0  0  0  0  0  0  0  0  0  0
  -25.7924  -31.4983   21.1386 N   0  0  0  0  0  0  0  0  0  0  0  0
  -22.7661  -26.0069   18.4651 N   0  0  0  0  0  0  0  0  0  0  0  0
  -24.3031  -23.5051   16.3564 N   0  3  0  0  0  0  0  0  0  0  0  0
  -33.6376  -21.4936   21.9886 O   0  0  0  0  0  0  0  0  0  0  0  0
  -22.3909  -14.4991   20.7446 O   0  0  0  0  0  0  0  0  0  0  0  0
  -24.6099  -29.6877   22.0023 O   0  0  0  0  0  0  0  0  0  0  0  0
  -23.1009  -28.8461   18.6542 O   0  0  0  0  0  0  0  0  0  0  0  0
  -24.1311  -24.2322   19.0690 O   0  0  0  0  0  0  0  0  0  0  0  0
  -31.4846  -15.6451   19.3828 O   0  0  0  0  0  0  0  0  0  0  0  0
  -32.5831  -23.3783   22.6768 O   0  0  0  0  0  0  0  0  0  0  0  0
  -22.5045   -7.5856   24.3191 O   0  0  0  0  0  0  0  0  0  0  0  0
  -29.6020  -25.4768   22.9253 O   0  0  0  0  0  0  0  0  0  1  0  0
  -17.5075   -5.8293   22.7864 F   0  0  0  0  0  0  0  0  0  0  0  0
  -22.1038   -4.9694   23.5207 F   0  0  0  0  0  0  0  0  0  0  0  0
  1  2  1  0  0  0  0
  1  5  2  0  0  0  0
  2  6  2  0  0  0  0
  3 10  2  0  0  0  0
  3 18  1  0  0  0  0
  4 11  1  0  0  0  0
  4 18  2  0  0  0  0
  5 20  1  0  0  0  0
  6 22  1  0  0  0  0
  7 12  2  0  0  0  0
  7 21  1  0  0  0  0
  8  9  2  0  0  0  0
  8 25  1  0  0  0  0
  9 26  1  0  0  0  0
 10 27  1  0  0  0  0
 11 27  2  0  0  0  0
 12 28  1  0  0  0  0
 13 14  2  0  0  0  0
 13 29  1  0  0  0  0
 14 30  1  0  0  0  0
 15 23  1  0  0  0  0
 15 28  2  0  0  0  0
 16 24  1  0  0  0  0
 16 25  2  0  0  0  0
 17 30  2  0  0  0  0
 17 31  1  0  0  0  0
 18 32  1  0  0  0  0
 19 32  1  0  0  0  0
 19 33  2  0  0  0  0
 19 35  1  0  0  0  0
 20 22  2  0  0  0  0
 20 40  1  0  0  0  0
 21 23  2  0  0  0  0
 21 41  1  0  0  0  0
 22 50  1  0  0  0  0
 23 42  1  0  0  0  0
 24 26  2  0  0  0  0
 24 54  1  0  0  0  0
 25 66  1  0  0  0  0
 26 71  1  0  0  0  0
 27 82  1  0  0  0  0
 28 83  1  0  0  0  0
 29 31  2  0  0  0  0
 29 82  1  0  0  0  0
 30 84  1  0  0  0  0
 31 85  1  0  0  0  0
 32 64  2  0  0  0  0
 33 65  1  0  0  0  0
 33 69  1  0  0  0  0
 34 66  1  0  0  0  0
 34 75  2  0  0  0  0
 34 81  1  0  0  0  0
 35 70  1  0  0  0  0
 35 76  2  0  0  0  0
 36 51  1  0  0  0  0
 36 72  1  0  0  0  0
 36 77  2  0  0  0  0
 37 61  1  0  0  0  0
 37 67  1  0  0  0  0
 37 78  2  0  0  0  0
 38 62  1  0  0  0  0
 38 73  1  0  0  0  0
 38 79  2  0  0  0  0
 39 68  1  0  0  0  0
 39 71  1  0  0  0  0
 39 80  2  0  0  0  0
 40 43  1  0  0  0  0
 41 51  1  0  0  0  0
 42 67  1  0  0  0  0
 43 45  1  0  0  0  0
 44 46  1  0  0  0  0
 44 47  1  0  0  0  0
 45 50  1  0  0  0  0
 46 52  1  0  0  0  0
 47 68  1  0  0  0  0
 48 52  1  0  0  0  0
 48 68  1  0  0  0  0
 49 53  1  0  0  0  0
 49 66  1  0  0  0  0
 50 72  1  0  0  0  0
 51 67  1  0  0  0  0
 52 65  1  0  0  0  0
 53 60  1  0  0  0  0
 53 81  1  0  0  0  0
 55 62  1  0  0  0  0
 56 63  1  0  0  0  0
 57 63  1  0  0  0  0
 58 63  1  0  0  0  0
 59 74  1  0  0  0  0
 60 83  1  0  0  0  0
 61 63  1  0  0  0  0
 61 73  1  0  0  0  0
 62 74  1  0  0  0  0
 64 65  1  0  0  0  0
M  CHG  1  74   1
M  ISO  4  39 100  60 101  71 100  83 101
M  END
> <Batch ID>
0067

> <Smiles>
CNC(C)C(=O)NC(C(=O)N1Cc2cc([101O:1][101CH2:1]C3CN(c4ccc([100NH:0][100C:0](=O)N5CCCC(n6nc(-c7ccc(Oc8ccc(F)cc8F)cc7)c(C(N)=O)c6N)C5)c(C)c4)C(=O)O3)ccc2CC1C(=O)NC1CCCc2ccccc21)C(C)(C)C

> <Shape>
0.265

> <Color>
0.138

> <Negative vol penalty>
0.000

$$$$

  -OEChem-04042323243D

 84 92  0     1  0  0  0  0  0999 V2000
  -35.8088  -23.1680   17.2399 C   0  0  0  0  0  0  0  0  0  0  0  0
  -34.8278  -24.1530   17.2932 C   0  0  0  0  0  0  0  0  0  0  0  0
  -18.6837  -27.3683   23.7938 C   0  0  0  0  0  0  0  0  0  0  0  0
  -21.6315  -16.1134   20.9861 C   0  0  0  0  0  0  0  0  0  0  0  0
  -22.5693  -17.2166   22.9202 C   0  0  0  0  0  0  0  0  0  0  0  0
  -35.4603  -21.8289   17.4107 C   0  0  0  0  0  0  0  0  0  0  0  0
  -33.4975  -23.7993   17.5163 C   0  0  0  0  0  0  0  0  0  0  0  0
  -29.3136  -26.9944   20.6455 C   0  0  0  0  0  0  0  0  0  0  0  0
  -18.9452  -26.2547   22.9956 C   0  0  0  0  0  0  0  0  0  0  0  0
  -19.3165  -28.5823   23.5264 C   0  0  0  0  0  0  0  0  0  0  0  0
  -22.3625  -14.9643   21.2871 C   0  0  0  0  0  0  0  0  0  0  0  0
  -23.3004  -16.0674   23.2212 C   0  0  0  0  0  0  0  0  0  0  0  0
  -28.2961  -27.8569   20.2400 C   0  0  0  0  0  0  0  0  0  0  0  0
  -25.5400  -13.8690   20.9289 C   0  0  0  0  0  0  0  0  0  0  0  0
  -26.2033  -13.2308   19.8809 C   0  0  0  0  0  0  0  0  0  0  0  0
  -26.7182  -26.0352   20.3450 C   0  0  0  0  0  0  0  0  0  0  0  0
  -20.4726  -27.5690   21.6626 C   0  0  0  0  0  0  0  0  0  0  0  0
  -24.9231  -11.2237   20.2932 C   0  0  0  0  0  0  0  0  0  0  0  0
  -21.7349  -17.2396   21.8026 C   0  0  0  0  0  0  0  0  0  0  0  0
  -19.6844  -18.7514   21.9358 C   0  0  0  0  0  0  0  0  0  0  0  0
  -34.1266  -21.4594   17.6456 C   0  0  0  0  0  0  0  0  0  0  0  0
  -29.0427  -25.6411   20.8937 C   0  0  0  0  0  0  0  0  0  0  0  0
  -33.1308  -22.4538   17.6891 C   0  0  0  0  0  0  0  0  0  0  0  0
  -27.7336  -25.1581   20.7560 C   0  0  0  0  0  0  0  0  0  0  0  0
  -19.8397  -26.3551   21.9300 C   0  0  0  0  0  0  0  0  0  0  0  0
  -20.2110  -28.6826   22.4608 C   0  0  0  0  0  0  0  0  0  0  0  0
  -23.1969  -14.9412   22.4046 C   0  0  0  0  0  0  0  0  0  0  0  0
  -26.9987  -27.3768   20.0869 C   0  0  0  0  0  0  0  0  0  0  0  0
  -24.5684  -13.1846   21.6591 C   0  0  0  0  0  0  0  0  0  0  0  0
  -25.8948  -11.9081   19.5630 C   0  0  0  0  0  0  0  0  0  0  0  0
  -24.2599  -11.8620   21.3412 C   0  0  0  0  0  0  0  0  0  0  0  0
  -20.9805  -18.4272   21.4919 C   0  0  0  0  0  0  0  0  0  0  0  0
  -19.4223  -19.9736   21.3667 C   0  0  0  0  0  0  0  0  0  0  0  0
  -18.7968  -18.0136   22.7864 C   0  0  0  0  0  0  0  0  0  0  0  0
  -30.0210  -22.8905   19.6363 C   0  0  0  0  0  0  0  0  0  0  0  0
  -28.3051  -21.6140   22.0753 C   0  0  0  0  0  0  0  0  0  0  0  0
  -22.0598  -30.1060   21.7176 C   0  0  0  0  0  0  0  0  0  0  0  0
  -23.8944  -29.1982   20.3022 C   0  0  0  0  0  0  0  0  0  0  0  0
  -25.7753  -21.9743   24.3373 C   0  0  0  0  0  0  0  0  0  0  0  0
  -20.9645  -25.1525   20.0235 C   0  0  0  0  0  0  0  0  0  0  0  0
  -33.7914  -19.9948   17.7771 C   0  0  0  0  0  0  0  0  0  0  0  0
  -30.1462  -24.7295   21.3562 C   0  0  0  0  0  0  0  0  0  0  0  0
  -27.3866  -23.7183   21.0295 C   0  0  0  0  0  0  0  0  0  0  0  0
  -32.4139  -19.7371   18.3824 C   0  0  0  0  0  0  0  0  0  0  0  0
  -21.9181  -22.5464   17.7927 C   0  0  0  0  0  0  0  0  0  0  0  0
  -31.3661  -20.6288   17.7238 C   0  0  0  0  0  0  0  0  0  0  0  0
  -21.6525  -21.2691   18.5928 C   0  0  0  0  0  0  0  0  0  0  0  0
  -22.4425  -23.6733   18.6809 C   0  0  0  0  0  0  0  0  0  0  0  0
  -21.3535  -22.6911   20.6605 C   0  0  0  0  0  0  0  0  0  0  0  0
  -31.6805  -22.1120   17.9538 C   0  0  1  0  0  0  0  0  0  0  0  0
  -29.8576  -23.2564   21.0844 C   0  0  1  0  0  0  0  0  0  0  0  0
  -20.7625  -21.5475   19.8199 C   0  0  2  0  0  0  0  0  0  0  0  0
  -22.5919  -31.4717   21.4870 C   0  0  0  0  0  0  0  0  0  0  0  0
  -24.5848  -20.7461   26.1736 C   0  0  0  0  0  0  0  0  0  0  0  0
  -26.8309  -19.9378   19.9952 C   0  0  0  0  0  0  0  0  0  0  0  0
  -25.0732  -19.4737   21.7167 C   0  0  0  0  0  0  0  0  0  0  0  0
  -27.4188  -18.7136   22.0952 C   0  0  0  0  0  0  0  0  0  0  0  0
  -26.5405  -24.0051   26.3496 C   0  0  0  0  0  0  0  0  0  0  0  0
  -24.6858  -27.9260   20.1542 C   0  0  0  0  0  0  0  0  0  1  0  0
  -26.8722  -21.1765   22.2601 C   0  0  1  0  0  0  0  0  0  0  0  0
  -25.7131  -21.7063   25.8302 C   0  0  2  0  0  0  0  0  0  0  0  0
  -26.5554  -19.8522   21.5097 C   0  0  0  0  0  0  0  0  0  0  0  0
  -21.5051  -19.3676   20.7017 N   0  0  0  0  0  0  0  0  0  0  0  0
  -20.5338  -20.2946   20.6445 N   0  0  0  0  0  0  0  0  0  0  0  0
  -28.5013  -22.8650   21.4733 N   0  0  0  0  0  0  0  0  0  0  0  0
  -21.5464  -23.8833   19.8201 N   0  0  0  0  0  0  0  0  0  0  0  0
  -18.3517  -20.7943   21.4186 N   0  0  0  0  0  0  0  0  0  0  0  0
  -19.2243  -16.7753   23.2846 N   0  0  0  0  0  0  0  0  0  0  0  0
  -20.1048  -25.2237   21.1191 N   0  0  0  0  0  0  0  0  0  0  0  0
  -31.3036  -22.5065   19.2942 N   0  0  0  0  0  0  0  0  0  0  0  0
  -22.9088  -29.1318   21.3559 N   0  0  0  0  0  0  0  0  0  0  0  0
  -26.6463  -21.1161   23.7002 N   0  0  0  0  0  0  0  0  0  0  0  0
  -20.8334  -29.8774   22.1981 N   0  3  0  0  0  0  0  0  0  0  0  0
  -25.4918  -22.9774   26.5759 N   0  3  0  0  0  0  0  0  0  0  0  0
  -17.6520  -18.4323   23.0823 O   0  0  0  0  0  0  0  0  0  0  0  0
  -29.0546  -22.9505   18.8852 O   0  0  0  0  0  0  0  0  0  0  0  0
  -29.2168  -20.8762   22.4577 O   0  0  0  0  0  0  0  0  0  0  0  0
  -24.0418  -30.2013   19.6189 O   0  0  0  0  0  0  0  0  0  0  0  0
  -25.1142  -22.8544   23.7905 O   0  0  0  0  0  0  0  0  0  0  0  0
  -21.1894  -26.0987   19.2644 O   0  0  0  0  0  0  0  0  0  0  0  0
  -23.9103  -13.8200   22.6988 O   0  0  0  0  0  0  0  0  0  0  0  0
  -26.0038  -28.2164   19.6906 O   0  0  0  0  0  0  0  0  0  1  0  0
  -26.5307  -11.2958   18.5556 F   0  0  0  0  0  0  0  0  0  0  0  0
  -23.3265  -11.1997   22.0383 F   0  0  0  0  0  0  0  0  0  0  0  0
  1  2  1  0  0  0  0
  1  6  2  0  0  0  0
  2  7  2  0  0  0  0
  3  9  1  0  0  0  0
  3 10  2  0  0  0  0
  4 11  2  0  0  0  0
  4 19  1  0  0  0  0
  5 12  1  0  0  0  0
  5 19  2  0  0  0  0
  6 21  1  0  0  0  0
  7 23  1  0  0  0  0
  8 13  2  0  0  0  0
  8 22  1  0  0  0  0
  9 25  2  0  0  0  0
 10 26  1  0  0  0  0
 11 27  1  0  0  0  0
 12 27  2  0  0  0  0
 13 28  1  0  0  0  0
 14 15  2  0  0  0  0
 14 29  1  0  0  0  0
 15 30  1  0  0  0  0
 16 24  1  0  0  0  0
 16 28  2  0  0  0  0
 17 25  1  0  0  0  0
 17 26  2  0  0  0  0
 18 30  2  0  0  0  0
 18 31  1  0  0  0  0
 19 32  1  0  0  0  0
 20 32  1  0  0  0  0
 20 33  2  0  0  0  0
 20 34  1  0  0  0  0
 21 23  2  0  0  0  0
 21 41  1  0  0  0  0
 22 24  2  0  0  0  0
 22 42  1  0  0  0  0
 23 50  1  0  0  0  0
 24 43  1  0  0  0  0
 25 69  1  0  0  0  0
 26 73  1  0  0  0  0
 27 81  1  0  0  0  0
 28 82  1  0  0  0  0
 29 31  2  0  0  0  0
 29 81  1  0  0  0  0
 30 83  1  0  0  0  0
 31 84  1  0  0  0  0
 32 63  2  0  0  0  0
 33 64  1  0  0  0  0
 33 67  1  0  0  0  0
 34 68  1  0  0  0  0
 34 75  2  0  0  0  0
 35 51  1  0  0  0  0
 35 70  1  0  0  0  0
 35 76  2  0  0  0  0
 36 60  1  0  0  0  0
 36 65  1  0  0  0  0
 36 77  2  0  0  0  0
 37 53  1  0  0  0  0
 37 71  1  0  0  0  0
 37 73  2  0  0  0  0
 38 59  1  0  0  0  0
 38 71  1  0  0  0  0
 38 78  2  0  0  0  0
 39 61  1  0  0  0  0
 39 72  1  0  0  0  0
 39 79  2  0  0  0  0
 40 66  1  0  0  0  0
 40 69  1  0  0  0  0
 40 80  2  0  0  0  0
 41 44  1  0  0  0  0
 42 51  1  0  0  0  0
 43 65  1  0  0  0  0
 44 46  1  0  0  0  0
 45 47  1  0  0  0  0
 45 48  1  0  0  0  0
 46 50  1  0  0  0  0
 47 52  1  0  0  0  0
 48 66  1  0  0  0  0
 49 52  1  0  0  0  0
 49 66  1  0  0  0  0
 50 70  1  0  0  0  0
 51 65  1  0  0  0  0
 52 64  1  0  0  0  0
 54 61  1  0  0  0  0
 55 62  1  0  0  0  0
 56 62  1  0  0  0  0
 57 62  1  0  0  0  0
 58 74  1  0  0  0  0
 59 82  1  0  0  0  0
 60 62  1  0  0  0  0
 60 72  1  0  0  0  0
 61 74  1  0  0  0  0
 63 64  1  0  0  0  0
M  CHG  2  73   1  74   1
M  ISO  4  40 100  59 101  69 100  82 101
M  END
> <Batch ID>
0067

> <Smiles>
CNC(C)C(=O)NC(C(=O)N1Cc2cc([101O:1][101CH2:1]C(=O)NC(C)=Nc3cccc([100NH:0][100C:0](=O)N4CCCC(n5nc(-c6ccc(Oc7ccc(F)cc7F)cc6)c(C(N)=O)c5N)C4)c3)ccc2CC1C(=O)NC1CCCc2ccccc21)C(C)(C)C

> <Shape>
0.185

> <Color>
0.064

> <Negative vol penalty>
0.000

$$$$

  -OEChem-04042323243D

 88 97  0     1  0  0  0  0  0999 V2000
  -26.0870  -34.7888   24.7969 C   0  0  0  0  0  0  0  0  0  0  0  0
  -26.6285  -33.5993   24.3199 C   0  0  0  0  0  0  0  0  0  0  0  0
  -26.3971  -11.4041   21.2933 C   0  0  0  0  0  0  0  0  0  0  0  0
  -25.1447  -12.7087   19.6914 C   0  0  0  0  0  0  0  0  0  0  0  0
  -24.7588  -34.8288   25.2191 C   0  0  0  0  0  0  0  0  0  0  0  0
  -25.8423  -32.4490   24.2659 C   0  0  0  0  0  0  0  0  0  0  0  0
  -26.3712  -29.9379   19.9001 C   0  0  0  0  0  0  0  0  0  0  0  0
  -25.2164  -10.7991   21.7238 C   0  0  0  0  0  0  0  0  0  0  0  0
  -23.9639  -12.1037   20.1218 C   0  0  0  0  0  0  0  0  0  0  0  0
  -27.5149  -29.1546   19.7506 C   0  0  0  0  0  0  0  0  0  0  0  0
  -23.1467   -8.3433   20.6663 C   0  0  0  0  0  0  0  0  0  0  0  0
  -23.1557   -6.9603   20.8478 C   0  0  0  0  0  0  0  0  0  0  0  0
  -26.2317  -27.1870   20.2995 C   0  0  0  0  0  0  0  0  0  0  0  0
  -27.8639  -22.7982   17.2021 C   0  0  0  0  0  0  0  0  0  0  0  0
  -29.1484  -21.6694   18.9088 C   0  0  0  0  0  0  0  0  0  0  0  0
  -22.5847   -7.2621   23.1759 C   0  0  0  0  0  0  0  0  0  0  0  0
  -26.3613  -12.3590   20.2771 C   0  0  0  0  0  0  0  0  0  0  0  0
  -27.4764  -20.4570   17.6552 C   0  0  0  0  0  0  0  0  0  0  0  0
  -28.4362  -12.5447   18.8048 C   0  0  0  0  0  0  0  0  0  0  0  0
  -23.9531  -33.6807   25.1611 C   0  0  0  0  0  0  0  0  0  0  0  0
  -25.1495  -29.3520   20.2617 C   0  0  0  0  0  0  0  0  0  0  0  0
  -24.5024  -32.4734   24.6889 C   0  0  0  0  0  0  0  0  0  0  0  0
  -25.0734  -27.9647   20.4504 C   0  0  0  0  0  0  0  0  0  0  0  0
  -27.1774  -21.6136   16.9352 C   0  0  0  0  0  0  0  0  0  0  0  0
  -28.8494  -22.8261   18.1889 C   0  0  0  0  0  0  0  0  0  0  0  0
  -28.4619  -20.4848   18.6420 C   0  0  0  0  0  0  0  0  0  0  0  0
  -23.9997  -11.1488   21.1380 C   0  0  0  0  0  0  0  0  0  0  0  0
  -27.4459  -27.7794   19.9531 C   0  0  0  0  0  0  0  0  0  0  0  0
  -22.8567   -9.1857   21.7396 C   0  0  0  0  0  0  0  0  0  0  0  0
  -22.8747   -6.4197   22.1025 C   0  0  0  0  0  0  0  0  0  0  0  0
  -22.5757   -8.6451   22.9944 C   0  0  0  0  0  0  0  0  0  0  0  0
  -27.5806  -12.9848   19.8324 C   0  0  0  0  0  0  0  0  0  0  0  0
  -29.4444  -13.4770   18.7746 C   0  0  0  0  0  0  0  0  0  0  0  0
  -30.5170  -24.1967   19.3800 C   0  0  0  0  0  0  0  0  0  0  0  0
  -30.9908  -25.4479   19.3619 C   0  0  0  0  0  0  0  0  0  0  0  0
  -27.1682  -18.3145   16.5019 C   0  0  0  0  0  0  0  0  0  0  0  0
  -32.1477  -25.6025   21.4674 C   0  0  0  0  0  0  0  0  0  0  0  0
  -26.7529  -19.2197   17.3718 C   0  0  0  0  0  0  0  0  0  0  0  0
  -32.0496  -25.9636   20.1700 C   0  0  0  0  0  0  0  0  0  0  0  0
  -28.3292  -11.3959   17.9536 C   0  0  0  0  0  0  0  0  0  0  0  0
  -23.1688  -29.6375   22.7313 C   0  0  0  0  0  0  0  0  0  0  0  0
  -21.2929  -27.6771   20.9536 C   0  0  0  0  0  0  0  0  0  0  0  0
  -21.0764  -25.3174   18.4976 C   0  0  0  0  0  0  0  0  0  0  0  0
  -29.7449  -19.2187   20.4018 C   0  0  0  0  0  0  0  0  0  0  0  0
  -22.5367  -33.7612   25.6729 C   0  0  0  0  0  0  0  0  0  0  0  0
  -23.9192  -30.2073   20.3928 C   0  0  0  0  0  0  0  0  0  0  0  0
  -23.7815  -27.2843   20.8199 C   0  0  0  0  0  0  0  0  0  0  0  0
  -21.6624  -32.5900   25.2324 C   0  0  0  0  0  0  0  0  0  0  0  0
  -31.7832  -16.5564   21.5998 C   0  0  0  0  0  0  0  0  0  0  0  0
  -22.3967  -31.2688   25.4377 C   0  0  0  0  0  0  0  0  0  0  0  0
  -31.0177  -15.2982   21.1836 C   0  0  0  0  0  0  0  0  0  0  0  0
  -30.8392  -17.6818   22.0192 C   0  0  0  0  0  0  0  0  0  0  0  0
  -29.2796  -25.2293   17.6923 C   0  0  0  0  0  0  0  0  0  0  0  0
  -29.0317  -16.7574   20.6236 C   0  0  0  0  0  0  0  0  0  0  0  0
  -23.6743  -31.2105   24.5917 C   0  0  1  0  0  0  0  0  0  0  0  0
  -30.2708  -26.2596   18.3106 C   0  0  1  0  0  0  0  0  0  0  0  0
  -22.8411  -29.5732   21.2663 C   0  0  1  0  0  0  0  0  0  0  0  0
  -29.9382  -15.6177   20.1308 C   0  0  2  0  0  0  0  0  0  0  0  0
  -26.1283  -21.6256   15.8697 C   0  0  0  0  0  0  0  0  0  0  0  0
  -19.4134  -23.8760   17.2919 C   0  0  0  0  0  0  0  0  0  0  0  0
  -21.1335  -25.8350   23.3807 C   0  0  0  0  0  0  0  0  0  0  0  0
  -20.2993  -24.0252   21.8651 C   0  0  0  0  0  0  0  0  0  0  0  0
  -18.9779  -26.1222   22.1458 C   0  0  0  0  0  0  0  0  0  0  0  0
  -21.7207  -26.5558   15.8880 C   0  0  0  0  0  0  0  0  0  0  0  0
  -29.5401  -27.4605   18.8722 C   0  0  0  0  0  0  0  0  0  1  0  0
  -21.1312  -26.1819   20.8223 C   0  0  1  0  0  0  0  0  0  0  0  0
  -20.1620  -25.1997   17.2916 C   0  0  2  0  0  0  0  0  0  0  0  0
  -20.4104  -25.5539   22.0484 C   0  0  0  0  0  0  0  0  0  0  0  0
  -28.0080  -14.1091   20.4132 N   0  0  0  0  0  0  0  0  0  0  0  0
  -29.1433  -14.3833   19.7482 N   0  0  0  0  0  0  0  0  0  0  0  0
  -29.5249  -23.9912   18.4508 N   0  0  0  0  0  0  0  0  0  0  0  0
  -22.6076  -28.1643   20.9425 N   0  0  0  0  0  0  0  0  0  0  0  0
  -29.8469  -17.9318   20.9715 N   0  0  0  0  0  0  0  0  0  0  0  0
  -30.5502  -13.6017   18.0104 N   0  0  0  0  0  0  0  0  0  0  0  0
  -27.2301  -10.5421   18.1186 N   0  0  0  0  0  0  0  0  0  0  0  0
  -28.7889  -19.3283   19.3926 N   0  0  0  0  0  0  0  0  0  0  0  0
  -23.3532  -30.9204   23.2107 N   0  0  0  0  0  0  0  0  0  0  0  0
  -20.4541  -25.9547   19.5501 N   0  0  0  0  0  0  0  0  0  0  0  0
  -20.9521  -25.2926   16.0315 N   0  3  0  0  0  0  0  0  0  0  0  0
  -29.1915  -11.1254   17.0837 O   0  0  0  0  0  0  0  0  0  0  0  0
  -23.2470  -28.6003   23.3790 O   0  0  0  0  0  0  0  0  0  0  0  0
  -20.2894  -28.3873   21.0548 O   0  0  0  0  0  0  0  0  0  0  0  0
  -22.2264  -24.8838   18.5065 O   0  0  0  0  0  0  0  0  0  0  0  0
  -30.4724  -20.1475   20.7625 O   0  0  0  0  0  0  0  0  0  0  0  0
  -22.8474  -10.5584   21.5576 O   0  0  0  0  0  0  0  0  0  0  0  0
  -28.5608  -27.0126   19.8085 O   0  0  0  0  0  0  0  0  0  1  0  0
  -22.8819   -5.0916   22.2763 F   0  0  0  0  0  0  0  0  0  0  0  0
  -22.2953   -9.4493   24.0290 F   0  0  0  0  0  0  0  0  0  0  0  0
  1  2  1  0  0  0  0
  1  5  2  0  0  0  0
  2  6  2  0  0  0  0
  3  8  2  0  0  0  0
  3 17  1  0  0  0  0
  4  9  1  0  0  0  0
  4 17  2  0  0  0  0
  5 20  1  0  0  0  0
  6 22  1  0  0  0  0
  7 10  2  0  0  0  0
  7 21  1  0  0  0  0
  8 27  1  0  0  0  0
  9 27  2  0  0  0  0
 10 28  1  0  0  0  0
 11 12  2  0  0  0  0
 11 29  1  0  0  0  0
 12 30  1  0  0  0  0
 13 23  1  0  0  0  0
 13 28  2  0  0  0  0
 14 24  2  0  0  0  0
 14 25  1  0  0  0  0
 15 25  2  0  0  0  0
 15 26  1  0  0  0  0
 16 30  2  0  0  0  0
 16 31  1  0  0  0  0
 17 32  1  0  0  0  0
 18 24  1  0  0  0  0
 18 26  2  0  0  0  0
 18 38  1  0  0  0  0
 19 32  1  0  0  0  0
 19 33  2  0  0  0  0
 19 40  1  0  0  0  0
 20 22  2  0  0  0  0
 20 45  1  0  0  0  0
 21 23  2  0  0  0  0
 21 46  1  0  0  0  0
 22 55  1  0  0  0  0
 23 47  1  0  0  0  0
 24 59  1  0  0  0  0
 25 71  1  0  0  0  0
 26 76  1  0  0  0  0
 27 85  1  0  0  0  0
 28 86  1  0  0  0  0
 29 31  2  0  0  0  0
 29 85  1  0  0  0  0
 30 87  1  0  0  0  0
 31 88  1  0  0  0  0
 32 69  2  0  0  0  0
 33 70  1  0  0  0  0
 33 74  1  0  0  0  0
 34 35  2  0  0  0  0
 34 71  1  0  0  0  0
 35 39  1  0  0  0  0
 35 56  1  0  0  0  0
 36 38  2  0  0  0  0
 37 39  2  0  0  0  0
 40 75  1  0  0  0  0
 40 80  2  0  0  0  0
 41 57  1  0  0  0  0
 41 77  1  0  0  0  0
 41 81  2  0  0  0  0
 42 66  1  0  0  0  0
 42 72  1  0  0  0  0
 42 82  2  0  0  0  0
 43 67  1  0  0  0  0
 43 78  1  0  0  0  0
 43 83  2  0  0  0  0
 44 73  1  0  0  0  0
 44 76  1  0  0  0  0
 44 84  2  0  0  0  0
 45 48  1  0  0  0  0
 46 57  1  0  0  0  0
 47 72  1  0  0  0  0
 48 50  1  0  0  0  0
 49 51  1  0  0  0  0
 49 52  1  0  0  0  0
 50 55  1  0  0  0  0
 51 58  1  0  0  0  0
 52 73  1  0  0  0  0
 53 56  1  0  0  0  0
 53 71  1  0  0  0  0
 54 58  1  0  0  0  0
 54 73  1  0  0  0  0
 55 77  1  0  0  0  0
 56 65  1  0  0  0  0
 57 72  1  0  0  0  0
 58 70  1  0  0  0  0
 60 67  1  0  0  0  0
 61 68  1  0  0  0  0
 62 68  1  0  0  0  0
 63 68  1  0  0  0  0
 64 79  1  0  0  0  0
 65 86  1  0  0  0  0
 66 68  1  0  0  0  0
 66 78  1  0  0  0  0
 67 79  1  0  0  0  0
 69 70  1  0  0  0  0
M  CHG  1  79   1
M  ISO  4  44 100  65 101  76 100  86 101
M  END
> <Batch ID>
0067

> <Smiles>
C=CC1=CN(c2cc(C)c(C=C)c([100NH:0][100C:0](=O)N3CCCC(n4nc(-c5ccc(Oc6ccc(F)cc6F)cc5)c(C(N)=O)c4N)C3)c2)CC1[101CH2:1][101O:1]c1ccc2c(c1)CN(C(=O)C(NC(=O)C(C)NC)C(C)(C)C)C(C(=O)NC1CCCc3ccccc31)C2

> <Shape>
0.352

> <Color>
0.072

> <Negative vol penalty>
0.000

$$$$

  -OEChem-04042323243D

 88 96  0     1  0  0  0  0  0999 V2000
  -15.5438  -26.9024   23.1971 C   0  0  0  0  0  0  0  0  0  0  0  0
  -15.8698  -25.6049   22.8153 C   0  0  0  0  0  0  0  0  0  0  0  0
  -29.1765  -23.0743   18.9879 C   0  0  0  0  0  0  0  0  0  0  0  0
  -29.2431  -21.5982   17.0764 C   0  0  0  0  0  0  0  0  0  0  0  0
  -16.5319  -27.8852   23.2367 C   0  0  0  0  0  0  0  0  0  0  0  0
  -17.1840  -25.2899   22.4717 C   0  0  0  0  0  0  0  0  0  0  0  0
  -20.0911  -19.9991   23.5026 C   0  0  0  0  0  0  0  0  0  0  0  0
  -24.6533  -11.7081   20.3095 C   0  0  0  0  0  0  0  0  0  0  0  0
  -24.1733  -13.0042   20.4977 C   0  0  0  0  0  0  0  0  0  0  0  0
  -29.4248  -24.1648   18.1544 C   0  0  0  0  0  0  0  0  0  0  0  0
  -29.4914  -22.6888   16.2429 C   0  0  0  0  0  0  0  0  0  0  0  0
  -20.3429  -18.8936   22.6912 C   0  0  0  0  0  0  0  0  0  0  0  0
  -27.6751  -26.1175   16.0193 C   0  0  0  0  0  0  0  0  0  0  0  0
  -26.9059  -27.2657   16.2077 C   0  0  0  0  0  0  0  0  0  0  0  0
  -26.4406  -13.8380   20.5373 C   0  0  0  0  0  0  0  0  0  0  0  0
  -22.5246  -19.7811   22.1695 C   0  0  0  0  0  0  0  0  0  0  0  0
  -28.9105  -28.5326   16.6703 C   0  0  0  0  0  0  0  0  0  0  0  0
  -29.0857  -21.7910   18.4488 C   0  0  0  0  0  0  0  0  0  0  0  0
  -26.9205  -12.5419   20.3492 C   0  0  0  0  0  0  0  0  0  0  0  0
  -27.5750  -20.1384   19.6713 C   0  0  0  0  0  0  0  0  0  0  0  0
  -17.8608  -27.5798   22.9028 C   0  0  0  0  0  0  0  0  0  0  0  0
  -21.0515  -21.0109   23.6451 C   0  0  0  0  0  0  0  0  0  0  0  0
  -18.1906  -26.2698   22.5056 C   0  0  0  0  0  0  0  0  0  0  0  0
  -22.2835  -20.8971   22.9853 C   0  0  0  0  0  0  0  0  0  0  0  0
  -26.0269  -11.4769   20.2353 C   0  0  0  0  0  0  0  0  0  0  0  0
  -25.0670  -14.0691   20.6115 C   0  0  0  0  0  0  0  0  0  0  0  0
  -29.5822  -23.9721   16.7819 C   0  0  0  0  0  0  0  0  0  0  0  0
  -21.5586  -18.7859   22.0222 C   0  0  0  0  0  0  0  0  0  0  0  0
  -29.0620  -26.1767   16.1565 C   0  0  0  0  0  0  0  0  0  0  0  0
  -27.5236  -28.4733   16.5332 C   0  0  0  0  0  0  0  0  0  0  0  0
  -29.6796  -27.3843   16.4819 C   0  0  0  0  0  0  0  0  0  0  0  0
  -28.8298  -20.6640   19.3094 C   0  0  0  0  0  0  0  0  0  0  0  0
  -27.8707  -19.0813   20.4968 C   0  0  0  0  0  0  0  0  0  0  0  0
  -28.3596  -12.3283   20.2746 C   0  0  0  0  0  0  0  0  0  0  0  0
  -26.2597  -20.5673   19.2948 C   0  0  0  0  0  0  0  0  0  0  0  0
  -21.1562  -24.1154   22.9704 C   0  0  0  0  0  0  0  0  0  0  0  0
  -24.0119  -23.9541   24.5005 C   0  0  0  0  0  0  0  0  0  0  0  0
  -23.2531  -15.7892   20.9033 C   0  0  0  0  0  0  0  0  0  0  0  0
  -26.6626  -22.0481   25.4946 C   0  0  0  0  0  0  0  0  0  0  0  0
  -30.8827  -14.5395   21.6992 C   0  0  0  0  0  0  0  0  0  0  0  0
  -18.8851  -28.6867   22.9149 C   0  0  0  0  0  0  0  0  0  0  0  0
  -20.7750  -22.1839   24.5452 C   0  0  0  0  0  0  0  0  0  0  0  0
  -23.3557  -21.9461   23.1211 C   0  0  0  0  0  0  0  0  0  0  0  0
  -20.3262  -28.1832   22.8970 C   0  0  0  0  0  0  0  0  0  0  0  0
  -32.2406  -17.6952   22.6342 C   0  0  0  0  0  0  0  0  0  0  0  0
  -20.4982  -27.0947   21.8423 C   0  0  0  0  0  0  0  0  0  0  0  0
  -31.3751  -18.7045   21.8778 C   0  0  0  0  0  0  0  0  0  0  0  0
  -32.4797  -16.4297   21.8136 C   0  0  0  0  0  0  0  0  0  0  0  0
  -30.3906  -16.7859   20.5555 C   0  0  0  0  0  0  0  0  0  0  0  0
  -19.6097  -25.8833   22.1497 C   0  0  1  0  0  0  0  0  0  0  0  0
  -21.6232  -23.4069   24.2104 C   0  0  1  0  0  0  0  0  0  0  0  0
  -30.0755  -18.0554   21.3650 C   0  0  2  0  0  0  0  0  0  0  0  0
  -26.5140  -10.0790   20.0334 C   0  0  0  0  0  0  0  0  0  0  0  0
  -29.1879  -13.2031   24.0036 C   0  0  0  0  0  0  0  0  0  0  0  0
  -28.8610  -22.2041   26.6947 C   0  0  0  0  0  0  0  0  0  0  0  0
  -25.2651  -25.2385   22.0328 C   0  0  0  0  0  0  0  0  0  0  0  0
  -27.5061  -24.5062   22.8754 C   0  0  0  0  0  0  0  0  0  0  0  0
  -26.1332  -26.1026   24.2132 C   0  0  0  0  0  0  0  0  0  0  0  0
  -30.4533  -11.6723   19.3484 C   0  0  0  0  0  0  0  0  0  0  0  0
  -25.7805  -20.1617   27.5975 C   0  0  0  0  0  0  0  0  0  0  0  0
  -23.1657  -17.2902   21.1079 C   0  0  0  0  0  0  0  0  0  1  0  0
  -28.3798  -12.7106   22.8117 C   0  0  0  0  0  0  0  0  0  0  0  0
  -29.1787  -12.7454   21.5073 C   0  0  2  0  0  0  0  0  0  0  0  0
  -25.4353  -23.6761   24.0812 C   0  0  1  0  0  0  0  0  0  0  0  0
  -27.3717  -21.9280   26.8314 C   0  0  2  0  0  0  0  0  0  0  0  0
  -26.0642  -24.8619   23.2963 C   0  0  0  0  0  0  0  0  0  0  0  0
  -29.8469  -19.9959   19.8600 N   0  0  0  0  0  0  0  0  0  0  0  0
  -29.0087  -11.8197   19.2648 N   0  0  0  0  0  0  0  0  0  0  0  0
  -29.2316  -19.0397   20.5764 N   0  0  0  0  0  0  0  0  0  0  0  0
  -23.0354  -23.0770   24.0075 N   0  0  0  0  0  0  0  0  0  0  0  0
  -31.2076  -15.8630   21.3590 N   0  0  0  0  0  0  0  0  0  0  0  0
  -27.0967  -18.1925   21.1553 N   0  0  0  0  0  0  0  0  0  0  0  0
  -26.1360  -21.6707   18.4394 N   0  0  0  0  0  0  0  0  0  0  0  0
  -24.5796  -15.3836   20.8044 N   0  0  0  0  0  0  0  0  0  0  0  0
  -20.1954  -25.0810   23.2022 N   0  0  0  0  0  0  0  0  0  0  0  0
  -26.1560  -23.3153   25.2972 N   0  0  0  0  0  0  0  0  0  0  0  0
  -29.6557  -14.0827   21.2338 N   0  0  0  0  0  0  0  0  0  0  0  0
  -27.1972  -20.5570   27.3890 N   0  3  0  0  0  0  0  0  0  0  0  0
  -25.2243  -19.9994   19.7179 O   0  0  0  0  0  0  0  0  0  0  0  0
  -21.6334  -23.8096   21.8839 O   0  0  0  0  0  0  0  0  0  0  0  0
  -23.7762  -24.9097   25.2440 O   0  0  0  0  0  0  0  0  0  0  0  0
  -22.2475  -15.0894   20.8427 O   0  0  0  0  0  0  0  0  0  0  0  0
  -26.5707  -21.1126   24.7029 O   0  0  0  0  0  0  0  0  0  0  0  0
  -31.6282  -13.8201   22.3728 O   0  0  0  0  0  0  0  0  0  0  0  0
  -29.8243  -25.0361   15.9683 O   0  0  0  0  0  0  0  0  0  0  0  0
  -21.8067  -17.7082   21.2292 O   0  0  0  0  0  0  0  0  0  1  0  0
  -26.7850  -29.5762   16.7126 F   0  0  0  0  0  0  0  0  0  0  0  0
  -31.0117  -27.4477   16.6138 F   0  0  0  0  0  0  0  0  0  0  0  0
  1  2  1  0  0  0  0
  1  5  2  0  0  0  0
  2  6  2  0  0  0  0
  3 10  2  0  0  0  0
  3 18  1  0  0  0  0
  4 11  1  0  0  0  0
  4 18  2  0  0  0  0
  5 21  1  0  0  0  0
  6 23  1  0  0  0  0
  7 12  2  0  0  0  0
  7 22  1  0  0  0  0
  8  9  2  0  0  0  0
  8 25  1  0  0  0  0
  9 26  1  0  0  0  0
 10 27  1  0  0  0  0
 11 27  2  0  0  0  0
 12 28  1  0  0  0  0
 13 14  2  0  0  0  0
 13 29  1  0  0  0  0
 14 30  1  0  0  0  0
 15 19  1  0  0  0  0
 15 26  2  0  0  0  0
 16 24  1  0  0  0  0
 16 28  2  0  0  0  0
 17 30  2  0  0  0  0
 17 31  1  0  0  0  0
 18 32  1  0  0  0  0
 19 25  2  0  0  0  0
 19 34  1  0  0  0  0
 20 32  1  0  0  0  0
 20 33  2  0  0  0  0
 20 35  1  0  0  0  0
 21 23  2  0  0  0  0
 21 41  1  0  0  0  0
 22 24  2  0  0  0  0
 22 42  1  0  0  0  0
 23 50  1  0  0  0  0
 24 43  1  0  0  0  0
 25 53  1  0  0  0  0
 26 74  1  0  0  0  0
 27 85  1  0  0  0  0
 28 86  1  0  0  0  0
 29 31  2  0  0  0  0
 29 85  1  0  0  0  0
 30 87  1  0  0  0  0
 31 88  1  0  0  0  0
 32 67  2  0  0  0  0
 33 69  1  0  0  0  0
 33 72  1  0  0  0  0
 34 63  1  0  0  0  0
 34 68  2  0  0  0  0
 35 73  1  0  0  0  0
 35 79  2  0  0  0  0
 36 51  1  0  0  0  0
 36 75  1  0  0  0  0
 36 80  2  0  0  0  0
 37 64  1  0  0  0  0
 37 70  1  0  0  0  0
 37 81  2  0  0  0  0
 38 61  1  0  0  0  0
 38 74  1  0  0  0  0
 38 82  2  0  0  0  0
 39 65  1  0  0  0  0
 39 76  1  0  0  0  0
 39 83  2  0  0  0  0
 40 71  1  0  0  0  0
 40 77  1  0  0  0  0
 40 84  2  0  0  0  0
 41 44  1  0  0  0  0
 42 51  1  0  0  0  0
 43 70  1  0  0  0  0
 44 46  1  0  0  0  0
 45 47  1  0  0  0  0
 45 48  1  0  0  0  0
 46 50  1  0  0  0  0
 47 52  1  0  0  0  0
 48 71  1  0  0  0  0
 49 52  1  0  0  0  0
 49 71  1  0  0  0  0
 50 75  1  0  0  0  0
 51 70  1  0  0  0  0
 52 69  1  0  0  0  0
 54 62  1  0  0  0  0
 55 65  1  0  0  0  0
 56 66  1  0  0  0  0
 57 66  1  0  0  0  0
 58 66  1  0  0  0  0
 59 68  1  0  0  0  0
 60 78  1  0  0  0  0
 61 86  1  0  0  0  0
 62 63  1  0  0  0  0
 63 77  1  0  0  0  0
 64 66  1  0  0  0  0
 64 76  1  0  0  0  0
 65 78  1  0  0  0  0
 67 69  1  0  0  0  0
M  CHG  1  78   1
M  ISO  4  40 100  61 101  77 100  86 101
M  END
> <Batch ID>
0067

> <Smiles>
CCC([100NH:0][100C:0](=O)N1CCCC(n2nc(-c3ccc(Oc4ccc(F)cc4F)cc3)c(C(N)=O)c2N)C1)C(=NC)c1cc(NC(=O)[101CH2:1][101O:1]c2ccc3c(c2)CN(C(=O)C(NC(=O)C(C)NC)C(C)(C)C)C(C(=O)NC2CCCc4ccccc42)C3)ccc1C

> <Shape>
0.203

> <Color>
0.064

> <Negative vol penalty>
0.000

$$$$

  -OEChem-04042323243D

 86 94  0     1  0  0  0  0  0999 V2000
  -26.0488  -37.7850   26.3920 C   0  0  0  0  0  0  0  0  0  0  0  0
  -26.1940  -36.5282   26.9707 C   0  0  0  0  0  0  0  0  0  0  0  0
  -26.8943  -13.6085   20.0258 C   0  0  0  0  0  0  0  0  0  0  0  0
  -24.6163  -14.1843   20.5879 C   0  0  0  0  0  0  0  0  0  0  0  0
  -25.3136  -37.9290   25.2162 C   0  0  0  0  0  0  0  0  0  0  0  0
  -25.6032  -35.4148   26.3743 C   0  0  0  0  0  0  0  0  0  0  0  0
  -27.8125  -29.7046   26.2381 C   0  0  0  0  0  0  0  0  0  0  0  0
  -26.7238  -12.3567   20.6170 C   0  0  0  0  0  0  0  0  0  0  0  0
  -24.4457  -12.9324   21.1790 C   0  0  0  0  0  0  0  0  0  0  0  0
  -27.5411  -28.5752   27.0092 C   0  0  0  0  0  0  0  0  0  0  0  0
  -23.8671   -9.7602   20.1676 C   0  0  0  0  0  0  0  0  0  0  0  0
  -22.6937   -9.0634   19.8792 C   0  0  0  0  0  0  0  0  0  0  0  0
  -25.9779  -27.8160   25.3362 C   0  0  0  0  0  0  0  0  0  0  0  0
  -24.2791  -23.0355   23.9531 C   0  0  0  0  0  0  0  0  0  0  0  0
  -22.5639  -21.7132   22.8825 C   0  0  0  0  0  0  0  0  0  0  0  0
  -22.1213   -9.0557   22.2264 C   0  0  0  0  0  0  0  0  0  0  0  0
  -25.8406  -14.5223   20.0113 C   0  0  0  0  0  0  0  0  0  0  0  0
  -25.7726  -16.1629   18.0590 C   0  0  0  0  0  0  0  0  0  0  0  0
  -24.7216  -36.8153   24.5998 C   0  0  0  0  0  0  0  0  0  0  0  0
  -27.1595  -29.9039   25.0133 C   0  0  0  0  0  0  0  0  0  0  0  0
  -24.8583  -35.5442   25.1898 C   0  0  0  0  0  0  0  0  0  0  0  0
  -26.2447  -28.9475   24.5502 C   0  0  0  0  0  0  0  0  0  0  0  0
  -21.9988  -23.1462   24.7437 C   0  0  0  0  0  0  0  0  0  0  0  0
  -23.8957  -22.1171   22.9759 C   0  0  0  0  0  0  0  0  0  0  0  0
  -23.3306  -23.5501   24.8371 C   0  0  0  0  0  0  0  0  0  0  0  0
  -25.4995  -12.0186   21.1935 C   0  0  0  0  0  0  0  0  0  0  0  0
  -26.6216  -27.6321   26.5597 C   0  0  0  0  0  0  0  0  0  0  0  0
  -24.1677  -10.1046   21.4855 C   0  0  0  0  0  0  0  0  0  0  0  0
  -21.8208   -8.7112   20.9085 C   0  0  0  0  0  0  0  0  0  0  0  0
  -21.6154  -22.2278   23.7664 C   0  0  0  0  0  0  0  0  0  0  0  0
  -23.2948   -9.7524   22.5149 C   0  0  0  0  0  0  0  0  0  0  0  0
  -26.0163  -15.8158   19.4014 C   0  0  0  0  0  0  0  0  0  0  0  0
  -26.0909  -17.4970   17.9860 C   0  0  0  0  0  0  0  0  0  0  0  0
  -25.3007  -15.3518   16.9749 C   0  0  0  0  0  0  0  0  0  0  0  0
  -25.1927  -32.1155   23.8538 C   0  0  0  0  0  0  0  0  0  0  0  0
  -25.5698  -30.4476   21.0973 C   0  0  0  0  0  0  0  0  0  0  0  0
  -26.3410  -27.4872   19.5847 C   0  0  0  0  0  0  0  0  0  0  0  0
  -25.0179  -24.9838   26.0346 C   0  0  0  0  0  0  0  0  0  0  0  0
  -26.2213  -21.8899   22.0345 C   0  0  0  0  0  0  0  0  0  0  0  0
  -23.8965  -37.0276   23.3553 C   0  0  0  0  0  0  0  0  0  0  0  0
  -27.4832  -31.1141   24.1808 C   0  0  0  0  0  0  0  0  0  0  0  0
  -25.5318  -29.1046   23.2328 C   0  0  0  0  0  0  0  0  0  0  0  0
  -23.6166  -35.7409   22.5832 C   0  0  0  0  0  0  0  0  0  0  0  0
  -28.9286  -20.7855   20.0027 C   0  0  0  0  0  0  0  0  0  0  0  0
  -23.1624  -34.6367   23.5327 C   0  0  0  0  0  0  0  0  0  0  0  0
  -28.4643  -19.4201   19.4909 C   0  0  0  0  0  0  0  0  0  0  0  0
  -28.4779  -21.0354   21.4408 C   0  0  0  0  0  0  0  0  0  0  0  0
  -26.5755  -19.4941   21.1684 C   0  0  0  0  0  0  0  0  0  0  0  0
  -24.2531  -34.3087   24.5594 C   0  0  1  0  0  0  0  0  0  0  0  0
  -26.3782  -31.4720   23.1918 C   0  0  1  0  0  0  0  0  0  0  0  0
  -26.9501  -19.2243   19.7019 C   0  0  2  0  0  0  0  0  0  0  0  0
  -20.9637  -23.6840   25.6780 C   0  0  0  0  0  0  0  0  0  0  0  0
  -26.5260  -26.4214   17.3203 C   0  0  0  0  0  0  0  0  0  0  0  0
  -25.5624  -24.1446   28.9154 C   0  0  0  0  0  0  0  0  0  0  0  0
  -24.6341  -26.3404   29.6679 C   0  0  0  0  0  0  0  0  0  0  0  0
  -22.5280  -30.2722   20.9340 C   0  0  0  0  0  0  0  0  0  0  0  0
  -22.7938  -28.4437   19.2445 C   0  0  0  0  0  0  0  0  0  0  0  0
  -23.6651  -30.7291   18.7540 C   0  0  0  0  0  0  0  0  0  0  0  0
  -29.2199  -26.9137   19.9617 C   0  0  0  0  0  0  0  0  0  0  0  0
  -24.8627  -29.2830   20.4471 C   0  0  1  0  0  0  0  0  0  0  0  0
  -27.2652  -27.1587   18.4261 C   0  0  2  0  0  0  0  0  0  0  0  0
  -25.0453  -25.9714   27.2026 C   0  0  1  0  0  0  0  0  0  1  0  0
  -24.6400  -25.3083   28.5355 C   0  0  0  0  0  0  0  0  0  0  0  0
  -23.4742  -29.6797   19.8707 C   0  0  0  0  0  0  0  0  0  0  0  0
  -26.4557  -16.8463   20.1288 N   0  0  0  0  0  0  0  0  0  0  0  0
  -26.4907  -17.8540   19.2402 N   0  0  0  0  0  0  0  0  0  0  0  0
  -25.8776  -30.3078   22.4580 N   0  0  0  0  0  0  0  0  0  0  0  0
  -27.0323  -20.8356   21.5640 N   0  0  0  0  0  0  0  0  0  0  0  0
  -26.0651  -18.3878   16.9720 N   0  0  0  0  0  0  0  0  0  0  0  0
  -25.0214  -14.0010   17.2235 N   0  0  0  0  0  0  0  0  0  0  0  0
  -23.7390  -24.4806   25.8219 N   0  0  0  0  0  0  0  0  0  0  0  0
  -24.8592  -21.5943   22.0781 N   0  0  0  0  0  0  0  0  0  0  0  0
  -25.2840  -33.4904   23.9576 N   0  0  0  0  0  0  0  0  0  0  0  0
  -25.7889  -28.7442   19.4571 N   0  0  0  0  0  0  0  0  0  0  0  0
  -28.3929  -26.3018   18.8899 N   0  3  0  0  0  0  0  0  0  0  0  0
  -25.1473  -15.8074   15.8163 O   0  0  0  0  0  0  0  0  0  0  0  0
  -24.2634  -31.4166   24.2404 O   0  0  0  0  0  0  0  0  0  0  0  0
  -25.8455  -31.4417   20.4210 O   0  0  0  0  0  0  0  0  0  0  0  0
  -26.1271  -26.7052   20.5085 O   0  0  0  0  0  0  0  0  0  0  0  0
  -26.0338  -24.7276   25.3947 O   0  0  0  0  0  0  0  0  0  0  0  0
  -26.6969  -22.9843   22.3480 O   0  0  0  0  0  0  0  0  0  0  0  0
  -25.3327  -10.7971   21.7702 O   0  0  0  0  0  0  0  0  0  0  0  0
  -26.3543  -26.5292   27.3106 O   0  0  0  0  0  0  0  0  0  1  0  0
  -20.6932   -8.0435   20.6312 F   0  0  0  0  0  0  0  0  0  0  0  0
  -20.3378  -21.8343   23.6672 F   0  0  0  0  0  0  0  0  0  0  0  0
  -23.5775  -10.0816   23.7827 F   0  0  0  0  0  0  0  0  0  0  0  0
  1  2  1  0  0  0  0
  1  5  2  0  0  0  0
  2  6  2  0  0  0  0
  3  8  2  0  0  0  0
  3 17  1  0  0  0  0
  4  9  1  0  0  0  0
  4 17  2  0  0  0  0
  5 19  1  0  0  0  0
  6 21  1  0  0  0  0
  7 10  2  0  0  0  0
  7 20  1  0  0  0  0
  8 26  1  0  0  0  0
  9 26  2  0  0  0  0
 10 27  1  0  0  0  0
 11 12  2  0  0  0  0
 11 28  1  0  0  0  0
 12 29  1  0  0  0  0
 13 22  1  0  0  0  0
 13 27  2  0  0  0  0
 14 24  2  0  0  0  0
 14 25  1  0  0  0  0
 15 24  1  0  0  0  0
 15 30  2  0  0  0  0
 16 29  2  0  0  0  0
 16 31  1  0  0  0  0
 17 32  1  0  0  0  0
 18 32  1  0  0  0  0
 18 33  2  0  0  0  0
 18 34  1  0  0  0  0
 19 21  2  0  0  0  0
 19 40  1  0  0  0  0
 20 22  2  0  0  0  0
 20 41  1  0  0  0  0
 21 49  1  0  0  0  0
 22 42  1  0  0  0  0
 23 25  2  0  0  0  0
 23 30  1  0  0  0  0
 23 52  1  0  0  0  0
 24 72  1  0  0  0  0
 25 71  1  0  0  0  0
 26 82  1  0  0  0  0
 27 83  1  0  0  0  0
 28 31  2  0  0  0  0
 28 82  1  0  0  0  0
 29 84  1  0  0  0  0
 30 85  1  0  0  0  0
 31 86  1  0  0  0  0
 32 65  2  0  0  0  0
 33 66  1  0  0  0  0
 33 69  1  0  0  0  0
 34 70  1  0  0  0  0
 34 76  2  0  0  0  0
 35 50  1  0  0  0  0
 35 73  1  0  0  0  0
 35 77  2  0  0  0  0
 36 60  1  0  0  0  0
 36 67  1  0  0  0  0
 36 78  2  0  0  0  0
 37 61  1  0  0  0  0
 37 74  1  0  0  0  0
 37 79  2  0  0  0  0
 38 62  1  0  0  0  0
 38 71  1  0  0  0  0
 38 80  2  0  0  0  0
 39 68  1  0  0  0  0
 39 72  1  0  0  0  0
 39 81  2  0  0  0  0
 40 43  1  0  0  0  0
 41 50  1  0  0  0  0
 42 67  1  0  0  0  0
 43 45  1  0  0  0  0
 44 46  1  0  0  0  0
 44 47  1  0  0  0  0
 45 49  1  0  0  0  0
 46 51  1  0  0  0  0
 47 68  1  0  0  0  0
 48 51  1  0  0  0  0
 48 68  1  0  0  0  0
 49 73  1  0  0  0  0
 50 67  1  0  0  0  0
 51 66  1  0  0  0  0
 53 61  1  0  0  0  0
 54 63  1  0  0  0  0
 55 63  1  0  0  0  0
 56 64  1  0  0  0  0
 57 64  1  0  0  0  0
 58 64  1  0  0  0  0
 59 75  1  0  0  0  0
 60 64  1  0  0  0  0
 60 74  1  0  0  0  0
 61 75  1  0  0  0  0
 62 63  1  0  0  0  0
 62 83  1  0  0  0  0
 65 66  1  0  0  0  0
M  CHG  1  75   1
M  ISO  4  39 100  62 101  72 100  83 101
M  END
> <Batch ID>
0067

> <Smiles>
CNC(C)C(=O)NC(C(=O)N1Cc2cc([101O:1][101CH:1](C(=O)Nc3cc([100NH:0][100C:0](=O)N4CCCC(n5nc(-c6ccc(Oc7ccc(F)cc7F)cc6)c(C(N)=O)c5N)C4)cc(F)c3C)C(C)C)ccc2CC1C(=O)NC1CCCc2ccccc21)C(C)(C)C

> <Shape>
0.247

> <Color>
0.048

> <Negative vol penalty>
0.000

$$$$

  -OEChem-04042323243D

 83 91  0     1  0  0  0  0  0999 V2000
  -25.9357  -17.2545   12.2609 C   0  0  0  0  0  0  0  0  0  0  0  0
  -26.8854  -16.9890   13.2422 C   0  0  0  0  0  0  0  0  0  0  0  0
  -26.2079  -28.0726   18.9331 C   0  0  0  0  0  0  0  0  0  0  0  0
  -26.4250  -27.8371   21.3277 C   0  0  0  0  0  0  0  0  0  0  0  0
  -24.6300  -17.5797   12.6259 C   0  0  0  0  0  0  0  0  0  0  0  0
  -26.5302  -17.0497   14.5893 C   0  0  0  0  0  0  0  0  0  0  0  0
  -28.6738  -13.5356   19.1238 C   0  0  0  0  0  0  0  0  0  0  0  0
  -28.5698  -20.6020   24.6844 C   0  0  0  0  0  0  0  0  0  0  0  0
  -29.2778  -20.0584   25.7562 C   0  0  0  0  0  0  0  0  0  0  0  0
  -25.2463  -29.0659   19.1179 C   0  0  0  0  0  0  0  0  0  0  0  0
  -25.4633  -28.8304   21.5126 C   0  0  0  0  0  0  0  0  0  0  0  0
  -29.6610  -13.7446   20.0859 C   0  0  0  0  0  0  0  0  0  0  0  0
  -22.0945  -29.0898   21.3924 C   0  0  0  0  0  0  0  0  0  0  0  0
  -21.0974  -28.8582   22.3399 C   0  0  0  0  0  0  0  0  0  0  0  0
  -29.1688  -18.6981   23.3230 C   0  0  0  0  0  0  0  0  0  0  0  0
  -27.9700  -14.4323   21.6628 C   0  0  0  0  0  0  0  0  0  0  0  0
  -21.8050  -30.8176   23.5634 C   0  0  0  0  0  0  0  0  0  0  0  0
  -26.7972  -27.4581   20.0380 C   0  0  0  0  0  0  0  0  0  0  0  0
  -29.8769  -18.1545   24.3948 C   0  0  0  0  0  0  0  0  0  0  0  0
  -29.1830  -26.6058   19.7388 C   0  0  0  0  0  0  0  0  0  0  0  0
  -24.2561  -17.6349   13.9779 C   0  0  0  0  0  0  0  0  0  0  0  0
  -27.3262  -13.7843   19.4211 C   0  0  0  0  0  0  0  0  0  0  0  0
  -25.2186  -17.3773   14.9727 C   0  0  0  0  0  0  0  0  0  0  0  0
  -26.9674  -14.2233   20.7036 C   0  0  0  0  0  0  0  0  0  0  0  0
  -28.5152  -19.9218   23.4677 C   0  0  0  0  0  0  0  0  0  0  0  0
  -29.9314  -18.8347   25.6114 C   0  0  0  0  0  0  0  0  0  0  0  0
  -24.8740  -29.4448   20.4077 C   0  0  0  0  0  0  0  0  0  0  0  0
  -29.3095  -14.1958   21.3547 C   0  0  0  0  0  0  0  0  0  0  0  0
  -22.9469  -30.1852   21.5304 C   0  0  0  0  0  0  0  0  0  0  0  0
  -20.9527  -29.7221   23.4254 C   0  0  0  0  0  0  0  0  0  0  0  0
  -22.8022  -31.0491   22.6159 C   0  0  0  0  0  0  0  0  0  0  0  0
  -27.7903  -26.4316   19.8477 C   0  0  0  0  0  0  0  0  0  0  0  0
  -29.6758  -25.3349   19.5699 C   0  0  0  0  0  0  0  0  0  0  0  0
  -30.5611  -16.8490   24.2085 C   0  0  0  0  0  0  0  0  0  0  0  0
  -29.9615  -27.8088   19.7861 C   0  0  0  0  0  0  0  0  0  0  0  0
  -25.1091  -15.7643   18.2953 C   0  0  0  0  0  0  0  0  0  0  0  0
  -23.1669  -14.1015   20.2916 C   0  0  0  0  0  0  0  0  0  0  0  0
  -22.8588  -12.1530   23.0765 C   0  0  0  0  0  0  0  0  0  0  0  0
  -27.6415  -19.9303   21.1049 C   0  0  0  0  0  0  0  0  0  0  0  0
  -22.8446  -18.0372   14.3249 C   0  0  0  0  0  0  0  0  0  0  0  0
  -26.2706  -13.5284   18.3806 C   0  0  0  0  0  0  0  0  0  0  0  0
  -25.5327  -14.4856   21.0795 C   0  0  0  0  0  0  0  0  0  0  0  0
  -22.4556  -17.7135   15.7651 C   0  0  0  0  0  0  0  0  0  0  0  0
  -28.4547  -21.0463   17.8231 C   0  0  0  0  0  0  0  0  0  0  0  0
  -23.5551  -18.1532   16.7267 C   0  0  0  0  0  0  0  0  0  0  0  0
  -28.5094  -22.5695   17.9613 C   0  0  0  0  0  0  0  0  0  0  0  0
  -27.3536  -20.4374   18.6894 C   0  0  0  0  0  0  0  0  0  0  0  0
  -27.4478  -22.3462   20.2440 C   0  0  0  0  0  0  0  0  0  0  0  0
  -24.8655  -17.4087   16.4440 C   0  0  1  0  0  0  0  0  0  0  0  0
  -24.9823  -14.3056   18.6327 C   0  0  1  0  0  0  0  0  0  0  0  0
  -28.5840  -22.9989   19.4397 C   0  0  2  0  0  0  0  0  0  0  0  0
  -21.1407  -10.9783   24.4785 C   0  0  0  0  0  0  0  0  0  0  0  0
  -22.3308  -16.7745   21.5022 C   0  0  0  0  0  0  0  0  0  0  0  0
  -21.3933  -15.5180   23.4543 C   0  0  0  0  0  0  0  0  0  0  0  0
  -20.4597  -15.1486   21.1707 C   0  0  0  0  0  0  0  0  0  0  0  0
  -24.0795   -9.5065   22.5619 C   0  0  0  0  0  0  0  0  0  0  0  0
  -32.2623  -15.6065   22.8979 C   0  0  0  0  0  0  0  0  0  0  0  0
  -31.5644  -14.7842   21.8294 C   0  0  0  0  0  0  0  0  0  1  0  0
  -22.7494  -14.2376   21.7360 C   0  0  1  0  0  0  0  0  0  0  0  0
  -22.1154  -10.8516   23.3181 C   0  0  2  0  0  0  0  0  0  0  0  0
  -21.7606  -15.4167   21.9584 C   0  0  0  0  0  0  0  0  0  0  0  0
  -27.4220  -25.1510   19.7556 N   0  0  0  0  0  0  0  0  0  0  0  0
  -28.5906  -24.5090   19.5869 N   0  0  0  0  0  0  0  0  0  0  0  0
  -24.5378  -14.2266   20.0256 N   0  0  0  0  0  0  0  0  0  0  0  0
  -27.4906  -20.8850   20.0771 N   0  0  0  0  0  0  0  0  0  0  0  0
  -30.6436  -18.3019   26.7090 N   0  0  0  0  0  0  0  0  0  0  0  0
  -30.9272  -24.8546   19.4099 N   0  0  0  0  0  0  0  0  0  0  0  0
  -29.2957  -29.0290   19.9657 N   0  0  0  0  0  0  0  0  0  0  0  0
  -27.7957  -20.4747   22.3795 N   0  0  0  0  0  0  0  0  0  0  0  0
  -31.5304  -16.8041   23.2143 N   0  0  0  0  0  0  0  0  0  0  0  0
  -24.8097  -16.0658   16.9804 N   0  0  0  0  0  0  0  0  0  0  0  0
  -22.2257  -12.9354   22.1339 N   0  0  0  0  0  0  0  0  0  0  0  0
  -23.0766   -9.7561   23.6292 N   0  3  0  0  0  0  0  0  0  0  0  0
  -30.2325  -15.8943   24.9077 O   0  0  0  0  0  0  0  0  0  0  0  0
  -31.2092  -27.8036   19.6560 O   0  0  0  0  0  0  0  0  0  0  0  0
  -25.4516  -16.5578   19.1641 O   0  0  0  0  0  0  0  0  0  0  0  0
  -22.3092  -13.8848   19.4320 O   0  0  0  0  0  0  0  0  0  0  0  0
  -23.8952  -12.4478   23.6676 O   0  0  0  0  0  0  0  0  0  0  0  0
  -27.6617  -18.7197   20.8683 O   0  0  0  0  0  0  0  0  0  0  0  0
  -23.9358  -30.4142   20.5884 O   0  0  0  0  0  0  0  0  0  0  0  0
  -30.2711  -14.4012   22.2954 O   0  0  0  0  0  0  0  0  0  1  0  0
  -19.9941  -29.5005   24.3344 F   0  0  0  0  0  0  0  0  0  0  0  0
  -23.6173  -32.1039   22.7532 F   0  0  0  0  0  0  0  0  0  0  0  0
  1  2  1  0  0  0  0
  1  5  2  0  0  0  0
  2  6  2  0  0  0  0
  3 10  2  0  0  0  0
  3 18  1  0  0  0  0
  4 11  1  0  0  0  0
  4 18  2  0  0  0  0
  5 21  1  0  0  0  0
  6 23  1  0  0  0  0
  7 12  2  0  0  0  0
  7 22  1  0  0  0  0
  8  9  2  0  0  0  0
  8 25  1  0  0  0  0
  9 26  1  0  0  0  0
 10 27  1  0  0  0  0
 11 27  2  0  0  0  0
 12 28  1  0  0  0  0
 13 14  2  0  0  0  0
 13 29  1  0  0  0  0
 14 30  1  0  0  0  0
 15 19  1  0  0  0  0
 15 25  2  0  0  0  0
 16 24  1  0  0  0  0
 16 28  2  0  0  0  0
 17 30  2  0  0  0  0
 17 31  1  0  0  0  0
 18 32  1  0  0  0  0
 19 26  2  0  0  0  0
 19 34  1  0  0  0  0
 20 32  1  0  0  0  0
 20 33  2  0  0  0  0
 20 35  1  0  0  0  0
 21 23  2  0  0  0  0
 21 40  1  0  0  0  0
 22 24  2  0  0  0  0
 22 41  1  0  0  0  0
 23 49  1  0  0  0  0
 24 42  1  0  0  0  0
 25 69  1  0  0  0  0
 26 66  1  0  0  0  0
 27 80  1  0  0  0  0
 28 81  1  0  0  0  0
 29 31  2  0  0  0  0
 29 80  1  0  0  0  0
 30 82  1  0  0  0  0
 31 83  1  0  0  0  0
 32 62  2  0  0  0  0
 33 63  1  0  0  0  0
 33 67  1  0  0  0  0
 34 70  1  0  0  0  0
 34 74  2  0  0  0  0
 35 68  1  0  0  0  0
 35 75  2  0  0  0  0
 36 50  1  0  0  0  0
 36 71  1  0  0  0  0
 36 76  2  0  0  0  0
 37 59  1  0  0  0  0
 37 64  1  0  0  0  0
 37 77  2  0  0  0  0
 38 60  1  0  0  0  0
 38 72  1  0  0  0  0
 38 78  2  0  0  0  0
 39 65  1  0  0  0  0
 39 69  1  0  0  0  0
 39 79  2  0  0  0  0
 40 43  1  0  0  0  0
 41 50  1  0  0  0  0
 42 64  1  0  0  0  0
 43 45  1  0  0  0  0
 44 46  1  0  0  0  0
 44 47  1  0  0  0  0
 45 49  1  0  0  0  0
 46 51  1  0  0  0  0
 47 65  1  0  0  0  0
 48 51  1  0  0  0  0
 48 65  1  0  0  0  0
 49 71  1  0  0  0  0
 50 64  1  0  0  0  0
 51 63  1  0  0  0  0
 52 60  1  0  0  0  0
 53 61  1  0  0  0  0
 54 61  1  0  0  0  0
 55 61  1  0  0  0  0
 56 73  1  0  0  0  0
 57 58  1  0  0  0  0
 57 70  1  0  0  0  0
 58 81  1  0  0  0  0
 59 61  1  0  0  0  0
 59 72  1  0  0  0  0
 60 73  1  0  0  0  0
 62 63  1  0  0  0  0
M  CHG  1  73   1
M  ISO  4  39 100  58 101  69 100  81 101
M  END
> <Batch ID>
0067

> <Smiles>
CNC(C)C(=O)NC(C(=O)N1Cc2cc([101O:1][101CH2:1]CNC(=O)c3cc([100NH:0][100C:0](=O)N4CCCC(n5nc(-c6ccc(Oc7ccc(F)cc7F)cc6)c(C(N)=O)c5N)C4)ccc3N)ccc2CC1C(=O)NC1CCCc2ccccc21)C(C)(C)C

> <Shape>
0.233

> <Color>
0.054

> <Negative vol penalty>
0.000

$$$$

  -OEChem-04042323243D

 84 92  0     1  0  0  0  0  0999 V2000
  -22.2009  -18.0881   38.3946 C   0  0  0  0  0  0  0  0  0  0  0  0
  -22.7271  -18.7567   37.2939 C   0  0  0  0  0  0  0  0  0  0  0  0
  -23.0752   -9.8684   19.9402 C   0  0  0  0  0  0  0  0  0  0  0  0
  -23.8345   -9.8745   22.2338 C   0  0  0  0  0  0  0  0  0  0  0  0
  -22.6346  -16.7983   38.6981 C   0  0  0  0  0  0  0  0  0  0  0  0
  -23.6882  -18.1362   36.4967 C   0  0  0  0  0  0  0  0  0  0  0  0
  -24.3793  -18.7162   30.4393 C   0  0  0  0  0  0  0  0  0  0  0  0
  -31.8676  -17.3434   21.5637 C   0  0  0  0  0  0  0  0  0  0  0  0
  -22.3309   -8.7155   20.1896 C   0  0  0  0  0  0  0  0  0  0  0  0
  -23.0901   -8.7215   22.4833 C   0  0  0  0  0  0  0  0  0  0  0  0
  -25.2357  -19.4960   29.6633 C   0  0  0  0  0  0  0  0  0  0  0  0
  -19.8615   -7.9247   23.0847 C   0  0  0  0  0  0  0  0  0  0  0  0
  -32.3650  -18.5664   22.0136 C   0  0  0  0  0  0  0  0  0  0  0  0
  -19.1043   -7.8847   24.2554 C   0  0  0  0  0  0  0  0  0  0  0  0
  -29.8030  -17.7458   22.7521 C   0  0  0  0  0  0  0  0  0  0  0  0
  -26.7536  -17.6305   29.4748 C   0  0  0  0  0  0  0  0  0  0  0  0
  -20.3448   -5.9466   24.9916 C   0  0  0  0  0  0  0  0  0  0  0  0
  -23.8271  -10.4479   20.9623 C   0  0  0  0  0  0  0  0  0  0  0  0
  -30.3004  -18.9688   23.2020 C   0  0  0  0  0  0  0  0  0  0  0  0
  -24.1699  -12.9730   20.8431 C   0  0  0  0  0  0  0  0  0  0  0  0
  -23.5945  -16.1580   37.8985 C   0  0  0  0  0  0  0  0  0  0  0  0
  -24.7093  -17.3888   30.7485 C   0  0  0  0  0  0  0  0  0  0  0  0
  -24.1362  -16.8371   36.7905 C   0  0  0  0  0  0  0  0  0  0  0  0
  -25.8984  -16.8352   30.2527 C   0  0  0  0  0  0  0  0  0  0  0  0
  -30.5866  -16.9331   21.9328 C   0  0  0  0  0  0  0  0  0  0  0  0
  -22.3383   -8.1420   21.4612 C   0  0  0  0  0  0  0  0  0  0  0  0
  -26.4245  -18.9541   29.1833 C   0  0  0  0  0  0  0  0  0  0  0  0
  -20.8604   -6.9756   22.8674 C   0  0  0  0  0  0  0  0  0  0  0  0
  -19.3459   -6.8957   25.2089 C   0  0  0  0  0  0  0  0  0  0  0  0
  -31.5814  -19.3791   22.8328 C   0  0  0  0  0  0  0  0  0  0  0  0
  -21.1020   -5.9866   23.8209 C   0  0  0  0  0  0  0  0  0  0  0  0
  -24.5967  -11.6386   20.7051 C   0  0  0  0  0  0  0  0  0  0  0  0
  -25.2624  -13.7222   20.4803 C   0  0  0  0  0  0  0  0  0  0  0  0
  -29.4637  -19.8319   24.0743 C   0  0  0  0  0  0  0  0  0  0  0  0
  -22.8995  -13.4891   21.2618 C   0  0  0  0  0  0  0  0  0  0  0  0
  -25.2675  -15.7835   33.4345 C   0  0  0  0  0  0  0  0  0  0  0  0
  -25.3706  -13.2348   31.4305 C   0  0  0  0  0  0  0  0  0  0  0  0
  -28.3127  -19.9222   26.2566 C   0  0  0  0  0  0  0  0  0  0  0  0
  -25.8799  -12.0535   28.2695 C   0  0  0  0  0  0  0  0  0  0  0  0
  -30.7289  -14.7657   20.6567 C   0  0  0  0  0  0  0  0  0  0  0  0
  -24.0670  -14.7813   38.2938 C   0  0  0  0  0  0  0  0  0  0  0  0
  -23.7619  -16.5526   31.5644 C   0  0  0  0  0  0  0  0  0  0  0  0
  -26.2891  -15.4091   30.5392 C   0  0  0  0  0  0  0  0  0  0  0  0
  -24.8141  -14.0509   37.1808 C   0  0  0  0  0  0  0  0  0  0  0  0
  -29.6142  -12.3530   18.2874 C   0  0  0  0  0  0  0  0  0  0  0  0
  -25.8412  -14.9738   36.5325 C   0  0  0  0  0  0  0  0  0  0  0  0
  -28.1743  -12.0618   18.7165 C   0  0  0  0  0  0  0  0  0  0  0  0
  -30.5291  -12.5811   19.4894 C   0  0  0  0  0  0  0  0  0  0  0  0
  -28.6221  -13.3059   20.8704 C   0  0  0  0  0  0  0  0  0  0  0  0
  -25.1623  -16.1880   35.8873 C   0  0  1  0  0  0  0  0  0  0  0  0
  -24.4441  -15.3712   32.2472 C   0  0  1  0  0  0  0  0  0  0  0  0
  -27.6495  -13.1333   19.6922 C   0  0  2  0  0  0  0  0  0  0  0  0
  -25.9330   -9.9207   26.9483 C   0  0  0  0  0  0  0  0  0  0  0  0
  -28.1011  -12.5696   32.6187 C   0  0  0  0  0  0  0  0  0  0  0  0
  -28.5075  -11.0613   30.6622 C   0  0  0  0  0  0  0  0  0  0  0  0
  -26.6234  -10.5903   32.2276 C   0  0  0  0  0  0  0  0  0  0  0  0
  -23.6658  -12.9460   26.5202 C   0  0  0  0  0  0  0  0  0  0  0  0
  -28.0561  -19.0328   27.4550 C   0  0  0  0  0  0  0  0  0  1  0  0
  -26.4510  -12.5448   30.6332 C   0  0  1  0  0  0  0  0  0  0  0  0
  -25.0786  -11.0898   27.4130 C   0  0  2  0  0  0  0  0  0  0  0  0
  -27.4146  -11.7190   31.5315 C   0  0  0  0  0  0  0  0  0  0  0  0
  -25.8616  -11.5424   20.2871 N   0  0  0  0  0  0  0  0  0  0  0  0
  -26.2390  -12.8259   20.1592 N   0  0  0  0  0  0  0  0  0  0  0  0
  -25.3327  -14.6339   31.3467 N   0  0  0  0  0  0  0  0  0  0  0  0
  -29.9703  -13.6119   20.3669 N   0  0  0  0  0  0  0  0  0  0  0  0
  -25.4733  -15.0536   20.4077 N   0  0  0  0  0  0  0  0  0  0  0  0
  -21.8871  -12.5802   21.5986 N   0  0  0  0  0  0  0  0  0  0  0  0
  -30.0817  -15.6908   21.4752 N   0  0  0  0  0  0  0  0  0  0  0  0
  -29.0729  -19.2664   25.2868 N   0  0  0  0  0  0  0  0  0  0  0  0
  -24.5630  -15.8192   34.6227 N   0  0  0  0  0  0  0  0  0  0  0  0
  -25.7661  -11.7597   29.6119 N   0  0  0  0  0  0  0  0  0  0  0  0
  -24.5432  -11.7880   26.2102 N   0  3  0  0  0  0  0  0  0  0  0  0
  -29.1923  -20.9711   23.7047 O   0  0  0  0  0  0  0  0  0  0  0  0
  -22.6636  -14.7198   21.3195 O   0  0  0  0  0  0  0  0  0  0  0  0
  -26.4546  -16.0480   33.2841 O   0  0  0  0  0  0  0  0  0  0  0  0
  -24.5848  -12.5570   32.0973 O   0  0  0  0  0  0  0  0  0  0  0  0
  -27.8880  -21.0716   26.1791 O   0  0  0  0  0  0  0  0  0  0  0  0
  -26.5436  -12.9726   27.7949 O   0  0  0  0  0  0  0  0  0  0  0  0
  -31.8582  -14.9342   20.1894 O   0  0  0  0  0  0  0  0  0  0  0  0
  -21.6119   -7.0171   21.7050 O   0  0  0  0  0  0  0  0  0  0  0  0
  -27.2625  -19.7133   28.4263 O   0  0  0  0  0  0  0  0  0  1  0  0
  -18.6197   -6.8583   26.3338 F   0  0  0  0  0  0  0  0  0  0  0  0
  -32.0693  -20.5524   23.2594 F   0  0  0  0  0  0  0  0  0  0  0  0
  -22.0611   -5.0728   23.6182 F   0  0  0  0  0  0  0  0  0  0  0  0
  1  2  1  0  0  0  0
  1  5  2  0  0  0  0
  2  6  2  0  0  0  0
  3  9  2  0  0  0  0
  3 18  1  0  0  0  0
  4 10  1  0  0  0  0
  4 18  2  0  0  0  0
  5 21  1  0  0  0  0
  6 23  1  0  0  0  0
  7 11  2  0  0  0  0
  7 22  1  0  0  0  0
  8 13  2  0  0  0  0
  8 25  1  0  0  0  0
  9 26  1  0  0  0  0
 10 26  2  0  0  0  0
 11 27  1  0  0  0  0
 12 14  2  0  0  0  0
 12 28  1  0  0  0  0
 13 30  1  0  0  0  0
 14 29  1  0  0  0  0
 15 19  1  0  0  0  0
 15 25  2  0  0  0  0
 16 24  1  0  0  0  0
 16 27  2  0  0  0  0
 17 29  2  0  0  0  0
 17 31  1  0  0  0  0
 18 32  1  0  0  0  0
 19 30  2  0  0  0  0
 19 34  1  0  0  0  0
 20 32  1  0  0  0  0
 20 33  2  0  0  0  0
 20 35  1  0  0  0  0
 21 23  2  0  0  0  0
 21 41  1  0  0  0  0
 22 24  2  0  0  0  0
 22 42  1  0  0  0  0
 23 50  1  0  0  0  0
 24 43  1  0  0  0  0
 25 68  1  0  0  0  0
 26 80  1  0  0  0  0
 27 81  1  0  0  0  0
 28 31  2  0  0  0  0
 28 80  1  0  0  0  0
 29 82  1  0  0  0  0
 30 83  1  0  0  0  0
 31 84  1  0  0  0  0
 32 62  2  0  0  0  0
 33 63  1  0  0  0  0
 33 66  1  0  0  0  0
 34 69  1  0  0  0  0
 34 73  2  0  0  0  0
 35 67  1  0  0  0  0
 35 74  2  0  0  0  0
 36 51  1  0  0  0  0
 36 70  1  0  0  0  0
 36 75  2  0  0  0  0
 37 59  1  0  0  0  0
 37 64  1  0  0  0  0
 37 76  2  0  0  0  0
 38 58  1  0  0  0  0
 38 69  1  0  0  0  0
 38 77  2  0  0  0  0
 39 60  1  0  0  0  0
 39 71  1  0  0  0  0
 39 78  2  0  0  0  0
 40 65  1  0  0  0  0
 40 68  1  0  0  0  0
 40 79  2  0  0  0  0
 41 44  1  0  0  0  0
 42 51  1  0  0  0  0
 43 64  1  0  0  0  0
 44 46  1  0  0  0  0
 45 47  1  0  0  0  0
 45 48  1  0  0  0  0
 46 50  1  0  0  0  0
 47 52  1  0  0  0  0
 48 65  1  0  0  0  0
 49 52  1  0  0  0  0
 49 65  1  0  0  0  0
 50 70  1  0  0  0  0
 51 64  1  0  0  0  0
 52 63  1  0  0  0  0
 53 60  1  0  0  0  0
 54 61  1  0  0  0  0
 55 61  1  0  0  0  0
 56 61  1  0  0  0  0
 57 72  1  0  0  0  0
 58 81  1  0  0  0  0
 59 61  1  0  0  0  0
 59 71  1  0  0  0  0
 60 72  1  0  0  0  0
 62 63  1  0  0  0  0
M  CHG  1  72   1
M  ISO  4  40 100  58 101  68 100  81 101
M  END
> <Batch ID>
0067

> <Smiles>
CNC(C)C(=O)NC(C(=O)N1Cc2cc([101O:1][101CH2:1]C(=O)NC(=O)c3cc([100NH:0][100C:0](=O)N4CCCC(n5nc(-c6ccc(Oc7ccc(F)cc7F)cc6)c(C(N)=O)c5N)C4)ccc3F)ccc2CC1C(=O)NC1CCCc2ccccc21)C(C)(C)C

> <Shape>
0.169

> <Color>
0.188

> <Negative vol penalty>
0.000

$$$$

  -OEChem-04042323243D

 85 93  0     1  0  0  0  0  0999 V2000
  -23.9315   -8.0468   22.0641 C   0  0  0  0  0  0  0  0  0  0  0  0
  -24.6189   -9.0702   21.4195 C   0  0  0  0  0  0  0  0  0  0  0  0
  -21.9911  -28.3415   21.3593 C   0  0  0  0  0  0  0  0  0  0  0  0
  -22.9590  -27.3656   23.3462 C   0  0  0  0  0  0  0  0  0  0  0  0
  -22.5721   -8.1877   22.3402 C   0  0  0  0  0  0  0  0  0  0  0  0
  -23.9470  -10.2348   21.0496 C   0  0  0  0  0  0  0  0  0  0  0  0
  -26.5571  -14.4252   22.1777 C   0  0  0  0  0  0  0  0  0  0  0  0
  -20.7204  -28.2299   21.9235 C   0  0  0  0  0  0  0  0  0  0  0  0
  -21.6882  -27.2541   23.9105 C   0  0  0  0  0  0  0  0  0  0  0  0
  -27.6071  -14.7695   21.3275 C   0  0  0  0  0  0  0  0  0  0  0  0
  -18.8492  -29.8928   24.1964 C   0  0  0  0  0  0  0  0  0  0  0  0
  -17.9948  -30.9903   24.0916 C   0  0  0  0  0  0  0  0  0  0  0  0
  -30.0211  -19.9852   23.0549 C   0  0  0  0  0  0  0  0  0  0  0  0
  -29.3016  -22.2890   22.9470 C   0  0  0  0  0  0  0  0  0  0  0  0
  -26.1884  -16.3907   20.2420 C   0  0  0  0  0  0  0  0  0  0  0  0
  -29.5472  -21.0039   20.9160 C   0  0  0  0  0  0  0  0  0  0  0  0
  -16.4017  -29.6346   22.8829 C   0  0  0  0  0  0  0  0  0  0  0  0
  -23.1105  -27.9093   22.0707 C   0  0  0  0  0  0  0  0  0  0  0  0
  -29.6994  -21.1816   23.6959 C   0  0  0  0  0  0  0  0  0  0  0  0
  -25.3078  -29.1141   21.5931 C   0  0  0  0  0  0  0  0  0  0  0  0
  -21.8854   -9.3585   21.9822 C   0  0  0  0  0  0  0  0  0  0  0  0
  -25.3095  -15.0544   22.0590 C   0  0  0  0  0  0  0  0  0  0  0  0
  -22.5769  -10.3909   21.3200 C   0  0  0  0  0  0  0  0  0  0  0  0
  -25.1250  -16.0543   21.0936 C   0  0  0  0  0  0  0  0  0  0  0  0
  -29.9450  -19.8964   21.6649 C   0  0  0  0  0  0  0  0  0  0  0  0
  -29.2255  -22.2002   21.5570 C   0  0  0  0  0  0  0  0  0  0  0  0
  -20.5689  -27.6862   23.1990 C   0  0  0  0  0  0  0  0  0  0  0  0
  -27.4219  -15.7504   20.3576 C   0  0  0  0  0  0  0  0  0  0  0  0
  -18.4800  -28.6662   23.6444 C   0  0  0  0  0  0  0  0  0  0  0  0
  -16.7710  -30.8612   23.4349 C   0  0  0  0  0  0  0  0  0  0  0  0
  -17.2562  -28.5371   22.9876 C   0  0  0  0  0  0  0  0  0  0  0  0
  -24.4234  -28.0238   21.4882 C   0  0  0  0  0  0  0  0  0  0  0  0
  -26.4108  -28.7323   20.8692 C   0  0  0  0  0  0  0  0  0  0  0  0
  -29.7786  -21.2741   25.1450 C   0  0  0  0  0  0  0  0  0  0  0  0
  -25.1466  -30.3605   22.2832 C   0  0  0  0  0  0  0  0  0  0  0  0
  -22.3606  -14.0790   21.3839 C   0  0  0  0  0  0  0  0  0  0  0  0
  -21.6003  -17.1515   22.0941 C   0  0  0  0  0  0  0  0  0  0  0  0
  -30.2507  -18.4200   19.6473 C   0  0  0  0  0  0  0  0  0  0  0  0
  -22.6082  -20.4026   22.3410 C   0  0  0  0  0  0  0  0  0  0  0  0
  -28.6927  -23.4060   19.4103 C   0  0  0  0  0  0  0  0  0  0  0  0
  -20.4054   -9.4456   22.2593 C   0  0  0  0  0  0  0  0  0  0  0  0
  -24.1951  -14.6904   23.0014 C   0  0  0  0  0  0  0  0  0  0  0  0
  -23.8111  -16.7742   20.9386 C   0  0  0  0  0  0  0  0  0  0  0  0
  -19.8515  -10.8652   22.1697 C   0  0  0  0  0  0  0  0  0  0  0  0
  -27.6900  -25.9805   17.1644 C   0  0  0  0  0  0  0  0  0  0  0  0
  -20.3599  -11.5582   20.9095 C   0  0  0  0  0  0  0  0  0  0  0  0
  -26.8240  -26.8991   18.0294 C   0  0  0  0  0  0  0  0  0  0  0  0
  -27.4987  -24.5099   17.5312 C   0  0  0  0  0  0  0  0  0  0  0  0
  -26.8145  -25.1149   19.8193 C   0  0  0  0  0  0  0  0  0  0  0  0
  -21.8885  -11.6795   20.9252 C   0  0  1  0  0  0  0  0  0  0  0  0
  -22.8132  -15.0327   22.4531 C   0  0  1  0  0  0  0  0  0  0  0  0
  -27.0215  -26.6107   19.5305 C   0  0  2  0  0  0  0  0  0  0  0  0
  -21.7530  -22.6924   22.9094 C   0  0  0  0  0  0  0  0  0  0  0  0
  -20.2099  -17.3026   19.3823 C   0  0  0  0  0  0  0  0  0  0  0  0
  -20.2204  -19.7973   19.5940 C   0  0  0  0  0  0  0  0  0  0  0  0
  -18.9734  -18.4119   21.2518 C   0  0  0  0  0  0  0  0  0  0  0  0
  -24.4990  -20.6744   24.6015 C   0  0  0  0  0  0  0  0  0  0  0  0
  -30.6745  -16.9814   19.3739 C   0  0  0  0  0  0  0  0  0  0  0  0
  -29.7698  -15.9552   20.0391 C   0  0  0  0  0  0  0  0  0  1  0  0
  -21.5009  -18.4371   21.3090 C   0  0  1  0  0  0  0  0  0  0  0  0
  -22.4227  -21.4340   23.4393 C   0  0  2  0  0  0  0  0  0  0  0  0
  -20.2504  -18.4725   20.3857 C   0  0  0  0  0  0  0  0  0  0  0  0
  -24.9215  -27.0245   20.7553 N   0  0  0  0  0  0  0  0  0  0  0  0
  -26.1308  -27.4853   20.3930 N   0  0  0  0  0  0  0  0  0  0  0  0
  -22.7502  -16.3785   21.8795 N   0  0  0  0  0  0  0  0  0  0  0  0
  -27.7057  -24.3118   18.9675 N   0  0  0  0  0  0  0  0  0  0  0  0
  -27.5832  -29.3450   20.5999 N   0  0  0  0  0  0  0  0  0  0  0  0
  -29.4471  -22.4902   25.7355 N   0  0  0  0  0  0  0  0  0  0  0  0
  -23.9510  -30.5901   22.9774 N   0  0  0  0  0  0  0  0  0  0  0  0
  -30.2714  -18.6826   21.0144 N   0  0  0  0  0  0  0  0  0  0  0  0
  -28.8210  -23.3253   20.7965 N   0  0  0  0  0  0  0  0  0  0  0  0
  -22.3008  -12.7609   21.7942 N   0  0  0  0  0  0  0  0  0  0  0  0
  -21.5519  -19.5179   22.2876 N   0  0  0  0  0  0  0  0  0  0  0  0
  -23.7410  -21.8131   24.0219 N   0  3  0  0  0  0  0  0  0  0  0  0
  -30.1455  -20.3083   25.8373 O   0  0  0  0  0  0  0  0  0  0  0  0
  -26.0299  -31.2511   22.2705 O   0  0  0  0  0  0  0  0  0  0  0  0
  -22.0845  -14.5076   20.2695 O   0  0  0  0  0  0  0  0  0  0  0  0
  -20.6944  -16.8479   22.8744 O   0  0  0  0  0  0  0  0  0  0  0  0
  -29.9443  -19.1928   18.7455 O   0  0  0  0  0  0  0  0  0  0  0  0
  -23.5899  -20.3858   21.6018 O   0  0  0  0  0  0  0  0  0  0  0  0
  -29.3927  -22.7705   18.6177 O   0  0  0  0  0  0  0  0  0  0  0  0
  -19.3291  -27.5773   23.7500 O   0  0  0  0  0  0  0  0  0  0  0  0
  -28.4449  -16.0879   19.5260 O   0  0  0  0  0  0  0  0  0  1  0  0
  -15.9499  -31.9148   23.3357 F   0  0  0  0  0  0  0  0  0  0  0  0
  -16.8955  -27.3609   22.4563 F   0  0  0  0  0  0  0  0  0  0  0  0
  1  2  1  0  0  0  0
  1  5  2  0  0  0  0
  2  6  2  0  0  0  0
  3  8  2  0  0  0  0
  3 18  1  0  0  0  0
  4  9  1  0  0  0  0
  4 18  2  0  0  0  0
  5 21  1  0  0  0  0
  6 23  1  0  0  0  0
  7 10  2  0  0  0  0
  7 22  1  0  0  0  0
  8 27  1  0  0  0  0
  9 27  2  0  0  0  0
 10 28  1  0  0  0  0
 11 12  2  0  0  0  0
 11 29  1  0  0  0  0
 12 30  1  0  0  0  0
 13 19  1  0  0  0  0
 13 25  2  0  0  0  0
 14 19  2  0  0  0  0
 14 26  1  0  0  0  0
 15 24  1  0  0  0  0
 15 28  2  0  0  0  0
 16 25  1  0  0  0  0
 16 26  2  0  0  0  0
 17 30  2  0  0  0  0
 17 31  1  0  0  0  0
 18 32  1  0  0  0  0
 19 34  1  0  0  0  0
 20 32  1  0  0  0  0
 20 33  2  0  0  0  0
 20 35  1  0  0  0  0
 21 23  2  0  0  0  0
 21 41  1  0  0  0  0
 22 24  2  0  0  0  0
 22 42  1  0  0  0  0
 23 50  1  0  0  0  0
 24 43  1  0  0  0  0
 25 70  1  0  0  0  0
 26 71  1  0  0  0  0
 27 82  1  0  0  0  0
 28 83  1  0  0  0  0
 29 31  2  0  0  0  0
 29 82  1  0  0  0  0
 30 84  1  0  0  0  0
 31 85  1  0  0  0  0
 32 63  2  0  0  0  0
 33 64  1  0  0  0  0
 33 67  1  0  0  0  0
 34 68  1  0  0  0  0
 34 75  2  0  0  0  0
 35 69  1  0  0  0  0
 35 76  2  0  0  0  0
 36 51  1  0  0  0  0
 36 72  1  0  0  0  0
 36 77  2  0  0  0  0
 37 60  1  0  0  0  0
 37 65  1  0  0  0  0
 37 78  2  0  0  0  0
 38 58  1  0  0  0  0
 38 70  1  0  0  0  0
 38 79  2  0  0  0  0
 39 61  1  0  0  0  0
 39 73  1  0  0  0  0
 39 80  2  0  0  0  0
 40 66  1  0  0  0  0
 40 71  1  0  0  0  0
 40 81  2  0  0  0  0
 41 44  1  0  0  0  0
 42 51  1  0  0  0  0
 43 65  1  0  0  0  0
 44 46  1  0  0  0  0
 45 47  1  0  0  0  0
 45 48  1  0  0  0  0
 46 50  1  0  0  0  0
 47 52  1  0  0  0  0
 48 66  1  0  0  0  0
 49 52  1  0  0  0  0
 49 66  1  0  0  0  0
 50 72  1  0  0  0  0
 51 65  1  0  0  0  0
 52 64  1  0  0  0  0
 53 61  1  0  0  0  0
 54 62  1  0  0  0  0
 55 62  1  0  0  0  0
 56 62  1  0  0  0  0
 57 74  1  0  0  0  0
 58 59  1  0  0  0  0
 59 83  1  0  0  0  0
 60 62  1  0  0  0  0
 60 73  1  0  0  0  0
 61 74  1  0  0  0  0
 63 64  1  0  0  0  0
M  CHG  1  74   1
M  ISO  4  40 100  59 101  71 100  83 101
M  END
> <Batch ID>
0067

> <Smiles>
CNC(C)C(=O)NC(C(=O)N1Cc2cc([101O:1][101CH2:1]CC(=O)Nc3cc([100NH:0][100C:0](=O)N4CCCC(n5nc(-c6ccc(Oc7ccc(F)cc7F)cc6)c(C(N)=O)c5N)C4)cc(C(N)=O)c3)ccc2CC1C(=O)NC1CCCc2ccccc21)C(C)(C)C

> <Shape>
0.246

> <Color>
0.083

> <Negative vol penalty>
0.000

$$$$

  -OEChem-04042323243D

 88 97  0     1  0  0  0  0  0999 V2000
  -26.4578  -37.9068   21.9289 C   0  0  0  0  0  0  0  0  0  0  0  0
  -27.1388  -36.7480   21.5700 C   0  0  0  0  0  0  0  0  0  0  0  0
  -24.0571  -11.6541   21.3152 C   0  0  0  0  0  0  0  0  0  0  0  0
  -24.7155  -11.9227   19.0063 C   0  0  0  0  0  0  0  0  0  0  0  0
  -32.2976  -20.2067   19.0174 C   0  0  0  0  0  0  0  0  0  0  0  0
  -25.3781  -37.8354   22.8081 C   0  0  0  0  0  0  0  0  0  0  0  0
  -26.7411  -35.5172   22.0909 C   0  0  0  0  0  0  0  0  0  0  0  0
  -26.9079  -30.0919   19.2547 C   0  0  0  0  0  0  0  0  0  0  0  0
  -32.3010  -21.5965   19.1356 C   0  0  0  0  0  0  0  0  0  0  0  0
  -23.2102  -10.6070   20.9519 C   0  0  0  0  0  0  0  0  0  0  0  0
  -23.8687  -10.8756   18.6429 C   0  0  0  0  0  0  0  0  0  0  0  0
  -27.8194  -29.0379   19.2992 C   0  0  0  0  0  0  0  0  0  0  0  0
  -23.4937   -7.3267   20.1823 C   0  0  0  0  0  0  0  0  0  0  0  0
  -23.5155   -6.1734   20.9666 C   0  0  0  0  0  0  0  0  0  0  0  0
  -26.4488  -27.9301   20.9464 C   0  0  0  0  0  0  0  0  0  0  0  0
  -31.8062  -25.7434   19.9572 C   0  0  0  0  0  0  0  0  0  0  0  0
  -29.9368  -21.5601   19.6321 C   0  0  0  0  0  0  0  0  0  0  0  0
  -21.1706   -6.4695   21.4673 C   0  0  0  0  0  0  0  0  0  0  0  0
  -24.8097  -12.3120   20.3424 C   0  0  0  0  0  0  0  0  0  0  0  0
  -31.1138  -19.4935   19.2065 C   0  0  0  0  0  0  0  0  0  0  0  0
  -27.0379  -13.3022   21.0921 C   0  0  0  0  0  0  0  0  0  0  0  0
  -24.9608  -36.6019   23.3326 C   0  0  0  0  0  0  0  0  0  0  0  0
  -25.7636  -30.0781   20.0652 C   0  0  0  0  0  0  0  0  0  0  0  0
  -25.6556  -35.4295   22.9790 C   0  0  0  0  0  0  0  0  0  0  0  0
  -25.5230  -28.9840   20.9085 C   0  0  0  0  0  0  0  0  0  0  0  0
  -30.4602  -25.7855   19.5174 C   0  0  0  0  0  0  0  0  0  0  0  0
  -31.1206  -22.2732   19.4429 C   0  0  0  0  0  0  0  0  0  0  0  0
  -29.9334  -20.1702   19.5139 C   0  0  0  0  0  0  0  0  0  0  0  0
  -23.1161  -10.2177   19.6158 C   0  0  0  0  0  0  0  0  0  0  0  0
  -27.5914  -27.9581   20.1473 C   0  0  0  0  0  0  0  0  0  0  0  0
  -22.3103   -8.0514   20.0406 C   0  0  0  0  0  0  0  0  0  0  0  0
  -22.3540   -5.7448   21.6091 C   0  0  0  0  0  0  0  0  0  0  0  0
  -21.1488   -7.6228   20.6830 C   0  0  0  0  0  0  0  0  0  0  0  0
  -25.6842  -13.3942   20.7170 C   0  0  0  0  0  0  0  0  0  0  0  0
  -27.4119  -14.5986   21.3487 C   0  0  0  0  0  0  0  0  0  0  0  0
  -32.1921  -24.4212   19.9747 C   0  0  0  0  0  0  0  0  0  0  0  0
  -30.0643  -24.4877   19.2797 C   0  0  0  0  0  0  0  0  0  0  0  0
  -31.1441  -18.0421   19.0745 C   0  0  0  0  0  0  0  0  0  0  0  0
  -27.8819  -12.1481   21.1990 C   0  0  0  0  0  0  0  0  0  0  0  0
  -24.6466  -31.9222   22.4008 C   0  0  0  0  0  0  0  0  0  0  0  0
  -22.0504  -29.9932   22.1539 C   0  0  0  0  0  0  0  0  0  0  0  0
  -20.7629  -26.9735   21.2208 C   0  0  0  0  0  0  0  0  0  0  0  0
  -27.4709  -20.0052   20.0189 C   0  0  0  0  0  0  0  0  0  0  0  0
  -23.8179  -36.5807   24.3164 C   0  0  0  0  0  0  0  0  0  0  0  0
  -24.7765  -31.2102   19.9858 C   0  0  0  0  0  0  0  0  0  0  0  0
  -24.2995  -28.9114   21.7838 C   0  0  0  0  0  0  0  0  0  0  0  0
  -23.2246  -35.1906   24.5309 C   0  0  0  0  0  0  0  0  0  0  0  0
  -24.6287  -18.8030   21.7949 C   0  0  0  0  0  0  0  0  0  0  0  0
  -24.3330  -34.1632   24.7378 C   0  0  0  0  0  0  0  0  0  0  0  0
  -24.7613  -17.2811   21.7036 C   0  0  0  0  0  0  0  0  0  0  0  0
  -25.0902  -19.4905   20.5111 C   0  0  0  0  0  0  0  0  0  0  0  0
  -26.5690  -17.5970   19.9660 C   0  0  0  0  0  0  0  0  0  0  0  0
  -25.2386  -34.0726   23.5036 C   0  0  1  0  0  0  0  0  0  0  0  0
  -23.9068  -31.3332   21.2331 C   0  0  1  0  0  0  0  0  0  0  0  0
  -26.1772  -16.8644   21.2595 C   0  0  2  0  0  0  0  0  0  0  0  0
  -32.1488  -17.4562   18.1280 C   0  0  0  0  0  0  0  0  0  0  0  0
  -18.6151  -25.6766   21.1769 C   0  0  0  0  0  0  0  0  0  0  0  0
  -22.2998  -29.4835   25.1519 C   0  0  0  0  0  0  0  0  0  0  0  0
  -20.7868  -27.5086   24.8714 C   0  0  0  0  0  0  0  0  0  0  0  0
  -19.9560  -29.7997   24.3389 C   0  0  0  0  0  0  0  0  0  0  0  0
  -20.8223  -26.7514   18.2702 C   0  0  0  0  0  0  0  0  0  0  0  0
  -29.6240  -27.0194   19.3453 C   0  0  0  0  0  0  0  0  0  1  0  0
  -21.6199  -28.6935   22.7898 C   0  0  1  0  0  0  0  0  0  0  0  0
  -19.5347  -26.6106   20.4059 C   0  0  2  0  0  0  0  0  0  0  0  0
  -21.1898  -28.8733   24.2731 C   0  0  0  0  0  0  0  0  0  0  0  0
  -25.2289  -14.6498   20.7327 N   0  0  0  0  0  0  0  0  0  0  0  0
  -31.1251  -23.6669   19.5613 N   0  0  0  0  0  0  0  0  0  0  0  0
  -26.3026  -15.3587   21.1209 N   0  0  0  0  0  0  0  0  0  0  0  0
  -23.3672  -30.0457   21.6751 N   0  0  0  0  0  0  0  0  0  0  0  0
  -26.4408  -19.0506   20.1544 N   0  0  0  0  0  0  0  0  0  0  0  0
  -28.5782  -15.1512   21.7449 N   0  0  0  0  0  0  0  0  0  0  0  0
  -27.3375  -10.8921   20.8984 N   0  0  0  0  0  0  0  0  0  0  0  0
  -28.7193  -19.4664   19.7097 N   0  0  0  0  0  0  0  0  0  0  0  0
  -24.5961  -33.3018   22.4608 N   0  0  0  0  0  0  0  0  0  0  0  0
  -20.5793  -28.1426   21.9284 N   0  0  0  0  0  0  0  0  0  0  0  0
  -19.9346  -25.9360   19.1386 N   0  3  0  0  0  0  0  0  0  0  0  0
  -30.4039  -17.2656   19.6781 O   0  0  0  0  0  0  0  0  0  0  0  0
  -29.0787  -12.2264   21.5665 O   0  0  0  0  0  0  0  0  0  0  0  0
  -25.2196  -31.1799   23.1897 O   0  0  0  0  0  0  0  0  0  0  0  0
  -21.2458  -30.9251   22.0782 O   0  0  0  0  0  0  0  0  0  0  0  0
  -21.7819  -26.2865   21.2317 O   0  0  0  0  0  0  0  0  0  0  0  0
  -27.2668  -21.2094   20.1932 O   0  0  0  0  0  0  0  0  0  0  0  0
  -33.3509  -23.8671   20.3105 O   0  0  0  0  0  0  0  0  0  0  0  0
  -28.9022  -24.0013   18.8589 O   0  0  0  0  0  0  0  0  0  0  0  0
  -22.2900   -9.1958   19.2610 O   0  0  0  0  0  0  0  0  0  0  0  0
  -28.4798  -26.9283   20.1931 O   0  0  0  0  0  0  0  0  0  1  0  0
  -22.3747   -4.6365   22.3609 F   0  0  0  0  0  0  0  0  0  0  0  0
  -20.0086   -8.3143   20.5497 F   0  0  0  0  0  0  0  0  0  0  0  0
  1  2  1  0  0  0  0
  1  6  2  0  0  0  0
  2  7  2  0  0  0  0
  3 10  2  0  0  0  0
  3 19  1  0  0  0  0
  4 11  1  0  0  0  0
  4 19  2  0  0  0  0
  5  9  2  0  0  0  0
  5 20  1  0  0  0  0
  6 22  1  0  0  0  0
  7 24  1  0  0  0  0
  8 12  2  0  0  0  0
  8 23  1  0  0  0  0
  9 27  1  0  0  0  0
 10 29  1  0  0  0  0
 11 29  2  0  0  0  0
 12 30  1  0  0  0  0
 13 14  2  0  0  0  0
 13 31  1  0  0  0  0
 14 32  1  0  0  0  0
 15 25  1  0  0  0  0
 15 30  2  0  0  0  0
 16 26  1  0  0  0  0
 16 36  2  0  0  0  0
 17 27  2  0  0  0  0
 17 28  1  0  0  0  0
 18 32  2  0  0  0  0
 18 33  1  0  0  0  0
 19 34  1  0  0  0  0
 20 28  2  0  0  0  0
 20 38  1  0  0  0  0
 21 34  1  0  0  0  0
 21 35  2  0  0  0  0
 21 39  1  0  0  0  0
 22 24  2  0  0  0  0
 22 44  1  0  0  0  0
 23 25  2  0  0  0  0
 23 45  1  0  0  0  0
 24 53  1  0  0  0  0
 25 46  1  0  0  0  0
 26 37  2  0  0  0  0
 26 62  1  0  0  0  0
 27 67  1  0  0  0  0
 28 73  1  0  0  0  0
 29 85  1  0  0  0  0
 30 86  1  0  0  0  0
 31 33  2  0  0  0  0
 31 85  1  0  0  0  0
 32 87  1  0  0  0  0
 33 88  1  0  0  0  0
 34 66  2  0  0  0  0
 35 68  1  0  0  0  0
 35 71  1  0  0  0  0
 36 67  1  0  0  0  0
 36 83  1  0  0  0  0
 37 67  1  0  0  0  0
 37 84  1  0  0  0  0
 38 56  1  0  0  0  0
 38 77  2  0  0  0  0
 39 72  1  0  0  0  0
 39 78  2  0  0  0  0
 40 54  1  0  0  0  0
 40 74  1  0  0  0  0
 40 79  2  0  0  0  0
 41 63  1  0  0  0  0
 41 69  1  0  0  0  0
 41 80  2  0  0  0  0
 42 64  1  0  0  0  0
 42 75  1  0  0  0  0
 42 81  2  0  0  0  0
 43 70  1  0  0  0  0
 43 73  1  0  0  0  0
 43 82  2  0  0  0  0
 44 47  1  0  0  0  0
 45 54  1  0  0  0  0
 46 69  1  0  0  0  0
 47 49  1  0  0  0  0
 48 50  1  0  0  0  0
 48 51  1  0  0  0  0
 49 53  1  0  0  0  0
 50 55  1  0  0  0  0
 51 70  1  0  0  0  0
 52 55  1  0  0  0  0
 52 70  1  0  0  0  0
 53 74  1  0  0  0  0
 54 69  1  0  0  0  0
 55 68  1  0  0  0  0
 57 64  1  0  0  0  0
 58 65  1  0  0  0  0
 59 65  1  0  0  0  0
 60 65  1  0  0  0  0
 61 76  1  0  0  0  0
 62 86  1  0  0  0  0
 63 65  1  0  0  0  0
 63 75  1  0  0  0  0
 64 76  1  0  0  0  0
 66 68  1  0  0  0  0
M  CHG  1  76   1
M  ISO  4  43 100  62 101  73 100  86 101
M  END
> <Batch ID>
0067

> <Smiles>
CNC(C)C(=O)NC(C(=O)N1Cc2cc([101O:1][101CH2:1]C3CC(=O)N(c4ccc(C(C)=O)c([100NH:0][100C:0](=O)N5CCCC(n6nc(-c7ccc(Oc8ccc(F)cc8F)cc7)c(C(N)=O)c6N)C5)c4)C3=O)ccc2CC1C(=O)NC1CCCc2ccccc21)C(C)(C)C

> <Shape>
0.341

> <Color>
0.076

> <Negative vol penalty>
0.000

$$$$

  -OEChem-04042323243D

 89 98  0     1  0  0  0  0  0999 V2000
  -25.0139  -15.0626   20.8535 C   0  0  0  0  0  0  0  0  0  0  0  0
  -24.8858  -16.4348   21.0432 C   0  0  0  0  0  0  0  0  0  0  0  0
  -29.7984  -29.1903   24.0145 C   0  0  0  0  0  0  0  0  0  0  0  0
  -28.3917  -27.4035   24.8306 C   0  0  0  0  0  0  0  0  0  0  0  0
  -26.2559  -14.5176   20.5307 C   0  0  0  0  0  0  0  0  0  0  0  0
  -26.0000  -17.2628   20.9112 C   0  0  0  0  0  0  0  0  0  0  0  0
  -25.0072  -21.4433   18.2311 C   0  0  0  0  0  0  0  0  0  0  0  0
  -17.8907  -28.5428   22.9772 C   0  0  0  0  0  0  0  0  0  0  0  0
  -19.1041  -29.1953   22.7595 C   0  0  0  0  0  0  0  0  0  0  0  0
  -30.5746  -29.1073   25.1704 C   0  0  0  0  0  0  0  0  0  0  0  0
  -29.1680  -27.3205   25.9865 C   0  0  0  0  0  0  0  0  0  0  0  0
  -24.3291  -22.4719   18.8837 C   0  0  0  0  0  0  0  0  0  0  0  0
  -33.0290  -27.1243   26.3856 C   0  0  0  0  0  0  0  0  0  0  0  0
  -34.4158  -27.1439   26.2379 C   0  0  0  0  0  0  0  0  0  0  0  0
  -26.4191  -23.6291   19.2184 C   0  0  0  0  0  0  0  0  0  0  0  0
  -18.9904  -26.4083   22.7093 C   0  0  0  0  0  0  0  0  0  0  0  0
  -34.5322  -29.1391   27.5954 C   0  0  0  0  0  0  0  0  0  0  0  0
  -28.7069  -28.3385   23.8446 C   0  0  0  0  0  0  0  0  0  0  0  0
  -28.0959  -27.7226   21.4456 C   0  0  0  0  0  0  0  0  0  0  0  0
  -27.3840  -15.3404   20.3852 C   0  0  0  0  0  0  0  0  0  0  0  0
  -26.4000  -21.4947   18.0766 C   0  0  0  0  0  0  0  0  0  0  0  0
  -27.2586  -16.7282   20.5875 C   0  0  0  0  0  0  0  0  0  0  0  0
  -27.1122  -22.6011   18.5613 C   0  0  0  0  0  0  0  0  0  0  0  0
  -20.2038  -27.0609   22.4916 C   0  0  0  0  0  0  0  0  0  0  0  0
  -17.8338  -27.1493   22.9522 C   0  0  0  0  0  0  0  0  0  0  0  0
  -20.2607  -28.4544   22.5167 C   0  0  0  0  0  0  0  0  0  0  0  0
  -30.2594  -28.1723   26.1564 C   0  0  0  0  0  0  0  0  0  0  0  0
  -25.0354  -23.5637   19.3800 C   0  0  0  0  0  0  0  0  0  0  0  0
  -32.3936  -28.1121   27.1381 C   0  0  0  0  0  0  0  0  0  0  0  0
  -35.1674  -28.1512   26.8429 C   0  0  0  0  0  0  0  0  0  0  0  0
  -33.1453  -29.1195   27.7430 C   0  0  0  0  0  0  0  0  0  0  0  0
  -27.9043  -28.4242   22.6510 C   0  0  0  0  0  0  0  0  0  0  0  0
  -27.0761  -28.1527   20.6322 C   0  0  0  0  0  0  0  0  0  0  0  0
  -22.4539  -26.5527   21.5287 C   0  0  0  0  0  0  0  0  0  0  0  0
  -14.4988  -23.5577   23.5033 C   0  0  0  0  0  0  0  0  0  0  0  0
  -14.9340  -24.8205   23.4519 C   0  0  0  0  0  0  0  0  0  0  0  0
  -29.1052  -26.7674   21.0928 C   0  0  0  0  0  0  0  0  0  0  0  0
  -16.3708  -25.1177   23.1822 C   0  0  0  0  0  0  0  0  0  0  0  0
  -28.8333  -19.6991   19.0557 C   0  0  0  0  0  0  0  0  0  0  0  0
  -30.5590  -21.6976   17.1715 C   0  0  0  0  0  0  0  0  0  0  0  0
  -30.8235  -24.7451   15.6582 C   0  0  0  0  0  0  0  0  0  0  0  0
  -21.6507  -30.4028   21.7308 C   0  0  0  0  0  0  0  0  0  0  0  0
  -28.7153  -14.7001   20.0819 C   0  0  0  0  0  0  0  0  0  0  0  0
  -27.1134  -20.3899   17.3467 C   0  0  0  0  0  0  0  0  0  0  0  0
  -28.6058  -22.7139   18.4033 C   0  0  0  0  0  0  0  0  0  0  0  0
  -29.7697  -15.6895   19.5923 C   0  0  0  0  0  0  0  0  0  0  0  0
  -24.2536  -31.9418   19.8510 C   0  0  0  0  0  0  0  0  0  0  0  0
  -29.7867  -16.9324   20.4764 C   0  0  0  0  0  0  0  0  0  0  0  0
  -25.5016  -31.1467   20.2414 C   0  0  0  0  0  0  0  0  0  0  0  0
  -23.3034  -32.1225   21.0335 C   0  0  0  0  0  0  0  0  0  0  0  0
  -24.1745  -30.0864   22.1127 C   0  0  0  0  0  0  0  0  0  0  0  0
  -21.7044  -24.9742   22.7057 C   0  0  0  0  0  0  0  0  0  0  0  0
  -28.4388  -17.6620   20.4287 C   0  0  1  0  0  0  0  0  0  0  0  0
  -28.5949  -20.3001   17.6994 C   0  0  1  0  0  0  0  0  0  0  0  0
  -25.1312  -29.8228   20.9384 C   0  0  2  0  0  0  0  0  0  0  0  0
  -23.0282  -25.1563   21.9040 C   0  0  2  0  0  0  0  0  0  0  0  0
  -24.2875  -25.2174   22.7615 C   0  0  0  0  0  0  0  0  0  0  0  0
  -32.3654  -26.1008   14.2153 C   0  0  0  0  0  0  0  0  0  0  0  0
  -32.3520  -22.2218   19.5841 C   0  0  0  0  0  0  0  0  0  0  0  0
  -33.2451  -24.2358   18.3950 C   0  0  0  0  0  0  0  0  0  0  0  0
  -33.5702  -21.9650   17.4152 C   0  0  0  0  0  0  0  0  0  0  0  0
  -28.8128  -24.9442   13.4957 C   0  0  0  0  0  0  0  0  0  0  0  0
  -23.1845  -24.2200   20.7215 C   0  0  0  0  0  0  0  0  0  1  0  0
  -31.2699  -23.0134   17.3776 C   0  0  1  0  0  0  0  0  0  0  0  0
  -31.1900  -25.1360   14.2379 C   0  0  2  0  0  0  0  0  0  0  0  0
  -32.5814  -22.8562   18.1978 C   0  0  0  0  0  0  0  0  0  0  0  0
  -26.8462  -29.2383   22.6112 N   0  0  0  0  0  0  0  0  0  0  0  0
  -26.3638  -29.0510   21.3709 N   0  0  0  0  0  0  0  0  0  0  0  0
  -21.3305  -26.3092   22.2525 N   0  0  0  0  0  0  0  0  0  0  0  0
  -29.2588  -21.6052   17.6879 N   0  0  0  0  0  0  0  0  0  0  0  0
  -22.9936  -30.8265   21.6410 N   0  0  0  0  0  0  0  0  0  0  0  0
  -26.7283  -27.8464   19.3643 N   0  0  0  0  0  0  0  0  0  0  0  0
  -30.0774  -26.4392   22.0475 N   0  0  0  0  0  0  0  0  0  0  0  0
  -16.6197  -26.4970   23.1697 N   0  0  0  0  0  0  0  0  0  0  0  0
  -21.4812  -29.1399   22.2972 N   0  0  0  0  0  0  0  0  0  0  0  0
  -28.3200  -18.4249   19.2046 N   0  0  0  0  0  0  0  0  0  0  0  0
  -31.4607  -23.5867   16.0497 N   0  0  0  0  0  0  0  0  0  0  0  0
  -30.0320  -25.7902   13.5655 N   0  3  0  0  0  0  0  0  0  0  0  0
  -22.8191  -27.4989   20.8687 O   0  0  0  0  0  0  0  0  0  0  0  0
  -29.1536  -26.2334   19.9588 O   0  0  0  0  0  0  0  0  0  0  0  0
  -17.1827  -24.2178   23.0017 O   0  0  0  0  0  0  0  0  0  0  0  0
  -29.4394  -20.3433   19.9039 O   0  0  0  0  0  0  0  0  0  0  0  0
  -31.1334  -20.7879   16.5681 O   0  0  0  0  0  0  0  0  0  0  0  0
  -30.0521  -25.4037   16.3524 O   0  0  0  0  0  0  0  0  0  0  0  0
  -20.7218  -31.0968   21.3094 O   0  0  0  0  0  0  0  0  0  0  0  0
  -31.0168  -28.0908   27.2844 O   0  0  0  0  0  0  0  0  0  0  0  0
  -24.3761  -24.5688   20.0180 O   0  0  0  0  0  0  0  0  0  1  0  0
  -36.4994  -28.1690   26.7023 F   0  0  0  0  0  0  0  0  0  0  0  0
  -32.5407  -30.0705   28.4682 F   0  0  0  0  0  0  0  0  0  0  0  0
  1  2  1  0  0  0  0
  1  5  2  0  0  0  0
  2  6  2  0  0  0  0
  3 10  2  0  0  0  0
  3 18  1  0  0  0  0
  4 11  1  0  0  0  0
  4 18  2  0  0  0  0
  5 20  1  0  0  0  0
  6 22  1  0  0  0  0
  7 12  2  0  0  0  0
  7 21  1  0  0  0  0
  8  9  2  0  0  0  0
  8 25  1  0  0  0  0
  9 26  1  0  0  0  0
 10 27  1  0  0  0  0
 11 27  2  0  0  0  0
 12 28  1  0  0  0  0
 13 14  2  0  0  0  0
 13 29  1  0  0  0  0
 14 30  1  0  0  0  0
 15 23  1  0  0  0  0
 15 28  2  0  0  0  0
 16 24  1  0  0  0  0
 16 25  2  0  0  0  0
 17 30  2  0  0  0  0
 17 31  1  0  0  0  0
 18 32  1  0  0  0  0
 19 32  1  0  0  0  0
 19 33  2  0  0  0  0
 19 37  1  0  0  0  0
 20 22  2  0  0  0  0
 20 43  1  0  0  0  0
 21 23  2  0  0  0  0
 21 44  1  0  0  0  0
 22 53  1  0  0  0  0
 23 45  1  0  0  0  0
 24 26  2  0  0  0  0
 24 69  1  0  0  0  0
 25 74  1  0  0  0  0
 26 75  1  0  0  0  0
 27 86  1  0  0  0  0
 28 87  1  0  0  0  0
 29 31  2  0  0  0  0
 29 86  1  0  0  0  0
 30 88  1  0  0  0  0
 31 89  1  0  0  0  0
 32 67  2  0  0  0  0
 33 68  1  0  0  0  0
 33 72  1  0  0  0  0
 34 56  1  0  0  0  0
 34 69  1  0  0  0  0
 34 79  2  0  0  0  0
 35 36  2  0  0  0  0
 36 38  1  0  0  0  0
 37 73  1  0  0  0  0
 37 80  2  0  0  0  0
 38 74  1  0  0  0  0
 38 81  2  0  0  0  0
 39 54  1  0  0  0  0
 39 76  1  0  0  0  0
 39 82  2  0  0  0  0
 40 64  1  0  0  0  0
 40 70  1  0  0  0  0
 40 83  2  0  0  0  0
 41 65  1  0  0  0  0
 41 77  1  0  0  0  0
 41 84  2  0  0  0  0
 42 71  1  0  0  0  0
 42 75  1  0  0  0  0
 42 85  2  0  0  0  0
 43 46  1  0  0  0  0
 44 54  1  0  0  0  0
 45 70  1  0  0  0  0
 46 48  1  0  0  0  0
 47 49  1  0  0  0  0
 47 50  1  0  0  0  0
 48 53  1  0  0  0  0
 49 55  1  0  0  0  0
 50 71  1  0  0  0  0
 51 55  1  0  0  0  0
 51 71  1  0  0  0  0
 52 56  1  0  0  0  0
 52 69  1  0  0  0  0
 53 76  1  0  0  0  0
 54 70  1  0  0  0  0
 55 68  1  0  0  0  0
 56 57  1  0  0  0  0
 56 63  1  0  0  0  0
 58 65  1  0  0  0  0
 59 66  1  0  0  0  0
 60 66  1  0  0  0  0
 61 66  1  0  0  0  0
 62 78  1  0  0  0  0
 63 87  1  0  0  0  0
 64 66  1  0  0  0  0
 64 77  1  0  0  0  0
 65 78  1  0  0  0  0
 67 68  1  0  0  0  0
M  CHG  1  78   1
M  ISO  4  42 100  63 101  75 100  87 101
M  END
> <Batch ID>
0067

> <Smiles>
C=CC(=O)Nc1ccc([100NH:0][100C:0](=O)N2CCCC(n3nc(-c4ccc(Oc5ccc(F)cc5F)cc4)c(C(N)=O)c3N)C2)c(N2CC(C)([101CH2:1][101O:1]c3ccc4c(c3)CN(C(=O)C(NC(=O)C(C)NC)C(C)(C)C)C(C(=O)NC3CCCc5ccccc53)C4)C2=O)c1

> <Shape>
0.201

> <Color>
0.066

> <Negative vol penalty>
0.000

$$$$

  -OEChem-04042323243D

 84 92  0     1  0  0  0  0  0999 V2000
  -27.3556  -37.8716   21.9987 C   0  0  0  0  0  0  0  0  0  0  0  0
  -27.8461  -36.8304   21.2172 C   0  0  0  0  0  0  0  0  0  0  0  0
  -24.7953   -8.6796   21.6281 C   0  0  0  0  0  0  0  0  0  0  0  0
  -23.2419   -9.9995   20.3312 C   0  0  0  0  0  0  0  0  0  0  0  0
  -26.6818  -37.5922   23.1869 C   0  0  0  0  0  0  0  0  0  0  0  0
  -27.6638  -35.5091   21.6239 C   0  0  0  0  0  0  0  0  0  0  0  0
  -26.6334  -28.9394   18.9606 C   0  0  0  0  0  0  0  0  0  0  0  0
  -23.7448   -8.2280   22.4269 C   0  0  0  0  0  0  0  0  0  0  0  0
  -22.1913   -9.5478   21.1300 C   0  0  0  0  0  0  0  0  0  0  0  0
  -27.1547  -27.6491   19.0448 C   0  0  0  0  0  0  0  0  0  0  0  0
  -21.2688   -5.9342   22.2235 C   0  0  0  0  0  0  0  0  0  0  0  0
  -21.2195   -4.5723   22.5207 C   0  0  0  0  0  0  0  0  0  0  0  0
  -25.9058  -27.2835   21.0760 C   0  0  0  0  0  0  0  0  0  0  0  0
  -25.0386  -19.7496   17.7607 C   0  0  0  0  0  0  0  0  0  0  0  0
  -26.9252  -18.5719   18.7044 C   0  0  0  0  0  0  0  0  0  0  0  0
  -21.3710   -5.0811   24.8777 C   0  0  0  0  0  0  0  0  0  0  0  0
  -24.5439   -9.5654   20.5803 C   0  0  0  0  0  0  0  0  0  0  0  0
  -26.1132   -9.4416   18.5730 C   0  0  0  0  0  0  0  0  0  0  0  0
  -26.4827  -36.2665   23.6036 C   0  0  0  0  0  0  0  0  0  0  0  0
  -25.7513  -29.4160   19.9410 C   0  0  0  0  0  0  0  0  0  0  0  0
  -26.9878  -35.2118   22.8195 C   0  0  0  0  0  0  0  0  0  0  0  0
  -25.3727  -28.5793   21.0006 C   0  0  0  0  0  0  0  0  0  0  0  0
  -24.5483  -18.5502   17.2442 C   0  0  0  0  0  0  0  0  0  0  0  0
  -25.2465  -17.3617   17.4578 C   0  0  0  0  0  0  0  0  0  0  0  0
  -26.2271  -19.7604   18.4908 C   0  0  0  0  0  0  0  0  0  0  0  0
  -26.4350  -17.3725   18.1879 C   0  0  0  0  0  0  0  0  0  0  0  0
  -22.4428   -8.6621   22.1778 C   0  0  0  0  0  0  0  0  0  0  0  0
  -26.7932  -26.8219   20.1041 C   0  0  0  0  0  0  0  0  0  0  0  0
  -21.3693   -6.8696   23.2535 C   0  0  0  0  0  0  0  0  0  0  0  0
  -21.2706   -4.1457   23.8477 C   0  0  0  0  0  0  0  0  0  0  0  0
  -21.4204   -6.4430   24.5805 C   0  0  0  0  0  0  0  0  0  0  0  0
  -25.6287  -10.0327   19.7552 C   0  0  0  0  0  0  0  0  0  0  0  0
  -27.1407  -10.2616   18.1752 C   0  0  0  0  0  0  0  0  0  0  0  0
  -26.9922  -23.2669   19.5884 C   0  0  0  0  0  0  0  0  0  0  0  0
  -26.6116  -24.5485   19.5854 C   0  0  0  0  0  0  0  0  0  1  0  0
  -25.6737   -8.2572   17.8949 C   0  0  0  0  0  0  0  0  0  0  0  0
  -26.1601  -22.2408   18.8948 C   0  0  0  0  0  0  0  0  0  0  0  0
  -25.8139  -31.7939   22.0495 C   0  0  0  0  0  0  0  0  0  0  0  0
  -22.7571  -30.8618   22.6060 C   0  0  0  0  0  0  0  0  0  0  0  0
  -20.4155  -28.3823   22.4789 C   0  0  0  0  0  0  0  0  0  0  0  0
  -28.3555  -16.0353   19.1206 C   0  0  0  0  0  0  0  0  0  0  0  0
  -25.7896  -36.0154   24.9193 C   0  0  0  0  0  0  0  0  0  0  0  0
  -25.1769  -30.8010   19.8214 C   0  0  0  0  0  0  0  0  0  0  0  0
  -24.4134  -29.0362   22.0680 C   0  0  0  0  0  0  0  0  0  0  0  0
  -25.3105  -34.5762   25.0905 C   0  0  0  0  0  0  0  0  0  0  0  0
  -30.4336  -13.2611   19.9344 C   0  0  0  0  0  0  0  0  0  0  0  0
  -26.4095  -33.5966   24.6910 C   0  0  0  0  0  0  0  0  0  0  0  0
  -29.4827  -12.0638   19.8673 C   0  0  0  0  0  0  0  0  0  0  0  0
  -29.7438  -14.5022   20.4979 C   0  0  0  0  0  0  0  0  0  0  0  0
  -27.5426  -13.6798   19.7580 C   0  0  0  0  0  0  0  0  0  0  0  0
  -26.7883  -33.7646   23.2146 C   0  0  1  0  0  0  0  0  0  0  0  0
  -24.6879  -31.3622   21.1531 C   0  0  1  0  0  0  0  0  0  0  0  0
  -28.1743  -12.4236   19.1362 C   0  0  2  0  0  0  0  0  0  0  0  0
  -23.2729  -18.5661   16.4663 C   0  0  0  0  0  0  0  0  0  0  0  0
  -24.7157  -16.0775   16.9014 C   0  0  0  0  0  0  0  0  0  0  0  0
  -18.0157  -27.9086   23.0392 C   0  0  0  0  0  0  0  0  0  0  0  0
  -23.4903  -30.6549   25.5606 C   0  0  0  0  0  0  0  0  0  0  0  0
  -21.4121  -29.3032   25.9100 C   0  0  0  0  0  0  0  0  0  0  0  0
  -21.2450  -31.6604   25.1108 C   0  0  0  0  0  0  0  0  0  0  0  0
  -19.7486  -27.8068   19.6535 C   0  0  0  0  0  0  0  0  0  0  0  0
  -22.0927  -29.8744   23.5348 C   0  0  1  0  0  0  0  0  0  0  0  0
  -18.9873  -28.3710   21.9646 C   0  0  2  0  0  0  0  0  0  0  0  0
  -22.0796  -30.3650   25.0102 C   0  0  0  0  0  0  0  0  0  0  0  0
  -26.2939  -11.1424   20.0869 N   0  0  0  0  0  0  0  0  0  0  0  0
  -27.2069  -11.2551   19.1073 N   0  0  0  0  0  0  0  0  0  0  0  0
  -23.8838  -30.4009   21.9104 N   0  0  0  0  0  0  0  0  0  0  0  0
  -28.5145  -14.7844   19.7536 N   0  0  0  0  0  0  0  0  0  0  0  0
  -27.9851  -10.2225   17.1227 N   0  0  0  0  0  0  0  0  0  0  0  0
  -24.6046   -7.5331   18.4399 N   0  0  0  0  0  0  0  0  0  0  0  0
  -26.7257  -20.9785   19.0147 N   0  0  0  0  0  0  0  0  0  0  0  0
  -27.1607  -16.1770   18.4156 N   0  0  0  0  0  0  0  0  0  0  0  0
  -25.7981  -33.1393   22.3644 N   0  0  0  0  0  0  0  0  0  0  0  0
  -20.7686  -29.6180   22.9786 N   0  0  0  0  0  0  0  0  0  0  0  0
  -18.8652  -27.4554   20.7951 N   0  3  0  0  0  0  0  0  0  0  0  0
  -26.2237   -7.8440   16.8460 O   0  0  0  0  0  0  0  0  0  0  0  0
  -25.1246  -22.5482   18.3161 O   0  0  0  0  0  0  0  0  0  0  0  0
  -26.6352  -30.9673   22.4287 O   0  0  0  0  0  0  0  0  0  0  0  0
  -22.2892  -31.9978   22.4961 O   0  0  0  0  0  0  0  0  0  0  0  0
  -21.1437  -27.3929   22.4445 O   0  0  0  0  0  0  0  0  0  0  0  0
  -29.2278  -16.9060   19.1755 O   0  0  0  0  0  0  0  0  0  0  0  0
  -21.4174   -8.2214   22.9569 O   0  0  0  0  0  0  0  0  0  0  0  0
  -27.3011  -25.5623   20.1890 O   0  0  0  0  0  0  0  0  0  1  0  0
  -21.2216   -2.8379   24.1330 F   0  0  0  0  0  0  0  0  0  0  0  0
  -21.5157   -7.3370   25.5743 F   0  0  0  0  0  0  0  0  0  0  0  0
  1  2  1  0  0  0  0
  1  5  2  0  0  0  0
  2  6  2  0  0  0  0
  3  8  2  0  0  0  0
  3 17  1  0  0  0  0
  4  9  1  0  0  0  0
  4 17  2  0  0  0  0
  5 19  1  0  0  0  0
  6 21  1  0  0  0  0
  7 10  2  0  0  0  0
  7 20  1  0  0  0  0
  8 27  1  0  0  0  0
  9 27  2  0  0  0  0
 10 28  1  0  0  0  0
 11 12  2  0  0  0  0
 11 29  1  0  0  0  0
 12 30  1  0  0  0  0
 13 22  1  0  0  0  0
 13 28  2  0  0  0  0
 14 23  2  0  0  0  0
 14 25  1  0  0  0  0
 15 25  2  0  0  0  0
 15 26  1  0  0  0  0
 16 30  2  0  0  0  0
 16 31  1  0  0  0  0
 17 32  1  0  0  0  0
 18 32  1  0  0  0  0
 18 33  2  0  0  0  0
 18 36  1  0  0  0  0
 19 21  2  0  0  0  0
 19 42  1  0  0  0  0
 20 22  2  0  0  0  0
 20 43  1  0  0  0  0
 21 51  1  0  0  0  0
 22 44  1  0  0  0  0
 23 24  1  0  0  0  0
 23 54  1  0  0  0  0
 24 26  2  0  0  0  0
 24 55  1  0  0  0  0
 25 70  1  0  0  0  0
 26 71  1  0  0  0  0
 27 81  1  0  0  0  0
 28 82  1  0  0  0  0
 29 31  2  0  0  0  0
 29 81  1  0  0  0  0
 30 83  1  0  0  0  0
 31 84  1  0  0  0  0
 32 64  2  0  0  0  0
 33 65  1  0  0  0  0
 33 68  1  0  0  0  0
 34 35  2  0  0  0  0
 34 37  1  0  0  0  0
 35 82  1  0  0  0  0
 36 69  1  0  0  0  0
 36 75  2  0  0  0  0
 37 70  1  0  0  0  0
 37 76  2  0  0  0  0
 38 52  1  0  0  0  0
 38 72  1  0  0  0  0
 38 77  2  0  0  0  0
 39 61  1  0  0  0  0
 39 66  1  0  0  0  0
 39 78  2  0  0  0  0
 40 62  1  0  0  0  0
 40 73  1  0  0  0  0
 40 79  2  0  0  0  0
 41 67  1  0  0  0  0
 41 71  1  0  0  0  0
 41 80  2  0  0  0  0
 42 45  1  0  0  0  0
 43 52  1  0  0  0  0
 44 66  1  0  0  0  0
 45 47  1  0  0  0  0
 46 48  1  0  0  0  0
 46 49  1  0  0  0  0
 47 51  1  0  0  0  0
 48 53  1  0  0  0  0
 49 67  1  0  0  0  0
 50 53  1  0  0  0  0
 50 67  1  0  0  0  0
 51 72  1  0  0  0  0
 52 66  1  0  0  0  0
 53 65  1  0  0  0  0
 56 62  1  0  0  0  0
 57 63  1  0  0  0  0
 58 63  1  0  0  0  0
 59 63  1  0  0  0  0
 60 74  1  0  0  0  0
 61 63  1  0  0  0  0
 61 73  1  0  0  0  0
 62 74  1  0  0  0  0
 64 65  1  0  0  0  0
M  CHG  1  74   1
M  ISO  4  35 101  41 100  71 100  82 101
M  END
> <Batch ID>
0067

> <Smiles>
CNC(C)C(=O)NC(C(=O)N1Cc2cc([101O:1][101CH:1]=CC(=O)Nc3cc(C)c(C)c([100NH:0][100C:0](=O)N4CCCC(n5nc(-c6ccc(Oc7ccc(F)cc7F)cc6)c(C(N)=O)c5N)C4)c3)ccc2CC1C(=O)NC1CCCc2ccccc21)C(C)(C)C

> <Shape>
0.295

> <Color>
0.105

> <Negative vol penalty>
0.000

$$$$

  -OEChem-04042323243D

 85 93  0     1  0  0  0  0  0999 V2000
  -16.8781  -29.9847   23.1470 C   0  0  0  0  0  0  0  0  0  0  0  0
  -18.1390  -30.5566   23.0117 C   0  0  0  0  0  0  0  0  0  0  0  0
  -27.8661  -13.0186   22.2388 C   0  0  0  0  0  0  0  0  0  0  0  0
  -26.5349  -13.3482   20.2498 C   0  0  0  0  0  0  0  0  0  0  0  0
  -16.7469  -28.5987   23.2217 C   0  0  0  0  0  0  0  0  0  0  0  0
  -19.2697  -29.7427   22.9521 C   0  0  0  0  0  0  0  0  0  0  0  0
  -25.7671  -29.4238   19.9522 C   0  0  0  0  0  0  0  0  0  0  0  0
  -30.2864  -23.2591   16.9644 C   0  0  0  0  0  0  0  0  0  0  0  0
  -30.5888  -24.4432   17.6366 C   0  0  0  0  0  0  0  0  0  0  0  0
  -27.3122  -11.7485   22.3991 C   0  0  0  0  0  0  0  0  0  0  0  0
  -25.9810  -12.0781   20.4100 C   0  0  0  0  0  0  0  0  0  0  0  0
  -27.1048  -29.2370   20.2975 C   0  0  0  0  0  0  0  0  0  0  0  0
  -23.9495   -9.0656   20.4960 C   0  0  0  0  0  0  0  0  0  0  0  0
  -22.5702   -8.9347   20.3350 C   0  0  0  0  0  0  0  0  0  0  0  0
  -26.7502  -26.8516   20.3567 C   0  0  0  0  0  0  0  0  0  0  0  0
  -29.0352  -23.8459   19.3878 C   0  0  0  0  0  0  0  0  0  0  0  0
  -22.2110  -10.4917   22.1472 C   0  0  0  0  0  0  0  0  0  0  0  0
  -27.4773  -13.8185   21.1642 C   0  0  0  0  0  0  0  0  0  0  0  0
  -29.2097  -15.4676   20.2770 C   0  0  0  0  0  0  0  0  0  0  0  0
  -17.8757  -27.7670   23.1532 C   0  0  0  0  0  0  0  0  0  0  0  0
  -24.9067  -28.3248   19.8170 C   0  0  0  0  0  0  0  0  0  0  0  0
  -19.1536  -28.3443   23.0273 C   0  0  0  0  0  0  0  0  0  0  0  0
  -25.4026  -27.0270   20.0071 C   0  0  0  0  0  0  0  0  0  0  0  0
  -29.3583  -22.3684   17.5038 C   0  0  0  0  0  0  0  0  0  0  0  0
  -29.9633  -24.7366   18.8483 C   0  0  0  0  0  0  0  0  0  0  0  0
  -28.7327  -22.6618   18.7155 C   0  0  0  0  0  0  0  0  0  0  0  0
  -26.3697  -11.2782   21.4847 C   0  0  0  0  0  0  0  0  0  0  0  0
  -27.5959  -27.9510   20.5027 C   0  0  0  0  0  0  0  0  0  0  0  0
  -24.4596   -9.9094   21.4826 C   0  0  0  0  0  0  0  0  0  0  0  0
  -21.7009   -9.6478   21.1606 C   0  0  0  0  0  0  0  0  0  0  0  0
  -23.5904  -10.6225   22.3081 C   0  0  0  0  0  0  0  0  0  0  0  0
  -28.0487  -15.1308   20.9985 C   0  0  0  0  0  0  0  0  0  0  0  0
  -29.3234  -16.8283   20.4253 C   0  0  0  0  0  0  0  0  0  0  0  0
  -30.1052  -14.6257   19.5387 C   0  0  0  0  0  0  0  0  0  0  0  0
  -22.2570  -27.3567   21.2818 C   0  0  0  0  0  0  0  0  0  0  0  0
  -22.2779  -25.0792   18.9720 C   0  0  0  0  0  0  0  0  0  0  0  0
  -31.1643  -26.9314   19.1387 C   0  0  0  0  0  0  0  0  0  0  0  0
  -24.0771  -23.2580   16.7153 C   0  0  0  0  0  0  0  0  0  0  0  0
  -27.0858  -21.9267   20.4743 C   0  0  0  0  0  0  0  0  0  0  0  0
  -17.6881  -26.2763   23.2858 C   0  0  0  0  0  0  0  0  0  0  0  0
  -23.4728  -28.5414   19.4178 C   0  0  0  0  0  0  0  0  0  0  0  0
  -24.5250  -25.8125   19.8543 C   0  0  0  0  0  0  0  0  0  0  0  0
  -18.9030  -25.4675   22.8383 C   0  0  0  0  0  0  0  0  0  0  0  0
  -26.8578  -20.0268   23.4769 C   0  0  0  0  0  0  0  0  0  0  0  0
  -20.1821  -26.0572   23.4238 C   0  0  0  0  0  0  0  0  0  0  0  0
  -27.2428  -18.6114   23.0404 C   0  0  0  0  0  0  0  0  0  0  0  0
  -26.0487  -20.7512   22.4025 C   0  0  0  0  0  0  0  0  0  0  0  0
  -27.0517  -19.3598   20.6341 C   0  0  0  0  0  0  0  0  0  0  0  0
  -20.4018  -27.4937   22.9342 C   0  0  1  0  0  0  0  0  0  0  0  0
  -22.5616  -27.3827   19.8106 C   0  0  1  0  0  0  0  0  0  0  0  0
  -27.9232  -18.6136   21.6575 C   0  0  2  0  0  0  0  0  0  0  0  0
  -30.2883  -20.1993   16.6185 C   0  0  0  0  0  0  0  0  0  0  0  0
  -28.4366  -21.3767   15.3775 C   0  0  0  0  0  0  0  0  0  0  0  0
  -23.8248  -21.4468   14.9969 C   0  0  0  0  0  0  0  0  0  0  0  0
  -22.0845  -22.9994   21.1962 C   0  0  0  0  0  0  0  0  0  0  0  0
  -22.7860  -21.2611   19.5365 C   0  0  0  0  0  0  0  0  0  0  0  0
  -20.6613  -22.5229   19.1957 C   0  0  0  0  0  0  0  0  0  0  0  0
  -25.0047  -25.0346   14.5377 C   0  0  0  0  0  0  0  0  0  0  0  0
  -31.1927  -28.0581   20.1653 C   0  0  0  0  0  0  0  0  0  0  0  0
  -29.8395  -28.7260   20.3571 C   0  0  0  0  0  0  0  0  0  1  0  0
  -29.0538  -21.1076   16.7618 C   0  0  0  0  0  0  0  0  0  0  0  0
  -22.8714  -23.6976   18.8384 C   0  0  1  0  0  0  0  0  0  0  0  0
  -23.8339  -22.9463   15.2496 C   0  0  2  0  0  0  0  0  0  0  0  0
  -22.1171  -22.6431   19.6965 C   0  0  0  0  0  0  0  0  0  0  0  0
  -27.4666  -16.1921   21.5633 N   0  0  0  0  0  0  0  0  0  0  0  0
  -28.2651  -17.2090   21.1968 N   0  0  0  0  0  0  0  0  0  0  0  0
  -23.1288  -26.0767   19.4690 N   0  0  0  0  0  0  0  0  0  0  0  0
  -26.7570  -20.7166   21.1211 N   0  0  0  0  0  0  0  0  0  0  0  0
  -30.2246  -17.7244   19.9698 N   0  0  0  0  0  0  0  0  0  0  0  0
  -29.8406  -13.2503   19.4888 N   0  0  0  0  0  0  0  0  0  0  0  0
  -30.2705  -25.9382   19.5300 N   0  0  0  0  0  0  0  0  0  0  0  0
  -27.7871  -21.7697   19.2793 N   0  0  0  0  0  0  0  0  0  0  0  0
  -20.9149  -27.4935   21.5809 N   0  0  0  0  0  0  0  0  0  0  0  0
  -22.8947  -23.3998   17.4104 N   0  0  0  0  0  0  0  0  0  0  0  0
  -24.8990  -23.5587   14.4062 N   0  3  0  0  0  0  0  0  0  0  0  0
  -31.1192  -15.0775   18.9547 O   0  0  0  0  0  0  0  0  0  0  0  0
  -23.1717  -27.2211   22.0859 O   0  0  0  0  0  0  0  0  0  0  0  0
  -21.1048  -25.2682   18.6408 O   0  0  0  0  0  0  0  0  0  0  0  0
  -31.8569  -26.9527   18.1268 O   0  0  0  0  0  0  0  0  0  0  0  0
  -25.2034  -23.3614   17.1963 O   0  0  0  0  0  0  0  0  0  0  0  0
  -26.7923  -23.0224   20.9595 O   0  0  0  0  0  0  0  0  0  0  0  0
  -25.8292  -10.0388   21.6406 O   0  0  0  0  0  0  0  0  0  0  0  0
  -28.9011  -27.7658   20.8404 O   0  0  0  0  0  0  0  0  0  1  0  0
  -20.3764   -9.5232   21.0049 F   0  0  0  0  0  0  0  0  0  0  0  0
  -24.0745  -11.4356   23.2569 F   0  0  0  0  0  0  0  0  0  0  0  0
  1  2  1  0  0  0  0
  1  5  2  0  0  0  0
  2  6  2  0  0  0  0
  3 10  2  0  0  0  0
  3 18  1  0  0  0  0
  4 11  1  0  0  0  0
  4 18  2  0  0  0  0
  5 20  1  0  0  0  0
  6 22  1  0  0  0  0
  7 12  2  0  0  0  0
  7 21  1  0  0  0  0
  8  9  2  0  0  0  0
  8 24  1  0  0  0  0
  9 25  1  0  0  0  0
 10 27  1  0  0  0  0
 11 27  2  0  0  0  0
 12 28  1  0  0  0  0
 13 14  2  0  0  0  0
 13 29  1  0  0  0  0
 14 30  1  0  0  0  0
 15 23  1  0  0  0  0
 15 28  2  0  0  0  0
 16 25  2  0  0  0  0
 16 26  1  0  0  0  0
 17 30  2  0  0  0  0
 17 31  1  0  0  0  0
 18 32  1  0  0  0  0
 19 32  1  0  0  0  0
 19 33  2  0  0  0  0
 19 34  1  0  0  0  0
 20 22  2  0  0  0  0
 20 40  1  0  0  0  0
 21 23  2  0  0  0  0
 21 41  1  0  0  0  0
 22 49  1  0  0  0  0
 23 42  1  0  0  0  0
 24 26  2  0  0  0  0
 24 61  1  0  0  0  0
 25 71  1  0  0  0  0
 26 72  1  0  0  0  0
 27 82  1  0  0  0  0
 28 83  1  0  0  0  0
 29 31  2  0  0  0  0
 29 82  1  0  0  0  0
 30 84  1  0  0  0  0
 31 85  1  0  0  0  0
 32 65  2  0  0  0  0
 33 66  1  0  0  0  0
 33 69  1  0  0  0  0
 34 70  1  0  0  0  0
 34 76  2  0  0  0  0
 35 50  1  0  0  0  0
 35 73  1  0  0  0  0
 35 77  2  0  0  0  0
 36 62  1  0  0  0  0
 36 67  1  0  0  0  0
 36 78  2  0  0  0  0
 37 59  1  0  0  0  0
 37 71  1  0  0  0  0
 37 79  2  0  0  0  0
 38 63  1  0  0  0  0
 38 74  1  0  0  0  0
 38 80  2  0  0  0  0
 39 68  1  0  0  0  0
 39 72  1  0  0  0  0
 39 81  2  0  0  0  0
 40 43  1  0  0  0  0
 41 50  1  0  0  0  0
 42 67  1  0  0  0  0
 43 45  1  0  0  0  0
 44 46  1  0  0  0  0
 44 47  1  0  0  0  0
 45 49  1  0  0  0  0
 46 51  1  0  0  0  0
 47 68  1  0  0  0  0
 48 51  1  0  0  0  0
 48 68  1  0  0  0  0
 49 73  1  0  0  0  0
 50 67  1  0  0  0  0
 51 66  1  0  0  0  0
 52 61  1  0  0  0  0
 53 61  1  0  0  0  0
 54 63  1  0  0  0  0
 55 64  1  0  0  0  0
 56 64  1  0  0  0  0
 57 64  1  0  0  0  0
 58 75  1  0  0  0  0
 59 60  1  0  0  0  0
 60 83  1  0  0  0  0
 62 64  1  0  0  0  0
 62 74  1  0  0  0  0
 63 75  1  0  0  0  0
 65 66  1  0  0  0  0
M  CHG  1  75   1
M  ISO  4  39 100  60 101  72 100  83 101
M  END
> <Batch ID>
0067

> <Smiles>
CNC(C)C(=O)NC(C(=O)N1Cc2cc([101O:1][101CH2:1]CC(=O)Nc3ccc(C(C)C)c([100NH:0][100C:0](=O)N4CCCC(n5nc(-c6ccc(Oc7ccc(F)cc7F)cc6)c(C(N)=O)c5N)C4)c3)ccc2CC1C(=O)NC1CCCc2ccccc21)C(C)(C)C

> <Shape>
0.274

> <Color>
0.081

> <Negative vol penalty>
0.000

$$$$

  -OEChem-04042323243D

 84 92  0     1  0  0  0  0  0999 V2000
  -17.6166  -30.2363   19.8426 C   0  0  0  0  0  0  0  0  0  0  0  0
  -18.2373  -28.9913   19.8554 C   0  0  0  0  0  0  0  0  0  0  0  0
  -23.4386   -9.7573   21.3965 C   0  0  0  0  0  0  0  0  0  0  0  0
  -24.0020  -10.7557   23.5231 C   0  0  0  0  0  0  0  0  0  0  0  0
  -18.3173  -31.3676   20.2585 C   0  0  0  0  0  0  0  0  0  0  0  0
  -19.5595  -28.8771   20.2833 C   0  0  0  0  0  0  0  0  0  0  0  0
  -22.0477  -24.1906   23.3412 C   0  0  0  0  0  0  0  0  0  0  0  0
  -31.7293  -19.4100   21.9030 C   0  0  0  0  0  0  0  0  0  0  0  0
  -31.3257  -18.1722   21.4025 C   0  0  0  0  0  0  0  0  0  0  0  0
  -22.8177   -8.6980   22.0582 C   0  0  0  0  0  0  0  0  0  0  0  0
  -23.3811   -9.6965   24.1850 C   0  0  0  0  0  0  0  0  0  0  0  0
  -22.8121  -23.1006   22.9272 C   0  0  0  0  0  0  0  0  0  0  0  0
  -23.7510   -5.8651   23.6484 C   0  0  0  0  0  0  0  0  0  0  0  0
  -24.0152   -4.5734   23.1931 C   0  0  0  0  0  0  0  0  0  0  0  0
  -24.8243  -24.3033   23.4959 C   0  0  0  0  0  0  0  0  0  0  0  0
  -29.0162  -18.8670   21.5463 C   0  0  0  0  0  0  0  0  0  0  0  0
  -21.6646   -4.2540   22.7350 C   0  0  0  0  0  0  0  0  0  0  0  0
  -24.0309  -10.7861   22.1289 C   0  0  0  0  0  0  0  0  0  0  0  0
  -24.0817  -13.0900   21.0348 C   0  0  0  0  0  0  0  0  0  0  0  0
  -19.6456  -31.2658   20.7008 C   0  0  0  0  0  0  0  0  0  0  0  0
  -22.6674  -25.3513   23.8263 C   0  0  0  0  0  0  0  0  0  0  0  0
  -20.2791  -30.0084   20.7043 C   0  0  0  0  0  0  0  0  0  0  0  0
  -24.0655  -25.4057   23.9178 C   0  0  0  0  0  0  0  0  0  0  0  0
  -30.7763  -20.3763   22.2253 C   0  0  0  0  0  0  0  0  0  0  0  0
  -29.9692  -17.9007   21.2241 C   0  0  0  0  0  0  0  0  0  0  0  0
  -29.4198  -20.1048   22.0469 C   0  0  0  0  0  0  0  0  0  0  0  0
  -22.7889   -8.6676   23.4525 C   0  0  0  0  0  0  0  0  0  0  0  0
  -24.2007  -23.1579   23.0018 C   0  0  0  0  0  0  0  0  0  0  0  0
  -22.4435   -6.3513   23.6470 C   0  0  0  0  0  0  0  0  0  0  0  0
  -22.9721   -3.7679   22.7364 C   0  0  0  0  0  0  0  0  0  0  0  0
  -21.4004   -5.5458   23.1903 C   0  0  0  0  0  0  0  0  0  0  0  0
  -24.6729  -11.8803   21.4459 C   0  0  0  0  0  0  0  0  0  0  0  0
  -25.1041  -13.7864   20.4379 C   0  0  0  0  0  0  0  0  0  0  0  0
  -30.4724  -23.9271   21.8973 C   0  0  0  0  0  0  0  0  0  0  0  0
  -31.1707  -22.7972   21.7378 C   0  0  0  0  0  0  0  0  0  0  0  0
  -22.7294  -13.5437   21.1795 C   0  0  0  0  0  0  0  0  0  0  0  0
  -22.7671  -28.3924   22.9068 C   0  0  0  0  0  0  0  0  0  0  0  0
  -24.3768  -28.7772   25.6966 C   0  0  0  0  0  0  0  0  0  0  0  0
  -27.0580  -20.9507   22.2474 C   0  0  0  0  0  0  0  0  0  0  0  0
  -26.2921  -27.3821   28.1527 C   0  0  0  0  0  0  0  0  0  0  0  0
  -30.3764  -15.5746   20.3467 C   0  0  0  0  0  0  0  0  0  0  0  0
  -20.3775  -32.5239   21.0962 C   0  0  0  0  0  0  0  0  0  0  0  0
  -21.8278  -26.5083   24.2939 C   0  0  0  0  0  0  0  0  0  0  0  0
  -24.7787  -26.6208   24.4501 C   0  0  0  0  0  0  0  0  0  0  0  0
  -21.6550  -32.2615   21.8896 C   0  0  0  0  0  0  0  0  0  0  0  0
  -29.7517  -12.3031   19.0881 C   0  0  0  0  0  0  0  0  0  0  0  0
  -22.4793  -31.1627   21.2262 C   0  0  0  0  0  0  0  0  0  0  0  0
  -28.3260  -12.0010   19.5555 C   0  0  0  0  0  0  0  0  0  0  0  0
  -30.5320  -13.1041   20.1289 C   0  0  0  0  0  0  0  0  0  0  0  0
  -28.4463  -14.0301   21.0572 C   0  0  0  0  0  0  0  0  0  0  0  0
  -21.7041  -29.8402   21.1851 C   0  0  1  0  0  0  0  0  0  0  0  0
  -22.5823  -27.8343   24.2896 C   0  0  1  0  0  0  0  0  0  0  0  0
  -27.6004  -13.2809   20.0147 C   0  0  2  0  0  0  0  0  0  0  0  0
  -27.4883  -27.9556   30.2828 C   0  0  0  0  0  0  0  0  0  0  0  0
  -26.5942  -30.1198   24.0870 C   0  0  0  0  0  0  0  0  0  0  0  0
  -28.1144  -29.8065   26.0515 C   0  0  0  0  0  0  0  0  0  0  0  0
  -26.0739  -31.2248   26.2694 C   0  0  0  0  0  0  0  0  0  0  0  0
  -24.6469  -25.4881   29.7228 C   0  0  0  0  0  0  0  0  0  0  0  0
  -31.2375  -21.6934   22.7596 C   0  0  0  0  0  0  0  0  0  0  0  0
  -26.3667  -22.2227   22.7018 C   0  0  0  0  0  0  0  0  0  1  0  0
  -25.8269  -28.7136   26.1118 C   0  0  1  0  0  0  0  0  0  0  0  0
  -26.1942  -27.4481   29.6662 C   0  0  2  0  0  0  0  0  0  0  0  0
  -26.6393  -29.9438   25.6180 C   0  0  0  0  0  0  0  0  0  0  0  0
  -25.9702  -11.8091   21.1362 N   0  0  0  0  0  0  0  0  0  0  0  0
  -26.2027  -12.9827   20.5241 N   0  0  0  0  0  0  0  0  0  0  0  0
  -23.9141  -27.7287   24.8890 N   0  0  0  0  0  0  0  0  0  0  0  0
  -29.7855  -14.3042   20.5130 N   0  0  0  0  0  0  0  0  0  0  0  0
  -25.1616  -15.0017   19.8529 N   0  0  0  0  0  0  0  0  0  0  0  0
  -21.8073  -12.7029   21.8177 N   0  0  0  0  0  0  0  0  0  0  0  0
  -28.4381  -21.0721   22.3681 N   0  0  0  0  0  0  0  0  0  0  0  0
  -29.5598  -16.6430   20.7156 N   0  0  0  0  0  0  0  0  0  0  0  0
  -21.7288  -29.1993   22.4824 N   0  0  0  0  0  0  0  0  0  0  0  0
  -25.8294  -28.5380   27.5601 N   0  0  0  0  0  0  0  0  0  0  0  0
  -25.9049  -26.0975   30.2259 N   0  3  0  0  0  0  0  0  0  0  0  0
  -22.3460  -14.6546   20.7410 O   0  0  0  0  0  0  0  0  0  0  0  0
  -23.7777  -28.1128   22.2726 O   0  0  0  0  0  0  0  0  0  0  0  0
  -23.6786  -29.7188   26.0808 O   0  0  0  0  0  0  0  0  0  0  0  0
  -26.4221  -19.9843   21.8398 O   0  0  0  0  0  0  0  0  0  0  0  0
  -26.7381  -26.4046   27.5560 O   0  0  0  0  0  0  0  0  0  0  0  0
  -31.5123  -15.7064   19.8836 O   0  0  0  0  0  0  0  0  0  0  0  0
  -22.1829   -7.6342   24.0986 O   0  0  0  0  0  0  0  0  0  0  0  0
  -24.9491  -22.0956   22.5978 O   0  0  0  0  0  0  0  0  0  1  0  0
  -23.2262   -2.5280   22.2978 F   0  0  0  0  0  0  0  0  0  0  0  0
  -20.1424   -6.0077   23.1855 F   0  0  0  0  0  0  0  0  0  0  0  0
  1  2  1  0  0  0  0
  1  5  2  0  0  0  0
  2  6  2  0  0  0  0
  3 10  2  0  0  0  0
  3 18  1  0  0  0  0
  4 11  1  0  0  0  0
  4 18  2  0  0  0  0
  5 20  1  0  0  0  0
  6 22  1  0  0  0  0
  7 12  2  0  0  0  0
  7 21  1  0  0  0  0
  8  9  2  0  0  0  0
  8 24  1  0  0  0  0
  9 25  1  0  0  0  0
 10 27  1  0  0  0  0
 11 27  2  0  0  0  0
 12 28  1  0  0  0  0
 13 14  2  0  0  0  0
 13 29  1  0  0  0  0
 14 30  1  0  0  0  0
 15 23  1  0  0  0  0
 15 28  2  0  0  0  0
 16 25  2  0  0  0  0
 16 26  1  0  0  0  0
 17 30  2  0  0  0  0
 17 31  1  0  0  0  0
 18 32  1  0  0  0  0
 19 32  1  0  0  0  0
 19 33  2  0  0  0  0
 19 36  1  0  0  0  0
 20 22  2  0  0  0  0
 20 42  1  0  0  0  0
 21 23  2  0  0  0  0
 21 43  1  0  0  0  0
 22 51  1  0  0  0  0
 23 44  1  0  0  0  0
 24 26  2  0  0  0  0
 24 59  1  0  0  0  0
 25 71  1  0  0  0  0
 26 70  1  0  0  0  0
 27 81  1  0  0  0  0
 28 82  1  0  0  0  0
 29 31  2  0  0  0  0
 29 81  1  0  0  0  0
 30 83  1  0  0  0  0
 31 84  1  0  0  0  0
 32 64  2  0  0  0  0
 33 65  1  0  0  0  0
 33 68  1  0  0  0  0
 34 35  2  0  0  0  0
 35 59  1  0  0  0  0
 36 69  1  0  0  0  0
 36 75  2  0  0  0  0
 37 52  1  0  0  0  0
 37 72  1  0  0  0  0
 37 76  2  0  0  0  0
 38 61  1  0  0  0  0
 38 66  1  0  0  0  0
 38 77  2  0  0  0  0
 39 60  1  0  0  0  0
 39 70  1  0  0  0  0
 39 78  2  0  0  0  0
 40 62  1  0  0  0  0
 40 73  1  0  0  0  0
 40 79  2  0  0  0  0
 41 67  1  0  0  0  0
 41 71  1  0  0  0  0
 41 80  2  0  0  0  0
 42 45  1  0  0  0  0
 43 52  1  0  0  0  0
 44 66  1  0  0  0  0
 45 47  1  0  0  0  0
 46 48  1  0  0  0  0
 46 49  1  0  0  0  0
 47 51  1  0  0  0  0
 48 53  1  0  0  0  0
 49 67  1  0  0  0  0
 50 53  1  0  0  0  0
 50 67  1  0  0  0  0
 51 72  1  0  0  0  0
 52 66  1  0  0  0  0
 53 65  1  0  0  0  0
 54 62  1  0  0  0  0
 55 63  1  0  0  0  0
 56 63  1  0  0  0  0
 57 63  1  0  0  0  0
 58 74  1  0  0  0  0
 60 82  1  0  0  0  0
 61 63  1  0  0  0  0
 61 73  1  0  0  0  0
 62 74  1  0  0  0  0
 64 65  1  0  0  0  0
M  CHG  1  74   1
M  ISO  4  41 100  60 101  71 100  82 101
M  END
> <Batch ID>
0067

> <Smiles>
C=CCc1ccc([100NH:0][100C:0](=O)N2CCCC(n3nc(-c4ccc(Oc5ccc(F)cc5F)cc4)c(C(N)=O)c3N)C2)cc1NC(=O)[101CH2:1][101O:1]c1ccc2c(c1)CN(C(=O)C(NC(=O)C(C)NC)C(C)(C)C)C(C(=O)NC1CCCc3ccccc31)C2

> <Shape>
0.228

> <Color>
0.151

> <Negative vol penalty>
0.000

$$$$

  -OEChem-04042323243D

 86 94  0     1  0  0  0  0  0999 V2000
  -23.9334   -8.0464   22.0559 C   0  0  0  0  0  0  0  0  0  0  0  0
  -24.6198   -9.0708   21.4118 C   0  0  0  0  0  0  0  0  0  0  0  0
  -21.9905  -28.3420   21.3589 C   0  0  0  0  0  0  0  0  0  0  0  0
  -22.9592  -27.3673   23.3460 C   0  0  0  0  0  0  0  0  0  0  0  0
  -22.5744   -8.1867   22.3342 C   0  0  0  0  0  0  0  0  0  0  0  0
  -23.9472  -10.2358   21.0446 C   0  0  0  0  0  0  0  0  0  0  0  0
  -26.5586  -14.4248   22.1750 C   0  0  0  0  0  0  0  0  0  0  0  0
  -20.7200  -28.2308   21.9237 C   0  0  0  0  0  0  0  0  0  0  0  0
  -21.6887  -27.2561   23.9108 C   0  0  0  0  0  0  0  0  0  0  0  0
  -27.6073  -14.7705   21.3238 C   0  0  0  0  0  0  0  0  0  0  0  0
  -18.8499  -29.8951   24.1966 C   0  0  0  0  0  0  0  0  0  0  0  0
  -17.9955  -30.9926   24.0915 C   0  0  0  0  0  0  0  0  0  0  0  0
  -29.3016  -22.2899   22.9469 C   0  0  0  0  0  0  0  0  0  0  0  0
  -26.1869  -16.3931   20.2426 C   0  0  0  0  0  0  0  0  0  0  0  0
  -29.5466  -21.0042   20.9161 C   0  0  0  0  0  0  0  0  0  0  0  0
  -16.4018  -29.6361   22.8842 C   0  0  0  0  0  0  0  0  0  0  0  0
  -23.1101  -27.9102   22.0700 C   0  0  0  0  0  0  0  0  0  0  0  0
  -29.7002  -21.1829   23.6959 C   0  0  0  0  0  0  0  0  0  0  0  0
  -25.3072  -29.1146   21.5907 C   0  0  0  0  0  0  0  0  0  0  0  0
  -21.8871   -9.3580   21.9789 C   0  0  0  0  0  0  0  0  0  0  0  0
  -25.3108  -15.0541   22.0590 C   0  0  0  0  0  0  0  0  0  0  0  0
  -22.5775  -10.3914   21.3172 C   0  0  0  0  0  0  0  0  0  0  0  0
  -25.1248  -16.0554   21.0953 C   0  0  0  0  0  0  0  0  0  0  0  0
  -29.2247  -22.2006   21.5570 C   0  0  0  0  0  0  0  0  0  0  0  0
  -29.9452  -19.8971   21.6652 C   0  0  0  0  0  0  0  0  0  0  0  0
  -20.5691  -27.6878   23.1997 C   0  0  0  0  0  0  0  0  0  0  0  0
  -27.4207  -15.7527   20.3555 C   0  0  0  0  0  0  0  0  0  0  0  0
  -18.4804  -28.6682   23.6454 C   0  0  0  0  0  0  0  0  0  0  0  0
  -16.7714  -30.8631   23.4354 C   0  0  0  0  0  0  0  0  0  0  0  0
  -17.2563  -28.5387   22.9893 C   0  0  0  0  0  0  0  0  0  0  0  0
  -30.0220  -19.9865   23.0551 C   0  0  0  0  0  0  0  0  0  0  0  0
  -24.4228  -28.0243   21.4869 C   0  0  0  0  0  0  0  0  0  0  0  0
  -26.4100  -28.7324   20.8666 C   0  0  0  0  0  0  0  0  0  0  0  0
  -29.7791  -21.2799   25.1451 C   0  0  0  0  0  0  0  0  0  0  0  0
  -25.1465  -30.3614   22.2802 C   0  0  0  0  0  0  0  0  0  0  0  0
  -22.3609  -14.0794   21.3867 C   0  0  0  0  0  0  0  0  0  0  0  0
  -21.6014  -17.1507   22.1024 C   0  0  0  0  0  0  0  0  0  0  0  0
  -30.2481  -18.4236   19.6450 C   0  0  0  0  0  0  0  0  0  0  0  0
  -22.6093  -20.4016   22.3526 C   0  0  0  0  0  0  0  0  0  0  0  0
  -28.6911  -23.4051   19.4097 C   0  0  0  0  0  0  0  0  0  0  0  0
  -20.4075   -9.4445   22.2582 C   0  0  0  0  0  0  0  0  0  0  0  0
  -24.1978  -14.6887   23.0025 C   0  0  0  0  0  0  0  0  0  0  0  0
  -23.8106  -16.7754   20.9432 C   0  0  0  0  0  0  0  0  0  0  0  0
  -19.8533  -10.8642   22.1715 C   0  0  0  0  0  0  0  0  0  0  0  0
  -27.6874  -25.9783   17.1628 C   0  0  0  0  0  0  0  0  0  0  0  0
  -20.3599  -11.5591   20.9116 C   0  0  0  0  0  0  0  0  0  0  0  0
  -26.8218  -26.8975   18.0277 C   0  0  0  0  0  0  0  0  0  0  0  0
  -27.4962  -24.5080   17.5306 C   0  0  0  0  0  0  0  0  0  0  0  0
  -26.8130  -25.1144   19.8186 C   0  0  0  0  0  0  0  0  0  0  0  0
  -21.8884  -11.6805   20.9253 C   0  0  1  0  0  0  0  0  0  0  0  0
  -22.8151  -15.0316   22.4566 C   0  0  1  0  0  0  0  0  0  0  0  0
  -27.0200  -26.6100   19.5289 C   0  0  2  0  0  0  0  0  0  0  0  0
  -21.7547  -22.6905   22.9254 C   0  0  0  0  0  0  0  0  0  0  0  0
  -20.2071  -17.3057   19.3928 C   0  0  0  0  0  0  0  0  0  0  0  0
  -20.2177  -19.8000   19.6081 C   0  0  0  0  0  0  0  0  0  0  0  0
  -18.9732  -18.4121   21.2657 C   0  0  0  0  0  0  0  0  0  0  0  0
  -24.5034  -20.6704   24.6107 C   0  0  0  0  0  0  0  0  0  0  0  0
  -30.6717  -16.9855   19.3690 C   0  0  0  0  0  0  0  0  0  0  0  0
  -29.7681  -15.9582   20.0339 C   0  0  0  0  0  0  0  0  0  1  0  0
  -21.5008  -18.4375   21.3193 C   0  0  1  0  0  0  0  0  0  0  0  0
  -22.4253  -21.4315   23.4526 C   0  0  2  0  0  0  0  0  0  0  0  0
  -20.2490  -18.4741   20.3978 C   0  0  0  0  0  0  0  0  0  0  0  0
  -24.9205  -27.0245   20.7544 N   0  0  0  0  0  0  0  0  0  0  0  0
  -26.1297  -27.4851   20.3913 N   0  0  0  0  0  0  0  0  0  0  0  0
  -22.7510  -16.3782   21.8850 N   0  0  0  0  0  0  0  0  0  0  0  0
  -27.7038  -24.3107   18.9669 N   0  0  0  0  0  0  0  0  0  0  0  0
  -27.5822  -29.3449   20.5964 N   0  0  0  0  0  0  0  0  0  0  0  0
  -30.1817  -20.1486   25.8487 N   0  0  0  0  0  0  0  0  0  0  0  0
  -23.9511  -30.5915   22.9749 N   0  0  0  0  0  0  0  0  0  0  0  0
  -30.2708  -18.6843   21.0125 N   0  0  0  0  0  0  0  0  0  0  0  0
  -28.8199  -23.3252   20.7959 N   0  0  0  0  0  0  0  0  0  0  0  0
  -22.3019  -12.7607   21.7952 N   0  0  0  0  0  0  0  0  0  0  0  0
  -21.5531  -19.5169   22.2994 N   0  0  0  0  0  0  0  0  0  0  0  0
  -23.7444  -21.8098   24.0338 N   0  3  0  0  0  0  0  0  0  0  0  0
  -29.4819  -22.3298   25.7414 O   0  0  0  0  0  0  0  0  0  0  0  0
  -26.0298  -31.2520   22.2665 O   0  0  0  0  0  0  0  0  0  0  0  0
  -22.0832  -14.5095   20.2733 O   0  0  0  0  0  0  0  0  0  0  0  0
  -20.6967  -16.8459   22.8836 O   0  0  0  0  0  0  0  0  0  0  0  0
  -29.9404  -19.1977   18.7448 O   0  0  0  0  0  0  0  0  0  0  0  0
  -23.5900  -20.3860   21.6119 O   0  0  0  0  0  0  0  0  0  0  0  0
  -29.3906  -22.7691   18.6172 O   0  0  0  0  0  0  0  0  0  0  0  0
  -19.3295  -27.5793   23.7512 O   0  0  0  0  0  0  0  0  0  0  0  0
  -28.4424  -16.0916   19.5229 O   0  0  0  0  0  0  0  0  0  1  0  0
  -15.9503  -31.9167   23.3359 F   0  0  0  0  0  0  0  0  0  0  0  0
  -16.8953  -27.3622   22.4588 F   0  0  0  0  0  0  0  0  0  0  0  0
  -30.4054  -18.9215   23.7759 F   0  0  0  0  0  0  0  0  0  0  0  0
  1  2  1  0  0  0  0
  1  5  2  0  0  0  0
  2  6  2  0  0  0  0
  3  8  2  0  0  0  0
  3 17  1  0  0  0  0
  4  9  1  0  0  0  0
  4 17  2  0  0  0  0
  5 20  1  0  0  0  0
  6 22  1  0  0  0  0
  7 10  2  0  0  0  0
  7 21  1  0  0  0  0
  8 26  1  0  0  0  0
  9 26  2  0  0  0  0
 10 27  1  0  0  0  0
 11 12  2  0  0  0  0
 11 28  1  0  0  0  0
 12 29  1  0  0  0  0
 13 18  2  0  0  0  0
 13 24  1  0  0  0  0
 14 23  1  0  0  0  0
 14 27  2  0  0  0  0
 15 24  2  0  0  0  0
 15 25  1  0  0  0  0
 16 29  2  0  0  0  0
 16 30  1  0  0  0  0
 17 32  1  0  0  0  0
 18 31  1  0  0  0  0
 18 34  1  0  0  0  0
 19 32  1  0  0  0  0
 19 33  2  0  0  0  0
 19 35  1  0  0  0  0
 20 22  2  0  0  0  0
 20 41  1  0  0  0  0
 21 23  2  0  0  0  0
 21 42  1  0  0  0  0
 22 50  1  0  0  0  0
 23 43  1  0  0  0  0
 24 71  1  0  0  0  0
 25 31  2  0  0  0  0
 25 70  1  0  0  0  0
 26 82  1  0  0  0  0
 27 83  1  0  0  0  0
 28 30  2  0  0  0  0
 28 82  1  0  0  0  0
 29 84  1  0  0  0  0
 30 85  1  0  0  0  0
 31 86  1  0  0  0  0
 32 63  2  0  0  0  0
 33 64  1  0  0  0  0
 33 67  1  0  0  0  0
 34 68  1  0  0  0  0
 34 75  2  0  0  0  0
 35 69  1  0  0  0  0
 35 76  2  0  0  0  0
 36 51  1  0  0  0  0
 36 72  1  0  0  0  0
 36 77  2  0  0  0  0
 37 60  1  0  0  0  0
 37 65  1  0  0  0  0
 37 78  2  0  0  0  0
 38 58  1  0  0  0  0
 38 70  1  0  0  0  0
 38 79  2  0  0  0  0
 39 61  1  0  0  0  0
 39 73  1  0  0  0  0
 39 80  2  0  0  0  0
 40 66  1  0  0  0  0
 40 71  1  0  0  0  0
 40 81  2  0  0  0  0
 41 44  1  0  0  0  0
 42 51  1  0  0  0  0
 43 65  1  0  0  0  0
 44 46  1  0  0  0  0
 45 47  1  0  0  0  0
 45 48  1  0  0  0  0
 46 50  1  0  0  0  0
 47 52  1  0  0  0  0
 48 66  1  0  0  0  0
 49 52  1  0  0  0  0
 49 66  1  0  0  0  0
 50 72  1  0  0  0  0
 51 65  1  0  0  0  0
 52 64  1  0  0  0  0
 53 61  1  0  0  0  0
 54 62  1  0  0  0  0
 55 62  1  0  0  0  0
 56 62  1  0  0  0  0
 57 74  1  0  0  0  0
 58 59  1  0  0  0  0
 59 83  1  0  0  0  0
 60 62  1  0  0  0  0
 60 73  1  0  0  0  0
 61 74  1  0  0  0  0
 63 64  1  0  0  0  0
M  CHG  1  74   1
M  ISO  4  40 100  59 101  71 100  83 101
M  END
> <Batch ID>
0067

> <Smiles>
CNC(C)C(=O)NC(C(=O)N1Cc2cc([101O:1][101CH2:1]CC(=O)Nc3cc([100NH:0][100C:0](=O)N4CCCC(n5nc(-c6ccc(Oc7ccc(F)cc7F)cc6)c(C(N)=O)c5N)C4)cc(C(N)=O)c3F)ccc2CC1C(=O)NC1CCCc2ccccc21)C(C)(C)C

> <Shape>
0.245

> <Color>
0.083

> <Negative vol penalty>
0.000

$$$$

  -OEChem-04042323243D

 84 92  0     1  0  0  0  0  0999 V2000
  -22.8197  -29.0476   12.2777 C   0  0  0  0  0  0  0  0  0  0  0  0
  -22.4425  -29.2619   13.5995 C   0  0  0  0  0  0  0  0  0  0  0  0
  -26.5106  -13.5829   20.1092 C   0  0  0  0  0  0  0  0  0  0  0  0
  -24.3149  -13.8844   21.0711 C   0  0  0  0  0  0  0  0  0  0  0  0
  -23.7541  -28.0589   11.9722 C   0  0  0  0  0  0  0  0  0  0  0  0
  -22.9987  -28.4868   14.6165 C   0  0  0  0  0  0  0  0  0  0  0  0
  -24.3276  -30.2942   20.3151 C   0  0  0  0  0  0  0  0  0  0  0  0
  -26.4927  -12.2409   20.4890 C   0  0  0  0  0  0  0  0  0  0  0  0
  -24.2970  -12.5423   21.4509 C   0  0  0  0  0  0  0  0  0  0  0  0
  -23.6481  -30.1579   21.5248 C   0  0  0  0  0  0  0  0  0  0  0  0
  -23.7353   -9.5485   19.9873 C   0  0  0  0  0  0  0  0  0  0  0  0
  -22.5686   -8.8234   19.7449 C   0  0  0  0  0  0  0  0  0  0  0  0
  -24.9607  -28.1993   22.0346 C   0  0  0  0  0  0  0  0  0  0  0  0
  -20.8681  -25.2051   20.7353 C   0  0  0  0  0  0  0  0  0  0  0  0
  -22.0094  -23.2672   19.8529 C   0  0  0  0  0  0  0  0  0  0  0  0
  -22.8811  -24.3994   21.8010 C   0  0  0  0  0  0  0  0  0  0  0  0
  -22.3515   -8.3819   22.1103 C   0  0  0  0  0  0  0  0  0  0  0  0
  -25.4216  -14.4047   20.4003 C   0  0  0  0  0  0  0  0  0  0  0  0
  -24.9826  -16.3377   18.7945 C   0  0  0  0  0  0  0  0  0  0  0  0
  -24.3292  -27.2778   12.9869 C   0  0  0  0  0  0  0  0  0  0  0  0
  -25.3229  -29.3762   19.9504 C   0  0  0  0  0  0  0  0  0  0  0  0
  -23.9407  -27.4858   14.3241 C   0  0  0  0  0  0  0  0  0  0  0  0
  -25.6532  -28.3276   20.8208 C   0  0  0  0  0  0  0  0  0  0  0  0
  -20.9580  -24.1817   19.7918 C   0  0  0  0  0  0  0  0  0  0  0  0
  -21.8297  -25.3140   21.7399 C   0  0  0  0  0  0  0  0  0  0  0  0
  -22.9710  -23.3760   20.8575 C   0  0  0  0  0  0  0  0  0  0  0  0
  -25.3860  -11.7206   21.1598 C   0  0  0  0  0  0  0  0  0  0  0  0
  -23.9626  -29.1087   22.3835 C   0  0  0  0  0  0  0  0  0  0  0  0
  -24.2101   -9.6902   21.2912 C   0  0  0  0  0  0  0  0  0  0  0  0
  -21.8767   -8.2401   20.8064 C   0  0  0  0  0  0  0  0  0  0  0  0
  -23.5182   -9.1069   22.3527 C   0  0  0  0  0  0  0  0  0  0  0  0
  -25.4397  -15.7912   20.0087 C   0  0  0  0  0  0  0  0  0  0  0  0
  -25.2190  -17.6854   18.9140 C   0  0  0  0  0  0  0  0  0  0  0  0
  -24.3966  -15.6854   17.6601 C   0  0  0  0  0  0  0  0  0  0  0  0
  -25.7017  -27.3069   17.5675 C   0  0  0  0  0  0  0  0  0  0  0  0
  -28.6386  -26.9190   18.8891 C   0  0  0  0  0  0  0  0  0  0  0  0
  -20.7628  -27.3424   22.7847 C   0  0  0  0  0  0  0  0  0  0  0  0
  -30.6233  -27.1453   21.6561 C   0  0  0  0  0  0  0  0  0  0  0  0
  -25.0770  -22.4141   21.8504 C   0  0  0  0  0  0  0  0  0  0  0  0
  -25.2997  -26.1891   12.6030 C   0  0  0  0  0  0  0  0  0  0  0  0
  -26.0652  -29.5526   18.6542 C   0  0  0  0  0  0  0  0  0  0  0  0
  -26.7278  -27.3271   20.4853 C   0  0  0  0  0  0  0  0  0  0  0  0
  -26.1214  -25.6636   13.7774 C   0  0  0  0  0  0  0  0  0  0  0  0
  -27.8739  -20.2710   22.3619 C   0  0  0  0  0  0  0  0  0  0  0  0
  -25.2223  -25.3946   14.9799 C   0  0  0  0  0  0  0  0  0  0  0  0
  -27.4523  -18.9594   21.6954 C   0  0  0  0  0  0  0  0  0  0  0  0
  -26.6975  -20.9613   23.0498 C   0  0  0  0  0  0  0  0  0  0  0  0
  -25.0972  -19.8617   21.5335 C   0  0  0  0  0  0  0  0  0  0  0  0
  -24.5401  -26.6822   15.4577 C   0  0  1  0  0  0  0  0  0  0  0  0
  -26.7042  -28.2618   18.1511 C   0  0  1  0  0  0  0  0  0  0  0  0
  -26.2351  -19.1623   20.7720 C   0  0  2  0  0  0  0  0  0  0  0  0
  -19.9302  -24.0665   18.7170 C   0  0  0  0  0  0  0  0  0  0  0  0
  -32.9703  -26.7217   22.4369 C   0  0  0  0  0  0  0  0  0  0  0  0
  -21.8567  -30.5449   24.6532 C   0  0  0  0  0  0  0  0  0  0  0  0
  -28.0674  -23.9229   18.9729 C   0  0  0  0  0  0  0  0  0  0  0  0
  -29.9684  -23.6762   20.5834 C   0  0  0  0  0  0  0  0  0  0  0  0
  -30.3931  -24.5224   18.2755 C   0  0  0  0  0  0  0  0  0  0  0  0
  -31.0345  -29.9957   22.3379 C   0  0  0  0  0  0  0  0  0  0  0  0
  -21.0425  -28.2635   23.9682 C   0  0  0  0  0  0  0  0  0  0  0  0
  -29.2238  -26.0155   19.9475 C   0  0  1  0  0  0  0  0  0  0  0  0
  -32.0034  -27.7438   21.8596 C   0  0  2  0  0  0  0  0  0  0  0  0
  -21.9524  -29.4388   23.6106 C   0  0  2  0  0  0  0  0  0  1  0  0
  -29.3915  -24.5518   19.4506 C   0  0  0  0  0  0  0  0  0  0  0  0
  -25.9296  -16.7162   20.8384 N   0  0  0  0  0  0  0  0  0  0  0  0
  -25.7818  -17.8575   20.1444 N   0  0  0  0  0  0  0  0  0  0  0  0
  -27.4207  -27.5384   19.2035 N   0  0  0  0  0  0  0  0  0  0  0  0
  -25.5832  -21.1236   22.1133 N   0  0  0  0  0  0  0  0  0  0  0  0
  -24.9985  -18.7281   18.0855 N   0  0  0  0  0  0  0  0  0  0  0  0
  -24.2256  -14.2950   17.7035 N   0  0  0  0  0  0  0  0  0  0  0  0
  -21.7381  -26.3526   22.6968 N   0  0  0  0  0  0  0  0  0  0  0  0
  -24.0398  -22.4478   20.9188 N   0  0  0  0  0  0  0  0  0  0  0  0
  -25.4667  -27.4927   16.2186 N   0  0  0  0  0  0  0  0  0  0  0  0
  -30.4663  -26.6456   20.3806 N   0  0  0  0  0  0  0  0  0  0  0  0
  -31.9327  -28.9034   22.7930 N   0  3  0  0  0  0  0  0  0  0  0  0
  -24.0505  -16.3147   16.6317 O   0  0  0  0  0  0  0  0  0  0  0  0
  -25.1810  -26.4629   18.2875 O   0  0  0  0  0  0  0  0  0  0  0  0
  -29.2434  -27.0752   17.8254 O   0  0  0  0  0  0  0  0  0  0  0  0
  -19.7958  -27.5012   22.0473 O   0  0  0  0  0  0  0  0  0  0  0  0
  -29.7712  -27.1199   22.5414 O   0  0  0  0  0  0  0  0  0  0  0  0
  -25.5484  -23.4184   22.3899 O   0  0  0  0  0  0  0  0  0  0  0  0
  -25.3681  -10.4110   21.5304 O   0  0  0  0  0  0  0  0  0  0  0  0
  -23.3004  -28.9730   23.5645 O   0  0  0  0  0  0  0  0  0  1  0  0
  -20.7556   -7.5452   20.5736 F   0  0  0  0  0  0  0  0  0  0  0  0
  -23.9689   -9.2407   23.6076 F   0  0  0  0  0  0  0  0  0  0  0  0
  1  2  1  0  0  0  0
  1  5  2  0  0  0  0
  2  6  2  0  0  0  0
  3  8  2  0  0  0  0
  3 18  1  0  0  0  0
  4  9  1  0  0  0  0
  4 18  2  0  0  0  0
  5 20  1  0  0  0  0
  6 22  1  0  0  0  0
  7 10  2  0  0  0  0
  7 21  1  0  0  0  0
  8 27  1  0  0  0  0
  9 27  2  0  0  0  0
 10 28  1  0  0  0  0
 11 12  2  0  0  0  0
 11 29  1  0  0  0  0
 12 30  1  0  0  0  0
 13 23  1  0  0  0  0
 13 28  2  0  0  0  0
 14 24  2  0  0  0  0
 14 25  1  0  0  0  0
 15 24  1  0  0  0  0
 15 26  2  0  0  0  0
 16 25  2  0  0  0  0
 16 26  1  0  0  0  0
 17 30  2  0  0  0  0
 17 31  1  0  0  0  0
 18 32  1  0  0  0  0
 19 32  1  0  0  0  0
 19 33  2  0  0  0  0
 19 34  1  0  0  0  0
 20 22  2  0  0  0  0
 20 40  1  0  0  0  0
 21 23  2  0  0  0  0
 21 41  1  0  0  0  0
 22 49  1  0  0  0  0
 23 42  1  0  0  0  0
 24 52  1  0  0  0  0
 25 70  1  0  0  0  0
 26 71  1  0  0  0  0
 27 81  1  0  0  0  0
 28 82  1  0  0  0  0
 29 31  2  0  0  0  0
 29 81  1  0  0  0  0
 30 83  1  0  0  0  0
 31 84  1  0  0  0  0
 32 64  2  0  0  0  0
 33 65  1  0  0  0  0
 33 68  1  0  0  0  0
 34 69  1  0  0  0  0
 34 75  2  0  0  0  0
 35 50  1  0  0  0  0
 35 72  1  0  0  0  0
 35 76  2  0  0  0  0
 36 60  1  0  0  0  0
 36 66  1  0  0  0  0
 36 77  2  0  0  0  0
 37 59  1  0  0  0  0
 37 70  1  0  0  0  0
 37 78  2  0  0  0  0
 38 61  1  0  0  0  0
 38 73  1  0  0  0  0
 38 79  2  0  0  0  0
 39 67  1  0  0  0  0
 39 71  1  0  0  0  0
 39 80  2  0  0  0  0
 40 43  1  0  0  0  0
 41 50  1  0  0  0  0
 42 66  1  0  0  0  0
 43 45  1  0  0  0  0
 44 46  1  0  0  0  0
 44 47  1  0  0  0  0
 45 49  1  0  0  0  0
 46 51  1  0  0  0  0
 47 67  1  0  0  0  0
 48 51  1  0  0  0  0
 48 67  1  0  0  0  0
 49 72  1  0  0  0  0
 50 66  1  0  0  0  0
 51 65  1  0  0  0  0
 53 61  1  0  0  0  0
 54 62  1  0  0  0  0
 55 63  1  0  0  0  0
 56 63  1  0  0  0  0
 57 63  1  0  0  0  0
 58 74  1  0  0  0  0
 59 62  1  0  0  0  0
 60 63  1  0  0  0  0
 60 73  1  0  0  0  0
 61 74  1  0  0  0  0
 62 82  1  0  0  0  0
 64 65  1  0  0  0  0
M  CHG  1  74   1
M  ISO  4  39 100  62 101  71 100  82 101
M  END
> <Batch ID>
0067

> <Smiles>
CNC(C)C(=O)NC(C(=O)N1Cc2cc([101O:1][101CH:1](C)CC(=O)Nc3cc(C)cc([100NH:0][100C:0](=O)N4CCCC(n5nc(-c6ccc(Oc7ccc(F)cc7F)cc6)c(C(N)=O)c5N)C4)c3)ccc2CC1C(=O)NC1CCCc2ccccc21)C(C)(C)C

> <Shape>
0.206

> <Color>
0.074

> <Negative vol penalty>
0.000

$$$$

  -OEChem-04042323243D

 85 93  0     1  0  0  0  0  0999 V2000
  -25.9108  -35.4401   21.9569 C   0  0  0  0  0  0  0  0  0  0  0  0
  -26.4714  -34.1669   21.9595 C   0  0  0  0  0  0  0  0  0  0  0  0
  -23.4370  -10.1779   22.3569 C   0  0  0  0  0  0  0  0  0  0  0  0
  -23.9094   -9.7390   20.0285 C   0  0  0  0  0  0  0  0  0  0  0  0
  -24.6071  -35.6275   22.4144 C   0  0  0  0  0  0  0  0  0  0  0  0
  -25.7290  -33.0804   22.4207 C   0  0  0  0  0  0  0  0  0  0  0  0
  -26.1159  -29.0382   19.3948 C   0  0  0  0  0  0  0  0  0  0  0  0
  -31.1554  -19.8211   20.5875 C   0  0  0  0  0  0  0  0  0  0  0  0
  -31.2933  -18.4520   20.3589 C   0  0  0  0  0  0  0  0  0  0  0  0
  -22.5919   -9.0689   22.3945 C   0  0  0  0  0  0  0  0  0  0  0  0
  -23.0643   -8.6299   20.0661 C   0  0  0  0  0  0  0  0  0  0  0  0
  -27.2794  -28.2766   19.4953 C   0  0  0  0  0  0  0  0  0  0  0  0
  -22.8992   -5.7095   22.6251 C   0  0  0  0  0  0  0  0  0  0  0  0
  -23.0106   -4.8462   23.7150 C   0  0  0  0  0  0  0  0  0  0  0  0
  -26.1061  -26.6761   20.8668 C   0  0  0  0  0  0  0  0  0  0  0  0
  -29.5175  -19.9520   18.8164 C   0  0  0  0  0  0  0  0  0  0  0  0
  -20.7042   -5.2765   24.2915 C   0  0  0  0  0  0  0  0  0  0  0  0
  -24.0958  -10.5130   21.1739 C   0  0  0  0  0  0  0  0  0  0  0  0
  -26.3489  -11.6859   21.4091 C   0  0  0  0  0  0  0  0  0  0  0  0
  -23.8450  -34.5412   22.8725 C   0  0  0  0  0  0  0  0  0  0  0  0
  -24.9397  -28.6294   20.0397 C   0  0  0  0  0  0  0  0  0  0  0  0
  -24.4144  -33.2536   22.8861 C   0  0  0  0  0  0  0  0  0  0  0  0
  -24.9283  -27.4329   20.7708 C   0  0  0  0  0  0  0  0  0  0  0  0
  -29.6554  -18.5830   18.5876 C   0  0  0  0  0  0  0  0  0  0  0  0
  -30.2675  -20.5711   19.8163 C   0  0  0  0  0  0  0  0  0  0  0  0
  -30.5433  -17.8330   19.3589 C   0  0  0  0  0  0  0  0  0  0  0  0
  -22.4055   -8.2949   21.2491 C   0  0  0  0  0  0  0  0  0  0  0  0
  -27.2754  -27.0969   20.2338 C   0  0  0  0  0  0  0  0  0  0  0  0
  -21.6903   -6.3563   22.3684 C   0  0  0  0  0  0  0  0  0  0  0  0
  -21.9131   -4.6297   24.5482 C   0  0  0  0  0  0  0  0  0  0  0  0
  -20.5928   -6.1398   23.2016 C   0  0  0  0  0  0  0  0  0  0  0  0
  -24.9685  -11.6588   21.1343 C   0  0  0  0  0  0  0  0  0  0  0  0
  -26.7082  -12.9999   21.2335 C   0  0  0  0  0  0  0  0  0  0  0  0
  -28.3785  -25.0666   19.8709 C   0  0  0  0  0  0  0  0  0  1  0  0
  -27.2278  -10.6187   21.7890 C   0  0  0  0  0  0  0  0  0  0  0  0
  -29.4347  -24.2457   19.9194 C   0  0  0  0  0  0  0  0  0  0  0  0
  -29.2980  -22.8521   19.3833 C   0  0  0  0  0  0  0  0  0  0  0  0
  -23.0875  -29.8527   22.3148 C   0  0  0  0  0  0  0  0  0  0  0  0
  -21.1952  -27.3184   21.5946 C   0  0  0  0  0  0  0  0  0  0  0  0
  -20.9369  -24.1697   20.3040 C   0  0  0  0  0  0  0  0  0  0  0  0
  -26.5019  -17.7537   18.3173 C   0  0  0  0  0  0  0  0  0  0  0  0
  -22.4567  -34.8003   23.4017 C   0  0  0  0  0  0  0  0  0  0  0  0
  -23.6858  -29.4483   19.8994 C   0  0  0  0  0  0  0  0  0  0  0  0
  -23.6862  -26.9396   21.4652 C   0  0  0  0  0  0  0  0  0  0  0  0
  -21.6060  -33.5386   23.5236 C   0  0  0  0  0  0  0  0  0  0  0  0
  -23.8634  -17.1382   20.6273 C   0  0  0  0  0  0  0  0  0  0  0  0
  -22.4015  -32.4208   24.1902 C   0  0  0  0  0  0  0  0  0  0  0  0
  -24.0259  -15.6593   20.9826 C   0  0  0  0  0  0  0  0  0  0  0  0
  -24.1992  -17.4068   19.1620 C   0  0  0  0  0  0  0  0  0  0  0  0
  -25.6863  -15.4430   19.0866 C   0  0  0  0  0  0  0  0  0  0  0  0
  -23.6322  -32.0461   23.3555 C   0  0  1  0  0  0  0  0  0  0  0  0
  -22.6828  -29.2023   21.0222 C   0  0  1  0  0  0  0  0  0  0  0  0
  -25.4128  -15.1321   20.5681 C   0  0  2  0  0  0  0  0  0  0  0  0
  -19.2680  -22.3429   19.8858 C   0  0  0  0  0  0  0  0  0  0  0  0
  -21.2411  -26.6009   24.5599 C   0  0  0  0  0  0  0  0  0  0  0  0
  -20.3965  -24.3241   23.9506 C   0  0  0  0  0  0  0  0  0  0  0  0
  -19.0114  -26.3394   23.4577 C   0  0  0  0  0  0  0  0  0  0  0  0
  -21.3885  -24.2676   17.3807 C   0  0  0  0  0  0  0  0  0  0  0  0
  -28.8406  -17.9456   17.5094 C   0  0  0  0  0  0  0  0  0  0  0  0
  -21.0851  -25.8938   22.0816 C   0  0  1  0  0  0  0  0  0  0  0  0
  -19.9632  -23.5660   19.3081 C   0  0  2  0  0  0  0  0  0  0  0  0
  -20.4576  -25.7996   23.5011 C   0  0  0  0  0  0  0  0  0  0  0  0
  -24.4838  -12.8602   20.8090 N   0  0  0  0  0  0  0  0  0  0  0  0
  -25.5656  -13.6545   20.8783 N   0  0  0  0  0  0  0  0  0  0  0  0
  -22.4872  -27.7786   21.3035 N   0  0  0  0  0  0  0  0  0  0  0  0
  -25.5276  -16.8838   18.8340 N   0  0  0  0  0  0  0  0  0  0  0  0
  -30.6956  -16.4459   19.1417 N   0  0  0  0  0  0  0  0  0  0  0  0
  -27.8869  -13.6476   21.3498 N   0  0  0  0  0  0  0  0  0  0  0  0
  -26.6942   -9.3298   21.9245 N   0  0  0  0  0  0  0  0  0  0  0  0
  -30.1285  -21.9607   20.0486 N   0  0  0  0  0  0  0  0  0  0  0  0
  -23.2476  -31.2226   22.2294 N   0  0  0  0  0  0  0  0  0  0  0  0
  -20.3488  -25.1666   21.0534 N   0  0  0  0  0  0  0  0  0  0  0  0
  -27.7357  -17.1782   18.0395 N   0  0  0  0  0  0  0  0  0  0  0  0
  -20.6789  -23.1572   18.0665 N   0  3  0  0  0  0  0  0  0  0  0  0
  -28.4469  -10.8057   22.0181 O   0  0  0  0  0  0  0  0  0  0  0  0
  -28.5244  -22.6034   18.4648 O   0  0  0  0  0  0  0  0  0  0  0  0
  -23.2416  -29.1630   23.3160 O   0  0  0  0  0  0  0  0  0  0  0  0
  -20.1717  -27.9957   21.4699 O   0  0  0  0  0  0  0  0  0  0  0  0
  -22.1018  -23.7920   20.4094 O   0  0  0  0  0  0  0  0  0  0  0  0
  -26.2897  -18.9555   18.1233 O   0  0  0  0  0  0  0  0  0  0  0  0
  -30.6513  -24.6318   20.4441 O   0  0  0  0  0  0  0  0  0  0  0  0
  -21.5811   -7.2125   21.2855 O   0  0  0  0  0  0  0  0  0  0  0  0
  -28.4098  -26.3520   20.3340 O   0  0  0  0  0  0  0  0  0  1  0  0
  -22.0197   -3.7995   25.5939 F   0  0  0  0  0  0  0  0  0  0  0  0
  -19.4285   -6.7575   22.9593 F   0  0  0  0  0  0  0  0  0  0  0  0
  1  2  1  0  0  0  0
  1  5  2  0  0  0  0
  2  6  2  0  0  0  0
  3 10  2  0  0  0  0
  3 18  1  0  0  0  0
  4 11  1  0  0  0  0
  4 18  2  0  0  0  0
  5 20  1  0  0  0  0
  6 22  1  0  0  0  0
  7 12  2  0  0  0  0
  7 21  1  0  0  0  0
  8  9  2  0  0  0  0
  8 25  1  0  0  0  0
  9 26  1  0  0  0  0
 10 27  1  0  0  0  0
 11 27  2  0  0  0  0
 12 28  1  0  0  0  0
 13 14  2  0  0  0  0
 13 29  1  0  0  0  0
 14 30  1  0  0  0  0
 15 23  1  0  0  0  0
 15 28  2  0  0  0  0
 16 24  1  0  0  0  0
 16 25  2  0  0  0  0
 17 30  2  0  0  0  0
 17 31  1  0  0  0  0
 18 32  1  0  0  0  0
 19 32  1  0  0  0  0
 19 33  2  0  0  0  0
 19 35  1  0  0  0  0
 20 22  2  0  0  0  0
 20 42  1  0  0  0  0
 21 23  2  0  0  0  0
 21 43  1  0  0  0  0
 22 51  1  0  0  0  0
 23 44  1  0  0  0  0
 24 26  2  0  0  0  0
 24 59  1  0  0  0  0
 25 70  1  0  0  0  0
 26 67  1  0  0  0  0
 27 82  1  0  0  0  0
 28 83  1  0  0  0  0
 29 31  2  0  0  0  0
 29 82  1  0  0  0  0
 30 84  1  0  0  0  0
 31 85  1  0  0  0  0
 32 63  2  0  0  0  0
 33 64  1  0  0  0  0
 33 68  1  0  0  0  0
 34 36  2  0  0  0  0
 34 83  1  0  0  0  0
 35 69  1  0  0  0  0
 35 75  2  0  0  0  0
 36 37  1  0  0  0  0
 36 81  1  0  0  0  0
 37 70  1  0  0  0  0
 37 76  2  0  0  0  0
 38 52  1  0  0  0  0
 38 71  1  0  0  0  0
 38 77  2  0  0  0  0
 39 60  1  0  0  0  0
 39 65  1  0  0  0  0
 39 78  2  0  0  0  0
 40 61  1  0  0  0  0
 40 72  1  0  0  0  0
 40 79  2  0  0  0  0
 41 66  1  0  0  0  0
 41 73  1  0  0  0  0
 41 80  2  0  0  0  0
 42 45  1  0  0  0  0
 43 52  1  0  0  0  0
 44 65  1  0  0  0  0
 45 47  1  0  0  0  0
 46 48  1  0  0  0  0
 46 49  1  0  0  0  0
 47 51  1  0  0  0  0
 48 53  1  0  0  0  0
 49 66  1  0  0  0  0
 50 53  1  0  0  0  0
 50 66  1  0  0  0  0
 51 71  1  0  0  0  0
 52 65  1  0  0  0  0
 53 64  1  0  0  0  0
 54 61  1  0  0  0  0
 55 62  1  0  0  0  0
 56 62  1  0  0  0  0
 57 62  1  0  0  0  0
 58 74  1  0  0  0  0
 59 73  1  0  0  0  0
 60 62  1  0  0  0  0
 60 72  1  0  0  0  0
 61 74  1  0  0  0  0
 63 64  1  0  0  0  0
M  CHG  1  74   1
M  ISO  4  34 101  41 100  73 100  83 101
M  END
> <Batch ID>
0067

> <Smiles>
CNC(C)C(=O)NC(C(=O)N1Cc2cc([101O:1][101CH2:1]C(=O)C(=O)Nc3ccc(N)c(C[100NH:0][100C:0](=O)N4CCCC(n5nc(-c6ccc(Oc7ccc(F)cc7F)cc6)c(C(N)=O)c5N)C4)c3)ccc2CC1C(=O)NC1CCCc2ccccc21)C(C)(C)C

> <Shape>
0.294

> <Color>
0.128

> <Negative vol penalty>
0.000

$$$$

  -OEChem-04042323243D

 86 95  0     1  0  0  0  0  0999 V2000
  -16.4172  -29.4505   24.1993 C   0  0  0  0  0  0  0  0  0  0  0  0
  -16.6509  -29.3326   22.8330 C   0  0  0  0  0  0  0  0  0  0  0  0
  -22.7846  -13.1205   20.2869 C   0  0  0  0  0  0  0  0  0  0  0  0
  -24.8158  -12.2903   21.2980 C   0  0  0  0  0  0  0  0  0  0  0  0
  -17.4048  -29.9758   25.0315 C   0  0  0  0  0  0  0  0  0  0  0  0
  -17.8720  -29.7410   22.2978 C   0  0  0  0  0  0  0  0  0  0  0  0
  -23.0491  -25.7429   18.0270 C   0  0  0  0  0  0  0  0  0  0  0  0
  -29.6214  -20.9868   18.5752 C   0  0  0  0  0  0  0  0  0  0  0  0
  -29.9766  -19.8330   19.2738 C   0  0  0  0  0  0  0  0  0  0  0  0
  -22.0414  -12.1963   21.0210 C   0  0  0  0  0  0  0  0  0  0  0  0
  -24.0725  -11.3660   22.0321 C   0  0  0  0  0  0  0  0  0  0  0  0
  -24.1130  -25.0939   17.4002 C   0  0  0  0  0  0  0  0  0  0  0  0
  -21.3060   -8.9012   20.8596 C   0  0  0  0  0  0  0  0  0  0  0  0
  -20.3116   -8.1903   20.1878 C   0  0  0  0  0  0  0  0  0  0  0  0
  -25.6638  -26.6748   18.3716 C   0  0  0  0  0  0  0  0  0  0  0  0
  -31.0113  -21.1880   20.9857 C   0  0  0  0  0  0  0  0  0  0  0  0
  -18.6490   -9.1002   21.6861 C   0  0  0  0  0  0  0  0  0  0  0  0
  -24.1719  -13.1675   20.4253 C   0  0  0  0  0  0  0  0  0  0  0  0
  -25.0157  -14.2305   18.2654 C   0  0  0  0  0  0  0  0  0  0  0  0
  -18.6423  -30.3820   24.5077 C   0  0  0  0  0  0  0  0  0  0  0  0
  -23.2904  -26.8525   18.8418 C   0  0  0  0  0  0  0  0  0  0  0  0
  -18.8766  -30.2736   23.1236 C   0  0  0  0  0  0  0  0  0  0  0  0
  -24.6034  -27.3215   19.0120 C   0  0  0  0  0  0  0  0  0  0  0  0
  -30.6561  -22.3418   20.2870 C   0  0  0  0  0  0  0  0  0  0  0  0
  -29.9611  -22.2412   19.0818 C   0  0  0  0  0  0  0  0  0  0  0  0
  -30.6716  -19.9335   20.4790 C   0  0  0  0  0  0  0  0  0  0  0  0
  -22.6853  -11.3190   21.8936 C   0  0  0  0  0  0  0  0  0  0  0  0
  -25.4171  -25.5588   17.5719 C   0  0  0  0  0  0  0  0  0  0  0  0
  -20.9720   -9.7115   21.9448 C   0  0  0  0  0  0  0  0  0  0  0  0
  -18.9831   -8.2899   20.6010 C   0  0  0  0  0  0  0  0  0  0  0  0
  -19.6435   -9.8110   22.3580 C   0  0  0  0  0  0  0  0  0  0  0  0
  -24.9402  -14.1217   19.6669 C   0  0  0  0  0  0  0  0  0  0  0  0
  -25.8697  -15.2841   18.0483 C   0  0  0  0  0  0  0  0  0  0  0  0
  -30.5583  -24.3264   17.8761 C   0  0  0  0  0  0  0  0  0  0  0  0
  -24.3714  -13.4492   17.2504 C   0  0  0  0  0  0  0  0  0  0  0  0
  -21.8540  -29.5025   21.0757 C   0  0  0  0  0  0  0  0  0  0  0  0
  -24.4576  -28.5471   22.3868 C   0  0  0  0  0  0  0  0  0  0  0  0
  -27.1523  -26.9260   23.7088 C   0  0  0  0  0  0  0  0  0  0  0  0
  -30.2532  -17.5682   21.1282 C   0  0  0  0  0  0  0  0  0  0  0  0
  -19.6615  -30.9878   25.4398 C   0  0  0  0  0  0  0  0  0  0  0  0
  -22.1686  -27.6199   19.4872 C   0  0  0  0  0  0  0  0  0  0  0  0
  -24.8119  -28.5395   19.8698 C   0  0  0  0  0  0  0  0  0  0  0  0
  -30.0567  -25.6765   17.3964 C   0  0  0  0  0  0  0  0  0  0  0  0
  -21.0673  -31.0495   24.8480 C   0  0  0  0  0  0  0  0  0  0  0  0
  -28.7162  -25.6276   16.7014 C   0  0  0  0  0  0  0  0  0  0  0  0
  -27.3830  -19.3578   20.0315 C   0  0  0  0  0  0  0  0  0  0  0  0
  -21.0236  -31.5948   23.4241 C   0  0  0  0  0  0  0  0  0  0  0  0
  -26.4278  -18.2163   19.6849 C   0  0  0  0  0  0  0  0  0  0  0  0
  -28.1962  -19.0610   21.2920 C   0  0  0  0  0  0  0  0  0  0  0  0
  -27.9658  -16.6280   20.9027 C   0  0  0  0  0  0  0  0  0  0  0  0
  -28.1762  -23.5399   17.9220 C   0  0  0  0  0  0  0  0  0  0  0  0
  -20.1976  -30.6827   22.5091 C   0  0  1  0  0  0  0  0  0  0  0  0
  -22.5408  -28.1844   20.8699 C   0  0  1  0  0  0  0  0  0  0  0  0
  -27.1765  -16.8740   19.6074 C   0  0  1  0  0  0  0  0  0  0  0  0
  -27.7143  -24.9569   17.6157 C   0  0  2  0  0  0  0  0  0  1  0  0
  -31.0332  -23.6726   20.8526 C   0  0  0  0  0  0  0  0  0  0  0  0
  -28.6672  -26.9306   25.7094 C   0  0  0  0  0  0  0  0  0  0  0  0
  -25.8864  -31.0107   21.2946 C   0  0  0  0  0  0  0  0  0  0  0  0
  -27.8596  -30.4076   22.7128 C   0  0  0  0  0  0  0  0  0  0  0  0
  -25.6730  -30.9467   23.7855 C   0  0  0  0  0  0  0  0  0  0  0  0
  -32.3664  -18.6762   21.8224 C   0  0  0  0  0  0  0  0  0  0  0  0
  -26.3730  -24.1689   24.4502 C   0  0  0  0  0  0  0  0  0  0  0  0
  -25.9416  -28.7563   22.5518 C   0  0  1  0  0  0  0  0  0  0  0  0
  -27.4041  -26.3517   25.0912 C   0  0  2  0  0  0  0  0  0  0  0  0
  -26.3297  -30.2618   22.5672 C   0  0  0  0  0  0  0  0  0  0  0  0
  -25.6869  -15.0332   20.2958 N   0  0  0  0  0  0  0  0  0  0  0  0
  -26.2397  -15.7249   19.2849 N   0  0  0  0  0  0  0  0  0  0  0  0
  -29.5831  -23.4261   18.3413 N   0  0  0  0  0  0  0  0  0  0  0  0
  -23.9739  -28.4539   21.0761 N   0  0  0  0  0  0  0  0  0  0  0  0
  -28.8590  -17.7533   21.1885 N   0  0  0  0  0  0  0  0  0  0  0  0
  -26.3329  -15.8672   16.9223 N   0  0  0  0  0  0  0  0  0  0  0  0
  -25.0273  -12.3082   16.7686 N   0  0  0  0  0  0  0  0  0  0  0  0
  -20.9651  -29.5146   22.1337 N   0  0  0  0  0  0  0  0  0  0  0  0
  -26.3250  -28.0281   23.7564 N   0  0  0  0  0  0  0  0  0  0  0  0
  -31.0385  -18.7388   21.2024 N   0  0  0  0  0  0  0  0  0  0  0  0
  -27.5530  -24.8707   25.0177 N   0  3  0  0  0  0  0  0  0  0  0  0
  -31.7765  -24.1295   17.8821 O   0  0  0  0  0  0  0  0  0  0  0  0
  -23.2548  -13.7630   16.7729 O   0  0  0  0  0  0  0  0  0  0  0  0
  -22.1118  -30.4409   20.3311 O   0  0  0  0  0  0  0  0  0  0  0  0
  -23.7435  -28.4736   23.3907 O   0  0  0  0  0  0  0  0  0  0  0  0
  -27.6437  -26.4473   22.6890 O   0  0  0  0  0  0  0  0  0  0  0  0
  -30.7584  -16.4425   21.0415 O   0  0  0  0  0  0  0  0  0  0  0  0
  -21.9603  -10.4172   22.6102 O   0  0  0  0  0  0  0  0  0  0  0  0
  -26.4516  -24.9177   16.9607 O   0  0  0  0  0  0  0  0  0  1  0  0
  -18.0280   -7.6084   19.9547 F   0  0  0  0  0  0  0  0  0  0  0  0
  -19.3163  -10.5888   23.3990 F   0  0  0  0  0  0  0  0  0  0  0  0
  1  2  1  0  0  0  0
  1  5  2  0  0  0  0
  2  6  2  0  0  0  0
  3 10  2  0  0  0  0
  3 18  1  0  0  0  0
  4 11  1  0  0  0  0
  4 18  2  0  0  0  0
  5 20  1  0  0  0  0
  6 22  1  0  0  0  0
  7 12  2  0  0  0  0
  7 21  1  0  0  0  0
  8  9  2  0  0  0  0
  8 25  1  0  0  0  0
  9 26  1  0  0  0  0
 10 27  1  0  0  0  0
 11 27  2  0  0  0  0
 12 28  1  0  0  0  0
 13 14  2  0  0  0  0
 13 29  1  0  0  0  0
 14 30  1  0  0  0  0
 15 23  1  0  0  0  0
 15 28  2  0  0  0  0
 16 24  1  0  0  0  0
 16 26  2  0  0  0  0
 17 30  2  0  0  0  0
 17 31  1  0  0  0  0
 18 32  1  0  0  0  0
 19 32  1  0  0  0  0
 19 33  2  0  0  0  0
 19 35  1  0  0  0  0
 20 22  2  0  0  0  0
 20 40  1  0  0  0  0
 21 23  2  0  0  0  0
 21 41  1  0  0  0  0
 22 52  1  0  0  0  0
 23 42  1  0  0  0  0
 24 25  2  0  0  0  0
 24 56  1  0  0  0  0
 25 68  1  0  0  0  0
 26 75  1  0  0  0  0
 27 83  1  0  0  0  0
 28 84  1  0  0  0  0
 29 31  2  0  0  0  0
 29 83  1  0  0  0  0
 30 85  1  0  0  0  0
 31 86  1  0  0  0  0
 32 66  2  0  0  0  0
 33 67  1  0  0  0  0
 33 71  1  0  0  0  0
 34 43  1  0  0  0  0
 34 68  1  0  0  0  0
 34 77  2  0  0  0  0
 35 72  1  0  0  0  0
 35 78  2  0  0  0  0
 36 53  1  0  0  0  0
 36 73  1  0  0  0  0
 36 79  2  0  0  0  0
 37 63  1  0  0  0  0
 37 69  1  0  0  0  0
 37 80  2  0  0  0  0
 38 64  1  0  0  0  0
 38 74  1  0  0  0  0
 38 81  2  0  0  0  0
 39 70  1  0  0  0  0
 39 75  1  0  0  0  0
 39 82  2  0  0  0  0
 40 44  1  0  0  0  0
 41 53  1  0  0  0  0
 42 69  1  0  0  0  0
 43 45  1  0  0  0  0
 44 47  1  0  0  0  0
 45 55  1  0  0  0  0
 46 48  1  0  0  0  0
 46 49  1  0  0  0  0
 47 52  1  0  0  0  0
 48 54  1  0  0  0  0
 49 70  1  0  0  0  0
 50 54  1  0  0  0  0
 50 70  1  0  0  0  0
 51 55  1  0  0  0  0
 51 68  1  0  0  0  0
 52 73  1  0  0  0  0
 53 69  1  0  0  0  0
 54 67  1  0  0  0  0
 55 84  1  0  0  0  0
 57 64  1  0  0  0  0
 58 65  1  0  0  0  0
 59 65  1  0  0  0  0
 60 65  1  0  0  0  0
 61 75  1  0  0  0  0
 62 76  1  0  0  0  0
 63 65  1  0  0  0  0
 63 74  1  0  0  0  0
 64 76  1  0  0  0  0
 66 67  1  0  0  0  0
M  CHG  1  76   1
M  ISO  4  39 100  55 101  75 100  84 101
M  END
> <Batch ID>
0067

> <Smiles>
CNC(C)C(=O)NC(C(=O)N1Cc2cc([101O:1][101CH:1]3CCC(=O)N(c4ccc([100N:0](C)[100C:0](=O)N5CCCC(n6nc(-c7ccc(Oc8ccc(F)cc8F)cc7)c(C(N)=O)c6N)C5)cc4C)C3)ccc2CC1C(=O)NC1CCCc2ccccc21)C(C)(C)C

> <Shape>
0.240

> <Color>
0.063

> <Negative vol penalty>
0.000

$$$$

  -OEChem-04042323243D

 85 93  0     1  0  0  0  0  0999 V2000
  -32.3998  -31.9612   20.8102 C   0  0  0  0  0  0  0  0  0  0  0  0
  -31.5444  -31.0368   20.2194 C   0  0  0  0  0  0  0  0  0  0  0  0
  -26.6662  -12.4426   21.8504 C   0  0  0  0  0  0  0  0  0  0  0  0
  -25.9958  -13.9428   20.0792 C   0  0  0  0  0  0  0  0  0  0  0  0
  -32.1651  -32.3914   22.1155 C   0  0  0  0  0  0  0  0  0  0  0  0
  -30.4544  -30.5411   20.9339 C   0  0  0  0  0  0  0  0  0  0  0  0
  -26.2080  -30.4396   18.1765 C   0  0  0  0  0  0  0  0  0  0  0  0
  -25.3974  -11.8634   21.8400 C   0  0  0  0  0  0  0  0  0  0  0  0
  -24.7269  -13.3635   20.0688 C   0  0  0  0  0  0  0  0  0  0  0  0
  -26.0698  -29.3996   17.2583 C   0  0  0  0  0  0  0  0  0  0  0  0
  -23.7000   -9.6165   19.9682 C   0  0  0  0  0  0  0  0  0  0  0  0
  -23.6227   -8.2244   20.0076 C   0  0  0  0  0  0  0  0  0  0  0  0
  -27.9832  -23.9911   20.2722 C   0  0  0  0  0  0  0  0  0  0  0  0
  -24.6489  -28.2237   18.8132 C   0  0  0  0  0  0  0  0  0  0  0  0
  -29.1154  -22.6844   21.9597 C   0  0  0  0  0  0  0  0  0  0  0  0
  -22.3702   -8.3523   22.0696 C   0  0  0  0  0  0  0  0  0  0  0  0
  -26.9654  -13.4824   20.9700 C   0  0  0  0  0  0  0  0  0  0  0  0
  -27.9848  -22.8888   19.4175 C   0  0  0  0  0  0  0  0  0  0  0  0
  -29.3960  -13.6892   20.2239 C   0  0  0  0  0  0  0  0  0  0  0  0
  -31.0661  -31.9081   22.8430 C   0  0  0  0  0  0  0  0  0  0  0  0
  -25.5755  -30.3744   19.4264 C   0  0  0  0  0  0  0  0  0  0  0  0
  -30.2055  -30.9643   22.2506 C   0  0  0  0  0  0  0  0  0  0  0  0
  -24.7786  -29.2654   19.7445 C   0  0  0  0  0  0  0  0  0  0  0  0
  -29.1170  -21.5820   21.1050 C   0  0  0  0  0  0  0  0  0  0  0  0
  -28.5517  -21.6843   19.8339 C   0  0  0  0  0  0  0  0  0  0  0  0
  -24.4277  -12.3238   20.9493 C   0  0  0  0  0  0  0  0  0  0  0  0
  -25.2925  -28.2901   17.5777 C   0  0  0  0  0  0  0  0  0  0  0  0
  -23.1126  -10.3765   20.9796 C   0  0  0  0  0  0  0  0  0  0  0  0
  -22.9577   -7.5922   21.0583 C   0  0  0  0  0  0  0  0  0  0  0  0
  -28.5486  -23.8889   21.5433 C   0  0  0  0  0  0  0  0  0  0  0  0
  -22.4476   -9.7444   22.0303 C   0  0  0  0  0  0  0  0  0  0  0  0
  -28.2757  -14.0816   20.9806 C   0  0  0  0  0  0  0  0  0  0  0  0
  -30.3847  -14.5682   20.5930 C   0  0  0  0  0  0  0  0  0  0  0  0
  -27.3793  -23.0254   18.0776 C   0  0  0  0  0  0  0  0  0  0  0  0
  -29.5309  -12.6252   19.2723 C   0  0  0  0  0  0  0  0  0  0  0  0
  -26.5714  -30.3254   22.4446 C   0  0  0  0  0  0  0  0  0  0  0  0
  -23.3971  -30.5117   23.0861 C   0  0  0  0  0  0  0  0  0  0  0  0
  -20.1937  -29.9658   22.0435 C   0  0  0  0  0  0  0  0  0  0  0  0
  -30.2956  -20.1249   22.7885 C   0  0  0  0  0  0  0  0  0  0  0  0
  -30.8803  -32.3667   24.2677 C   0  0  0  0  0  0  0  0  0  0  0  0
  -25.7128  -31.5167   20.3952 C   0  0  0  0  0  0  0  0  0  0  0  0
  -24.0622  -29.1562   21.0648 C   0  0  0  0  0  0  0  0  0  0  0  0
  -29.4890  -32.0760   24.8246 C   0  0  0  0  0  0  0  0  0  0  0  0
  -31.8081  -17.2689   24.2828 C   0  0  0  0  0  0  0  0  0  0  0  0
  -29.0724  -30.6449   24.5000 C   0  0  0  0  0  0  0  0  0  0  0  0
  -31.1803  -16.0920   23.5325 C   0  0  0  0  0  0  0  0  0  0  0  0
  -30.8056  -18.4004   24.5034 C   0  0  0  0  0  0  0  0  0  0  0  0
  -29.4951  -17.6931   22.5408 C   0  0  0  0  0  0  0  0  0  0  0  0
  -28.9982  -30.4222   22.9846 C   0  0  1  0  0  0  0  0  0  0  0  0
  -25.4415  -31.1103   21.8404 C   0  0  1  0  0  0  0  0  0  0  0  0
  -30.4842  -16.5557   22.2380 C   0  0  2  0  0  0  0  0  0  0  0  0
  -17.8113  -30.1830   22.8016 C   0  0  0  0  0  0  0  0  0  0  0  0
  -23.7362  -28.0456   24.8504 C   0  0  0  0  0  0  0  0  0  0  0  0
  -21.2500  -27.7550   24.8022 C   0  0  0  0  0  0  0  0  0  0  0  0
  -22.2443  -29.8124   25.8028 C   0  0  0  0  0  0  0  0  0  0  0  0
  -19.5439  -31.8402   19.8473 C   0  0  0  0  0  0  0  0  0  0  0  0
  -25.5252  -24.9448   16.2360 C   0  0  0  0  0  0  0  0  0  0  0  0
  -25.3719  -23.5145   16.7256 C   0  0  0  0  0  0  0  0  0  0  0  0
  -24.9554  -25.9641   17.2145 C   0  0  0  0  0  0  0  0  0  1  0  0
  -22.2876  -29.5092   23.2931 C   0  0  1  0  0  0  0  0  0  0  0  0
  -18.9619  -30.8527   22.0666 C   0  0  2  0  0  0  0  0  0  0  0  0
  -22.3945  -28.7814   24.6630 C   0  0  0  0  0  0  0  0  0  0  0  0
  -28.5282  -15.1283   21.7709 N   0  0  0  0  0  0  0  0  0  0  0  0
  -29.8186  -15.4010   21.5129 N   0  0  0  0  0  0  0  0  0  0  0  0
  -24.2327  -30.2959   21.9811 N   0  0  0  0  0  0  0  0  0  0  0  0
  -30.1893  -18.7901   23.2333 N   0  0  0  0  0  0  0  0  0  0  0  0
  -28.5515  -20.5679   18.9644 N   0  0  0  0  0  0  0  0  0  0  0  0
  -31.6744  -14.7022   20.2174 N   0  0  0  0  0  0  0  0  0  0  0  0
  -28.1548  -22.8165   17.0136 N   0  0  0  0  0  0  0  0  0  0  0  0
  -28.4160  -11.8172   19.0109 N   0  0  0  0  0  0  0  0  0  0  0  0
  -29.6988  -20.3699   21.5522 N   0  0  0  0  0  0  0  0  0  0  0  0
  -27.7811  -30.9931   22.4488 N   0  0  0  0  0  0  0  0  0  0  0  0
  -21.0382  -30.2371   23.0992 N   0  0  0  0  0  0  0  0  0  0  0  0
  -26.0836  -23.3541   17.9939 N   0  3  0  0  0  0  0  0  0  0  0  0
  -18.5176  -31.1583   20.6772 N   0  3  0  0  0  0  0  0  0  0  0  0
  -30.6129  -12.3875   18.6836 O   0  0  0  0  0  0  0  0  0  0  0  0
  -26.3608  -29.1980   22.8763 O   0  0  0  0  0  0  0  0  0  0  0  0
  -23.5135  -31.4557   23.8715 O   0  0  0  0  0  0  0  0  0  0  0  0
  -20.3855  -29.1146   21.1779 O   0  0  0  0  0  0  0  0  0  0  0  0
  -30.8970  -20.9809   23.4423 O   0  0  0  0  0  0  0  0  0  0  0  0
  -23.1896  -11.7586   20.9387 O   0  0  0  0  0  0  0  0  0  0  0  0
  -25.1564  -27.2733   16.6836 O   0  0  0  0  0  0  0  0  0  1  0  0
  -22.8822   -6.2554   21.0951 F   0  0  0  0  0  0  0  0  0  0  0  0
  -28.5486  -24.9477   22.3638 F   0  0  0  0  0  0  0  0  0  0  0  0
  -21.8802  -10.4693   23.0042 F   0  0  0  0  0  0  0  0  0  0  0  0
  1  2  1  0  0  0  0
  1  5  2  0  0  0  0
  2  6  2  0  0  0  0
  3  8  2  0  0  0  0
  3 17  1  0  0  0  0
  4  9  1  0  0  0  0
  4 17  2  0  0  0  0
  5 20  1  0  0  0  0
  6 22  1  0  0  0  0
  7 10  2  0  0  0  0
  7 21  1  0  0  0  0
  8 26  1  0  0  0  0
  9 26  2  0  0  0  0
 10 27  1  0  0  0  0
 11 12  2  0  0  0  0
 11 28  1  0  0  0  0
 12 29  1  0  0  0  0
 13 18  1  0  0  0  0
 13 30  2  0  0  0  0
 14 23  1  0  0  0  0
 14 27  2  0  0  0  0
 15 24  2  0  0  0  0
 15 30  1  0  0  0  0
 16 29  2  0  0  0  0
 16 31  1  0  0  0  0
 17 32  1  0  0  0  0
 18 25  2  0  0  0  0
 18 34  1  0  0  0  0
 19 32  1  0  0  0  0
 19 33  2  0  0  0  0
 19 35  1  0  0  0  0
 20 22  2  0  0  0  0
 20 40  1  0  0  0  0
 21 23  2  0  0  0  0
 21 41  1  0  0  0  0
 22 49  1  0  0  0  0
 23 42  1  0  0  0  0
 24 25  1  0  0  0  0
 24 71  1  0  0  0  0
 25 67  1  0  0  0  0
 26 81  1  0  0  0  0
 27 82  1  0  0  0  0
 28 31  2  0  0  0  0
 28 81  1  0  0  0  0
 29 83  1  0  0  0  0
 30 84  1  0  0  0  0
 31 85  1  0  0  0  0
 32 63  2  0  0  0  0
 33 64  1  0  0  0  0
 33 68  1  0  0  0  0
 34 69  1  0  0  0  0
 34 74  2  0  0  0  0
 35 70  1  0  0  0  0
 35 76  2  0  0  0  0
 36 50  1  0  0  0  0
 36 72  1  0  0  0  0
 36 77  2  0  0  0  0
 37 60  1  0  0  0  0
 37 65  1  0  0  0  0
 37 78  2  0  0  0  0
 38 61  1  0  0  0  0
 38 73  1  0  0  0  0
 38 79  2  0  0  0  0
 39 66  1  0  0  0  0
 39 71  1  0  0  0  0
 39 80  2  0  0  0  0
 40 43  1  0  0  0  0
 41 50  1  0  0  0  0
 42 65  1  0  0  0  0
 43 45  1  0  0  0  0
 44 46  1  0  0  0  0
 44 47  1  0  0  0  0
 45 49  1  0  0  0  0
 46 51  1  0  0  0  0
 47 66  1  0  0  0  0
 48 51  1  0  0  0  0
 48 66  1  0  0  0  0
 49 72  1  0  0  0  0
 50 65  1  0  0  0  0
 51 64  1  0  0  0  0
 52 61  1  0  0  0  0
 53 62  1  0  0  0  0
 54 62  1  0  0  0  0
 55 62  1  0  0  0  0
 56 75  1  0  0  0  0
 57 58  1  0  0  0  0
 57 59  1  0  0  0  0
 58 74  1  0  0  0  0
 59 82  1  0  0  0  0
 60 62  1  0  0  0  0
 60 73  1  0  0  0  0
 61 75  1  0  0  0  0
 63 64  1  0  0  0  0
M  CHG  2  74   1  75   1
M  ISO  4  39 100  59 101  71 100  82 101
M  END
> <Batch ID>
0067

> <Smiles>
CNC(C)C(=O)NC(C(=O)N1Cc2cc([101O:1][101CH2:1]CCNC(=N)c3cc(F)cc([100NH:0][100C:0](=O)N4CCCC(n5nc(-c6ccc(Oc7ccc(F)cc7F)cc6)c(C(N)=O)c5N)C4)c3N)ccc2CC1C(=O)NC1CCCc2ccccc21)C(C)(C)C

> <Shape>
0.261

> <Color>
0.083

> <Negative vol penalty>
0.000

$$$$

  -OEChem-04042323243D

 90 98  0     1  0  0  0  0  0999 V2000
  -30.5461  -36.0087   21.0666 C   0  0  0  0  0  0  0  0  0  0  0  0
  -30.4528  -34.7279   20.5316 C   0  0  0  0  0  0  0  0  0  0  0  0
  -23.4713   -9.8292   21.7585 C   0  0  0  0  0  0  0  0  0  0  0  0
  -24.0992  -11.0308   23.7583 C   0  0  0  0  0  0  0  0  0  0  0  0
  -29.9908  -36.2833   22.3157 C   0  0  0  0  0  0  0  0  0  0  0  0
  -29.8050  -33.7206   21.2458 C   0  0  0  0  0  0  0  0  0  0  0  0
  -26.4643  -29.1361   18.9378 C   0  0  0  0  0  0  0  0  0  0  0  0
  -22.8455   -8.8572   22.5390 C   0  0  0  0  0  0  0  0  0  0  0  0
  -23.4734  -10.0588   24.5388 C   0  0  0  0  0  0  0  0  0  0  0  0
  -26.7631  -27.8013   18.6677 C   0  0  0  0  0  0  0  0  0  0  0  0
  -19.9272   -8.5029   24.2095 C   0  0  0  0  0  0  0  0  0  0  0  0
  -18.6617   -8.0697   23.8138 C   0  0  0  0  0  0  0  0  0  0  0  0
  -29.2168  -18.7876   20.8496 C   0  0  0  0  0  0  0  0  0  0  0  0
  -25.8287  -27.1671   20.7993 C   0  0  0  0  0  0  0  0  0  0  0  0
  -31.5103  -18.0368   20.7336 C   0  0  0  0  0  0  0  0  0  0  0  0
  -19.5022   -5.8153   23.5940 C   0  0  0  0  0  0  0  0  0  0  0  0
  -24.0982  -10.9160   22.3682 C   0  0  0  0  0  0  0  0  0  0  0  0
  -29.6524  -20.0626   21.2103 C   0  0  0  0  0  0  0  0  0  0  0  0
  -24.1677  -13.0926   21.0396 C   0  0  0  0  0  0  0  0  0  0  0  0
  -29.3274  -35.2813   23.0413 C   0  0  0  0  0  0  0  0  0  0  0  0
  -25.8543  -29.4982   20.1474 C   0  0  0  0  0  0  0  0  0  0  0  0
  -29.2415  -33.9818   22.5064 C   0  0  0  0  0  0  0  0  0  0  0  0
  -25.5209  -28.5068   21.0813 C   0  0  0  0  0  0  0  0  0  0  0  0
  -31.9459  -19.3119   21.0943 C   0  0  0  0  0  0  0  0  0  0  0  0
  -30.1457  -17.7746   20.6113 C   0  0  0  0  0  0  0  0  0  0  0  0
  -22.8465   -8.9720   23.9291 C   0  0  0  0  0  0  0  0  0  0  0  0
  -26.4479  -26.8169   19.5997 C   0  0  0  0  0  0  0  0  0  0  0  0
  -20.9802   -7.5923   24.2973 C   0  0  0  0  0  0  0  0  0  0  0  0
  -18.4492   -6.7259   23.5061 C   0  0  0  0  0  0  0  0  0  0  0  0
  -20.7677   -6.2485   23.9896 C   0  0  0  0  0  0  0  0  0  0  0  0
  -31.0170  -20.3248   21.3326 C   0  0  0  0  0  0  0  0  0  0  0  0
  -24.7453  -11.9201   21.5625 C   0  0  0  0  0  0  0  0  0  0  0  0
  -25.1896  -13.7022   20.3535 C   0  0  0  0  0  0  0  0  0  0  0  0
  -28.6595  -21.1384   21.4632 C   0  0  0  0  0  0  0  0  0  0  0  0
  -22.8274  -13.5866   21.1631 C   0  0  0  0  0  0  0  0  0  0  0  0
  -26.6768  -31.3241   22.6159 C   0  0  0  0  0  0  0  0  0  0  0  0
  -26.7559  -23.1551   19.8914 C   0  0  0  0  0  0  0  0  0  0  0  0
  -23.6427  -30.7068   23.5834 C   0  0  0  0  0  0  0  0  0  0  0  0
  -20.9228  -28.6496   23.4551 C   0  0  0  0  0  0  0  0  0  0  0  0
  -30.4907  -15.3623   19.9727 C   0  0  0  0  0  0  0  0  0  0  0  0
  -28.7843  -35.6139   24.4085 C   0  0  0  0  0  0  0  0  0  0  0  0
  -25.5143  -30.9393   20.4122 C   0  0  0  0  0  0  0  0  0  0  0  0
  -24.8471  -28.8409   22.3862 C   0  0  0  0  0  0  0  0  0  0  0  0
  -27.7875  -34.5845   24.9348 C   0  0  0  0  0  0  0  0  0  0  0  0
  -29.7784  -11.9916   19.0737 C   0  0  0  0  0  0  0  0  0  0  0  0
  -28.3217  -33.1706   24.7294 C   0  0  0  0  0  0  0  0  0  0  0  0
  -28.3580  -11.7689   19.5981 C   0  0  0  0  0  0  0  0  0  0  0  0
  -30.5959  -12.8798   20.0100 C   0  0  0  0  0  0  0  0  0  0  0  0
  -28.5484  -13.9398   20.8779 C   0  0  0  0  0  0  0  0  0  0  0  0
  -28.5250  -32.8687   23.2397 C   0  0  1  0  0  0  0  0  0  0  0  0
  -25.3593  -31.2536   21.8970 C   0  0  1  0  0  0  0  0  0  0  0  0
  -27.6663  -13.1042   19.9359 C   0  0  2  0  0  0  0  0  0  0  0  0
  -33.4055  -19.5890   21.2251 C   0  0  0  0  0  0  0  0  0  0  0  0
  -18.6059  -28.3872   24.3826 C   0  0  0  0  0  0  0  0  0  0  0  0
  -24.4790  -20.8107   22.9531 C   0  0  0  0  0  0  0  0  0  0  0  0
  -23.2103  -19.8065   21.0448 C   0  0  0  0  0  0  0  0  0  0  0  0
  -24.8147  -29.7596   26.2366 C   0  0  0  0  0  0  0  0  0  0  0  0
  -22.6239  -28.6525   26.7292 C   0  0  0  0  0  0  0  0  0  0  0  0
  -22.7321  -31.1285   26.4455 C   0  0  0  0  0  0  0  0  0  0  0  0
  -19.7026  -28.8035   20.7632 C   0  0  0  0  0  0  0  0  0  0  0  0
  -26.3884  -24.5571   20.3382 C   0  0  0  0  0  0  0  0  0  1  0  0
  -25.0421  -21.4535   20.5479 C   0  0  0  0  0  0  0  0  0  0  0  0
  -26.4232  -22.0316   20.8658 C   0  0  1  0  0  0  0  0  0  0  0  0
  -22.9842  -29.6365   24.4199 C   0  0  1  0  0  0  0  0  0  0  0  0
  -19.4481  -28.9415   23.2441 C   0  0  2  0  0  0  0  0  0  0  0  0
  -24.5719  -20.3371   21.5020 C   0  0  0  0  0  0  0  0  0  0  0  0
  -23.3032  -29.7879   25.9341 C   0  0  0  0  0  0  0  0  0  0  0  0
  -26.0341  -11.7904   21.2364 N   0  0  0  0  0  0  0  0  0  0  0  0
  -26.2747  -12.8893   20.5011 N   0  0  0  0  0  0  0  0  0  0  0  0
  -24.5407  -30.2648   22.6016 N   0  0  0  0  0  0  0  0  0  0  0  0
  -29.8803  -14.1284   20.2819 N   0  0  0  0  0  0  0  0  0  0  0  0
  -25.2567  -14.8489   19.6443 N   0  0  0  0  0  0  0  0  0  0  0  0
  -21.9041  -12.8356   21.9033 N   0  0  0  0  0  0  0  0  0  0  0  0
  -29.7022  -16.4798   20.2446 N   0  0  0  0  0  0  0  0  0  0  0  0
  -27.4717  -21.0526   20.7484 N   0  0  0  0  0  0  0  0  0  0  0  0
  -27.2571  -32.5781   22.6053 N   0  0  0  0  0  0  0  0  0  0  0  0
  -21.5615  -29.6869   24.1011 N   0  0  0  0  0  0  0  0  0  0  0  0
  -18.9762  -28.3301   21.9696 N   0  3  0  0  0  0  0  0  0  0  0  0
  -28.9366  -22.0370   22.2533 O   0  0  0  0  0  0  0  0  0  0  0  0
  -22.4552  -14.6538   20.6190 O   0  0  0  0  0  0  0  0  0  0  0  0
  -27.1324  -30.3157   23.1426 O   0  0  0  0  0  0  0  0  0  0  0  0
  -27.2590  -22.9383   18.7886 O   0  0  0  0  0  0  0  0  0  0  0  0
  -23.3650  -31.8911   23.7886 O   0  0  0  0  0  0  0  0  0  0  0  0
  -21.4542  -27.6042   23.0872 O   0  0  0  0  0  0  0  0  0  0  0  0
  -31.6185  -15.4220   19.4761 O   0  0  0  0  0  0  0  0  0  0  0  0
  -22.2358   -8.0238   24.6910 O   0  0  0  0  0  0  0  0  0  0  0  0
  -26.7391  -25.5134   19.3389 O   0  0  0  0  0  0  0  0  0  1  0  0
  -17.2336   -6.3098   23.1277 F   0  0  0  0  0  0  0  0  0  0  0  0
  -21.7751   -5.3688   24.0733 F   0  0  0  0  0  0  0  0  0  0  0  0
  -31.4370  -21.5507   21.6796 F   0  0  0  0  0  0  0  0  0  0  0  0
  1  2  1  0  0  0  0
  1  5  2  0  0  0  0
  2  6  2  0  0  0  0
  3  8  2  0  0  0  0
  3 17  1  0  0  0  0
  4  9  1  0  0  0  0
  4 17  2  0  0  0  0
  5 20  1  0  0  0  0
  6 22  1  0  0  0  0
  7 10  2  0  0  0  0
  7 21  1  0  0  0  0
  8 26  1  0  0  0  0
  9 26  2  0  0  0  0
 10 27  1  0  0  0  0
 11 12  2  0  0  0  0
 11 28  1  0  0  0  0
 12 29  1  0  0  0  0
 13 18  1  0  0  0  0
 13 25  2  0  0  0  0
 14 23  1  0  0  0  0
 14 27  2  0  0  0  0
 15 24  2  0  0  0  0
 15 25  1  0  0  0  0
 16 29  2  0  0  0  0
 16 30  1  0  0  0  0
 17 32  1  0  0  0  0
 18 31  2  0  0  0  0
 18 34  1  0  0  0  0
 19 32  1  0  0  0  0
 19 33  2  0  0  0  0
 19 35  1  0  0  0  0
 20 22  2  0  0  0  0
 20 41  1  0  0  0  0
 21 23  2  0  0  0  0
 21 42  1  0  0  0  0
 22 50  1  0  0  0  0
 23 43  1  0  0  0  0
 24 31  1  0  0  0  0
 24 53  1  0  0  0  0
 25 74  1  0  0  0  0
 26 86  1  0  0  0  0
 27 87  1  0  0  0  0
 28 30  2  0  0  0  0
 28 86  1  0  0  0  0
 29 88  1  0  0  0  0
 30 89  1  0  0  0  0
 31 90  1  0  0  0  0
 32 68  2  0  0  0  0
 33 69  1  0  0  0  0
 33 72  1  0  0  0  0
 34 75  1  0  0  0  0
 34 79  2  0  0  0  0
 35 73  1  0  0  0  0
 35 80  2  0  0  0  0
 36 51  1  0  0  0  0
 36 76  1  0  0  0  0
 36 81  2  0  0  0  0
 37 61  1  0  0  0  0
 37 63  1  0  0  0  0
 37 82  2  0  0  0  0
 38 64  1  0  0  0  0
 38 70  1  0  0  0  0
 38 83  2  0  0  0  0
 39 65  1  0  0  0  0
 39 77  1  0  0  0  0
 39 84  2  0  0  0  0
 40 71  1  0  0  0  0
 40 74  1  0  0  0  0
 40 85  2  0  0  0  0
 41 44  1  0  0  0  0
 42 51  1  0  0  0  0
 43 70  1  0  0  0  0
 44 46  1  0  0  0  0
 45 47  1  0  0  0  0
 45 48  1  0  0  0  0
 46 50  1  0  0  0  0
 47 52  1  0  0  0  0
 48 71  1  0  0  0  0
 49 52  1  0  0  0  0
 49 71  1  0  0  0  0
 50 76  1  0  0  0  0
 51 70  1  0  0  0  0
 52 69  1  0  0  0  0
 54 65  1  0  0  0  0
 55 66  1  0  0  0  0
 56 66  1  0  0  0  0
 57 67  1  0  0  0  0
 58 67  1  0  0  0  0
 59 67  1  0  0  0  0
 60 78  1  0  0  0  0
 61 87  1  0  0  0  0
 62 63  1  0  0  0  0
 62 66  1  0  0  0  0
 63 75  1  0  0  0  0
 64 67  1  0  0  0  0
 64 77  1  0  0  0  0
 65 78  1  0  0  0  0
 68 69  1  0  0  0  0
M  CHG  1  78   1
M  ISO  4  40 100  61 101  74 100  87 101
M  END
> <Batch ID>
0067

> <Smiles>
CNC(C)C(=O)NC(C(=O)N1Cc2cc([101O:1][101CH2:1]C(=O)C(CC(C)C)NC(=O)c3cc([100NH:0][100C:0](=O)N4CCCC(n5nc(-c6ccc(Oc7ccc(F)cc7F)cc6)c(C(N)=O)c5N)C4)cc(C)c3F)ccc2CC1C(=O)NC1CCCc2ccccc21)C(C)(C)C

> <Shape>
0.291

> <Color>
0.166

> <Negative vol penalty>
0.000

$$$$

  -OEChem-04042323243D

 86 94  0     1  0  0  0  0  0999 V2000
  -39.6265  -29.4759   19.7335 C   0  0  0  0  0  0  0  0  0  0  0  0
  -39.5301  -28.5054   20.7257 C   0  0  0  0  0  0  0  0  0  0  0  0
  -23.0186   -9.8645   19.9786 C   0  0  0  0  0  0  0  0  0  0  0  0
  -23.7383   -9.9335   22.2839 C   0  0  0  0  0  0  0  0  0  0  0  0
  -38.4696  -30.0133   19.1708 C   0  0  0  0  0  0  0  0  0  0  0  0
  -38.2765  -28.0726   21.1565 C   0  0  0  0  0  0  0  0  0  0  0  0
  -36.7516  -22.4216   22.9582 C   0  0  0  0  0  0  0  0  0  0  0  0
  -32.0026  -16.6243   22.5495 C   0  0  0  0  0  0  0  0  0  0  0  0
  -32.5802  -17.5303   23.4390 C   0  0  0  0  0  0  0  0  0  0  0  0
  -22.2630   -8.7236   20.2485 C   0  0  0  0  0  0  0  0  0  0  0  0
  -22.9826   -8.7925   22.5539 C   0  0  0  0  0  0  0  0  0  0  0  0
  -36.6210  -21.8425   24.2197 C   0  0  0  0  0  0  0  0  0  0  0  0
  -23.2615   -5.4541   22.0980 C   0  0  0  0  0  0  0  0  0  0  0  0
  -23.8577   -4.4464   22.8561 C   0  0  0  0  0  0  0  0  0  0  0  0
  -34.2473  -22.2685   24.1627 C   0  0  0  0  0  0  0  0  0  0  0  0
  -29.8143  -17.5026   23.0761 C   0  0  0  0  0  0  0  0  0  0  0  0
  -22.1278   -4.6796   24.5265 C   0  0  0  0  0  0  0  0  0  0  0  0
  -23.7563  -10.4694   20.9962 C   0  0  0  0  0  0  0  0  0  0  0  0
  -24.1166  -12.9879   20.8093 C   0  0  0  0  0  0  0  0  0  0  0  0
  -37.2013  -29.5799   19.5882 C   0  0  0  0  0  0  0  0  0  0  0  0
  -35.6309  -22.9392   22.2931 C   0  0  0  0  0  0  0  0  0  0  0  0
  -37.1015  -28.6057   20.5999 C   0  0  0  0  0  0  0  0  0  0  0  0
  -34.3660  -22.8514   22.8918 C   0  0  0  0  0  0  0  0  0  0  0  0
  -30.6196  -16.6106   22.3680 C   0  0  0  0  0  0  0  0  0  0  0  0
  -31.7750  -18.4223   24.1471 C   0  0  0  0  0  0  0  0  0  0  0  0
  -22.2449   -8.1876   21.5362 C   0  0  0  0  0  0  0  0  0  0  0  0
  -35.3691  -21.7685   24.8234 C   0  0  0  0  0  0  0  0  0  0  0  0
  -22.0985   -6.0747   22.5542 C   0  0  0  0  0  0  0  0  0  0  0  0
  -23.2908   -4.0591   24.0703 C   0  0  0  0  0  0  0  0  0  0  0  0
  -21.5317   -5.6874   23.7684 C   0  0  0  0  0  0  0  0  0  0  0  0
  -30.3920  -18.4085   23.9656 C   0  0  0  0  0  0  0  0  0  0  0  0
  -24.5375  -11.6477   20.7178 C   0  0  0  0  0  0  0  0  0  0  0  0
  -25.2199  -13.7200   20.4439 C   0  0  0  0  0  0  0  0  0  0  0  0
  -22.8424  -13.5233   21.1906 C   0  0  0  0  0  0  0  0  0  0  0  0
  -34.7673  -25.8184   21.2596 C   0  0  0  0  0  0  0  0  0  0  0  0
  -32.2765  -24.1827   19.9780 C   0  0  0  0  0  0  0  0  0  0  0  0
  -30.2736  -21.4208   20.0627 C   0  0  0  0  0  0  0  0  0  0  0  0
  -33.7438  -19.4654   25.3196 C   0  0  0  0  0  0  0  0  0  0  0  0
  -30.6889  -14.7373   20.6850 C   0  0  0  0  0  0  0  0  0  0  0  0
  -35.9788  -30.2242   18.9840 C   0  0  0  0  0  0  0  0  0  0  0  0
  -35.7845  -23.5366   20.9212 C   0  0  0  0  0  0  0  0  0  0  0  0
  -33.1283  -23.3740   22.2109 C   0  0  0  0  0  0  0  0  0  0  0  0
  -34.6922  -29.4409   19.2315 C   0  0  0  0  0  0  0  0  0  0  0  0
  -29.6004  -12.2625   18.3681 C   0  0  0  0  0  0  0  0  0  0  0  0
  -34.5980  -29.0174   20.6939 C   0  0  0  0  0  0  0  0  0  0  0  0
  -28.1515  -11.9922   18.7804 C   0  0  0  0  0  0  0  0  0  0  0  0
  -30.4958  -12.5206   19.5787 C   0  0  0  0  0  0  0  0  0  0  0  0
  -28.5697  -13.2963   20.9045 C   0  0  0  0  0  0  0  0  0  0  0  0
  -35.7599  -28.0926   21.0763 C   0  0  1  0  0  0  0  0  0  0  0  0
  -34.6549  -24.4950   20.5570 C   0  0  1  0  0  0  0  0  0  0  0  0
  -27.6165  -13.0948   19.7151 C   0  0  2  0  0  0  0  0  0  0  0  0
  -28.2999  -20.3827   18.9119 C   0  0  0  0  0  0  0  0  0  0  0  0
  -34.0399  -20.0093   27.7642 C   0  0  0  0  0  0  0  0  0  0  0  0
  -30.4201  -26.1443   21.3979 C   0  0  0  0  0  0  0  0  0  0  0  0
  -28.5401  -24.5364   21.0121 C   0  0  0  0  0  0  0  0  0  0  0  0
  -29.7283  -25.5530   19.0685 C   0  0  0  0  0  0  0  0  0  0  0  0
  -31.8446  -19.0448   19.2592 C   0  0  0  0  0  0  0  0  0  0  0  0
  -30.8982  -23.7899   20.4523 C   0  0  1  0  0  0  0  0  0  0  0  0
  -29.8169  -20.4738   18.9677 C   0  0  2  0  0  0  0  0  0  0  0  0
  -33.9975  -20.5645   26.3482 C   0  0  1  0  0  0  0  0  0  1  0  0
  -29.9201  -24.9977   20.4966 C   0  0  0  0  0  0  0  0  0  0  0  0
  -25.8089  -11.5321   20.3249 N   0  0  0  0  0  0  0  0  0  0  0  0
  -26.1963  -12.8092   20.1662 N   0  0  0  0  0  0  0  0  0  0  0  0
  -33.3311  -23.9548   20.8733 N   0  0  0  0  0  0  0  0  0  0  0  0
  -29.9283  -13.5798   20.4159 N   0  0  0  0  0  0  0  0  0  0  0  0
  -25.4402  -15.0475   20.3362 N   0  0  0  0  0  0  0  0  0  0  0  0
  -21.8188  -12.6304   21.5361 N   0  0  0  0  0  0  0  0  0  0  0  0
  -32.3872  -19.3308   25.0430 N   0  0  0  0  0  0  0  0  0  0  0  0
  -30.0333  -15.6896   21.4648 N   0  0  0  0  0  0  0  0  0  0  0  0
  -35.5245  -26.7536   20.5802 N   0  0  0  0  0  0  0  0  0  0  0  0
  -30.4632  -22.7003   19.5850 N   0  0  0  0  0  0  0  0  0  0  0  0
  -30.3613  -19.1069   19.2046 N   0  3  0  0  0  0  0  0  0  0  0  0
  -29.6494  -20.8185   24.2399 O   0  5  0  0  0  0  0  0  0  0  0  0
  -22.6132  -14.7565   21.2082 O   0  0  0  0  0  0  0  0  0  0  0  0
  -34.2073  -25.9796   22.3376 O   0  0  0  0  0  0  0  0  0  0  0  0
  -32.4133  -24.6671   18.8519 O   0  0  0  0  0  0  0  0  0  0  0  0
  -30.4415  -21.0622   21.2262 O   0  0  0  0  0  0  0  0  0  0  0  0
  -34.6706  -18.8297   24.8258 O   0  0  0  0  0  0  0  0  0  0  0  0
  -31.8270  -14.8856   20.2328 O   0  0  0  0  0  0  0  0  0  0  0  0
  -27.9760  -19.0433   24.5802 O   0  0  0  0  0  0  0  0  0  0  0  0
  -29.7704  -19.3592   26.2360 O   0  0  0  0  0  0  0  0  0  0  0  0
  -21.5075   -7.0745   21.8000 O   0  0  0  0  0  0  0  0  0  0  0  0
  -35.2388  -21.2044   26.0549 O   0  0  0  0  0  0  0  0  0  1  0  0
  -23.8625   -3.0903   24.7974 F   0  0  0  0  0  0  0  0  0  0  0  0
  -20.4138   -6.2791   24.2113 F   0  0  0  0  0  0  0  0  0  0  0  0
  -29.3465  -19.5106   24.8371 S   0  0  0  0  0  0  0  0  0  0  0  0
  1  2  1  0  0  0  0
  1  5  2  0  0  0  0
  2  6  2  0  0  0  0
  3 10  2  0  0  0  0
  3 18  1  0  0  0  0
  4 11  1  0  0  0  0
  4 18  2  0  0  0  0
  5 20  1  0  0  0  0
  6 22  1  0  0  0  0
  7 12  2  0  0  0  0
  7 21  1  0  0  0  0
  8  9  2  0  0  0  0
  8 24  1  0  0  0  0
  9 25  1  0  0  0  0
 10 26  1  0  0  0  0
 11 26  2  0  0  0  0
 12 27  1  0  0  0  0
 13 14  2  0  0  0  0
 13 28  1  0  0  0  0
 14 29  1  0  0  0  0
 15 23  1  0  0  0  0
 15 27  2  0  0  0  0
 16 24  2  0  0  0  0
 16 31  1  0  0  0  0
 17 29  2  0  0  0  0
 17 30  1  0  0  0  0
 18 32  1  0  0  0  0
 19 32  1  0  0  0  0
 19 33  2  0  0  0  0
 19 34  1  0  0  0  0
 20 22  2  0  0  0  0
 20 40  1  0  0  0  0
 21 23  2  0  0  0  0
 21 41  1  0  0  0  0
 22 49  1  0  0  0  0
 23 42  1  0  0  0  0
 24 69  1  0  0  0  0
 25 31  2  0  0  0  0
 25 68  1  0  0  0  0
 26 82  1  0  0  0  0
 27 83  1  0  0  0  0
 28 30  2  0  0  0  0
 28 82  1  0  0  0  0
 29 84  1  0  0  0  0
 30 85  1  0  0  0  0
 31 86  1  0  0  0  0
 32 62  2  0  0  0  0
 33 63  1  0  0  0  0
 33 66  1  0  0  0  0
 34 67  1  0  0  0  0
 34 74  2  0  0  0  0
 35 50  1  0  0  0  0
 35 70  1  0  0  0  0
 35 75  2  0  0  0  0
 36 58  1  0  0  0  0
 36 64  1  0  0  0  0
 36 76  2  0  0  0  0
 37 59  1  0  0  0  0
 37 71  1  0  0  0  0
 37 77  2  0  0  0  0
 38 60  1  0  0  0  0
 38 68  1  0  0  0  0
 38 78  2  0  0  0  0
 39 65  1  0  0  0  0
 39 69  1  0  0  0  0
 39 79  2  0  0  0  0
 40 43  1  0  0  0  0
 41 50  1  0  0  0  0
 42 64  1  0  0  0  0
 43 45  1  0  0  0  0
 44 46  1  0  0  0  0
 44 47  1  0  0  0  0
 45 49  1  0  0  0  0
 46 51  1  0  0  0  0
 47 65  1  0  0  0  0
 48 51  1  0  0  0  0
 48 65  1  0  0  0  0
 49 70  1  0  0  0  0
 50 64  1  0  0  0  0
 51 63  1  0  0  0  0
 52 59  1  0  0  0  0
 53 60  1  0  0  0  0
 54 61  1  0  0  0  0
 55 61  1  0  0  0  0
 56 61  1  0  0  0  0
 57 72  1  0  0  0  0
 58 61  1  0  0  0  0
 58 71  1  0  0  0  0
 59 72  1  0  0  0  0
 60 83  1  0  0  0  0
 62 63  1  0  0  0  0
 73 86  1  0  0  0  0
 80 86  2  0  0  0  0
 81 86  2  0  0  0  0
M  CHG  2  72   1  73  -1
M  ISO  4  39 100  60 101  69 100  83 101
M  END
> <Batch ID>
0067

> <Smiles>
CNC(C)C(=O)NC(C(=O)N1Cc2cc([101O:1][101CH:1](C)C(=O)Nc3ccc([100NH:0][100C:0](=O)N4CCCC(n5nc(-c6ccc(Oc7ccc(F)cc7F)cc6)c(C(N)=O)c5N)C4)cc3S(=O)(=O)O)ccc2CC1C(=O)NC1CCCc2ccccc21)C(C)(C)C

> <Shape>
0.222

> <Color>
0.183

> <Negative vol penalty>
0.000

$$$$

  -OEChem-04042323243D

 88 97  0     1  0  0  0  0  0999 V2000
  -26.2026  -30.8281   27.8909 C   0  0  0  0  0  0  0  0  0  0  0  0
  -26.1648  -29.8645   26.8881 C   0  0  0  0  0  0  0  0  0  0  0  0
  -24.5456   -8.5326   21.3394 C   0  0  0  0  0  0  0  0  0  0  0  0
  -22.8386  -10.2339   21.5090 C   0  0  0  0  0  0  0  0  0  0  0  0
  -25.2920  -31.8837   27.8764 C   0  0  0  0  0  0  0  0  0  0  0  0
  -25.2155  -29.9555   25.8708 C   0  0  0  0  0  0  0  0  0  0  0  0
  -27.1894  -29.0886   21.2885 C   0  0  0  0  0  0  0  0  0  0  0  0
  -23.9014   -7.7878   22.3273 C   0  0  0  0  0  0  0  0  0  0  0  0
  -22.1944   -9.4891   22.4969 C   0  0  0  0  0  0  0  0  0  0  0  0
  -27.4268  -27.7601   20.9384 C   0  0  0  0  0  0  0  0  0  0  0  0
  -21.2322   -5.7239   22.5479 C   0  0  0  0  0  0  0  0  0  0  0  0
  -21.0797   -4.3545   22.3312 C   0  0  0  0  0  0  0  0  0  0  0  0
  -25.3842  -27.7397   19.6552 C   0  0  0  0  0  0  0  0  0  0  0  0
  -25.0089  -20.6497   20.3192 C   0  0  0  0  0  0  0  0  0  0  0  0
  -26.8849  -19.1294   20.2413 C   0  0  0  0  0  0  0  0  0  0  0  0
  -24.6315  -18.2635   20.3385 C   0  0  0  0  0  0  0  0  0  0  0  0
  -22.3567   -3.8960   24.3303 C   0  0  0  0  0  0  0  0  0  0  0  0
  -24.0142   -9.7557   20.9303 C   0  0  0  0  0  0  0  0  0  0  0  0
  -24.4706  -10.4551   18.5198 C   0  0  0  0  0  0  0  0  0  0  0  0
  -24.3373  -31.9930   26.8530 C   0  0  0  0  0  0  0  0  0  0  0  0
  -26.0402  -29.7504   20.8327 C   0  0  0  0  0  0  0  0  0  0  0  0
  -24.2904  -31.0129   25.8433 C   0  0  0  0  0  0  0  0  0  0  0  0
  -25.1359  -29.0774   19.9989 C   0  0  0  0  0  0  0  0  0  0  0  0
  -26.3854  -20.4316   20.2609 C   0  0  0  0  0  0  0  0  0  0  0  0
  -24.1320  -19.5657   20.3581 C   0  0  0  0  0  0  0  0  0  0  0  0
  -26.0080  -18.0453   20.2801 C   0  0  0  0  0  0  0  0  0  0  0  0
  -22.7258   -8.2660   22.9060 C   0  0  0  0  0  0  0  0  0  0  0  0
  -26.5226  -27.0845   20.1240 C   0  0  0  0  0  0  0  0  0  0  0  0
  -21.9470   -6.1794   23.6557 C   0  0  0  0  0  0  0  0  0  0  0  0
  -21.6419   -3.4405   23.2225 C   0  0  0  0  0  0  0  0  0  0  0  0
  -22.5092   -5.2655   24.5469 C   0  0  0  0  0  0  0  0  0  0  0  0
  -24.6794  -10.5258   19.9102 C   0  0  0  0  0  0  0  0  0  0  0  0
  -25.3393  -11.3803   17.9947 C   0  0  0  0  0  0  0  0  0  0  0  0
  -28.6917  -21.4817   20.1597 C   0  0  0  0  0  0  0  0  0  0  0  0
  -23.5716   -9.6273   17.7701 C   0  0  0  0  0  0  0  0  0  0  0  0
  -23.5154  -31.0822   22.2312 C   0  0  0  0  0  0  0  0  0  0  0  0
  -22.8191  -32.0147   19.2033 C   0  0  0  0  0  0  0  0  0  0  0  0
  -23.1807  -31.4812   15.8520 C   0  0  0  0  0  0  0  0  0  0  0  0
  -27.8532  -16.3321   20.2004 C   0  0  0  0  0  0  0  0  0  0  0  0
  -23.3431  -33.1259   26.9057 C   0  0  0  0  0  0  0  0  0  0  0  0
  -25.8123  -31.1917   21.1975 C   0  0  0  0  0  0  0  0  0  0  0  0
  -23.8973  -29.7490   19.4665 C   0  0  0  0  0  0  0  0  0  0  0  0
  -22.6107  -33.3554   25.5861 C   0  0  0  0  0  0  0  0  0  0  0  0
  -29.5457  -13.4919   18.8790 C   0  0  0  0  0  0  0  0  0  0  0  0
  -22.1184  -32.0309   25.0115 C   0  0  0  0  0  0  0  0  0  0  0  0
  -28.4692  -12.4042   18.8613 C   0  0  0  0  0  0  0  0  0  0  0  0
  -29.4136  -14.4007   20.0998 C   0  0  0  0  0  0  0  0  0  0  0  0
  -26.8136  -22.9120   20.2877 C   0  0  0  0  0  0  0  0  0  0  0  0
  -27.0068  -13.9044   20.2748 C   0  0  0  0  0  0  0  0  0  0  0  0
  -23.2915  -31.0907   24.7092 C   0  0  1  0  0  0  0  0  0  0  0  0
  -24.3484  -31.6092   21.0971 C   0  0  1  0  0  0  0  0  0  0  0  0
  -28.0025  -23.7376   19.8116 C   0  0  2  0  0  0  0  0  0  0  0  0
  -27.0594  -13.0038   19.0299 C   0  0  2  0  0  0  0  0  0  0  0  0
  -29.2176  -22.9145   20.2840 C   0  0  1  0  0  0  0  0  0  0  0  0
  -29.6070  -23.1521   21.7499 C   0  0  0  0  0  0  0  0  0  0  0  0
  -30.0987  -22.8960   17.9444 C   0  0  0  0  0  0  0  0  0  0  0  0
  -22.4618  -32.3859   13.6244 C   0  0  0  0  0  0  0  0  0  0  0  0
  -20.0687  -30.7484   19.5794 C   0  0  0  0  0  0  0  0  0  0  0  0
  -19.7684  -30.8300   17.0952 C   0  0  0  0  0  0  0  0  0  0  0  0
  -20.0510  -32.9460   18.3857 C   0  0  0  0  0  0  0  0  0  0  0  0
  -25.9710  -32.0701   15.0604 C   0  0  0  0  0  0  0  0  0  0  0  0
  -27.9379  -25.1807   20.2916 C   0  0  0  0  0  0  0  0  0  1  0  0
  -30.4325  -23.1314   19.3802 C   0  0  0  0  0  0  0  0  0  0  0  0
  -22.0403  -31.4212   18.0543 C   0  0  1  0  0  0  0  0  0  0  0  0
  -23.5231  -32.4246   14.7130 C   0  0  2  0  0  0  0  0  0  0  0  0
  -20.5043  -31.4729   18.2901 C   0  0  0  0  0  0  0  0  0  0  0  0
  -25.6081  -11.4247   20.2471 N   0  0  0  0  0  0  0  0  0  0  0  0
  -25.9906  -11.9273   19.0609 N   0  0  0  0  0  0  0  0  0  0  0  0
  -27.2836  -21.5407   20.2198 N   0  0  0  0  0  0  0  0  0  0  0  0
  -23.7155  -31.1570   19.8564 N   0  0  0  0  0  0  0  0  0  0  0  0
  -28.0533  -14.9354   20.1924 N   0  0  0  0  0  0  0  0  0  0  0  0
  -22.7401  -19.7856   20.4170 N   0  0  0  0  0  0  0  0  0  0  0  0
  -25.6021  -11.7711   16.7295 N   0  0  0  0  0  0  0  0  0  0  0  0
  -22.7493   -8.7317   18.4672 N   0  0  0  0  0  0  0  0  0  0  0  0
  -26.5158  -16.7226   20.2586 N   0  0  0  0  0  0  0  0  0  0  0  0
  -23.9491  -31.4819   23.4808 N   0  0  0  0  0  0  0  0  0  0  0  0
  -22.4846  -32.1225   16.8546 N   0  0  0  0  0  0  0  0  0  0  0  0
  -24.8322  -32.0510   14.1067 N   0  3  0  0  0  0  0  0  0  0  0  0
  -29.4261  -20.5058   20.0894 O   0  0  0  0  0  0  0  0  0  0  0  0
  -23.5113   -9.6685   16.5178 O   0  0  0  0  0  0  0  0  0  0  0  0
  -22.5499  -30.3671   21.9902 O   0  0  0  0  0  0  0  0  0  0  0  0
  -22.6440  -33.1978   19.5055 O   0  0  0  0  0  0  0  0  0  0  0  0
  -23.4959  -30.2933   15.8505 O   0  0  0  0  0  0  0  0  0  0  0  0
  -28.7972  -17.1233   20.1313 O   0  0  0  0  0  0  0  0  0  0  0  0
  -22.0969   -7.5394   23.8698 O   0  0  0  0  0  0  0  0  0  0  0  0
  -26.7515  -25.7876   19.7813 O   0  0  0  0  0  0  0  0  0  1  0  0
  -21.4941   -2.1255   23.0151 F   0  0  0  0  0  0  0  0  0  0  0  0
  -23.1960   -5.6971   25.6136 F   0  0  0  0  0  0  0  0  0  0  0  0
  1  2  1  0  0  0  0
  1  5  2  0  0  0  0
  2  6  2  0  0  0  0
  3  8  2  0  0  0  0
  3 18  1  0  0  0  0
  4  9  1  0  0  0  0
  4 18  2  0  0  0  0
  5 20  1  0  0  0  0
  6 22  1  0  0  0  0
  7 10  2  0  0  0  0
  7 21  1  0  0  0  0
  8 27  1  0  0  0  0
  9 27  2  0  0  0  0
 10 28  1  0  0  0  0
 11 12  2  0  0  0  0
 11 29  1  0  0  0  0
 12 30  1  0  0  0  0
 13 23  1  0  0  0  0
 13 28  2  0  0  0  0
 14 24  1  0  0  0  0
 14 25  2  0  0  0  0
 15 24  2  0  0  0  0
 15 26  1  0  0  0  0
 16 25  1  0  0  0  0
 16 26  2  0  0  0  0
 17 30  2  0  0  0  0
 17 31  1  0  0  0  0
 18 32  1  0  0  0  0
 19 32  1  0  0  0  0
 19 33  2  0  0  0  0
 19 35  1  0  0  0  0
 20 22  2  0  0  0  0
 20 40  1  0  0  0  0
 21 23  2  0  0  0  0
 21 41  1  0  0  0  0
 22 50  1  0  0  0  0
 23 42  1  0  0  0  0
 24 69  1  0  0  0  0
 25 72  1  0  0  0  0
 26 75  1  0  0  0  0
 27 85  1  0  0  0  0
 28 86  1  0  0  0  0
 29 31  2  0  0  0  0
 29 85  1  0  0  0  0
 30 87  1  0  0  0  0
 31 88  1  0  0  0  0
 32 67  2  0  0  0  0
 33 68  1  0  0  0  0
 33 73  1  0  0  0  0
 34 54  1  0  0  0  0
 34 69  1  0  0  0  0
 34 79  2  0  0  0  0
 35 74  1  0  0  0  0
 35 80  2  0  0  0  0
 36 51  1  0  0  0  0
 36 76  1  0  0  0  0
 36 81  2  0  0  0  0
 37 64  1  0  0  0  0
 37 70  1  0  0  0  0
 37 82  2  0  0  0  0
 38 65  1  0  0  0  0
 38 77  1  0  0  0  0
 38 83  2  0  0  0  0
 39 71  1  0  0  0  0
 39 75  1  0  0  0  0
 39 84  2  0  0  0  0
 40 43  1  0  0  0  0
 41 51  1  0  0  0  0
 42 70  1  0  0  0  0
 43 45  1  0  0  0  0
 44 46  1  0  0  0  0
 44 47  1  0  0  0  0
 45 50  1  0  0  0  0
 46 53  1  0  0  0  0
 47 71  1  0  0  0  0
 48 52  1  0  0  0  0
 48 69  1  0  0  0  0
 49 53  1  0  0  0  0
 49 71  1  0  0  0  0
 50 76  1  0  0  0  0
 51 70  1  0  0  0  0
 52 54  1  0  0  0  0
 52 62  1  0  0  0  0
 53 68  1  0  0  0  0
 54 55  1  0  0  0  0
 54 63  1  0  0  0  0
 56 63  1  0  0  0  0
 57 65  1  0  0  0  0
 58 66  1  0  0  0  0
 59 66  1  0  0  0  0
 60 66  1  0  0  0  0
 61 78  1  0  0  0  0
 62 86  1  0  0  0  0
 64 66  1  0  0  0  0
 64 77  1  0  0  0  0
 65 78  1  0  0  0  0
 67 68  1  0  0  0  0
M  CHG  1  78   1
M  ISO  4  39 100  62 101  75 100  86 101
M  END
> <Batch ID>
0067

> <Smiles>
CCC1(C)C(=O)N(c2cc(N)cc([100NH:0][100C:0](=O)N3CCCC(n4nc(-c5ccc(Oc6ccc(F)cc6F)cc5)c(C(N)=O)c4N)C3)c2)CC1[101CH2:1][101O:1]c1ccc2c(c1)CN(C(=O)C(NC(=O)C(C)NC)C(C)(C)C)C(C(=O)NC1CCCc3ccccc31)C2

> <Shape>
0.270

> <Color>
0.091

> <Negative vol penalty>
0.000

$$$$

  -OEChem-04042323243D

 84 92  0     1  0  0  0  0  0999 V2000
  -18.4516  -31.8353   25.3131 C   0  0  0  0  0  0  0  0  0  0  0  0
  -19.1977  -30.7308   25.7118 C   0  0  0  0  0  0  0  0  0  0  0  0
  -23.0159   -9.9835   19.8722 C   0  0  0  0  0  0  0  0  0  0  0  0
  -23.8837   -9.7449   22.1143 C   0  0  0  0  0  0  0  0  0  0  0  0
  -18.2478  -32.0846   23.9566 C   0  0  0  0  0  0  0  0  0  0  0  0
  -19.7395  -29.8744   24.7540 C   0  0  0  0  0  0  0  0  0  0  0  0
  -25.0712  -26.8798   25.0883 C   0  0  0  0  0  0  0  0  0  0  0  0
  -31.1917  -17.6596   20.9577 C   0  0  0  0  0  0  0  0  0  0  0  0
  -31.3743  -19.0348   21.1025 C   0  0  0  0  0  0  0  0  0  0  0  0
  -22.2731   -8.8143   20.0352 C   0  0  0  0  0  0  0  0  0  0  0  0
  -23.1408   -8.5756   22.2774 C   0  0  0  0  0  0  0  0  0  0  0  0
  -25.3904  -25.5692   25.4407 C   0  0  0  0  0  0  0  0  0  0  0  0
  -23.3714   -5.3294   21.3608 C   0  0  0  0  0  0  0  0  0  0  0  0
  -24.0098   -4.2311   21.9366 C   0  0  0  0  0  0  0  0  0  0  0  0
  -29.6488  -17.6687   22.8169 C   0  0  0  0  0  0  0  0  0  0  0  0
  -25.3971  -24.9504   23.1091 C   0  0  0  0  0  0  0  0  0  0  0  0
  -22.3930   -4.2324   23.7319 C   0  0  0  0  0  0  0  0  0  0  0  0
  -23.8213  -10.4489   20.9117 C   0  0  0  0  0  0  0  0  0  0  0  0
  -29.8315  -19.0440   22.9617 C   0  0  0  0  0  0  0  0  0  0  0  0
  -24.1825  -12.9708   21.0413 C   0  0  0  0  0  0  0  0  0  0  0  0
  -18.7956  -31.2362   22.9815 C   0  0  0  0  0  0  0  0  0  0  0  0
  -24.9016  -27.2337   23.7421 C   0  0  0  0  0  0  0  0  0  0  0  0
  -19.5418  -30.1118   23.3832 C   0  0  0  0  0  0  0  0  0  0  0  0
  -25.0783  -26.2668   22.7421 C   0  0  0  0  0  0  0  0  0  0  0  0
  -30.3289  -16.9765   21.8149 C   0  0  0  0  0  0  0  0  0  0  0  0
  -30.6943  -19.7270   22.1045 C   0  0  0  0  0  0  0  0  0  0  0  0
  -22.3355   -8.1103   21.2378 C   0  0  0  0  0  0  0  0  0  0  0  0
  -25.5506  -24.6036   24.4512 C   0  0  0  0  0  0  0  0  0  0  0  0
  -22.2438   -5.8794   21.9705 C   0  0  0  0  0  0  0  0  0  0  0  0
  -23.5206   -3.6825   23.1221 C   0  0  0  0  0  0  0  0  0  0  0  0
  -21.7546   -5.3309   23.1561 C   0  0  0  0  0  0  0  0  0  0  0  0
  -24.5893  -11.6563   20.7438 C   0  0  0  0  0  0  0  0  0  0  0  0
  -25.2638  -13.7489   20.7066 C   0  0  0  0  0  0  0  0  0  0  0  0
  -29.1008  -19.7542   24.0315 C   0  0  0  0  0  0  0  0  0  0  0  0
  -22.9386  -13.4460   21.5728 C   0  0  0  0  0  0  0  0  0  0  0  0
  -22.4891  -28.3600   22.0057 C   0  0  0  0  0  0  0  0  0  0  0  0
  -24.7553  -28.5527   19.6928 C   0  0  0  0  0  0  0  0  0  0  0  0
  -27.4722  -21.5499   24.5734 C   0  0  0  0  0  0  0  0  0  0  0  0
  -27.7405  -27.4475   18.4623 C   0  0  0  0  0  0  0  0  0  0  0  0
  -30.7424  -14.7425   20.7265 C   0  0  0  0  0  0  0  0  0  0  0  0
  -18.5086  -31.5200   21.5283 C   0  0  0  0  0  0  0  0  0  0  0  0
  -24.5836  -28.6578   23.3769 C   0  0  0  0  0  0  0  0  0  0  0  0
  -24.9271  -26.6000   21.2811 C   0  0  0  0  0  0  0  0  0  0  0  0
  -19.4317  -30.7740   20.5682 C   0  0  0  0  0  0  0  0  0  0  0  0
  -29.4927  -12.5975   18.1743 C   0  0  0  0  0  0  0  0  0  0  0  0
  -19.5533  -29.3088   20.9747 C   0  0  0  0  0  0  0  0  0  0  0  0
  -28.0721  -12.2695   18.6397 C   0  0  0  0  0  0  0  0  0  0  0  0
  -30.4660  -12.6937   19.3478 C   0  0  0  0  0  0  0  0  0  0  0  0
  -28.6340  -13.2782   20.8878 C   0  0  0  0  0  0  0  0  0  0  0  0
  -20.1667  -29.1735   22.3736 C   0  0  1  0  0  0  0  0  0  0  0  0
  -23.9285  -28.7910   22.0056 C   0  0  1  0  0  0  0  0  0  0  0  0
  -27.6048  -13.2350   19.7466 C   0  0  2  0  0  0  0  0  0  0  0  0
  -29.3156  -27.7650   16.5347 C   0  0  0  0  0  0  0  0  0  0  0  0
  -22.8889  -26.9321   17.9039 C   0  0  0  0  0  0  0  0  0  0  0  0
  -24.8386  -26.4764   16.4009 C   0  0  0  0  0  0  0  0  0  0  0  0
  -24.0585  -28.8195   16.7531 C   0  0  0  0  0  0  0  0  0  0  0  0
  -29.9273  -28.3398   20.2457 C   0  0  0  0  0  0  0  0  0  0  0  0
  -26.6293  -22.5697   23.8551 C   0  0  0  0  0  0  0  0  0  1  0  0
  -25.2710  -27.6227   18.6212 C   0  0  1  0  0  0  0  0  0  0  0  0
  -28.9573  -28.1957   17.9486 C   0  0  2  0  0  0  0  0  0  0  0  0
  -24.2653  -27.4556   17.4473 C   0  0  0  0  0  0  0  0  0  0  0  0
  -25.8319  -11.5987   20.2573 N   0  0  0  0  0  0  0  0  0  0  0  0
  -26.2152  -12.8868   20.2465 N   0  0  0  0  0  0  0  0  0  0  0  0
  -24.6096  -28.0046   20.9751 N   0  0  0  0  0  0  0  0  0  0  0  0
  -29.9596  -13.6291   20.3545 N   0  0  0  0  0  0  0  0  0  0  0  0
  -30.8926  -21.1191   22.2363 N   0  0  0  0  0  0  0  0  0  0  0  0
  -25.4839  -15.0795   20.7638 N   0  0  0  0  0  0  0  0  0  0  0  0
  -21.9347  -12.5115   21.8611 N   0  0  0  0  0  0  0  0  0  0  0  0
  -30.1439  -15.5794   21.6678 N   0  0  0  0  0  0  0  0  0  0  0  0
  -28.2617  -20.7376   23.6780 N   0  0  0  0  0  0  0  0  0  0  0  0
  -21.5994  -29.3700   22.3184 N   0  0  0  0  0  0  0  0  0  0  0  0
  -26.5743  -28.1428   18.2220 N   0  0  0  0  0  0  0  0  0  0  0  0
  -29.3177  -19.3722   25.2897 N   0  3  0  0  0  0  0  0  0  0  0  0
  -30.1321  -27.9410   18.8294 N   0  3  0  0  0  0  0  0  0  0  0  0
  -22.7178  -14.6649   21.7704 O   0  0  0  0  0  0  0  0  0  0  0  0
  -22.2064  -27.1976   21.7401 O   0  0  0  0  0  0  0  0  0  0  0  0
  -24.4982  -29.7241   19.4044 O   0  0  0  0  0  0  0  0  0  0  0  0
  -27.5094  -21.3960   25.7858 O   0  0  0  0  0  0  0  0  0  0  0  0
  -27.8166  -26.3537   19.0177 O   0  0  0  0  0  0  0  0  0  0  0  0
  -31.8497  -14.9539   20.2254 O   0  0  0  0  0  0  0  0  0  0  0  0
  -21.6106   -6.9694   21.3972 O   0  0  0  0  0  0  0  0  0  0  0  0
  -25.8615  -23.3235   24.7924 O   0  0  0  0  0  0  0  0  0  1  0  0
  -24.1329   -2.6268   23.6741 F   0  0  0  0  0  0  0  0  0  0  0  0
  -20.6710   -5.8542   23.7459 F   0  0  0  0  0  0  0  0  0  0  0  0
  1  2  1  0  0  0  0
  1  5  2  0  0  0  0
  2  6  2  0  0  0  0
  3 10  2  0  0  0  0
  3 18  1  0  0  0  0
  4 11  1  0  0  0  0
  4 18  2  0  0  0  0
  5 21  1  0  0  0  0
  6 23  1  0  0  0  0
  7 12  2  0  0  0  0
  7 22  1  0  0  0  0
  8  9  2  0  0  0  0
  8 25  1  0  0  0  0
  9 26  1  0  0  0  0
 10 27  1  0  0  0  0
 11 27  2  0  0  0  0
 12 28  1  0  0  0  0
 13 14  2  0  0  0  0
 13 29  1  0  0  0  0
 14 30  1  0  0  0  0
 15 19  1  0  0  0  0
 15 25  2  0  0  0  0
 16 24  1  0  0  0  0
 16 28  2  0  0  0  0
 17 30  2  0  0  0  0
 17 31  1  0  0  0  0
 18 32  1  0  0  0  0
 19 26  2  0  0  0  0
 19 34  1  0  0  0  0
 20 32  1  0  0  0  0
 20 33  2  0  0  0  0
 20 35  1  0  0  0  0
 21 23  2  0  0  0  0
 21 41  1  0  0  0  0
 22 24  2  0  0  0  0
 22 42  1  0  0  0  0
 23 50  1  0  0  0  0
 24 43  1  0  0  0  0
 25 69  1  0  0  0  0
 26 66  1  0  0  0  0
 27 81  1  0  0  0  0
 28 82  1  0  0  0  0
 29 31  2  0  0  0  0
 29 81  1  0  0  0  0
 30 83  1  0  0  0  0
 31 84  1  0  0  0  0
 32 62  2  0  0  0  0
 33 63  1  0  0  0  0
 33 67  1  0  0  0  0
 34 70  1  0  0  0  0
 34 73  2  0  0  0  0
 35 68  1  0  0  0  0
 35 75  2  0  0  0  0
 36 51  1  0  0  0  0
 36 71  1  0  0  0  0
 36 76  2  0  0  0  0
 37 59  1  0  0  0  0
 37 64  1  0  0  0  0
 37 77  2  0  0  0  0
 38 58  1  0  0  0  0
 38 70  1  0  0  0  0
 38 78  2  0  0  0  0
 39 60  1  0  0  0  0
 39 72  1  0  0  0  0
 39 79  2  0  0  0  0
 40 65  1  0  0  0  0
 40 69  1  0  0  0  0
 40 80  2  0  0  0  0
 41 44  1  0  0  0  0
 42 51  1  0  0  0  0
 43 64  1  0  0  0  0
 44 46  1  0  0  0  0
 45 47  1  0  0  0  0
 45 48  1  0  0  0  0
 46 50  1  0  0  0  0
 47 52  1  0  0  0  0
 48 65  1  0  0  0  0
 49 52  1  0  0  0  0
 49 65  1  0  0  0  0
 50 71  1  0  0  0  0
 51 64  1  0  0  0  0
 52 63  1  0  0  0  0
 53 60  1  0  0  0  0
 54 61  1  0  0  0  0
 55 61  1  0  0  0  0
 56 61  1  0  0  0  0
 57 74  1  0  0  0  0
 58 82  1  0  0  0  0
 59 61  1  0  0  0  0
 59 72  1  0  0  0  0
 60 74  1  0  0  0  0
 62 63  1  0  0  0  0
M  CHG  2  73   1  74   1
M  ISO  4  40 100  58 101  69 100  82 101
M  END
> <Batch ID>
0067

> <Smiles>
CNC(C)C(=O)NC(C(=O)N1Cc2cc([101O:1][101CH2:1]C(=O)NC(=N)c3cc([100NH:0][100C:0](=O)N4CCCC(n5nc(-c6ccc(Oc7ccc(F)cc7F)cc6)c(C(N)=O)c5N)C4)ccc3N)ccc2CC1C(=O)NC1CCCc2ccccc21)C(C)(C)C

> <Shape>
0.279

> <Color>
0.200

> <Negative vol penalty>
0.000

$$$$

  -OEChem-04042323243D

 87 95  0     1  0  0  0  0  0999 V2000
  -30.1288  -34.5962   23.8026 C   0  0  0  0  0  0  0  0  0  0  0  0
  -29.8996  -33.2523   23.5254 C   0  0  0  0  0  0  0  0  0  0  0  0
  -26.3194  -13.0098   23.6127 C   0  0  0  0  0  0  0  0  0  0  0  0
  -26.6904  -14.4424   21.7030 C   0  0  0  0  0  0  0  0  0  0  0  0
  -29.0861  -35.3996   24.2623 C   0  0  0  0  0  0  0  0  0  0  0  0
  -28.6278  -32.7107   23.7089 C   0  0  0  0  0  0  0  0  0  0  0  0
  -27.1942  -29.7668   19.8458 C   0  0  0  0  0  0  0  0  0  0  0  0
  -25.9884  -11.9576   22.7591 C   0  0  0  0  0  0  0  0  0  0  0  0
  -26.3594  -13.3901   20.8493 C   0  0  0  0  0  0  0  0  0  0  0  0
  -27.7271  -28.4795   19.7944 C   0  0  0  0  0  0  0  0  0  0  0  0
  -23.3163  -10.9745   20.9377 C   0  0  0  0  0  0  0  0  0  0  0  0
  -22.1899  -10.2147   21.2533 C   0  0  0  0  0  0  0  0  0  0  0  0
  -23.0530  -23.9779   21.1058 C   0  0  0  0  0  0  0  0  0  0  0  0
  -25.6863  -27.6036   20.7362 C   0  0  0  0  0  0  0  0  0  0  0  0
  -22.8427  -22.9552   23.2845 C   0  0  0  0  0  0  0  0  0  0  0  0
  -23.5678   -8.2361   21.4072 C   0  0  0  0  0  0  0  0  0  0  0  0
  -26.6703  -14.2523   23.0847 C   0  0  0  0  0  0  0  0  0  0  0  0
  -24.1934  -23.2141   20.8573 C   0  0  0  0  0  0  0  0  0  0  0  0
  -28.2897  -15.6659   24.4585 C   0  0  0  0  0  0  0  0  0  0  0  0
  -27.7986  -34.8699   24.4423 C   0  0  0  0  0  0  0  0  0  0  0  0
  -25.9053  -29.9838   20.3538 C   0  0  0  0  0  0  0  0  0  0  0  0
  -27.5673  -33.5074   24.1727 C   0  0  0  0  0  0  0  0  0  0  0  0
  -25.1384  -28.8943   20.7906 C   0  0  0  0  0  0  0  0  0  0  0  0
  -23.9831  -22.1913   23.0361 C   0  0  0  0  0  0  0  0  0  0  0  0
  -26.0085  -12.1477   21.3774 C   0  0  0  0  0  0  0  0  0  0  0  0
  -26.9742  -27.3980   20.2423 C   0  0  0  0  0  0  0  0  0  0  0  0
  -24.5684  -10.3651   20.8568 C   0  0  0  0  0  0  0  0  0  0  0  0
  -22.3156   -8.8455   21.4881 C   0  0  0  0  0  0  0  0  0  0  0  0
  -22.3777  -23.8485   22.3194 C   0  0  0  0  0  0  0  0  0  0  0  0
  -24.6941   -8.9959   21.0916 C   0  0  0  0  0  0  0  0  0  0  0  0
  -24.6584  -22.3208   21.8224 C   0  0  0  0  0  0  0  0  0  0  0  0
  -27.0118  -15.3399   23.9660 C   0  0  0  0  0  0  0  0  0  0  0  0
  -28.0822  -16.7715   25.2465 C   0  0  0  0  0  0  0  0  0  0  0  0
  -24.9056  -23.3532   19.5713 C   0  0  0  0  0  0  0  0  0  0  0  0
  -29.5514  -15.0265   24.2245 C   0  0  0  0  0  0  0  0  0  0  0  0
  -24.7058  -31.6095   22.8078 C   0  0  0  0  0  0  0  0  0  0  0  0
  -21.8700  -30.7558   21.4844 C   0  0  0  0  0  0  0  0  0  0  0  0
  -20.1343  -28.5879   19.5008 C   0  0  0  0  0  0  0  0  0  0  0  0
  -23.8986  -21.0379   25.2741 C   0  0  0  0  0  0  0  0  0  0  0  0
  -26.7144  -35.7661   24.9863 C   0  0  0  0  0  0  0  0  0  0  0  0
  -25.3348  -31.3754   20.3777 C   0  0  0  0  0  0  0  0  0  0  0  0
  -23.7418  -29.0715   21.3260 C   0  0  0  0  0  0  0  0  0  0  0  0
  -25.3077  -35.2043   24.7970 C   0  0  0  0  0  0  0  0  0  0  0  0
  -24.7362  -18.8594   27.9630 C   0  0  0  0  0  0  0  0  0  0  0  0
  -25.2598  -33.7357   25.2066 C   0  0  0  0  0  0  0  0  0  0  0  0
  -25.5363  -17.7425   27.2889 C   0  0  0  0  0  0  0  0  0  0  0  0
  -23.5948  -19.3541   27.0762 C   0  0  0  0  0  0  0  0  0  0  0  0
  -24.7909  -18.6364   25.0456 C   0  0  0  0  0  0  0  0  0  0  0  0
  -26.1956  -32.8892   24.3355 C   0  0  1  0  0  0  0  0  0  0  0  0
  -24.2074  -31.5416   21.3920 C   0  0  1  0  0  0  0  0  0  0  0  0
  -25.9914  -18.1503   25.8739 C   0  0  2  0  0  0  0  0  0  0  0  0
  -17.8234  -28.1261   18.6384 C   0  0  0  0  0  0  0  0  0  0  0  0
  -21.0830  -29.6238   24.2064 C   0  0  0  0  0  0  0  0  0  0  0  0
  -19.2368  -28.3688   23.0729 C   0  0  0  0  0  0  0  0  0  0  0  0
  -19.2598  -30.8628   23.0251 C   0  0  0  0  0  0  0  0  0  0  0  0
  -29.3850  -24.0615   17.6450 C   0  0  0  0  0  0  0  0  0  0  0  0
  -20.9895  -28.9322   16.6885 C   0  0  0  0  0  0  0  0  0  0  0  0
  -26.9947  -23.9211   18.3840 C   0  0  0  0  0  0  0  0  0  0  0  0
  -28.4307  -25.8643   19.1550 C   0  0  0  0  0  0  0  0  0  1  0  0
  -20.9332  -29.5808   21.6292 C   0  0  1  0  0  0  0  0  0  0  0  0
  -19.1475  -28.8252   18.3720 C   0  0  2  0  0  0  0  0  0  0  0  0
  -20.1552  -29.6056   22.9751 C   0  0  0  0  0  0  0  0  0  0  0  0
  -28.4001  -24.3832   18.7673 C   0  0  2  0  0  0  0  0  0  0  0  0
  -26.0627  -16.1711   24.4046 N   0  0  0  0  0  0  0  0  0  0  0  0
  -26.7447  -17.0303   25.1810 N   0  0  0  0  0  0  0  0  0  0  0  0
  -23.2306  -30.4521   21.3350 N   0  0  0  0  0  0  0  0  0  0  0  0
  -24.1016  -19.7265   25.7536 N   0  0  0  0  0  0  0  0  0  0  0  0
  -28.9152  -17.5378   25.9823 N   0  0  0  0  0  0  0  0  0  0  0  0
  -24.2374  -23.0803   18.4505 N   0  0  0  0  0  0  0  0  0  0  0  0
  -29.5858  -13.9020   23.3886 N   0  0  0  0  0  0  0  0  0  0  0  0
  -24.4530  -21.2850   24.0187 N   0  0  0  0  0  0  0  0  0  0  0  0
  -25.5953  -32.6407   23.0423 N   0  0  0  0  0  0  0  0  0  0  0  0
  -20.0802  -29.5906   20.4457 N   0  0  0  0  0  0  0  0  0  0  0  0
  -26.1854  -23.7436   19.5924 N   0  3  0  0  0  0  0  0  0  0  0  0
  -19.6989  -28.3130   17.0856 N   0  3  0  0  0  0  0  0  0  0  0  0
  -30.6143  -15.4302   24.7544 O   0  0  0  0  0  0  0  0  0  0  0  0
  -24.3114  -30.7881   23.6272 O   0  0  0  0  0  0  0  0  0  0  0  0
  -21.4106  -31.9005   21.4959 O   0  0  0  0  0  0  0  0  0  0  0  0
  -20.8762  -27.6089   19.5422 O   0  0  0  0  0  0  0  0  0  0  0  0
  -23.3021  -21.8875   25.9407 O   0  0  0  0  0  0  0  0  0  0  0  0
  -25.6858  -11.1210   20.5441 O   0  0  0  0  0  0  0  0  0  0  0  0
  -27.4922  -26.1405   20.1939 O   0  0  0  0  0  0  0  0  0  1  0  0
  -21.2342   -8.1163   21.7927 F   0  0  0  0  0  0  0  0  0  0  0  0
  -21.2826  -24.5818   22.5578 F   0  0  0  0  0  0  0  0  0  0  0  0
  -25.8946   -8.4051   21.0164 F   0  0  0  0  0  0  0  0  0  0  0  0
  -25.7556  -21.5870   21.5822 F   0  0  0  0  0  0  0  0  0  0  0  0
  -28.7884  -23.6600   19.8616 F   0  0  0  0  0  0  0  0  0  0  0  0
  1  2  1  0  0  0  0
  1  5  2  0  0  0  0
  2  6  2  0  0  0  0
  3  8  2  0  0  0  0
  3 17  1  0  0  0  0
  4  9  1  0  0  0  0
  4 17  2  0  0  0  0
  5 20  1  0  0  0  0
  6 22  1  0  0  0  0
  7 10  2  0  0  0  0
  7 21  1  0  0  0  0
  8 25  1  0  0  0  0
  9 25  2  0  0  0  0
 10 26  1  0  0  0  0
 11 12  2  0  0  0  0
 11 27  1  0  0  0  0
 12 28  1  0  0  0  0
 13 18  1  0  0  0  0
 13 29  2  0  0  0  0
 14 23  1  0  0  0  0
 14 26  2  0  0  0  0
 15 24  2  0  0  0  0
 15 29  1  0  0  0  0
 16 28  2  0  0  0  0
 16 30  1  0  0  0  0
 17 32  1  0  0  0  0
 18 31  2  0  0  0  0
 18 34  1  0  0  0  0
 19 32  1  0  0  0  0
 19 33  2  0  0  0  0
 19 35  1  0  0  0  0
 20 22  2  0  0  0  0
 20 40  1  0  0  0  0
 21 23  2  0  0  0  0
 21 41  1  0  0  0  0
 22 49  1  0  0  0  0
 23 42  1  0  0  0  0
 24 31  1  0  0  0  0
 24 71  1  0  0  0  0
 25 81  1  0  0  0  0
 26 82  1  0  0  0  0
 27 30  2  0  0  0  0
 27 81  1  0  0  0  0
 28 83  1  0  0  0  0
 29 84  1  0  0  0  0
 30 85  1  0  0  0  0
 31 86  1  0  0  0  0
 32 64  2  0  0  0  0
 33 65  1  0  0  0  0
 33 68  1  0  0  0  0
 34 69  1  0  0  0  0
 34 74  2  0  0  0  0
 35 70  1  0  0  0  0
 35 76  2  0  0  0  0
 36 50  1  0  0  0  0
 36 72  1  0  0  0  0
 36 77  2  0  0  0  0
 37 60  1  0  0  0  0
 37 66  1  0  0  0  0
 37 78  2  0  0  0  0
 38 61  1  0  0  0  0
 38 73  1  0  0  0  0
 38 79  2  0  0  0  0
 39 67  1  0  0  0  0
 39 71  1  0  0  0  0
 39 80  2  0  0  0  0
 40 43  1  0  0  0  0
 41 50  1  0  0  0  0
 42 66  1  0  0  0  0
 43 45  1  0  0  0  0
 44 46  1  0  0  0  0
 44 47  1  0  0  0  0
 45 49  1  0  0  0  0
 46 51  1  0  0  0  0
 47 67  1  0  0  0  0
 48 51  1  0  0  0  0
 48 67  1  0  0  0  0
 49 72  1  0  0  0  0
 50 66  1  0  0  0  0
 51 65  1  0  0  0  0
 52 61  1  0  0  0  0
 53 62  1  0  0  0  0
 54 62  1  0  0  0  0
 55 62  1  0  0  0  0
 56 63  1  0  0  0  0
 57 75  1  0  0  0  0
 58 63  1  0  0  0  0
 58 74  1  0  0  0  0
 59 63  1  0  0  0  0
 59 82  1  0  0  0  0
 60 62  1  0  0  0  0
 60 73  1  0  0  0  0
 61 75  1  0  0  0  0
 63 87  1  0  0  0  0
 64 65  1  0  0  0  0
M  CHG  2  74   1  75   1
M  ISO  4  39 100  59 101  71 100  82 101
M  END
> <Batch ID>
0067

> <Smiles>
CNC(C)C(=O)NC(C(=O)N1Cc2cc([101O:1][101CH2:1]C(C)(F)CNC(=N)c3cc(F)cc([100NH:0][100C:0](=O)N4CCCC(n5nc(-c6ccc(Oc7ccc(F)cc7F)cc6)c(C(N)=O)c5N)C4)c3F)ccc2CC1C(=O)NC1CCCc2ccccc21)C(C)(C)C

> <Shape>
0.204

> <Color>
0.068

> <Negative vol penalty>
0.000

$$$$

  -OEChem-04042323243D

 86 95  0     1  0  0  0  0  0999 V2000
  -29.8912  -35.7853   23.9442 C   0  0  0  0  0  0  0  0  0  0  0  0
  -30.0287  -34.5638   23.2926 C   0  0  0  0  0  0  0  0  0  0  0  0
  -24.7309   -8.9609   21.7782 C   0  0  0  0  0  0  0  0  0  0  0  0
  -23.1742  -10.7720   22.1438 C   0  0  0  0  0  0  0  0  0  0  0  0
  -28.8448  -35.9797   24.8448 C   0  0  0  0  0  0  0  0  0  0  0  0
  -29.1203  -33.5357   23.5421 C   0  0  0  0  0  0  0  0  0  0  0  0
  -27.0881  -29.3674   19.5419 C   0  0  0  0  0  0  0  0  0  0  0  0
  -26.0080  -19.5258   16.2527 C   0  0  0  0  0  0  0  0  0  0  0  0
  -26.6005  -20.7129   16.6829 C   0  0  0  0  0  0  0  0  0  0  0  0
  -24.0067   -8.1602   22.6613 C   0  0  0  0  0  0  0  0  0  0  0  0
  -22.4500   -9.9713   23.0269 C   0  0  0  0  0  0  0  0  0  0  0  0
  -27.4598  -28.0469   19.2930 C   0  0  0  0  0  0  0  0  0  0  0  0
  -21.1658   -6.3275   22.6041 C   0  0  0  0  0  0  0  0  0  0  0  0
  -20.8998   -5.0137   22.2185 C   0  0  0  0  0  0  0  0  0  0  0  0
  -25.6730  -27.2811   20.7214 C   0  0  0  0  0  0  0  0  0  0  0  0
  -29.6253  -23.3165   18.9541 C   0  0  0  0  0  0  0  0  0  0  0  0
  -27.9063  -19.4765   18.2963 C   0  0  0  0  0  0  0  0  0  0  0  0
  -22.0951   -4.2032   24.1553 C   0  0  0  0  0  0  0  0  0  0  0  0
  -24.3147  -10.2669   21.5194 C   0  0  0  0  0  0  0  0  0  0  0  0
  -24.8743  -11.2138   19.2177 C   0  0  0  0  0  0  0  0  0  0  0  0
  -27.9175  -34.9567   25.0982 C   0  0  0  0  0  0  0  0  0  0  0  0
  -26.0111  -29.6554   20.3925 C   0  0  0  0  0  0  0  0  0  0  0  0
  -28.0613  -33.7161   24.4480 C   0  0  0  0  0  0  0  0  0  0  0  0
  -25.2881  -28.6060   20.9774 C   0  0  0  0  0  0  0  0  0  0  0  0
  -26.3646  -18.3139   16.8443 C   0  0  0  0  0  0  0  0  0  0  0  0
  -28.4478  -24.0267   18.6136 C   0  0  0  0  0  0  0  0  0  0  0  0
  -27.5497  -20.6883   17.7047 C   0  0  0  0  0  0  0  0  0  0  0  0
  -27.3138  -18.2893   17.8661 C   0  0  0  0  0  0  0  0  0  0  0  0
  -22.8662   -8.6653   23.2856 C   0  0  0  0  0  0  0  0  0  0  0  0
  -26.7540  -27.0036   19.8851 C   0  0  0  0  0  0  0  0  0  0  0  0
  -21.8966   -6.5792   23.7653 C   0  0  0  0  0  0  0  0  0  0  0  0
  -21.3644   -3.9515   22.9941 C   0  0  0  0  0  0  0  0  0  0  0  0
  -22.3612   -5.5170   24.5409 C   0  0  0  0  0  0  0  0  0  0  0  0
  -25.0627  -11.0948   20.6077 C   0  0  0  0  0  0  0  0  0  0  0  0
  -25.8292  -12.1164   18.8178 C   0  0  0  0  0  0  0  0  0  0  0  0
  -29.4091  -21.9909   18.6483 C   0  0  0  0  0  0  0  0  0  0  0  0
  -27.5477  -23.1136   18.1103 C   0  0  0  0  0  0  0  0  0  0  0  0
  -23.9213  -10.5663   18.3643 C   0  0  0  0  0  0  0  0  0  0  0  0
  -25.6807  -31.2078   23.1465 C   0  0  0  0  0  0  0  0  0  0  0  0
  -22.5242  -30.6796   22.6174 C   0  0  0  0  0  0  0  0  0  0  0  0
  -20.1164  -28.7980   21.0979 C   0  0  0  0  0  0  0  0  0  0  0  0
  -28.6133  -16.8888   19.5081 C   0  0  0  0  0  0  0  0  0  0  0  0
  -26.8306  -35.1977   26.1156 C   0  0  0  0  0  0  0  0  0  0  0  0
  -25.6060  -31.0845   20.6296 C   0  0  0  0  0  0  0  0  0  0  0  0
  -24.1114  -28.8615   21.8822 C   0  0  0  0  0  0  0  0  0  0  0  0
  -25.6918  -34.1838   26.0422 C   0  0  0  0  0  0  0  0  0  0  0  0
  -29.7826  -14.0531   21.3161 C   0  0  0  0  0  0  0  0  0  0  0  0
  -26.2452  -32.7656   25.9459 C   0  0  0  0  0  0  0  0  0  0  0  0
  -28.6434  -13.0405   21.1786 C   0  0  0  0  0  0  0  0  0  0  0  0
  -29.2584  -15.4816   21.4520 C   0  0  0  0  0  0  0  0  0  0  0  0
  -27.1830  -14.8892   20.2641 C   0  0  0  0  0  0  0  0  0  0  0  0
  -27.0817  -32.5850   24.6735 C   0  0  1  0  0  0  0  0  0  0  0  0
  -24.8152  -31.2751   21.9201 C   0  0  1  0  0  0  0  0  0  0  0  0
  -27.6634  -13.4432   20.0593 C   0  0  2  0  0  0  0  0  0  0  0  0
  -25.7142  -17.0575   16.3632 C   0  0  0  0  0  0  0  0  0  0  0  0
  -17.6251  -28.5859   20.8841 C   0  0  0  0  0  0  0  0  0  0  0  0
  -22.3934  -29.4381   25.4016 C   0  0  0  0  0  0  0  0  0  0  0  0
  -20.1973  -28.4170   24.7670 C   0  0  0  0  0  0  0  0  0  0  0  0
  -20.4487  -30.8983   24.8181 C   0  0  0  0  0  0  0  0  0  0  0  0
  -20.2117  -29.2568   18.1757 C   0  0  0  0  0  0  0  0  0  0  0  0
  -28.2268  -25.5020   18.7750 C   0  0  0  0  0  0  0  0  0  1  0  0
  -21.5515  -29.5786   22.9649 C   0  0  1  0  0  0  0  0  0  0  0  0
  -18.8898  -29.1900   20.2939 C   0  0  2  0  0  0  0  0  0  0  0  0
  -21.1711  -29.5779   24.4724 C   0  0  0  0  0  0  0  0  0  0  0  0
  -26.0591  -11.8605   21.0605 N   0  0  0  0  0  0  0  0  0  0  0  0
  -28.1427  -21.8793   18.1363 N   0  0  0  0  0  0  0  0  0  0  0  0
  -26.5054  -12.4692   19.9485 N   0  0  0  0  0  0  0  0  0  0  0  0
  -23.7582  -30.2758   22.0881 N   0  0  0  0  0  0  0  0  0  0  0  0
  -28.3398  -15.7939   20.3549 N   0  0  0  0  0  0  0  0  0  0  0  0
  -26.1481  -12.6347   17.6128 N   0  0  0  0  0  0  0  0  0  0  0  0
  -23.0121   -9.6677   18.9389 N   0  0  0  0  0  0  0  0  0  0  0  0
  -27.6874  -17.0686   18.4809 N   0  0  0  0  0  0  0  0  0  0  0  0
  -26.2208  -32.4232   23.5215 N   0  0  0  0  0  0  0  0  0  0  0  0
  -20.4164  -29.7369   22.0622 N   0  0  0  0  0  0  0  0  0  0  0  0
  -19.0219  -28.7207   18.8857 N   0  3  0  0  0  0  0  0  0  0  0  0
  -23.8881  -10.7659   17.1263 O   0  0  0  0  0  0  0  0  0  0  0  0
  -25.8451  -30.1329   23.7117 O   0  0  0  0  0  0  0  0  0  0  0  0
  -22.1984  -31.8549   22.8020 O   0  0  0  0  0  0  0  0  0  0  0  0
  -20.7433  -27.7608   20.8937 O   0  0  0  0  0  0  0  0  0  0  0  0
  -29.6111  -17.5971   19.6649 O   0  0  0  0  0  0  0  0  0  0  0  0
  -30.2040  -20.9360   18.7820 O   0  0  0  0  0  0  0  0  0  0  0  0
  -26.3099  -23.2787   17.6576 O   0  0  0  0  0  0  0  0  0  0  0  0
  -22.1592   -7.8841   24.1472 O   0  0  0  0  0  0  0  0  0  0  0  0
  -27.1151  -25.7138   19.6443 O   0  0  0  0  0  0  0  0  0  1  0  0
  -21.1075   -2.6900   22.6245 F   0  0  0  0  0  0  0  0  0  0  0  0
  -23.0627   -5.7526   25.6581 F   0  0  0  0  0  0  0  0  0  0  0  0
  1  2  1  0  0  0  0
  1  5  2  0  0  0  0
  2  6  2  0  0  0  0
  3 10  2  0  0  0  0
  3 19  1  0  0  0  0
  4 11  1  0  0  0  0
  4 19  2  0  0  0  0
  5 21  1  0  0  0  0
  6 23  1  0  0  0  0
  7 12  2  0  0  0  0
  7 22  1  0  0  0  0
  8  9  2  0  0  0  0
  8 25  1  0  0  0  0
  9 27  1  0  0  0  0
 10 29  1  0  0  0  0
 11 29  2  0  0  0  0
 12 30  1  0  0  0  0
 13 14  2  0  0  0  0
 13 31  1  0  0  0  0
 14 32  1  0  0  0  0
 15 24  1  0  0  0  0
 15 30  2  0  0  0  0
 16 26  1  0  0  0  0
 16 36  2  0  0  0  0
 17 27  2  0  0  0  0
 17 28  1  0  0  0  0
 18 32  2  0  0  0  0
 18 33  1  0  0  0  0
 19 34  1  0  0  0  0
 20 34  1  0  0  0  0
 20 35  2  0  0  0  0
 20 38  1  0  0  0  0
 21 23  2  0  0  0  0
 21 43  1  0  0  0  0
 22 24  2  0  0  0  0
 22 44  1  0  0  0  0
 23 52  1  0  0  0  0
 24 45  1  0  0  0  0
 25 28  2  0  0  0  0
 25 55  1  0  0  0  0
 26 37  2  0  0  0  0
 26 61  1  0  0  0  0
 27 66  1  0  0  0  0
 28 72  1  0  0  0  0
 29 83  1  0  0  0  0
 30 84  1  0  0  0  0
 31 33  2  0  0  0  0
 31 83  1  0  0  0  0
 32 85  1  0  0  0  0
 33 86  1  0  0  0  0
 34 65  2  0  0  0  0
 35 67  1  0  0  0  0
 35 70  1  0  0  0  0
 36 66  1  0  0  0  0
 36 81  1  0  0  0  0
 37 66  1  0  0  0  0
 37 82  1  0  0  0  0
 38 71  1  0  0  0  0
 38 76  2  0  0  0  0
 39 53  1  0  0  0  0
 39 73  1  0  0  0  0
 39 77  2  0  0  0  0
 40 62  1  0  0  0  0
 40 68  1  0  0  0  0
 40 78  2  0  0  0  0
 41 63  1  0  0  0  0
 41 74  1  0  0  0  0
 41 79  2  0  0  0  0
 42 69  1  0  0  0  0
 42 72  1  0  0  0  0
 42 80  2  0  0  0  0
 43 46  1  0  0  0  0
 44 53  1  0  0  0  0
 45 68  1  0  0  0  0
 46 48  1  0  0  0  0
 47 49  1  0  0  0  0
 47 50  1  0  0  0  0
 48 52  1  0  0  0  0
 49 54  1  0  0  0  0
 50 69  1  0  0  0  0
 51 54  1  0  0  0  0
 51 69  1  0  0  0  0
 52 73  1  0  0  0  0
 53 68  1  0  0  0  0
 54 67  1  0  0  0  0
 56 63  1  0  0  0  0
 57 64  1  0  0  0  0
 58 64  1  0  0  0  0
 59 64  1  0  0  0  0
 60 75  1  0  0  0  0
 61 84  1  0  0  0  0
 62 64  1  0  0  0  0
 62 74  1  0  0  0  0
 63 75  1  0  0  0  0
 65 67  1  0  0  0  0
M  CHG  1  75   1
M  ISO  4  42 100  61 101  72 100  84 101
M  END
> <Batch ID>
0067

> <Smiles>
CNC(C)C(=O)NC(C(=O)N1Cc2cc([101O:1][101CH2:1]C3CC(=O)N(c4ccc(C)c([100NH:0][100C:0](=O)N5CCCC(n6nc(-c7ccc(Oc8ccc(F)cc8F)cc7)c(C(N)=O)c6N)C5)c4)C3=O)ccc2CC1C(=O)NC1CCCc2ccccc21)C(C)(C)C

> <Shape>
0.298

> <Color>
0.091

> <Negative vol penalty>
0.000

$$$$

  -OEChem-04042323243D

 84 93  0     1  0  0  0  0  0999 V2000
  -28.7263   -7.6371   33.0869 C   0  0  0  0  0  0  0  0  0  0  0  0
  -29.4110   -8.8410   33.2182 C   0  0  0  0  0  0  0  0  0  0  0  0
  -23.0737   -9.8698   19.9416 C   0  0  0  0  0  0  0  0  0  0  0  0
  -23.8316   -9.8779   22.2356 C   0  0  0  0  0  0  0  0  0  0  0  0
  -27.9646   -7.3906   31.9454 C   0  0  0  0  0  0  0  0  0  0  0  0
  -29.3353   -9.7987   32.2075 C   0  0  0  0  0  0  0  0  0  0  0  0
  -30.4714  -18.3421   24.0380 C   0  0  0  0  0  0  0  0  0  0  0  0
  -29.3377  -16.8951   31.2292 C   0  0  0  0  0  0  0  0  0  0  0  0
  -29.8823  -17.4547   23.1380 C   0  0  0  0  0  0  0  0  0  0  0  0
  -22.3287   -8.7175   20.1917 C   0  0  0  0  0  0  0  0  0  0  0  0
  -23.0865   -8.7255   22.4858 C   0  0  0  0  0  0  0  0  0  0  0  0
  -29.9881  -17.8798   30.4869 C   0  0  0  0  0  0  0  0  0  0  0  0
  -19.3785   -7.9243   21.6410 C   0  0  0  0  0  0  0  0  0  0  0  0
  -18.0720   -7.8788   21.1547 C   0  0  0  0  0  0  0  0  0  0  0  0
  -32.0635  -16.6082   22.5517 C   0  0  0  0  0  0  0  0  0  0  0  0
  -28.5777  -17.3770   28.5955 C   0  0  0  0  0  0  0  0  0  0  0  0
  -18.6313   -5.9343   19.8343 C   0  0  0  0  0  0  0  0  0  0  0  0
  -23.8252  -10.4500   20.9635 C   0  0  0  0  0  0  0  0  0  0  0  0
  -24.1691  -12.9748   20.8419 C   0  0  0  0  0  0  0  0  0  0  0  0
  -27.8717   -8.3497   30.9246 C   0  0  0  0  0  0  0  0  0  0  0  0
  -28.3080  -16.1352   30.6559 C   0  0  0  0  0  0  0  0  0  0  0  0
  -28.5727   -9.5642   31.0507 C   0  0  0  0  0  0  0  0  0  0  0  0
  -31.8655  -18.3756   24.2039 C   0  0  0  0  0  0  0  0  0  0  0  0
  -32.6685  -17.4891   23.4615 C   0  0  0  0  0  0  0  0  0  0  0  0
  -27.9141  -16.3851   29.3336 C   0  0  0  0  0  0  0  0  0  0  0  0
  -30.6782  -16.5892   22.3940 C   0  0  0  0  0  0  0  0  0  0  0  0
  -22.3350   -8.1453   21.4638 C   0  0  0  0  0  0  0  0  0  0  0  0
  -29.6101  -18.1189   29.1689 C   0  0  0  0  0  0  0  0  0  0  0  0
  -20.3115   -6.9749   21.2240 C   0  0  0  0  0  0  0  0  0  0  0  0
  -17.6984   -6.8837   20.2513 C   0  0  0  0  0  0  0  0  0  0  0  0
  -19.9379   -5.9798   20.3207 C   0  0  0  0  0  0  0  0  0  0  0  0
  -24.5954  -11.6401   20.7056 C   0  0  0  0  0  0  0  0  0  0  0  0
  -25.2622  -13.7232   20.4790 C   0  0  0  0  0  0  0  0  0  0  0  0
  -22.8987  -13.4920   21.2593 C   0  0  0  0  0  0  0  0  0  0  0  0
  -27.8778  -13.0479   30.0338 C   0  0  0  0  0  0  0  0  0  0  0  0
  -24.9027  -14.0312   29.1949 C   0  0  0  0  0  0  0  0  0  0  0  0
  -22.8804  -16.5695   28.1392 C   0  0  0  0  0  0  0  0  0  0  0  0
  -30.7291  -14.7645   20.6578 C   0  0  0  0  0  0  0  0  0  0  0  0
  -27.0741   -8.0188   29.6880 C   0  0  0  0  0  0  0  0  0  0  0  0
  -27.5983  -15.0950   31.4785 C   0  0  0  0  0  0  0  0  0  0  0  0
  -34.1729  -17.5040   23.5709 C   0  0  0  0  0  0  0  0  0  0  0  0
  -26.8009  -15.6108   28.6780 C   0  0  0  0  0  0  0  0  0  0  0  0
  -26.7435   -9.2386   28.8319 C   0  0  0  0  0  0  0  0  0  0  0  0
  -34.6826  -18.2115   24.8246 C   0  0  0  0  0  0  0  0  0  0  0  0
  -29.6148  -12.3498   18.2903 C   0  0  0  0  0  0  0  0  0  0  0  0
  -27.9817  -10.1093   28.6425 C   0  0  0  0  0  0  0  0  0  0  0  0
  -33.9677  -19.5466   25.0099 C   0  0  0  0  0  0  0  0  0  0  0  0
  -28.1745  -12.0597   18.7188 C   0  0  0  0  0  0  0  0  0  0  0  0
  -30.5290  -12.5788   19.4926 C   0  0  0  0  0  0  0  0  0  0  0  0
  -28.6215  -13.3058   20.8716 C   0  0  0  0  0  0  0  0  0  0  0  0
  -28.4952  -10.6380   29.9872 C   0  0  1  0  0  0  0  0  0  0  0  0
  -32.4645  -19.3324   25.2059 C   0  0  2  0  0  0  0  0  0  0  0  0
  -26.9098  -14.0301   30.6304 C   0  0  1  0  0  0  0  0  0  0  0  0
  -27.6495  -13.1325   19.6931 C   0  0  2  0  0  0  0  0  0  0  0  0
  -20.5026  -17.0595   27.5042 C   0  0  0  0  0  0  0  0  0  0  0  0
  -25.3338  -12.6378   26.5149 C   0  0  0  0  0  0  0  0  0  0  0  0
  -23.3945  -13.9353   25.6073 C   0  0  0  0  0  0  0  0  0  0  0  0
  -23.0512  -12.3372   27.4917 C   0  0  0  0  0  0  0  0  0  0  0  0
  -22.5885  -18.5589   30.3108 C   0  0  0  0  0  0  0  0  0  0  0  0
  -31.6108  -19.3378   28.7592 C   0  0  0  0  0  0  0  0  0  1  0  0
  -32.3293  -19.8066   27.5088 C   0  0  0  0  0  0  0  0  0  0  0  0
  -24.2574  -14.5176   27.9197 C   0  0  1  0  0  0  0  0  0  0  0  0
  -21.5258  -17.0484   28.6292 C   0  0  2  0  0  0  0  0  0  0  0  0
  -24.0315  -13.3704   26.8948 C   0  0  0  0  0  0  0  0  0  0  0  0
  -25.8606  -11.5429   20.2885 N   0  0  0  0  0  0  0  0  0  0  0  0
  -26.2386  -12.8261   20.1595 N   0  0  0  0  0  0  0  0  0  0  0  0
  -26.1419  -14.6000   29.5215 N   0  0  0  0  0  0  0  0  0  0  0  0
  -29.9701  -13.6107   20.3687 N   0  0  0  0  0  0  0  0  0  0  0  0
  -25.4737  -15.0544   20.4052 N   0  0  0  0  0  0  0  0  0  0  0  0
  -21.8858  -12.5838   21.5964 N   0  0  0  0  0  0  0  0  0  0  0  0
  -30.0817  -15.6907   21.4749 N   0  0  0  0  0  0  0  0  0  0  0  0
  -27.6780  -11.7427   30.4413 N   0  0  0  0  0  0  0  0  0  0  0  0
  -23.0375  -15.2114   28.3184 N   0  0  0  0  0  0  0  0  0  0  0  0
  -21.6329  -18.4287   29.1809 N   0  3  0  0  0  0  0  0  0  0  0  0
  -22.6634  -14.7228   21.3156 O   0  0  0  0  0  0  0  0  0  0  0  0
  -28.7412  -13.4446   29.2599 O   0  0  0  0  0  0  0  0  0  0  0  0
  -24.3251  -13.1832   29.8797 O   0  0  0  0  0  0  0  0  0  0  0  0
  -23.7143  -17.3240   27.6433 O   0  0  0  0  0  0  0  0  0  0  0  0
  -31.8587  -14.9320   20.1910 O   0  0  0  0  0  0  0  0  0  0  0  0
  -21.6080   -7.0210   21.7084 O   0  0  0  0  0  0  0  0  0  0  0  0
  -30.2438  -19.0790   28.4419 O   0  0  0  0  0  0  0  0  0  1  0  0
  -32.2247  -18.8010   26.5083 O   0  0  0  0  0  0  0  0  0  0  0  0
  -16.4433   -6.8392   19.7856 F   0  0  0  0  0  0  0  0  0  0  0  0
  -20.8294   -5.0643   19.9173 F   0  0  0  0  0  0  0  0  0  0  0  0
  1  2  1  0  0  0  0
  1  5  2  0  0  0  0
  2  6  2  0  0  0  0
  3 10  2  0  0  0  0
  3 18  1  0  0  0  0
  4 11  1  0  0  0  0
  4 18  2  0  0  0  0
  5 20  1  0  0  0  0
  6 22  1  0  0  0  0
  7  9  2  0  0  0  0
  7 23  1  0  0  0  0
  8 12  2  0  0  0  0
  8 21  1  0  0  0  0
  9 26  1  0  0  0  0
 10 27  1  0  0  0  0
 11 27  2  0  0  0  0
 12 28  1  0  0  0  0
 13 14  2  0  0  0  0
 13 29  1  0  0  0  0
 14 30  1  0  0  0  0
 15 24  1  0  0  0  0
 15 26  2  0  0  0  0
 16 25  1  0  0  0  0
 16 28  2  0  0  0  0
 17 30  2  0  0  0  0
 17 31  1  0  0  0  0
 18 32  1  0  0  0  0
 19 32  1  0  0  0  0
 19 33  2  0  0  0  0
 19 34  1  0  0  0  0
 20 22  2  0  0  0  0
 20 39  1  0  0  0  0
 21 25  2  0  0  0  0
 21 40  1  0  0  0  0
 22 51  1  0  0  0  0
 23 24  2  0  0  0  0
 23 52  1  0  0  0  0
 24 41  1  0  0  0  0
 25 42  1  0  0  0  0
 26 71  1  0  0  0  0
 27 80  1  0  0  0  0
 28 81  1  0  0  0  0
 29 31  2  0  0  0  0
 29 80  1  0  0  0  0
 30 83  1  0  0  0  0
 31 84  1  0  0  0  0
 32 65  2  0  0  0  0
 33 66  1  0  0  0  0
 33 69  1  0  0  0  0
 34 70  1  0  0  0  0
 34 75  2  0  0  0  0
 35 53  1  0  0  0  0
 35 72  1  0  0  0  0
 35 76  2  0  0  0  0
 36 62  1  0  0  0  0
 36 67  1  0  0  0  0
 36 77  2  0  0  0  0
 37 63  1  0  0  0  0
 37 73  1  0  0  0  0
 37 78  2  0  0  0  0
 38 68  1  0  0  0  0
 38 71  1  0  0  0  0
 38 79  2  0  0  0  0
 39 43  1  0  0  0  0
 40 53  1  0  0  0  0
 41 44  1  0  0  0  0
 42 67  1  0  0  0  0
 43 46  1  0  0  0  0
 44 47  1  0  0  0  0
 45 48  1  0  0  0  0
 45 49  1  0  0  0  0
 46 51  1  0  0  0  0
 47 52  1  0  0  0  0
 48 54  1  0  0  0  0
 49 68  1  0  0  0  0
 50 54  1  0  0  0  0
 50 68  1  0  0  0  0
 51 72  1  0  0  0  0
 52 82  1  0  0  0  0
 53 67  1  0  0  0  0
 54 66  1  0  0  0  0
 55 63  1  0  0  0  0
 56 64  1  0  0  0  0
 57 64  1  0  0  0  0
 58 64  1  0  0  0  0
 59 74  1  0  0  0  0
 60 61  1  0  0  0  0
 60 81  1  0  0  0  0
 61 82  1  0  0  0  0
 62 64  1  0  0  0  0
 62 73  1  0  0  0  0
 63 74  1  0  0  0  0
 65 66  1  0  0  0  0
M  CHG  1  74   1
M  ISO  4  38 100  60 101  71 100  81 101
M  END
> <Batch ID>
0067

> <Smiles>
CNC(C)C(=O)NC(C(=O)N1Cc2cc([101O:1][101CH2:1]COC3CCCc4cc([100NH:0][100C:0](=O)N5CCCC(n6nc(-c7ccc(Oc8ccc(F)cc8F)cc7)c(C(N)=O)c6N)C5)ccc43)ccc2CC1C(=O)NC1CCCc2ccccc21)C(C)(C)C

> <Shape>
0.146

> <Color>
0.191

> <Negative vol penalty>
0.000

$$$$

  -OEChem-04042323243D

 86 94  0     1  0  0  0  0  0999 V2000
  -30.5065  -12.2713   18.8896 C   0  0  0  0  0  0  0  0  0  0  0  0
  -29.6221  -13.1166   18.2273 C   0  0  0  0  0  0  0  0  0  0  0  0
  -28.7005  -26.6716   21.3234 C   0  0  0  0  0  0  0  0  0  0  0  0
  -26.7615  -25.2307   21.3547 C   0  0  0  0  0  0  0  0  0  0  0  0
  -30.1214  -11.6554   20.0797 C   0  0  0  0  0  0  0  0  0  0  0  0
  -28.3515  -13.3456   18.7542 C   0  0  0  0  0  0  0  0  0  0  0  0
  -24.8614  -20.0723   20.6508 C   0  0  0  0  0  0  0  0  0  0  0  0
  -17.3889  -30.2605   23.6233 C   0  0  0  0  0  0  0  0  0  0  0  0
  -18.7422  -30.5497   23.4481 C   0  0  0  0  0  0  0  0  0  0  0  0
  -29.4712  -25.6464   21.8716 C   0  0  0  0  0  0  0  0  0  0  0  0
  -27.5322  -24.2055   21.9029 C   0  0  0  0  0  0  0  0  0  0  0  0
  -24.1996  -21.1850   21.1705 C   0  0  0  0  0  0  0  0  0  0  0  0
  -29.7693  -21.9185   20.8143 C   0  0  0  0  0  0  0  0  0  0  0  0
  -29.6224  -20.6403   20.2757 C   0  0  0  0  0  0  0  0  0  0  0  0
  -22.9906  -19.7617   22.7068 C   0  0  0  0  0  0  0  0  0  0  0  0
  -17.7690  -28.0069   22.8399 C   0  0  0  0  0  0  0  0  0  0  0  0
  -28.9230  -19.8109   22.4344 C   0  0  0  0  0  0  0  0  0  0  0  0
  -27.3456  -26.4638   21.0649 C   0  0  0  0  0  0  0  0  0  0  0  0
  -26.3311  -27.7857   19.1334 C   0  0  0  0  0  0  0  0  0  0  0  0
  -28.8489  -11.8846   20.6265 C   0  0  0  0  0  0  0  0  0  0  0  0
  -24.6012  -18.8004   21.1682 C   0  0  0  0  0  0  0  0  0  0  0  0
  -27.9485  -12.7312   19.9520 C   0  0  0  0  0  0  0  0  0  0  0  0
  -23.6595  -18.6449   22.1987 C   0  0  0  0  0  0  0  0  0  0  0  0
  -16.9024  -28.9891   23.3193 C   0  0  0  0  0  0  0  0  0  0  0  0
  -19.6089  -29.5675   22.9687 C   0  0  0  0  0  0  0  0  0  0  0  0
  -19.1223  -28.2961   22.6646 C   0  0  0  0  0  0  0  0  0  0  0  0
  -28.8871  -24.4134   22.1614 C   0  0  0  0  0  0  0  0  0  0  0  0
  -23.2664  -21.0300   22.1958 C   0  0  0  0  0  0  0  0  0  0  0  0
  -29.4932  -22.1429   22.1631 C   0  0  0  0  0  0  0  0  0  0  0  0
  -29.1992  -19.5865   21.0857 C   0  0  0  0  0  0  0  0  0  0  0  0
  -29.0700  -21.0892   22.9731 C   0  0  0  0  0  0  0  0  0  0  0  0
  -26.5489  -27.5226   20.4991 C   0  0  0  0  0  0  0  0  0  0  0  0
  -25.5111  -28.8875   19.1225 C   0  0  0  0  0  0  0  0  0  0  0  0
  -26.8257  -27.0958   17.9779 C   0  0  0  0  0  0  0  0  0  0  0  0
  -25.3613  -15.1281   21.0537 C   0  0  0  0  0  0  0  0  0  0  0  0
  -21.1694  -23.9896   22.2030 C   0  0  0  0  0  0  0  0  0  0  0  0
  -25.0823  -15.8885   24.0125 C   0  0  0  0  0  0  0  0  0  0  0  0
  -19.6415  -25.9837   21.8239 C   0  0  0  0  0  0  0  0  0  0  0  0
  -25.5936  -17.2755   26.7905 C   0  0  0  0  0  0  0  0  0  0  0  0
  -21.6017  -31.1058   23.0596 C   0  0  0  0  0  0  0  0  0  0  0  0
  -28.4606  -11.1593   21.8905 C   0  0  0  0  0  0  0  0  0  0  0  0
  -25.2452  -17.5663   20.5971 C   0  0  0  0  0  0  0  0  0  0  0  0
  -23.3862  -17.2535   22.7007 C   0  0  0  0  0  0  0  0  0  0  0  0
  -27.2318  -11.7489   22.5781 C   0  0  0  0  0  0  0  0  0  0  0  0
  -24.4337  -32.7793   21.6970 C   0  0  0  0  0  0  0  0  0  0  0  0
  -26.1238  -12.0069   21.5619 C   0  0  0  0  0  0  0  0  0  0  0  0
  -25.2747  -31.6457   21.1055 C   0  0  0  0  0  0  0  0  0  0  0  0
  -23.7471  -32.3582   22.9951 C   0  0  0  0  0  0  0  0  0  0  0  0
  -23.7968  -29.9907   22.3154 C   0  0  0  0  0  0  0  0  0  0  0  0
  -26.5706  -13.0240   20.5049 C   0  0  1  0  0  0  0  0  0  0  0  0
  -25.5347  -16.4902   21.6588 C   0  0  1  0  0  0  0  0  0  0  0  0
  -24.4560  -30.3466   20.9728 C   0  0  2  0  0  0  0  0  0  0  0  0
  -25.6589  -17.3444   29.2981 C   0  0  0  0  0  0  0  0  0  0  0  0
  -22.2532  -14.7482   24.0165 C   0  0  0  0  0  0  0  0  0  0  0  0
  -22.2276  -15.0096   26.5064 C   0  0  0  0  0  0  0  0  0  0  0  0
  -23.8876  -13.4898   25.4306 C   0  0  0  0  0  0  0  0  0  0  0  0
  -14.8329  -27.7441   22.6924 C   0  0  0  0  0  0  0  0  0  0  0  0
  -28.4825  -17.9178   26.8133 C   0  0  0  0  0  0  0  0  0  0  0  0
  -20.8405  -25.1906   21.3407 C   0  0  0  0  0  0  0  0  0  0  0  0
  -22.4137  -23.2173   21.8135 C   0  0  0  0  0  0  0  0  0  1  0  0
  -24.1742  -15.9922   25.2116 C   0  0  1  0  0  0  0  0  0  0  0  0
  -26.4574  -17.1022   28.0267 C   0  0  2  0  0  0  0  0  0  0  0  0
  -23.1407  -14.8323   25.2744 C   0  0  0  0  0  0  0  0  0  0  0  0
  -25.9183  -28.3877   21.2978 N   0  0  0  0  0  0  0  0  0  0  0  0
  -25.2963  -29.2053   20.4313 N   0  0  0  0  0  0  0  0  0  0  0  0
  -24.6492  -16.5109   22.8354 N   0  0  0  0  0  0  0  0  0  0  0  0
  -22.9870  -31.1229   22.7922 N   0  0  0  0  0  0  0  0  0  0  0  0
  -24.9602  -29.6060   18.1211 N   0  0  0  0  0  0  0  0  0  0  0  0
  -27.6564  -25.9832   18.1688 N   0  0  0  0  0  0  0  0  0  0  0  0
  -19.9819  -27.2832   22.1757 N   0  0  0  0  0  0  0  0  0  0  0  0
  -20.9791  -29.8856   22.7988 N   0  0  0  0  0  0  0  0  0  0  0  0
  -15.5340  -28.6969   23.4961 N   0  0  0  0  0  0  0  0  0  0  0  0
  -26.5147  -14.3673   21.0406 N   0  0  0  0  0  0  0  0  0  0  0  0
  -25.0465  -16.0790   26.3779 N   0  0  0  0  0  0  0  0  0  0  0  0
  -27.5991  -18.0596   27.9993 N   0  3  0  0  0  0  0  0  0  0  0  0
  -26.5527  -27.4651   16.8106 O   0  0  0  0  0  0  0  0  0  0  0  0
  -24.2619  -14.7905   20.6307 O   0  0  0  0  0  0  0  0  0  0  0  0
  -20.4676  -23.6550   23.1563 O   0  0  0  0  0  0  0  0  0  0  0  0
  -26.1447  -15.2682   24.1122 O   0  0  0  0  0  0  0  0  0  0  0  0
  -18.5265  -25.4691   21.8427 O   0  0  0  0  0  0  0  0  0  0  0  0
  -25.4185  -18.3641   26.2475 O   0  0  0  0  0  0  0  0  0  0  0  0
  -21.0062  -32.1083   23.4627 O   0  0  0  0  0  0  0  0  0  0  0  0
  -29.6388  -23.4127   22.6962 O   0  0  0  0  0  0  0  0  0  0  0  0
  -22.6273  -22.1210   22.7017 O   0  0  0  0  0  0  0  0  0  1  0  0
  -29.0566  -18.3594   20.5679 F   0  0  0  0  0  0  0  0  0  0  0  0
  -28.8020  -21.2989   24.2692 F   0  0  0  0  0  0  0  0  0  0  0  0
  1  2  1  0  0  0  0
  1  5  2  0  0  0  0
  2  6  2  0  0  0  0
  3 10  2  0  0  0  0
  3 18  1  0  0  0  0
  4 11  1  0  0  0  0
  4 18  2  0  0  0  0
  5 20  1  0  0  0  0
  6 22  1  0  0  0  0
  7 12  2  0  0  0  0
  7 21  1  0  0  0  0
  8  9  2  0  0  0  0
  8 24  1  0  0  0  0
  9 25  1  0  0  0  0
 10 27  1  0  0  0  0
 11 27  2  0  0  0  0
 12 28  1  0  0  0  0
 13 14  2  0  0  0  0
 13 29  1  0  0  0  0
 14 30  1  0  0  0  0
 15 23  1  0  0  0  0
 15 28  2  0  0  0  0
 16 24  2  0  0  0  0
 16 26  1  0  0  0  0
 17 30  2  0  0  0  0
 17 31  1  0  0  0  0
 18 32  1  0  0  0  0
 19 32  1  0  0  0  0
 19 33  2  0  0  0  0
 19 34  1  0  0  0  0
 20 22  2  0  0  0  0
 20 41  1  0  0  0  0
 21 23  2  0  0  0  0
 21 42  1  0  0  0  0
 22 50  1  0  0  0  0
 23 43  1  0  0  0  0
 24 72  1  0  0  0  0
 25 26  2  0  0  0  0
 25 71  1  0  0  0  0
 26 70  1  0  0  0  0
 27 83  1  0  0  0  0
 28 84  1  0  0  0  0
 29 31  2  0  0  0  0
 29 83  1  0  0  0  0
 30 85  1  0  0  0  0
 31 86  1  0  0  0  0
 32 64  2  0  0  0  0
 33 65  1  0  0  0  0
 33 68  1  0  0  0  0
 34 69  1  0  0  0  0
 34 76  2  0  0  0  0
 35 51  1  0  0  0  0
 35 73  1  0  0  0  0
 35 77  2  0  0  0  0
 36 59  1  0  0  0  0
 36 60  1  0  0  0  0
 36 78  2  0  0  0  0
 37 61  1  0  0  0  0
 37 66  1  0  0  0  0
 37 79  2  0  0  0  0
 38 59  1  0  0  0  0
 38 70  1  0  0  0  0
 38 80  2  0  0  0  0
 39 62  1  0  0  0  0
 39 74  1  0  0  0  0
 39 81  2  0  0  0  0
 40 67  1  0  0  0  0
 40 71  1  0  0  0  0
 40 82  2  0  0  0  0
 41 44  1  0  0  0  0
 42 51  1  0  0  0  0
 43 66  1  0  0  0  0
 44 46  1  0  0  0  0
 45 47  1  0  0  0  0
 45 48  1  0  0  0  0
 46 50  1  0  0  0  0
 47 52  1  0  0  0  0
 48 67  1  0  0  0  0
 49 52  1  0  0  0  0
 49 67  1  0  0  0  0
 50 73  1  0  0  0  0
 51 66  1  0  0  0  0
 52 65  1  0  0  0  0
 53 62  1  0  0  0  0
 54 63  1  0  0  0  0
 55 63  1  0  0  0  0
 56 63  1  0  0  0  0
 57 72  1  0  0  0  0
 58 75  1  0  0  0  0
 60 84  1  0  0  0  0
 61 63  1  0  0  0  0
 61 74  1  0  0  0  0
 62 75  1  0  0  0  0
 64 65  1  0  0  0  0
M  CHG  1  75   1
M  ISO  4  40 100  60 101  71 100  84 101
M  END
> <Batch ID>
0067

> <Smiles>
CNc1ccc([100NH:0][100C:0](=O)N2CCCC(n3nc(-c4ccc(Oc5ccc(F)cc5F)cc4)c(C(N)=O)c3N)C2)c(NC(=O)CC(=O)[101CH2:1][101O:1]c2ccc3c(c2)CN(C(=O)C(NC(=O)C(C)NC)C(C)(C)C)C(C(=O)NC2CCCc4ccccc42)C3)c1

> <Shape>
0.235

> <Color>
0.064

> <Negative vol penalty>
0.000

$$$$

  -OEChem-04042323243D

 83 91  0     1  0  0  0  0  0999 V2000
  -20.7138  -23.7681   29.9177 C   0  0  0  0  0  0  0  0  0  0  0  0
  -21.9338  -23.3947   29.3631 C   0  0  0  0  0  0  0  0  0  0  0  0
  -23.0549   -9.9207   21.4631 C   0  0  0  0  0  0  0  0  0  0  0  0
  -23.8752  -10.7507   23.5785 C   0  0  0  0  0  0  0  0  0  0  0  0
  -19.7568  -24.4053   29.1289 C   0  0  0  0  0  0  0  0  0  0  0  0
  -22.1971  -23.6573   28.0192 C   0  0  0  0  0  0  0  0  0  0  0  0
  -27.6033  -25.1270   25.5456 C   0  0  0  0  0  0  0  0  0  0  0  0
  -32.1531  -17.0051   21.2339 C   0  0  0  0  0  0  0  0  0  0  0  0
  -32.7706  -18.1492   21.7390 C   0  0  0  0  0  0  0  0  0  0  0  0
  -22.3101   -8.9499   22.1327 C   0  0  0  0  0  0  0  0  0  0  0  0
  -23.1304   -9.7799   24.2482 C   0  0  0  0  0  0  0  0  0  0  0  0
  -28.5635  -24.3721   24.8734 C   0  0  0  0  0  0  0  0  0  0  0  0
  -22.8676   -5.9569   23.6009 C   0  0  0  0  0  0  0  0  0  0  0  0
  -22.9027   -4.6552   23.1011 C   0  0  0  0  0  0  0  0  0  0  0  0
  -27.6168  -25.0578   22.7633 C   0  0  0  0  0  0  0  0  0  0  0  0
  -29.9914  -18.0454   21.5198 C   0  0  0  0  0  0  0  0  0  0  0  0
  -20.5108   -4.7193   22.7661 C   0  0  0  0  0  0  0  0  0  0  0  0
  -23.8375  -10.8211   22.1860 C   0  0  0  0  0  0  0  0  0  0  0  0
  -24.1930  -13.1232   21.1459 C   0  0  0  0  0  0  0  0  0  0  0  0
  -20.0122  -24.6844   27.7771 C   0  0  0  0  0  0  0  0  0  0  0  0
  -26.6342  -25.8455   24.8306 C   0  0  0  0  0  0  0  0  0  0  0  0
  -21.2421  -24.2975   27.2113 C   0  0  0  0  0  0  0  0  0  0  0  0
  -26.6469  -25.8231   23.4287 C   0  0  0  0  0  0  0  0  0  0  0  0
  -30.7635  -16.9532   21.1242 C   0  0  0  0  0  0  0  0  0  0  0  0
  -31.9986  -19.2415   22.1346 C   0  0  0  0  0  0  0  0  0  0  0  0
  -22.3478   -8.8795   23.5253 C   0  0  0  0  0  0  0  0  0  0  0  0
  -28.5686  -24.3351   23.4821 C   0  0  0  0  0  0  0  0  0  0  0  0
  -21.6541   -6.6399   23.6834 C   0  0  0  0  0  0  0  0  0  0  0  0
  -21.7243   -4.0364   22.6836 C   0  0  0  0  0  0  0  0  0  0  0  0
  -20.4758   -6.0211   23.2659 C   0  0  0  0  0  0  0  0  0  0  0  0
  -30.6089  -19.1896   22.0250 C   0  0  0  0  0  0  0  0  0  0  0  0
  -24.6075  -11.8238   21.4948 C   0  0  0  0  0  0  0  0  0  0  0  0
  -25.2802  -13.6713   20.5102 C   0  0  0  0  0  0  0  0  0  0  0  0
  -22.9376  -13.7763   21.3759 C   0  0  0  0  0  0  0  0  0  0  0  0
  -23.4621  -25.7611   24.6457 C   0  0  0  0  0  0  0  0  0  0  0  0
  -23.8883  -28.3979   22.8051 C   0  0  0  0  0  0  0  0  0  0  0  0
  -25.9473  -30.2146   20.7785 C   0  0  0  0  0  0  0  0  0  0  0  0
  -30.7560  -14.6215   20.1705 C   0  0  0  0  0  0  0  0  0  0  0  0
  -18.9285  -25.3326   26.9524 C   0  0  0  0  0  0  0  0  0  0  0  0
  -25.6217  -26.6764   25.5700 C   0  0  0  0  0  0  0  0  0  0  0  0
  -25.6408  -26.5930   22.6141 C   0  0  0  0  0  0  0  0  0  0  0  0
  -19.4314  -25.9106   25.6321 C   0  0  0  0  0  0  0  0  0  0  0  0
  -29.5632  -11.5288   18.8708 C   0  0  0  0  0  0  0  0  0  0  0  0
  -20.3348  -24.9086   24.9202 C   0  0  0  0  0  0  0  0  0  0  0  0
  -28.1335  -11.4367   19.4089 C   0  0  0  0  0  0  0  0  0  0  0  0
  -30.5113  -12.1651   19.8857 C   0  0  0  0  0  0  0  0  0  0  0  0
  -28.6464  -13.3733   20.9495 C   0  0  0  0  0  0  0  0  0  0  0  0
  -21.5745  -24.5873   25.7637 C   0  0  1  0  0  0  0  0  0  0  0  0
  -24.3658  -26.9569   24.7506 C   0  0  1  0  0  0  0  0  0  0  0  0
  -27.6416  -12.7983   19.9378 C   0  0  2  0  0  0  0  0  0  0  0  0
  -26.0025  -32.3050   19.3913 C   0  0  0  0  0  0  0  0  0  0  0  0
  -22.2272  -27.0112   20.6538 C   0  0  0  0  0  0  0  0  0  0  0  0
  -23.1010  -28.6784   19.0029 C   0  0  0  0  0  0  0  0  0  0  0  0
  -21.7351  -29.4459   20.9440 C   0  0  0  0  0  0  0  0  0  0  0  0
  -28.1451  -31.3659   22.3918 C   0  0  0  0  0  0  0  0  0  0  0  0
  -29.1303  -23.0545   21.5585 C   0  0  0  0  0  0  0  0  0  1  0  0
  -29.9229  -21.7891   21.2998 C   0  0  0  0  0  0  0  0  0  0  0  0
  -24.1032  -28.6502   21.3323 C   0  0  1  0  0  0  0  0  0  0  0  0
  -26.2878  -31.6937   20.7542 C   0  0  2  0  0  0  0  0  0  0  0  0
  -22.8095  -28.4303   20.4983 C   0  0  0  0  0  0  0  0  0  0  0  0
  -25.8602  -11.5620   21.1123 N   0  0  0  0  0  0  0  0  0  0  0  0
  -26.2422  -12.7044   20.5164 N   0  0  0  0  0  0  0  0  0  0  0  0
  -24.6672  -27.3855   23.3832 N   0  0  0  0  0  0  0  0  0  0  0  0
  -29.9826  -13.4535   20.3389 N   0  0  0  0  0  0  0  0  0  0  0  0
  -32.6472  -20.3875   22.6453 N   0  0  0  0  0  0  0  0  0  0  0  0
  -25.4976  -14.8811   19.9521 N   0  0  0  0  0  0  0  0  0  0  0  0
  -21.9288  -13.0687   22.0438 N   0  0  0  0  0  0  0  0  0  0  0  0
  -30.1368  -15.7913   20.6093 N   0  0  0  0  0  0  0  0  0  0  0  0
  -22.5410  -25.6604   25.6709 N   0  0  0  0  0  0  0  0  0  0  0  0
  -24.6617  -29.9938   21.2256 N   0  0  0  0  0  0  0  0  0  0  0  0
  -27.7301  -31.8984   21.0685 N   0  3  0  0  0  0  0  0  0  0  0  0
  -22.7112  -14.9468   20.9858 O   0  0  0  0  0  0  0  0  0  0  0  0
  -23.5900  -24.9879   23.7037 O   0  0  0  0  0  0  0  0  0  0  0  0
  -23.0649  -29.0789   23.4214 O   0  0  0  0  0  0  0  0  0  0  0  0
  -26.7409  -29.3426   20.4318 O   0  0  0  0  0  0  0  0  0  0  0  0
  -31.8735  -14.5903   19.6486 O   0  0  0  0  0  0  0  0  0  0  0  0
  -28.2144  -20.1227   22.3854 O   0  0  0  0  0  0  0  0  0  0  0  0
  -30.0917  -21.0419   23.7912 O   0  0  0  0  0  0  0  0  0  0  0  0
  -21.6210   -7.9325   24.1791 O   0  0  0  0  0  0  0  0  0  0  0  0
  -29.5044  -23.5985   22.8236 O   0  0  0  0  0  0  0  0  0  1  0  0
  -21.7584   -2.7869   22.2023 F   0  0  0  0  0  0  0  0  0  0  0  0
  -19.3072   -6.6726   23.3416 F   0  0  0  0  0  0  0  0  0  0  0  0
  -29.5954  -20.5517   22.5173 S   0  0  0  0  0  0  0  0  0  0  0  0
  1  2  1  0  0  0  0
  1  5  2  0  0  0  0
  2  6  2  0  0  0  0
  3 10  2  0  0  0  0
  3 18  1  0  0  0  0
  4 11  1  0  0  0  0
  4 18  2  0  0  0  0
  5 20  1  0  0  0  0
  6 22  1  0  0  0  0
  7 12  2  0  0  0  0
  7 21  1  0  0  0  0
  8  9  2  0  0  0  0
  8 24  1  0  0  0  0
  9 25  1  0  0  0  0
 10 26  1  0  0  0  0
 11 26  2  0  0  0  0
 12 27  1  0  0  0  0
 13 14  2  0  0  0  0
 13 28  1  0  0  0  0
 14 29  1  0  0  0  0
 15 23  1  0  0  0  0
 15 27  2  0  0  0  0
 16 24  2  0  0  0  0
 16 31  1  0  0  0  0
 17 29  2  0  0  0  0
 17 30  1  0  0  0  0
 18 32  1  0  0  0  0
 19 32  1  0  0  0  0
 19 33  2  0  0  0  0
 19 34  1  0  0  0  0
 20 22  2  0  0  0  0
 20 39  1  0  0  0  0
 21 23  2  0  0  0  0
 21 40  1  0  0  0  0
 22 48  1  0  0  0  0
 23 41  1  0  0  0  0
 24 68  1  0  0  0  0
 25 31  2  0  0  0  0
 25 65  1  0  0  0  0
 26 79  1  0  0  0  0
 27 80  1  0  0  0  0
 28 30  2  0  0  0  0
 28 79  1  0  0  0  0
 29 81  1  0  0  0  0
 30 82  1  0  0  0  0
 31 83  1  0  0  0  0
 32 61  2  0  0  0  0
 33 62  1  0  0  0  0
 33 66  1  0  0  0  0
 34 67  1  0  0  0  0
 34 72  2  0  0  0  0
 35 49  1  0  0  0  0
 35 69  1  0  0  0  0
 35 73  2  0  0  0  0
 36 58  1  0  0  0  0
 36 63  1  0  0  0  0
 36 74  2  0  0  0  0
 37 59  1  0  0  0  0
 37 70  1  0  0  0  0
 37 75  2  0  0  0  0
 38 64  1  0  0  0  0
 38 68  1  0  0  0  0
 38 76  2  0  0  0  0
 39 42  1  0  0  0  0
 40 49  1  0  0  0  0
 41 63  1  0  0  0  0
 42 44  1  0  0  0  0
 43 45  1  0  0  0  0
 43 46  1  0  0  0  0
 44 48  1  0  0  0  0
 45 50  1  0  0  0  0
 46 64  1  0  0  0  0
 47 50  1  0  0  0  0
 47 64  1  0  0  0  0
 48 69  1  0  0  0  0
 49 63  1  0  0  0  0
 50 62  1  0  0  0  0
 51 59  1  0  0  0  0
 52 60  1  0  0  0  0
 53 60  1  0  0  0  0
 54 60  1  0  0  0  0
 55 71  1  0  0  0  0
 56 57  1  0  0  0  0
 56 80  1  0  0  0  0
 57 83  1  0  0  0  0
 58 60  1  0  0  0  0
 58 70  1  0  0  0  0
 59 71  1  0  0  0  0
 61 62  1  0  0  0  0
 77 83  2  0  0  0  0
 78 83  2  0  0  0  0
M  CHG  1  71   1
M  ISO  4  38 100  56 101  68 100  80 101
M  END
> <Batch ID>
0067

> <Smiles>
CNC(C)C(=O)NC(C(=O)N1Cc2cc([101O:1][101CH2:1]CS(=O)(=O)c3cc([100NH:0][100C:0](=O)N4CCCC(n5nc(-c6ccc(Oc7ccc(F)cc7F)cc6)c(C(N)=O)c5N)C4)ccc3N)ccc2CC1C(=O)NC1CCCc2ccccc21)C(C)(C)C

> <Shape>
0.231

> <Color>
0.161

> <Negative vol penalty>
0.000

$$$$

  -OEChem-04042323243D

 85 93  0     1  0  0  0  0  0999 V2000
  -30.3652  -35.1985   18.8068 C   0  0  0  0  0  0  0  0  0  0  0  0
  -30.2549  -33.8532   19.1437 C   0  0  0  0  0  0  0  0  0  0  0  0
  -24.9439   -8.4614   21.4691 C   0  0  0  0  0  0  0  0  0  0  0  0
  -23.6031   -9.5908   19.8068 C   0  0  0  0  0  0  0  0  0  0  0  0
  -29.5771  -36.1460   19.4586 C   0  0  0  0  0  0  0  0  0  0  0  0
  -29.3571  -33.4548   20.1334 C   0  0  0  0  0  0  0  0  0  0  0  0
  -26.6913  -29.3595   18.8041 C   0  0  0  0  0  0  0  0  0  0  0  0
  -23.8829   -7.5965   21.7373 C   0  0  0  0  0  0  0  0  0  0  0  0
  -22.5421   -8.7259   20.0749 C   0  0  0  0  0  0  0  0  0  0  0  0
  -27.3318  -28.1247   18.8982 C   0  0  0  0  0  0  0  0  0  0  0  0
  -20.9860   -7.6732   23.4770 C   0  0  0  0  0  0  0  0  0  0  0  0
  -20.6837   -7.4146   24.8139 C   0  0  0  0  0  0  0  0  0  0  0  0
  -26.2170  -27.7133   20.9976 C   0  0  0  0  0  0  0  0  0  0  0  0
  -29.1248  -19.1007   15.3970 C   0  0  0  0  0  0  0  0  0  0  0  0
  -28.6437  -18.7167   17.7333 C   0  0  0  0  0  0  0  0  0  0  0  0
  -21.1012   -5.0624   24.4534 C   0  0  0  0  0  0  0  0  0  0  0  0
  -24.8039   -9.4586   20.5039 C   0  0  0  0  0  0  0  0  0  0  0  0
  -26.9240  -10.1734   19.2783 C   0  0  0  0  0  0  0  0  0  0  0  0
  -28.6622  -35.7580   20.4501 C   0  0  0  0  0  0  0  0  0  0  0  0
  -25.8158  -29.7859   19.8131 C   0  0  0  0  0  0  0  0  0  0  0  0
  -28.5569  -34.3982   20.8001 C   0  0  0  0  0  0  0  0  0  0  0  0
  -25.5647  -28.9528   20.9126 C   0  0  0  0  0  0  0  0  0  0  0  0
  -29.2509  -17.7261   15.1970 C   0  0  0  0  0  0  0  0  0  0  0  0
  -28.8212  -19.5961   16.6652 C   0  0  0  0  0  0  0  0  0  0  0  0
  -28.7697  -17.3420   17.5333 C   0  0  0  0  0  0  0  0  0  0  0  0
  -22.6820   -7.7287   21.0402 C   0  0  0  0  0  0  0  0  0  0  0  0
  -27.0969  -27.3027   19.9965 C   0  0  0  0  0  0  0  0  0  0  0  0
  -21.3459   -6.6264   22.6283 C   0  0  0  0  0  0  0  0  0  0  0  0
  -29.0733  -16.8467   16.2651 C   0  0  0  0  0  0  0  0  0  0  0  0
  -20.7413   -6.1093   25.3021 C   0  0  0  0  0  0  0  0  0  0  0  0
  -21.4036   -5.3210   23.1165 C   0  0  0  0  0  0  0  0  0  0  0  0
  -25.8994  -10.3527   20.2268 C   0  0  0  0  0  0  0  0  0  0  0  0
  -27.7089  -11.2933   19.4049 C   0  0  0  0  0  0  0  0  0  0  0  0
  -27.1463   -9.0912   18.3644 C   0  0  0  0  0  0  0  0  0  0  0  0
  -25.7582  -32.2259   21.8495 C   0  0  0  0  0  0  0  0  0  0  0  0
  -22.8286  -31.0407   22.5807 C   0  0  0  0  0  0  0  0  0  0  0  0
  -28.3971  -21.6523   18.0560 C   0  0  0  0  0  0  0  0  0  0  0  0
  -20.7202  -28.3577   22.6372 C   0  0  0  0  0  0  0  0  0  0  0  0
  -28.2799  -16.8056   19.9455 C   0  0  0  0  0  0  0  0  0  0  0  0
  -27.8657  -36.8238   21.1602 C   0  0  0  0  0  0  0  0  0  0  0  0
  -25.1122  -31.1090   19.6835 C   0  0  0  0  0  0  0  0  0  0  0  0
  -24.6181  -29.3554   22.0128 C   0  0  0  0  0  0  0  0  0  0  0  0
  -26.6698  -36.2760   21.9347 C   0  0  0  0  0  0  0  0  0  0  0  0
  -27.7100  -14.9348   22.9208 C   0  0  0  0  0  0  0  0  0  0  0  0
  -27.0785  -35.0574   22.7560 C   0  0  0  0  0  0  0  0  0  0  0  0
  -27.2724  -13.5612   22.4071 C   0  0  0  0  0  0  0  0  0  0  0  0
  -27.1741  -16.0652   22.0441 C   0  0  0  0  0  0  0  0  0  0  0  0
  -27.0337  -14.5608   20.0983 C   0  0  0  0  0  0  0  0  0  0  0  0
  -27.5768  -33.9241   21.8511 C   0  0  1  0  0  0  0  0  0  0  0  0
  -24.6362  -31.6662   21.0216 C   0  0  1  0  0  0  0  0  0  0  0  0
  -27.6031  -13.3871   20.9118 C   0  0  2  0  0  0  0  0  0  0  0  0
  -29.5761  -17.2152   13.8320 C   0  0  0  0  0  0  0  0  0  0  0  0
  -18.4023  -27.6880   23.3274 C   0  0  0  0  0  0  0  0  0  0  0  0
  -23.7137  -30.9953   25.5004 C   0  0  0  0  0  0  0  0  0  0  0  0
  -21.7862  -29.4738   25.9885 C   0  0  0  0  0  0  0  0  0  0  0  0
  -21.3675  -31.7796   25.1337 C   0  0  0  0  0  0  0  0  0  0  0  0
  -19.9785  -27.6345   19.8648 C   0  0  0  0  0  0  0  0  0  0  0  0
  -28.3546  -23.1577   17.8327 C   0  0  0  0  0  0  0  0  0  0  0  0
  -28.0330  -23.9316   19.1065 C   0  0  0  0  0  0  0  0  0  0  0  0
  -28.0429  -25.4346   18.8689 C   0  0  0  0  0  0  0  0  0  1  0  0
  -22.3011  -30.0277   23.5679 C   0  0  1  0  0  0  0  0  0  0  0  0
  -19.2767  -28.2015   22.1940 C   0  0  2  0  0  0  0  0  0  0  0  0
  -22.3115  -30.5621   25.0280 C   0  0  0  0  0  0  0  0  0  0  0  0
  -26.0199  -11.4965   20.9060 N   0  0  0  0  0  0  0  0  0  0  0  0
  -27.1295  -12.0459   20.3837 N   0  0  0  0  0  0  0  0  0  0  0  0
  -23.9593  -30.6611   21.8437 N   0  0  0  0  0  0  0  0  0  0  0  0
  -27.5292  -15.8350   20.6420 N   0  0  0  0  0  0  0  0  0  0  0  0
  -28.8314  -11.6979   18.7734 N   0  0  0  0  0  0  0  0  0  0  0  0
  -26.2433   -8.0194   18.3656 N   0  0  0  0  0  0  0  0  0  0  0  0
  -28.6935  -20.9908   16.8676 N   0  0  0  0  0  0  0  0  0  0  0  0
  -28.5855  -16.4625   18.6289 N   0  0  0  0  0  0  0  0  0  0  0  0
  -26.4597  -33.2436   21.2317 N   0  0  0  0  0  0  0  0  0  0  0  0
  -20.9816  -29.6355   23.0846 N   0  0  0  0  0  0  0  0  0  0  0  0
  -19.1848  -27.2417   21.0576 N   0  3  0  0  0  0  0  0  0  0  0  0
  -28.1262   -9.0675   17.5816 O   0  0  0  0  0  0  0  0  0  0  0  0
  -25.9709  -31.7693   22.9666 O   0  0  0  0  0  0  0  0  0  0  0  0
  -22.2542  -32.1259   22.4626 O   0  0  0  0  0  0  0  0  0  0  0  0
  -28.1895  -21.1511   19.1560 O   0  0  0  0  0  0  0  0  0  0  0  0
  -21.5335  -27.4373   22.5944 O   0  0  0  0  0  0  0  0  0  0  0  0
  -28.6494  -17.8511   20.4861 O   0  0  0  0  0  0  0  0  0  0  0  0
  -29.1961  -15.5023   16.0660 O   0  0  0  0  0  0  0  0  0  0  0  0
  -21.6466   -6.8848   21.3014 O   0  0  0  0  0  0  0  0  0  0  0  0
  -27.7213  -26.0972   20.0911 O   0  0  0  0  0  0  0  0  0  1  0  0
  -20.4524   -5.8614   26.5863 F   0  0  0  0  0  0  0  0  0  0  0  0
  -21.7499   -4.3114   22.3062 F   0  0  0  0  0  0  0  0  0  0  0  0
  1  2  1  0  0  0  0
  1  5  2  0  0  0  0
  2  6  2  0  0  0  0
  3  8  2  0  0  0  0
  3 17  1  0  0  0  0
  4  9  1  0  0  0  0
  4 17  2  0  0  0  0
  5 19  1  0  0  0  0
  6 21  1  0  0  0  0
  7 10  2  0  0  0  0
  7 20  1  0  0  0  0
  8 26  1  0  0  0  0
  9 26  2  0  0  0  0
 10 27  1  0  0  0  0
 11 12  2  0  0  0  0
 11 28  1  0  0  0  0
 12 30  1  0  0  0  0
 13 22  1  0  0  0  0
 13 27  2  0  0  0  0
 14 23  2  0  0  0  0
 14 24  1  0  0  0  0
 15 24  2  0  0  0  0
 15 25  1  0  0  0  0
 16 30  2  0  0  0  0
 16 31  1  0  0  0  0
 17 32  1  0  0  0  0
 18 32  1  0  0  0  0
 18 33  2  0  0  0  0
 18 34  1  0  0  0  0
 19 21  2  0  0  0  0
 19 40  1  0  0  0  0
 20 22  2  0  0  0  0
 20 41  1  0  0  0  0
 21 49  1  0  0  0  0
 22 42  1  0  0  0  0
 23 29  1  0  0  0  0
 23 52  1  0  0  0  0
 24 70  1  0  0  0  0
 25 29  2  0  0  0  0
 25 71  1  0  0  0  0
 26 82  1  0  0  0  0
 27 83  1  0  0  0  0
 28 31  2  0  0  0  0
 28 82  1  0  0  0  0
 29 81  1  0  0  0  0
 30 84  1  0  0  0  0
 31 85  1  0  0  0  0
 32 64  2  0  0  0  0
 33 65  1  0  0  0  0
 33 68  1  0  0  0  0
 34 69  1  0  0  0  0
 34 75  2  0  0  0  0
 35 50  1  0  0  0  0
 35 72  1  0  0  0  0
 35 76  2  0  0  0  0
 36 61  1  0  0  0  0
 36 66  1  0  0  0  0
 36 77  2  0  0  0  0
 37 58  1  0  0  0  0
 37 70  1  0  0  0  0
 37 78  2  0  0  0  0
 38 62  1  0  0  0  0
 38 73  1  0  0  0  0
 38 79  2  0  0  0  0
 39 67  1  0  0  0  0
 39 71  1  0  0  0  0
 39 80  2  0  0  0  0
 40 43  1  0  0  0  0
 41 50  1  0  0  0  0
 42 66  1  0  0  0  0
 43 45  1  0  0  0  0
 44 46  1  0  0  0  0
 44 47  1  0  0  0  0
 45 49  1  0  0  0  0
 46 51  1  0  0  0  0
 47 67  1  0  0  0  0
 48 51  1  0  0  0  0
 48 67  1  0  0  0  0
 49 72  1  0  0  0  0
 50 66  1  0  0  0  0
 51 65  1  0  0  0  0
 53 62  1  0  0  0  0
 54 63  1  0  0  0  0
 55 63  1  0  0  0  0
 56 63  1  0  0  0  0
 57 74  1  0  0  0  0
 58 59  1  0  0  0  0
 59 60  1  0  0  0  0
 60 83  1  0  0  0  0
 61 63  1  0  0  0  0
 61 73  1  0  0  0  0
 62 74  1  0  0  0  0
 64 65  1  0  0  0  0
M  CHG  1  74   1
M  ISO  4  39 100  60 101  71 100  83 101
M  END
> <Batch ID>
0067

> <Smiles>
CNC(C)C(=O)NC(C(=O)N1Cc2cc([101O:1][101CH2:1]CCC(=O)Nc3cc(C)c(O)c([100NH:0][100C:0](=O)N4CCCC(n5nc(-c6ccc(Oc7ccc(F)cc7F)cc6)c(C(N)=O)c5N)C4)c3)ccc2CC1C(=O)NC1CCCc2ccccc21)C(C)(C)C

> <Shape>
0.262

> <Color>
0.097

> <Negative vol penalty>
0.000

$$$$

  -OEChem-04042323243D

 83 91  0     1  0  0  0  0  0999 V2000
  -21.9267  -11.6551   20.1856 C   0  0  0  0  0  0  0  0  0  0  0  0
  -21.5982  -13.0057   20.2436 C   0  0  0  0  0  0  0  0  0  0  0  0
  -17.6865  -26.7438   22.9650 C   0  0  0  0  0  0  0  0  0  0  0  0
  -24.3101  -25.5412   16.3197 C   0  0  0  0  0  0  0  0  0  0  0  0
  -26.3264  -26.7162   15.6943 C   0  0  0  0  0  0  0  0  0  0  0  0
  -18.4273  -27.9006   23.2069 C   0  0  0  0  0  0  0  0  0  0  0  0
  -23.2274  -11.2424   20.4718 C   0  0  0  0  0  0  0  0  0  0  0  0
  -22.5699  -13.9443   20.5888 C   0  0  0  0  0  0  0  0  0  0  0  0
  -23.0963  -19.6571   18.4458 C   0  0  0  0  0  0  0  0  0  0  0  0
  -18.3018  -25.6272   22.3990 C   0  0  0  0  0  0  0  0  0  0  0  0
  -24.0662  -25.2458   14.9785 C   0  0  0  0  0  0  0  0  0  0  0  0
  -26.0826  -26.4207   14.3531 C   0  0  0  0  0  0  0  0  0  0  0  0
  -22.7060  -20.8921   18.9617 C   0  0  0  0  0  0  0  0  0  0  0  0
  -23.1032  -23.8733   11.7530 C   0  0  0  0  0  0  0  0  0  0  0  0
  -22.7158  -22.5715   11.4358 C   0  0  0  0  0  0  0  0  0  0  0  0
  -20.3987  -26.8244   22.3168 C   0  0  0  0  0  0  0  0  0  0  0  0
  -24.9250  -21.2153   19.8508 C   0  0  0  0  0  0  0  0  0  0  0  0
  -24.7860  -21.7313   12.3554 C   0  0  0  0  0  0  0  0  0  0  0  0
  -25.4402  -26.2765   16.6776 C   0  0  0  0  0  0  0  0  0  0  0  0
  -19.7833  -27.9410   22.8828 C   0  0  0  0  0  0  0  0  0  0  0  0
  -26.4273  -25.8118   18.9836 C   0  0  0  0  0  0  0  0  0  0  0  0
  -24.2179  -12.1773   20.8114 C   0  0  0  0  0  0  0  0  0  0  0  0
  -24.4031  -19.1863   18.6383 C   0  0  0  0  0  0  0  0  0  0  0  0
  -23.8847  -13.5435   20.8812 C   0  0  0  0  0  0  0  0  0  0  0  0
  -25.3302  -19.9752   19.3341 C   0  0  0  0  0  0  0  0  0  0  0  0
  -19.6579  -25.6675   22.0749 C   0  0  0  0  0  0  0  0  0  0  0  0
  -24.9525  -25.6855   13.9952 C   0  0  0  0  0  0  0  0  0  0  0  0
  -23.6195  -21.6702   19.6668 C   0  0  0  0  0  0  0  0  0  0  0  0
  -24.3321  -24.1042   12.3714 C   0  0  0  0  0  0  0  0  0  0  0  0
  -23.5571  -21.5004   11.7370 C   0  0  0  0  0  0  0  0  0  0  0  0
  -25.1734  -23.0332   12.6726 C   0  0  0  0  0  0  0  0  0  0  0  0
  -25.6924  -26.5825   18.0629 C   0  0  0  0  0  0  0  0  0  0  0  0
  -26.3727  -26.5297   20.1532 C   0  0  0  0  0  0  0  0  0  0  0  0
  -20.5710  -29.1738   23.1411 C   0  0  0  0  0  0  0  0  0  0  0  0
  -27.0993  -24.5589   18.7981 C   0  0  0  0  0  0  0  0  0  0  0  0
  -25.6893  -16.6704   20.0943 C   0  0  0  0  0  0  0  0  0  0  0  0
  -28.4317  -17.8054   18.7854 C   0  0  0  0  0  0  0  0  0  0  0  0
  -21.6131  -24.4026   21.1203 C   0  0  0  0  0  0  0  0  0  0  0  0
  -30.1569  -20.4686   17.5295 C   0  0  0  0  0  0  0  0  0  0  0  0
  -22.5197  -30.4826   22.3581 C   0  0  0  0  0  0  0  0  0  0  0  0
  -25.5983  -11.6787   21.1585 C   0  0  0  0  0  0  0  0  0  0  0  0
  -24.8161  -17.8639   18.0525 C   0  0  0  0  0  0  0  0  0  0  0  0
  -26.7508  -19.5242   19.5507 C   0  0  0  0  0  0  0  0  0  0  0  0
  -26.6614  -12.7742   21.1508 C   0  0  0  0  0  0  0  0  0  0  0  0
  -25.9645  -31.0219   21.7755 C   0  0  0  0  0  0  0  0  0  0  0  0
  -26.1637  -14.0063   21.8998 C   0  0  0  0  0  0  0  0  0  0  0  0
  -26.3601  -29.8658   20.8529 C   0  0  0  0  0  0  0  0  0  0  0  0
  -24.5670  -31.5504   21.4556 C   0  0  0  0  0  0  0  0  0  0  0  0
  -23.9059  -29.3823   20.4965 C   0  0  0  0  0  0  0  0  0  0  0  0
  -24.9171  -14.5943   21.2277 C   0  0  1  0  0  0  0  0  0  0  0  0
  -26.0269  -17.2529   18.7510 C   0  0  1  0  0  0  0  0  0  0  0  0
  -25.2768  -28.7689   20.8243 C   0  0  1  0  0  0  0  0  0  0  0  0
  -32.3907  -21.0945   16.5725 C   0  0  0  0  0  0  0  0  0  0  0  0
  -29.6446  -17.7465   21.5845 C   0  0  0  0  0  0  0  0  0  0  0  0
  -31.4758  -19.2341   20.7466 C   0  0  0  0  0  0  0  0  0  0  0  0
  -31.1732  -16.9594   19.7684 C   0  0  0  0  0  0  0  0  0  0  0  0
  -28.9530  -21.2910   14.9540 C   0  0  0  0  0  0  0  0  0  0  0  0
  -21.8717  -23.0221   20.5462 C   0  0  0  0  0  0  0  0  0  1  0  0
  -29.5024  -18.7762   19.2211 C   0  0  1  0  0  0  0  0  0  0  0  0
  -30.9761  -20.6309   16.2618 C   0  0  2  0  0  0  0  0  0  0  0  0
  -30.4218  -18.1870   20.3279 C   0  0  0  0  0  0  0  0  0  0  0  0
  -25.2064  -27.7041   18.6013 N   0  0  0  0  0  0  0  0  0  0  0  0
  -25.6367  -27.6433   19.8730 N   0  0  0  0  0  0  0  0  0  0  0  0
  -27.1046  -18.2210   18.9641 N   0  0  0  0  0  0  0  0  0  0  0  0
  -23.5988  -30.4523   21.4575 N   0  0  0  0  0  0  0  0  0  0  0  0
  -26.8828  -26.3108   21.3837 N   0  0  0  0  0  0  0  0  0  0  0  0
  -27.0558  -23.9583   17.5325 N   0  0  0  0  0  0  0  0  0  0  0  0
  -20.2820  -24.5346   21.5010 N   0  0  0  0  0  0  0  0  0  0  0  0
  -21.6755  -29.3676   22.3111 N   0  0  0  0  0  0  0  0  0  0  0  0
  -25.2867  -15.3493   20.0496 N   0  0  0  0  0  0  0  0  0  0  0  0
  -30.2082  -19.1768   18.0088 N   0  0  0  0  0  0  0  0  0  0  0  0
  -30.3409  -21.6324   15.3593 N   0  3  0  0  0  0  0  0  0  0  0  0
  -20.1969  -29.9502   24.0158 O   0  0  0  0  0  0  0  0  0  0  0  0
  -27.7061  -23.9808   19.7315 O   0  0  0  0  0  0  0  0  0  0  0  0
  -25.7882  -17.3675   21.0973 O   0  0  0  0  0  0  0  0  0  0  0  0
  -28.7606  -16.7212   18.2975 O   0  0  0  0  0  0  0  0  0  0  0  0
  -22.5052  -25.2400   21.2066 O   0  0  0  0  0  0  0  0  0  0  0  0
  -29.5369  -21.3960   18.0452 O   0  0  0  0  0  0  0  0  0  0  0  0
  -22.3443  -31.4043   23.1612 O   0  0  0  0  0  0  0  0  0  0  0  0
  -24.7149  -25.3972   12.6864 O   0  0  0  0  0  0  0  0  0  0  0  0
  -23.2409  -22.8757   20.1719 O   0  0  0  0  0  0  0  0  0  1  0  0
  -23.1843  -20.2502   11.4337 F   0  0  0  0  0  0  0  0  0  0  0  0
  -26.3546  -23.2487   13.2677 F   0  0  0  0  0  0  0  0  0  0  0  0
  1  2  1  0  0  0  0
  1  7  2  0  0  0  0
  2  8  2  0  0  0  0
  3  6  1  0  0  0  0
  3 10  2  0  0  0  0
  4 11  2  0  0  0  0
  4 19  1  0  0  0  0
  5 12  1  0  0  0  0
  5 19  2  0  0  0  0
  6 20  2  0  0  0  0
  7 22  1  0  0  0  0
  8 24  1  0  0  0  0
  9 13  2  0  0  0  0
  9 23  1  0  0  0  0
 10 26  1  0  0  0  0
 11 27  1  0  0  0  0
 12 27  2  0  0  0  0
 13 28  1  0  0  0  0
 14 15  2  0  0  0  0
 14 29  1  0  0  0  0
 15 30  1  0  0  0  0
 16 20  1  0  0  0  0
 16 26  2  0  0  0  0
 17 25  1  0  0  0  0
 17 28  2  0  0  0  0
 18 30  2  0  0  0  0
 18 31  1  0  0  0  0
 19 32  1  0  0  0  0
 20 34  1  0  0  0  0
 21 32  1  0  0  0  0
 21 33  2  0  0  0  0
 21 35  1  0  0  0  0
 22 24  2  0  0  0  0
 22 41  1  0  0  0  0
 23 25  2  0  0  0  0
 23 42  1  0  0  0  0
 24 50  1  0  0  0  0
 25 43  1  0  0  0  0
 26 68  1  0  0  0  0
 27 80  1  0  0  0  0
 28 81  1  0  0  0  0
 29 31  2  0  0  0  0
 29 80  1  0  0  0  0
 30 82  1  0  0  0  0
 31 83  1  0  0  0  0
 32 62  2  0  0  0  0
 33 63  1  0  0  0  0
 33 66  1  0  0  0  0
 34 69  1  0  0  0  0
 34 73  2  0  0  0  0
 35 67  1  0  0  0  0
 35 74  2  0  0  0  0
 36 51  1  0  0  0  0
 36 70  1  0  0  0  0
 36 75  2  0  0  0  0
 37 59  1  0  0  0  0
 37 64  1  0  0  0  0
 37 76  2  0  0  0  0
 38 58  1  0  0  0  0
 38 68  1  0  0  0  0
 38 77  2  0  0  0  0
 39 60  1  0  0  0  0
 39 71  1  0  0  0  0
 39 78  2  0  0  0  0
 40 65  1  0  0  0  0
 40 69  1  0  0  0  0
 40 79  2  0  0  0  0
 41 44  1  0  0  0  0
 42 51  1  0  0  0  0
 43 64  1  0  0  0  0
 44 46  1  0  0  0  0
 45 47  1  0  0  0  0
 45 48  1  0  0  0  0
 46 50  1  0  0  0  0
 47 52  1  0  0  0  0
 48 65  1  0  0  0  0
 49 52  1  0  0  0  0
 49 65  1  0  0  0  0
 50 70  1  0  0  0  0
 51 64  1  0  0  0  0
 52 63  1  0  0  0  0
 53 60  1  0  0  0  0
 54 61  1  0  0  0  0
 55 61  1  0  0  0  0
 56 61  1  0  0  0  0
 57 72  1  0  0  0  0
 58 81  1  0  0  0  0
 59 61  1  0  0  0  0
 59 71  1  0  0  0  0
 60 72  1  0  0  0  0
 62 63  1  0  0  0  0
M  CHG  1  72   1
M  ISO  4  40 100  58 101  69 100  81 101
M  END
> <Batch ID>
0067

> <Smiles>
CNC(C)C(=O)NC(C(=O)N1Cc2cc([101O:1][101CH2:1]C(=O)Nc3cccc(C(=O)[100NH:0][100C:0](=O)N4CCCC(n5nc(-c6ccc(Oc7ccc(F)cc7F)cc6)c(C(N)=O)c5N)C4)c3)ccc2CC1C(=O)NC1CCCc2ccccc21)C(C)(C)C

> <Shape>
0.218

> <Color>
0.075

> <Negative vol penalty>
0.000

$$$$

  -OEChem-04042323243D

 84 92  0     1  0  0  0  0  0999 V2000
  -28.2190  -24.0844   17.4656 C   0  0  0  0  0  0  0  0  0  0  0  0
  -27.0549  -24.2949   18.1977 C   0  0  0  0  0  0  0  0  0  0  0  0
  -27.4264  -12.8784   20.6007 C   0  0  0  0  0  0  0  0  0  0  0  0
  -25.6005  -12.9158   19.0190 C   0  0  0  0  0  0  0  0  0  0  0  0
  -29.4057  -24.7065   17.8511 C   0  0  0  0  0  0  0  0  0  0  0  0
  -27.0771  -25.1269   19.3165 C   0  0  0  0  0  0  0  0  0  0  0  0
  -23.1369  -28.3052   19.4525 C   0  0  0  0  0  0  0  0  0  0  0  0
  -21.3632  -19.7036   17.5593 C   0  0  0  0  0  0  0  0  0  0  0  0
  -27.0542  -11.5948   21.0000 C   0  0  0  0  0  0  0  0  0  0  0  0
  -25.2283  -11.6322   19.4182 C   0  0  0  0  0  0  0  0  0  0  0  0
  -21.9135  -27.7850   19.8726 C   0  0  0  0  0  0  0  0  0  0  0  0
  -23.5610  -10.2091   21.9922 C   0  0  0  0  0  0  0  0  0  0  0  0
  -20.0304  -19.9583   17.2362 C   0  0  0  0  0  0  0  0  0  0  0  0
  -22.2059   -9.9682   22.2186 C   0  0  0  0  0  0  0  0  0  0  0  0
  -22.2736  -28.7246   22.0650 C   0  0  0  0  0  0  0  0  0  0  0  0
  -21.2384  -21.3212   19.3495 C   0  0  0  0  0  0  0  0  0  0  0  0
  -22.2215   -8.2675   20.5026 C   0  0  0  0  0  0  0  0  0  0  0  0
  -26.6995  -13.5390   19.6102 C   0  0  0  0  0  0  0  0  0  0  0  0
  -27.9808  -15.2092   18.1694 C   0  0  0  0  0  0  0  0  0  0  0  0
  -29.4403  -25.5542   18.9695 C   0  0  0  0  0  0  0  0  0  0  0  0
  -23.9442  -29.0309   20.3402 C   0  0  0  0  0  0  0  0  0  0  0  0
  -28.2657  -25.7599   19.7181 C   0  0  0  0  0  0  0  0  0  0  0  0
  -23.5056  -29.2552   21.6530 C   0  0  0  0  0  0  0  0  0  0  0  0
  -21.9672  -20.3850   18.6160 C   0  0  0  0  0  0  0  0  0  0  0  0
  -19.9057  -21.5760   19.0264 C   0  0  0  0  0  0  0  0  0  0  0  0
  -25.9552  -10.9717   20.4088 C   0  0  0  0  0  0  0  0  0  0  0  0
  -21.4830  -27.9922   21.1798 C   0  0  0  0  0  0  0  0  0  0  0  0
  -24.2464   -9.4793   21.0210 C   0  0  0  0  0  0  0  0  0  0  0  0
  -21.5362   -8.9974   21.4739 C   0  0  0  0  0  0  0  0  0  0  0  0
  -19.3016  -20.8946   17.9697 C   0  0  0  0  0  0  0  0  0  0  0  0
  -23.5767   -8.5085   20.2762 C   0  0  0  0  0  0  0  0  0  0  0  0
  -27.0831  -14.8652   19.1978 C   0  0  0  0  0  0  0  0  0  0  0  0
  -28.0014  -16.5826   18.1768 C   0  0  0  0  0  0  0  0  0  0  0  0
  -28.7291  -14.3631   17.2863 C   0  0  0  0  0  0  0  0  0  0  0  0
  -26.8590  -28.6454   21.5480 C   0  0  0  0  0  0  0  0  0  0  0  0
  -26.3123  -31.5931   22.7867 C   0  0  0  0  0  0  0  0  0  0  0  0
  -19.6116  -23.2892   20.8488 C   0  0  0  0  0  0  0  0  0  0  0  0
  -24.0462  -33.9430   23.7813 C   0  0  0  0  0  0  0  0  0  0  0  0
  -24.0712  -20.7145   19.9617 C   0  0  0  0  0  0  0  0  0  0  0  0
  -30.7572  -26.1671   19.3754 C   0  0  0  0  0  0  0  0  0  0  0  0
  -25.2489  -29.6082   19.8638 C   0  0  0  0  0  0  0  0  0  0  0  0
  -24.3257  -30.0448   22.6391 C   0  0  0  0  0  0  0  0  0  0  0  0
  -30.6120  -27.3303   20.3533 C   0  0  0  0  0  0  0  0  0  0  0  0
  -27.4174  -20.3206   21.1128 C   0  0  0  0  0  0  0  0  0  0  0  0
  -29.6446  -26.9669   21.4752 C   0  0  0  0  0  0  0  0  0  0  0  0
  -27.7952  -18.9105   20.6535 C   0  0  0  0  0  0  0  0  0  0  0  0
  -25.9561  -20.4020   21.5506 C   0  0  0  0  0  0  0  0  0  0  0  0
  -25.3627  -18.4950   20.1082 C   0  0  0  0  0  0  0  0  0  0  0  0
  -28.2441  -26.6750   20.9232 C   0  0  1  0  0  0  0  0  0  0  0  0
  -26.2264  -29.8932   20.9999 C   0  0  1  0  0  0  0  0  0  0  0  0
  -26.8077  -18.3787   19.5963 C   0  0  2  0  0  0  0  0  0  0  0  0
  -23.9003  -36.2375   24.7870 C   0  0  0  0  0  0  0  0  0  0  0  0
  -27.0099  -30.4357   25.5223 C   0  0  0  0  0  0  0  0  0  0  0  0
  -25.9487  -32.4484   26.5670 C   0  0  0  0  0  0  0  0  0  0  0  0
  -27.9387  -32.7165   25.0869 C   0  0  0  0  0  0  0  0  0  0  0  0
  -22.6446  -35.0206   21.4079 C   0  0  0  0  0  0  0  0  0  0  0  0
  -18.4951  -24.1882   21.3615 C   0  0  0  0  0  0  0  0  0  0  0  0
  -19.0177  -25.4856   21.9686 C   0  0  0  0  0  0  0  0  0  0  0  0
  -19.8451  -26.2808   20.9692 C   0  0  0  0  0  0  0  0  0  1  0  0
  -25.7048  -32.1200   24.0643 C   0  0  1  0  0  0  0  0  0  0  0  0
  -23.9483  -35.4312   23.4985 C   0  0  2  0  0  0  0  0  0  0  0  0
  -26.6357  -31.9136   25.2923 C   0  0  0  0  0  0  0  0  0  0  0  0
  -26.5707  -15.9338   19.8138 N   0  0  0  0  0  0  0  0  0  0  0  0
  -27.1483  -16.9628   19.1707 N   0  0  0  0  0  0  0  0  0  0  0  0
  -25.5968  -30.5834   22.1275 N   0  0  0  0  0  0  0  0  0  0  0  0
  -25.0790  -19.8852   20.4977 N   0  0  0  0  0  0  0  0  0  0  0  0
  -28.6659  -17.4899   17.4301 N   0  0  0  0  0  0  0  0  0  0  0  0
  -28.5904  -12.9744   17.4146 N   0  0  0  0  0  0  0  0  0  0  0  0
  -19.1683  -22.5261   19.7723 N   0  0  0  0  0  0  0  0  0  0  0  0
  -23.3211  -20.1261   18.9440 N   0  0  0  0  0  0  0  0  0  0  0  0
  -27.5571  -27.9096   20.6095 N   0  0  0  0  0  0  0  0  0  0  0  0
  -25.3560  -33.5129   23.8063 N   0  0  0  0  0  0  0  0  0  0  0  0
  -22.7183  -35.7292   22.7116 N   0  3  0  0  0  0  0  0  0  0  0  0
  -29.5104  -14.8247   16.4202 O   0  0  0  0  0  0  0  0  0  0  0  0
  -26.7250  -28.3712   22.7348 O   0  0  0  0  0  0  0  0  0  0  0  0
  -27.3786  -32.0651   22.3845 O   0  0  0  0  0  0  0  0  0  0  0  0
  -20.7279  -23.2831   21.3569 O   0  0  0  0  0  0  0  0  0  0  0  0
  -23.0595  -33.2337   23.9657 O   0  0  0  0  0  0  0  0  0  0  0  0
  -23.9049  -21.8715   20.3562 O   0  0  0  0  0  0  0  0  0  0  0  0
  -25.5919   -9.7191   20.7979 O   0  0  0  0  0  0  0  0  0  0  0  0
  -20.2896  -27.4850   21.5926 O   0  0  0  0  0  0  0  0  0  1  0  0
  -20.2352   -8.7651   21.6924 F   0  0  0  0  0  0  0  0  0  0  0  0
  -18.0216  -21.1313   17.6498 F   0  0  0  0  0  0  0  0  0  0  0  0
  -24.2301   -7.8033   19.3426 F   0  0  0  0  0  0  0  0  0  0  0  0
  1  2  1  0  0  0  0
  1  5  2  0  0  0  0
  2  6  2  0  0  0  0
  3  9  2  0  0  0  0
  3 18  1  0  0  0  0
  4 10  1  0  0  0  0
  4 18  2  0  0  0  0
  5 20  1  0  0  0  0
  6 22  1  0  0  0  0
  7 11  2  0  0  0  0
  7 21  1  0  0  0  0
  8 13  2  0  0  0  0
  8 24  1  0  0  0  0
  9 26  1  0  0  0  0
 10 26  2  0  0  0  0
 11 27  1  0  0  0  0
 12 14  2  0  0  0  0
 12 28  1  0  0  0  0
 13 30  1  0  0  0  0
 14 29  1  0  0  0  0
 15 23  1  0  0  0  0
 15 27  2  0  0  0  0
 16 24  2  0  0  0  0
 16 25  1  0  0  0  0
 17 29  2  0  0  0  0
 17 31  1  0  0  0  0
 18 32  1  0  0  0  0
 19 32  1  0  0  0  0
 19 33  2  0  0  0  0
 19 34  1  0  0  0  0
 20 22  2  0  0  0  0
 20 40  1  0  0  0  0
 21 23  2  0  0  0  0
 21 41  1  0  0  0  0
 22 49  1  0  0  0  0
 23 42  1  0  0  0  0
 24 70  1  0  0  0  0
 25 30  2  0  0  0  0
 25 69  1  0  0  0  0
 26 80  1  0  0  0  0
 27 81  1  0  0  0  0
 28 31  2  0  0  0  0
 28 80  1  0  0  0  0
 29 82  1  0  0  0  0
 30 83  1  0  0  0  0
 31 84  1  0  0  0  0
 32 63  2  0  0  0  0
 33 64  1  0  0  0  0
 33 67  1  0  0  0  0
 34 68  1  0  0  0  0
 34 74  2  0  0  0  0
 35 50  1  0  0  0  0
 35 71  1  0  0  0  0
 35 75  2  0  0  0  0
 36 60  1  0  0  0  0
 36 65  1  0  0  0  0
 36 76  2  0  0  0  0
 37 57  1  0  0  0  0
 37 69  1  0  0  0  0
 37 77  2  0  0  0  0
 38 61  1  0  0  0  0
 38 72  1  0  0  0  0
 38 78  2  0  0  0  0
 39 66  1  0  0  0  0
 39 70  1  0  0  0  0
 39 79  2  0  0  0  0
 40 43  1  0  0  0  0
 41 50  1  0  0  0  0
 42 65  1  0  0  0  0
 43 45  1  0  0  0  0
 44 46  1  0  0  0  0
 44 47  1  0  0  0  0
 45 49  1  0  0  0  0
 46 51  1  0  0  0  0
 47 66  1  0  0  0  0
 48 51  1  0  0  0  0
 48 66  1  0  0  0  0
 49 71  1  0  0  0  0
 50 65  1  0  0  0  0
 51 64  1  0  0  0  0
 52 61  1  0  0  0  0
 53 62  1  0  0  0  0
 54 62  1  0  0  0  0
 55 62  1  0  0  0  0
 56 73  1  0  0  0  0
 57 58  1  0  0  0  0
 58 59  1  0  0  0  0
 59 81  1  0  0  0  0
 60 62  1  0  0  0  0
 60 72  1  0  0  0  0
 61 73  1  0  0  0  0
 63 64  1  0  0  0  0
M  CHG  1  73   1
M  ISO  4  39 100  59 101  70 100  81 101
M  END
> <Batch ID>
0067

> <Smiles>
CNC(C)C(=O)NC(C(=O)N1Cc2cc([101O:1][101CH2:1]CCC(=O)Nc3cc([100NH:0][100C:0](=O)N4CCCC(n5nc(-c6ccc(Oc7ccc(F)cc7F)cc6)c(C(N)=O)c5N)C4)ccc3F)ccc2CC1C(=O)NC1CCCc2ccccc21)C(C)(C)C

> <Shape>
0.279

> <Color>
0.070

> <Negative vol penalty>
0.000

$$$$

  -OEChem-04042323243D

 85 93  0     1  0  0  0  0  0999 V2000
  -28.1328  -23.7633   17.8392 C   0  0  0  0  0  0  0  0  0  0  0  0
  -27.0200  -24.5742   18.0314 C   0  0  0  0  0  0  0  0  0  0  0  0
  -25.9092  -12.6678   19.4582 C   0  0  0  0  0  0  0  0  0  0  0  0
  -24.2991  -13.3872   21.1095 C   0  0  0  0  0  0  0  0  0  0  0  0
  -29.2027  -23.8321   18.7290 C   0  0  0  0  0  0  0  0  0  0  0  0
  -26.9817  -25.4627   19.1066 C   0  0  0  0  0  0  0  0  0  0  0  0
  -23.1898  -28.5920   19.2861 C   0  0  0  0  0  0  0  0  0  0  0  0
  -26.0675  -11.4604   20.1385 C   0  0  0  0  0  0  0  0  0  0  0  0
  -24.4573  -12.1798   21.7898 C   0  0  0  0  0  0  0  0  0  0  0  0
  -21.8931  -28.1876   19.6004 C   0  0  0  0  0  0  0  0  0  0  0  0
  -24.1686   -9.1404   23.7638 C   0  0  0  0  0  0  0  0  0  0  0  0
  -23.0173   -8.4875   24.2041 C   0  0  0  0  0  0  0  0  0  0  0  0
  -22.3777  -22.3374   23.2441 C   0  0  0  0  0  0  0  0  0  0  0  0
  -22.1507  -29.1051   21.8165 C   0  0  0  0  0  0  0  0  0  0  0  0
  -24.5269  -23.1174   21.6456 C   0  0  0  0  0  0  0  0  0  0  0  0
  -22.2320   -8.3350   21.9244 C   0  0  0  0  0  0  0  0  0  0  0  0
  -25.0251  -13.6312   19.9437 C   0  0  0  0  0  0  0  0  0  0  0  0
  -22.4864  -23.6615   22.8192 C   0  0  0  0  0  0  0  0  0  0  0  0
  -23.9383  -15.1635   18.2178 C   0  0  0  0  0  0  0  0  0  0  0  0
  -29.1714  -24.7132   19.8225 C   0  0  0  0  0  0  0  0  0  0  0  0
  -23.9819  -29.2474   20.2397 C   0  0  0  0  0  0  0  0  0  0  0  0
  -28.0618  -25.5640   20.0020 C   0  0  0  0  0  0  0  0  0  0  0  0
  -23.4562  -29.5190   21.5109 C   0  0  0  0  0  0  0  0  0  0  0  0
  -23.5610  -24.0515   22.0199 C   0  0  0  0  0  0  0  0  0  0  0  0
  -24.4182  -21.7933   22.0705 C   0  0  0  0  0  0  0  0  0  0  0  0
  -25.3415  -11.2164   21.3043 C   0  0  0  0  0  0  0  0  0  0  0  0
  -21.3743  -28.4416   20.8667 C   0  0  0  0  0  0  0  0  0  0  0  0
  -24.3516   -9.3907   22.4038 C   0  0  0  0  0  0  0  0  0  0  0  0
  -22.0490   -8.0848   23.2844 C   0  0  0  0  0  0  0  0  0  0  0  0
  -23.3436  -21.4033   22.8698 C   0  0  0  0  0  0  0  0  0  0  0  0
  -23.3833   -8.9879   21.4841 C   0  0  0  0  0  0  0  0  0  0  0  0
  -24.8616  -14.8789   19.2418 C   0  0  0  0  0  0  0  0  0  0  0  0
  -24.1845  -16.4739   17.8882 C   0  0  0  0  0  0  0  0  0  0  0  0
  -21.4513  -24.6311   23.2303 C   0  0  0  0  0  0  0  0  0  0  0  0
  -22.9468  -14.3190   17.6184 C   0  0  0  0  0  0  0  0  0  0  0  0
  -26.7371  -28.6071   21.6896 C   0  0  0  0  0  0  0  0  0  0  0  0
  -26.3579  -31.6003   22.8810 C   0  0  0  0  0  0  0  0  0  0  0  0
  -24.2388  -34.1524   23.6828 C   0  0  0  0  0  0  0  0  0  0  0  0
  -26.5294  -21.0703   20.9016 C   0  0  0  0  0  0  0  0  0  0  0  0
  -30.3601  -24.7524   20.7502 C   0  0  0  0  0  0  0  0  0  0  0  0
  -25.3692  -29.7009   19.8763 C   0  0  0  0  0  0  0  0  0  0  0  0
  -24.2584  -30.2375   22.5639 C   0  0  0  0  0  0  0  0  0  0  0  0
  -30.0423  -25.3941   22.0969 C   0  0  0  0  0  0  0  0  0  0  0  0
  -27.7035  -19.7215   17.8227 C   0  0  0  0  0  0  0  0  0  0  0  0
  -29.3324  -26.7229   21.8849 C   0  0  0  0  0  0  0  0  0  0  0  0
  -27.0192  -18.3550   17.7411 C   0  0  0  0  0  0  0  0  0  0  0  0
  -28.1008  -20.0721   19.2555 C   0  0  0  0  0  0  0  0  0  0  0  0
  -26.3310  -18.6158   20.1588 C   0  0  0  0  0  0  0  0  0  0  0  0
  -27.9848  -26.5161   21.1819 C   0  0  1  0  0  0  0  0  0  0  0  0
  -26.2691  -29.9035   21.0914 C   0  0  1  0  0  0  0  0  0  0  0  0
  -25.8541  -18.2474   18.7444 C   0  0  2  0  0  0  0  0  0  0  0  0
  -24.2177  -36.4572   24.6752 C   0  0  0  0  0  0  0  0  0  0  0  0
  -26.7138  -30.4024   25.6646 C   0  0  0  0  0  0  0  0  0  0  0  0
  -25.7556  -32.5098   26.6179 C   0  0  0  0  0  0  0  0  0  0  0  0
  -27.8796  -32.5867   25.3119 C   0  0  0  0  0  0  0  0  0  0  0  0
  -23.1465  -35.3371   21.2004 C   0  0  0  0  0  0  0  0  0  0  0  0
  -18.6380  -26.1709   21.4459 C   0  0  0  0  0  0  0  0  0  0  0  0
  -19.2902  -25.7214   22.7428 C   0  0  0  0  0  0  0  0  0  0  0  0
  -19.6114  -26.8843   20.5162 C   0  0  0  0  0  0  0  0  0  1  0  0
  -25.6950  -32.1884   24.1031 C   0  0  1  0  0  0  0  0  0  0  0  0
  -24.3009  -35.6415   23.3944 C   0  0  2  0  0  0  0  0  0  0  0  0
  -26.4963  -31.9065   25.4054 C   0  0  0  0  0  0  0  0  0  0  0  0
  -25.6365  -15.9243   19.5426 N   0  0  0  0  0  0  0  0  0  0  0  0
  -25.2008  -16.8786   18.7027 N   0  0  0  0  0  0  0  0  0  0  0  0
  -25.6119  -30.6553   22.1624 N   0  0  0  0  0  0  0  0  0  0  0  0
  -26.9461  -19.9523   20.1484 N   0  0  0  0  0  0  0  0  0  0  0  0
  -23.6875  -25.3880   21.5801 N   0  0  0  0  0  0  0  0  0  0  0  0
  -23.6286  -17.3080   16.9838 N   0  0  0  0  0  0  0  0  0  0  0  0
  -21.6347  -25.3013   24.3679 N   0  0  0  0  0  0  0  0  0  0  0  0
  -22.8278  -12.9996   18.0760 N   0  0  0  0  0  0  0  0  0  0  0  0
  -25.4011  -20.8463   21.6898 N   0  0  0  0  0  0  0  0  0  0  0  0
  -27.4422  -27.8049   20.8128 N   0  0  0  0  0  0  0  0  0  0  0  0
  -25.4973  -33.6055   23.8181 N   0  0  0  0  0  0  0  0  0  0  0  0
  -20.3783  -24.7900   22.4444 N   0  3  0  0  0  0  0  0  0  0  0  0
  -23.1739  -36.0445   22.5065 N   0  3  0  0  0  0  0  0  0  0  0  0
  -22.1999  -14.7174   16.6927 O   0  0  0  0  0  0  0  0  0  0  0  0
  -26.4790  -28.3539   22.8605 O   0  0  0  0  0  0  0  0  0  0  0  0
  -27.4928  -31.9710   22.5711 O   0  0  0  0  0  0  0  0  0  0  0  0
  -23.1798  -33.5367   23.7821 O   0  0  0  0  0  0  0  0  0  0  0  0
  -27.1129  -22.1549   20.8302 O   0  0  0  0  0  0  0  0  0  0  0  0
  -25.4955  -10.0383   21.9682 O   0  0  0  0  0  0  0  0  0  0  0  0
  -20.1092  -28.0474   21.1764 O   0  0  0  0  0  0  0  0  0  1  0  0
  -20.9442   -7.4564   23.7072 F   0  0  0  0  0  0  0  0  0  0  0  0
  -23.2305  -20.1337   23.2853 F   0  0  0  0  0  0  0  0  0  0  0  0
  -23.5541   -9.2245   20.1762 F   0  0  0  0  0  0  0  0  0  0  0  0
  1  2  1  0  0  0  0
  1  5  2  0  0  0  0
  2  6  2  0  0  0  0
  3  8  2  0  0  0  0
  3 17  1  0  0  0  0
  4  9  1  0  0  0  0
  4 17  2  0  0  0  0
  5 20  1  0  0  0  0
  6 22  1  0  0  0  0
  7 10  2  0  0  0  0
  7 21  1  0  0  0  0
  8 26  1  0  0  0  0
  9 26  2  0  0  0  0
 10 27  1  0  0  0  0
 11 12  2  0  0  0  0
 11 28  1  0  0  0  0
 12 29  1  0  0  0  0
 13 18  1  0  0  0  0
 13 30  2  0  0  0  0
 14 23  1  0  0  0  0
 14 27  2  0  0  0  0
 15 24  1  0  0  0  0
 15 25  2  0  0  0  0
 16 29  2  0  0  0  0
 16 31  1  0  0  0  0
 17 32  1  0  0  0  0
 18 24  2  0  0  0  0
 18 34  1  0  0  0  0
 19 32  1  0  0  0  0
 19 33  2  0  0  0  0
 19 35  1  0  0  0  0
 20 22  2  0  0  0  0
 20 40  1  0  0  0  0
 21 23  2  0  0  0  0
 21 41  1  0  0  0  0
 22 49  1  0  0  0  0
 23 42  1  0  0  0  0
 24 67  1  0  0  0  0
 25 30  1  0  0  0  0
 25 71  1  0  0  0  0
 26 81  1  0  0  0  0
 27 82  1  0  0  0  0
 28 31  2  0  0  0  0
 28 81  1  0  0  0  0
 29 83  1  0  0  0  0
 30 84  1  0  0  0  0
 31 85  1  0  0  0  0
 32 63  2  0  0  0  0
 33 64  1  0  0  0  0
 33 68  1  0  0  0  0
 34 69  1  0  0  0  0
 34 74  2  0  0  0  0
 35 70  1  0  0  0  0
 35 76  2  0  0  0  0
 36 50  1  0  0  0  0
 36 72  1  0  0  0  0
 36 77  2  0  0  0  0
 37 60  1  0  0  0  0
 37 65  1  0  0  0  0
 37 78  2  0  0  0  0
 38 61  1  0  0  0  0
 38 73  1  0  0  0  0
 38 79  2  0  0  0  0
 39 66  1  0  0  0  0
 39 71  1  0  0  0  0
 39 80  2  0  0  0  0
 40 43  1  0  0  0  0
 41 50  1  0  0  0  0
 42 65  1  0  0  0  0
 43 45  1  0  0  0  0
 44 46  1  0  0  0  0
 44 47  1  0  0  0  0
 45 49  1  0  0  0  0
 46 51  1  0  0  0  0
 47 66  1  0  0  0  0
 48 51  1  0  0  0  0
 48 66  1  0  0  0  0
 49 72  1  0  0  0  0
 50 65  1  0  0  0  0
 51 64  1  0  0  0  0
 52 61  1  0  0  0  0
 53 62  1  0  0  0  0
 54 62  1  0  0  0  0
 55 62  1  0  0  0  0
 56 75  1  0  0  0  0
 57 58  1  0  0  0  0
 57 59  1  0  0  0  0
 58 74  1  0  0  0  0
 59 82  1  0  0  0  0
 60 62  1  0  0  0  0
 60 73  1  0  0  0  0
 61 75  1  0  0  0  0
 63 64  1  0  0  0  0
M  CHG  2  74   1  75   1
M  ISO  4  39 100  59 101  71 100  82 101
M  END
> <Batch ID>
0067

> <Smiles>
CNC(C)C(=O)NC(C(=O)N1Cc2cc([101O:1][101CH2:1]CCNC(=N)c3cc(F)c([100NH:0][100C:0](=O)N4CCCC(n5nc(-c6ccc(Oc7ccc(F)cc7F)cc6)c(C(N)=O)c5N)C4)cc3N)ccc2CC1C(=O)NC1CCCc2ccccc21)C(C)(C)C

> <Shape>
0.280

> <Color>
0.069

> <Negative vol penalty>
0.000

$$$$

  -OEChem-04042323243D

 77 84  0     1  0  0  0  0  0999 V2000
  -27.0837  -37.2295   20.1535 C   0  0  0  0  0  0  0  0  0  0  0  0
  -27.6126  -36.1007   19.5357 C   0  0  0  0  0  0  0  0  0  0  0  0
  -23.3934  -10.2161   22.2166 C   0  0  0  0  0  0  0  0  0  0  0  0
  -23.9089   -9.6226   19.9320 C   0  0  0  0  0  0  0  0  0  0  0  0
  -26.4616  -37.1157   21.3960 C   0  0  0  0  0  0  0  0  0  0  0  0
  -27.5206  -34.8576   20.1607 C   0  0  0  0  0  0  0  0  0  0  0  0
  -26.8060  -27.8908   18.6543 C   0  0  0  0  0  0  0  0  0  0  0  0
  -22.5330   -9.1220   22.3066 C   0  0  0  0  0  0  0  0  0  0  0  0
  -23.0485   -8.5285   20.0221 C   0  0  0  0  0  0  0  0  0  0  0  0
  -27.4050  -26.6623   18.9296 C   0  0  0  0  0  0  0  0  0  0  0  0
  -22.7907   -5.7810   22.7588 C   0  0  0  0  0  0  0  0  0  0  0  0
  -22.8676   -4.9884   23.9040 C   0  0  0  0  0  0  0  0  0  0  0  0
  -26.2382  -26.5729   21.0391 C   0  0  0  0  0  0  0  0  0  0  0  0
  -20.5554   -5.4824   24.4011 C   0  0  0  0  0  0  0  0  0  0  0  0
  -24.0814  -10.4665   21.0292 C   0  0  0  0  0  0  0  0  0  0  0  0
  -26.3445  -11.6251   21.2380 C   0  0  0  0  0  0  0  0  0  0  0  0
  -26.3534  -35.8690   22.0322 C   0  0  0  0  0  0  0  0  0  0  0  0
  -25.9255  -28.4757   19.5757 C   0  0  0  0  0  0  0  0  0  0  0  0
  -26.8976  -34.7272   21.4136 C   0  0  0  0  0  0  0  0  0  0  0  0
  -25.6273  -27.8077   20.7719 C   0  0  0  0  0  0  0  0  0  0  0  0
  -22.3605   -8.2781   21.2094 C   0  0  0  0  0  0  0  0  0  0  0  0
  -27.1234  -26.0046   20.1234 C   0  0  0  0  0  0  0  0  0  0  0  0
  -21.5961   -6.4243   22.4348 C   0  0  0  0  0  0  0  0  0  0  0  0
  -21.7499   -4.8391   24.7252 C   0  0  0  0  0  0  0  0  0  0  0  0
  -20.4785   -6.2750   23.2559 C   0  0  0  0  0  0  0  0  0  0  0  0
  -24.9699  -11.5969   20.9353 C   0  0  0  0  0  0  0  0  0  0  0  0
  -26.7249  -12.9207   20.9864 C   0  0  0  0  0  0  0  0  0  0  0  0
  -25.6072  -19.7106   21.2168 C   0  0  0  0  0  0  0  0  0  0  0  0
  -26.6540  -20.3834   20.7346 C   0  0  0  0  0  0  0  0  0  0  0  0
  -27.2009  -10.5742   21.7047 C   0  0  0  0  0  0  0  0  0  0  0  0
  -25.8057  -18.2999   21.6059 C   0  0  0  0  0  0  0  0  0  0  0  0
  -25.9068  -31.1708   21.2608 C   0  0  0  0  0  0  0  0  0  0  0  0
  -22.9277  -30.1813   22.0781 C   0  0  0  0  0  0  0  0  0  0  0  0
  -20.7345  -27.5931   22.4490 C   0  0  0  0  0  0  0  0  0  0  0  0
  -25.7140  -35.8032   23.3966 C   0  0  0  0  0  0  0  0  0  0  0  0
  -25.2668  -29.7886   19.2519 C   0  0  0  0  0  0  0  0  0  0  0  0
  -24.6733  -28.3834   21.7853 C   0  0  0  0  0  0  0  0  0  0  0  0
  -25.3261  -34.3888   23.8199 C   0  0  0  0  0  0  0  0  0  0  0  0
  -24.2961  -16.6905   18.6798 C   0  0  0  0  0  0  0  0  0  0  0  0
  -26.4694  -33.4170   23.5456 C   0  0  0  0  0  0  0  0  0  0  0  0
  -24.4115  -15.2174   19.0627 C   0  0  0  0  0  0  0  0  0  0  0  0
  -24.0509  -17.5802   19.8975 C   0  0  0  0  0  0  0  0  0  0  0  0
  -25.1784  -15.9294   21.3616 C   0  0  0  0  0  0  0  0  0  0  0  0
  -26.7955  -33.3573   22.0484 C   0  0  1  0  0  0  0  0  0  0  0  0
  -24.7835  -30.5362   20.4908 C   0  0  1  0  0  0  0  0  0  0  0  0
  -25.4722  -15.0211   20.1574 C   0  0  1  0  0  0  0  0  0  0  0  0
  -18.3839  -27.0908   23.1699 C   0  0  0  0  0  0  0  0  0  0  0  0
  -23.7555  -30.5083   24.9967 C   0  0  0  0  0  0  0  0  0  0  0  0
  -21.7718  -29.1238   25.6419 C   0  0  0  0  0  0  0  0  0  0  0  0
  -21.4428  -31.3028   24.4730 C   0  0  0  0  0  0  0  0  0  0  0  0
  -20.0228  -26.5209   19.7838 C   0  0  0  0  0  0  0  0  0  0  0  0
  -28.0308  -23.9739   19.2815 C   0  0  0  0  0  0  0  0  0  1  0  0
  -28.0064  -22.5216   19.7134 C   0  0  0  0  0  0  0  0  0  0  0  0
  -22.3497  -29.3279   23.1811 C   0  0  1  0  0  0  0  0  0  0  0  0
  -19.2955  -27.4197   21.9979 C   0  0  2  0  0  0  0  0  0  0  0  0
  -22.3495  -30.0555   24.5551 C   0  0  0  0  0  0  0  0  0  0  0  0
  -24.5082  -12.7805   20.5232 N   0  0  0  0  0  0  0  0  0  0  0  0
  -25.5988  -13.5647   20.5651 N   0  0  0  0  0  0  0  0  0  0  0  0
  -25.0435  -17.3323   20.9539 N   0  0  0  0  0  0  0  0  0  0  0  0
  -24.0595  -29.6724   21.4256 N   0  0  0  0  0  0  0  0  0  0  0  0
  -27.9094  -13.5604   21.0867 N   0  0  0  0  0  0  0  0  0  0  0  0
  -26.6474   -9.3031   21.9107 N   0  0  0  0  0  0  0  0  0  0  0  0
  -25.8203  -32.5470   21.3507 N   0  0  0  0  0  0  0  0  0  0  0  0
  -21.0279  -28.9118   22.7251 N   0  0  0  0  0  0  0  0  0  0  0  0
  -19.1946  -26.3172   21.0002 N   0  3  0  0  0  0  0  0  0  0  0  0
  -28.4172  -10.7609   21.9479 O   0  0  0  0  0  0  0  0  0  0  0  0
  -26.6320  -18.0647   22.4894 O   0  0  0  0  0  0  0  0  0  0  0  0
  -26.7862  -30.4641   21.7394 O   0  0  0  0  0  0  0  0  0  0  0  0
  -22.3904  -31.2565   21.8008 O   0  0  0  0  0  0  0  0  0  0  0  0
  -21.5188  -26.6522   22.5501 O   0  0  0  0  0  0  0  0  0  0  0  0
  -25.5062  -22.0749   19.1405 O   0  0  0  0  0  0  0  0  0  0  0  0
  -26.1111  -22.8075   21.4753 O   0  0  0  0  0  0  0  0  0  0  0  0
  -21.5212   -7.2102   21.2971 O   0  0  0  0  0  0  0  0  0  0  0  0
  -27.7073  -24.8057   20.3949 O   0  0  0  0  0  0  0  0  0  1  0  0
  -21.8235   -4.0767   25.8240 F   0  0  0  0  0  0  0  0  0  0  0  0
  -19.3279   -6.8896   22.9491 F   0  0  0  0  0  0  0  0  0  0  0  0
  -26.4057  -22.0348   20.2808 S   0  0  0  0  0  0  0  0  0  0  0  0
  1  2  1  0  0  0  0
  1  5  2  0  0  0  0
  2  6  2  0  0  0  0
  3  8  2  0  0  0  0
  3 15  1  0  0  0  0
  4  9  1  0  0  0  0
  4 15  2  0  0  0  0
  5 17  1  0  0  0  0
  6 19  1  0  0  0  0
  7 10  2  0  0  0  0
  7 18  1  0  0  0  0
  8 21  1  0  0  0  0
  9 21  2  0  0  0  0
 10 22  1  0  0  0  0
 11 12  2  0  0  0  0
 11 23  1  0  0  0  0
 12 24  1  0  0  0  0
 13 20  1  0  0  0  0
 13 22  2  0  0  0  0
 14 24  2  0  0  0  0
 14 25  1  0  0  0  0
 15 26  1  0  0  0  0
 16 26  1  0  0  0  0
 16 27  2  0  0  0  0
 16 30  1  0  0  0  0
 17 19  2  0  0  0  0
 17 35  1  0  0  0  0
 18 20  2  0  0  0  0
 18 36  1  0  0  0  0
 19 44  1  0  0  0  0
 20 37  1  0  0  0  0
 21 73  1  0  0  0  0
 22 74  1  0  0  0  0
 23 25  2  0  0  0  0
 23 73  1  0  0  0  0
 24 75  1  0  0  0  0
 25 76  1  0  0  0  0
 26 57  2  0  0  0  0
 27 58  1  0  0  0  0
 27 61  1  0  0  0  0
 28 29  2  0  0  0  0
 28 31  1  0  0  0  0
 29 77  1  0  0  0  0
 30 62  1  0  0  0  0
 30 66  2  0  0  0  0
 31 59  1  0  0  0  0
 31 67  2  0  0  0  0
 32 45  1  0  0  0  0
 32 63  1  0  0  0  0
 32 68  2  0  0  0  0
 33 54  1  0  0  0  0
 33 60  1  0  0  0  0
 33 69  2  0  0  0  0
 34 55  1  0  0  0  0
 34 64  1  0  0  0  0
 34 70  2  0  0  0  0
 35 38  1  0  0  0  0
 36 45  1  0  0  0  0
 37 60  1  0  0  0  0
 38 40  1  0  0  0  0
 39 41  1  0  0  0  0
 39 42  1  0  0  0  0
 40 44  1  0  0  0  0
 41 46  1  0  0  0  0
 42 59  1  0  0  0  0
 43 46  1  0  0  0  0
 43 59  1  0  0  0  0
 44 63  1  0  0  0  0
 45 60  1  0  0  0  0
 46 58  1  0  0  0  0
 47 55  1  0  0  0  0
 48 56  1  0  0  0  0
 49 56  1  0  0  0  0
 50 56  1  0  0  0  0
 51 65  1  0  0  0  0
 52 53  1  0  0  0  0
 52 74  1  0  0  0  0
 53 77  1  0  0  0  0
 54 56  1  0  0  0  0
 54 64  1  0  0  0  0
 55 65  1  0  0  0  0
 57 58  1  0  0  0  0
 71 77  2  0  0  0  0
 72 77  2  0  0  0  0
M  CHG  1  65   1
M  ISO  4  28 100  31 100  52 101  74 101
M  END
> <Batch ID>
0067

> <Smiles>
CNC(C)C(=O)NC(C(=O)N1Cc2cc([101O:1][101CH2:1]CS(=O)(=O)C=[100CH:0][100C:0](=O)N3CCCC(n4nc(-c5ccc(Oc6ccc(F)cc6F)cc5)c(C(N)=O)c4N)C3)ccc2CC1C(=O)NC1CCCc2ccccc21)C(C)(C)C

> <Shape>
0.287

> <Color>
0.099

> <Negative vol penalty>
0.000

$$$$

  -OEChem-04042323243D

 90 99  0     1  0  0  0  0  0999 V2000
  -20.3043  -34.6494   22.0211 C   0  0  0  0  0  0  0  0  0  0  0  0
  -21.5656  -34.1509   21.7109 C   0  0  0  0  0  0  0  0  0  0  0  0
  -26.6445  -11.9169   21.0138 C   0  0  0  0  0  0  0  0  0  0  0  0
  -25.5091  -13.3465   19.4314 C   0  0  0  0  0  0  0  0  0  0  0  0
  -19.4307  -33.8948   22.8029 C   0  0  0  0  0  0  0  0  0  0  0  0
  -21.9543  -32.8978   22.1834 C   0  0  0  0  0  0  0  0  0  0  0  0
  -25.5234  -28.8281   19.3189 C   0  0  0  0  0  0  0  0  0  0  0  0
  -25.4135  -11.4993   21.5198 C   0  0  0  0  0  0  0  0  0  0  0  0
  -24.2782  -12.9289   19.9373 C   0  0  0  0  0  0  0  0  0  0  0  0
  -26.8800  -28.5270   19.4316 C   0  0  0  0  0  0  0  0  0  0  0  0
  -22.9631   -9.3405   20.6435 C   0  0  0  0  0  0  0  0  0  0  0  0
  -22.7845   -7.9758   20.8697 C   0  0  0  0  0  0  0  0  0  0  0  0
  -25.8455  -22.4183   14.1819 C   0  0  0  0  0  0  0  0  0  0  0  0
  -25.0333  -21.5368   14.9371 C   0  0  0  0  0  0  0  0  0  0  0  0
  -28.2675  -23.0337   17.6999 C   0  0  0  0  0  0  0  0  0  0  0  0
  -29.8300  -21.7704   19.0413 C   0  0  0  0  0  0  0  0  0  0  0  0
  -26.3480  -26.7239   20.9433 C   0  0  0  0  0  0  0  0  0  0  0  0
  -28.4664  -20.6454   17.3945 C   0  0  0  0  0  0  0  0  0  0  0  0
  -22.3839   -8.4163   23.2112 C   0  0  0  0  0  0  0  0  0  0  0  0
  -26.6923  -12.8405   19.9697 C   0  0  0  0  0  0  0  0  0  0  0  0
  -29.2428  -22.9876   18.6960 C   0  0  0  0  0  0  0  0  0  0  0  0
  -28.6933  -12.6878   18.3948 C   0  0  0  0  0  0  0  0  0  0  0  0
  -19.8053  -32.6277   23.2771 C   0  0  0  0  0  0  0  0  0  0  0  0
  -24.5681  -28.0851   20.0273 C   0  0  0  0  0  0  0  0  0  0  0  0
  -21.0854  -32.1262   22.9734 C   0  0  0  0  0  0  0  0  0  0  0  0
  -24.9797  -27.0160   20.8358 C   0  0  0  0  0  0  0  0  0  0  0  0
  -27.8792  -21.8626   17.0492 C   0  0  0  0  0  0  0  0  0  0  0  0
  -29.4418  -20.5992   18.3905 C   0  0  0  0  0  0  0  0  0  0  0  0
  -24.2304  -12.0053   20.9815 C   0  0  0  0  0  0  0  0  0  0  0  0
  -27.2927  -27.4766   20.2462 C   0  0  0  0  0  0  0  0  0  0  0  0
  -22.8522  -10.2432   21.7011 C   0  0  0  0  0  0  0  0  0  0  0  0
  -22.4949   -7.5137   22.1535 C   0  0  0  0  0  0  0  0  0  0  0  0
  -22.5625   -9.7811   22.9849 C   0  0  0  0  0  0  0  0  0  0  0  0
  -27.9636  -13.2727   19.4470 C   0  0  0  0  0  0  0  0  0  0  0  0
  -29.8210  -13.4642   18.2859 C   0  0  0  0  0  0  0  0  0  0  0  0
  -27.0010  -22.6307   14.9009 C   0  0  0  0  0  0  0  0  0  0  0  0
  -25.7172  -21.2375   16.0948 C   0  0  0  0  0  0  0  0  0  0  0  0
  -29.6536  -24.2275   19.3849 C   0  0  0  0  0  0  0  0  0  0  0  0
  -28.3798  -11.5448   17.5879 C   0  0  0  0  0  0  0  0  0  0  0  0
  -22.4228  -28.7531   22.2756 C   0  0  0  0  0  0  0  0  0  0  0  0
  -21.5264  -25.6743   21.7863 C   0  0  0  0  0  0  0  0  0  0  0  0
  -22.3716  -22.5460   20.7157 C   0  0  0  0  0  0  0  0  0  0  0  0
  -31.0203  -19.1428   19.7072 C   0  0  0  0  0  0  0  0  0  0  0  0
  -18.8446  -31.8692   24.1583 C   0  0  0  0  0  0  0  0  0  0  0  0
  -23.1065  -28.4056   19.8740 C   0  0  0  0  0  0  0  0  0  0  0  0
  -23.9924  -26.1747   21.6013 C   0  0  0  0  0  0  0  0  0  0  0  0
  -19.1925  -30.3903   24.3070 C   0  0  0  0  0  0  0  0  0  0  0  0
  -32.7179  -16.2467   20.8936 C   0  0  0  0  0  0  0  0  0  0  0  0
  -20.6798  -30.2184   24.5988 C   0  0  0  0  0  0  0  0  0  0  0  0
  -31.7605  -15.1015   20.5560 C   0  0  0  0  0  0  0  0  0  0  0  0
  -31.9669  -17.5067   21.3203 C   0  0  0  0  0  0  0  0  0  0  0  0
  -29.9763  -16.8164   20.0436 C   0  0  0  0  0  0  0  0  0  0  0  0
  -21.5343  -30.7606   23.4467 C   0  0  1  0  0  0  0  0  0  0  0  0
  -22.2604  -27.9099   21.0427 C   0  0  1  0  0  0  0  0  0  0  0  0
  -30.6844  -15.5458   19.5459 C   0  0  2  0  0  0  0  0  0  0  0  0
  -22.0611  -20.1344   20.0947 C   0  0  0  0  0  0  0  0  0  0  0  0
  -31.7670  -27.0105   18.3694 C   0  0  0  0  0  0  0  0  0  0  0  0
  -21.8416  -25.2366   24.7895 C   0  0  0  0  0  0  0  0  0  0  0  0
  -21.8385  -22.7701   24.3598 C   0  0  0  0  0  0  0  0  0  0  0  0
  -19.8345  -24.1378   23.7800 C   0  0  0  0  0  0  0  0  0  0  0  0
  -21.6365  -23.2368   17.9334 C   0  0  0  0  0  0  0  0  0  0  0  0
  -29.4425  -27.4612   19.2292 C   0  0  0  0  0  0  0  0  0  1  0  0
  -21.9232  -24.3397   22.3698 C   0  0  1  0  0  0  0  0  0  0  0  0
  -21.6616  -21.5707   19.7941 C   0  0  2  0  0  0  0  0  0  0  0  0
  -30.6187  -26.4942   19.2206 C   0  0  1  0  0  0  0  0  0  0  0  0
  -21.3784  -24.1379   23.8120 C   0  0  0  0  0  0  0  0  0  0  0  0
  -28.5763  -14.3384   19.9694 N   0  0  0  0  0  0  0  0  0  0  0  0
  -26.9118  -21.9082   16.0621 N   0  0  0  0  0  0  0  0  0  0  0  0
  -29.7030  -14.4292   19.2425 N   0  0  0  0  0  0  0  0  0  0  0  0
  -22.5751  -26.5314   21.4237 N   0  0  0  0  0  0  0  0  0  0  0  0
  -30.9673  -17.8698   20.3134 N   0  0  0  0  0  0  0  0  0  0  0  0
  -30.8922  -13.4088   17.4662 N   0  0  0  0  0  0  0  0  0  0  0  0
  -29.4855  -24.2976   20.7054 N   0  0  0  0  0  0  0  0  0  0  0  0
  -27.1803  -10.8626   17.8331 N   0  0  0  0  0  0  0  0  0  0  0  0
  -30.0385  -19.3630   18.7417 N   0  0  0  0  0  0  0  0  0  0  0  0
  -21.5506  -29.8227   22.3446 N   0  0  0  0  0  0  0  0  0  0  0  0
  -21.4786  -23.3289   21.4163 N   0  0  0  0  0  0  0  0  0  0  0  0
  -30.1702  -25.2157   18.6499 N   0  3  0  0  0  0  0  0  0  0  0  0
  -21.9972  -21.8640   18.3720 N   0  3  0  0  0  0  0  0  0  0  0  0
  -29.1485  -11.1308   16.6872 O   0  0  0  0  0  0  0  0  0  0  0  0
  -23.2753  -28.4546   23.1038 O   0  0  0  0  0  0  0  0  0  0  0  0
  -20.3303  -25.9434   21.6505 O   0  0  0  0  0  0  0  0  0  0  0  0
  -23.5957  -22.6046   20.8079 O   0  0  0  0  0  0  0  0  0  0  0  0
  -31.8903  -19.9663   20.0020 O   0  0  0  0  0  0  0  0  0  0  0  0
  -28.0651  -23.3733   14.6207 O   0  0  0  0  0  0  0  0  0  0  0  0
  -25.3804  -20.4604   17.1171 O   0  0  0  0  0  0  0  0  0  0  0  0
  -23.0290  -11.5978   21.4747 O   0  0  0  0  0  0  0  0  0  0  0  0
  -28.6163  -27.1810   20.3585 O   0  0  0  0  0  0  0  0  0  1  0  0
  -22.3218   -6.2032   22.3704 F   0  0  0  0  0  0  0  0  0  0  0  0
  -22.4536  -10.6436   24.0048 F   0  0  0  0  0  0  0  0  0  0  0  0
  1  2  1  0  0  0  0
  1  5  2  0  0  0  0
  2  6  2  0  0  0  0
  3  8  2  0  0  0  0
  3 20  1  0  0  0  0
  4  9  1  0  0  0  0
  4 20  2  0  0  0  0
  5 23  1  0  0  0  0
  6 25  1  0  0  0  0
  7 10  2  0  0  0  0
  7 24  1  0  0  0  0
  8 29  1  0  0  0  0
  9 29  2  0  0  0  0
 10 30  1  0  0  0  0
 11 12  2  0  0  0  0
 11 31  1  0  0  0  0
 12 32  1  0  0  0  0
 13 14  1  0  0  0  0
 13 36  2  0  0  0  0
 14 37  2  0  0  0  0
 15 21  2  0  0  0  0
 15 27  1  0  0  0  0
 16 21  1  0  0  0  0
 16 28  2  0  0  0  0
 17 26  1  0  0  0  0
 17 30  2  0  0  0  0
 18 27  2  0  0  0  0
 18 28  1  0  0  0  0
 19 32  2  0  0  0  0
 19 33  1  0  0  0  0
 20 34  1  0  0  0  0
 21 38  1  0  0  0  0
 22 34  1  0  0  0  0
 22 35  2  0  0  0  0
 22 39  1  0  0  0  0
 23 25  2  0  0  0  0
 23 44  1  0  0  0  0
 24 26  2  0  0  0  0
 24 45  1  0  0  0  0
 25 53  1  0  0  0  0
 26 46  1  0  0  0  0
 27 68  1  0  0  0  0
 28 75  1  0  0  0  0
 29 87  1  0  0  0  0
 30 88  1  0  0  0  0
 31 33  2  0  0  0  0
 31 87  1  0  0  0  0
 32 89  1  0  0  0  0
 33 90  1  0  0  0  0
 34 67  2  0  0  0  0
 35 69  1  0  0  0  0
 35 72  1  0  0  0  0
 36 68  1  0  0  0  0
 36 85  1  0  0  0  0
 37 68  1  0  0  0  0
 37 86  1  0  0  0  0
 38 73  1  0  0  0  0
 38 78  2  0  0  0  0
 39 74  1  0  0  0  0
 39 80  2  0  0  0  0
 40 54  1  0  0  0  0
 40 76  1  0  0  0  0
 40 81  2  0  0  0  0
 41 63  1  0  0  0  0
 41 70  1  0  0  0  0
 41 82  2  0  0  0  0
 42 64  1  0  0  0  0
 42 77  1  0  0  0  0
 42 83  2  0  0  0  0
 43 71  1  0  0  0  0
 43 75  1  0  0  0  0
 43 84  2  0  0  0  0
 44 47  1  0  0  0  0
 45 54  1  0  0  0  0
 46 70  1  0  0  0  0
 47 49  1  0  0  0  0
 48 50  1  0  0  0  0
 48 51  1  0  0  0  0
 49 53  1  0  0  0  0
 50 55  1  0  0  0  0
 51 71  1  0  0  0  0
 52 55  1  0  0  0  0
 52 71  1  0  0  0  0
 53 76  1  0  0  0  0
 54 70  1  0  0  0  0
 55 69  1  0  0  0  0
 56 64  1  0  0  0  0
 57 65  1  0  0  0  0
 58 66  1  0  0  0  0
 59 66  1  0  0  0  0
 60 66  1  0  0  0  0
 61 79  1  0  0  0  0
 62 65  1  0  0  0  0
 62 88  1  0  0  0  0
 63 66  1  0  0  0  0
 63 77  1  0  0  0  0
 64 79  1  0  0  0  0
 65 78  1  0  0  0  0
 67 69  1  0  0  0  0
M  CHG  2  78   1  79   1
M  ISO  4  43 100  62 101  75 100  88 101
M  END
> <Batch ID>
0067

> <Smiles>
CNC(C)C(=O)NC(C(=O)N1Cc2cc([101O:1][101CH2:1]C(C)NC(=N)c3cc([100NH:0][100C:0](=O)N4CCCC(n5nc(-c6ccc(Oc7ccc(F)cc7F)cc6)c(C(N)=O)c5N)C4)cc(N4C(=O)CCC4=O)c3)ccc2CC1C(=O)NC1CCCc2ccccc21)C(C)(C)C

> <Shape>
0.257

> <Color>
0.083

> <Negative vol penalty>
0.000

$$$$

  -OEChem-04042323243D

 83 91  0     1  0  0  0  0  0999 V2000
  -17.9933  -25.2503   21.8439 C   0  0  0  0  0  0  0  0  0  0  0  0
  -19.2625  -24.7817   22.1678 C   0  0  0  0  0  0  0  0  0  0  0  0
  -23.8215   -9.8878   21.6507 C   0  0  0  0  0  0  0  0  0  0  0  0
  -24.3997  -11.0310   23.6991 C   0  0  0  0  0  0  0  0  0  0  0  0
  -17.8437  -26.5069   21.2585 C   0  0  0  0  0  0  0  0  0  0  0  0
  -20.3831  -25.5690   21.9055 C   0  0  0  0  0  0  0  0  0  0  0  0
  -25.5029  -25.9157   25.2481 C   0  0  0  0  0  0  0  0  0  0  0  0
  -31.4184  -20.1023   21.3150 C   0  0  0  0  0  0  0  0  0  0  0  0
  -31.0814  -18.8158   20.8944 C   0  0  0  0  0  0  0  0  0  0  0  0
  -23.3059   -8.8235   22.3902 C   0  0  0  0  0  0  0  0  0  0  0  0
  -23.8840   -9.9666   24.4386 C   0  0  0  0  0  0  0  0  0  0  0  0
  -26.7520  -25.3106   25.1161 C   0  0  0  0  0  0  0  0  0  0  0  0
  -20.4791   -8.1221   24.1079 C   0  0  0  0  0  0  0  0  0  0  0  0
  -19.2454   -7.6002   23.7192 C   0  0  0  0  0  0  0  0  0  0  0  0
  -27.5764  -27.2735   23.9818 C   0  0  0  0  0  0  0  0  0  0  0  0
  -29.0742  -20.6462   21.5296 C   0  0  0  0  0  0  0  0  0  0  0  0
  -20.2728   -5.4444   23.3529 C   0  0  0  0  0  0  0  0  0  0  0  0
  -24.3686  -10.9916   22.3052 C   0  0  0  0  0  0  0  0  0  0  0  0
  -24.2093  -13.2341   21.0997 C   0  0  0  0  0  0  0  0  0  0  0  0
  -18.9623  -27.3140   20.9977 C   0  0  0  0  0  0  0  0  0  0  0  0
  -25.2777  -27.2021   24.7373 C   0  0  0  0  0  0  0  0  0  0  0  0
  -20.2485  -26.8370   21.3148 C   0  0  0  0  0  0  0  0  0  0  0  0
  -26.3242  -27.8937   24.1108 C   0  0  0  0  0  0  0  0  0  0  0  0
  -30.4148  -21.0175   21.6327 C   0  0  0  0  0  0  0  0  0  0  0  0
  -29.7408  -18.4445   20.7913 C   0  0  0  0  0  0  0  0  0  0  0  0
  -23.3371   -8.8629   23.7842 C   0  0  0  0  0  0  0  0  0  0  0  0
  -27.7882  -25.9884   24.4803 C   0  0  0  0  0  0  0  0  0  0  0  0
  -21.6097   -7.3052   24.1191 C   0  0  0  0  0  0  0  0  0  0  0  0
  -19.1422   -6.2614   23.3417 C   0  0  0  0  0  0  0  0  0  0  0  0
  -28.7372  -19.3597   21.1089 C   0  0  0  0  0  0  0  0  0  0  0  0
  -21.5065   -5.9664   23.7416 C   0  0  0  0  0  0  0  0  0  0  0  0
  -24.9019  -12.0911   21.5418 C   0  0  0  0  0  0  0  0  0  0  0  0
  -25.1537  -13.9681   20.4245 C   0  0  0  0  0  0  0  0  0  0  0  0
  -22.8351  -13.5998   21.2829 C   0  0  0  0  0  0  0  0  0  0  0  0
  -23.3525  -28.4330   22.5278 C   0  0  0  0  0  0  0  0  0  0  0  0
  -24.5538  -31.2463   23.6068 C   0  0  0  0  0  0  0  0  0  0  0  0
  -29.8906  -23.3543   22.4128 C   0  0  0  0  0  0  0  0  0  0  0  0
  -27.0962  -32.9018   25.1695 C   0  0  0  0  0  0  0  0  0  0  0  0
  -30.2765  -16.1102   20.0100 C   0  0  0  0  0  0  0  0  0  0  0  0
  -18.7547  -28.6454   20.3203 C   0  0  0  0  0  0  0  0  0  0  0  0
  -23.9322  -27.8515   24.9114 C   0  0  0  0  0  0  0  0  0  0  0  0
  -26.1397  -29.2846   23.5632 C   0  0  0  0  0  0  0  0  0  0  0  0
  -19.9625  -29.5737   20.4186 C   0  0  0  0  0  0  0  0  0  0  0  0
  -29.8355  -12.7429   18.9405 C   0  0  0  0  0  0  0  0  0  0  0  0
  -21.2445  -28.8194   20.0805 C   0  0  0  0  0  0  0  0  0  0  0  0
  -28.4556  -12.3671   19.4856 C   0  0  0  0  0  0  0  0  0  0  0  0
  -30.5990  -13.6485   19.9052 C   0  0  0  0  0  0  0  0  0  0  0  0
  -28.4927  -14.4743   20.8804 C   0  0  0  0  0  0  0  0  0  0  0  0
  -21.4864  -27.6719   21.0685 C   0  0  1  0  0  0  0  0  0  0  0  0
  -23.6688  -28.9613   23.8983 C   0  0  1  0  0  0  0  0  0  0  0  0
  -27.6601  -13.6156   19.9145 C   0  0  2  0  0  0  0  0  0  0  0  0
  -27.8105  -35.2026   25.8719 C   0  0  0  0  0  0  0  0  0  0  0  0
  -25.2836  -31.8992   20.7170 C   0  0  0  0  0  0  0  0  0  0  0  0
  -26.7980  -33.6970   21.5789 C   0  0  0  0  0  0  0  0  0  0  0  0
  -24.3450  -33.8196   22.0153 C   0  0  0  0  0  0  0  0  0  0  0  0
  -27.1536  -32.1375   28.0281 C   0  0  0  0  0  0  0  0  0  0  0  0
  -30.6769  -24.5979   22.8118 C   0  0  0  0  0  0  0  0  0  0  0  0
  -29.7869  -25.7651   23.2110 C   0  0  0  0  0  0  0  0  0  1  0  0
  -25.7395  -32.1097   23.2495 C   0  0  1  0  0  0  0  0  0  0  0  0
  -27.0925  -33.9282   26.2879 C   0  0  2  0  0  0  0  0  0  0  0  0
  -25.5448  -32.8544   21.8987 C   0  0  0  0  0  0  0  0  0  0  0  0
  -26.1871  -12.0940   21.1780 N   0  0  0  0  0  0  0  0  0  0  0  0
  -26.3095  -13.2479   20.5000 N   0  0  0  0  0  0  0  0  0  0  0  0
  -24.8042  -29.8745   23.7524 N   0  0  0  0  0  0  0  0  0  0  0  0
  -29.7853  -14.8121   20.2640 N   0  0  0  0  0  0  0  0  0  0  0  0
  -25.1000  -15.1527   19.7794 N   0  0  0  0  0  0  0  0  0  0  0  0
  -22.0027  -12.7311   22.0018 N   0  0  0  0  0  0  0  0  0  0  0  0
  -30.7565  -22.3230   22.0589 N   0  0  0  0  0  0  0  0  0  0  0  0
  -29.4016  -17.1371   20.3631 N   0  0  0  0  0  0  0  0  0  0  0  0
  -22.0099  -28.1823   22.3175 N   0  0  0  0  0  0  0  0  0  0  0  0
  -25.9617  -32.9907   24.3910 N   0  0  0  0  0  0  0  0  0  0  0  0
  -27.7706  -33.3799   27.4964 N   0  3  0  0  0  0  0  0  0  0  0  0
  -22.3555  -14.6575   20.8088 O   0  0  0  0  0  0  0  0  0  0  0  0
  -24.2591  -28.2665   21.7203 O   0  0  0  0  0  0  0  0  0  0  0  0
  -23.4476  -31.7708   23.7583 O   0  0  0  0  0  0  0  0  0  0  0  0
  -28.6644  -23.3265   22.4216 O   0  0  0  0  0  0  0  0  0  0  0  0
  -28.0155  -32.1037   25.0009 O   0  0  0  0  0  0  0  0  0  0  0  0
  -31.3799  -16.2964   19.4905 O   0  0  0  0  0  0  0  0  0  0  0  0
  -22.8337   -7.8246   24.5061 O   0  0  0  0  0  0  0  0  0  0  0  0
  -29.0082  -25.3998   24.3496 O   0  0  0  0  0  0  0  0  0  1  0  0
  -17.9571   -5.7600   22.9698 F   0  0  0  0  0  0  0  0  0  0  0  0
  -27.4453  -19.0144   21.0120 F   0  0  0  0  0  0  0  0  0  0  0  0
  -22.5890   -5.1764   23.7515 F   0  0  0  0  0  0  0  0  0  0  0  0
  1  2  1  0  0  0  0
  1  5  2  0  0  0  0
  2  6  2  0  0  0  0
  3 10  2  0  0  0  0
  3 18  1  0  0  0  0
  4 11  1  0  0  0  0
  4 18  2  0  0  0  0
  5 20  1  0  0  0  0
  6 22  1  0  0  0  0
  7 12  2  0  0  0  0
  7 21  1  0  0  0  0
  8  9  2  0  0  0  0
  8 24  1  0  0  0  0
  9 25  1  0  0  0  0
 10 26  1  0  0  0  0
 11 26  2  0  0  0  0
 12 27  1  0  0  0  0
 13 14  2  0  0  0  0
 13 28  1  0  0  0  0
 14 29  1  0  0  0  0
 15 23  1  0  0  0  0
 15 27  2  0  0  0  0
 16 24  2  0  0  0  0
 16 30  1  0  0  0  0
 17 29  2  0  0  0  0
 17 31  1  0  0  0  0
 18 32  1  0  0  0  0
 19 32  1  0  0  0  0
 19 33  2  0  0  0  0
 19 34  1  0  0  0  0
 20 22  2  0  0  0  0
 20 40  1  0  0  0  0
 21 23  2  0  0  0  0
 21 41  1  0  0  0  0
 22 49  1  0  0  0  0
 23 42  1  0  0  0  0
 24 68  1  0  0  0  0
 25 30  2  0  0  0  0
 25 69  1  0  0  0  0
 26 79  1  0  0  0  0
 27 80  1  0  0  0  0
 28 31  2  0  0  0  0
 28 79  1  0  0  0  0
 29 81  1  0  0  0  0
 30 82  1  0  0  0  0
 31 83  1  0  0  0  0
 32 62  2  0  0  0  0
 33 63  1  0  0  0  0
 33 66  1  0  0  0  0
 34 67  1  0  0  0  0
 34 73  2  0  0  0  0
 35 50  1  0  0  0  0
 35 70  1  0  0  0  0
 35 74  2  0  0  0  0
 36 59  1  0  0  0  0
 36 64  1  0  0  0  0
 36 75  2  0  0  0  0
 37 57  1  0  0  0  0
 37 68  1  0  0  0  0
 37 76  2  0  0  0  0
 38 60  1  0  0  0  0
 38 71  1  0  0  0  0
 38 77  2  0  0  0  0
 39 65  1  0  0  0  0
 39 69  1  0  0  0  0
 39 78  2  0  0  0  0
 40 43  1  0  0  0  0
 41 50  1  0  0  0  0
 42 64  1  0  0  0  0
 43 45  1  0  0  0  0
 44 46  1  0  0  0  0
 44 47  1  0  0  0  0
 45 49  1  0  0  0  0
 46 51  1  0  0  0  0
 47 65  1  0  0  0  0
 48 51  1  0  0  0  0
 48 65  1  0  0  0  0
 49 70  1  0  0  0  0
 50 64  1  0  0  0  0
 51 63  1  0  0  0  0
 52 60  1  0  0  0  0
 53 61  1  0  0  0  0
 54 61  1  0  0  0  0
 55 61  1  0  0  0  0
 56 72  1  0  0  0  0
 57 58  1  0  0  0  0
 58 80  1  0  0  0  0
 59 61  1  0  0  0  0
 59 71  1  0  0  0  0
 60 72  1  0  0  0  0
 62 63  1  0  0  0  0
M  CHG  1  72   1
M  ISO  4  39 100  58 101  69 100  80 101
M  END
> <Batch ID>
0067

> <Smiles>
CNC(C)C(=O)NC(C(=O)N1Cc2cc([101O:1][101CH2:1]CC(=O)Nc3ccc([100NH:0][100C:0](=O)N4CCCC(n5nc(-c6ccc(Oc7ccc(F)cc7F)cc6)c(C(N)=O)c5N)C4)c(F)c3)ccc2CC1C(=O)NC1CCCc2ccccc21)C(C)(C)C

> <Shape>
0.285

> <Color>
0.134

> <Negative vol penalty>
0.000

$$$$

  -OEChem-04042323243D

 86 95  0     1  0  0  0  0  0999 V2000
  -30.7635  -23.9095   25.4141 C   0  0  0  0  0  0  0  0  0  0  0  0
  -29.5054  -23.9030   24.8203 C   0  0  0  0  0  0  0  0  0  0  0  0
  -28.4788  -26.0073   19.9683 C   0  0  0  0  0  0  0  0  0  0  0  0
  -26.4127  -25.1527   19.0529 C   0  0  0  0  0  0  0  0  0  0  0  0
  -31.7370  -23.0050   24.9922 C   0  0  0  0  0  0  0  0  0  0  0  0
  -29.2205  -22.9925   23.8033 C   0  0  0  0  0  0  0  0  0  0  0  0
  -24.7010  -20.7830   24.3839 C   0  0  0  0  0  0  0  0  0  0  0  0
  -29.1272  -24.8263   19.6075 C   0  0  0  0  0  0  0  0  0  0  0  0
  -27.0611  -23.9716   18.6920 C   0  0  0  0  0  0  0  0  0  0  0  0
  -23.5779  -21.5262   24.0234 C   0  0  0  0  0  0  0  0  0  0  0  0
  -29.1135  -22.9125   16.2249 C   0  0  0  0  0  0  0  0  0  0  0  0
  -28.8678  -22.4037   14.9497 C   0  0  0  0  0  0  0  0  0  0  0  0
  -23.4748  -20.3411   21.9248 C   0  0  0  0  0  0  0  0  0  0  0  0
  -17.5890  -27.5040   22.2764 C   0  0  0  0  0  0  0  0  0  0  0  0
  -28.0092  -20.3680   15.9273 C   0  0  0  0  0  0  0  0  0  0  0  0
  -17.8732  -29.7930   22.9954 C   0  0  0  0  0  0  0  0  0  0  0  0
  -27.1215  -26.1706   19.6911 C   0  0  0  0  0  0  0  0  0  0  0  0
  -26.3126  -28.5560   19.2873 C   0  0  0  0  0  0  0  0  0  0  0  0
  -31.4607  -22.0766   23.9761 C   0  0  0  0  0  0  0  0  0  0  0  0
  -25.2268  -19.8192   23.5116 C   0  0  0  0  0  0  0  0  0  0  0  0
  -30.1916  -22.0756   23.3664 C   0  0  0  0  0  0  0  0  0  0  0  0
  -24.6031  -19.5852   22.2777 C   0  0  0  0  0  0  0  0  0  0  0  0
  -18.9043  -27.2243   22.6470 C   0  0  0  0  0  0  0  0  0  0  0  0
  -19.7040  -28.2288   23.1919 C   0  0  0  0  0  0  0  0  0  0  0  0
  -28.4184  -23.8084   18.9693 C   0  0  0  0  0  0  0  0  0  0  0  0
  -22.9663  -21.3073   22.7924 C   0  0  0  0  0  0  0  0  0  0  0  0
  -28.8071  -22.1490   17.3514 C   0  0  0  0  0  0  0  0  0  0  0  0
  -28.3156  -21.1314   14.8008 C   0  0  0  0  0  0  0  0  0  0  0  0
  -17.0735  -28.7884   22.4506 C   0  0  0  0  0  0  0  0  0  0  0  0
  -19.1885  -29.5132   23.3661 C   0  0  0  0  0  0  0  0  0  0  0  0
  -28.2549  -20.8768   17.2026 C   0  0  0  0  0  0  0  0  0  0  0  0
  -26.4510  -27.3901   20.0641 C   0  0  0  0  0  0  0  0  0  0  0  0
  -25.6014  -29.4181   20.0856 C   0  0  0  0  0  0  0  0  0  0  0  0
  -19.9000  -25.0393   23.4615 C   0  0  0  0  0  0  0  0  0  0  0  0
  -26.7848  -28.8348   17.9625 C   0  0  0  0  0  0  0  0  0  0  0  0
  -27.9988  -19.4316   22.0050 C   0  0  0  0  0  0  0  0  0  0  0  0
  -26.6942  -16.5855   21.1562 C   0  0  0  0  0  0  0  0  0  0  0  0
  -23.8781  -14.7278   20.6412 C   0  0  0  0  0  0  0  0  0  0  0  0
  -21.7674  -28.5851   24.5925 C   0  0  0  0  0  0  0  0  0  0  0  0
  -32.5602  -21.1499   23.5211 C   0  0  0  0  0  0  0  0  0  0  0  0
  -26.4230  -19.0072   23.9266 C   0  0  0  0  0  0  0  0  0  0  0  0
  -25.1164  -18.5479   21.3138 C   0  0  0  0  0  0  0  0  0  0  0  0
  -32.0579  -19.9680   22.6956 C   0  0  0  0  0  0  0  0  0  0  0  0
  -24.7959  -30.4549   24.6911 C   0  0  0  0  0  0  0  0  0  0  0  0
  -31.0692  -20.4400   21.6343 C   0  0  0  0  0  0  0  0  0  0  0  0
  -25.5487  -29.9917   23.4418 C   0  0  0  0  0  0  0  0  0  0  0  0
  -20.3704  -24.0903   21.3302 C   0  0  0  0  0  0  0  0  0  0  0  0
  -24.0222  -29.3107   25.3438 C   0  0  0  0  0  0  0  0  0  0  0  0
  -19.4182  -25.2572   21.1606 C   0  0  0  0  0  0  0  0  0  0  0  0
  -23.8750  -28.1143   23.1953 C   0  0  0  0  0  0  0  0  0  0  0  0
  -29.8365  -21.0867   22.2773 C   0  0  1  0  0  0  0  0  0  0  0  0
  -20.1911  -23.7060   22.7917 C   0  0  1  0  0  0  0  0  0  0  0  0
  -27.1801  -18.4111   22.7439 C   0  0  1  0  0  0  0  0  0  0  0  0
  -24.6169  -29.2464   22.4662 C   0  0  2  0  0  0  0  0  0  0  0  0
  -23.1293  -12.4459   19.9137 C   0  0  0  0  0  0  0  0  0  0  0  0
  -27.3063  -17.3117   18.2566 C   0  0  0  0  0  0  0  0  0  0  0  0
  -25.7257  -15.5058   17.5436 C   0  0  0  0  0  0  0  0  0  0  0  0
  -27.7677  -14.9276   18.8546 C   0  0  0  0  0  0  0  0  0  0  0  0
  -22.5589  -14.2056   23.2384 C   0  0  0  0  0  0  0  0  0  0  0  0
  -21.4004  -22.9997   23.3751 C   0  0  0  0  0  0  0  0  0  1  0  0
  -25.8458  -16.0988   20.0063 C   0  0  1  0  0  0  0  0  0  0  0  0
  -23.4962  -13.3304   21.0950 C   0  0  2  0  0  0  0  0  0  0  0  0
  -26.6526  -15.9820   18.6824 C   0  0  0  0  0  0  0  0  0  0  0  0
  -25.8740  -27.4985   21.2638 N   0  0  0  0  0  0  0  0  0  0  0  0
  -25.3663  -28.7427   21.2469 N   0  0  0  0  0  0  0  0  0  0  0  0
  -19.4085  -25.9022   22.4604 N   0  0  0  0  0  0  0  0  0  0  0  0
  -26.2923  -17.7841   21.7626 N   0  0  0  0  0  0  0  0  0  0  0  0
  -23.1576  -28.6541   24.3609 N   0  0  0  0  0  0  0  0  0  0  0  0
  -25.1604  -30.6805   19.9005 N   0  0  0  0  0  0  0  0  0  0  0  0
  -27.4988  -27.8376   17.2840 N   0  0  0  0  0  0  0  0  0  0  0  0
  -21.0432  -27.9669   23.5737 N   0  0  0  0  0  0  0  0  0  0  0  0
  -28.9411  -20.0708   22.7878 N   0  0  0  0  0  0  0  0  0  0  0  0
  -25.2381  -14.8483   20.4481 N   0  0  0  0  0  0  0  0  0  0  0  0
  -22.3292  -13.3871   22.0201 N   0  3  0  0  0  0  0  0  0  0  0  0
  -20.0327  -25.2285   24.6620 O   0  0  0  0  0  0  0  0  0  0  0  0
  -26.5939  -29.9413   17.4034 O   0  0  0  0  0  0  0  0  0  0  0  0
  -27.7919  -19.6237   20.8125 O   0  0  0  0  0  0  0  0  0  0  0  0
  -27.6733  -15.9228   21.5082 O   0  0  0  0  0  0  0  0  0  0  0  0
  -23.0522  -15.6219   20.4711 O   0  0  0  0  0  0  0  0  0  0  0  0
  -21.2538  -29.0650   25.6063 O   0  0  0  0  0  0  0  0  0  0  0  0
  -29.0509  -22.6559   18.6169 O   0  0  0  0  0  0  0  0  0  0  0  0
  -21.8703  -22.0318   22.4377 O   0  0  0  0  0  0  0  0  0  1  0  0
  -28.0783  -20.6435   13.5762 F   0  0  0  0  0  0  0  0  0  0  0  0
  -15.8100  -29.0569   22.0956 F   0  0  0  0  0  0  0  0  0  0  0  0
  -19.9468  -30.4877   23.8887 F   0  0  0  0  0  0  0  0  0  0  0  0
  -27.9574  -20.1391   18.2811 F   0  0  0  0  0  0  0  0  0  0  0  0
  1  2  1  0  0  0  0
  1  5  2  0  0  0  0
  2  6  2  0  0  0  0
  3  8  2  0  0  0  0
  3 17  1  0  0  0  0
  4  9  1  0  0  0  0
  4 17  2  0  0  0  0
  5 19  1  0  0  0  0
  6 21  1  0  0  0  0
  7 10  2  0  0  0  0
  7 20  1  0  0  0  0
  8 25  1  0  0  0  0
  9 25  2  0  0  0  0
 10 26  1  0  0  0  0
 11 12  2  0  0  0  0
 11 27  1  0  0  0  0
 12 28  1  0  0  0  0
 13 22  1  0  0  0  0
 13 26  2  0  0  0  0
 14 23  1  0  0  0  0
 14 29  2  0  0  0  0
 15 28  2  0  0  0  0
 15 31  1  0  0  0  0
 16 29  1  0  0  0  0
 16 30  2  0  0  0  0
 17 32  1  0  0  0  0
 18 32  1  0  0  0  0
 18 33  2  0  0  0  0
 18 35  1  0  0  0  0
 19 21  2  0  0  0  0
 19 40  1  0  0  0  0
 20 22  2  0  0  0  0
 20 41  1  0  0  0  0
 21 51  1  0  0  0  0
 22 42  1  0  0  0  0
 23 24  2  0  0  0  0
 23 66  1  0  0  0  0
 24 30  1  0  0  0  0
 24 71  1  0  0  0  0
 25 81  1  0  0  0  0
 26 82  1  0  0  0  0
 27 31  2  0  0  0  0
 27 81  1  0  0  0  0
 28 83  1  0  0  0  0
 29 84  1  0  0  0  0
 30 85  1  0  0  0  0
 31 86  1  0  0  0  0
 32 64  2  0  0  0  0
 33 65  1  0  0  0  0
 33 69  1  0  0  0  0
 34 52  1  0  0  0  0
 34 66  1  0  0  0  0
 34 75  2  0  0  0  0
 35 70  1  0  0  0  0
 35 76  2  0  0  0  0
 36 53  1  0  0  0  0
 36 72  1  0  0  0  0
 36 77  2  0  0  0  0
 37 61  1  0  0  0  0
 37 67  1  0  0  0  0
 37 78  2  0  0  0  0
 38 62  1  0  0  0  0
 38 73  1  0  0  0  0
 38 79  2  0  0  0  0
 39 68  1  0  0  0  0
 39 71  1  0  0  0  0
 39 80  2  0  0  0  0
 40 43  1  0  0  0  0
 41 53  1  0  0  0  0
 42 67  1  0  0  0  0
 43 45  1  0  0  0  0
 44 46  1  0  0  0  0
 44 48  1  0  0  0  0
 45 51  1  0  0  0  0
 46 54  1  0  0  0  0
 47 49  1  0  0  0  0
 47 52  1  0  0  0  0
 48 68  1  0  0  0  0
 49 66  1  0  0  0  0
 50 54  1  0  0  0  0
 50 68  1  0  0  0  0
 51 72  1  0  0  0  0
 52 60  1  0  0  0  0
 53 67  1  0  0  0  0
 54 65  1  0  0  0  0
 55 62  1  0  0  0  0
 56 63  1  0  0  0  0
 57 63  1  0  0  0  0
 58 63  1  0  0  0  0
 59 74  1  0  0  0  0
 60 82  1  0  0  0  0
 61 63  1  0  0  0  0
 61 73  1  0  0  0  0
 62 74  1  0  0  0  0
 64 65  1  0  0  0  0
M  CHG  1  74   1
M  ISO  4  39 100  60 101  71 100  82 101
M  END
> <Batch ID>
0067

> <Smiles>
CNC(C)C(=O)NC(C(=O)N1Cc2cc([101O:1][101CH2:1]C3CCN(c4cc(F)cc(F)c4[100NH:0][100C:0](=O)N4CCCC(n5nc(-c6ccc(Oc7ccc(F)cc7F)cc6)c(C(N)=O)c5N)C4)C3=O)ccc2CC1C(=O)NC1CCCc2ccccc21)C(C)(C)C

> <Shape>
0.187

> <Color>
0.076

> <Negative vol penalty>
0.000

$$$$

  -OEChem-04042323243D

 84 92  0     1  0  0  0  0  0999 V2000
  -16.6971  -29.9151   23.7907 C   0  0  0  0  0  0  0  0  0  0  0  0
  -17.8265  -30.5510   24.2963 C   0  0  0  0  0  0  0  0  0  0  0  0
  -25.4951  -13.2031   22.0282 C   0  0  0  0  0  0  0  0  0  0  0  0
  -25.4566  -14.0318   19.7590 C   0  0  0  0  0  0  0  0  0  0  0  0
  -16.8304  -28.7296   23.0691 C   0  0  0  0  0  0  0  0  0  0  0  0
  -19.0898  -30.0011   24.0816 C   0  0  0  0  0  0  0  0  0  0  0  0
  -25.9156  -31.9223   23.0652 C   0  0  0  0  0  0  0  0  0  0  0  0
  -24.8019  -12.0624   21.6234 C   0  0  0  0  0  0  0  0  0  0  0  0
  -24.7634  -12.8910   19.3542 C   0  0  0  0  0  0  0  0  0  0  0  0
  -27.1918  -31.6689   23.5660 C   0  0  0  0  0  0  0  0  0  0  0  0
  -25.4787   -9.6665   18.6391 C   0  0  0  0  0  0  0  0  0  0  0  0
  -25.9023   -9.0331   17.4708 C   0  0  0  0  0  0  0  0  0  0  0  0
  -27.3076  -29.6589   22.2371 C   0  0  0  0  0  0  0  0  0  0  0  0
  -28.8664  -24.4503   21.3851 C   0  0  0  0  0  0  0  0  0  0  0  0
  -23.7261   -9.3947   16.4857 C   0  0  0  0  0  0  0  0  0  0  0  0
  -30.1018  -22.8815   20.3446 C   0  0  0  0  0  0  0  0  0  0  0  0
  -25.8224  -14.1879   21.0960 C   0  0  0  0  0  0  0  0  0  0  0  0
  -27.9339  -15.5439   21.5545 C   0  0  0  0  0  0  0  0  0  0  0  0
  -18.0968  -28.1700   22.8371 C   0  0  0  0  0  0  0  0  0  0  0  0
  -25.3204  -31.0387   22.1534 C   0  0  0  0  0  0  0  0  0  0  0  0
  -19.2400  -28.8062   23.3573 C   0  0  0  0  0  0  0  0  0  0  0  0
  -26.0247  -29.9047   21.7243 C   0  0  0  0  0  0  0  0  0  0  0  0
  -28.9240  -23.0798   21.0307 C   0  0  0  0  0  0  0  0  0  0  0  0
  -24.4361  -11.9063   20.2864 C   0  0  0  0  0  0  0  0  0  0  0  0
  -27.8869  -30.5355   23.1541 C   0  0  0  0  0  0  0  0  0  0  0  0
  -24.1787  -10.1640   18.7307 C   0  0  0  0  0  0  0  0  0  0  0  0
  -25.0260   -8.8972   16.3941 C   0  0  0  0  0  0  0  0  0  0  0  0
  -23.3024  -10.0281   17.6540 C   0  0  0  0  0  0  0  0  0  0  0  0
  -26.5380  -15.3667   21.5136 C   0  0  0  0  0  0  0  0  0  0  0  0
  -30.0107  -25.0478   20.9045 C   0  0  0  0  0  0  0  0  0  0  0  0
  -28.1039  -16.8254   22.0187 C   0  0  0  0  0  0  0  0  0  0  0  0
  -28.9832  -14.6318   21.2040 C   0  0  0  0  0  0  0  0  0  0  0  0
  -30.4071  -26.4741   21.0253 C   0  0  0  0  0  0  0  0  0  0  0  0
  -22.7139  -29.2194   22.1681 C   0  0  0  0  0  0  0  0  0  0  0  0
  -23.5481  -28.6775   19.0806 C   0  0  0  0  0  0  0  0  0  0  0  0
  -26.0050  -28.6068   16.7130 C   0  0  0  0  0  0  0  0  0  0  0  0
  -30.1812  -28.4810   22.4470 C   0  0  0  0  0  0  0  0  0  0  0  0
  -26.7620  -22.2292   22.0046 C   0  0  0  0  0  0  0  0  0  0  0  0
  -18.1869  -26.8618   22.0919 C   0  0  0  0  0  0  0  0  0  0  0  0
  -23.9538  -31.3403   21.6022 C   0  0  0  0  0  0  0  0  0  0  0  0
  -25.4383  -28.9355   20.7317 C   0  0  0  0  0  0  0  0  0  0  0  0
  -19.5922  -26.5436   21.5878 C   0  0  0  0  0  0  0  0  0  0  0  0
  -24.7770  -20.0707   24.0241 C   0  0  0  0  0  0  0  0  0  0  0  0
  -20.6211  -26.7838   22.6880 C   0  0  0  0  0  0  0  0  0  0  0  0
  -25.1730  -18.6691   23.5543 C   0  0  0  0  0  0  0  0  0  0  0  0
  -24.7416  -21.0677   22.8671 C   0  0  0  0  0  0  0  0  0  0  0  0
  -26.3621  -19.7227   21.5889 C   0  0  0  0  0  0  0  0  0  0  0  0
  -20.6295  -28.2539   23.1241 C   0  0  1  0  0  0  0  0  0  0  0  0
  -23.2372  -30.1027   21.0710 C   0  0  1  0  0  0  0  0  0  0  0  0
  -26.4747  -18.6980   22.7295 C   0  0  2  0  0  0  0  0  0  0  0  0
  -26.3893  -28.0888   14.2879 C   0  0  0  0  0  0  0  0  0  0  0  0
  -30.4893  -28.7908   24.9189 C   0  0  0  0  0  0  0  0  0  0  0  0
  -23.4160  -25.6927   19.6998 C   0  0  0  0  0  0  0  0  0  0  0  0
  -24.6996  -25.2697   17.5923 C   0  0  0  0  0  0  0  0  0  0  0  0
  -22.4502  -26.3427   17.4864 C   0  0  0  0  0  0  0  0  0  0  0  0
  -32.0318  -24.2894   19.6275 C   0  0  0  0  0  0  0  0  0  0  0  0
  -26.8996  -31.3701   16.1449 C   0  0  0  0  0  0  0  0  0  0  0  0
  -24.4148  -27.6669   18.3690 C   0  0  1  0  0  0  0  0  0  0  0  0
  -26.0636  -29.1713   15.3051 C   0  0  2  0  0  0  0  0  0  0  0  0
  -29.5251  -28.9178   23.7501 C   0  0  1  0  0  0  0  0  0  1  0  0
  -23.7557  -26.2600   18.3070 C   0  0  0  0  0  0  0  0  0  0  0  0
  -25.8687  -16.4489   21.9197 N   0  0  0  0  0  0  0  0  0  0  0  0
  -30.7540  -24.0847   20.2736 N   0  0  0  0  0  0  0  0  0  0  0  0
  -26.8483  -17.3185   22.2201 N   0  0  0  0  0  0  0  0  0  0  0  0
  -24.0967  -29.2708   20.2265 N   0  0  0  0  0  0  0  0  0  0  0  0
  -26.0091  -21.0430   22.1339 N   0  0  0  0  0  0  0  0  0  0  0  0
  -29.2034  -17.5672   22.2701 N   0  0  0  0  0  0  0  0  0  0  0  0
  -28.6327  -13.3550   20.7445 N   0  0  0  0  0  0  0  0  0  0  0  0
  -27.9646  -22.0767   21.3154 N   0  0  0  0  0  0  0  0  0  0  0  0
  -29.9447  -27.1349   22.1621 N   0  0  0  0  0  0  0  0  0  0  0  0
  -21.3409  -29.0636   22.1583 N   0  0  0  0  0  0  0  0  0  0  0  0
  -24.7227  -28.2405   17.0634 N   0  0  0  0  0  0  0  0  0  0  0  0
  -27.1080  -30.2306   15.2148 N   0  3  0  0  0  0  0  0  0  0  0  0
  -30.1958  -14.9343   21.3113 O   0  0  0  0  0  0  0  0  0  0  0  0
  -31.0777  -26.9858   20.1329 O   0  0  0  0  0  0  0  0  0  0  0  0
  -23.4979  -28.7154   22.9637 O   0  0  0  0  0  0  0  0  0  0  0  0
  -22.4286  -28.9365   18.6322 O   0  0  0  0  0  0  0  0  0  0  0  0
  -26.9981  -28.4979   17.4289 O   0  0  0  0  0  0  0  0  0  0  0  0
  -30.8224  -29.2550   21.7401 O   0  0  0  0  0  0  0  0  0  0  0  0
  -26.3818  -23.2958   22.4945 O   0  0  0  0  0  0  0  0  0  0  0  0
  -23.7599  -10.7932   19.8910 O   0  0  0  0  0  0  0  0  0  0  0  0
  -29.1325  -30.2854   23.6419 O   0  0  0  0  0  0  0  0  0  1  0  0
  -25.4334   -8.2903   15.2716 F   0  0  0  0  0  0  0  0  0  0  0  0
  -22.0528  -10.5050   17.7357 F   0  0  0  0  0  0  0  0  0  0  0  0
  1  2  1  0  0  0  0
  1  5  2  0  0  0  0
  2  6  2  0  0  0  0
  3  8  2  0  0  0  0
  3 17  1  0  0  0  0
  4  9  1  0  0  0  0
  4 17  2  0  0  0  0
  5 19  1  0  0  0  0
  6 21  1  0  0  0  0
  7 10  2  0  0  0  0
  7 20  1  0  0  0  0
  8 24  1  0  0  0  0
  9 24  2  0  0  0  0
 10 25  1  0  0  0  0
 11 12  2  0  0  0  0
 11 26  1  0  0  0  0
 12 27  1  0  0  0  0
 13 22  1  0  0  0  0
 13 25  2  0  0  0  0
 14 23  1  0  0  0  0
 14 30  2  0  0  0  0
 15 27  2  0  0  0  0
 15 28  1  0  0  0  0
 16 23  2  0  0  0  0
 16 63  1  0  0  0  0
 17 29  1  0  0  0  0
 18 29  1  0  0  0  0
 18 31  2  0  0  0  0
 18 32  1  0  0  0  0
 19 21  2  0  0  0  0
 19 39  1  0  0  0  0
 20 22  2  0  0  0  0
 20 40  1  0  0  0  0
 21 48  1  0  0  0  0
 22 41  1  0  0  0  0
 23 69  1  0  0  0  0
 24 81  1  0  0  0  0
 25 82  1  0  0  0  0
 26 28  2  0  0  0  0
 26 81  1  0  0  0  0
 27 83  1  0  0  0  0
 28 84  1  0  0  0  0
 29 62  2  0  0  0  0
 30 33  1  0  0  0  0
 30 63  1  0  0  0  0
 31 64  1  0  0  0  0
 31 67  1  0  0  0  0
 32 68  1  0  0  0  0
 32 74  2  0  0  0  0
 33 70  1  0  0  0  0
 33 75  2  0  0  0  0
 34 49  1  0  0  0  0
 34 71  1  0  0  0  0
 34 76  2  0  0  0  0
 35 58  1  0  0  0  0
 35 65  1  0  0  0  0
 35 77  2  0  0  0  0
 36 59  1  0  0  0  0
 36 72  1  0  0  0  0
 36 78  2  0  0  0  0
 37 60  1  0  0  0  0
 37 70  1  0  0  0  0
 37 79  2  0  0  0  0
 38 66  1  0  0  0  0
 38 69  1  0  0  0  0
 38 80  2  0  0  0  0
 39 42  1  0  0  0  0
 40 49  1  0  0  0  0
 41 65  1  0  0  0  0
 42 44  1  0  0  0  0
 43 45  1  0  0  0  0
 43 46  1  0  0  0  0
 44 48  1  0  0  0  0
 45 50  1  0  0  0  0
 46 66  1  0  0  0  0
 47 50  1  0  0  0  0
 47 66  1  0  0  0  0
 48 71  1  0  0  0  0
 49 65  1  0  0  0  0
 50 64  1  0  0  0  0
 51 59  1  0  0  0  0
 52 60  1  0  0  0  0
 53 61  1  0  0  0  0
 54 61  1  0  0  0  0
 55 61  1  0  0  0  0
 56 63  1  0  0  0  0
 57 73  1  0  0  0  0
 58 61  1  0  0  0  0
 58 72  1  0  0  0  0
 59 73  1  0  0  0  0
 60 82  1  0  0  0  0
 62 64  1  0  0  0  0
M  CHG  1  73   1
M  ISO  4  38 100  60 101  69 100  82 101
M  END
> <Batch ID>
0067

> <Smiles>
CNC(C)C(=O)NC(C(=O)N1Cc2cc([101O:1][101CH:1](C)C(=O)NC(=O)c3cc([100NH:0][100C:0](=O)N4CCCC(n5nc(-c6ccc(Oc7ccc(F)cc7F)cc6)c(C(N)=O)c5N)C4)cn3C)ccc2CC1C(=O)NC1CCCc2ccccc21)C(C)(C)C

> <Shape>
0.263

> <Color>
0.108

> <Negative vol penalty>
0.000

$$$$

  -OEChem-04042323243D

 86 94  0     1  0  0  0  0  0999 V2000
  -32.1907  -26.9560   14.6646 C   0  0  0  0  0  0  0  0  0  0  0  0
  -31.0014  -26.2788   14.9146 C   0  0  0  0  0  0  0  0  0  0  0  0
  -26.3772  -12.9325   21.3453 C   0  0  0  0  0  0  0  0  0  0  0  0
  -26.2220  -13.3992   18.9799 C   0  0  0  0  0  0  0  0  0  0  0  0
  -32.8565  -27.6008   15.7061 C   0  0  0  0  0  0  0  0  0  0  0  0
  -30.4778  -26.2452   16.2065 C   0  0  0  0  0  0  0  0  0  0  0  0
  -24.5598  -26.2651   17.7822 C   0  0  0  0  0  0  0  0  0  0  0  0
  -25.1490  -12.2732   21.2958 C   0  0  0  0  0  0  0  0  0  0  0  0
  -24.9938  -12.7399   18.9303 C   0  0  0  0  0  0  0  0  0  0  0  0
  -23.6813  -25.2438   18.1411 C   0  0  0  0  0  0  0  0  0  0  0  0
  -22.2259  -10.1539   21.7192 C   0  0  0  0  0  0  0  0  0  0  0  0
  -22.1207   -8.9286   22.3774 C   0  0  0  0  0  0  0  0  0  0  0  0
  -24.1155  -25.6969   20.4703 C   0  0  0  0  0  0  0  0  0  0  0  0
  -25.0271  -19.1918   18.5558 C   0  0  0  0  0  0  0  0  0  0  0  0
  -27.2805  -19.0078   17.7041 C   0  0  0  0  0  0  0  0  0  0  0  0
  -23.8739   -8.0276   20.9804 C   0  0  0  0  0  0  0  0  0  0  0  0
  -26.9137  -13.4956   20.1873 C   0  0  0  0  0  0  0  0  0  0  0  0
  -29.4578  -13.6149   20.0431 C   0  0  0  0  0  0  0  0  0  0  0  0
  -32.3358  -27.5833   17.0096 C   0  0  0  0  0  0  0  0  0  0  0  0
  -25.2323  -27.0040   18.7662 C   0  0  0  0  0  0  0  0  0  0  0  0
  -31.1380  -26.8893   17.2667 C   0  0  0  0  0  0  0  0  0  0  0  0
  -25.0001  -26.7288   20.1213 C   0  0  0  0  0  0  0  0  0  0  0  0
  -26.7057  -20.7958   19.2239 C   0  0  0  0  0  0  0  0  0  0  0  0
  -25.3950  -20.3224   19.2851 C   0  0  0  0  0  0  0  0  0  0  0  0
  -27.6484  -20.1385   18.4334 C   0  0  0  0  0  0  0  0  0  0  0  0
  -24.4573  -12.1768   20.0883 C   0  0  0  0  0  0  0  0  0  0  0  0
  -23.4612  -24.9576   19.4852 C   0  0  0  0  0  0  0  0  0  0  0  0
  -23.1551  -10.3160   20.6916 C   0  0  0  0  0  0  0  0  0  0  0  0
  -22.9446   -7.8655   22.0080 C   0  0  0  0  0  0  0  0  0  0  0  0
  -25.9698  -18.5344   17.7654 C   0  0  0  0  0  0  0  0  0  0  0  0
  -23.9791   -9.2529   20.3222 C   0  0  0  0  0  0  0  0  0  0  0  0
  -28.1821  -14.1773   20.2379 C   0  0  0  0  0  0  0  0  0  0  0  0
  -30.3246  -14.6696   20.1935 C   0  0  0  0  0  0  0  0  0  0  0  0
  -30.8436  -21.4457   17.0593 C   0  0  0  0  0  0  0  0  0  0  0  0
  -29.5869  -21.0058   17.1546 C   0  0  0  0  0  0  0  0  0  0  0  0
  -29.8263  -12.2602   19.7521 C   0  0  0  0  0  0  0  0  0  0  0  0
  -28.2819  -27.4519   19.5425 C   0  0  0  0  0  0  0  0  0  0  0  0
  -27.0311  -29.5979   21.6287 C   0  0  0  0  0  0  0  0  0  0  0  0
  -23.0497  -21.0426   19.8548 C   0  0  0  0  0  0  0  0  0  0  0  0
  -24.3438  -30.6273   23.4633 C   0  0  0  0  0  0  0  0  0  0  0  0
  -29.8379  -20.5232   19.5062 C   0  0  0  0  0  0  0  0  0  0  0  0
  -33.1158  -28.2549   18.1120 C   0  0  0  0  0  0  0  0  0  0  0  0
  -26.1564  -28.1203   18.3630 C   0  0  0  0  0  0  0  0  0  0  0  0
  -25.6817  -27.5063   21.2165 C   0  0  0  0  0  0  0  0  0  0  0  0
  -32.2996  -28.4884   19.3806 C   0  0  0  0  0  0  0  0  0  0  0  0
  -30.7808  -18.8645   22.4299 C   0  0  0  0  0  0  0  0  0  0  0  0
  -31.5206  -27.2309   19.7532 C   0  0  0  0  0  0  0  0  0  0  0  0
  -30.3427  -17.4197   22.1921 C   0  0  0  0  0  0  0  0  0  0  0  0
  -29.7456  -19.8456   21.8918 C   0  0  0  0  0  0  0  0  0  0  0  0
  -28.9924  -18.2154   20.1892 C   0  0  0  0  0  0  0  0  0  0  0  0
  -30.5255  -26.8512   18.6500 C   0  0  1  0  0  0  0  0  0  0  0  0
  -27.1794  -28.4675   19.4401 C   0  0  1  0  0  0  0  0  0  0  0  0
  -30.0104  -17.1803   20.7088 C   0  0  2  0  0  0  0  0  0  0  0  0
  -27.1003  -22.0100   20.0062 C   0  0  0  0  0  0  0  0  0  0  0  0
  -23.6365  -32.3917   25.1016 C   0  0  0  0  0  0  0  0  0  0  0  0
  -28.5763  -28.1650   23.8353 C   0  0  0  0  0  0  0  0  0  0  0  0
  -27.1241  -29.3273   25.5111 C   0  0  0  0  0  0  0  0  0  0  0  0
  -28.5948  -30.6603   24.0002 C   0  0  0  0  0  0  0  0  0  0  0  0
  -22.2428  -31.6408   21.6418 C   0  0  0  0  0  0  0  0  0  0  0  0
  -22.3676  -21.8436   20.9581 C   0  0  0  0  0  0  0  0  0  0  0  0
  -22.8755  -23.2739   21.0594 C   0  0  0  0  0  0  0  0  0  1  0  0
  -26.5356  -29.5399   23.0535 C   0  0  1  0  0  0  0  0  0  0  0  0
  -23.7056  -31.9939   23.6354 C   0  0  2  0  0  0  0  0  0  0  0  0
  -27.6962  -29.4070   24.0796 C   0  0  0  0  0  0  0  0  0  0  0  0
  -28.2296  -15.4876   20.4928 N   0  0  0  0  0  0  0  0  0  0  0  0
  -29.5458  -15.7573   20.4593 N   0  0  0  0  0  0  0  0  0  0  0  0
  -26.5810  -28.5837   20.7715 N   0  0  0  0  0  0  0  0  0  0  0  0
  -29.4538  -19.5823   20.4823 N   0  0  0  0  0  0  0  0  0  0  0  0
  -31.6695  -14.7635   20.1231 N   0  0  0  0  0  0  0  0  0  0  0  0
  -28.8101  -11.3027   19.6306 N   0  0  0  0  0  0  0  0  0  0  0  0
  -24.4219  -20.9736   20.0800 N   0  0  0  0  0  0  0  0  0  0  0  0
  -29.3560  -27.7016   18.7097 N   0  0  0  0  0  0  0  0  0  0  0  0
  -25.7019  -30.7218   23.2442 N   0  0  0  0  0  0  0  0  0  0  0  0
  -29.0147  -20.6125   18.3535 N   0  0  0  0  0  0  0  0  0  0  0  0
  -22.3215  -31.9925   23.0830 N   0  3  0  0  0  0  0  0  0  0  0  0
  -31.0225  -11.9060   19.6204 O   0  0  0  0  0  0  0  0  0  0  0  0
  -28.1674  -26.5121   20.3205 O   0  0  0  0  0  0  0  0  0  0  0  0
  -27.7838  -30.5134   21.2870 O   0  0  0  0  0  0  0  0  0  0  0  0
  -22.4229  -20.5513   18.9221 O   0  0  0  0  0  0  0  0  0  0  0  0
  -23.7024  -29.5806   23.5213 O   0  0  0  0  0  0  0  0  0  0  0  0
  -30.8295  -21.2488   19.6558 O   0  0  0  0  0  0  0  0  0  0  0  0
  -23.2590  -11.5333   20.0396 O   0  0  0  0  0  0  0  0  0  0  0  0
  -22.6047  -23.9608   19.8383 O   0  0  0  0  0  0  0  0  0  1  0  0
  -22.8445   -6.6894   22.6412 F   0  0  0  0  0  0  0  0  0  0  0  0
  -25.6161  -17.4484   17.0654 F   0  0  0  0  0  0  0  0  0  0  0  0
  -24.8745   -9.4030   19.3365 F   0  0  0  0  0  0  0  0  0  0  0  0
  1  2  1  0  0  0  0
  1  5  2  0  0  0  0
  2  6  2  0  0  0  0
  3  8  2  0  0  0  0
  3 17  1  0  0  0  0
  4  9  1  0  0  0  0
  4 17  2  0  0  0  0
  5 19  1  0  0  0  0
  6 21  1  0  0  0  0
  7 10  2  0  0  0  0
  7 20  1  0  0  0  0
  8 26  1  0  0  0  0
  9 26  2  0  0  0  0
 10 27  1  0  0  0  0
 11 12  2  0  0  0  0
 11 28  1  0  0  0  0
 12 29  1  0  0  0  0
 13 22  1  0  0  0  0
 13 27  2  0  0  0  0
 14 24  2  0  0  0  0
 14 30  1  0  0  0  0
 15 25  1  0  0  0  0
 15 30  2  0  0  0  0
 16 29  2  0  0  0  0
 16 31  1  0  0  0  0
 17 32  1  0  0  0  0
 18 32  1  0  0  0  0
 18 33  2  0  0  0  0
 18 36  1  0  0  0  0
 19 21  2  0  0  0  0
 19 42  1  0  0  0  0
 20 22  2  0  0  0  0
 20 43  1  0  0  0  0
 21 51  1  0  0  0  0
 22 44  1  0  0  0  0
 23 24  1  0  0  0  0
 23 25  2  0  0  0  0
 23 54  1  0  0  0  0
 24 71  1  0  0  0  0
 25 74  1  0  0  0  0
 26 82  1  0  0  0  0
 27 83  1  0  0  0  0
 28 31  2  0  0  0  0
 28 82  1  0  0  0  0
 29 84  1  0  0  0  0
 30 85  1  0  0  0  0
 31 86  1  0  0  0  0
 32 65  2  0  0  0  0
 33 66  1  0  0  0  0
 33 69  1  0  0  0  0
 34 35  2  0  0  0  0
 35 74  1  0  0  0  0
 36 70  1  0  0  0  0
 36 76  2  0  0  0  0
 37 52  1  0  0  0  0
 37 72  1  0  0  0  0
 37 77  2  0  0  0  0
 38 62  1  0  0  0  0
 38 67  1  0  0  0  0
 38 78  2  0  0  0  0
 39 60  1  0  0  0  0
 39 71  1  0  0  0  0
 39 79  2  0  0  0  0
 40 63  1  0  0  0  0
 40 73  1  0  0  0  0
 40 80  2  0  0  0  0
 41 68  1  0  0  0  0
 41 74  1  0  0  0  0
 41 81  2  0  0  0  0
 42 45  1  0  0  0  0
 43 52  1  0  0  0  0
 44 67  1  0  0  0  0
 45 47  1  0  0  0  0
 46 48  1  0  0  0  0
 46 49  1  0  0  0  0
 47 51  1  0  0  0  0
 48 53  1  0  0  0  0
 49 68  1  0  0  0  0
 50 53  1  0  0  0  0
 50 68  1  0  0  0  0
 51 72  1  0  0  0  0
 52 67  1  0  0  0  0
 53 66  1  0  0  0  0
 55 63  1  0  0  0  0
 56 64  1  0  0  0  0
 57 64  1  0  0  0  0
 58 64  1  0  0  0  0
 59 75  1  0  0  0  0
 60 61  1  0  0  0  0
 61 83  1  0  0  0  0
 62 64  1  0  0  0  0
 62 73  1  0  0  0  0
 63 75  1  0  0  0  0
 65 66  1  0  0  0  0
M  CHG  1  75   1
M  ISO  4  41 100  61 101  74 100  83 101
M  END
> <Batch ID>
0067

> <Smiles>
C=C[100N:0](c1cc(F)cc(NC(=O)C[101CH2:1][101O:1]c2ccc3c(c2)CN(C(=O)C(NC(=O)C(C)NC)C(C)(C)C)C(C(=O)NC2CCCc4ccccc42)C3)c1C)[100C:0](=O)N1CCCC(n2nc(-c3ccc(Oc4ccc(F)cc4F)cc3)c(C(N)=O)c2N)C1

> <Shape>
0.264

> <Color>
0.091

> <Negative vol penalty>
0.000

$$$$

  -OEChem-04042323243D

 84 92  0     1  0  0  0  0  0999 V2000
  -27.4370  -37.2282   21.7990 C   0  0  0  0  0  0  0  0  0  0  0  0
  -27.9302  -36.0193   21.3185 C   0  0  0  0  0  0  0  0  0  0  0  0
  -23.5969  -13.4369   25.4612 C   0  0  0  0  0  0  0  0  0  0  0  0
  -23.3514  -15.8329   25.6511 C   0  0  0  0  0  0  0  0  0  0  0  0
  -30.4904  -21.1531   18.0378 C   0  0  0  0  0  0  0  0  0  0  0  0
  -26.5334  -37.2386   22.8607 C   0  0  0  0  0  0  0  0  0  0  0  0
  -27.5207  -34.8200   21.9003 C   0  0  0  0  0  0  0  0  0  0  0  0
  -26.6615  -29.4587   19.0676 C   0  0  0  0  0  0  0  0  0  0  0  0
  -30.3702  -20.0218   18.8449 C   0  0  0  0  0  0  0  0  0  0  0  0
  -22.8767  -13.2693   26.6439 C   0  0  0  0  0  0  0  0  0  0  0  0
  -22.6311  -15.6653   26.8338 C   0  0  0  0  0  0  0  0  0  0  0  0
  -27.4634  -28.3252   18.9419 C   0  0  0  0  0  0  0  0  0  0  0  0
  -19.4848  -14.8222   27.7340 C   0  0  0  0  0  0  0  0  0  0  0  0
  -18.3185  -15.5707   27.8923 C   0  0  0  0  0  0  0  0  0  0  0  0
  -26.3180  -27.3152   20.8092 C   0  0  0  0  0  0  0  0  0  0  0  0
  -28.0955  -19.7232   18.0876 C   0  0  0  0  0  0  0  0  0  0  0  0
  -19.2490  -16.6023   29.8690 C   0  0  0  0  0  0  0  0  0  0  0  0
  -23.8343  -14.7187   24.9648 C   0  0  0  0  0  0  0  0  0  0  0  0
  -29.4131  -21.5695   17.2557 C   0  0  0  0  0  0  0  0  0  0  0  0
  -24.0640  -14.9437   22.4342 C   0  0  0  0  0  0  0  0  0  0  0  0
  -26.1052  -36.0383   23.4494 C   0  0  0  0  0  0  0  0  0  0  0  0
  -25.6876  -29.5336   20.0737 C   0  0  0  0  0  0  0  0  0  0  0  0
  -26.6115  -34.8144   22.9718 C   0  0  0  0  0  0  0  0  0  0  0  0
  -25.5033  -28.4497   20.9440 C   0  0  0  0  0  0  0  0  0  0  0  0
  -29.1728  -19.3069   18.8698 C   0  0  0  0  0  0  0  0  0  0  0  0
  -28.2157  -20.8545   17.2806 C   0  0  0  0  0  0  0  0  0  0  0  0
  -22.3938  -14.3835   27.3302 C   0  0  0  0  0  0  0  0  0  0  0  0
  -27.2937  -27.2544   19.8146 C   0  0  0  0  0  0  0  0  0  0  0  0
  -20.5332  -14.9636   28.6432 C   0  0  0  0  0  0  0  0  0  0  0  0
  -18.2006  -16.4608   28.9598 C   0  0  0  0  0  0  0  0  0  0  0  0
  -20.4152  -15.8537   29.7107 C   0  0  0  0  0  0  0  0  0  0  0  0
  -24.5787  -14.8925   23.7435 C   0  0  0  0  0  0  0  0  0  0  0  0
  -25.1688  -15.1209   21.6376 C   0  0  0  0  0  0  0  0  0  0  0  0
  -22.7084  -14.8405   21.9787 C   0  0  0  0  0  0  0  0  0  0  0  0
  -29.5724  -22.7656   16.4158 C   0  0  0  0  0  0  0  0  0  0  0  0
  -25.1912  -31.4260   22.5789 C   0  0  0  0  0  0  0  0  0  0  0  0
  -22.4249  -29.7473   22.8062 C   0  0  0  0  0  0  0  0  0  0  0  0
  -28.7610  -24.3284   18.2506 C   0  0  0  0  0  0  0  0  0  0  0  0
  -20.7129  -26.8767   22.1167 C   0  0  0  0  0  0  0  0  0  0  0  0
  -30.0238  -17.6103   20.5263 C   0  0  0  0  0  0  0  0  0  0  0  0
  -25.1634  -36.1022   24.6257 C   0  0  0  0  0  0  0  0  0  0  0  0
  -24.8126  -30.7525   20.1791 C   0  0  0  0  0  0  0  0  0  0  0  0
  -24.4580  -28.4721   22.0281 C   0  0  0  0  0  0  0  0  0  0  0  0
  -24.4919  -34.7682   24.9416 C   0  0  0  0  0  0  0  0  0  0  0  0
  -30.1016  -14.8161   22.7317 C   0  0  0  0  0  0  0  0  0  0  0  0
  -25.5186  -33.6400   24.9396 C   0  0  0  0  0  0  0  0  0  0  0  0
  -28.6293  -14.5911   23.0838 C   0  0  0  0  0  0  0  0  0  0  0  0
  -30.4323  -16.3016   22.5989 C   0  0  0  0  0  0  0  0  0  0  0  0
  -28.0926  -16.8262   22.0333 C   0  0  0  0  0  0  0  0  0  0  0  0
  -26.1721  -33.4913   23.5603 C   0  0  1  0  0  0  0  0  0  0  0  0
  -24.1996  -30.9299   21.5648 C   0  0  1  0  0  0  0  0  0  0  0  0
  -27.6967  -15.3428   22.1139 C   0  0  2  0  0  0  0  0  0  0  0  0
  -18.4813  -25.7824   22.4632 C   0  0  0  0  0  0  0  0  0  0  0  0
  -23.1667  -29.1584   25.7067 C   0  0  0  0  0  0  0  0  0  0  0  0
  -21.4502  -27.3358   25.7027 C   0  0  0  0  0  0  0  0  0  0  0  0
  -20.7540  -29.7031   25.3370 C   0  0  0  0  0  0  0  0  0  0  0  0
  -20.2135  -26.7078   19.2045 C   0  0  0  0  0  0  0  0  0  0  0  0
  -28.5450  -25.8221   18.3867 C   0  0  0  0  0  0  0  0  0  1  0  0
  -21.9978  -28.4801   23.5068 C   0  0  1  0  0  0  0  0  0  0  0  0
  -19.3284  -26.6435   21.5393 C   0  0  2  0  0  0  0  0  0  0  0  0
  -21.8633  -28.6694   25.0442 C   0  0  0  0  0  0  0  0  0  0  0  0
  -25.9072  -15.0261   23.7809 N   0  0  0  0  0  0  0  0  0  0  0  0
  -26.2366  -15.1630   22.4852 N   0  0  0  0  0  0  0  0  0  0  0  0
  -23.6316  -29.6887   22.0948 N   0  0  0  0  0  0  0  0  0  0  0  0
  -29.5109  -16.9471   21.6611 N   0  0  0  0  0  0  0  0  0  0  0  0
  -27.1123  -21.2604   16.4973 N   0  0  0  0  0  0  0  0  0  0  0  0
  -25.3214  -15.2432   20.3019 N   0  0  0  0  0  0  0  0  0  0  0  0
  -21.6957  -14.6605   22.9307 N   0  0  0  0  0  0  0  0  0  0  0  0
  -29.0515  -18.1578   19.6899 N   0  0  0  0  0  0  0  0  0  0  0  0
  -29.2422  -24.0060   16.9685 N   0  0  0  0  0  0  0  0  0  0  0  0
  -25.2815  -32.8030   22.6507 N   0  0  0  0  0  0  0  0  0  0  0  0
  -20.7710  -28.0436   22.8489 N   0  0  0  0  0  0  0  0  0  0  0  0
  -19.4264  -25.9601   20.2186 N   0  3  0  0  0  0  0  0  0  0  0  0
  -22.4060  -14.8895   20.7623 O   0  0  0  0  0  0  0  0  0  0  0  0
  -25.8263  -30.6191   23.2478 O   0  0  0  0  0  0  0  0  0  0  0  0
  -21.7104  -30.7501   22.8813 O   0  0  0  0  0  0  0  0  0  0  0  0
  -28.5308  -23.5436   19.1651 O   0  0  0  0  0  0  0  0  0  0  0  0
  -21.6482  -26.0994   21.9393 O   0  0  0  0  0  0  0  0  0  0  0  0
  -31.2350  -17.6635   20.2979 O   0  0  0  0  0  0  0  0  0  0  0  0
  -21.6907  -14.2204   28.4842 O   0  0  0  0  0  0  0  0  0  0  0  0
  -28.0755  -26.1470   19.6945 O   0  0  0  0  0  0  0  0  0  1  0  0
  -17.0812  -17.1807   29.1108 F   0  0  0  0  0  0  0  0  0  0  0  0
  -21.4195  -15.9948   30.5867 F   0  0  0  0  0  0  0  0  0  0  0  0
  -30.1369  -22.6593   14.8373 S   0  0  0  0  0  0  0  0  0  0  0  0
  1  2  1  0  0  0  0
  1  6  2  0  0  0  0
  2  7  2  0  0  0  0
  3 10  2  0  0  0  0
  3 18  1  0  0  0  0
  4 11  1  0  0  0  0
  4 18  2  0  0  0  0
  5  9  2  0  0  0  0
  5 19  1  0  0  0  0
  6 21  1  0  0  0  0
  7 23  1  0  0  0  0
  8 12  2  0  0  0  0
  8 22  1  0  0  0  0
  9 25  1  0  0  0  0
 10 27  1  0  0  0  0
 11 27  2  0  0  0  0
 12 28  1  0  0  0  0
 13 14  2  0  0  0  0
 13 29  1  0  0  0  0
 14 30  1  0  0  0  0
 15 24  1  0  0  0  0
 15 28  2  0  0  0  0
 16 25  2  0  0  0  0
 16 26  1  0  0  0  0
 17 30  2  0  0  0  0
 17 31  1  0  0  0  0
 18 32  1  0  0  0  0
 19 26  2  0  0  0  0
 19 35  1  0  0  0  0
 20 32  1  0  0  0  0
 20 33  2  0  0  0  0
 20 34  1  0  0  0  0
 21 23  2  0  0  0  0
 21 41  1  0  0  0  0
 22 24  2  0  0  0  0
 22 42  1  0  0  0  0
 23 50  1  0  0  0  0
 24 43  1  0  0  0  0
 25 69  1  0  0  0  0
 26 66  1  0  0  0  0
 27 80  1  0  0  0  0
 28 81  1  0  0  0  0
 29 31  2  0  0  0  0
 29 80  1  0  0  0  0
 30 82  1  0  0  0  0
 31 83  1  0  0  0  0
 32 62  2  0  0  0  0
 33 63  1  0  0  0  0
 33 67  1  0  0  0  0
 34 68  1  0  0  0  0
 34 74  2  0  0  0  0
 35 70  1  0  0  0  0
 35 84  2  0  0  0  0
 36 51  1  0  0  0  0
 36 71  1  0  0  0  0
 36 75  2  0  0  0  0
 37 59  1  0  0  0  0
 37 64  1  0  0  0  0
 37 76  2  0  0  0  0
 38 58  1  0  0  0  0
 38 70  1  0  0  0  0
 38 77  2  0  0  0  0
 39 60  1  0  0  0  0
 39 72  1  0  0  0  0
 39 78  2  0  0  0  0
 40 65  1  0  0  0  0
 40 69  1  0  0  0  0
 40 79  2  0  0  0  0
 41 44  1  0  0  0  0
 42 51  1  0  0  0  0
 43 64  1  0  0  0  0
 44 46  1  0  0  0  0
 45 47  1  0  0  0  0
 45 48  1  0  0  0  0
 46 50  1  0  0  0  0
 47 52  1  0  0  0  0
 48 65  1  0  0  0  0
 49 52  1  0  0  0  0
 49 65  1  0  0  0  0
 50 71  1  0  0  0  0
 51 64  1  0  0  0  0
 52 63  1  0  0  0  0
 53 60  1  0  0  0  0
 54 61  1  0  0  0  0
 55 61  1  0  0  0  0
 56 61  1  0  0  0  0
 57 73  1  0  0  0  0
 58 81  1  0  0  0  0
 59 61  1  0  0  0  0
 59 72  1  0  0  0  0
 60 73  1  0  0  0  0
 62 63  1  0  0  0  0
M  CHG  1  73   1
M  ISO  4  40 100  58 101  69 100  81 101
M  END
> <Batch ID>
0067

> <Smiles>
CNC(C)C(=O)NC(C(=O)N1Cc2cc([101O:1][101CH2:1]C(=O)NC(=S)c3ccc([100NH:0][100C:0](=O)N4CCCC(n5nc(-c6ccc(Oc7ccc(F)cc7F)cc6)c(C(N)=O)c5N)C4)cc3N)ccc2CC1C(=O)NC1CCCc2ccccc21)C(C)(C)C

> <Shape>
0.250

> <Color>
0.115

> <Negative vol penalty>
0.000

$$$$

  -OEChem-04042323243D

 91100  0     1  0  0  0  0  0999 V2000
  -26.7665  -29.6889   16.5973 C   0  0  0  0  0  0  0  0  0  0  0  0
  -26.4522  -28.3704   16.2840 C   0  0  0  0  0  0  0  0  0  0  0  0
  -30.5720  -20.2273   19.8822 C   0  0  0  0  0  0  0  0  0  0  0  0
  -28.2268  -19.7691   20.2383 C   0  0  0  0  0  0  0  0  0  0  0  0
  -26.8775  -30.0798   17.9310 C   0  0  0  0  0  0  0  0  0  0  0  0
  -26.2496  -27.4418   17.3043 C   0  0  0  0  0  0  0  0  0  0  0  0
  -22.3937  -21.6082   18.8591 C   0  0  0  0  0  0  0  0  0  0  0  0
  -22.6266  -11.0002   22.0282 C   0  0  0  0  0  0  0  0  0  0  0  0
  -23.8943  -11.3605   21.5714 C   0  0  0  0  0  0  0  0  0  0  0  0
  -30.2509  -21.4956   19.3988 C   0  0  0  0  0  0  0  0  0  0  0  0
  -27.9056  -21.0375   19.7549 C   0  0  0  0  0  0  0  0  0  0  0  0
  -22.5552  -20.2993   19.3112 C   0  0  0  0  0  0  0  0  0  0  0  0
  -29.3955  -24.5061   20.6787 C   0  0  0  0  0  0  0  0  0  0  0  0
  -30.1522  -25.5849   21.1360 C   0  0  0  0  0  0  0  0  0  0  0  0
  -22.6951  -21.1066   21.5801 C   0  0  0  0  0  0  0  0  0  0  0  0
  -22.3031  -13.2334   22.8917 C   0  0  0  0  0  0  0  0  0  0  0  0
  -30.8306  -26.0702   18.8685 C   0  0  0  0  0  0  0  0  0  0  0  0
  -29.5600  -19.3639   20.3019 C   0  0  0  0  0  0  0  0  0  0  0  0
  -30.6977  -17.7459   21.9128 C   0  0  0  0  0  0  0  0  0  0  0  0
  -26.6667  -29.1577   18.9683 C   0  0  0  0  0  0  0  0  0  0  0  0
  -22.3925  -22.6790   19.7646 C   0  0  0  0  0  0  0  0  0  0  0  0
  -26.3592  -27.8204   18.6531 C   0  0  0  0  0  0  0  0  0  0  0  0
  -22.5307  -22.4280   21.1372 C   0  0  0  0  0  0  0  0  0  0  0  0
  -23.5709  -13.5936   22.4349 C   0  0  0  0  0  0  0  0  0  0  0  0
  -21.8309  -11.9367   22.6883 C   0  0  0  0  0  0  0  0  0  0  0  0
  -24.3665  -12.6571   21.7748 C   0  0  0  0  0  0  0  0  0  0  0  0
  -28.9177  -21.9007   19.3352 C   0  0  0  0  0  0  0  0  0  0  0  0
  -22.7089  -20.0486   20.6716 C   0  0  0  0  0  0  0  0  0  0  0  0
  -29.3563  -24.2093   19.3163 C   0  0  0  0  0  0  0  0  0  0  0  0
  -30.8697  -26.3670   20.2309 C   0  0  0  0  0  0  0  0  0  0  0  0
  -30.0738  -24.9914   18.4112 C   0  0  0  0  0  0  0  0  0  0  0  0
  -29.8911  -18.0534   20.8008 C   0  0  0  0  0  0  0  0  0  0  0  0
  -30.7005  -16.3734   21.9660 C   0  0  0  0  0  0  0  0  0  0  0  0
  -25.1779  -15.3119   23.3820 C   0  0  0  0  0  0  0  0  0  0  0  0
  -31.3832  -18.6225   22.8169 C   0  0  0  0  0  0  0  0  0  0  0  0
  -24.2192  -25.2419   20.2101 C   0  0  0  0  0  0  0  0  0  0  0  0
  -21.9598  -25.9874   22.4150 C   0  0  0  0  0  0  0  0  0  0  0  0
  -19.5033  -24.9094   24.5246 C   0  0  0  0  0  0  0  0  0  0  0  0
  -26.5652  -12.1776   20.6278 C   0  0  0  0  0  0  0  0  0  0  0  0
  -26.8440  -29.6161   20.3942 C   0  0  0  0  0  0  0  0  0  0  0  0
  -22.1904  -24.0827   19.2635 C   0  0  0  0  0  0  0  0  0  0  0  0
  -22.5161  -23.5406   22.1522 C   0  0  0  0  0  0  0  0  0  0  0  0
  -26.2457  -28.6579   21.4209 C   0  0  0  0  0  0  0  0  0  0  0  0
  -29.5113  -12.9365   18.5294 C   0  0  0  0  0  0  0  0  0  0  0  0
  -26.6425  -27.2196   21.1035 C   0  0  0  0  0  0  0  0  0  0  0  0
  -30.1587  -14.1796   19.1415 C   0  0  0  0  0  0  0  0  0  0  0  0
  -28.8048  -12.0679   19.5611 C   0  0  0  0  0  0  0  0  0  0  0  0
  -23.3021  -16.0821   22.1666 C   0  0  0  0  0  0  0  0  0  0  0  0
  -28.1002  -14.2170   20.6359 C   0  0  0  0  0  0  0  0  0  0  0  0
  -26.1078  -26.7896   19.7321 C   0  0  1  0  0  0  0  0  0  0  0  0
  -22.7200  -25.1423   20.2247 C   0  0  1  0  0  0  0  0  0  0  0  0
  -24.3094  -17.2222   22.2501 C   0  0  2  0  0  0  0  0  0  0  0  0
  -29.6016  -14.5277   20.5319 C   0  0  2  0  0  0  0  0  0  0  0  0
  -25.1766  -16.8408   23.4666 C   0  0  0  0  0  0  0  0  0  0  0  0
  -24.5727  -17.2412   24.8201 C   0  0  0  0  0  0  0  0  0  0  0  0
  -26.5965  -17.3966   23.3444 C   0  0  0  0  0  0  0  0  0  0  0  0
  -17.8605  -25.7473   26.2266 C   0  0  0  0  0  0  0  0  0  0  0  0
  -24.2178  -26.2817   24.4460 C   0  0  0  0  0  0  0  0  0  0  0  0
  -22.5017  -26.1712   26.2657 C   0  0  0  0  0  0  0  0  0  0  0  0
  -22.4375  -28.0310   24.6045 C   0  0  0  0  0  0  0  0  0  0  0  0
  -17.1951  -23.9560   22.9366 C   0  0  0  0  0  0  0  0  0  0  0  0
  -19.1005  -11.1677   20.9195 C   0  0  0  0  0  0  0  0  0  0  0  0
  -23.6391  -18.5879   22.3017 C   0  0  0  0  0  0  0  0  0  1  0  0
  -21.7651  -25.7025   23.8847 C   0  0  1  0  0  0  0  0  0  0  0  0
  -18.0891  -25.4076   24.7620 C   0  0  2  0  0  0  0  0  0  0  0  0
  -22.7328  -26.5256   24.7812 C   0  0  0  0  0  0  0  0  0  0  0  0
  -29.4160  -16.9639   20.1914 N   0  0  0  0  0  0  0  0  0  0  0  0
  -29.9257  -15.9584   20.9230 N   0  0  0  0  0  0  0  0  0  0  0  0
  -24.0321  -14.9269   22.6550 N   0  0  0  0  0  0  0  0  0  0  0  0
  -22.3219  -24.8964   21.6123 N   0  0  0  0  0  0  0  0  0  0  0  0
  -27.7791  -12.8226   20.2869 N   0  0  0  0  0  0  0  0  0  0  0  0
  -31.2900  -15.4931   22.8026 N   0  0  0  0  0  0  0  0  0  0  0  0
  -30.7091  -19.0571   23.9662 N   0  0  0  0  0  0  0  0  0  0  0  0
  -25.6577  -12.9990   21.3015 N   0  0  0  0  0  0  0  0  0  0  0  0
  -20.5333  -11.5675   23.1556 N   0  0  0  0  0  0  0  0  0  0  0  0
  -24.6972  -26.4767   19.8151 N   0  0  0  0  0  0  0  0  0  0  0  0
  -20.3516  -25.9341   24.1617 N   0  0  0  0  0  0  0  0  0  0  0  0
  -17.0995  -24.3681   24.3607 N   0  3  0  0  0  0  0  0  0  0  0  0
  -26.0219  -14.6148   23.9285 O   0  0  0  0  0  0  0  0  0  0  0  0
  -32.5530  -19.0220   22.6033 O   0  0  0  0  0  0  0  0  0  0  0  0
  -24.8923  -24.2707   20.5348 O   0  0  0  0  0  0  0  0  0  0  0  0
  -21.7896  -27.1342   21.9936 O   0  0  0  0  0  0  0  0  0  0  0  0
  -19.8242  -23.7299   24.6524 O   0  0  0  0  0  0  0  0  0  0  0  0
  -26.3514  -11.0005   20.3297 O   0  0  0  0  0  0  0  0  0  0  0  0
  -17.9800  -11.9304   23.1400 O   0  0  0  0  0  0  0  0  0  0  0  0
  -19.4246  -13.5749   21.8933 O   0  0  0  0  0  0  0  0  0  0  0  0
  -28.6039  -23.1384   18.8638 O   0  0  0  0  0  0  0  0  0  0  0  0
  -22.8674  -18.7720   21.1155 O   0  0  0  0  0  0  0  0  0  1  0  0
  -31.5952  -27.4039   20.6700 F   0  0  0  0  0  0  0  0  0  0  0  0
  -30.0391  -24.7119   17.1011 F   0  0  0  0  0  0  0  0  0  0  0  0
  -19.1606  -12.2245   22.3492 S   0  0  0  0  0  0  0  0  0  0  0  0
  1  2  1  0  0  0  0
  1  5  2  0  0  0  0
  2  6  2  0  0  0  0
  3 10  2  0  0  0  0
  3 18  1  0  0  0  0
  4 11  1  0  0  0  0
  4 18  2  0  0  0  0
  5 20  1  0  0  0  0
  6 22  1  0  0  0  0
  7 12  2  0  0  0  0
  7 21  1  0  0  0  0
  8  9  2  0  0  0  0
  8 25  1  0  0  0  0
  9 26  1  0  0  0  0
 10 27  1  0  0  0  0
 11 27  2  0  0  0  0
 12 28  1  0  0  0  0
 13 14  2  0  0  0  0
 13 29  1  0  0  0  0
 14 30  1  0  0  0  0
 15 23  1  0  0  0  0
 15 28  2  0  0  0  0
 16 24  1  0  0  0  0
 16 25  2  0  0  0  0
 17 30  2  0  0  0  0
 17 31  1  0  0  0  0
 18 32  1  0  0  0  0
 19 32  1  0  0  0  0
 19 33  2  0  0  0  0
 19 35  1  0  0  0  0
 20 22  2  0  0  0  0
 20 40  1  0  0  0  0
 21 23  2  0  0  0  0
 21 41  1  0  0  0  0
 22 50  1  0  0  0  0
 23 42  1  0  0  0  0
 24 26  2  0  0  0  0
 24 69  1  0  0  0  0
 25 75  1  0  0  0  0
 26 74  1  0  0  0  0
 27 87  1  0  0  0  0
 28 88  1  0  0  0  0
 29 31  2  0  0  0  0
 29 87  1  0  0  0  0
 30 89  1  0  0  0  0
 31 90  1  0  0  0  0
 32 67  2  0  0  0  0
 33 68  1  0  0  0  0
 33 72  1  0  0  0  0
 34 54  1  0  0  0  0
 34 69  1  0  0  0  0
 34 79  2  0  0  0  0
 35 73  1  0  0  0  0
 35 80  2  0  0  0  0
 36 51  1  0  0  0  0
 36 76  1  0  0  0  0
 36 81  2  0  0  0  0
 37 64  1  0  0  0  0
 37 70  1  0  0  0  0
 37 82  2  0  0  0  0
 38 65  1  0  0  0  0
 38 77  1  0  0  0  0
 38 83  2  0  0  0  0
 39 71  1  0  0  0  0
 39 74  1  0  0  0  0
 39 84  2  0  0  0  0
 40 43  1  0  0  0  0
 41 51  1  0  0  0  0
 42 70  1  0  0  0  0
 43 45  1  0  0  0  0
 44 46  1  0  0  0  0
 44 47  1  0  0  0  0
 45 50  1  0  0  0  0
 46 53  1  0  0  0  0
 47 71  1  0  0  0  0
 48 52  1  0  0  0  0
 48 69  1  0  0  0  0
 49 53  1  0  0  0  0
 49 71  1  0  0  0  0
 50 76  1  0  0  0  0
 51 70  1  0  0  0  0
 52 54  1  0  0  0  0
 52 63  1  0  0  0  0
 53 68  1  0  0  0  0
 54 55  1  0  0  0  0
 54 56  1  0  0  0  0
 57 65  1  0  0  0  0
 58 66  1  0  0  0  0
 59 66  1  0  0  0  0
 60 66  1  0  0  0  0
 61 78  1  0  0  0  0
 62 91  1  0  0  0  0
 63 88  1  0  0  0  0
 64 66  1  0  0  0  0
 64 77  1  0  0  0  0
 65 78  1  0  0  0  0
 67 68  1  0  0  0  0
 75 91  1  0  0  0  0
 85 91  2  0  0  0  0
 86 91  2  0  0  0  0
M  CHG  1  78   1
M  ISO  4  39 100  63 101  74 100  88 101
M  END
> <Batch ID>
0067

> <Smiles>
CNC(C)C(=O)NC(C(=O)N1Cc2cc([101O:1][101CH2:1]C3CN(c4cc(NS(C)(=O)=O)ccc4[100NH:0][100C:0](=O)N4CCCC(n5nc(-c6ccc(Oc7ccc(F)cc7F)cc6)c(C(N)=O)c5N)C4)C(=O)C3(C)C)ccc2CC1C(=O)NC1CCCc2ccccc21)C(C)(C)C

> <Shape>
0.222

> <Color>
0.053

> <Negative vol penalty>
0.000

$$$$

  -OEChem-04042323243D

 84 92  0     1  0  0  0  0  0999 V2000
  -23.9383   -8.0469   22.0156 C   0  0  0  0  0  0  0  0  0  0  0  0
  -24.6214   -9.0760   21.3755 C   0  0  0  0  0  0  0  0  0  0  0  0
  -21.9880  -28.3362   21.3524 C   0  0  0  0  0  0  0  0  0  0  0  0
  -22.9613  -27.3711   23.3420 C   0  0  0  0  0  0  0  0  0  0  0  0
  -22.5809   -8.1854   22.3022 C   0  0  0  0  0  0  0  0  0  0  0  0
  -23.9471  -10.2439   21.0206 C   0  0  0  0  0  0  0  0  0  0  0  0
  -26.5653  -14.4239   22.1682 C   0  0  0  0  0  0  0  0  0  0  0  0
  -20.7186  -28.2264   21.9201 C   0  0  0  0  0  0  0  0  0  0  0  0
  -21.6919  -27.2613   23.9097 C   0  0  0  0  0  0  0  0  0  0  0  0
  -27.6094  -14.7758   21.3140 C   0  0  0  0  0  0  0  0  0  0  0  0
  -18.8514  -29.8991   24.1891 C   0  0  0  0  0  0  0  0  0  0  0  0
  -17.9958  -30.9954   24.0808 C   0  0  0  0  0  0  0  0  0  0  0  0
  -26.1835  -16.4067   20.2527 C   0  0  0  0  0  0  0  0  0  0  0  0
  -29.5494  -21.0029   20.9280 C   0  0  0  0  0  0  0  0  0  0  0  0
  -29.3072  -22.2975   22.9533 C   0  0  0  0  0  0  0  0  0  0  0  0
  -16.4011  -29.6323   22.8825 C   0  0  0  0  0  0  0  0  0  0  0  0
  -23.1093  -27.9085   22.0633 C   0  0  0  0  0  0  0  0  0  0  0  0
  -25.3045  -29.1127   21.5746 C   0  0  0  0  0  0  0  0  0  0  0  0
  -21.8918   -9.3594   21.9593 C   0  0  0  0  0  0  0  0  0  0  0  0
  -25.3170  -15.0542   22.0637 C   0  0  0  0  0  0  0  0  0  0  0  0
  -22.5788  -10.3977   21.3017 C   0  0  0  0  0  0  0  0  0  0  0  0
  -25.1260  -16.0628   21.1085 C   0  0  0  0  0  0  0  0  0  0  0  0
  -30.0295  -19.9950   23.0706 C   0  0  0  0  0  0  0  0  0  0  0  0
  -29.2279  -22.2019   21.5640 C   0  0  0  0  0  0  0  0  0  0  0  0
  -29.9501  -19.8994   21.6813 C   0  0  0  0  0  0  0  0  0  0  0  0
  -20.5706  -27.6889   23.1987 C   0  0  0  0  0  0  0  0  0  0  0  0
  -27.4178  -15.7653   20.3542 C   0  0  0  0  0  0  0  0  0  0  0  0
  -18.4819  -28.6694   23.6441 C   0  0  0  0  0  0  0  0  0  0  0  0
  -16.7706  -30.8620   23.4275 C   0  0  0  0  0  0  0  0  0  0  0  0
  -29.7080  -21.1941   23.7066 C   0  0  0  0  0  0  0  0  0  0  0  0
  -17.2567  -28.5360   22.9908 C   0  0  0  0  0  0  0  0  0  0  0  0
  -24.4208  -28.0212   21.4772 C   0  0  0  0  0  0  0  0  0  0  0  0
  -26.4062  -28.7281   20.8501 C   0  0  0  0  0  0  0  0  0  0  0  0
  -25.1439  -30.3624   22.2588 C   0  0  0  0  0  0  0  0  0  0  0  0
  -22.3634  -14.0850   21.3999 C   0  0  0  0  0  0  0  0  0  0  0  0
  -21.6082  -17.1510   22.1427 C   0  0  0  0  0  0  0  0  0  0  0  0
  -30.2419  -18.4410   19.6485 C   0  0  0  0  0  0  0  0  0  0  0  0
  -22.6181  -20.3998   22.4118 C   0  0  0  0  0  0  0  0  0  0  0  0
  -28.6891  -23.3965   19.4125 C   0  0  0  0  0  0  0  0  0  0  0  0
  -20.4138   -9.4440   22.2472 C   0  0  0  0  0  0  0  0  0  0  0  0
  -24.2090  -14.6819   23.0104 C   0  0  0  0  0  0  0  0  0  0  0  0
  -23.8111  -16.7840   20.9689 C   0  0  0  0  0  0  0  0  0  0  0  0
  -19.8593  -10.8644   22.1741 C   0  0  0  0  0  0  0  0  0  0  0  0
  -27.6791  -25.9589   17.1561 C   0  0  0  0  0  0  0  0  0  0  0  0
  -20.3593  -11.5686   20.9168 C   0  0  0  0  0  0  0  0  0  0  0  0
  -26.8143  -26.8811   18.0185 C   0  0  0  0  0  0  0  0  0  0  0  0
  -27.4898  -24.4900   17.5308 C   0  0  0  0  0  0  0  0  0  0  0  0
  -26.8104  -25.1059   19.8173 C   0  0  0  0  0  0  0  0  0  0  0  0
  -21.8880  -11.6897   20.9231 C   0  0  1  0  0  0  0  0  0  0  0  0
  -22.8234  -15.0291   22.4745 C   0  0  1  0  0  0  0  0  0  0  0  0
  -27.0156  -26.6004   19.5206 C   0  0  2  0  0  0  0  0  0  0  0  0
  -30.4575  -18.8275   23.8996 C   0  0  0  0  0  0  0  0  0  0  0  0
  -21.7670  -22.6844   23.0064 C   0  0  0  0  0  0  0  0  0  0  0  0
  -20.1994  -17.3265   19.4419 C   0  0  0  0  0  0  0  0  0  0  0  0
  -20.2117  -19.8191   19.6758 C   0  0  0  0  0  0  0  0  0  0  0  0
  -18.9758  -18.4190   21.3296 C   0  0  0  0  0  0  0  0  0  0  0  0
  -24.5243  -20.6513   24.6617 C   0  0  0  0  0  0  0  0  0  0  0  0
  -30.6638  -17.0049   19.3595 C   0  0  0  0  0  0  0  0  0  0  0  0
  -29.7635  -15.9729   20.0216 C   0  0  0  0  0  0  0  0  0  1  0  0
  -21.5037  -18.4436   21.3698 C   0  0  1  0  0  0  0  0  0  0  0  0
  -22.4402  -21.4214   23.5205 C   0  0  2  0  0  0  0  0  0  0  0  0
  -20.2470  -18.4873   20.4554 C   0  0  0  0  0  0  0  0  0  0  0  0
  -24.9180  -27.0185   20.7482 N   0  0  0  0  0  0  0  0  0  0  0  0
  -26.1262  -27.4785   20.3808 N   0  0  0  0  0  0  0  0  0  0  0  0
  -22.7566  -16.3800   21.9134 N   0  0  0  0  0  0  0  0  0  0  0  0
  -27.7003  -24.2992   18.9675 N   0  0  0  0  0  0  0  0  0  0  0  0
  -27.5774  -29.3404   20.5750 N   0  0  0  0  0  0  0  0  0  0  0  0
  -23.9497  -30.5944   22.9547 N   0  0  0  0  0  0  0  0  0  0  0  0
  -30.2719  -18.6915   21.0178 N   0  0  0  0  0  0  0  0  0  0  0  0
  -28.8207  -23.3228   20.7988 N   0  0  0  0  0  0  0  0  0  0  0  0
  -22.3062  -12.7633   21.7989 N   0  0  0  0  0  0  0  0  0  0  0  0
  -21.5614  -19.5157   22.3577 N   0  0  0  0  0  0  0  0  0  0  0  0
  -23.7625  -21.7951   24.0975 N   0  3  0  0  0  0  0  0  0  0  0  0
  -26.0264  -31.2536   22.2396 O   0  0  0  0  0  0  0  0  0  0  0  0
  -22.0797  -14.5235   20.2913 O   0  0  0  0  0  0  0  0  0  0  0  0
  -20.7077  -16.8405   22.9265 O   0  0  0  0  0  0  0  0  0  0  0  0
  -29.9295  -19.2219   18.7558 O   0  0  0  0  0  0  0  0  0  0  0  0
  -23.5948  -20.3896   21.6658 O   0  0  0  0  0  0  0  0  0  0  0  0
  -29.3878  -22.7576   18.6215 O   0  0  0  0  0  0  0  0  0  0  0  0
  -19.3321  -27.5818   23.7531 O   0  0  0  0  0  0  0  0  0  0  0  0
  -28.4351  -16.1102   19.5187 O   0  0  0  0  0  0  0  0  0  1  0  0
  -15.9484  -31.9144   23.3250 F   0  0  0  0  0  0  0  0  0  0  0  0
  -29.7825  -21.2969   25.0411 F   0  0  0  0  0  0  0  0  0  0  0  0
  -16.8957  -27.3569   22.4663 F   0  0  0  0  0  0  0  0  0  0  0  0
  1  2  1  0  0  0  0
  1  5  2  0  0  0  0
  2  6  2  0  0  0  0
  3  8  2  0  0  0  0
  3 17  1  0  0  0  0
  4  9  1  0  0  0  0
  4 17  2  0  0  0  0
  5 19  1  0  0  0  0
  6 21  1  0  0  0  0
  7 10  2  0  0  0  0
  7 20  1  0  0  0  0
  8 26  1  0  0  0  0
  9 26  2  0  0  0  0
 10 27  1  0  0  0  0
 11 12  2  0  0  0  0
 11 28  1  0  0  0  0
 12 29  1  0  0  0  0
 13 22  1  0  0  0  0
 13 27  2  0  0  0  0
 14 24  2  0  0  0  0
 14 25  1  0  0  0  0
 15 24  1  0  0  0  0
 15 30  2  0  0  0  0
 16 29  2  0  0  0  0
 16 31  1  0  0  0  0
 17 32  1  0  0  0  0
 18 32  1  0  0  0  0
 18 33  2  0  0  0  0
 18 34  1  0  0  0  0
 19 21  2  0  0  0  0
 19 40  1  0  0  0  0
 20 22  2  0  0  0  0
 20 41  1  0  0  0  0
 21 49  1  0  0  0  0
 22 42  1  0  0  0  0
 23 25  2  0  0  0  0
 23 30  1  0  0  0  0
 23 52  1  0  0  0  0
 24 70  1  0  0  0  0
 25 69  1  0  0  0  0
 26 80  1  0  0  0  0
 27 81  1  0  0  0  0
 28 31  2  0  0  0  0
 28 80  1  0  0  0  0
 29 82  1  0  0  0  0
 30 83  1  0  0  0  0
 31 84  1  0  0  0  0
 32 63  2  0  0  0  0
 33 64  1  0  0  0  0
 33 67  1  0  0  0  0
 34 68  1  0  0  0  0
 34 74  2  0  0  0  0
 35 50  1  0  0  0  0
 35 71  1  0  0  0  0
 35 75  2  0  0  0  0
 36 60  1  0  0  0  0
 36 65  1  0  0  0  0
 36 76  2  0  0  0  0
 37 58  1  0  0  0  0
 37 69  1  0  0  0  0
 37 77  2  0  0  0  0
 38 61  1  0  0  0  0
 38 72  1  0  0  0  0
 38 78  2  0  0  0  0
 39 66  1  0  0  0  0
 39 70  1  0  0  0  0
 39 79  2  0  0  0  0
 40 43  1  0  0  0  0
 41 50  1  0  0  0  0
 42 65  1  0  0  0  0
 43 45  1  0  0  0  0
 44 46  1  0  0  0  0
 44 47  1  0  0  0  0
 45 49  1  0  0  0  0
 46 51  1  0  0  0  0
 47 66  1  0  0  0  0
 48 51  1  0  0  0  0
 48 66  1  0  0  0  0
 49 71  1  0  0  0  0
 50 65  1  0  0  0  0
 51 64  1  0  0  0  0
 53 61  1  0  0  0  0
 54 62  1  0  0  0  0
 55 62  1  0  0  0  0
 56 62  1  0  0  0  0
 57 73  1  0  0  0  0
 58 59  1  0  0  0  0
 59 81  1  0  0  0  0
 60 62  1  0  0  0  0
 60 72  1  0  0  0  0
 61 73  1  0  0  0  0
 63 64  1  0  0  0  0
M  CHG  1  73   1
M  ISO  4  39 100  59 101  70 100  81 101
M  END
> <Batch ID>
0067

> <Smiles>
CNC(C)C(=O)NC(C(=O)N1Cc2cc([101O:1][101CH2:1]CC(=O)Nc3cc([100NH:0][100C:0](=O)N4CCCC(n5nc(-c6ccc(Oc7ccc(F)cc7F)cc6)c(C(N)=O)c5N)C4)cc(F)c3C)ccc2CC1C(=O)NC1CCCc2ccccc21)C(C)(C)C

> <Shape>
0.247

> <Color>
0.087

> <Negative vol penalty>
0.000

$$$$

  -OEChem-04042323243D

 89 98  0     1  0  0  0  0  0999 V2000
  -20.7167  -11.3342   17.6811 C   0  0  0  0  0  0  0  0  0  0  0  0
  -21.3088  -12.5035   17.2146 C   0  0  0  0  0  0  0  0  0  0  0  0
  -24.6516  -29.3699   18.9014 C   0  0  0  0  0  0  0  0  0  0  0  0
  -24.6366  -23.1576   23.5185 C   0  0  0  0  0  0  0  0  0  0  0  0
  -22.2815  -22.7295   23.8463 C   0  0  0  0  0  0  0  0  0  0  0  0
  -20.9602  -10.9028   18.9844 C   0  0  0  0  0  0  0  0  0  0  0  0
  -22.1439  -13.2428   18.0516 C   0  0  0  0  0  0  0  0  0  0  0  0
  -27.9613  -17.4186   17.8600 C   0  0  0  0  0  0  0  0  0  0  0  0
  -25.5668  -28.3180   18.9400 C   0  0  0  0  0  0  0  0  0  0  0  0
  -24.4846  -30.1904   20.0171 C   0  0  0  0  0  0  0  0  0  0  0  0
  -24.9463  -22.1685   24.4519 C   0  0  0  0  0  0  0  0  0  0  0  0
  -22.5913  -21.7404   24.7798 C   0  0  0  0  0  0  0  0  0  0  0  0
  -28.3999  -18.6744   18.2776 C   0  0  0  0  0  0  0  0  0  0  0  0
  -25.1129  -18.7926   24.5417 C   0  0  0  0  0  0  0  0  0  0  0  0
  -26.1262  -17.8903   24.2181 C   0  0  0  0  0  0  0  0  0  0  0  0
  -28.8112  -17.7905   20.4841 C   0  0  0  0  0  0  0  0  0  0  0  0
  -27.3794  -18.6024   26.1570 C   0  0  0  0  0  0  0  0  0  0  0  0
  -23.3041  -23.4382   23.2157 C   0  0  0  0  0  0  0  0  0  0  0  0
  -22.8195  -24.2977   20.8632 C   0  0  0  0  0  0  0  0  0  0  0  0
  -21.8064  -11.6320   19.8346 C   0  0  0  0  0  0  0  0  0  0  0  0
  -27.9340  -16.3401   18.7559 C   0  0  0  0  0  0  0  0  0  0  0  0
  -22.3979  -12.8214   19.3679 C   0  0  0  0  0  0  0  0  0  0  0  0
  -28.3743  -16.5214   20.0748 C   0  0  0  0  0  0  0  0  0  0  0  0
  -26.1478  -28.9068   21.2100 C   0  0  0  0  0  0  0  0  0  0  0  0
  -26.3149  -28.0864   20.0942 C   0  0  0  0  0  0  0  0  0  0  0  0
  -25.2327  -29.9588   21.1714 C   0  0  0  0  0  0  0  0  0  0  0  0
  -23.9237  -21.4599   25.0826 C   0  0  0  0  0  0  0  0  0  0  0  0
  -28.8222  -18.8612   19.5905 C   0  0  0  0  0  0  0  0  0  0  0  0
  -25.2328  -19.5998   25.6729 C   0  0  0  0  0  0  0  0  0  0  0  0
  -27.2594  -17.7952   25.0257 C   0  0  0  0  0  0  0  0  0  0  0  0
  -26.3661  -19.5047   26.4806 C   0  0  0  0  0  0  0  0  0  0  0  0
  -22.9835  -24.4602   22.2519 C   0  0  0  0  0  0  0  0  0  0  0  0
  -22.5255  -25.5577   20.4024 C   0  0  0  0  0  0  0  0  0  0  0  0
  -28.6342  -27.0934   20.3184 C   0  0  0  0  0  0  0  0  0  0  0  0
  -22.9236  -23.1136   20.0615 C   0  0  0  0  0  0  0  0  0  0  0  0
  -25.6570  -14.4655   19.9410 C   0  0  0  0  0  0  0  0  0  0  0  0
  -28.1755  -12.8820   21.2340 C   0  0  0  0  0  0  0  0  0  0  0  0
  -28.6627  -22.4151   20.2925 C   0  0  0  0  0  0  0  0  0  0  0  0
  -31.4223  -12.9667   22.2819 C   0  0  0  0  0  0  0  0  0  0  0  0
  -23.8068  -30.9633   22.9739 C   0  0  0  0  0  0  0  0  0  0  0  0
  -22.0020  -11.1513   21.2507 C   0  0  0  0  0  0  0  0  0  0  0  0
  -27.4834  -14.9853   18.2827 C   0  0  0  0  0  0  0  0  0  0  0  0
  -28.3837  -15.3910   21.0701 C   0  0  0  0  0  0  0  0  0  0  0  0
  -29.2048  -25.7039   20.1468 C   0  0  0  0  0  0  0  0  0  0  0  0
  -23.1969  -11.7922   21.9519 C   0  0  0  0  0  0  0  0  0  0  0  0
  -20.5521  -29.6975   21.7500 C   0  0  0  0  0  0  0  0  0  0  0  0
  -23.2009  -13.3011   21.7282 C   0  0  0  0  0  0  0  0  0  0  0  0
  -20.7713  -28.1864   21.7041 C   0  0  0  0  0  0  0  0  0  0  0  0
  -21.4119  -30.3622   22.8208 C   0  0  0  0  0  0  0  0  0  0  0  0
  -23.0899  -28.5476   22.6396 C   0  0  0  0  0  0  0  0  0  0  0  0
  -26.8455  -25.6383   19.8264 C   0  0  0  0  0  0  0  0  0  0  0  0
  -23.3295  -13.6375   20.2376 C   0  0  1  0  0  0  0  0  0  0  0  0
  -27.0125  -14.0820   19.4183 C   0  0  1  0  0  0  0  0  0  0  0  0
  -22.2650  -27.8597   21.5416 C   0  0  1  0  0  0  0  0  0  0  0  0
  -27.9992  -24.8015   20.3489 C   0  0  1  0  0  0  0  0  0  0  0  0
  -26.9503  -28.6576   22.4496 C   0  0  0  0  0  0  0  0  0  0  0  0
  -33.1927  -11.5286   23.3283 C   0  0  0  0  0  0  0  0  0  0  0  0
  -26.8064  -13.1737   23.9452 C   0  0  0  0  0  0  0  0  0  0  0  0
  -28.9885  -12.6003   25.0307 C   0  0  0  0  0  0  0  0  0  0  0  0
  -27.8629  -10.9426   23.5447 C   0  0  0  0  0  0  0  0  0  0  0  0
  -26.1014  -31.7716   22.6375 C   0  0  0  0  0  0  0  0  0  0  0  0
  -33.2033  -13.2499   19.9352 C   0  0  0  0  0  0  0  0  0  0  0  0
  -28.6754  -21.2236   19.3588 C   0  0  0  0  0  0  0  0  0  1  0  0
  -28.9534  -12.9825   22.5239 C   0  0  1  0  0  0  0  0  0  0  0  0
  -32.5882  -12.0289   22.0256 C   0  0  2  0  0  0  0  0  0  0  0  0
  -28.1509  -12.4467   23.7431 C   0  0  0  0  0  0  0  0  0  0  0  0
  -22.8084  -25.7238   22.6475 N   0  0  0  0  0  0  0  0  0  0  0  0
  -22.5314  -26.3669   21.5003 N   0  0  0  0  0  0  0  0  0  0  0  0
  -27.2439  -27.0038   20.1116 N   0  0  0  0  0  0  0  0  0  0  0  0
  -27.9279  -14.0869   20.5612 N   0  0  0  0  0  0  0  0  0  0  0  0
  -22.8226  -29.9943   22.6899 N   0  0  0  0  0  0  0  0  0  0  0  0
  -22.2652  -26.0414   19.1693 N   0  0  0  0  0  0  0  0  0  0  0  0
  -23.2328  -21.9025   20.6954 N   0  0  0  0  0  0  0  0  0  0  0  0
  -24.6998  -13.4789   19.8001 N   0  0  0  0  0  0  0  0  0  0  0  0
  -28.1252  -23.5379   19.6829 N   0  0  0  0  0  0  0  0  0  0  0  0
  -30.2187  -12.2941   22.2922 N   0  0  0  0  0  0  0  0  0  0  0  0
  -25.0419  -30.8189   22.3135 N   0  0  0  0  0  0  0  0  0  0  0  0
  -33.6532  -12.7263   21.2507 N   0  3  0  0  0  0  0  0  0  0  0  0
  -29.3370  -28.0697   20.5359 O   0  0  0  0  0  0  0  0  0  0  0  0
  -22.7638  -23.1320   18.8174 O   0  0  0  0  0  0  0  0  0  0  0  0
  -25.4921  -15.5739   20.4369 O   0  0  0  0  0  0  0  0  0  0  0  0
  -27.8075  -11.7745   20.8344 O   0  0  0  0  0  0  0  0  0  0  0  0
  -29.0860  -22.3614   21.4440 O   0  0  0  0  0  0  0  0  0  0  0  0
  -31.5654  -14.1744   22.4591 O   0  0  0  0  0  0  0  0  0  0  0  0
  -23.6190  -31.8638   23.8012 O   0  0  0  0  0  0  0  0  0  0  0  0
  -24.2256  -20.4945   25.9933 O   0  0  0  0  0  0  0  0  0  0  0  0
  -29.2502  -20.0861   20.0008 O   0  0  0  0  0  0  0  0  0  1  0  0
  -28.2317  -16.9276   24.7157 F   0  0  0  0  0  0  0  0  0  0  0  0
  -26.4865  -20.2768   27.5693 F   0  0  0  0  0  0  0  0  0  0  0  0
  1  2  1  0  0  0  0
  1  6  2  0  0  0  0
  2  7  2  0  0  0  0
  3  9  2  0  0  0  0
  3 10  1  0  0  0  0
  4 11  2  0  0  0  0
  4 18  1  0  0  0  0
  5 12  1  0  0  0  0
  5 18  2  0  0  0  0
  6 20  1  0  0  0  0
  7 22  1  0  0  0  0
  8 13  2  0  0  0  0
  8 21  1  0  0  0  0
  9 25  1  0  0  0  0
 10 26  2  0  0  0  0
 11 27  1  0  0  0  0
 12 27  2  0  0  0  0
 13 28  1  0  0  0  0
 14 15  2  0  0  0  0
 14 29  1  0  0  0  0
 15 30  1  0  0  0  0
 16 23  1  0  0  0  0
 16 28  2  0  0  0  0
 17 30  2  0  0  0  0
 17 31  1  0  0  0  0
 18 32  1  0  0  0  0
 19 32  1  0  0  0  0
 19 33  2  0  0  0  0
 19 35  1  0  0  0  0
 20 22  2  0  0  0  0
 20 41  1  0  0  0  0
 21 23  2  0  0  0  0
 21 42  1  0  0  0  0
 22 52  1  0  0  0  0
 23 43  1  0  0  0  0
 24 25  2  0  0  0  0
 24 26  1  0  0  0  0
 24 56  1  0  0  0  0
 25 69  1  0  0  0  0
 26 77  1  0  0  0  0
 27 86  1  0  0  0  0
 28 87  1  0  0  0  0
 29 31  2  0  0  0  0
 29 86  1  0  0  0  0
 30 88  1  0  0  0  0
 31 89  1  0  0  0  0
 32 67  2  0  0  0  0
 33 68  1  0  0  0  0
 33 72  1  0  0  0  0
 34 44  1  0  0  0  0
 34 69  1  0  0  0  0
 34 79  2  0  0  0  0
 35 73  1  0  0  0  0
 35 80  2  0  0  0  0
 36 53  1  0  0  0  0
 36 74  1  0  0  0  0
 36 81  2  0  0  0  0
 37 64  1  0  0  0  0
 37 70  1  0  0  0  0
 37 82  2  0  0  0  0
 38 63  1  0  0  0  0
 38 75  1  0  0  0  0
 38 83  2  0  0  0  0
 39 65  1  0  0  0  0
 39 76  1  0  0  0  0
 39 84  2  0  0  0  0
 40 71  1  0  0  0  0
 40 77  1  0  0  0  0
 40 85  2  0  0  0  0
 41 45  1  0  0  0  0
 42 53  1  0  0  0  0
 43 70  1  0  0  0  0
 44 55  1  0  0  0  0
 45 47  1  0  0  0  0
 46 48  1  0  0  0  0
 46 49  1  0  0  0  0
 47 52  1  0  0  0  0
 48 54  1  0  0  0  0
 49 71  1  0  0  0  0
 50 54  1  0  0  0  0
 50 71  1  0  0  0  0
 51 55  1  0  0  0  0
 51 69  1  0  0  0  0
 52 74  1  0  0  0  0
 53 70  1  0  0  0  0
 54 68  1  0  0  0  0
 55 75  1  0  0  0  0
 57 65  1  0  0  0  0
 58 66  1  0  0  0  0
 59 66  1  0  0  0  0
 60 66  1  0  0  0  0
 61 77  1  0  0  0  0
 62 78  1  0  0  0  0
 63 87  1  0  0  0  0
 64 66  1  0  0  0  0
 64 76  1  0  0  0  0
 65 78  1  0  0  0  0
 67 68  1  0  0  0  0
M  CHG  1  78   1
M  ISO  4  40 100  63 101  77 100  87 101
M  END
> <Batch ID>
0067

> <Smiles>
CNC(C)C(=O)NC(C(=O)N1Cc2cc([101O:1][101CH2:1]C(=O)NC3CC(=O)N(c4cccc([100N:0](C)[100C:0](=O)N5CCCC(n6nc(-c7ccc(Oc8ccc(F)cc8F)cc7)c(C(N)=O)c6N)C5)c4C)C3)ccc2CC1C(=O)NC1CCCc2ccccc21)C(C)(C)C

> <Shape>
0.232

> <Color>
0.059

> <Negative vol penalty>
0.000

$$$$

  -OEChem-04042323243D

 83 91  0     1  0  0  0  0  0999 V2000
  -18.4675  -31.6214   22.9236 C   0  0  0  0  0  0  0  0  0  0  0  0
  -19.8558  -31.5414   22.8813 C   0  0  0  0  0  0  0  0  0  0  0  0
  -28.0184  -12.7004   22.4147 C   0  0  0  0  0  0  0  0  0  0  0  0
  -26.8059  -12.9691   20.3424 C   0  0  0  0  0  0  0  0  0  0  0  0
  -17.7008  -30.4595   22.8469 C   0  0  0  0  0  0  0  0  0  0  0  0
  -20.4781  -30.2991   22.7634 C   0  0  0  0  0  0  0  0  0  0  0  0
  -25.6579  -29.0481   19.7450 C   0  0  0  0  0  0  0  0  0  0  0  0
  -27.4924  -11.4163   22.5560 C   0  0  0  0  0  0  0  0  0  0  0  0
  -26.2799  -11.6850   20.4836 C   0  0  0  0  0  0  0  0  0  0  0  0
  -26.9776  -28.8979   20.1688 C   0  0  0  0  0  0  0  0  0  0  0  0
  -23.8200  -10.1807   22.2491 C   0  0  0  0  0  0  0  0  0  0  0  0
  -22.4571  -10.0084   22.0073 C   0  0  0  0  0  0  0  0  0  0  0  0
  -26.6690  -26.5073   20.2627 C   0  0  0  0  0  0  0  0  0  0  0  0
  -29.0662  -23.5314   19.4922 C   0  0  0  0  0  0  0  0  0  0  0  0
  -30.7036  -24.1242   17.8176 C   0  0  0  0  0  0  0  0  0  0  0  0
  -29.5256  -22.0204   17.6639 C   0  0  0  0  0  0  0  0  0  0  0  0
  -22.9685   -8.4426   20.2399 C   0  0  0  0  0  0  0  0  0  0  0  0
  -27.6751  -13.4768   21.3079 C   0  0  0  0  0  0  0  0  0  0  0  0
  -29.4116  -15.1668   20.5101 C   0  0  0  0  0  0  0  0  0  0  0  0
  -18.3138  -29.2032   22.7183 C   0  0  0  0  0  0  0  0  0  0  0  0
  -24.8292  -27.9280   19.5871 C   0  0  0  0  0  0  0  0  0  0  0  0
  -19.7189  -29.1192   22.6863 C   0  0  0  0  0  0  0  0  0  0  0  0
  -25.3400  -26.6457   19.8343 C   0  0  0  0  0  0  0  0  0  0  0  0
  -30.0047  -24.4302   18.9853 C   0  0  0  0  0  0  0  0  0  0  0  0
  -28.8267  -22.3265   18.8315 C   0  0  0  0  0  0  0  0  0  0  0  0
  -26.6232  -10.9086   21.5904 C   0  0  0  0  0  0  0  0  0  0  0  0
  -27.4825  -27.6276   20.4305 C   0  0  0  0  0  0  0  0  0  0  0  0
  -24.7572   -9.4840   21.4861 C   0  0  0  0  0  0  0  0  0  0  0  0
  -22.0313   -9.1394   21.0028 C   0  0  0  0  0  0  0  0  0  0  0  0
  -30.4641  -22.9192   17.1569 C   0  0  0  0  0  0  0  0  0  0  0  0
  -24.3314   -8.6149   20.4816 C   0  0  0  0  0  0  0  0  0  0  0  0
  -28.2177  -14.8036   21.1618 C   0  0  0  0  0  0  0  0  0  0  0  0
  -29.4766  -16.5318   20.6481 C   0  0  0  0  0  0  0  0  0  0  0  0
  -30.3756  -14.3438   19.8399 C   0  0  0  0  0  0  0  0  0  0  0  0
  -22.1214  -26.9347   20.9231 C   0  0  0  0  0  0  0  0  0  0  0  0
  -22.3192  -24.6086   18.6709 C   0  0  0  0  0  0  0  0  0  0  0  0
  -31.1423  -26.6564   19.2921 C   0  0  0  0  0  0  0  0  0  0  0  0
  -24.2797  -22.7782   16.5607 C   0  0  0  0  0  0  0  0  0  0  0  0
  -27.0943  -21.5620   20.4931 C   0  0  0  0  0  0  0  0  0  0  0  0
  -17.4445  -27.9711   22.6867 C   0  0  0  0  0  0  0  0  0  0  0  0
  -23.4160  -28.1048   19.1035 C   0  0  0  0  0  0  0  0  0  0  0  0
  -24.4975  -25.4094   19.6605 C   0  0  0  0  0  0  0  0  0  0  0  0
  -18.1713  -26.7256   22.1859 C   0  0  0  0  0  0  0  0  0  0  0  0
  -26.7329  -19.6886   23.4992 C   0  0  0  0  0  0  0  0  0  0  0  0
  -19.5321  -26.5933   22.8624 C   0  0  0  0  0  0  0  0  0  0  0  0
  -27.1852  -18.2806   23.1054 C   0  0  0  0  0  0  0  0  0  0  0  0
  -25.9724  -20.3773   22.3673 C   0  0  0  0  0  0  0  0  0  0  0  0
  -27.1242  -18.9972   20.6827 C   0  0  0  0  0  0  0  0  0  0  0  0
  -20.4302  -27.7921   22.5341 C   0  0  1  0  0  0  0  0  0  0  0  0
  -22.5079  -26.9353   19.4711 C   0  0  1  0  0  0  0  0  0  0  0  0
  -27.9508  -18.2880   21.7678 C   0  0  2  0  0  0  0  0  0  0  0  0
  -24.1618  -20.9250   14.8728 C   0  0  0  0  0  0  0  0  0  0  0  0
  -22.0432  -22.5738   20.9278 C   0  0  0  0  0  0  0  0  0  0  0  0
  -22.8726  -20.8156   19.3502 C   0  0  0  0  0  0  0  0  0  0  0  0
  -20.7451  -22.0232   18.8623 C   0  0  0  0  0  0  0  0  0  0  0  0
  -25.2922  -24.5269   14.3982 C   0  0  0  0  0  0  0  0  0  0  0  0
  -31.0897  -27.8054   20.2925 C   0  0  0  0  0  0  0  0  0  0  0  0
  -29.7145  -28.4478   20.3930 C   0  0  0  0  0  0  0  0  0  1  0  0
  -22.9474  -23.2376   18.6023 C   0  0  1  0  0  0  0  0  0  0  0  0
  -24.1260  -22.4296   15.0912 C   0  0  2  0  0  0  0  0  0  0  0  0
  -22.1676  -22.1858   19.4409 C   0  0  0  0  0  0  0  0  0  0  0  0
  -27.5710  -15.8532   21.6757 N   0  0  0  0  0  0  0  0  0  0  0  0
  -28.3613  -16.8893   21.3471 N   0  0  0  0  0  0  0  0  0  0  0  0
  -23.1201  -25.6348   19.1917 N   0  0  0  0  0  0  0  0  0  0  0  0
  -26.7605  -20.3498   21.1332 N   0  0  0  0  0  0  0  0  0  0  0  0
  -30.3784  -17.4491   20.2386 N   0  0  0  0  0  0  0  0  0  0  0  0
  -30.1544  -12.9607   19.7908 N   0  0  0  0  0  0  0  0  0  0  0  0
  -30.2483  -25.6527   19.6553 N   0  0  0  0  0  0  0  0  0  0  0  0
  -27.8736  -21.4130   19.3463 N   0  0  0  0  0  0  0  0  0  0  0  0
  -20.9799  -27.6619   21.2017 N   0  0  0  0  0  0  0  0  0  0  0  0
  -23.0573  -22.9094   17.1851 N   0  0  0  0  0  0  0  0  0  0  0  0
  -25.2243  -23.0464   14.2949 N   0  3  0  0  0  0  0  0  0  0  0  0
  -31.4109  -14.8190   19.3148 O   0  0  0  0  0  0  0  0  0  0  0  0
  -22.8072  -26.3188   21.7306 O   0  0  0  0  0  0  0  0  0  0  0  0
  -21.1630  -24.7647   18.2704 O   0  0  0  0  0  0  0  0  0  0  0  0
  -31.8903  -26.6707   18.3202 O   0  0  0  0  0  0  0  0  0  0  0  0
  -25.3747  -22.9165   17.1015 O   0  0  0  0  0  0  0  0  0  0  0  0
  -26.7395  -22.6537   20.9451 O   0  0  0  0  0  0  0  0  0  0  0  0
  -26.1099   -9.6555   21.7278 O   0  0  0  0  0  0  0  0  0  0  0  0
  -28.7701  -27.4782   20.8449 O   0  0  0  0  0  0  0  0  0  1  0  0
  -20.7225   -8.9729   20.7718 F   0  0  0  0  0  0  0  0  0  0  0  0
  -31.1358  -22.6248   16.0360 F   0  0  0  0  0  0  0  0  0  0  0  0
  -25.2270   -7.9419   19.7462 F   0  0  0  0  0  0  0  0  0  0  0  0
  1  2  1  0  0  0  0
  1  5  2  0  0  0  0
  2  6  2  0  0  0  0
  3  8  2  0  0  0  0
  3 18  1  0  0  0  0
  4  9  1  0  0  0  0
  4 18  2  0  0  0  0
  5 20  1  0  0  0  0
  6 22  1  0  0  0  0
  7 10  2  0  0  0  0
  7 21  1  0  0  0  0
  8 26  1  0  0  0  0
  9 26  2  0  0  0  0
 10 27  1  0  0  0  0
 11 12  2  0  0  0  0
 11 28  1  0  0  0  0
 12 29  1  0  0  0  0
 13 23  1  0  0  0  0
 13 27  2  0  0  0  0
 14 24  2  0  0  0  0
 14 25  1  0  0  0  0
 15 24  1  0  0  0  0
 15 30  2  0  0  0  0
 16 25  2  0  0  0  0
 16 30  1  0  0  0  0
 17 29  2  0  0  0  0
 17 31  1  0  0  0  0
 18 32  1  0  0  0  0
 19 32  1  0  0  0  0
 19 33  2  0  0  0  0
 19 34  1  0  0  0  0
 20 22  2  0  0  0  0
 20 40  1  0  0  0  0
 21 23  2  0  0  0  0
 21 41  1  0  0  0  0
 22 49  1  0  0  0  0
 23 42  1  0  0  0  0
 24 68  1  0  0  0  0
 25 69  1  0  0  0  0
 26 79  1  0  0  0  0
 27 80  1  0  0  0  0
 28 31  2  0  0  0  0
 28 79  1  0  0  0  0
 29 81  1  0  0  0  0
 30 82  1  0  0  0  0
 31 83  1  0  0  0  0
 32 62  2  0  0  0  0
 33 63  1  0  0  0  0
 33 66  1  0  0  0  0
 34 67  1  0  0  0  0
 34 73  2  0  0  0  0
 35 50  1  0  0  0  0
 35 70  1  0  0  0  0
 35 74  2  0  0  0  0
 36 59  1  0  0  0  0
 36 64  1  0  0  0  0
 36 75  2  0  0  0  0
 37 57  1  0  0  0  0
 37 68  1  0  0  0  0
 37 76  2  0  0  0  0
 38 60  1  0  0  0  0
 38 71  1  0  0  0  0
 38 77  2  0  0  0  0
 39 65  1  0  0  0  0
 39 69  1  0  0  0  0
 39 78  2  0  0  0  0
 40 43  1  0  0  0  0
 41 50  1  0  0  0  0
 42 64  1  0  0  0  0
 43 45  1  0  0  0  0
 44 46  1  0  0  0  0
 44 47  1  0  0  0  0
 45 49  1  0  0  0  0
 46 51  1  0  0  0  0
 47 65  1  0  0  0  0
 48 51  1  0  0  0  0
 48 65  1  0  0  0  0
 49 70  1  0  0  0  0
 50 64  1  0  0  0  0
 51 63  1  0  0  0  0
 52 60  1  0  0  0  0
 53 61  1  0  0  0  0
 54 61  1  0  0  0  0
 55 61  1  0  0  0  0
 56 72  1  0  0  0  0
 57 58  1  0  0  0  0
 58 80  1  0  0  0  0
 59 61  1  0  0  0  0
 59 71  1  0  0  0  0
 60 72  1  0  0  0  0
 62 63  1  0  0  0  0
M  CHG  1  72   1
M  ISO  4  39 100  58 101  69 100  80 101
M  END
> <Batch ID>
0067

> <Smiles>
CNC(C)C(=O)NC(C(=O)N1Cc2cc([101O:1][101CH2:1]CC(=O)Nc3cc(F)cc([100NH:0][100C:0](=O)N4CCCC(n5nc(-c6ccc(Oc7ccc(F)cc7F)cc6)c(C(N)=O)c5N)C4)c3)ccc2CC1C(=O)NC1CCCc2ccccc21)C(C)(C)C

> <Shape>
0.268

> <Color>
0.082

> <Negative vol penalty>
0.000

$$$$

  -OEChem-04042323243D

 86 94  0     1  0  0  0  0  0999 V2000
  -17.2727  -31.9449   22.4734 C   0  0  0  0  0  0  0  0  0  0  0  0
  -18.5003  -32.2572   21.8983 C   0  0  0  0  0  0  0  0  0  0  0  0
  -25.9469  -14.6410   21.6920 C   0  0  0  0  0  0  0  0  0  0  0  0
  -25.6162  -15.6616   19.5273 C   0  0  0  0  0  0  0  0  0  0  0  0
  -17.1809  -30.9026   23.3949 C   0  0  0  0  0  0  0  0  0  0  0  0
  -19.6372  -31.5280   22.2452 C   0  0  0  0  0  0  0  0  0  0  0  0
  -25.8029  -29.1496   19.4806 C   0  0  0  0  0  0  0  0  0  0  0  0
  -24.5796  -14.3783   21.7771 C   0  0  0  0  0  0  0  0  0  0  0  0
  -24.2490  -15.3989   19.6123 C   0  0  0  0  0  0  0  0  0  0  0  0
  -27.1726  -29.1541   19.7407 C   0  0  0  0  0  0  0  0  0  0  0  0
  -21.7570  -16.0852   22.5145 C   0  0  0  0  0  0  0  0  0  0  0  0
  -21.1170  -16.3698   23.7207 C   0  0  0  0  0  0  0  0  0  0  0  0
  -26.8795  -27.3236   21.2843 C   0  0  0  0  0  0  0  0  0  0  0  0
  -29.8207  -24.5930   16.8782 C   0  0  0  0  0  0  0  0  0  0  0  0
  -29.8612  -22.1993   17.2031 C   0  0  0  0  0  0  0  0  0  0  0  0
  -30.6506  -23.6691   18.9506 C   0  0  0  0  0  0  0  0  0  0  0  0
  -20.4829  -14.0480   23.9320 C   0  0  0  0  0  0  0  0  0  0  0  0
  -26.4652  -15.2826   20.5672 C   0  0  0  0  0  0  0  0  0  0  0  0
  -28.8715  -14.7204   19.9336 C   0  0  0  0  0  0  0  0  0  0  0  0
  -18.3153  -30.1540   23.7460 C   0  0  0  0  0  0  0  0  0  0  0  0
  -24.9582  -28.2376   20.1297 C   0  0  0  0  0  0  0  0  0  0  0  0
  -19.5607  -30.4756   23.1732 C   0  0  0  0  0  0  0  0  0  0  0  0
  -25.4998  -27.3078   21.0287 C   0  0  0  0  0  0  0  0  0  0  0  0
  -29.5711  -23.3052   16.4040 C   0  0  0  0  0  0  0  0  0  0  0  0
  -30.3605  -24.7749   18.1515 C   0  0  0  0  0  0  0  0  0  0  0  0
  -30.4009  -22.3812   18.4764 C   0  0  0  0  0  0  0  0  0  0  0  0
  -23.7307  -14.7573   20.7372 C   0  0  0  0  0  0  0  0  0  0  0  0
  -27.7107  -28.2429   20.6448 C   0  0  0  0  0  0  0  0  0  0  0  0
  -21.7599  -14.7820   22.0170 C   0  0  0  0  0  0  0  0  0  0  0  0
  -20.4799  -15.3512   24.4295 C   0  0  0  0  0  0  0  0  0  0  0  0
  -21.1229  -13.7635   22.7258 C   0  0  0  0  0  0  0  0  0  0  0  0
  -27.8774  -15.5547   20.4790 C   0  0  0  0  0  0  0  0  0  0  0  0
  -30.0377  -15.4291   20.0887 C   0  0  0  0  0  0  0  0  0  0  0  0
  -28.7514  -13.4209   19.3398 C   0  0  0  0  0  0  0  0  0  0  0  0
  -22.4928  -28.4889   22.1203 C   0  0  0  0  0  0  0  0  0  0  0  0
  -22.3310  -25.2758   21.7054 C   0  0  0  0  0  0  0  0  0  0  0  0
  -31.1447  -26.4440   19.8671 C   0  0  0  0  0  0  0  0  0  0  0  0
  -23.9329  -22.3761   20.8854 C   0  0  0  0  0  0  0  0  0  0  0  0
  -31.2353  -21.2631   20.5740 C   0  0  0  0  0  0  0  0  0  0  0  0
  -18.1757  -29.0671   24.7822 C   0  0  0  0  0  0  0  0  0  0  0  0
  -23.4867  -28.2280   19.8181 C   0  0  0  0  0  0  0  0  0  0  0  0
  -24.6388  -26.2948   21.7365 C   0  0  0  0  0  0  0  0  0  0  0  0
  -19.3568  -28.1006   24.8141 C   0  0  0  0  0  0  0  0  0  0  0  0
  -32.0753  -18.7150   22.9146 C   0  0  0  0  0  0  0  0  0  0  0  0
  -20.6751  -28.8677   24.7914 C   0  0  0  0  0  0  0  0  0  0  0  0
  -31.1890  -17.5374   22.5022 C   0  0  0  0  0  0  0  0  0  0  0  0
  -31.3582  -20.0526   22.7407 C   0  0  0  0  0  0  0  0  0  0  0  0
  -29.9011  -19.1048   20.9950 C   0  0  0  0  0  0  0  0  0  0  0  0
  -20.8118  -29.6917   23.5053 C   0  0  1  0  0  0  0  0  0  0  0  0
  -22.6462  -27.5947   20.9226 C   0  0  1  0  0  0  0  0  0  0  0  0
  -30.6029  -17.7403   21.0912 C   0  0  2  0  0  0  0  0  0  0  0  0
  -23.5486  -19.9053   20.6735 C   0  0  0  0  0  0  0  0  0  0  0  0
  -22.4104  -25.0053   24.7435 C   0  0  0  0  0  0  0  0  0  0  0  0
  -22.9792  -22.5857   24.4436 C   0  0  0  0  0  0  0  0  0  0  0  0
  -20.8031  -23.4673   23.6010 C   0  0  0  0  0  0  0  0  0  0  0  0
  -24.5951  -22.4030   18.0011 C   0  0  0  0  0  0  0  0  0  0  0  0
  -31.2516  -27.9607   19.9777 C   0  0  0  0  0  0  0  0  0  0  0  0
  -29.9101  -28.6655   19.8449 C   0  0  0  0  0  0  0  0  0  1  0  0
  -22.9387  -24.0771   22.3929 C   0  0  1  0  0  0  0  0  0  0  0  0
  -23.5496  -21.2432   19.9505 C   0  0  2  0  0  0  0  0  0  0  0  0
  -28.9951  -23.1111   15.0418 C   0  0  0  0  0  0  0  0  0  0  0  0
  -22.2991  -23.8041   23.7835 C   0  0  0  0  0  0  0  0  0  0  0  0
  -28.3692  -16.7055   20.9459 N   0  0  0  0  0  0  0  0  0  0  0  0
  -29.6851  -16.5992   20.6943 N   0  0  0  0  0  0  0  0  0  0  0  0
  -23.2052  -26.3294   21.4031 N   0  0  0  0  0  0  0  0  0  0  0  0
  -30.8333  -20.1763   21.3791 N   0  0  0  0  0  0  0  0  0  0  0  0
  -31.3202  -15.1594   19.7648 N   0  0  0  0  0  0  0  0  0  0  0  0
  -27.4794  -12.8377   19.2599 N   0  0  0  0  0  0  0  0  0  0  0  0
  -30.6137  -26.0817   18.6321 N   0  0  0  0  0  0  0  0  0  0  0  0
  -30.6969  -21.2579   19.2877 N   0  0  0  0  0  0  0  0  0  0  0  0
  -21.1851  -28.8398   22.3965 N   0  0  0  0  0  0  0  0  0  0  0  0
  -22.8241  -22.9663   21.4541 N   0  0  0  0  0  0  0  0  0  0  0  0
  -24.5099  -21.1623   18.8137 N   0  3  0  0  0  0  0  0  0  0  0  0
  -29.7449  -12.7884   18.9080 O   0  0  0  0  0  0  0  0  0  0  0  0
  -23.4870  -28.8337   22.7482 O   0  0  0  0  0  0  0  0  0  0  0  0
  -21.1264  -25.2742   21.4396 O   0  0  0  0  0  0  0  0  0  0  0  0
  -31.4939  -25.6970   20.7750 O   0  0  0  0  0  0  0  0  0  0  0  0
  -25.0995  -22.7022   21.0936 O   0  0  0  0  0  0  0  0  0  0  0  0
  -32.0221  -22.1196   20.9856 O   0  0  0  0  0  0  0  0  0  0  0  0
  -22.3965  -14.5009   20.8197 O   0  0  0  0  0  0  0  0  0  0  0  0
  -29.0472  -28.2456   20.9010 O   0  0  0  0  0  0  0  0  0  1  0  0
  -19.8666  -15.6244   25.5886 F   0  0  0  0  0  0  0  0  0  0  0  0
  -21.1234  -12.5094   22.2535 F   0  0  0  0  0  0  0  0  0  0  0  0
  -28.7635  -24.2799   14.3739 F   0  0  0  0  0  0  0  0  0  0  0  0
  -29.7930  -22.3779   14.2104 F   0  0  0  0  0  0  0  0  0  0  0  0
  -27.7959  -22.4599   15.0669 F   0  0  0  0  0  0  0  0  0  0  0  0
  1  2  1  0  0  0  0
  1  5  2  0  0  0  0
  2  6  2  0  0  0  0
  3  8  2  0  0  0  0
  3 18  1  0  0  0  0
  4  9  1  0  0  0  0
  4 18  2  0  0  0  0
  5 20  1  0  0  0  0
  6 22  1  0  0  0  0
  7 10  2  0  0  0  0
  7 21  1  0  0  0  0
  8 27  1  0  0  0  0
  9 27  2  0  0  0  0
 10 28  1  0  0  0  0
 11 12  2  0  0  0  0
 11 29  1  0  0  0  0
 12 30  1  0  0  0  0
 13 23  1  0  0  0  0
 13 28  2  0  0  0  0
 14 24  1  0  0  0  0
 14 25  2  0  0  0  0
 15 24  2  0  0  0  0
 15 26  1  0  0  0  0
 16 25  1  0  0  0  0
 16 26  2  0  0  0  0
 17 30  2  0  0  0  0
 17 31  1  0  0  0  0
 18 32  1  0  0  0  0
 19 32  1  0  0  0  0
 19 33  2  0  0  0  0
 19 34  1  0  0  0  0
 20 22  2  0  0  0  0
 20 40  1  0  0  0  0
 21 23  2  0  0  0  0
 21 41  1  0  0  0  0
 22 49  1  0  0  0  0
 23 42  1  0  0  0  0
 24 61  1  0  0  0  0
 25 69  1  0  0  0  0
 26 70  1  0  0  0  0
 27 80  1  0  0  0  0
 28 81  1  0  0  0  0
 29 31  2  0  0  0  0
 29 80  1  0  0  0  0
 30 82  1  0  0  0  0
 31 83  1  0  0  0  0
 32 63  2  0  0  0  0
 33 64  1  0  0  0  0
 33 67  1  0  0  0  0
 34 68  1  0  0  0  0
 34 74  2  0  0  0  0
 35 50  1  0  0  0  0
 35 71  1  0  0  0  0
 35 75  2  0  0  0  0
 36 59  1  0  0  0  0
 36 65  1  0  0  0  0
 36 76  2  0  0  0  0
 37 57  1  0  0  0  0
 37 69  1  0  0  0  0
 37 77  2  0  0  0  0
 38 60  1  0  0  0  0
 38 72  1  0  0  0  0
 38 78  2  0  0  0  0
 39 66  1  0  0  0  0
 39 70  1  0  0  0  0
 39 79  2  0  0  0  0
 40 43  1  0  0  0  0
 41 50  1  0  0  0  0
 42 65  1  0  0  0  0
 43 45  1  0  0  0  0
 44 46  1  0  0  0  0
 44 47  1  0  0  0  0
 45 49  1  0  0  0  0
 46 51  1  0  0  0  0
 47 66  1  0  0  0  0
 48 51  1  0  0  0  0
 48 66  1  0  0  0  0
 49 71  1  0  0  0  0
 50 65  1  0  0  0  0
 51 64  1  0  0  0  0
 52 60  1  0  0  0  0
 53 62  1  0  0  0  0
 54 62  1  0  0  0  0
 55 62  1  0  0  0  0
 56 73  1  0  0  0  0
 57 58  1  0  0  0  0
 58 81  1  0  0  0  0
 59 62  1  0  0  0  0
 59 72  1  0  0  0  0
 60 73  1  0  0  0  0
 61 84  1  0  0  0  0
 61 85  1  0  0  0  0
 61 86  1  0  0  0  0
 63 64  1  0  0  0  0
M  CHG  1  73   1
M  ISO  4  39 100  58 101  70 100  81 101
M  END
> <Batch ID>
0067

> <Smiles>
CNC(C)C(=O)NC(C(=O)N1Cc2cc([101O:1][101CH2:1]CC(=O)Nc3cc([100NH:0][100C:0](=O)N4CCCC(n5nc(-c6ccc(Oc7ccc(F)cc7F)cc6)c(C(N)=O)c5N)C4)cc(C(F)(F)F)c3)ccc2CC1C(=O)NC1CCCc2ccccc21)C(C)(C)C

> <Shape>
0.236

> <Color>
0.079

> <Negative vol penalty>
0.000

$$$$

  -OEChem-04042323243D

 83 91  0     1  0  0  0  0  0999 V2000
  -24.7333  -18.7856   25.0109 C   0  0  0  0  0  0  0  0  0  0  0  0
  -23.7438  -18.3726   24.1258 C   0  0  0  0  0  0  0  0  0  0  0  0
  -26.9565  -29.4349   20.5632 C   0  0  0  0  0  0  0  0  0  0  0  0
  -25.5248  -27.5653   21.1033 C   0  0  0  0  0  0  0  0  0  0  0  0
  -25.8900  -19.3908   24.5242 C   0  0  0  0  0  0  0  0  0  0  0  0
  -23.9159  -18.5539   22.7531 C   0  0  0  0  0  0  0  0  0  0  0  0
  -27.6976  -15.4803   16.7943 C   0  0  0  0  0  0  0  0  0  0  0  0
  -25.8505  -30.2847   20.5724 C   0  0  0  0  0  0  0  0  0  0  0  0
  -24.4187  -28.4151   21.1126 C   0  0  0  0  0  0  0  0  0  0  0  0
  -28.9496  -14.8670   16.7758 C   0  0  0  0  0  0  0  0  0  0  0  0
  -23.0259  -30.6651   23.2146 C   0  0  0  0  0  0  0  0  0  0  0  0
  -22.1193  -30.5348   24.2666 C   0  0  0  0  0  0  0  0  0  0  0  0
  -28.4009  -13.6992   18.8140 C   0  0  0  0  0  0  0  0  0  0  0  0
  -31.4421  -17.3119   21.0301 C   0  0  0  0  0  0  0  0  0  0  0  0
  -31.2403  -19.6871   21.4236 C   0  0  0  0  0  0  0  0  0  0  0  0
  -31.2871  -18.8369   19.1626 C   0  0  0  0  0  0  0  0  0  0  0  0
  -20.3621  -30.0239   22.6891 C   0  0  0  0  0  0  0  0  0  0  0  0
  -26.7937  -28.0752   20.8286 C   0  0  0  0  0  0  0  0  0  0  0  0
  -28.7687  -26.8729   21.9063 C   0  0  0  0  0  0  0  0  0  0  0  0
  -26.0700  -19.5906   23.1455 C   0  0  0  0  0  0  0  0  0  0  0  0
  -26.7906  -15.2155   17.8304 C   0  0  0  0  0  0  0  0  0  0  0  0
  -25.0869  -19.1411   22.2406 C   0  0  0  0  0  0  0  0  0  0  0  0
  -27.1371  -14.3085   18.8420 C   0  0  0  0  0  0  0  0  0  0  0  0
  -31.3593  -18.3870   21.9149 C   0  0  0  0  0  0  0  0  0  0  0  0
  -31.4061  -17.5369   19.6540 C   0  0  0  0  0  0  0  0  0  0  0  0
  -31.2042  -19.9120   20.0475 C   0  0  0  0  0  0  0  0  0  0  0  0
  -24.5815  -29.7748   20.8472 C   0  0  0  0  0  0  0  0  0  0  0  0
  -29.3025  -13.9785   17.7873 C   0  0  0  0  0  0  0  0  0  0  0  0
  -22.6006  -30.4748   21.8998 C   0  0  0  0  0  0  0  0  0  0  0  0
  -20.7874  -30.2142   24.0039 C   0  0  0  0  0  0  0  0  0  0  0  0
  -21.2688  -30.1543   21.6371 C   0  0  0  0  0  0  0  0  0  0  0  0
  -27.9358  -27.1968   20.8186 C   0  0  0  0  0  0  0  0  0  0  0  0
  -29.6981  -26.0085   21.3816 C   0  0  0  0  0  0  0  0  0  0  0  0
  -28.7077  -27.3140   23.2692 C   0  0  0  0  0  0  0  0  0  0  0  0
  -25.3961  -16.9610   20.0915 C   0  0  0  0  0  0  0  0  0  0  0  0
  -23.7816  -14.2087   20.6747 C   0  0  0  0  0  0  0  0  0  0  0  0
  -23.6826  -10.8047   20.4507 C   0  0  0  0  0  0  0  0  0  0  0  0
  -31.6038  -15.0955   19.0713 C   0  0  0  0  0  0  0  0  0  0  0  0
  -31.0343  -21.6296   18.2124 C   0  0  0  0  0  0  0  0  0  0  0  0
  -27.3448  -20.2438   22.6727 C   0  0  0  0  0  0  0  0  0  0  0  0
  -25.4338  -15.8648   17.8215 C   0  0  0  0  0  0  0  0  0  0  0  0
  -26.1916  -13.9748   19.9659 C   0  0  0  0  0  0  0  0  0  0  0  0
  -27.2409  -20.7918   21.2531 C   0  0  0  0  0  0  0  0  0  0  0  0
  -30.7064  -24.7752   16.5770 C   0  0  0  0  0  0  0  0  0  0  0  0
  -26.6660  -19.7304   20.3271 C   0  0  0  0  0  0  0  0  0  0  0  0
  -30.0249  -25.6590   17.6242 C   0  0  0  0  0  0  0  0  0  0  0  0
  -30.1862  -23.3396   16.6212 C   0  0  0  0  0  0  0  0  0  0  0  0
  -29.5554  -23.5851   18.9900 C   0  0  0  0  0  0  0  0  0  0  0  0
  -25.2386  -19.3557   20.7455 C   0  0  1  0  0  0  0  0  0  0  0  0
  -24.7863  -15.9148   19.2019 C   0  0  1  0  0  0  0  0  0  0  0  0
  -30.0931  -25.0249   19.0273 C   0  0  2  0  0  0  0  0  0  0  0  0
  -31.3992  -18.1461   23.3865 C   0  0  0  0  0  0  0  0  0  0  0  0
  -22.2517   -8.8320   21.0490 C   0  0  0  0  0  0  0  0  0  0  0  0
  -32.9297  -13.3845   17.7774 C   0  0  0  0  0  0  0  0  0  0  0  0
  -24.6626  -14.4555   23.5855 C   0  0  0  0  0  0  0  0  0  0  0  0
  -24.0409  -12.0514   23.9048 C   0  0  0  0  0  0  0  0  0  0  0  0
  -22.2943  -13.7161   23.2715 C   0  0  0  0  0  0  0  0  0  0  0  0
  -23.3801  -10.0167   17.6141 C   0  0  0  0  0  0  0  0  0  0  0  0
  -24.0072  -13.0027   21.5543 C   0  0  1  0  0  0  0  0  0  0  0  0
  -22.5940   -9.8575   19.9795 C   0  0  2  0  0  0  0  0  0  0  0  0
  -31.6670  -14.2325   17.8136 C   0  0  1  0  0  0  0  0  0  1  0  0
  -23.7701  -13.3140   23.0590 C   0  0  0  0  0  0  0  0  0  0  0  0
  -28.3037  -26.5878   19.6882 N   0  0  0  0  0  0  0  0  0  0  0  0
  -29.3781  -25.8726   20.0628 N   0  0  0  0  0  0  0  0  0  0  0  0
  -24.8792  -14.6400   19.9164 N   0  0  0  0  0  0  0  0  0  0  0  0
  -30.2859  -22.8030   17.9803 N   0  0  0  0  0  0  0  0  0  0  0  0
  -30.7498  -25.3589   21.9243 N   0  0  0  0  0  0  0  0  0  0  0  0
  -27.6885  -28.2023   23.6389 N   0  0  0  0  0  0  0  0  0  0  0  0
  -31.4904  -16.4457   18.7566 N   0  0  0  0  0  0  0  0  0  0  0  0
  -31.0846  -21.2328   19.5483 N   0  0  0  0  0  0  0  0  0  0  0  0
  -24.8085  -18.2067   19.9796 N   0  0  0  0  0  0  0  0  0  0  0  0
  -23.1563  -11.9441   21.0218 N   0  0  0  0  0  0  0  0  0  0  0  0
  -23.0340   -9.1306   18.7552 N   0  3  0  0  0  0  0  0  0  0  0  0
  -29.5422  -26.9446   24.1297 O   0  0  0  0  0  0  0  0  0  0  0  0
  -26.3296  -16.6600   20.8260 O   0  0  0  0  0  0  0  0  0  0  0  0
  -22.6703  -14.7438   20.6556 O   0  0  0  0  0  0  0  0  0  0  0  0
  -24.8802  -10.5569   20.3281 O   0  0  0  0  0  0  0  0  0  0  0  0
  -31.6371  -14.5924   20.1906 O   0  0  0  0  0  0  0  0  0  0  0  0
  -31.6121  -21.0369   17.2977 O   0  0  0  0  0  0  0  0  0  0  0  0
  -23.5021  -30.6038   20.8566 O   0  0  0  0  0  0  0  0  0  0  0  0
  -30.5241  -13.3791   17.7720 O   0  0  0  0  0  0  0  0  0  1  0  0
  -19.9173  -30.0876   25.0143 F   0  0  0  0  0  0  0  0  0  0  0  0
  -20.8546  -29.9692   20.3761 F   0  0  0  0  0  0  0  0  0  0  0  0
  1  2  1  0  0  0  0
  1  5  2  0  0  0  0
  2  6  2  0  0  0  0
  3  8  2  0  0  0  0
  3 18  1  0  0  0  0
  4  9  1  0  0  0  0
  4 18  2  0  0  0  0
  5 20  1  0  0  0  0
  6 22  1  0  0  0  0
  7 10  2  0  0  0  0
  7 21  1  0  0  0  0
  8 27  1  0  0  0  0
  9 27  2  0  0  0  0
 10 28  1  0  0  0  0
 11 12  2  0  0  0  0
 11 29  1  0  0  0  0
 12 30  1  0  0  0  0
 13 23  1  0  0  0  0
 13 28  2  0  0  0  0
 14 24  2  0  0  0  0
 14 25  1  0  0  0  0
 15 24  1  0  0  0  0
 15 26  2  0  0  0  0
 16 25  2  0  0  0  0
 16 26  1  0  0  0  0
 17 30  2  0  0  0  0
 17 31  1  0  0  0  0
 18 32  1  0  0  0  0
 19 32  1  0  0  0  0
 19 33  2  0  0  0  0
 19 34  1  0  0  0  0
 20 22  2  0  0  0  0
 20 40  1  0  0  0  0
 21 23  2  0  0  0  0
 21 41  1  0  0  0  0
 22 49  1  0  0  0  0
 23 42  1  0  0  0  0
 24 52  1  0  0  0  0
 25 69  1  0  0  0  0
 26 70  1  0  0  0  0
 27 80  1  0  0  0  0
 28 81  1  0  0  0  0
 29 31  2  0  0  0  0
 29 80  1  0  0  0  0
 30 82  1  0  0  0  0
 31 83  1  0  0  0  0
 32 63  2  0  0  0  0
 33 64  1  0  0  0  0
 33 67  1  0  0  0  0
 34 68  1  0  0  0  0
 34 74  2  0  0  0  0
 35 50  1  0  0  0  0
 35 71  1  0  0  0  0
 35 75  2  0  0  0  0
 36 59  1  0  0  0  0
 36 65  1  0  0  0  0
 36 76  2  0  0  0  0
 37 60  1  0  0  0  0
 37 72  1  0  0  0  0
 37 77  2  0  0  0  0
 38 61  1  0  0  0  0
 38 69  1  0  0  0  0
 38 78  2  0  0  0  0
 39 66  1  0  0  0  0
 39 70  1  0  0  0  0
 39 79  2  0  0  0  0
 40 43  1  0  0  0  0
 41 50  1  0  0  0  0
 42 65  1  0  0  0  0
 43 45  1  0  0  0  0
 44 46  1  0  0  0  0
 44 47  1  0  0  0  0
 45 49  1  0  0  0  0
 46 51  1  0  0  0  0
 47 66  1  0  0  0  0
 48 51  1  0  0  0  0
 48 66  1  0  0  0  0
 49 71  1  0  0  0  0
 50 65  1  0  0  0  0
 51 64  1  0  0  0  0
 53 60  1  0  0  0  0
 54 61  1  0  0  0  0
 55 62  1  0  0  0  0
 56 62  1  0  0  0  0
 57 62  1  0  0  0  0
 58 73  1  0  0  0  0
 59 62  1  0  0  0  0
 59 72  1  0  0  0  0
 60 73  1  0  0  0  0
 61 81  1  0  0  0  0
 63 64  1  0  0  0  0
M  CHG  1  73   1
M  ISO  4  39 100  61 101  70 100  81 101
M  END
> <Batch ID>
0067

> <Smiles>
CNC(C)C(=O)NC(C(=O)N1Cc2cc([101O:1][101CH:1](C)C(=O)Nc3cc(C)cc([100NH:0][100C:0](=O)N4CCCC(n5nc(-c6ccc(Oc7ccc(F)cc7F)cc6)c(C(N)=O)c5N)C4)c3)ccc2CC1C(=O)NC1CCCc2ccccc21)C(C)(C)C

> <Shape>
0.239

> <Color>
0.063

> <Negative vol penalty>
0.000

$$$$

  -OEChem-04042323243D

 84 92  0     1  0  0  0  0  0999 V2000
  -16.8365  -11.5526   29.1945 C   0  0  0  0  0  0  0  0  0  0  0  0
  -18.1778  -11.5510   29.5636 C   0  0  0  0  0  0  0  0  0  0  0  0
  -23.2883   -9.8003   19.9133 C   0  0  0  0  0  0  0  0  0  0  0  0
  -23.7418   -9.9400   22.2822 C   0  0  0  0  0  0  0  0  0  0  0  0
  -16.4012  -12.3758   28.1568 C   0  0  0  0  0  0  0  0  0  0  0  0
  -19.0849  -12.3718   28.8943 C   0  0  0  0  0  0  0  0  0  0  0  0
  -23.9584  -15.1982   31.2955 C   0  0  0  0  0  0  0  0  0  0  0  0
  -32.8087  -13.5236   23.7173 C   0  0  0  0  0  0  0  0  0  0  0  0
  -22.5626   -8.6274   20.1213 C   0  0  0  0  0  0  0  0  0  0  0  0
  -23.0161   -8.7670   22.4903 C   0  0  0  0  0  0  0  0  0  0  0  0
  -25.3153  -14.8781   31.3107 C   0  0  0  0  0  0  0  0  0  0  0  0
  -19.7697   -7.8546   22.7111 C   0  0  0  0  0  0  0  0  0  0  0  0
  -33.5785  -13.7822   24.8513 C   0  0  0  0  0  0  0  0  0  0  0  0
  -18.8686   -7.8320   23.7755 C   0  0  0  0  0  0  0  0  0  0  0  0
  -30.8899  -13.0876   25.1191 C   0  0  0  0  0  0  0  0  0  0  0  0
  -25.6653  -16.2974   29.3917 C   0  0  0  0  0  0  0  0  0  0  0  0
  -20.0763   -5.9848   24.7587 C   0  0  0  0  0  0  0  0  0  0  0  0
  -23.8779  -10.4566   20.9937 C   0  0  0  0  0  0  0  0  0  0  0  0
  -31.6597  -13.3462   26.2532 C   0  0  0  0  0  0  0  0  0  0  0  0
  -24.1361  -12.9868   20.7960 C   0  0  0  0  0  0  0  0  0  0  0  0
  -17.3016  -13.2142   27.4809 C   0  0  0  0  0  0  0  0  0  0  0  0
  -23.4420  -16.0632   30.3201 C   0  0  0  0  0  0  0  0  0  0  0  0
  -18.6615  -13.2059   27.8457 C   0  0  0  0  0  0  0  0  0  0  0  0
  -24.3020  -16.6289   29.3679 C   0  0  0  0  0  0  0  0  0  0  0  0
  -31.4643  -13.1763   23.8511 C   0  0  0  0  0  0  0  0  0  0  0  0
  -22.4265   -8.1108   21.4098 C   0  0  0  0  0  0  0  0  0  0  0  0
  -26.1684  -15.4255   30.3569 C   0  0  0  0  0  0  0  0  0  0  0  0
  -20.8241   -6.9422   22.6703 C   0  0  0  0  0  0  0  0  0  0  0  0
  -19.0219   -6.8972   24.7993 C   0  0  0  0  0  0  0  0  0  0  0  0
  -33.0040  -13.6935   26.1193 C   0  0  0  0  0  0  0  0  0  0  0  0
  -20.9774   -6.0074   23.6941 C   0  0  0  0  0  0  0  0  0  0  0  0
  -24.6281  -11.6679   20.7794 C   0  0  0  0  0  0  0  0  0  0  0  0
  -25.2369  -13.7672   20.5401 C   0  0  0  0  0  0  0  0  0  0  0  0
  -31.0490  -13.2508   27.5951 C   0  0  0  0  0  0  0  0  0  0  0  0
  -22.8031  -13.4638   21.0227 C   0  0  0  0  0  0  0  0  0  0  0  0
  -21.2975  -15.7912   27.9896 C   0  0  0  0  0  0  0  0  0  0  0  0
  -21.7998  -18.9814   27.6847 C   0  0  0  0  0  0  0  0  0  0  0  0
  -29.2923  -14.1113   29.1261 C   0  0  0  0  0  0  0  0  0  0  0  0
  -23.8736  -21.6475   28.1729 C   0  0  0  0  0  0  0  0  0  0  0  0
  -31.0986  -12.9549   21.3685 C   0  0  0  0  0  0  0  0  0  0  0  0
  -16.7929  -14.0516   26.3342 C   0  0  0  0  0  0  0  0  0  0  0  0
  -21.9807  -16.4195   30.3337 C   0  0  0  0  0  0  0  0  0  0  0  0
  -23.8010  -17.5787   28.3119 C   0  0  0  0  0  0  0  0  0  0  0  0
  -17.7493  -15.1686   25.9245 C   0  0  0  0  0  0  0  0  0  0  0  0
  -29.4612  -13.6601   18.2865 C   0  0  0  0  0  0  0  0  0  0  0  0
  -19.1745  -14.6366   25.8120 C   0  0  0  0  0  0  0  0  0  0  0  0
  -27.9903  -13.3551   18.5793 C   0  0  0  0  0  0  0  0  0  0  0  0
  -30.3956  -12.6850   19.0004 C   0  0  0  0  0  0  0  0  0  0  0  0
  -28.7047  -12.2554   20.7397 C   0  0  0  0  0  0  0  0  0  0  0  0
  -19.6713  -14.1006   27.1601 C   0  0  1  0  0  0  0  0  0  0  0  0
  -21.4720  -16.9071   28.9806 C   0  0  1  0  0  0  0  0  0  0  0  0
  -27.7271  -13.2512   20.0944 C   0  0  2  0  0  0  0  0  0  0  0  0
  -24.0249  -24.1222   27.7857 C   0  0  0  0  0  0  0  0  0  0  0  0
  -22.3765  -18.4814   24.7305 C   0  0  0  0  0  0  0  0  0  0  0  0
  -23.4223  -20.7536   24.6217 C   0  0  0  0  0  0  0  0  0  0  0  0
  -21.0058  -20.5209   25.1952 C   0  0  0  0  0  0  0  0  0  0  0  0
  -24.0885  -22.2051   31.0715 C   0  0  0  0  0  0  0  0  0  0  0  0
  -28.1726  -15.1175   29.1142 C   0  0  0  0  0  0  0  0  0  1  0  0
  -22.7531  -19.8425   26.8918 C   0  0  1  0  0  0  0  0  0  0  0  0
  -23.6221  -23.0251   28.7588 C   0  0  2  0  0  0  0  0  0  0  0  0
  -22.3988  -19.8802   25.3784 C   0  0  0  0  0  0  0  0  0  0  0  0
  -25.9395  -11.6099   20.5322 N   0  0  0  0  0  0  0  0  0  0  0  0
  -26.2807  -12.9021   20.3912 N   0  0  0  0  0  0  0  0  0  0  0  0
  -22.3632  -17.8912   28.3629 N   0  0  0  0  0  0  0  0  0  0  0  0
  -30.0905  -12.6422   20.4321 N   0  0  0  0  0  0  0  0  0  0  0  0
  -25.4042  -15.1023   20.4301 N   0  0  0  0  0  0  0  0  0  0  0  0
  -21.7912  -12.5263   21.2709 N   0  0  0  0  0  0  0  0  0  0  0  0
  -30.6830  -12.9125   22.6989 N   0  0  0  0  0  0  0  0  0  0  0  0
  -30.0105  -14.0502   27.8750 N   0  0  0  0  0  0  0  0  0  0  0  0
  -20.0523  -15.1933   28.0291 N   0  0  0  0  0  0  0  0  0  0  0  0
  -22.7551  -21.1506   27.5378 N   0  0  0  0  0  0  0  0  0  0  0  0
  -31.5670  -12.3702   28.4509 N   0  3  0  0  0  0  0  0  0  0  0  0
  -24.4013  -23.2032   30.0166 N   0  3  0  0  0  0  0  0  0  0  0  0
  -22.5147  -14.6841   20.9893 O   0  0  0  0  0  0  0  0  0  0  0  0
  -22.2234  -15.4956   27.2434 O   0  0  0  0  0  0  0  0  0  0  0  0
  -20.6006  -19.2696   27.7073 O   0  0  0  0  0  0  0  0  0  0  0  0
  -29.5910  -13.4023   30.0763 O   0  0  0  0  0  0  0  0  0  0  0  0
  -24.9552  -21.0713   28.2660 O   0  0  0  0  0  0  0  0  0  0  0  0
  -32.2389  -13.2658   21.0149 O   0  0  0  0  0  0  0  0  0  0  0  0
  -21.7183   -6.9664   21.6132 O   0  0  0  0  0  0  0  0  0  0  0  0
  -27.4931  -15.1142   30.3690 O   0  0  0  0  0  0  0  0  0  1  0  0
  -18.1575   -6.8766   25.8223 F   0  0  0  0  0  0  0  0  0  0  0  0
  -33.7516  -13.9435   27.2033 F   0  0  0  0  0  0  0  0  0  0  0  0
  -21.9890   -5.1291   23.6611 F   0  0  0  0  0  0  0  0  0  0  0  0
  1  2  1  0  0  0  0
  1  5  2  0  0  0  0
  2  6  2  0  0  0  0
  3  9  2  0  0  0  0
  3 18  1  0  0  0  0
  4 10  1  0  0  0  0
  4 18  2  0  0  0  0
  5 21  1  0  0  0  0
  6 23  1  0  0  0  0
  7 11  2  0  0  0  0
  7 22  1  0  0  0  0
  8 13  2  0  0  0  0
  8 25  1  0  0  0  0
  9 26  1  0  0  0  0
 10 26  2  0  0  0  0
 11 27  1  0  0  0  0
 12 14  2  0  0  0  0
 12 28  1  0  0  0  0
 13 30  1  0  0  0  0
 14 29  1  0  0  0  0
 15 19  1  0  0  0  0
 15 25  2  0  0  0  0
 16 24  1  0  0  0  0
 16 27  2  0  0  0  0
 17 29  2  0  0  0  0
 17 31  1  0  0  0  0
 18 32  1  0  0  0  0
 19 30  2  0  0  0  0
 19 34  1  0  0  0  0
 20 32  1  0  0  0  0
 20 33  2  0  0  0  0
 20 35  1  0  0  0  0
 21 23  2  0  0  0  0
 21 41  1  0  0  0  0
 22 24  2  0  0  0  0
 22 42  1  0  0  0  0
 23 50  1  0  0  0  0
 24 43  1  0  0  0  0
 25 68  1  0  0  0  0
 26 80  1  0  0  0  0
 27 81  1  0  0  0  0
 28 31  2  0  0  0  0
 28 80  1  0  0  0  0
 29 82  1  0  0  0  0
 30 83  1  0  0  0  0
 31 84  1  0  0  0  0
 32 62  2  0  0  0  0
 33 63  1  0  0  0  0
 33 66  1  0  0  0  0
 34 69  1  0  0  0  0
 34 72  2  0  0  0  0
 35 67  1  0  0  0  0
 35 74  2  0  0  0  0
 36 51  1  0  0  0  0
 36 70  1  0  0  0  0
 36 75  2  0  0  0  0
 37 59  1  0  0  0  0
 37 64  1  0  0  0  0
 37 76  2  0  0  0  0
 38 58  1  0  0  0  0
 38 69  1  0  0  0  0
 38 77  2  0  0  0  0
 39 60  1  0  0  0  0
 39 71  1  0  0  0  0
 39 78  2  0  0  0  0
 40 65  1  0  0  0  0
 40 68  1  0  0  0  0
 40 79  2  0  0  0  0
 41 44  1  0  0  0  0
 42 51  1  0  0  0  0
 43 64  1  0  0  0  0
 44 46  1  0  0  0  0
 45 47  1  0  0  0  0
 45 48  1  0  0  0  0
 46 50  1  0  0  0  0
 47 52  1  0  0  0  0
 48 65  1  0  0  0  0
 49 52  1  0  0  0  0
 49 65  1  0  0  0  0
 50 70  1  0  0  0  0
 51 64  1  0  0  0  0
 52 63  1  0  0  0  0
 53 60  1  0  0  0  0
 54 61  1  0  0  0  0
 55 61  1  0  0  0  0
 56 61  1  0  0  0  0
 57 73  1  0  0  0  0
 58 81  1  0  0  0  0
 59 61  1  0  0  0  0
 59 71  1  0  0  0  0
 60 73  1  0  0  0  0
 62 63  1  0  0  0  0
M  CHG  2  72   1  73   1
M  ISO  4  40 100  58 101  68 100  81 101
M  END
> <Batch ID>
0067

> <Smiles>
CNC(C)C(=O)NC(C(=O)N1Cc2cc([101O:1][101CH2:1]C(=O)NC(=N)c3cc([100NH:0][100C:0](=O)N4CCCC(n5nc(-c6ccc(Oc7ccc(F)cc7F)cc6)c(C(N)=O)c5N)C4)ccc3F)ccc2CC1C(=O)NC1CCCc2ccccc21)C(C)(C)C

> <Shape>
0.133

> <Color>
0.171

> <Negative vol penalty>
0.000

$$$$

  -OEChem-04042323243D

 88 96  0     1  0  0  0  0  0999 V2000
  -28.7448  -37.3385   23.7065 C   0  0  0  0  0  0  0  0  0  0  0  0
  -29.1592  -36.1219   23.1740 C   0  0  0  0  0  0  0  0  0  0  0  0
  -31.7617  -19.2970   18.9591 C   0  0  0  0  0  0  0  0  0  0  0  0
  -24.7765  -11.5451   24.0385 C   0  0  0  0  0  0  0  0  0  0  0  0
  -24.4496  -13.9383   23.9842 C   0  0  0  0  0  0  0  0  0  0  0  0
  -30.8844  -20.3335   19.2775 C   0  0  0  0  0  0  0  0  0  0  0  0
  -27.6300  -37.3888   24.5423 C   0  0  0  0  0  0  0  0  0  0  0  0
  -28.4596  -34.9546   23.4779 C   0  0  0  0  0  0  0  0  0  0  0  0
  -27.5299  -30.1540   19.7907 C   0  0  0  0  0  0  0  0  0  0  0  0
  -31.2818  -17.9944   18.8219 C   0  0  0  0  0  0  0  0  0  0  0  0
  -24.4906  -11.5370   25.4037 C   0  0  0  0  0  0  0  0  0  0  0  0
  -24.1636  -13.9302   25.3494 C   0  0  0  0  0  0  0  0  0  0  0  0
  -28.1696  -28.9205   19.6775 C   0  0  0  0  0  0  0  0  0  0  0  0
  -21.7459  -11.6591   27.3747 C   0  0  0  0  0  0  0  0  0  0  0  0
  -20.8830  -10.6719   27.8504 C   0  0  0  0  0  0  0  0  0  0  0  0
  -29.0473  -18.7650   19.3217 C   0  0  0  0  0  0  0  0  0  0  0  0
  -26.4899  -27.9260   21.0948 C   0  0  0  0  0  0  0  0  0  0  0  0
  -22.6273   -9.8482   29.3050 C   0  0  0  0  0  0  0  0  0  0  0  0
  -24.7560  -12.7458   23.3288 C   0  0  0  0  0  0  0  0  0  0  0  0
  -29.5272  -20.0676   19.4588 C   0  0  0  0  0  0  0  0  0  0  0  0
  -24.1387  -12.6063   20.8575 C   0  0  0  0  0  0  0  0  0  0  0  0
  -26.9106  -36.2229   24.8489 C   0  0  0  0  0  0  0  0  0  0  0  0
  -26.3695  -30.2854   20.5670 C   0  0  0  0  0  0  0  0  0  0  0  0
  -27.3349  -34.9891   24.3197 C   0  0  0  0  0  0  0  0  0  0  0  0
  -25.8359  -29.1618   21.2142 C   0  0  0  0  0  0  0  0  0  0  0  0
  -29.9246  -17.7285   19.0032 C   0  0  0  0  0  0  0  0  0  0  0  0
  -24.1841  -12.7296   26.0592 C   0  0  0  0  0  0  0  0  0  0  0  0
  -27.6513  -27.8069   20.3319 C   0  0  0  0  0  0  0  0  0  0  0  0
  -23.0496  -11.7408   27.8640 C   0  0  0  0  0  0  0  0  0  0  0  0
  -21.3237   -9.7665   28.8156 C   0  0  0  0  0  0  0  0  0  0  0  0
  -23.4903  -10.8354   28.8292 C   0  0  0  0  0  0  0  0  0  0  0  0
  -25.0518  -12.7549   21.9186 C   0  0  0  0  0  0  0  0  0  0  0  0
  -24.9120  -12.6871   19.7253 C   0  0  0  0  0  0  0  0  0  0  0  0
  -28.5975  -21.1644   19.7954 C   0  0  0  0  0  0  0  0  0  0  0  0
  -22.7185  -12.4126   20.8922 C   0  0  0  0  0  0  0  0  0  0  0  0
  -25.5783  -31.9546   23.1538 C   0  0  0  0  0  0  0  0  0  0  0  0
  -28.4896  -24.2356   20.6891 C   0  0  0  0  0  0  0  0  0  0  0  0
  -22.6253  -30.7578   22.5458 C   0  0  0  0  0  0  0  0  0  0  0  0
  -20.7306  -28.3121   21.1051 C   0  0  0  0  0  0  0  0  0  0  0  0
  -30.1743  -15.2628   18.5511 C   0  0  0  0  0  0  0  0  0  0  0  0
  -25.7401  -36.3199   25.7950 C   0  0  0  0  0  0  0  0  0  0  0  0
  -25.6763  -31.6172   20.6573 C   0  0  0  0  0  0  0  0  0  0  0  0
  -24.5813  -29.2455   22.0433 C   0  0  0  0  0  0  0  0  0  0  0  0
  -24.8310  -35.0939   25.7669 C   0  0  0  0  0  0  0  0  0  0  0  0
  -29.3520  -11.8215   18.1532 C   0  0  0  0  0  0  0  0  0  0  0  0
  -25.6591  -33.8140   25.8218 C   0  0  0  0  0  0  0  0  0  0  0  0
  -28.0695  -11.6582   18.9721 C   0  0  0  0  0  0  0  0  0  0  0  0
  -30.3259  -12.7963   18.8129 C   0  0  0  0  0  0  0  0  0  0  0  0
  -28.4768  -13.9461   19.9654 C   0  0  0  0  0  0  0  0  0  0  0  0
  -26.5874  -33.7049   24.6061 C   0  0  1  0  0  0  0  0  0  0  0  0
  -24.7896  -31.7468   21.8919 C   0  0  1  0  0  0  0  0  0  0  0  0
  -27.4377  -13.0233   19.3080 C   0  0  2  0  0  0  0  0  0  0  0  0
  -18.3475  -27.5837   20.8095 C   0  0  0  0  0  0  0  0  0  0  0  0
  -22.5811  -29.7431   25.4230 C   0  0  0  0  0  0  0  0  0  0  0  0
  -20.6716  -28.2510   24.7938 C   0  0  0  0  0  0  0  0  0  0  0  0
  -20.4231  -30.7278   24.6309 C   0  0  0  0  0  0  0  0  0  0  0  0
  -20.9032  -28.5446   18.1598 C   0  0  0  0  0  0  0  0  0  0  0  0
  -27.4397  -21.7794   24.9613 C   0  0  0  0  0  0  0  0  0  0  0  0
  -26.1067  -21.3593   22.9004 C   0  0  0  0  0  0  0  0  0  0  0  0
  -27.6884  -25.5030   20.9207 C   0  0  0  0  0  0  0  0  0  1  0  0
  -27.9470  -23.0365   22.8722 C   0  0  0  0  0  0  0  0  0  0  0  0
  -27.9685  -22.9739   21.3533 C   0  0  2  0  0  0  0  0  0  0  0  0
  -21.8715  -29.5143   22.9511 C   0  0  1  0  0  0  0  0  0  0  0  0
  -19.4997  -28.3819   20.2195 C   0  0  2  0  0  0  0  0  0  0  0  0
  -21.4116  -29.5576   24.4357 C   0  0  0  0  0  0  0  0  0  0  0  0
  -26.3091  -12.9176   21.4980 N   0  0  0  0  0  0  0  0  0  0  0  0
  -26.1915  -12.8716   20.1601 N   0  0  0  0  0  0  0  0  0  0  0  0
  -23.9435  -30.5710   22.1061 N   0  0  0  0  0  0  0  0  0  0  0  0
  -29.6588  -14.0686   19.0978 N   0  0  0  0  0  0  0  0  0  0  0  0
  -24.6156  -12.6174   18.4101 N   0  0  0  0  0  0  0  0  0  0  0  0
  -22.0826  -12.3533   22.1398 N   0  0  0  0  0  0  0  0  0  0  0  0
  -29.4380  -16.4050   18.8637 N   0  0  0  0  0  0  0  0  0  0  0  0
  -28.8073  -21.8574   20.9236 N   0  0  0  0  0  0  0  0  0  0  0  0
  -25.8441  -33.2803   23.4392 N   0  0  0  0  0  0  0  0  0  0  0  0
  -20.7820  -29.3666   21.9921 N   0  0  0  0  0  0  0  0  0  0  0  0
  -27.5890  -21.4121   18.9594 N   0  3  0  0  0  0  0  0  0  0  0  0
  -19.8039  -27.8376   18.8659 N   0  3  0  0  0  0  0  0  0  0  0  0
  -27.4512  -21.7627   23.4529 N   0  3  0  0  0  0  0  0  0  0  0  0
  -22.0360  -12.2792   19.8482 O   0  0  0  0  0  0  0  0  0  0  0  0
  -25.9192  -30.9842   23.8200 O   0  0  0  0  0  0  0  0  0  0  0  0
  -29.5015  -24.2347   19.9876 O   0  0  0  0  0  0  0  0  0  0  0  0
  -22.0629  -31.8538   22.6100 O   0  0  0  0  0  0  0  0  0  0  0  0
  -21.5614  -27.4103   21.0212 O   0  0  0  0  0  0  0  0  0  0  0  0
  -31.1784  -15.2679   17.8343 O   0  0  0  0  0  0  0  0  0  0  0  0
  -23.9049  -12.7220   27.3913 O   0  0  0  0  0  0  0  0  0  0  0  0
  -28.2742  -26.6018   20.2237 O   0  0  0  0  0  0  0  0  0  1  0  0
  -20.4944   -8.8195   29.2735 F   0  0  0  0  0  0  0  0  0  0  0  0
  -24.7412  -10.9096   29.3040 F   0  0  0  0  0  0  0  0  0  0  0  0
  1  2  1  0  0  0  0
  1  7  2  0  0  0  0
  2  8  2  0  0  0  0
  3  6  2  0  0  0  0
  3 10  1  0  0  0  0
  4 11  2  0  0  0  0
  4 19  1  0  0  0  0
  5 12  1  0  0  0  0
  5 19  2  0  0  0  0
  6 20  1  0  0  0  0
  7 22  1  0  0  0  0
  8 24  1  0  0  0  0
  9 13  2  0  0  0  0
  9 23  1  0  0  0  0
 10 26  2  0  0  0  0
 11 27  1  0  0  0  0
 12 27  2  0  0  0  0
 13 28  1  0  0  0  0
 14 15  2  0  0  0  0
 14 29  1  0  0  0  0
 15 30  1  0  0  0  0
 16 20  2  0  0  0  0
 16 26  1  0  0  0  0
 17 25  1  0  0  0  0
 17 28  2  0  0  0  0
 18 30  2  0  0  0  0
 18 31  1  0  0  0  0
 19 32  1  0  0  0  0
 20 34  1  0  0  0  0
 21 32  1  0  0  0  0
 21 33  2  0  0  0  0
 21 35  1  0  0  0  0
 22 24  2  0  0  0  0
 22 41  1  0  0  0  0
 23 25  2  0  0  0  0
 23 42  1  0  0  0  0
 24 50  1  0  0  0  0
 25 43  1  0  0  0  0
 26 72  1  0  0  0  0
 27 85  1  0  0  0  0
 28 86  1  0  0  0  0
 29 31  2  0  0  0  0
 29 85  1  0  0  0  0
 30 87  1  0  0  0  0
 31 88  1  0  0  0  0
 32 66  2  0  0  0  0
 33 67  1  0  0  0  0
 33 70  1  0  0  0  0
 34 73  1  0  0  0  0
 34 76  2  0  0  0  0
 35 71  1  0  0  0  0
 35 79  2  0  0  0  0
 36 51  1  0  0  0  0
 36 74  1  0  0  0  0
 36 80  2  0  0  0  0
 37 60  1  0  0  0  0
 37 62  1  0  0  0  0
 37 81  2  0  0  0  0
 38 63  1  0  0  0  0
 38 68  1  0  0  0  0
 38 82  2  0  0  0  0
 39 64  1  0  0  0  0
 39 75  1  0  0  0  0
 39 83  2  0  0  0  0
 40 69  1  0  0  0  0
 40 72  1  0  0  0  0
 40 84  2  0  0  0  0
 41 44  1  0  0  0  0
 42 51  1  0  0  0  0
 43 68  1  0  0  0  0
 44 46  1  0  0  0  0
 45 47  1  0  0  0  0
 45 48  1  0  0  0  0
 46 50  1  0  0  0  0
 47 52  1  0  0  0  0
 48 69  1  0  0  0  0
 49 52  1  0  0  0  0
 49 69  1  0  0  0  0
 50 74  1  0  0  0  0
 51 68  1  0  0  0  0
 52 67  1  0  0  0  0
 53 64  1  0  0  0  0
 54 65  1  0  0  0  0
 55 65  1  0  0  0  0
 56 65  1  0  0  0  0
 57 77  1  0  0  0  0
 58 78  1  0  0  0  0
 59 78  1  0  0  0  0
 60 86  1  0  0  0  0
 61 62  1  0  0  0  0
 61 78  1  0  0  0  0
 62 73  1  0  0  0  0
 63 65  1  0  0  0  0
 63 75  1  0  0  0  0
 64 77  1  0  0  0  0
 66 67  1  0  0  0  0
M  CHG  3  76   1  77   1  78   1
M  ISO  4  40 100  60 101  72 100  86 101
M  END
> <Batch ID>
0067

> <Smiles>
CNC(C)C(=O)NC(C(=O)N1Cc2cc([101O:1][101CH2:1]C(=O)C(CN(C)C)NC(=N)c3cccc([100NH:0][100C:0](=O)N4CCCC(n5nc(-c6ccc(Oc7ccc(F)cc7F)cc6)c(C(N)=O)c5N)C4)c3)ccc2CC1C(=O)NC1CCCc2ccccc21)C(C)(C)C

> <Shape>
0.285

> <Color>
0.098

> <Negative vol penalty>
0.000

$$$$

  -OEChem-04042323243D

 84 92  0     1  0  0  0  0  0999 V2000
  -18.6941  -29.8274   25.6773 C   0  0  0  0  0  0  0  0  0  0  0  0
  -20.0429  -29.5276   25.8394 C   0  0  0  0  0  0  0  0  0  0  0  0
  -26.3886  -18.7183   19.3521 C   0  0  0  0  0  0  0  0  0  0  0  0
  -27.3960  -18.3111   21.5100 C   0  0  0  0  0  0  0  0  0  0  0  0
  -18.0166  -29.3933   24.5387 C   0  0  0  0  0  0  0  0  0  0  0  0
  -20.7148  -28.7926   24.8633 C   0  0  0  0  0  0  0  0  0  0  0  0
  -25.2529  -30.7416   23.7443 C   0  0  0  0  0  0  0  0  0  0  0  0
  -25.8449  -17.4339   19.3635 C   0  0  0  0  0  0  0  0  0  0  0  0
  -26.8522  -17.0266   21.5214 C   0  0  0  0  0  0  0  0  0  0  0  0
  -26.2921  -30.4899   24.6389 C   0  0  0  0  0  0  0  0  0  0  0  0
  -26.0291  -13.5134   21.9566 C   0  0  0  0  0  0  0  0  0  0  0  0
  -26.8570  -12.4624   22.3511 C   0  0  0  0  0  0  0  0  0  0  0  0
  -27.1013  -28.7344   23.1957 C   0  0  0  0  0  0  0  0  0  0  0  0
  -32.5991  -29.1678   22.7305 C   0  0  0  0  0  0  0  0  0  0  0  0
  -33.3299  -27.3615   21.3022 C   0  0  0  0  0  0  0  0  0  0  0  0
  -28.3643  -12.9669   20.5316 C   0  0  0  0  0  0  0  0  0  0  0  0
  -27.1642  -19.1569   20.4254 C   0  0  0  0  0  0  0  0  0  0  0  0
  -27.1370  -21.6610   20.9116 C   0  0  0  0  0  0  0  0  0  0  0  0
  -18.6829  -28.6609   23.5436 C   0  0  0  0  0  0  0  0  0  0  0  0
  -25.1235  -29.9831   22.5719 C   0  0  0  0  0  0  0  0  0  0  0  0
  -20.0453  -28.3472   23.7109 C   0  0  0  0  0  0  0  0  0  0  0  0
  -26.0610  -28.9802   22.2866 C   0  0  0  0  0  0  0  0  0  0  0  0
  -31.9010  -26.9021   23.1954 C   0  0  0  0  0  0  0  0  0  0  0  0
  -31.8900  -28.2595   23.5165 C   0  0  0  0  0  0  0  0  0  0  0  0
  -32.6209  -26.4531   22.0882 C   0  0  0  0  0  0  0  0  0  0  0  0
  -26.0767  -16.5880   20.4482 C   0  0  0  0  0  0  0  0  0  0  0  0
  -27.2148  -29.4843   24.3661 C   0  0  0  0  0  0  0  0  0  0  0  0
  -26.3687  -14.2911   20.8496 C   0  0  0  0  0  0  0  0  0  0  0  0
  -28.0246  -12.1892   21.6386 C   0  0  0  0  0  0  0  0  0  0  0  0
  -33.3190  -28.7188   21.6233 C   0  0  0  0  0  0  0  0  0  0  0  0
  -27.5363  -14.0179   20.1371 C   0  0  0  0  0  0  0  0  0  0  0  0
  -27.7265  -20.4835   20.4139 C   0  0  0  0  0  0  0  0  0  0  0  0
  -28.0664  -22.6415   20.6637 C   0  0  0  0  0  0  0  0  0  0  0  0
  -25.8633  -21.8515   21.5417 C   0  0  0  0  0  0  0  0  0  0  0  0
  -22.9096  -28.0271   21.3987 C   0  0  0  0  0  0  0  0  0  0  0  0
  -24.8325  -28.0484   18.7864 C   0  0  0  0  0  0  0  0  0  0  0  0
  -31.0621  -30.0528   25.0793 C   0  0  0  0  0  0  0  0  0  0  0  0
  -27.9548  -28.5174   17.4910 C   0  0  0  0  0  0  0  0  0  0  0  0
  -33.3191  -24.4886   20.6741 C   0  0  0  0  0  0  0  0  0  0  0  0
  -17.8969  -28.1726   22.3526 C   0  0  0  0  0  0  0  0  0  0  0  0
  -24.0124  -30.2849   21.6040 C   0  0  0  0  0  0  0  0  0  0  0  0
  -25.9782  -28.1511   21.0319 C   0  0  0  0  0  0  0  0  0  0  0  0
  -18.7740  -27.7202   21.1879 C   0  0  0  0  0  0  0  0  0  0  0  0
  -32.2878  -22.5488   17.8722 C   0  0  0  0  0  0  0  0  0  0  0  0
  -19.9017  -26.8221   21.6863 C   0  0  0  0  0  0  0  0  0  0  0  0
  -30.9607  -21.9354   18.3246 C   0  0  0  0  0  0  0  0  0  0  0  0
  -33.2930  -22.6350   19.0193 C   0  0  0  0  0  0  0  0  0  0  0  0
  -31.4737  -22.6970   20.6791 C   0  0  0  0  0  0  0  0  0  0  0  0
  -20.8149  -27.5734   22.6626 C   0  0  1  0  0  0  0  0  0  0  0  0
  -23.6779  -29.1081   20.6926 C   0  0  1  0  0  0  0  0  0  0  0  0
  -30.4067  -22.6491   19.5733 C   0  0  2  0  0  0  0  0  0  0  0  0
  -31.1404  -25.9271   24.0397 C   0  0  0  0  0  0  0  0  0  0  0  0
  -29.2243  -28.4263   15.3283 C   0  0  0  0  0  0  0  0  0  0  0  0
  -24.8409  -25.0002   18.9225 C   0  0  0  0  0  0  0  0  0  0  0  0
  -26.8232  -25.0069   17.3932 C   0  0  0  0  0  0  0  0  0  0  0  0
  -24.6454  -25.9408   16.6135 C   0  0  0  0  0  0  0  0  0  0  0  0
  -28.6626  -31.3866   17.6516 C   0  0  0  0  0  0  0  0  0  0  0  0
  -30.1843  -30.1274   26.3235 C   0  0  0  0  0  0  0  0  0  0  0  0
  -28.7121  -30.3390   26.0043 C   0  0  0  0  0  0  0  0  0  1  0  0
  -26.0057  -27.2231   18.3157 C   0  0  1  0  0  0  0  0  0  0  0  0
  -28.4379  -29.3063   16.2874 C   0  0  2  0  0  0  0  0  0  0  0  0
  -25.5795  -25.8069   17.8359 C   0  0  0  0  0  0  0  0  0  0  0  0
  -28.9366  -20.6945   19.8894 N   0  0  0  0  0  0  0  0  0  0  0  0
  -29.1150  -22.0161   20.0560 N   0  0  0  0  0  0  0  0  0  0  0  0
  -24.8703  -28.4800   20.1199 N   0  0  0  0  0  0  0  0  0  0  0  0
  -32.7001  -23.3271   20.1657 N   0  0  0  0  0  0  0  0  0  0  0  0
  -28.0806  -23.9691   20.9084 N   0  0  0  0  0  0  0  0  0  0  0  0
  -25.0320  -20.7371   21.7186 N   0  0  0  0  0  0  0  0  0  0  0  0
  -31.1670  -28.7374   24.6353 N   0  0  0  0  0  0  0  0  0  0  0  0
  -32.6471  -25.0788   21.7440 N   0  0  0  0  0  0  0  0  0  0  0  0
  -21.7118  -28.4512   21.9419 N   0  0  0  0  0  0  0  0  0  0  0  0
  -26.6833  -28.0198   17.2987 N   0  0  0  0  0  0  0  0  0  0  0  0
  -29.3161  -30.4290   16.7225 N   0  3  0  0  0  0  0  0  0  0  0  0
  -25.4669  -22.9795   21.9213 O   0  0  0  0  0  0  0  0  0  0  0  0
  -23.3687  -26.8919   21.4460 O   0  0  0  0  0  0  0  0  0  0  0  0
  -23.9198  -28.3068   17.9979 O   0  0  0  0  0  0  0  0  0  0  0  0
  -31.5783  -31.0490   24.5839 O   0  0  0  0  0  0  0  0  0  0  0  0
  -28.6385  -28.3553   18.4994 O   0  0  0  0  0  0  0  0  0  0  0  0
  -34.3534  -24.9428   20.1781 O   0  0  0  0  0  0  0  0  0  0  0  0
  -25.5461  -15.3346   20.4597 O   0  0  0  0  0  0  0  0  0  0  0  0
  -28.2298  -29.2361   25.2380 O   0  0  0  0  0  0  0  0  0  1  0  0
  -28.8203  -11.1809   22.0185 F   0  0  0  0  0  0  0  0  0  0  0  0
  -33.9995  -29.5916   20.8686 F   0  0  0  0  0  0  0  0  0  0  0  0
  -27.8685  -14.7623   19.0735 F   0  0  0  0  0  0  0  0  0  0  0  0
  1  2  1  0  0  0  0
  1  5  2  0  0  0  0
  2  6  2  0  0  0  0
  3  8  2  0  0  0  0
  3 17  1  0  0  0  0
  4  9  1  0  0  0  0
  4 17  2  0  0  0  0
  5 19  1  0  0  0  0
  6 21  1  0  0  0  0
  7 10  2  0  0  0  0
  7 20  1  0  0  0  0
  8 26  1  0  0  0  0
  9 26  2  0  0  0  0
 10 27  1  0  0  0  0
 11 12  2  0  0  0  0
 11 28  1  0  0  0  0
 12 29  1  0  0  0  0
 13 22  1  0  0  0  0
 13 27  2  0  0  0  0
 14 24  1  0  0  0  0
 14 30  2  0  0  0  0
 15 25  2  0  0  0  0
 15 30  1  0  0  0  0
 16 29  2  0  0  0  0
 16 31  1  0  0  0  0
 17 32  1  0  0  0  0
 18 32  1  0  0  0  0
 18 33  2  0  0  0  0
 18 34  1  0  0  0  0
 19 21  2  0  0  0  0
 19 40  1  0  0  0  0
 20 22  2  0  0  0  0
 20 41  1  0  0  0  0
 21 49  1  0  0  0  0
 22 42  1  0  0  0  0
 23 24  2  0  0  0  0
 23 25  1  0  0  0  0
 23 52  1  0  0  0  0
 24 69  1  0  0  0  0
 25 70  1  0  0  0  0
 26 80  1  0  0  0  0
 27 81  1  0  0  0  0
 28 31  2  0  0  0  0
 28 80  1  0  0  0  0
 29 82  1  0  0  0  0
 30 83  1  0  0  0  0
 31 84  1  0  0  0  0
 32 63  2  0  0  0  0
 33 64  1  0  0  0  0
 33 67  1  0  0  0  0
 34 68  1  0  0  0  0
 34 74  2  0  0  0  0
 35 50  1  0  0  0  0
 35 71  1  0  0  0  0
 35 75  2  0  0  0  0
 36 60  1  0  0  0  0
 36 65  1  0  0  0  0
 36 76  2  0  0  0  0
 37 58  1  0  0  0  0
 37 69  1  0  0  0  0
 37 77  2  0  0  0  0
 38 61  1  0  0  0  0
 38 72  1  0  0  0  0
 38 78  2  0  0  0  0
 39 66  1  0  0  0  0
 39 70  1  0  0  0  0
 39 79  2  0  0  0  0
 40 43  1  0  0  0  0
 41 50  1  0  0  0  0
 42 65  1  0  0  0  0
 43 45  1  0  0  0  0
 44 46  1  0  0  0  0
 44 47  1  0  0  0  0
 45 49  1  0  0  0  0
 46 51  1  0  0  0  0
 47 66  1  0  0  0  0
 48 51  1  0  0  0  0
 48 66  1  0  0  0  0
 49 71  1  0  0  0  0
 50 65  1  0  0  0  0
 51 64  1  0  0  0  0
 53 61  1  0  0  0  0
 54 62  1  0  0  0  0
 55 62  1  0  0  0  0
 56 62  1  0  0  0  0
 57 73  1  0  0  0  0
 58 59  1  0  0  0  0
 59 81  1  0  0  0  0
 60 62  1  0  0  0  0
 60 72  1  0  0  0  0
 61 73  1  0  0  0  0
 63 64  1  0  0  0  0
M  CHG  1  73   1
M  ISO  4  39 100  59 101  70 100  81 101
M  END
> <Batch ID>
0067

> <Smiles>
CNC(C)C(=O)NC(C(=O)N1Cc2cc([101O:1][101CH2:1]CC(=O)Nc3cc(F)cc([100NH:0][100C:0](=O)N4CCCC(n5nc(-c6ccc(Oc7ccc(F)cc7F)cc6)c(C(N)=O)c5N)C4)c3C)ccc2CC1C(=O)NC1CCCc2ccccc21)C(C)(C)C

> <Shape>
0.211

> <Color>
0.065

> <Negative vol penalty>
0.000

$$$$

  -OEChem-04042323243D

 92101  0     1  0  0  0  0  0999 V2000
  -19.1808  -24.1340   22.5730 C   0  0  0  0  0  0  0  0  0  0  0  0
  -20.4202  -24.3529   21.9803 C   0  0  0  0  0  0  0  0  0  0  0  0
  -23.5129  -13.3810   23.6036 C   0  0  0  0  0  0  0  0  0  0  0  0
  -25.3616  -11.9387   24.1859 C   0  0  0  0  0  0  0  0  0  0  0  0
  -18.3570  -25.2152   22.8834 C   0  0  0  0  0  0  0  0  0  0  0  0
  -20.8361  -25.6533   21.6966 C   0  0  0  0  0  0  0  0  0  0  0  0
  -25.6487  -26.4886   23.0329 C   0  0  0  0  0  0  0  0  0  0  0  0
  -23.1306  -13.4322   24.9440 C   0  0  0  0  0  0  0  0  0  0  0  0
  -24.9794  -11.9900   25.5264 C   0  0  0  0  0  0  0  0  0  0  0  0
  -26.6397  -25.9945   22.1858 C   0  0  0  0  0  0  0  0  0  0  0  0
  -24.0970  -15.0532   27.7496 C   0  0  0  0  0  0  0  0  0  0  0  0
  -23.7619  -16.2986   28.2810 C   0  0  0  0  0  0  0  0  0  0  0  0
  -26.9110  -28.1930   21.2307 C   0  0  0  0  0  0  0  0  0  0  0  0
  -27.6207  -19.1200   18.7890 C   0  0  0  0  0  0  0  0  0  0  0  0
  -30.0082  -18.8923   18.4972 C   0  0  0  0  0  0  0  0  0  0  0  0
  -21.5464  -15.4832   28.7947 C   0  0  0  0  0  0  0  0  0  0  0  0
  -24.6284  -12.6341   23.2245 C   0  0  0  0  0  0  0  0  0  0  0  0
  -24.2612  -12.1045   20.7562 C   0  0  0  0  0  0  0  0  0  0  0  0
  -18.7672  -26.5301   22.6122 C   0  0  0  0  0  0  0  0  0  0  0  0
  -25.2732  -27.8386   22.9776 C   0  0  0  0  0  0  0  0  0  0  0  0
  -20.0166  -26.7531   22.0024 C   0  0  0  0  0  0  0  0  0  0  0  0
  -25.9168  -28.7023   22.0800 C   0  0  0  0  0  0  0  0  0  0  0  0
  -29.0153  -21.0888   18.6619 C   0  0  0  0  0  0  0  0  0  0  0  0
  -28.7475  -18.3120   18.6368 C   0  0  0  0  0  0  0  0  0  0  0  0
  -27.7547  -20.5084   18.8015 C   0  0  0  0  0  0  0  0  0  0  0  0
  -23.8639  -12.7368   25.9054 C   0  0  0  0  0  0  0  0  0  0  0  0
  -27.2690  -26.8461   21.2825 C   0  0  0  0  0  0  0  0  0  0  0  0
  -23.1568  -14.0228   27.7407 C   0  0  0  0  0  0  0  0  0  0  0  0
  -22.4866  -16.5136   28.8035 C   0  0  0  0  0  0  0  0  0  0  0  0
  -30.1421  -20.2807   18.5097 C   0  0  0  0  0  0  0  0  0  0  0  0
  -21.8815  -14.2378   28.2633 C   0  0  0  0  0  0  0  0  0  0  0  0
  -25.0235  -12.5803   21.8399 C   0  0  0  0  0  0  0  0  0  0  0  0
  -25.0782  -12.2668   19.6642 C   0  0  0  0  0  0  0  0  0  0  0  0
  -28.5915  -23.4215   17.7732 C   0  0  0  0  0  0  0  0  0  0  0  0
  -22.9332  -11.5643   20.7384 C   0  0  0  0  0  0  0  0  0  0  0  0
  -22.5847  -29.3930   22.2998 C   0  0  0  0  0  0  0  0  0  0  0  0
  -24.3105  -31.9828   23.2143 C   0  0  0  0  0  0  0  0  0  0  0  0
  -27.3779  -33.4159   23.6437 C   0  0  0  0  0  0  0  0  0  0  0  0
  -29.6272  -15.9565   18.4817 C   0  0  0  0  0  0  0  0  0  0  0  0
  -17.8223  -27.6639   22.9225 C   0  0  0  0  0  0  0  0  0  0  0  0
  -24.2212  -28.3618   23.9168 C   0  0  0  0  0  0  0  0  0  0  0  0
  -25.5644  -30.1642   21.9954 C   0  0  0  0  0  0  0  0  0  0  0  0
  -18.4966  -29.0334   22.9321 C   0  0  0  0  0  0  0  0  0  0  0  0
  -29.7050  -12.3972   18.4353 C   0  0  0  0  0  0  0  0  0  0  0  0
  -19.3920  -29.1962   21.7080 C   0  0  0  0  0  0  0  0  0  0  0  0
  -28.4407  -11.9969   19.1992 C   0  0  0  0  0  0  0  0  0  0  0  0
  -30.3557  -13.6449   19.0298 C   0  0  0  0  0  0  0  0  0  0  0  0
  -30.0466  -23.1781   19.6175 C   0  0  0  0  0  0  0  0  0  0  0  0
  -28.1967  -14.3990   19.9458 C   0  0  0  0  0  0  0  0  0  0  0  0
  -20.5136  -28.1505   21.7019 C   0  0  1  0  0  0  0  0  0  0  0  0
  -29.1323  -24.8021   18.1066 C   0  0  1  0  0  0  0  0  0  0  0  0
  -23.5577  -29.6416   23.4174 C   0  0  1  0  0  0  0  0  0  0  0  0
  -29.6464  -24.6472   19.5424 C   0  0  1  0  0  0  0  0  0  0  0  0
  -27.4699  -13.1852   19.3441 C   0  0  2  0  0  0  0  0  0  0  0  0
  -30.8018  -26.5264   17.3898 C   0  0  0  0  0  0  0  0  0  0  0  0
  -28.4679  -35.5565   24.3697 C   0  0  0  0  0  0  0  0  0  0  0  0
  -23.5718  -33.2618   20.5443 C   0  0  0  0  0  0  0  0  0  0  0  0
  -25.4094  -34.9223   20.9107 C   0  0  0  0  0  0  0  0  0  0  0  0
  -23.4919  -34.8151   22.5027 C   0  0  0  0  0  0  0  0  0  0  0  0
  -28.7811  -32.0785   25.8800 C   0  0  0  0  0  0  0  0  0  0  0  0
  -24.9496  -22.9689   20.3034 C   0  0  0  0  0  0  0  0  0  0  0  0
  -30.2420  -25.1639   17.1251 C   0  0  0  0  0  0  0  0  0  0  0  0
  -28.5563  -24.9800   20.5640 C   0  0  0  0  0  0  0  0  0  1  0  0
  -25.2161  -32.9661   22.5128 C   0  0  1  0  0  0  0  0  0  0  0  0
  -27.9761  -34.1856   24.8074 C   0  0  2  0  0  0  0  0  0  0  0  0
  -24.4278  -33.9634   21.6176 C   0  0  0  0  0  0  0  0  0  0  0  0
  -26.2320  -13.0123   21.4699 N   0  0  0  0  0  0  0  0  0  0  0  0
  -26.2353  -12.8085   20.1415 N   0  0  0  0  0  0  0  0  0  0  0  0
  -29.1735  -22.5075   18.6715 N   0  0  0  0  0  0  0  0  0  0  0  0
  -24.5252  -30.6268   22.9300 N   0  0  0  0  0  0  0  0  0  0  0  0
  -29.3776  -14.7300   19.1329 N   0  0  0  0  0  0  0  0  0  0  0  0
  -24.9126  -11.9975   18.3517 N   0  0  0  0  0  0  0  0  0  0  0  0
  -22.7720  -10.1820   20.9045 N   0  0  0  0  0  0  0  0  0  0  0  0
  -28.6117  -16.9016   18.6235 N   0  0  0  0  0  0  0  0  0  0  0  0
  -26.5839  -21.3159   18.9596 N   0  0  0  0  0  0  0  0  0  0  0  0
  -21.5599  -28.5262   22.6284 N   0  0  0  0  0  0  0  0  0  0  0  0
  -26.0144  -33.6015   23.5556 N   0  0  0  0  0  0  0  0  0  0  0  0
  -29.1267  -33.4366   25.3870 N   0  3  0  0  0  0  0  0  0  0  0  0
  -27.8352  -23.2233   16.8326 O   0  0  0  0  0  0  0  0  0  0  0  0
  -21.9207  -12.2838   20.5634 O   0  0  0  0  0  0  0  0  0  0  0  0
  -22.7505  -29.9477   21.2198 O   0  0  0  0  0  0  0  0  0  0  0  0
  -23.4493  -32.4021   23.9915 O   0  0  0  0  0  0  0  0  0  0  0  0
  -28.0532  -32.7226   22.8862 O   0  0  0  0  0  0  0  0  0  0  0  0
  -30.6529  -16.1443   17.8225 O   0  0  0  0  0  0  0  0  0  0  0  0
  -25.0267  -20.4174   20.8047 O   0  0  0  0  0  0  0  0  0  0  0  0
  -26.9891  -21.8394   21.4919 O   0  0  0  0  0  0  0  0  0  0  0  0
  -23.4913  -12.7867   27.2136 O   0  0  0  0  0  0  0  0  0  0  0  0
  -28.2361  -26.3663   20.4541 O   0  0  0  0  0  0  0  0  0  1  0  0
  -22.1654  -17.7091   29.3152 F   0  0  0  0  0  0  0  0  0  0  0  0
  -31.3597  -20.8258   18.3746 F   0  0  0  0  0  0  0  0  0  0  0  0
  -20.9744  -13.2514   28.2586 F   0  0  0  0  0  0  0  0  0  0  0  0
  -25.9423  -21.5125   20.5440 S   0  0  0  0  0  0  0  0  0  0  0  0
  1  2  1  0  0  0  0
  1  5  2  0  0  0  0
  2  6  2  0  0  0  0
  3  8  2  0  0  0  0
  3 17  1  0  0  0  0
  4  9  1  0  0  0  0
  4 17  2  0  0  0  0
  5 19  1  0  0  0  0
  6 21  1  0  0  0  0
  7 10  2  0  0  0  0
  7 20  1  0  0  0  0
  8 26  1  0  0  0  0
  9 26  2  0  0  0  0
 10 27  1  0  0  0  0
 11 12  2  0  0  0  0
 11 28  1  0  0  0  0
 12 29  1  0  0  0  0
 13 22  1  0  0  0  0
 13 27  2  0  0  0  0
 14 24  2  0  0  0  0
 14 25  1  0  0  0  0
 15 24  1  0  0  0  0
 15 30  2  0  0  0  0
 16 29  2  0  0  0  0
 16 31  1  0  0  0  0
 17 32  1  0  0  0  0
 18 32  1  0  0  0  0
 18 33  2  0  0  0  0
 18 35  1  0  0  0  0
 19 21  2  0  0  0  0
 19 40  1  0  0  0  0
 20 22  2  0  0  0  0
 20 41  1  0  0  0  0
 21 50  1  0  0  0  0
 22 42  1  0  0  0  0
 23 25  2  0  0  0  0
 23 30  1  0  0  0  0
 23 69  1  0  0  0  0
 24 74  1  0  0  0  0
 25 75  1  0  0  0  0
 26 87  1  0  0  0  0
 27 88  1  0  0  0  0
 28 31  2  0  0  0  0
 28 87  1  0  0  0  0
 29 89  1  0  0  0  0
 30 90  1  0  0  0  0
 31 91  1  0  0  0  0
 32 67  2  0  0  0  0
 33 68  1  0  0  0  0
 33 72  1  0  0  0  0
 34 51  1  0  0  0  0
 34 69  1  0  0  0  0
 34 79  2  0  0  0  0
 35 73  1  0  0  0  0
 35 80  2  0  0  0  0
 36 52  1  0  0  0  0
 36 76  1  0  0  0  0
 36 81  2  0  0  0  0
 37 64  1  0  0  0  0
 37 70  1  0  0  0  0
 37 82  2  0  0  0  0
 38 65  1  0  0  0  0
 38 77  1  0  0  0  0
 38 83  2  0  0  0  0
 39 71  1  0  0  0  0
 39 74  1  0  0  0  0
 39 84  2  0  0  0  0
 40 43  1  0  0  0  0
 41 52  1  0  0  0  0
 42 70  1  0  0  0  0
 43 45  1  0  0  0  0
 44 46  1  0  0  0  0
 44 47  1  0  0  0  0
 45 50  1  0  0  0  0
 46 54  1  0  0  0  0
 47 71  1  0  0  0  0
 48 53  1  0  0  0  0
 48 69  1  0  0  0  0
 49 54  1  0  0  0  0
 49 71  1  0  0  0  0
 50 76  1  0  0  0  0
 51 53  1  0  0  0  0
 51 62  1  0  0  0  0
 52 70  1  0  0  0  0
 53 63  1  0  0  0  0
 54 68  1  0  0  0  0
 55 62  1  0  0  0  0
 56 65  1  0  0  0  0
 57 66  1  0  0  0  0
 58 66  1  0  0  0  0
 59 66  1  0  0  0  0
 60 78  1  0  0  0  0
 61 92  1  0  0  0  0
 63 88  1  0  0  0  0
 64 66  1  0  0  0  0
 64 77  1  0  0  0  0
 65 78  1  0  0  0  0
 67 68  1  0  0  0  0
 75 92  1  0  0  0  0
 85 92  2  0  0  0  0
 86 92  2  0  0  0  0
M  CHG  1  78   1
M  ISO  4  39 100  63 101  74 100  88 101
M  END
> <Batch ID>
0067

> <Smiles>
CCC1C(=O)N(c2c(F)cc([100NH:0][100C:0](=O)N3CCCC(n4nc(-c5ccc(Oc6ccc(F)cc6F)cc5)c(C(N)=O)c4N)C3)cc2NS(C)(=O)=O)CC1[101CH2:1][101O:1]c1ccc2c(c1)CN(C(=O)C(NC(=O)C(C)NC)C(C)(C)C)C(C(=O)NC1CCCc3ccccc31)C2

> <Shape>
0.282

> <Color>
0.091

> <Negative vol penalty>
0.000

$$$$

  -OEChem-04042323243D

 83 91  0     1  0  0  0  0  0999 V2000
  -29.2125  -36.7050   20.1122 C   0  0  0  0  0  0  0  0  0  0  0  0
  -29.4058  -35.3490   19.8683 C   0  0  0  0  0  0  0  0  0  0  0  0
  -24.7935   -8.6728   21.6210 C   0  0  0  0  0  0  0  0  0  0  0  0
  -23.2442  -10.0124   20.3395 C   0  0  0  0  0  0  0  0  0  0  0  0
  -28.3896  -37.1131   21.1611 C   0  0  0  0  0  0  0  0  0  0  0  0
  -28.7771  -34.4004   20.6741 C   0  0  0  0  0  0  0  0  0  0  0  0
  -26.6281  -28.9358   18.9346 C   0  0  0  0  0  0  0  0  0  0  0  0
  -23.7439   -8.2275   22.4245 C   0  0  0  0  0  0  0  0  0  0  0  0
  -22.1946   -9.5671   21.1430 C   0  0  0  0  0  0  0  0  0  0  0  0
  -27.1573  -27.6488   19.0213 C   0  0  0  0  0  0  0  0  0  0  0  0
  -21.2456   -5.9575   22.2272 C   0  0  0  0  0  0  0  0  0  0  0  0
  -21.1856   -4.5949   22.5189 C   0  0  0  0  0  0  0  0  0  0  0  0
  -25.9198  -27.2837   21.0595 C   0  0  0  0  0  0  0  0  0  0  0  0
  -26.9783  -18.5687   18.7166 C   0  0  0  0  0  0  0  0  0  0  0  0
  -25.0817  -19.7332   17.7767 C   0  0  0  0  0  0  0  0  0  0  0  0
  -25.3001  -17.3452   17.4823 C   0  0  0  0  0  0  0  0  0  0  0  0
  -21.3566   -5.0922   24.8770 C   0  0  0  0  0  0  0  0  0  0  0  0
  -24.5437   -9.5653   20.5785 C   0  0  0  0  0  0  0  0  0  0  0  0
  -26.0992   -9.4356   18.5608 C   0  0  0  0  0  0  0  0  0  0  0  0
  -27.7429  -36.1690   21.9741 C   0  0  0  0  0  0  0  0  0  0  0  0
  -25.7477  -29.4110   19.9172 C   0  0  0  0  0  0  0  0  0  0  0  0
  -27.9459  -34.7963   21.7357 C   0  0  0  0  0  0  0  0  0  0  0  0
  -25.3788  -28.5761   20.9817 C   0  0  0  0  0  0  0  0  0  0  0  0
  -26.2734  -19.7529   18.5014 C   0  0  0  0  0  0  0  0  0  0  0  0
  -26.4918  -17.3648   18.2070 C   0  0  0  0  0  0  0  0  0  0  0  0
  -22.4444   -8.6746   22.1855 C   0  0  0  0  0  0  0  0  0  0  0  0
  -26.8055  -26.8236   20.0854 C   0  0  0  0  0  0  0  0  0  0  0  0
  -21.3612   -6.8876   23.2603 C   0  0  0  0  0  0  0  0  0  0  0  0
  -21.2411   -4.1622   23.8438 C   0  0  0  0  0  0  0  0  0  0  0  0
  -24.5950  -18.5293   17.2671 C   0  0  0  0  0  0  0  0  0  0  0  0
  -21.4167   -6.4549   24.5852 C   0  0  0  0  0  0  0  0  0  0  0  0
  -25.6276  -10.0261   19.7485 C   0  0  0  0  0  0  0  0  0  0  0  0
  -27.1317  -10.2479   18.1600 C   0  0  0  0  0  0  0  0  0  0  0  0
  -27.0229  -23.2679   19.5823 C   0  0  0  0  0  0  0  0  0  0  0  0
  -26.6348  -24.5472   19.5760 C   0  0  0  0  0  0  0  0  0  1  0  0
  -25.6445   -8.2582   17.8806 C   0  0  0  0  0  0  0  0  0  0  0  0
  -26.1937  -22.2344   18.8963 C   0  0  0  0  0  0  0  0  0  0  0  0
  -25.8059  -31.7972   22.0164 C   0  0  0  0  0  0  0  0  0  0  0  0
  -22.7572  -30.8494   22.5903 C   0  0  0  0  0  0  0  0  0  0  0  0
  -20.4296  -28.3559   22.4833 C   0  0  0  0  0  0  0  0  0  0  0  0
  -28.4057  -16.0061   19.1219 C   0  0  0  0  0  0  0  0  0  0  0  0
  -26.9005  -36.6582   23.1255 C   0  0  0  0  0  0  0  0  0  0  0  0
  -25.1647  -30.7921   19.7950 C   0  0  0  0  0  0  0  0  0  0  0  0
  -24.4216  -29.0315   22.0517 C   0  0  0  0  0  0  0  0  0  0  0  0
  -25.9732  -35.5897   23.6988 C   0  0  0  0  0  0  0  0  0  0  0  0
  -30.4631  -13.2094   19.9110 C   0  0  0  0  0  0  0  0  0  0  0  0
  -26.7292  -34.2808   23.9036 C   0  0  0  0  0  0  0  0  0  0  0  0
  -29.5008  -12.0212   19.8448 C   0  0  0  0  0  0  0  0  0  0  0  0
  -29.7884  -14.4544   20.4841 C   0  0  0  0  0  0  0  0  0  0  0  0
  -27.5751  -13.6554   19.7546 C   0  0  0  0  0  0  0  0  0  0  0  0
  -27.2615  -33.7370   22.5723 C   0  0  1  0  0  0  0  0  0  0  0  0
  -24.6785  -31.3555   21.1268 C   0  0  1  0  0  0  0  0  0  0  0  0
  -28.1913  -12.3961   19.1236 C   0  0  2  0  0  0  0  0  0  0  0  0
  -18.0352  -27.8703   23.0563 C   0  0  0  0  0  0  0  0  0  0  0  0
  -23.5049  -30.6581   25.5423 C   0  0  0  0  0  0  0  0  0  0  0  0
  -21.4363  -29.2956   25.9063 C   0  0  0  0  0  0  0  0  0  0  0  0
  -21.2518  -31.6487   25.0990 C   0  0  0  0  0  0  0  0  0  0  0  0
  -19.7532  -27.7658   19.6631 C   0  0  0  0  0  0  0  0  0  0  0  0
  -22.1028  -29.8617   23.5259 C   0  0  1  0  0  0  0  0  0  0  0  0
  -18.9992  -28.3343   21.9755 C   0  0  2  0  0  0  0  0  0  0  0  0
  -22.0935  -30.3578   24.9994 C   0  0  0  0  0  0  0  0  0  0  0  0
  -26.3051  -11.1283   20.0807 N   0  0  0  0  0  0  0  0  0  0  0  0
  -27.2129  -11.2367   19.0958 N   0  0  0  0  0  0  0  0  0  0  0  0
  -23.8834  -30.3924   21.8913 N   0  0  0  0  0  0  0  0  0  0  0  0
  -28.5571  -14.7511   19.7487 N   0  0  0  0  0  0  0  0  0  0  0  0
  -27.9691  -10.2054   17.1020 N   0  0  0  0  0  0  0  0  0  0  0  0
  -24.5722   -7.5417   18.4293 N   0  0  0  0  0  0  0  0  0  0  0  0
  -26.7672  -20.9758   19.0184 N   0  0  0  0  0  0  0  0  0  0  0  0
  -27.2078  -16.1617   18.4251 N   0  0  0  0  0  0  0  0  0  0  0  0
  -26.1963  -33.1082   21.8210 N   0  0  0  0  0  0  0  0  0  0  0  0
  -20.7777  -29.5954   22.9767 N   0  0  0  0  0  0  0  0  0  0  0  0
  -18.8771  -27.4136   20.8100 N   0  3  0  0  0  0  0  0  0  0  0  0
  -26.1841   -7.8444   16.8265 O   0  0  0  0  0  0  0  0  0  0  0  0
  -25.1538  -22.5335   18.3212 O   0  0  0  0  0  0  0  0  0  0  0  0
  -26.2851  -31.0074   22.8217 O   0  0  0  0  0  0  0  0  0  0  0  0
  -22.2822  -31.9823   22.4783 O   0  0  0  0  0  0  0  0  0  0  0  0
  -21.1634  -27.3705   22.4493 O   0  0  0  0  0  0  0  0  0  0  0  0
  -29.2863  -16.8684   19.1750 O   0  0  0  0  0  0  0  0  0  0  0  0
  -21.4199   -8.2401   22.9691 O   0  0  0  0  0  0  0  0  0  0  0  0
  -27.3211  -25.5673   20.1728 O   0  0  0  0  0  0  0  0  0  1  0  0
  -21.1818   -2.8536   24.1238 F   0  0  0  0  0  0  0  0  0  0  0  0
  -23.4511  -18.5103   16.5705 F   0  0  0  0  0  0  0  0  0  0  0  0
  -21.5265   -7.3437   25.5821 F   0  0  0  0  0  0  0  0  0  0  0  0
  1  2  1  0  0  0  0
  1  5  2  0  0  0  0
  2  6  2  0  0  0  0
  3  8  2  0  0  0  0
  3 18  1  0  0  0  0
  4  9  1  0  0  0  0
  4 18  2  0  0  0  0
  5 20  1  0  0  0  0
  6 22  1  0  0  0  0
  7 10  2  0  0  0  0
  7 21  1  0  0  0  0
  8 26  1  0  0  0  0
  9 26  2  0  0  0  0
 10 27  1  0  0  0  0
 11 12  2  0  0  0  0
 11 28  1  0  0  0  0
 12 29  1  0  0  0  0
 13 23  1  0  0  0  0
 13 27  2  0  0  0  0
 14 24  2  0  0  0  0
 14 25  1  0  0  0  0
 15 24  1  0  0  0  0
 15 30  2  0  0  0  0
 16 25  2  0  0  0  0
 16 30  1  0  0  0  0
 17 29  2  0  0  0  0
 17 31  1  0  0  0  0
 18 32  1  0  0  0  0
 19 32  1  0  0  0  0
 19 33  2  0  0  0  0
 19 36  1  0  0  0  0
 20 22  2  0  0  0  0
 20 42  1  0  0  0  0
 21 23  2  0  0  0  0
 21 43  1  0  0  0  0
 22 51  1  0  0  0  0
 23 44  1  0  0  0  0
 24 68  1  0  0  0  0
 25 69  1  0  0  0  0
 26 79  1  0  0  0  0
 27 80  1  0  0  0  0
 28 31  2  0  0  0  0
 28 79  1  0  0  0  0
 29 81  1  0  0  0  0
 30 82  1  0  0  0  0
 31 83  1  0  0  0  0
 32 62  2  0  0  0  0
 33 63  1  0  0  0  0
 33 66  1  0  0  0  0
 34 35  2  0  0  0  0
 34 37  1  0  0  0  0
 35 80  1  0  0  0  0
 36 67  1  0  0  0  0
 36 73  2  0  0  0  0
 37 68  1  0  0  0  0
 37 74  2  0  0  0  0
 38 52  1  0  0  0  0
 38 70  1  0  0  0  0
 38 75  2  0  0  0  0
 39 59  1  0  0  0  0
 39 64  1  0  0  0  0
 39 76  2  0  0  0  0
 40 60  1  0  0  0  0
 40 71  1  0  0  0  0
 40 77  2  0  0  0  0
 41 65  1  0  0  0  0
 41 69  1  0  0  0  0
 41 78  2  0  0  0  0
 42 45  1  0  0  0  0
 43 52  1  0  0  0  0
 44 64  1  0  0  0  0
 45 47  1  0  0  0  0
 46 48  1  0  0  0  0
 46 49  1  0  0  0  0
 47 51  1  0  0  0  0
 48 53  1  0  0  0  0
 49 65  1  0  0  0  0
 50 53  1  0  0  0  0
 50 65  1  0  0  0  0
 51 70  1  0  0  0  0
 52 64  1  0  0  0  0
 53 63  1  0  0  0  0
 54 60  1  0  0  0  0
 55 61  1  0  0  0  0
 56 61  1  0  0  0  0
 57 61  1  0  0  0  0
 58 72  1  0  0  0  0
 59 61  1  0  0  0  0
 59 71  1  0  0  0  0
 60 72  1  0  0  0  0
 62 63  1  0  0  0  0
M  CHG  1  72   1
M  ISO  4  35 101  41 100  69 100  80 101
M  END
> <Batch ID>
0067

> <Smiles>
CNC(C)C(=O)NC(C(=O)N1Cc2cc([101O:1][101CH:1]=CC(=O)Nc3cc(F)cc([100NH:0][100C:0](=O)N4CCCC(n5nc(-c6ccc(Oc7ccc(F)cc7F)cc6)c(C(N)=O)c5N)C4)c3)ccc2CC1C(=O)NC1CCCc2ccccc21)C(C)(C)C

> <Shape>
0.273

> <Color>
0.105

> <Negative vol penalty>
0.000

$$$$

  -OEChem-04042323242D

  0  0  0     0  0  0  0  0  0999 V2000
M  END
$$$$

  -OEChem-04042323243D

 93102  0     1  0  0  0  0  0999 V2000
  -29.6539  -31.4704   23.6346 C   0  0  0  0  0  0  0  0  0  0  0  0
  -29.2811  -30.2315   23.1231 C   0  0  0  0  0  0  0  0  0  0  0  0
  -22.6628  -10.2549   20.5736 C   0  0  0  0  0  0  0  0  0  0  0  0
  -24.4909   -8.9490   21.4622 C   0  0  0  0  0  0  0  0  0  0  0  0
  -28.7255  -32.2442   24.3297 C   0  0  0  0  0  0  0  0  0  0  0  0
  -27.9799  -29.7653   23.3073 C   0  0  0  0  0  0  0  0  0  0  0  0
  -24.6958  -26.3773   19.4032 C   0  0  0  0  0  0  0  0  0  0  0  0
  -21.7923   -9.6560   21.4840 C   0  0  0  0  0  0  0  0  0  0  0  0
  -23.6204   -8.3501   22.3728 C   0  0  0  0  0  0  0  0  0  0  0  0
  -24.4404  -25.0085   19.3346 C   0  0  0  0  0  0  0  0  0  0  0  0
  -21.2904   -5.9002   22.3501 C   0  0  0  0  0  0  0  0  0  0  0  0
  -21.3754   -4.5178   22.5148 C   0  0  0  0  0  0  0  0  0  0  0  0
  -26.8916  -19.9789   21.8628 C   0  0  0  0  0  0  0  0  0  0  0  0
  -28.5129  -18.2294   21.4791 C   0  0  0  0  0  0  0  0  0  0  0  0
  -22.3602  -25.3439   20.5091 C   0  0  0  0  0  0  0  0  0  0  0  0
  -26.2649  -18.0018   20.6237 C   0  0  0  0  0  0  0  0  0  0  0  0
  -21.8944   -4.8283   24.8539 C   0  0  0  0  0  0  0  0  0  0  0  0
  -24.0121   -9.9014   20.5626 C   0  0  0  0  0  0  0  0  0  0  0  0
  -28.1813  -19.4716   22.0200 C   0  0  0  0  0  0  0  0  0  0  0  0
  -24.8287  -10.4839   18.2171 C   0  0  0  0  0  0  0  0  0  0  0  0
  -27.4096  -31.7915   24.5142 C   0  0  0  0  0  0  0  0  0  0  0  0
  -23.7891  -27.2398   20.0359 C   0  0  0  0  0  0  0  0  0  0  0  0
  -27.0334  -30.5332   24.0067 C   0  0  0  0  0  0  0  0  0  0  0  0
  -22.6053  -26.7237   20.5821 C   0  0  0  0  0  0  0  0  0  0  0  0
  -25.9333  -19.2440   21.1646 C   0  0  0  0  0  0  0  0  0  0  0  0
  -27.5547  -17.4945   20.7809 C   0  0  0  0  0  0  0  0  0  0  0  0
  -22.2711   -8.7036   22.3837 C   0  0  0  0  0  0  0  0  0  0  0  0
  -23.2738  -24.4912   19.8901 C   0  0  0  0  0  0  0  0  0  0  0  0
  -21.5075   -6.7468   23.4373 C   0  0  0  0  0  0  0  0  0  0  0  0
  -21.6774   -3.9818   23.7666 C   0  0  0  0  0  0  0  0  0  0  0  0
  -21.8094   -6.2108   24.6892 C   0  0  0  0  0  0  0  0  0  0  0  0
  -24.9118  -10.5194   19.6219 C   0  0  0  0  0  0  0  0  0  0  0  0
  -25.9095  -11.2163   17.7906 C   0  0  0  0  0  0  0  0  0  0  0  0
  -29.4563  -21.8797   20.9028 C   0  0  0  0  0  0  0  0  0  0  0  0
  -29.1976  -20.2511   22.7603 C   0  0  0  0  0  0  0  0  0  0  0  0
  -23.8610   -9.8461   17.3731 C   0  0  0  0  0  0  0  0  0  0  0  0
  -23.9190  -29.1773   22.5524 C   0  0  0  0  0  0  0  0  0  0  0  0
  -20.9524  -30.0322   21.5570 C   0  0  0  0  0  0  0  0  0  0  0  0
  -24.1260  -20.9706   21.4753 C   0  0  0  0  0  0  0  0  0  0  0  0
  -18.1267  -29.2085   19.8296 C   0  0  0  0  0  0  0  0  0  0  0  0
  -29.1251  -15.5853   20.2961 C   0  0  0  0  0  0  0  0  0  0  0  0
  -26.4545  -32.6424   25.3132 C   0  0  0  0  0  0  0  0  0  0  0  0
  -24.0665  -28.7175   20.0780 C   0  0  0  0  0  0  0  0  0  0  0  0
  -21.5899  -27.6099   21.2545 C   0  0  0  0  0  0  0  0  0  0  0  0
  -24.9916  -32.2418   25.1409 C   0  0  0  0  0  0  0  0  0  0  0  0
  -30.3440  -12.4596   19.1038 C   0  0  0  0  0  0  0  0  0  0  0  0
  -30.1545  -23.8629   22.9543 C   0  0  0  0  0  0  0  0  0  0  0  0
  -24.8347  -30.7292   25.2608 C   0  0  0  0  0  0  0  0  0  0  0  0
  -29.0810  -11.6060   18.9677 C   0  0  0  0  0  0  0  0  0  0  0  0
  -30.3465  -24.1890   21.4851 C   0  0  0  0  0  0  0  0  0  0  0  0
  -30.3208  -22.3725   23.1747 C   0  0  0  0  0  0  0  0  0  0  0  0
  -30.2761  -13.3831   20.3188 C   0  0  0  0  0  0  0  0  0  0  0  0
  -27.8134  -13.3732   20.2551 C   0  0  0  0  0  0  0  0  0  0  0  0
  -25.6245  -30.0040   24.1645 C   0  0  1  0  0  0  0  0  0  0  0  0
  -23.3196  -29.4340   21.1987 C   0  0  1  0  0  0  0  0  0  0  0  0
  -27.8075  -12.4734   19.0085 C   0  0  2  0  0  0  0  0  0  0  0  0
  -29.3857  -23.3877   20.5962 C   0  0  0  0  0  0  0  0  0  0  0  0
  -29.7629  -23.6379   19.1243 C   0  0  0  0  0  0  0  0  0  0  0  0
  -27.9277  -23.8368   20.8037 C   0  0  0  0  0  0  0  0  0  0  0  0
  -15.8579  -30.0951   19.2263 C   0  0  0  0  0  0  0  0  0  0  0  0
  -19.9654  -29.4192   24.3783 C   0  0  0  0  0  0  0  0  0  0  0  0
  -17.6283  -29.3962   23.4806 C   0  0  0  0  0  0  0  0  0  0  0  0
  -18.9895  -31.4830   23.3571 C   0  0  0  0  0  0  0  0  0  0  0  0
  -18.7360  -29.1251   16.9346 C   0  0  0  0  0  0  0  0  0  0  0  0
  -22.6625  -21.1341   21.0813 C   0  0  0  0  0  0  0  0  0  0  0  0
  -22.2550  -22.5866   20.8854 C   0  0  0  0  0  0  0  0  0  1  0  0
  -19.5505  -29.5452   21.8331 C   0  0  1  0  0  0  0  0  0  0  0  0
  -17.3138  -29.9766   18.8031 C   0  0  2  0  0  0  0  0  0  0  0  0
  -19.0533  -29.9437   23.2514 C   0  0  0  0  0  0  0  0  0  0  0  0
  -25.9625  -11.2188   20.0588 N   0  0  0  0  0  0  0  0  0  0  0  0
  -26.5496  -11.6295   18.9219 N   0  0  0  0  0  0  0  0  0  0  0  0
  -29.5339  -21.5337   22.2685 N   0  0  0  0  0  0  0  0  0  0  0  0
  -21.9095  -29.0469   21.2758 N   0  0  0  0  0  0  0  0  0  0  0  0
  -29.0456  -14.1766   20.2878 N   0  0  0  0  0  0  0  0  0  0  0  0
  -26.3654  -11.5407   16.5620 N   0  0  0  0  0  0  0  0  0  0  0  0
  -22.8146   -9.1344   17.9756 N   0  0  0  0  0  0  0  0  0  0  0  0
  -24.6247  -19.7587   21.0051 N   0  0  0  0  0  0  0  0  0  0  0  0
  -27.8918  -16.2328   20.2311 N   0  0  0  0  0  0  0  0  0  0  0  0
  -24.9153  -30.0678   22.9045 N   0  0  0  0  0  0  0  0  0  0  0  0
  -18.7208  -30.0513   20.7450 N   0  0  0  0  0  0  0  0  0  0  0  0
  -17.3647  -29.2886   17.4821 N   0  3  0  0  0  0  0  0  0  0  0  0
  -29.3795  -21.0492   19.9934 O   0  0  0  0  0  0  0  0  0  0  0  0
  -29.7015  -19.7247   23.7519 O   0  0  0  0  0  0  0  0  0  0  0  0
  -23.9316   -9.8917   16.1215 O   0  0  0  0  0  0  0  0  0  0  0  0
  -23.5071  -28.2417   23.2280 O   0  0  0  0  0  0  0  0  0  0  0  0
  -21.1881  -31.2428   21.5825 O   0  0  0  0  0  0  0  0  0  0  0  0
  -24.7280  -21.8235   22.1192 O   0  0  0  0  0  0  0  0  0  0  0  0
  -18.2220  -27.9832   19.8224 O   0  0  0  0  0  0  0  0  0  0  0  0
  -30.2088  -16.1739   20.3289 O   0  0  0  0  0  0  0  0  0  0  0  0
  -21.4219   -8.1191   23.2724 O   0  0  0  0  0  0  0  0  0  0  0  0
  -23.0223  -23.1554   19.8252 O   0  0  0  0  0  0  0  0  0  1  0  0
  -21.7575   -2.6541   23.9249 F   0  0  0  0  0  0  0  0  0  0  0  0
  -22.0178   -7.0189   25.7377 F   0  0  0  0  0  0  0  0  0  0  0  0
  1  2  1  0  0  0  0
  1  5  2  0  0  0  0
  2  6  2  0  0  0  0
  3  8  2  0  0  0  0
  3 18  1  0  0  0  0
  4  9  1  0  0  0  0
  4 18  2  0  0  0  0
  5 21  1  0  0  0  0
  6 23  1  0  0  0  0
  7 10  2  0  0  0  0
  7 22  1  0  0  0  0
  8 27  1  0  0  0  0
  9 27  2  0  0  0  0
 10 28  1  0  0  0  0
 11 12  2  0  0  0  0
 11 29  1  0  0  0  0
 12 30  1  0  0  0  0
 13 19  1  0  0  0  0
 13 25  2  0  0  0  0
 14 19  2  0  0  0  0
 14 26  1  0  0  0  0
 15 24  1  0  0  0  0
 15 28  2  0  0  0  0
 16 25  1  0  0  0  0
 16 26  2  0  0  0  0
 17 30  2  0  0  0  0
 17 31  1  0  0  0  0
 18 32  1  0  0  0  0
 19 35  1  0  0  0  0
 20 32  1  0  0  0  0
 20 33  2  0  0  0  0
 20 36  1  0  0  0  0
 21 23  2  0  0  0  0
 21 42  1  0  0  0  0
 22 24  2  0  0  0  0
 22 43  1  0  0  0  0
 23 54  1  0  0  0  0
 24 44  1  0  0  0  0
 25 77  1  0  0  0  0
 26 78  1  0  0  0  0
 27 90  1  0  0  0  0
 28 91  1  0  0  0  0
 29 31  2  0  0  0  0
 29 90  1  0  0  0  0
 30 92  1  0  0  0  0
 31 93  1  0  0  0  0
 32 70  2  0  0  0  0
 33 71  1  0  0  0  0
 33 75  1  0  0  0  0
 34 57  1  0  0  0  0
 34 72  1  0  0  0  0
 34 82  2  0  0  0  0
 35 72  1  0  0  0  0
 35 83  2  0  0  0  0
 36 76  1  0  0  0  0
 36 84  2  0  0  0  0
 37 55  1  0  0  0  0
 37 79  1  0  0  0  0
 37 85  2  0  0  0  0
 38 67  1  0  0  0  0
 38 73  1  0  0  0  0
 38 86  2  0  0  0  0
 39 65  1  0  0  0  0
 39 77  1  0  0  0  0
 39 87  2  0  0  0  0
 40 68  1  0  0  0  0
 40 80  1  0  0  0  0
 40 88  2  0  0  0  0
 41 74  1  0  0  0  0
 41 78  1  0  0  0  0
 41 89  2  0  0  0  0
 42 45  1  0  0  0  0
 43 55  1  0  0  0  0
 44 73  1  0  0  0  0
 45 48  1  0  0  0  0
 46 49  1  0  0  0  0
 46 52  1  0  0  0  0
 47 50  1  0  0  0  0
 47 51  1  0  0  0  0
 48 54  1  0  0  0  0
 49 56  1  0  0  0  0
 50 57  1  0  0  0  0
 51 72  1  0  0  0  0
 52 74  1  0  0  0  0
 53 56  1  0  0  0  0
 53 74  1  0  0  0  0
 54 79  1  0  0  0  0
 55 73  1  0  0  0  0
 56 71  1  0  0  0  0
 57 58  1  0  0  0  0
 57 59  1  0  0  0  0
 60 68  1  0  0  0  0
 61 69  1  0  0  0  0
 62 69  1  0  0  0  0
 63 69  1  0  0  0  0
 64 81  1  0  0  0  0
 65 66  1  0  0  0  0
 66 91  1  0  0  0  0
 67 69  1  0  0  0  0
 67 80  1  0  0  0  0
 68 81  1  0  0  0  0
 70 71  1  0  0  0  0
M  CHG  1  81   1
M  ISO  4  41 100  66 101  78 100  91 101
M  END
> <Batch ID>
0067

> <Smiles>
CNC(C)C(=O)NC(C(=O)N1Cc2cc([101O:1][101CH2:1]CC(=O)Nc3cc([100NH:0][100C:0](=O)N4CCCC(n5nc(-c6ccc(Oc7ccc(F)cc7F)cc6)c(C(N)=O)c5N)C4)cc(C(=O)N4CCCC(C)(C)C4=O)c3)ccc2CC1C(=O)NC1CCCc2ccccc21)C(C)(C)C

> <Shape>
0.294

> <Color>
0.090

> <Negative vol penalty>
0.000

$$$$

  -OEChem-04042323243D

 86 95  0     1  0  0  0  0  0999 V2000
  -29.2302  -30.6457   26.6377 C   0  0  0  0  0  0  0  0  0  0  0  0
  -29.1206  -29.8323   25.5144 C   0  0  0  0  0  0  0  0  0  0  0  0
  -23.6639   -8.9988   20.2452 C   0  0  0  0  0  0  0  0  0  0  0  0
  -22.8365  -10.8612   21.5428 C   0  0  0  0  0  0  0  0  0  0  0  0
  -28.0977  -30.9434   27.3946 C   0  0  0  0  0  0  0  0  0  0  0  0
  -27.8786  -29.3152   25.1480 C   0  0  0  0  0  0  0  0  0  0  0  0
  -26.9980  -29.7145   20.1770 C   0  0  0  0  0  0  0  0  0  0  0  0
  -29.3907  -20.3412   19.4549 C   0  0  0  0  0  0  0  0  0  0  0  0
  -29.4309  -18.9489   19.5273 C   0  0  0  0  0  0  0  0  0  0  0  0
  -22.8682   -8.1272   20.9887 C   0  0  0  0  0  0  0  0  0  0  0  0
  -22.0407   -9.9896   22.2863 C   0  0  0  0  0  0  0  0  0  0  0  0
  -27.6219  -28.7874   19.3434 C   0  0  0  0  0  0  0  0  0  0  0  0
  -22.9677   -6.6378   24.0212 C   0  0  0  0  0  0  0  0  0  0  0  0
  -23.5501   -5.4522   24.4690 C   0  0  0  0  0  0  0  0  0  0  0  0
  -25.5725  -27.5200   19.2293 C   0  0  0  0  0  0  0  0  0  0  0  0
  -27.3565  -20.2150   18.1575 C   0  0  0  0  0  0  0  0  0  0  0  0
  -21.9103   -4.1797   23.2326 C   0  0  0  0  0  0  0  0  0  0  0  0
  -23.6481  -10.3658   20.5223 C   0  0  0  0  0  0  0  0  0  0  0  0
  -24.1180  -11.9371   18.5683 C   0  0  0  0  0  0  0  0  0  0  0  0
  -26.8396  -30.4375   27.0317 C   0  0  0  0  0  0  0  0  0  0  0  0
  -25.6575  -29.5452   20.5525 C   0  0  0  0  0  0  0  0  0  0  0  0
  -26.7284  -29.6053   25.9015 C   0  0  0  0  0  0  0  0  0  0  0  0
  -24.9332  -28.4477   20.0657 C   0  0  0  0  0  0  0  0  0  0  0  0
  -27.3968  -18.8226   18.2298 C   0  0  0  0  0  0  0  0  0  0  0  0
  -28.3534  -20.9743   18.7700 C   0  0  0  0  0  0  0  0  0  0  0  0
  -28.4340  -18.1895   18.9147 C   0  0  0  0  0  0  0  0  0  0  0  0
  -22.0566   -8.6226   22.0092 C   0  0  0  0  0  0  0  0  0  0  0  0
  -26.9100  -27.6884   18.8717 C   0  0  0  0  0  0  0  0  0  0  0  0
  -21.8565   -6.5945   23.1791 C   0  0  0  0  0  0  0  0  0  0  0  0
  -23.0214   -4.2231   24.0747 C   0  0  0  0  0  0  0  0  0  0  0  0
  -21.3278   -5.3654   22.7849 C   0  0  0  0  0  0  0  0  0  0  0  0
  -24.4702  -11.2666   19.7549 C   0  0  0  0  0  0  0  0  0  0  0  0
  -25.2361  -12.6639   18.2397 C   0  0  0  0  0  0  0  0  0  0  0  0
  -29.1285  -24.2992   18.9540 C   0  0  0  0  0  0  0  0  0  0  0  0
  -30.2554  -25.4293   20.7564 C   0  0  0  0  0  0  0  0  0  0  0  0
  -29.9361  -25.4132   19.4642 C   0  0  0  0  0  0  0  0  0  0  0  0
  -22.8898  -11.9059   17.8292 C   0  0  0  0  0  0  0  0  0  0  0  0
  -24.1371  -29.1236   23.3119 C   0  0  0  0  0  0  0  0  0  0  0  0
  -21.4947  -29.3912   21.4495 C   0  0  0  0  0  0  0  0  0  0  0  0
  -20.0951  -29.1145   18.3493 C   0  0  0  0  0  0  0  0  0  0  0  0
  -29.4592  -16.0084   19.6479 C   0  0  0  0  0  0  0  0  0  0  0  0
  -25.6520  -30.7482   27.9079 C   0  0  0  0  0  0  0  0  0  0  0  0
  -24.9914  -30.5685   21.4308 C   0  0  0  0  0  0  0  0  0  0  0  0
  -23.4861  -28.2312   20.4229 C   0  0  0  0  0  0  0  0  0  0  0  0
  -24.3099  -30.4660   27.2374 C   0  0  0  0  0  0  0  0  0  0  0  0
  -29.9338  -12.5112   20.1187 C   0  0  0  0  0  0  0  0  0  0  0  0
  -24.3289  -29.0998   26.5591 C   0  0  0  0  0  0  0  0  0  0  0  0
  -28.5257  -11.9308   19.9684 C   0  0  0  0  0  0  0  0  0  0  0  0
  -29.9163  -13.8668   20.8227 C   0  0  0  0  0  0  0  0  0  0  0  0
  -27.7297  -23.0606   17.5769 C   0  0  0  0  0  0  0  0  0  0  0  0
  -27.6035  -14.2810   20.0818 C   0  0  0  0  0  0  0  0  0  0  0  0
  -25.3943  -29.0456   25.4576 C   0  0  1  0  0  0  0  0  0  0  0  0
  -28.1952  -24.5011   17.7868 C   0  0  1  0  0  0  0  0  0  0  0  0
  -23.7706  -30.0222   22.1647 C   0  0  1  0  0  0  0  0  0  0  0  0
  -27.5639  -12.9460   19.3204 C   0  0  2  0  0  0  0  0  0  0  0  0
  -26.3148  -18.0344   17.5656 C   0  0  0  0  0  0  0  0  0  0  0  0
  -17.9065  -29.3622   17.1467 C   0  0  0  0  0  0  0  0  0  0  0  0
  -20.5531  -26.7358   22.6210 C   0  0  0  0  0  0  0  0  0  0  0  0
  -18.9055  -26.5713   20.7432 C   0  0  0  0  0  0  0  0  0  0  0  0
  -18.7585  -28.4589   22.3673 C   0  0  0  0  0  0  0  0  0  0  0  0
  -21.1673  -31.2437   16.5954 C   0  0  0  0  0  0  0  0  0  0  0  0
  -27.0530  -25.4338   18.1283 C   0  0  0  0  0  0  0  0  0  1  0  0
  -20.6331  -28.4263   20.6712 C   0  0  1  0  0  0  0  0  0  0  0  0
  -19.1968  -30.0516   17.5624 C   0  0  2  0  0  0  0  0  0  0  0  0
  -19.7404  -27.5508   21.5953 C   0  0  0  0  0  0  0  0  0  0  0  0
  -25.7149  -11.5427   20.1532 N   0  0  0  0  0  0  0  0  0  0  0  0
  -29.1600  -23.1018   19.4446 N   0  0  0  0  0  0  0  0  0  0  0  0
  -26.1545  -12.3948   19.2115 N   0  0  0  0  0  0  0  0  0  0  0  0
  -28.3137  -22.3440   18.6995 N   0  0  0  0  0  0  0  0  0  0  0  0
  -22.8810  -29.2560   21.2896 N   0  0  0  0  0  0  0  0  0  0  0  0
  -28.9867  -14.7778   20.1513 N   0  0  0  0  0  0  0  0  0  0  0  0
  -25.5135  -13.5005   17.2172 N   0  0  0  0  0  0  0  0  0  0  0  0
  -21.8425  -11.1065   18.3073 N   0  0  0  0  0  0  0  0  0  0  0  0
  -28.4917  -16.7764   19.0010 N   0  0  0  0  0  0  0  0  0  0  0  0
  -24.9284  -29.7284   24.2697 N   0  0  0  0  0  0  0  0  0  0  0  0
  -19.8885  -29.2298   19.7077 N   0  0  0  0  0  0  0  0  0  0  0  0
  -19.8932  -30.5261   16.3332 N   0  3  0  0  0  0  0  0  0  0  0  0
  -22.7316  -12.5544   16.7672 O   0  0  0  0  0  0  0  0  0  0  0  0
  -23.7307  -27.9676   23.3276 O   0  0  0  0  0  0  0  0  0  0  0  0
  -20.9572  -30.2383   22.1672 O   0  0  0  0  0  0  0  0  0  0  0  0
  -20.8970  -28.3534   17.8125 O   0  0  0  0  0  0  0  0  0  0  0  0
  -30.6416  -16.3431   19.7571 O   0  0  0  0  0  0  0  0  0  0  0  0
  -21.2799   -7.7725   22.7348 O   0  0  0  0  0  0  0  0  0  0  0  0
  -27.5167  -26.7816   18.0584 O   0  0  0  0  0  0  0  0  0  1  0  0
  -23.5818   -3.0846   24.5036 F   0  0  0  0  0  0  0  0  0  0  0  0
  -20.2611   -5.3173   21.9751 F   0  0  0  0  0  0  0  0  0  0  0  0
  1  2  1  0  0  0  0
  1  5  2  0  0  0  0
  2  6  2  0  0  0  0
  3 10  2  0  0  0  0
  3 18  1  0  0  0  0
  4 11  1  0  0  0  0
  4 18  2  0  0  0  0
  5 20  1  0  0  0  0
  6 22  1  0  0  0  0
  7 12  2  0  0  0  0
  7 21  1  0  0  0  0
  8  9  2  0  0  0  0
  8 25  1  0  0  0  0
  9 26  1  0  0  0  0
 10 27  1  0  0  0  0
 11 27  2  0  0  0  0
 12 28  1  0  0  0  0
 13 14  2  0  0  0  0
 13 29  1  0  0  0  0
 14 30  1  0  0  0  0
 15 23  1  0  0  0  0
 15 28  2  0  0  0  0
 16 24  1  0  0  0  0
 16 25  2  0  0  0  0
 17 30  2  0  0  0  0
 17 31  1  0  0  0  0
 18 32  1  0  0  0  0
 19 32  1  0  0  0  0
 19 33  2  0  0  0  0
 19 37  1  0  0  0  0
 20 22  2  0  0  0  0
 20 42  1  0  0  0  0
 21 23  2  0  0  0  0
 21 43  1  0  0  0  0
 22 52  1  0  0  0  0
 23 44  1  0  0  0  0
 24 26  2  0  0  0  0
 24 56  1  0  0  0  0
 25 69  1  0  0  0  0
 26 74  1  0  0  0  0
 27 83  1  0  0  0  0
 28 84  1  0  0  0  0
 29 31  2  0  0  0  0
 29 83  1  0  0  0  0
 30 85  1  0  0  0  0
 31 86  1  0  0  0  0
 32 66  2  0  0  0  0
 33 68  1  0  0  0  0
 33 72  1  0  0  0  0
 34 36  1  0  0  0  0
 34 53  1  0  0  0  0
 34 67  2  0  0  0  0
 35 36  2  0  0  0  0
 37 73  1  0  0  0  0
 37 78  2  0  0  0  0
 38 54  1  0  0  0  0
 38 75  1  0  0  0  0
 38 79  2  0  0  0  0
 39 63  1  0  0  0  0
 39 70  1  0  0  0  0
 39 80  2  0  0  0  0
 40 64  1  0  0  0  0
 40 76  1  0  0  0  0
 40 81  2  0  0  0  0
 41 71  1  0  0  0  0
 41 74  1  0  0  0  0
 41 82  2  0  0  0  0
 42 45  1  0  0  0  0
 43 54  1  0  0  0  0
 44 70  1  0  0  0  0
 45 47  1  0  0  0  0
 46 48  1  0  0  0  0
 46 49  1  0  0  0  0
 47 52  1  0  0  0  0
 48 55  1  0  0  0  0
 49 71  1  0  0  0  0
 50 53  1  0  0  0  0
 50 69  1  0  0  0  0
 51 55  1  0  0  0  0
 51 71  1  0  0  0  0
 52 75  1  0  0  0  0
 53 62  1  0  0  0  0
 54 70  1  0  0  0  0
 55 68  1  0  0  0  0
 57 64  1  0  0  0  0
 58 65  1  0  0  0  0
 59 65  1  0  0  0  0
 60 65  1  0  0  0  0
 61 77  1  0  0  0  0
 62 84  1  0  0  0  0
 63 65  1  0  0  0  0
 63 76  1  0  0  0  0
 64 77  1  0  0  0  0
 66 68  1  0  0  0  0
 67 69  1  0  0  0  0
M  CHG  1  77   1
M  ISO  4  41 100  62 101  74 100  84 101
M  END
> <Batch ID>
0067

> <Smiles>
C=CC1=NN(c2ccc([100NH:0][100C:0](=O)N3CCCC(n4nc(-c5ccc(Oc6ccc(F)cc6F)cc5)c(C(N)=O)c4N)C3)c(C)c2)CC1[101CH2:1][101O:1]c1ccc2c(c1)CN(C(=O)C(NC(=O)C(C)NC)C(C)(C)C)C(C(=O)NC1CCCc3ccccc31)C2

> <Shape>
0.306

> <Color>
0.100

> <Negative vol penalty>
0.000

$$$$

  -OEChem-04042323243D

 87 96  0     1  0  0  0  0  0999 V2000
  -22.2711  -11.3626   19.3842 C   0  0  0  0  0  0  0  0  0  0  0  0
  -22.1582  -12.0159   20.6072 C   0  0  0  0  0  0  0  0  0  0  0  0
  -28.7697  -25.5324   21.3525 C   0  0  0  0  0  0  0  0  0  0  0  0
  -29.6489  -27.6980   21.9645 C   0  0  0  0  0  0  0  0  0  0  0  0
  -23.4491  -11.4668   18.6456 C   0  0  0  0  0  0  0  0  0  0  0  0
  -23.2237  -12.7731   21.0929 C   0  0  0  0  0  0  0  0  0  0  0  0
  -22.4315  -19.7833   22.5490 C   0  0  0  0  0  0  0  0  0  0  0  0
  -18.0005  -28.4310   22.9791 C   0  0  0  0  0  0  0  0  0  0  0  0
  -19.2288  -29.0373   22.7160 C   0  0  0  0  0  0  0  0  0  0  0  0
  -29.7532  -24.9148   22.1251 C   0  0  0  0  0  0  0  0  0  0  0  0
  -30.6324  -27.0803   22.7371 C   0  0  0  0  0  0  0  0  0  0  0  0
  -22.3033  -21.0788   23.0504 C   0  0  0  0  0  0  0  0  0  0  0  0
  -33.5905  -25.5249   22.2259 C   0  0  0  0  0  0  0  0  0  0  0  0
  -34.8971  -25.9996   22.1121 C   0  0  0  0  0  0  0  0  0  0  0  0
  -24.6597  -21.1133   23.5932 C   0  0  0  0  0  0  0  0  0  0  0  0
  -20.2575  -26.8614   22.5050 C   0  0  0  0  0  0  0  0  0  0  0  0
  -34.9052  -26.5418   24.4665 C   0  0  0  0  0  0  0  0  0  0  0  0
  -28.7176  -26.9240   21.2722 C   0  0  0  0  0  0  0  0  0  0  0  0
  -27.4907  -27.4143   19.0900 C   0  0  0  0  0  0  0  0  0  0  0  0
  -24.5260  -12.2335   19.1179 C   0  0  0  0  0  0  0  0  0  0  0  0
  -23.6788  -19.1529   22.5537 C   0  0  0  0  0  0  0  0  0  0  0  0
  -24.4177  -12.8866   20.3605 C   0  0  0  0  0  0  0  0  0  0  0  0
  -24.7966  -19.8204   23.0809 C   0  0  0  0  0  0  0  0  0  0  0  0
  -17.9006  -27.0399   23.0052 C   0  0  0  0  0  0  0  0  0  0  0  0
  -19.0291  -26.2551   22.7682 C   0  0  0  0  0  0  0  0  0  0  0  0
  -20.3573  -28.2525   22.4790 C   0  0  0  0  0  0  0  0  0  0  0  0
  -30.6845  -25.6887   22.8174 C   0  0  0  0  0  0  0  0  0  0  0  0
  -23.4146  -21.7420   23.5714 C   0  0  0  0  0  0  0  0  0  0  0  0
  -32.9411  -25.5587   23.4600 C   0  0  0  0  0  0  0  0  0  0  0  0
  -35.5545  -26.5080   23.2324 C   0  0  0  0  0  0  0  0  0  0  0  0
  -33.5985  -26.0672   24.5803 C   0  0  0  0  0  0  0  0  0  0  0  0
  -27.7022  -27.5626   20.4738 C   0  0  0  0  0  0  0  0  0  0  0  0
  -26.4147  -28.2236   18.8184 C   0  0  0  0  0  0  0  0  0  0  0  0
  -21.1490  -23.8750   23.4683 C   0  0  0  0  0  0  0  0  0  0  0  0
  -28.2030  -26.6162   18.1353 C   0  0  0  0  0  0  0  0  0  0  0  0
  -25.6753  -16.0951   21.6935 C   0  0  0  0  0  0  0  0  0  0  0  0
  -27.4148  -18.5220   20.9901 C   0  0  0  0  0  0  0  0  0  0  0  0
  -28.8396  -21.4462   19.9625 C   0  0  0  0  0  0  0  0  0  0  0  0
  -21.8765  -30.2342   22.1452 C   0  0  0  0  0  0  0  0  0  0  0  0
  -25.7965  -12.2780   18.3064 C   0  0  0  0  0  0  0  0  0  0  0  0
  -23.8512  -17.7351   22.0804 C   0  0  0  0  0  0  0  0  0  0  0  0
  -26.1116  -19.0901   23.0971 C   0  0  0  0  0  0  0  0  0  0  0  0
  -26.7411  -13.4053   18.7151 C   0  0  0  0  0  0  0  0  0  0  0  0
  -21.1266  -24.4948   26.7259 C   0  0  0  0  0  0  0  0  0  0  0  0
  -19.7632  -24.8912   26.1685 C   0  0  0  0  0  0  0  0  0  0  0  0
  -24.2410  -32.2045   20.3552 C   0  0  0  0  0  0  0  0  0  0  0  0
  -26.8890  -13.4541   20.2325 C   0  0  0  0  0  0  0  0  0  0  0  0
  -22.2437  -24.4222   25.6895 C   0  0  0  0  0  0  0  0  0  0  0  0
  -25.3749  -31.2227   20.0512 C   0  0  0  0  0  0  0  0  0  0  0  0
  -19.2371  -23.9283   25.1107 C   0  0  0  0  0  0  0  0  0  0  0  0
  -23.6244  -31.9509   21.7297 C   0  0  0  0  0  0  0  0  0  0  0  0
  -24.3192  -29.5882   21.6640 C   0  0  0  0  0  0  0  0  0  0  0  0
  -25.5424  -13.7375   20.9092 C   0  0  1  0  0  0  0  0  0  0  0  0
  -22.0189  -23.3617   24.6120 C   0  0  2  0  0  0  0  0  0  1  0  0
  -25.2067  -17.4887   21.3939 C   0  0  1  0  0  0  0  0  0  0  0  0
  -24.9283  -29.7629   20.2632 C   0  0  2  0  0  0  0  0  0  0  0  0
  -16.5750  -26.4137   23.2898 C   0  0  0  0  0  0  0  0  0  0  0  0
  -30.9049  -22.3506   18.8609 C   0  0  0  0  0  0  0  0  0  0  0  0
  -28.9649  -18.1370   23.5887 C   0  0  0  0  0  0  0  0  0  0  0  0
  -30.6045  -19.8482   22.7812 C   0  0  0  0  0  0  0  0  0  0  0  0
  -30.2932  -17.7244   21.5103 C   0  0  0  0  0  0  0  0  0  0  0  0
  -27.2879  -22.5519   17.6978 C   0  0  0  0  0  0  0  0  0  0  0  0
  -18.9452  -24.7563   22.7891 C   0  0  0  0  0  0  0  0  0  0  0  0
  -28.4818  -19.4869   21.4415 C   0  0  1  0  0  0  0  0  0  0  0  0
  -29.4867  -21.8444   18.6483 C   0  0  2  0  0  0  0  0  0  0  0  0
  -29.5585  -18.8055   22.3326 C   0  0  0  0  0  0  0  0  0  0  0  0
  -26.8307  -28.4005   21.0418 N   0  0  0  0  0  0  0  0  0  0  0  0
  -26.0612  -28.7859   20.0096 N   0  0  0  0  0  0  0  0  0  0  0  0
  -19.8264  -24.1747   23.7938 N   0  0  0  0  0  0  0  0  0  0  0  0
  -26.3029  -18.3714   21.8276 N   0  0  0  0  0  0  0  0  0  0  0  0
  -23.2213  -30.5487   21.8566 N   0  0  0  0  0  0  0  0  0  0  0  0
  -25.7460  -28.5021   17.6792 N   0  0  0  0  0  0  0  0  0  0  0  0
  -29.2834  -25.8440   18.5836 N   0  0  0  0  0  0  0  0  0  0  0  0
  -21.6049  -28.8679   22.2097 N   0  0  0  0  0  0  0  0  0  0  0  0
  -25.2110  -15.1426   20.8066 N   0  0  0  0  0  0  0  0  0  0  0  0
  -29.0120  -20.1048   20.2309 N   0  0  0  0  0  0  0  0  0  0  0  0
  -28.6972  -22.9220   17.9877 N   0  3  0  0  0  0  0  0  0  0  0  0
  -21.6201  -24.0094   22.3359 O   0  0  0  0  0  0  0  0  0  0  0  0
  -27.9010  -26.6013   16.9179 O   0  0  0  0  0  0  0  0  0  0  0  0
  -26.4058  -15.8974   22.6573 O   0  0  0  0  0  0  0  0  0  0  0  0
  -27.5632  -17.9127   19.9271 O   0  0  0  0  0  0  0  0  0  0  0  0
  -28.2441  -22.2460   20.6811 O   0  0  0  0  0  0  0  0  0  0  0  0
  -21.0225  -31.1118   22.2950 O   0  0  0  0  0  0  0  0  0  0  0  0
  -31.6442  -25.0864   23.5716 O   0  0  0  0  0  0  0  0  0  0  0  0
  -23.2834  -23.0083   24.0551 O   0  0  0  0  0  0  0  0  0  1  0  0
  -36.8098  -26.9624   23.1233 F   0  0  0  0  0  0  0  0  0  0  0  0
  -32.9803  -26.1011   25.7688 F   0  0  0  0  0  0  0  0  0  0  0  0
  1  2  1  0  0  0  0
  1  5  2  0  0  0  0
  2  6  2  0  0  0  0
  3 10  2  0  0  0  0
  3 18  1  0  0  0  0
  4 11  1  0  0  0  0
  4 18  2  0  0  0  0
  5 20  1  0  0  0  0
  6 22  1  0  0  0  0
  7 12  2  0  0  0  0
  7 21  1  0  0  0  0
  8  9  2  0  0  0  0
  8 24  1  0  0  0  0
  9 26  1  0  0  0  0
 10 27  1  0  0  0  0
 11 27  2  0  0  0  0
 12 28  1  0  0  0  0
 13 14  2  0  0  0  0
 13 29  1  0  0  0  0
 14 30  1  0  0  0  0
 15 23  1  0  0  0  0
 15 28  2  0  0  0  0
 16 25  1  0  0  0  0
 16 26  2  0  0  0  0
 17 30  2  0  0  0  0
 17 31  1  0  0  0  0
 18 32  1  0  0  0  0
 19 32  1  0  0  0  0
 19 33  2  0  0  0  0
 19 35  1  0  0  0  0
 20 22  2  0  0  0  0
 20 40  1  0  0  0  0
 21 23  2  0  0  0  0
 21 41  1  0  0  0  0
 22 53  1  0  0  0  0
 23 42  1  0  0  0  0
 24 25  2  0  0  0  0
 24 57  1  0  0  0  0
 25 63  1  0  0  0  0
 26 74  1  0  0  0  0
 27 84  1  0  0  0  0
 28 85  1  0  0  0  0
 29 31  2  0  0  0  0
 29 84  1  0  0  0  0
 30 86  1  0  0  0  0
 31 87  1  0  0  0  0
 32 67  2  0  0  0  0
 33 68  1  0  0  0  0
 33 72  1  0  0  0  0
 34 54  1  0  0  0  0
 34 69  1  0  0  0  0
 34 78  2  0  0  0  0
 35 73  1  0  0  0  0
 35 79  2  0  0  0  0
 36 55  1  0  0  0  0
 36 75  1  0  0  0  0
 36 80  2  0  0  0  0
 37 64  1  0  0  0  0
 37 70  1  0  0  0  0
 37 81  2  0  0  0  0
 38 65  1  0  0  0  0
 38 76  1  0  0  0  0
 38 82  2  0  0  0  0
 39 71  1  0  0  0  0
 39 74  1  0  0  0  0
 39 83  2  0  0  0  0
 40 43  1  0  0  0  0
 41 55  1  0  0  0  0
 42 70  1  0  0  0  0
 43 47  1  0  0  0  0
 44 45  1  0  0  0  0
 44 48  1  0  0  0  0
 45 50  1  0  0  0  0
 46 49  1  0  0  0  0
 46 51  1  0  0  0  0
 47 53  1  0  0  0  0
 48 54  1  0  0  0  0
 49 56  1  0  0  0  0
 50 69  1  0  0  0  0
 51 71  1  0  0  0  0
 52 56  1  0  0  0  0
 52 71  1  0  0  0  0
 53 75  1  0  0  0  0
 54 85  1  0  0  0  0
 55 70  1  0  0  0  0
 56 68  1  0  0  0  0
 58 65  1  0  0  0  0
 59 66  1  0  0  0  0
 60 66  1  0  0  0  0
 61 66  1  0  0  0  0
 62 77  1  0  0  0  0
 63 69  1  0  0  0  0
 64 66  1  0  0  0  0
 64 76  1  0  0  0  0
 65 77  1  0  0  0  0
 67 68  1  0  0  0  0
M  CHG  1  77   1
M  ISO  4  39 100  54 101  74 100  85 101
M  END
> <Batch ID>
0067

> <Smiles>
CNC(C)C(=O)NC(C(=O)N1Cc2cc([101O:1][101CH:1]3CCCCN(Cc4cc([100NH:0][100C:0](=O)N5CCCC(n6nc(-c7ccc(Oc8ccc(F)cc8F)cc7)c(C(N)=O)c6N)C5)ccc4C)C3=O)ccc2CC1C(=O)NC1CCCc2ccccc21)C(C)(C)C

> <Shape>
0.229

> <Color>
0.070

> <Negative vol penalty>
0.000

$$$$

  -OEChem-04042323243D

 85 93  0     1  0  0  0  0  0999 V2000
  -28.9962  -31.1111   28.2409 C   0  0  0  0  0  0  0  0  0  0  0  0
  -29.6164  -29.8658   28.2490 C   0  0  0  0  0  0  0  0  0  0  0  0
  -22.9997   -9.8936   19.9817 C   0  0  0  0  0  0  0  0  0  0  0  0
  -23.7233   -9.9468   22.2862 C   0  0  0  0  0  0  0  0  0  0  0  0
  -27.6329  -31.2115   28.5151 C   0  0  0  0  0  0  0  0  0  0  0  0
  -28.8737  -28.7202   28.5325 C   0  0  0  0  0  0  0  0  0  0  0  0
  -29.8959  -24.9079   25.3596 C   0  0  0  0  0  0  0  0  0  0  0  0
  -22.2327   -8.7596   20.2487 C   0  0  0  0  0  0  0  0  0  0  0  0
  -22.9563   -8.8127   22.5532 C   0  0  0  0  0  0  0  0  0  0  0  0
  -31.0714  -24.1922   25.5821 C   0  0  0  0  0  0  0  0  0  0  0  0
  -21.4732   -5.7213   23.7587 C   0  0  0  0  0  0  0  0  0  0  0  0
  -22.0584   -4.7061   24.5153 C   0  0  0  0  0  0  0  0  0  0  0  0
  -30.4708  -18.3477   23.9881 C   0  0  0  0  0  0  0  0  0  0  0  0
  -29.8005  -22.4552   26.6716 C   0  0  0  0  0  0  0  0  0  0  0  0
  -32.0569  -16.5492   22.5625 C   0  0  0  0  0  0  0  0  0  0  0  0
  -23.7858   -4.4568   22.8447 C   0  0  0  0  0  0  0  0  0  0  0  0
  -23.7451  -10.4872   21.0005 C   0  0  0  0  0  0  0  0  0  0  0  0
  -31.8542  -18.3448   24.1662 C   0  0  0  0  0  0  0  0  0  0  0  0
  -24.1312  -13.0025   20.8222 C   0  0  0  0  0  0  0  0  0  0  0  0
  -26.8712  -30.0654   28.7926 C   0  0  0  0  0  0  0  0  0  0  0  0
  -28.6630  -24.4070   25.8019 C   0  0  0  0  0  0  0  0  0  0  0  0
  -27.4992  -28.8054   28.8120 C   0  0  0  0  0  0  0  0  0  0  0  0
  -28.6104  -23.1654   26.4512 C   0  0  0  0  0  0  0  0  0  0  0  0
  -30.6734  -16.5520   22.3845 C   0  0  0  0  0  0  0  0  0  0  0  0
  -22.2110   -8.2192   21.5344 C   0  0  0  0  0  0  0  0  0  0  0  0
  -31.0242  -22.9670   26.2407 C   0  0  0  0  0  0  0  0  0  0  0  0
  -22.0442   -6.1042   22.5450 C   0  0  0  0  0  0  0  0  0  0  0  0
  -23.2147   -4.0739   24.0584 C   0  0  0  0  0  0  0  0  0  0  0  0
  -29.8804  -17.4512   23.0973 C   0  0  0  0  0  0  0  0  0  0  0  0
  -32.6473  -17.4456   23.4534 C   0  0  0  0  0  0  0  0  0  0  0  0
  -23.2005   -5.4720   22.0880 C   0  0  0  0  0  0  0  0  0  0  0  0
  -24.5381  -11.6583   20.7252 C   0  0  0  0  0  0  0  0  0  0  0  0
  -25.2414  -13.7244   20.4578 C   0  0  0  0  0  0  0  0  0  0  0  0
  -32.4765  -19.2948   25.1100 C   0  0  0  0  0  0  0  0  0  0  0  0
  -22.8631  -13.5496   21.2073 C   0  0  0  0  0  0  0  0  0  0  0  0
  -26.4457  -25.3960   27.8534 C   0  0  0  0  0  0  0  0  0  0  0  0
  -24.8092  -22.8360   26.7173 C   0  0  0  0  0  0  0  0  0  0  0  0
  -24.9011  -19.7715   25.2182 C   0  0  0  0  0  0  0  0  0  0  0  0
  -30.7209  -14.6843   20.6946 C   0  0  0  0  0  0  0  0  0  0  0  0
  -25.4102  -30.2289   29.1296 C   0  0  0  0  0  0  0  0  0  0  0  0
  -27.4008  -25.1787   25.5304 C   0  0  0  0  0  0  0  0  0  0  0  0
  -27.3097  -22.5741   26.9278 C   0  0  0  0  0  0  0  0  0  0  0  0
  -24.6178  -28.9265   29.0518 C   0  0  0  0  0  0  0  0  0  0  0  0
  -29.6036  -12.2294   18.3704 C   0  0  0  0  0  0  0  0  0  0  0  0
  -25.3679  -27.8022   29.7589 C   0  0  0  0  0  0  0  0  0  0  0  0
  -28.1527  -11.9725   18.7838 C   0  0  0  0  0  0  0  0  0  0  0  0
  -30.5034  -12.4738   19.5806 C   0  0  0  0  0  0  0  0  0  0  0  0
  -28.5873  -13.2645   20.9119 C   0  0  0  0  0  0  0  0  0  0  0  0
  -26.7223  -27.5370   29.0906 C   0  0  1  0  0  0  0  0  0  0  0  0
  -26.2628  -24.8159   26.4795 C   0  0  1  0  0  0  0  0  0  0  0  0
  -27.6304  -13.0772   19.7233 C   0  0  2  0  0  0  0  0  0  0  0  0
  -23.4058  -17.9064   24.4548 C   0  0  0  0  0  0  0  0  0  0  0  0
  -35.4335  -21.4027   24.8731 C   0  0  0  0  0  0  0  0  0  0  0  0
  -24.4715  -21.9261   29.6101 C   0  0  0  0  0  0  0  0  0  0  0  0
  -23.8416  -19.6605   28.7507 C   0  0  0  0  0  0  0  0  0  0  0  0
  -22.4374  -21.6425   28.1830 C   0  0  0  0  0  0  0  0  0  0  0  0
  -25.7569  -20.0824   22.4022 C   0  0  0  0  0  0  0  0  0  0  0  0
  -33.2215  -22.4273   25.5083 C   0  0  0  0  0  0  0  0  0  1  0  0
  -24.7056  -21.3788   27.0978 C   0  0  1  0  0  0  0  0  0  0  0  0
  -24.1111  -19.1938   24.0577 C   0  0  2  0  0  0  0  0  0  0  0  0
  -34.0585  -21.1558   25.4716 C   0  0  1  0  0  0  0  0  0  0  0  0
  -23.8889  -21.1637   28.4033 C   0  0  0  0  0  0  0  0  0  0  0  0
  -25.8076  -11.5311   20.3300 N   0  0  0  0  0  0  0  0  0  0  0  0
  -26.2080  -12.8046   20.1754 N   0  0  0  0  0  0  0  0  0  0  0  0
  -26.1037  -23.3696   26.6444 N   0  0  0  0  0  0  0  0  0  0  0  0
  -29.9480  -13.5357   20.4224 N   0  0  0  0  0  0  0  0  0  0  0  0
  -25.4753  -15.0500   20.3546 N   0  0  0  0  0  0  0  0  0  0  0  0
  -32.1131  -19.2364   26.3912 N   0  0  0  0  0  0  0  0  0  0  0  0
  -21.8308  -12.6661   21.5510 N   0  0  0  0  0  0  0  0  0  0  0  0
  -30.0764  -15.6405   21.4788 N   0  0  0  0  0  0  0  0  0  0  0  0
  -26.5447  -26.7742   27.8736 N   0  0  0  0  0  0  0  0  0  0  0  0
  -24.1614  -20.6903   25.9323 N   0  0  0  0  0  0  0  0  0  0  0  0
  -33.3695  -20.1652   24.6318 N   0  3  0  0  0  0  0  0  0  0  0  0
  -25.0160  -18.8994   22.9107 N   0  3  0  0  0  0  0  0  0  0  0  0
  -22.6467  -14.7850   21.2296 O   0  0  0  0  0  0  0  0  0  0  0  0
  -26.4919  -24.6487   28.8235 O   0  0  0  0  0  0  0  0  0  0  0  0
  -23.7799  -23.4753   26.4862 O   0  0  0  0  0  0  0  0  0  0  0  0
  -26.0572  -19.4382   25.4685 O   0  0  0  0  0  0  0  0  0  0  0  0
  -31.8600  -14.8225   20.2412 O   0  0  0  0  0  0  0  0  0  0  0  0
  -21.4624   -7.1128   21.7953 O   0  0  0  0  0  0  0  0  0  0  0  0
  -32.1702  -22.2666   26.4598 O   0  0  0  0  0  0  0  0  0  1  0  0
  -23.7775   -3.1001   24.7858 F   0  0  0  0  0  0  0  0  0  0  0  0
  -28.5495  -17.4626   22.9343 F   0  0  0  0  0  0  0  0  0  0  0  0
  -33.9776  -17.4351   23.6178 F   0  0  0  0  0  0  0  0  0  0  0  0
  -23.7544   -5.8363   20.9234 F   0  0  0  0  0  0  0  0  0  0  0  0
  1  2  1  0  0  0  0
  1  5  2  0  0  0  0
  2  6  2  0  0  0  0
  3  8  2  0  0  0  0
  3 17  1  0  0  0  0
  4  9  1  0  0  0  0
  4 17  2  0  0  0  0
  5 20  1  0  0  0  0
  6 22  1  0  0  0  0
  7 10  2  0  0  0  0
  7 21  1  0  0  0  0
  8 25  1  0  0  0  0
  9 25  2  0  0  0  0
 10 26  1  0  0  0  0
 11 12  2  0  0  0  0
 11 27  1  0  0  0  0
 12 28  1  0  0  0  0
 13 18  1  0  0  0  0
 13 29  2  0  0  0  0
 14 23  1  0  0  0  0
 14 26  2  0  0  0  0
 15 24  2  0  0  0  0
 15 30  1  0  0  0  0
 16 28  2  0  0  0  0
 16 31  1  0  0  0  0
 17 32  1  0  0  0  0
 18 30  2  0  0  0  0
 18 34  1  0  0  0  0
 19 32  1  0  0  0  0
 19 33  2  0  0  0  0
 19 35  1  0  0  0  0
 20 22  2  0  0  0  0
 20 40  1  0  0  0  0
 21 23  2  0  0  0  0
 21 41  1  0  0  0  0
 22 49  1  0  0  0  0
 23 42  1  0  0  0  0
 24 29  1  0  0  0  0
 24 70  1  0  0  0  0
 25 80  1  0  0  0  0
 26 81  1  0  0  0  0
 27 31  2  0  0  0  0
 27 80  1  0  0  0  0
 28 82  1  0  0  0  0
 29 83  1  0  0  0  0
 30 84  1  0  0  0  0
 31 85  1  0  0  0  0
 32 63  2  0  0  0  0
 33 64  1  0  0  0  0
 33 67  1  0  0  0  0
 34 68  1  0  0  0  0
 34 73  2  0  0  0  0
 35 69  1  0  0  0  0
 35 75  2  0  0  0  0
 36 50  1  0  0  0  0
 36 71  1  0  0  0  0
 36 76  2  0  0  0  0
 37 59  1  0  0  0  0
 37 65  1  0  0  0  0
 37 77  2  0  0  0  0
 38 60  1  0  0  0  0
 38 72  1  0  0  0  0
 38 78  2  0  0  0  0
 39 66  1  0  0  0  0
 39 70  1  0  0  0  0
 39 79  2  0  0  0  0
 40 43  1  0  0  0  0
 41 50  1  0  0  0  0
 42 65  1  0  0  0  0
 43 45  1  0  0  0  0
 44 46  1  0  0  0  0
 44 47  1  0  0  0  0
 45 49  1  0  0  0  0
 46 51  1  0  0  0  0
 47 66  1  0  0  0  0
 48 51  1  0  0  0  0
 48 66  1  0  0  0  0
 49 71  1  0  0  0  0
 50 65  1  0  0  0  0
 51 64  1  0  0  0  0
 52 60  1  0  0  0  0
 53 61  1  0  0  0  0
 54 62  1  0  0  0  0
 55 62  1  0  0  0  0
 56 62  1  0  0  0  0
 57 74  1  0  0  0  0
 58 61  1  0  0  0  0
 58 81  1  0  0  0  0
 59 62  1  0  0  0  0
 59 72  1  0  0  0  0
 60 74  1  0  0  0  0
 61 73  1  0  0  0  0
 63 64  1  0  0  0  0
M  CHG  2  73   1  74   1
M  ISO  4  39 100  58 101  70 100  81 101
M  END
> <Batch ID>
0067

> <Smiles>
CNC(C)C(=O)NC(C(=O)N1Cc2cc([101O:1][101CH2:1]C(C)NC(=N)c3cc(F)c([100NH:0][100C:0](=O)N4CCCC(n5nc(-c6ccc(Oc7ccc(F)cc7F)cc6)c(C(N)=O)c5N)C4)cc3F)ccc2CC1C(=O)NC1CCCc2ccccc21)C(C)(C)C

> <Shape>
0.172

> <Color>
0.193

> <Negative vol penalty>
0.000

$$$$

  -OEChem-04042323243D

 84 92  0     1  0  0  0  0  0999 V2000
  -21.5615  -12.2958   20.8264 C   0  0  0  0  0  0  0  0  0  0  0  0
  -21.6108  -13.6121   21.2740 C   0  0  0  0  0  0  0  0  0  0  0  0
  -29.8955  -29.9872   19.7729 C   0  0  0  0  0  0  0  0  0  0  0  0
  -29.4625  -29.2682   22.0384 C   0  0  0  0  0  0  0  0  0  0  0  0
  -22.7425  -11.6177   20.5274 C   0  0  0  0  0  0  0  0  0  0  0  0
  -22.8413  -14.2507   21.4240 C   0  0  0  0  0  0  0  0  0  0  0  0
  -22.8287  -18.9563   19.5528 C   0  0  0  0  0  0  0  0  0  0  0  0
  -31.1775  -30.3909   20.1461 C   0  0  0  0  0  0  0  0  0  0  0  0
  -30.7444  -29.6719   22.4116 C   0  0  0  0  0  0  0  0  0  0  0  0
  -22.2278  -19.9479   20.3271 C   0  0  0  0  0  0  0  0  0  0  0  0
  -34.4375  -31.9414   20.5841 C   0  0  0  0  0  0  0  0  0  0  0  0
  -34.8854  -33.1826   20.1322 C   0  0  0  0  0  0  0  0  0  0  0  0
  -24.4018  -20.6561   21.0963 C   0  0  0  0  0  0  0  0  0  0  0  0
  -18.0670  -25.9234   21.0905 C   0  0  0  0  0  0  0  0  0  0  0  0
  -20.0330  -26.4816   22.3791 C   0  0  0  0  0  0  0  0  0  0  0  0
  -33.0502  -34.2610   21.2751 C   0  0  0  0  0  0  0  0  0  0  0  0
  -29.0380  -29.4259   20.7191 C   0  0  0  0  0  0  0  0  0  0  0  0
  -27.3255  -27.7424   19.8584 C   0  0  0  0  0  0  0  0  0  0  0  0
  -23.9875  -12.2515   20.6645 C   0  0  0  0  0  0  0  0  0  0  0  0
  -24.2222  -18.7999   19.5528 C   0  0  0  0  0  0  0  0  0  0  0  0
  -24.0401  -13.5800   21.1278 C   0  0  0  0  0  0  0  0  0  0  0  0
  -25.0180  -19.6634   20.3191 C   0  0  0  0  0  0  0  0  0  0  0  0
  -17.5570  -27.2022   21.3146 C   0  0  0  0  0  0  0  0  0  0  0  0
  -19.5231  -27.7605   22.6031 C   0  0  0  0  0  0  0  0  0  0  0  0
  -19.3050  -25.5631   21.6228 C   0  0  0  0  0  0  0  0  0  0  0  0
  -31.6019  -30.2332   21.4654 C   0  0  0  0  0  0  0  0  0  0  0  0
  -23.0142  -20.7961   21.1013 C   0  0  0  0  0  0  0  0  0  0  0  0
  -33.2958  -31.8598   21.3814 C   0  0  0  0  0  0  0  0  0  0  0  0
  -34.1918  -34.3424   20.4777 C   0  0  0  0  0  0  0  0  0  0  0  0
  -32.6022  -33.0196   21.7269 C   0  0  0  0  0  0  0  0  0  0  0  0
  -18.2851  -28.1208   22.0708 C   0  0  0  0  0  0  0  0  0  0  0  0
  -27.7134  -29.0092   20.3344 C   0  0  0  0  0  0  0  0  0  0  0  0
  -25.9747  -27.8575   19.6376 C   0  0  0  0  0  0  0  0  0  0  0  0
  -28.1154  -26.5668   19.6358 C   0  0  0  0  0  0  0  0  0  0  0  0
  -26.2182  -16.4724   20.3910 C   0  0  0  0  0  0  0  0  0  0  0  0
  -28.4489  -18.4616   19.1304 C   0  0  0  0  0  0  0  0  0  0  0  0
  -21.0290  -23.7435   21.8482 C   0  0  0  0  0  0  0  0  0  0  0  0
  -29.3508  -21.6452   18.2949 C   0  0  0  0  0  0  0  0  0  0  0  0
  -21.2839  -30.4160   21.8656 C   0  0  0  0  0  0  0  0  0  0  0  0
  -25.2397  -11.4624   20.3743 C   0  0  0  0  0  0  0  0  0  0  0  0
  -24.8567  -17.7427   18.6913 C   0  0  0  0  0  0  0  0  0  0  0  0
  -26.5198  -19.5502   20.3382 C   0  0  0  0  0  0  0  0  0  0  0  0
  -26.4819  -12.3328   20.2022 C   0  0  0  0  0  0  0  0  0  0  0  0
  -22.8709  -31.6386   18.9222 C   0  0  0  0  0  0  0  0  0  0  0  0
  -26.5635  -13.3726   21.3152 C   0  0  0  0  0  0  0  0  0  0  0  0
  -24.2454  -30.9674   18.9421 C   0  0  0  0  0  0  0  0  0  0  0  0
  -22.4014  -32.0050   20.3284 C   0  0  0  0  0  0  0  0  0  0  0  0
  -23.7846  -30.2192   21.3141 C   0  0  0  0  0  0  0  0  0  0  0  0
  -25.3542  -14.3149   21.2796 C   0  0  1  0  0  0  0  0  0  0  0  0
  -26.2501  -17.3421   19.1661 C   0  0  1  0  0  0  0  0  0  0  0  0
  -24.2757  -29.7807   19.9239 C   0  0  2  0  0  0  0  0  0  0  0  0
  -16.2327  -27.5842   20.7441 C   0  0  0  0  0  0  0  0  0  0  0  0
  -31.2497  -22.9622   17.3167 C   0  0  0  0  0  0  0  0  0  0  0  0
  -29.9664  -18.2275   21.7671 C   0  0  0  0  0  0  0  0  0  0  0  0
  -31.2918  -20.2451   21.1031 C   0  0  0  0  0  0  0  0  0  0  0  0
  -31.4086  -18.1693   19.7247 C   0  0  0  0  0  0  0  0  0  0  0  0
  -27.6923  -22.5710   16.0253 C   0  0  0  0  0  0  0  0  0  0  0  0
  -20.3044  -28.7403   23.4121 C   0  0  0  0  0  0  0  0  0  0  0  0
  -21.2018  -22.3105   21.3801 C   0  0  0  0  0  0  0  0  0  1  0  0
  -29.3105  -19.5789   19.6672 C   0  0  1  0  0  0  0  0  0  0  0  0
  -29.9537  -22.2213   17.0265 C   0  0  2  0  0  0  0  0  0  0  0  0
  -30.4659  -19.0564   20.5669 C   0  0  0  0  0  0  0  0  0  0  0  0
  -26.6918  -29.8661   20.4116 N   0  0  0  0  0  0  0  0  0  0  0  0
  -25.6485  -29.1365   19.9811 N   0  0  0  0  0  0  0  0  0  0  0  0
  -27.0926  -18.4967   19.4841 N   0  0  0  0  0  0  0  0  0  0  0  0
  -22.4527  -30.8356   21.2093 N   0  0  0  0  0  0  0  0  0  0  0  0
  -25.0461  -26.9884   19.1850 N   0  0  0  0  0  0  0  0  0  0  0  0
  -29.4879  -26.6213   19.9147 N   0  0  0  0  0  0  0  0  0  0  0  0
  -19.8221  -24.2656   21.3955 N   0  0  0  0  0  0  0  0  0  0  0  0
  -25.5097  -15.2972   20.2283 N   0  0  0  0  0  0  0  0  0  0  0  0
  -29.7555  -20.3444   18.5077 N   0  0  0  0  0  0  0  0  0  0  0  0
  -21.4185  -29.2958   22.6766 N   0  0  0  0  0  0  0  0  0  0  0  0
  -29.0018  -23.1726   16.3861 N   0  3  0  0  0  0  0  0  0  0  0  0
  -27.6219  -25.5045   19.1869 O   0  0  0  0  0  0  0  0  0  0  0  0
  -26.7949  -16.8397   21.4079 O   0  0  0  0  0  0  0  0  0  0  0  0
  -28.9590  -17.5938   18.4174 O   0  0  0  0  0  0  0  0  0  0  0  0
  -21.8801  -24.3033   22.5313 O   0  0  0  0  0  0  0  0  0  0  0  0
  -28.5992  -22.2864   19.0260 O   0  0  0  0  0  0  0  0  0  0  0  0
  -20.1994  -30.9936   21.7341 O   0  0  0  0  0  0  0  0  0  0  0  0
  -32.8529  -30.6268   21.8299 O   0  0  0  0  0  0  0  0  0  0  0  0
  -22.4302  -21.7643   21.8585 O   0  0  0  0  0  0  0  0  0  1  0  0
  -34.6230  -35.5345   20.0450 F   0  0  0  0  0  0  0  0  0  0  0  0
  -31.5055  -32.9478   22.4936 F   0  0  0  0  0  0  0  0  0  0  0  0
  -17.7945  -29.3503   22.2868 F   0  0  0  0  0  0  0  0  0  0  0  0
  1  2  1  0  0  0  0
  1  5  2  0  0  0  0
  2  6  2  0  0  0  0
  3  8  2  0  0  0  0
  3 17  1  0  0  0  0
  4  9  1  0  0  0  0
  4 17  2  0  0  0  0
  5 19  1  0  0  0  0
  6 21  1  0  0  0  0
  7 10  2  0  0  0  0
  7 20  1  0  0  0  0
  8 26  1  0  0  0  0
  9 26  2  0  0  0  0
 10 27  1  0  0  0  0
 11 12  2  0  0  0  0
 11 28  1  0  0  0  0
 12 29  1  0  0  0  0
 13 22  1  0  0  0  0
 13 27  2  0  0  0  0
 14 23  2  0  0  0  0
 14 25  1  0  0  0  0
 15 24  1  0  0  0  0
 15 25  2  0  0  0  0
 16 29  2  0  0  0  0
 16 30  1  0  0  0  0
 17 32  1  0  0  0  0
 18 32  1  0  0  0  0
 18 33  2  0  0  0  0
 18 34  1  0  0  0  0
 19 21  2  0  0  0  0
 19 40  1  0  0  0  0
 20 22  2  0  0  0  0
 20 41  1  0  0  0  0
 21 49  1  0  0  0  0
 22 42  1  0  0  0  0
 23 31  1  0  0  0  0
 23 52  1  0  0  0  0
 24 31  2  0  0  0  0
 24 58  1  0  0  0  0
 25 69  1  0  0  0  0
 26 80  1  0  0  0  0
 27 81  1  0  0  0  0
 28 30  2  0  0  0  0
 28 80  1  0  0  0  0
 29 82  1  0  0  0  0
 30 83  1  0  0  0  0
 31 84  1  0  0  0  0
 32 63  2  0  0  0  0
 33 64  1  0  0  0  0
 33 67  1  0  0  0  0
 34 68  1  0  0  0  0
 34 74  2  0  0  0  0
 35 50  1  0  0  0  0
 35 70  1  0  0  0  0
 35 75  2  0  0  0  0
 36 60  1  0  0  0  0
 36 65  1  0  0  0  0
 36 76  2  0  0  0  0
 37 59  1  0  0  0  0
 37 69  1  0  0  0  0
 37 77  2  0  0  0  0
 38 61  1  0  0  0  0
 38 71  1  0  0  0  0
 38 78  2  0  0  0  0
 39 66  1  0  0  0  0
 39 72  1  0  0  0  0
 39 79  2  0  0  0  0
 40 43  1  0  0  0  0
 41 50  1  0  0  0  0
 42 65  1  0  0  0  0
 43 45  1  0  0  0  0
 44 46  1  0  0  0  0
 44 47  1  0  0  0  0
 45 49  1  0  0  0  0
 46 51  1  0  0  0  0
 47 66  1  0  0  0  0
 48 51  1  0  0  0  0
 48 66  1  0  0  0  0
 49 70  1  0  0  0  0
 50 65  1  0  0  0  0
 51 64  1  0  0  0  0
 53 61  1  0  0  0  0
 54 62  1  0  0  0  0
 55 62  1  0  0  0  0
 56 62  1  0  0  0  0
 57 73  1  0  0  0  0
 58 72  1  0  0  0  0
 59 81  1  0  0  0  0
 60 62  1  0  0  0  0
 60 71  1  0  0  0  0
 61 73  1  0  0  0  0
 63 64  1  0  0  0  0
M  CHG  1  73   1
M  ISO  4  39 100  59 101  72 100  81 101
M  END
> <Batch ID>
0067

> <Smiles>
CNC(C)C(=O)NC(C(=O)N1Cc2cc([101O:1][101CH2:1]C(=O)Nc3cc(C)c(F)c(C[100NH:0][100C:0](=O)N4CCCC(n5nc(-c6ccc(Oc7ccc(F)cc7F)cc6)c(C(N)=O)c5N)C4)c3)ccc2CC1C(=O)NC1CCCc2ccccc21)C(C)(C)C

> <Shape>
0.248

> <Color>
0.080

> <Negative vol penalty>
0.000

$$$$

  -OEChem-04042323243D

 83 91  0     1  0  0  0  0  0999 V2000
  -23.1115  -29.6892   20.6031 C   0  0  0  0  0  0  0  0  0  0  0  0
  -23.6422  -28.4778   21.0346 C   0  0  0  0  0  0  0  0  0  0  0  0
  -23.0381   -9.9130   20.1190 C   0  0  0  0  0  0  0  0  0  0  0  0
  -23.7373  -10.1140   22.4229 C   0  0  0  0  0  0  0  0  0  0  0  0
  -23.8135  -30.8738   20.8218 C   0  0  0  0  0  0  0  0  0  0  0  0
  -24.8758  -28.4501   21.6841 C   0  0  0  0  0  0  0  0  0  0  0  0
  -26.5745  -24.6793   26.2009 C   0  0  0  0  0  0  0  0  0  0  0  0
  -22.2575   -8.8062   20.4524 C   0  0  0  0  0  0  0  0  0  0  0  0
  -22.9566   -9.0072   22.7563 C   0  0  0  0  0  0  0  0  0  0  0  0
  -27.3204  -23.5015   26.2089 C   0  0  0  0  0  0  0  0  0  0  0  0
  -19.6936   -8.3465   23.3368 C   0  0  0  0  0  0  0  0  0  0  0  0
  -18.9053   -8.4334   24.4843 C   0  0  0  0  0  0  0  0  0  0  0  0
  -29.2985  -24.7651   26.7655 C   0  0  0  0  0  0  0  0  0  0  0  0
  -31.9272  -18.5473   23.8296 C   0  0  0  0  0  0  0  0  0  0  0  0
  -32.1299  -16.6467   22.3520 C   0  0  0  0  0  0  0  0  0  0  0  0
  -20.0749   -6.5432   25.4309 C   0  0  0  0  0  0  0  0  0  0  0  0
  -23.7781  -10.5669   21.1042 C   0  0  0  0  0  0  0  0  0  0  0  0
  -24.1900  -13.0612   20.7625 C   0  0  0  0  0  0  0  0  0  0  0  0
  -25.0518  -30.8618   21.4829 C   0  0  0  0  0  0  0  0  0  0  0  0
  -27.1882  -25.9123   26.4649 C   0  0  0  0  0  0  0  0  0  0  0  0
  -25.5957  -29.6355   21.9107 C   0  0  0  0  0  0  0  0  0  0  0  0
  -28.5576  -25.9569   26.7628 C   0  0  0  0  0  0  0  0  0  0  0  0
  -32.7192  -17.5955   23.1876 C   0  0  0  0  0  0  0  0  0  0  0  0
  -30.5457  -18.5504   23.6361 C   0  0  0  0  0  0  0  0  0  0  0  0
  -30.7485  -16.6498   22.1584 C   0  0  0  0  0  0  0  0  0  0  0  0
  -22.2167   -8.3533   21.7711 C   0  0  0  0  0  0  0  0  0  0  0  0
  -28.6832  -23.5446   26.4883 C   0  0  0  0  0  0  0  0  0  0  0  0
  -20.6726   -7.3579   23.2364 C   0  0  0  0  0  0  0  0  0  0  0  0
  -19.0960   -7.5318   25.5313 C   0  0  0  0  0  0  0  0  0  0  0  0
  -20.8632   -6.4563   24.2834 C   0  0  0  0  0  0  0  0  0  0  0  0
  -29.9564  -17.6017   22.8005 C   0  0  0  0  0  0  0  0  0  0  0  0
  -24.5851  -11.7100   20.7603 C   0  0  0  0  0  0  0  0  0  0  0  0
  -25.3109  -13.7473   20.3634 C   0  0  0  0  0  0  0  0  0  0  0  0
  -22.9231  -13.6440   21.0957 C   0  0  0  0  0  0  0  0  0  0  0  0
  -27.6188  -28.6005   24.8242 C   0  0  0  0  0  0  0  0  0  0  0  0
  -28.8161  -29.6699   27.6429 C   0  0  0  0  0  0  0  0  0  0  0  0
  -30.1656  -20.5269   25.1471 C   0  0  0  0  0  0  0  0  0  0  0  0
  -30.2504  -28.9279   30.6494 C   0  0  0  0  0  0  0  0  0  0  0  0
  -30.7965  -14.6727   20.5979 C   0  0  0  0  0  0  0  0  0  0  0  0
  -25.7959  -32.1624   21.6544 C   0  0  0  0  0  0  0  0  0  0  0  0
  -26.3642  -27.1706   26.4788 C   0  0  0  0  0  0  0  0  0  0  0  0
  -29.2600  -27.2526   27.0728 C   0  0  0  0  0  0  0  0  0  0  0  0
  -26.9214  -32.0892   22.6831 C   0  0  0  0  0  0  0  0  0  0  0  0
  -29.6810  -12.0775   18.4305 C   0  0  0  0  0  0  0  0  0  0  0  0
  -27.7630  -30.8358   22.4653 C   0  0  0  0  0  0  0  0  0  0  0  0
  -28.2233  -11.8617   18.8436 C   0  0  0  0  0  0  0  0  0  0  0  0
  -30.5699  -12.3945   19.6317 C   0  0  0  0  0  0  0  0  0  0  0  0
  -28.6472  -13.2894   20.8854 C   0  0  0  0  0  0  0  0  0  0  0  0
  -26.9194  -29.5674   22.6409 C   0  0  1  0  0  0  0  0  0  0  0  0
  -27.1945  -28.4309   26.2556 C   0  0  1  0  0  0  0  0  0  0  0  0
  -27.7014  -13.0313   19.7010 C   0  0  2  0  0  0  0  0  0  0  0  0
  -34.1964  -17.5923   23.3943 C   0  0  0  0  0  0  0  0  0  0  0  0
  -31.1501  -30.0149   32.7245 C   0  0  0  0  0  0  0  0  0  0  0  0
  -31.3301  -30.4896   26.1205 C   0  0  0  0  0  0  0  0  0  0  0  0
  -32.5173  -30.6704   28.3174 C   0  0  0  0  0  0  0  0  0  0  0  0
  -30.5624  -32.1423   27.8332 C   0  0  0  0  0  0  0  0  0  0  0  0
  -28.2714  -27.5528   32.3675 C   0  0  0  0  0  0  0  0  0  0  0  0
  -28.9839  -21.3473   25.6297 C   0  0  0  0  0  0  0  0  0  1  0  0
  -30.1809  -29.6847   28.2878 C   0  0  1  0  0  0  0  0  0  0  0  0
  -29.9324  -29.3926   32.0591 C   0  0  2  0  0  0  0  0  0  0  0  0
  -31.1351  -30.7224   27.6320 C   0  0  0  0  0  0  0  0  0  0  0  0
  -25.8575  -11.5454   20.3890 N   0  0  0  0  0  0  0  0  0  0  0  0
  -26.2717  -12.8021   20.1541 N   0  0  0  0  0  0  0  0  0  0  0  0
  -28.4125  -28.4565   27.0679 N   0  0  0  0  0  0  0  0  0  0  0  0
  -30.0156  -13.5153   20.3943 N   0  0  0  0  0  0  0  0  0  0  0  0
  -25.5585  -15.0608   20.1744 N   0  0  0  0  0  0  0  0  0  0  0  0
  -21.8788  -12.7945   21.4859 N   0  0  0  0  0  0  0  0  0  0  0  0
  -29.7444  -19.5173   24.2884 N   0  0  0  0  0  0  0  0  0  0  0  0
  -30.1526  -15.6849   21.3089 N   0  0  0  0  0  0  0  0  0  0  0  0
  -26.7093  -29.2906   24.0458 N   0  0  0  0  0  0  0  0  0  0  0  0
  -29.9564  -29.8970   29.7136 N   0  0  0  0  0  0  0  0  0  0  0  0
  -29.4769  -28.2443   32.8927 N   0  3  0  0  0  0  0  0  0  0  0  0
  -22.7182  -14.8799   21.0329 O   0  0  0  0  0  0  0  0  0  0  0  0
  -28.6925  -28.1405   24.4538 O   0  0  0  0  0  0  0  0  0  0  0  0
  -28.1303  -30.6952   27.6552 O   0  0  0  0  0  0  0  0  0  0  0  0
  -31.3113  -20.7769   25.5071 O   0  0  0  0  0  0  0  0  0  0  0  0
  -30.7166  -27.8177   30.4032 O   0  0  0  0  0  0  0  0  0  0  0  0
  -31.9416  -14.7702   20.1493 O   0  0  0  0  0  0  0  0  0  0  0  0
  -21.4549   -7.2735   22.0969 O   0  0  0  0  0  0  0  0  0  0  0  0
  -29.4138  -22.3965   26.4961 O   0  0  0  0  0  0  0  0  0  1  0  0
  -18.3400   -7.6163   26.6338 F   0  0  0  0  0  0  0  0  0  0  0  0
  -21.8029   -5.5051   24.1932 F   0  0  0  0  0  0  0  0  0  0  0  0
  -28.6275  -17.6041   22.6149 F   0  0  0  0  0  0  0  0  0  0  0  0
  1  2  1  0  0  0  0
  1  5  2  0  0  0  0
  2  6  2  0  0  0  0
  3  8  2  0  0  0  0
  3 17  1  0  0  0  0
  4  9  1  0  0  0  0
  4 17  2  0  0  0  0
  5 19  1  0  0  0  0
  6 21  1  0  0  0  0
  7 10  2  0  0  0  0
  7 20  1  0  0  0  0
  8 26  1  0  0  0  0
  9 26  2  0  0  0  0
 10 27  1  0  0  0  0
 11 12  2  0  0  0  0
 11 28  1  0  0  0  0
 12 29  1  0  0  0  0
 13 22  1  0  0  0  0
 13 27  2  0  0  0  0
 14 23  2  0  0  0  0
 14 24  1  0  0  0  0
 15 23  1  0  0  0  0
 15 25  2  0  0  0  0
 16 29  2  0  0  0  0
 16 30  1  0  0  0  0
 17 32  1  0  0  0  0
 18 32  1  0  0  0  0
 18 33  2  0  0  0  0
 18 34  1  0  0  0  0
 19 21  2  0  0  0  0
 19 40  1  0  0  0  0
 20 22  2  0  0  0  0
 20 41  1  0  0  0  0
 21 49  1  0  0  0  0
 22 42  1  0  0  0  0
 23 52  1  0  0  0  0
 24 31  2  0  0  0  0
 24 68  1  0  0  0  0
 25 31  1  0  0  0  0
 25 69  1  0  0  0  0
 26 79  1  0  0  0  0
 27 80  1  0  0  0  0
 28 30  2  0  0  0  0
 28 79  1  0  0  0  0
 29 81  1  0  0  0  0
 30 82  1  0  0  0  0
 31 83  1  0  0  0  0
 32 62  2  0  0  0  0
 33 63  1  0  0  0  0
 33 66  1  0  0  0  0
 34 67  1  0  0  0  0
 34 73  2  0  0  0  0
 35 50  1  0  0  0  0
 35 70  1  0  0  0  0
 35 74  2  0  0  0  0
 36 59  1  0  0  0  0
 36 64  1  0  0  0  0
 36 75  2  0  0  0  0
 37 58  1  0  0  0  0
 37 68  1  0  0  0  0
 37 76  2  0  0  0  0
 38 60  1  0  0  0  0
 38 71  1  0  0  0  0
 38 77  2  0  0  0  0
 39 65  1  0  0  0  0
 39 69  1  0  0  0  0
 39 78  2  0  0  0  0
 40 43  1  0  0  0  0
 41 50  1  0  0  0  0
 42 64  1  0  0  0  0
 43 45  1  0  0  0  0
 44 46  1  0  0  0  0
 44 47  1  0  0  0  0
 45 49  1  0  0  0  0
 46 51  1  0  0  0  0
 47 65  1  0  0  0  0
 48 51  1  0  0  0  0
 48 65  1  0  0  0  0
 49 70  1  0  0  0  0
 50 64  1  0  0  0  0
 51 63  1  0  0  0  0
 53 60  1  0  0  0  0
 54 61  1  0  0  0  0
 55 61  1  0  0  0  0
 56 61  1  0  0  0  0
 57 72  1  0  0  0  0
 58 80  1  0  0  0  0
 59 61  1  0  0  0  0
 59 71  1  0  0  0  0
 60 72  1  0  0  0  0
 62 63  1  0  0  0  0
M  CHG  1  72   1
M  ISO  4  39 100  58 101  69 100  80 101
M  END
> <Batch ID>
0067

> <Smiles>
CNC(C)C(=O)NC(C(=O)N1Cc2cc([101O:1][101CH2:1]C(=O)Nc3cc(C)cc([100NH:0][100C:0](=O)N4CCCC(n5nc(-c6ccc(Oc7ccc(F)cc7F)cc6)c(C(N)=O)c5N)C4)c3F)ccc2CC1C(=O)NC1CCCc2ccccc21)C(C)(C)C

> <Shape>
0.232

> <Color>
0.197

> <Negative vol penalty>
0.000

$$$$

  -OEChem-04042323243D

 83 91  0     1  0  0  0  0  0999 V2000
  -23.8210  -37.7073   18.4559 C   0  0  0  0  0  0  0  0  0  0  0  0
  -24.0127  -36.5049   17.7830 C   0  0  0  0  0  0  0  0  0  0  0  0
  -22.9016  -10.2636   22.0127 C   0  0  0  0  0  0  0  0  0  0  0  0
  -23.8106   -9.5229   19.9002 C   0  0  0  0  0  0  0  0  0  0  0  0
  -24.3672  -37.8890   19.7257 C   0  0  0  0  0  0  0  0  0  0  0  0
  -24.7518  -35.4838   18.3792 C   0  0  0  0  0  0  0  0  0  0  0  0
  -25.1196  -28.3390   18.7437 C   0  0  0  0  0  0  0  0  0  0  0  0
  -29.4162  -19.4559   19.3541 C   0  0  0  0  0  0  0  0  0  0  0  0
  -29.0100  -20.7883   19.2812 C   0  0  0  0  0  0  0  0  0  0  0  0
  -22.2670   -9.0317   22.1715 C   0  0  0  0  0  0  0  0  0  0  0  0
  -23.1759   -8.2910   20.0591 C   0  0  0  0  0  0  0  0  0  0  0  0
  -26.0335  -27.2981   18.5855 C   0  0  0  0  0  0  0  0  0  0  0  0
  -23.1118   -5.8984   23.1212 C   0  0  0  0  0  0  0  0  0  0  0  0
  -23.1950   -5.2826   24.3700 C   0  0  0  0  0  0  0  0  0  0  0  0
  -26.8629  -27.6954   20.8156 C   0  0  0  0  0  0  0  0  0  0  0  0
  -27.6828  -20.2769   17.3283 C   0  0  0  0  0  0  0  0  0  0  0  0
  -20.7867   -5.3348   24.5560 C   0  0  0  0  0  0  0  0  0  0  0  0
  -23.6734  -10.5092   20.8770 C   0  0  0  0  0  0  0  0  0  0  0  0
  -25.6212  -12.1347   21.1442 C   0  0  0  0  0  0  0  0  0  0  0  0
  -25.1052  -36.8661   20.3418 C   0  0  0  0  0  0  0  0  0  0  0  0
  -25.0778  -29.0743   19.9370 C   0  0  0  0  0  0  0  0  0  0  0  0
  -25.3096  -35.6525   19.6579 C   0  0  0  0  0  0  0  0  0  0  0  0
  -25.9458  -28.7435   20.9874 C   0  0  0  0  0  0  0  0  0  0  0  0
  -28.9557  -18.5340   18.4140 C   0  0  0  0  0  0  0  0  0  0  0  0
  -28.0890  -18.9445   17.4011 C   0  0  0  0  0  0  0  0  0  0  0  0
  -28.1433  -21.1988   18.2683 C   0  0  0  0  0  0  0  0  0  0  0  0
  -22.4041   -8.0454   21.1948 C   0  0  0  0  0  0  0  0  0  0  0  0
  -26.9073  -26.9780   19.6204 C   0  0  0  0  0  0  0  0  0  0  0  0
  -21.8661   -6.2325   22.5898 C   0  0  0  0  0  0  0  0  0  0  0  0
  -22.0324   -5.0008   25.0874 C   0  0  0  0  0  0  0  0  0  0  0  0
  -20.7035   -5.9506   23.3072 C   0  0  0  0  0  0  0  0  0  0  0  0
  -24.3288  -11.7818   20.7120 C   0  0  0  0  0  0  0  0  0  0  0  0
  -25.7704  -13.4416   20.7492 C   0  0  0  0  0  0  0  0  0  0  0  0
  -26.5995  -11.3511   21.8404 C   0  0  0  0  0  0  0  0  0  0  0  0
  -25.5536  -32.1198   20.7131 C   0  0  0  0  0  0  0  0  0  0  0  0
  -24.5517  -31.1267   23.6341 C   0  0  0  0  0  0  0  0  0  0  0  0
  -28.0873  -23.5927   19.0431 C   0  0  0  0  0  0  0  0  0  0  0  0
  -24.1567  -28.5541   25.8414 C   0  0  0  0  0  0  0  0  0  0  0  0
  -25.2127  -17.4621   16.9190 C   0  0  0  0  0  0  0  0  0  0  0  0
  -25.7163  -37.1263   21.6959 C   0  0  0  0  0  0  0  0  0  0  0  0
  -24.0679  -30.1768   20.1018 C   0  0  0  0  0  0  0  0  0  0  0  0
  -25.9274  -29.4890   22.2960 C   0  0  0  0  0  0  0  0  0  0  0  0
  -26.1699  -35.8575   22.4134 C   0  0  0  0  0  0  0  0  0  0  0  0
  -22.3851  -16.7475   18.9612 C   0  0  0  0  0  0  0  0  0  0  0  0
  -26.9543  -34.9583   21.4632 C   0  0  0  0  0  0  0  0  0  0  0  0
  -22.7427  -15.4186   19.6291 C   0  0  0  0  0  0  0  0  0  0  0  0
  -22.8999  -16.8139   17.5251 C   0  0  0  0  0  0  0  0  0  0  0  0
  -24.6979  -15.2084   18.0380 C   0  0  0  0  0  0  0  0  0  0  0  0
  -26.0844  -34.5120   20.2818 C   0  0  1  0  0  0  0  0  0  0  0  0
  -24.4620  -31.1933   21.1689 C   0  0  1  0  0  0  0  0  0  0  0  0
  -24.2483  -15.1166   19.5062 C   0  0  2  0  0  0  0  0  0  0  0  0
  -29.4050  -17.1131   18.5119 C   0  0  0  0  0  0  0  0  0  0  0  0
  -23.3451  -28.0579   28.1636 C   0  0  0  0  0  0  0  0  0  0  0  0
  -27.1077  -32.3338   24.7828 C   0  0  0  0  0  0  0  0  0  0  0  0
  -26.7135  -31.0076   26.8694 C   0  0  0  0  0  0  0  0  0  0  0  0
  -25.0568  -32.7314   26.1576 C   0  0  0  0  0  0  0  0  0  0  0  0
  -22.0629  -26.7167   24.8419 C   0  0  0  0  0  0  0  0  0  0  0  0
  -27.5815  -17.9748   16.3849 C   0  0  0  0  0  0  0  0  0  0  0  0
  -27.4210  -24.8861   18.6124 C   0  0  0  0  0  0  0  0  0  1  0  0
  -25.2271  -30.5667   24.8626 C   0  0  1  0  0  0  0  0  0  0  0  0
  -22.9728  -28.1284   26.6908 C   0  0  2  0  0  0  0  0  0  0  0  0
  -26.0282  -31.6469   25.6428 C   0  0  0  0  0  0  0  0  0  0  0  0
  -23.7015  -12.7837   20.0903 N   0  0  0  0  0  0  0  0  0  0  0  0
  -24.6036  -13.7791   20.1289 N   0  0  0  0  0  0  0  0  0  0  0  0
  -24.9262  -30.5627   22.4063 N   0  0  0  0  0  0  0  0  0  0  0  0
  -24.3341  -16.5195   17.4782 N   0  0  0  0  0  0  0  0  0  0  0  0
  -26.7846  -14.3237   20.8755 N   0  0  0  0  0  0  0  0  0  0  0  0
  -26.2831  -10.0260   22.1697 N   0  0  0  0  0  0  0  0  0  0  0  0
  -27.7294  -22.5501   18.1952 N   0  0  0  0  0  0  0  0  0  0  0  0
  -25.1867  -33.4518   20.6873 N   0  0  0  0  0  0  0  0  0  0  0  0
  -24.1797  -29.9186   25.6445 N   0  0  0  0  0  0  0  0  0  0  0  0
  -26.5560  -17.1069   16.9199 N   0  0  0  0  0  0  0  0  0  0  0  0
  -22.4854  -26.7861   26.2645 N   0  3  0  0  0  0  0  0  0  0  0  0
  -27.7148  -11.8174   22.1755 O   0  0  0  0  0  0  0  0  0  0  0  0
  -26.6481  -31.6603   20.4088 O   0  0  0  0  0  0  0  0  0  0  0  0
  -23.7171  -32.0264   23.7599 O   0  0  0  0  0  0  0  0  0  0  0  0
  -28.8298  -23.5462   20.0184 O   0  0  0  0  0  0  0  0  0  0  0  0
  -24.9810  -27.7563   25.4000 O   0  0  0  0  0  0  0  0  0  0  0  0
  -24.8290  -18.5426   16.4584 O   0  0  0  0  0  0  0  0  0  0  0  0
  -21.7852   -6.8431   21.3496 O   0  0  0  0  0  0  0  0  0  0  0  0
  -27.8007  -25.9629   19.4684 O   0  0  0  0  0  0  0  0  0  1  0  0
  -22.1123   -4.4080   26.2859 F   0  0  0  0  0  0  0  0  0  0  0  0
  -19.5039   -6.2681   22.8014 F   0  0  0  0  0  0  0  0  0  0  0  0
  1  2  1  0  0  0  0
  1  5  2  0  0  0  0
  2  6  2  0  0  0  0
  3 10  2  0  0  0  0
  3 18  1  0  0  0  0
  4 11  1  0  0  0  0
  4 18  2  0  0  0  0
  5 20  1  0  0  0  0
  6 22  1  0  0  0  0
  7 12  2  0  0  0  0
  7 21  1  0  0  0  0
  8  9  2  0  0  0  0
  8 24  1  0  0  0  0
  9 26  1  0  0  0  0
 10 27  1  0  0  0  0
 11 27  2  0  0  0  0
 12 28  1  0  0  0  0
 13 14  2  0  0  0  0
 13 29  1  0  0  0  0
 14 30  1  0  0  0  0
 15 23  1  0  0  0  0
 15 28  2  0  0  0  0
 16 25  1  0  0  0  0
 16 26  2  0  0  0  0
 17 30  2  0  0  0  0
 17 31  1  0  0  0  0
 18 32  1  0  0  0  0
 19 32  1  0  0  0  0
 19 33  2  0  0  0  0
 19 34  1  0  0  0  0
 20 22  2  0  0  0  0
 20 40  1  0  0  0  0
 21 23  2  0  0  0  0
 21 41  1  0  0  0  0
 22 49  1  0  0  0  0
 23 42  1  0  0  0  0
 24 25  2  0  0  0  0
 24 52  1  0  0  0  0
 25 58  1  0  0  0  0
 26 69  1  0  0  0  0
 27 80  1  0  0  0  0
 28 81  1  0  0  0  0
 29 31  2  0  0  0  0
 29 80  1  0  0  0  0
 30 82  1  0  0  0  0
 31 83  1  0  0  0  0
 32 63  2  0  0  0  0
 33 64  1  0  0  0  0
 33 67  1  0  0  0  0
 34 68  1  0  0  0  0
 34 74  2  0  0  0  0
 35 50  1  0  0  0  0
 35 70  1  0  0  0  0
 35 75  2  0  0  0  0
 36 60  1  0  0  0  0
 36 65  1  0  0  0  0
 36 76  2  0  0  0  0
 37 59  1  0  0  0  0
 37 69  1  0  0  0  0
 37 77  2  0  0  0  0
 38 61  1  0  0  0  0
 38 71  1  0  0  0  0
 38 78  2  0  0  0  0
 39 66  1  0  0  0  0
 39 72  1  0  0  0  0
 39 79  2  0  0  0  0
 40 43  1  0  0  0  0
 41 50  1  0  0  0  0
 42 65  1  0  0  0  0
 43 45  1  0  0  0  0
 44 46  1  0  0  0  0
 44 47  1  0  0  0  0
 45 49  1  0  0  0  0
 46 51  1  0  0  0  0
 47 66  1  0  0  0  0
 48 51  1  0  0  0  0
 48 66  1  0  0  0  0
 49 70  1  0  0  0  0
 50 65  1  0  0  0  0
 51 64  1  0  0  0  0
 53 61  1  0  0  0  0
 54 62  1  0  0  0  0
 55 62  1  0  0  0  0
 56 62  1  0  0  0  0
 57 73  1  0  0  0  0
 58 72  1  0  0  0  0
 59 81  1  0  0  0  0
 60 62  1  0  0  0  0
 60 71  1  0  0  0  0
 61 73  1  0  0  0  0
 63 64  1  0  0  0  0
M  CHG  1  73   1
M  ISO  4  39 100  59 101  72 100  81 101
M  END
> <Batch ID>
0067

> <Smiles>
CNC(C)C(=O)NC(C(=O)N1Cc2cc([101O:1][101CH2:1]C(=O)Nc3ccc(C)c(C[100NH:0][100C:0](=O)N4CCCC(n5nc(-c6ccc(Oc7ccc(F)cc7F)cc6)c(C(N)=O)c5N)C4)c3)ccc2CC1C(=O)NC1CCCc2ccccc21)C(C)(C)C

> <Shape>
0.258

> <Color>
0.148

> <Negative vol penalty>
0.000

$$$$

  -OEChem-04042323243D

 82 90  0     1  0  0  0  0  0999 V2000
  -21.0302  -31.8123   15.3520 C   0  0  0  0  0  0  0  0  0  0  0  0
  -22.1922  -31.0894   15.6021 C   0  0  0  0  0  0  0  0  0  0  0  0
  -23.2478  -10.9970   22.0450 C   0  0  0  0  0  0  0  0  0  0  0  0
  -24.7285   -9.1729   21.4819 C   0  0  0  0  0  0  0  0  0  0  0  0
  -20.7681  -32.9786   16.0695 C   0  0  0  0  0  0  0  0  0  0  0  0
  -23.0935  -31.5332   16.5692 C   0  0  0  0  0  0  0  0  0  0  0  0
  -24.7353  -27.7367   19.6323 C   0  0  0  0  0  0  0  0  0  0  0  0
  -31.3780  -20.4326   19.1279 C   0  0  0  0  0  0  0  0  0  0  0  0
  -30.5771  -21.5734   19.0772 C   0  0  0  0  0  0  0  0  0  0  0  0
  -22.1649  -10.1179   22.0454 C   0  0  0  0  0  0  0  0  0  0  0  0
  -23.6456   -8.2937   21.4824 C   0  0  0  0  0  0  0  0  0  0  0  0
  -25.7146  -26.8708   19.1474 C   0  0  0  0  0  0  0  0  0  0  0  0
  -21.3248   -5.5028   21.6893 C   0  0  0  0  0  0  0  0  0  0  0  0
  -21.4845   -4.2762   22.3339 C   0  0  0  0  0  0  0  0  0  0  0  0
  -27.4030  -28.1344   20.3181 C   0  0  0  0  0  0  0  0  0  0  0  0
  -28.6834  -20.2155   18.4390 C   0  0  0  0  0  0  0  0  0  0  0  0
  -21.9287   -5.4261   24.4118 C   0  0  0  0  0  0  0  0  0  0  0  0
  -24.5296  -10.5245   21.7632 C   0  0  0  0  0  0  0  0  0  0  0  0
  -26.4741  -11.7654   22.8527 C   0  0  0  0  0  0  0  0  0  0  0  0
  -21.6619  -33.4317   17.0527 C   0  0  0  0  0  0  0  0  0  0  0  0
  -25.0840  -28.8162   20.4569 C   0  0  0  0  0  0  0  0  0  0  0  0
  -22.8438  -32.7074   17.2996 C   0  0  0  0  0  0  0  0  0  0  0  0
  -26.4258  -29.0096   20.8159 C   0  0  0  0  0  0  0  0  0  0  0  0
  -30.8317  -19.1832   18.8341 C   0  0  0  0  0  0  0  0  0  0  0  0
  -29.2298  -21.4649   18.7328 C   0  0  0  0  0  0  0  0  0  0  0  0
  -22.3638   -8.7662   21.7641 C   0  0  0  0  0  0  0  0  0  0  0  0
  -27.0489  -27.0709   19.4884 C   0  0  0  0  0  0  0  0  0  0  0  0
  -21.4670   -6.6911   22.4059 C   0  0  0  0  0  0  0  0  0  0  0  0
  -29.4844  -19.0747   18.4896 C   0  0  0  0  0  0  0  0  0  0  0  0
  -21.7864   -4.2379   23.6952 C   0  0  0  0  0  0  0  0  0  0  0  0
  -21.7689   -6.6527   23.7672 C   0  0  0  0  0  0  0  0  0  0  0  0
  -25.6486  -11.4323   21.7621 C   0  0  0  0  0  0  0  0  0  0  0  0
  -27.3804  -12.6593   22.3368 C   0  0  0  0  0  0  0  0  0  0  0  0
  -26.4260  -11.3078   24.2106 C   0  0  0  0  0  0  0  0  0  0  0  0
  -24.8398  -32.0052   20.3287 C   0  0  0  0  0  0  0  0  0  0  0  0
  -26.0274  -31.7001   23.4190 C   0  0  0  0  0  0  0  0  0  0  0  0
  -28.7963  -23.9353   18.9399 C   0  0  0  0  0  0  0  0  0  0  0  0
  -25.2269  -34.9662   23.9951 C   0  0  0  0  0  0  0  0  0  0  0  0
  -28.3885  -17.1637   19.2992 C   0  0  0  0  0  0  0  0  0  0  0  0
  -21.3588  -34.7236   17.7694 C   0  0  0  0  0  0  0  0  0  0  0  0
  -24.0084  -29.7210   20.9941 C   0  0  0  0  0  0  0  0  0  0  0  0
  -26.8506  -30.1504   21.7006 C   0  0  0  0  0  0  0  0  0  0  0  0
  -22.1818  -34.9232   19.0395 C   0  0  0  0  0  0  0  0  0  0  0  0
  -28.3828  -13.9665   17.5634 C   0  0  0  0  0  0  0  0  0  0  0  0
  -23.6510  -34.6064   18.7788 C   0  0  0  0  0  0  0  0  0  0  0  0
  -27.6988  -13.0593   18.5857 C   0  0  0  0  0  0  0  0  0  0  0  0
  -27.8134  -15.3819   17.5987 C   0  0  0  0  0  0  0  0  0  0  0  0
  -27.1755  -15.1068   19.9806 C   0  0  0  0  0  0  0  0  0  0  0  0
  -23.8337  -33.1432   18.3581 C   0  0  1  0  0  0  0  0  0  0  0  0
  -24.5309  -31.0756   21.4680 C   0  0  1  0  0  0  0  0  0  0  0  0
  -27.7469  -13.6794   19.9933 C   0  0  1  0  0  0  0  0  0  0  0  0
  -31.7041  -17.9730   18.8932 C   0  0  0  0  0  0  0  0  0  0  0  0
  -25.0887  -36.6651   25.8368 C   0  0  0  0  0  0  0  0  0  0  0  0
  -23.4495  -30.4075   24.4134 C   0  0  0  0  0  0  0  0  0  0  0  0
  -22.8807  -32.5717   25.5363 C   0  0  0  0  0  0  0  0  0  0  0  0
  -24.9250  -31.3149   26.2172 C   0  0  0  0  0  0  0  0  0  0  0  0
  -27.2299  -36.7123   22.6920 C   0  0  0  0  0  0  0  0  0  0  0  0
  -27.6179  -24.8761   18.7706 C   0  0  0  0  0  0  0  0  0  1  0  0
  -24.8887  -32.5085   23.9888 C   0  0  1  0  0  0  0  0  0  0  0  0
  -25.9588  -36.0661   24.7427 C   0  0  2  0  0  0  0  0  0  0  0  0
  -24.0410  -31.6998   25.0110 C   0  0  0  0  0  0  0  0  0  0  0  0
  -25.9993  -12.0632   20.6383 N   0  0  0  0  0  0  0  0  0  0  0  0
  -27.0551  -12.8019   21.0200 N   0  0  0  0  0  0  0  0  0  0  0  0
  -25.7575  -30.9522   22.2659 N   0  0  0  0  0  0  0  0  0  0  0  0
  -27.8350  -15.9244   18.9608 N   0  0  0  0  0  0  0  0  0  0  0  0
  -28.4158  -13.3294   22.8857 N   0  0  0  0  0  0  0  0  0  0  0  0
  -25.4306  -10.3894   24.5713 N   0  0  0  0  0  0  0  0  0  0  0  0
  -28.4176  -22.6225   18.6807 N   0  0  0  0  0  0  0  0  0  0  0  0
  -23.7580  -32.2724   19.5115 N   0  0  0  0  0  0  0  0  0  0  0  0
  -25.4838  -33.7235   24.5347 N   0  0  0  0  0  0  0  0  0  0  0  0
  -26.3525  -37.1560   23.8057 N   0  3  0  0  0  0  0  0  0  0  0  0
  -27.2314  -11.7141   25.0822 O   0  0  0  0  0  0  0  0  0  0  0  0
  -25.9752  -32.4484   20.2013 O   0  0  0  0  0  0  0  0  0  0  0  0
  -27.1248  -31.7233   23.9833 O   0  0  0  0  0  0  0  0  0  0  0  0
  -29.9055  -24.3468   19.2640 O   0  0  0  0  0  0  0  0  0  0  0  0
  -24.4972  -35.1876   23.0312 O   0  0  0  0  0  0  0  0  0  0  0  0
  -28.4095  -17.6239   20.4402 O   0  0  0  0  0  0  0  0  0  0  0  0
  -21.3073   -7.9080   21.7647 O   0  0  0  0  0  0  0  0  0  0  0  0
  -28.9208  -17.8298   18.1917 O   0  0  0  0  0  0  0  0  0  0  0  0
  -28.0066  -26.2269   19.0169 O   0  0  0  0  0  0  0  0  0  1  0  0
  -21.9383   -3.0599   24.3144 F   0  0  0  0  0  0  0  0  0  0  0  0
  -21.9056   -7.7909   24.4612 F   0  0  0  0  0  0  0  0  0  0  0  0
  1  2  1  0  0  0  0
  1  5  2  0  0  0  0
  2  6  2  0  0  0  0
  3 10  2  0  0  0  0
  3 18  1  0  0  0  0
  4 11  1  0  0  0  0
  4 18  2  0  0  0  0
  5 20  1  0  0  0  0
  6 22  1  0  0  0  0
  7 12  2  0  0  0  0
  7 21  1  0  0  0  0
  8  9  2  0  0  0  0
  8 24  1  0  0  0  0
  9 25  1  0  0  0  0
 10 26  1  0  0  0  0
 11 26  2  0  0  0  0
 12 27  1  0  0  0  0
 13 14  2  0  0  0  0
 13 28  1  0  0  0  0
 14 30  1  0  0  0  0
 15 23  1  0  0  0  0
 15 27  2  0  0  0  0
 16 25  2  0  0  0  0
 16 29  1  0  0  0  0
 17 30  2  0  0  0  0
 17 31  1  0  0  0  0
 18 32  1  0  0  0  0
 19 32  1  0  0  0  0
 19 33  2  0  0  0  0
 19 34  1  0  0  0  0
 20 22  2  0  0  0  0
 20 40  1  0  0  0  0
 21 23  2  0  0  0  0
 21 41  1  0  0  0  0
 22 49  1  0  0  0  0
 23 42  1  0  0  0  0
 24 29  2  0  0  0  0
 24 52  1  0  0  0  0
 25 68  1  0  0  0  0
 26 78  1  0  0  0  0
 27 80  1  0  0  0  0
 28 31  2  0  0  0  0
 28 78  1  0  0  0  0
 29 79  1  0  0  0  0
 30 81  1  0  0  0  0
 31 82  1  0  0  0  0
 32 62  2  0  0  0  0
 33 63  1  0  0  0  0
 33 66  1  0  0  0  0
 34 67  1  0  0  0  0
 34 72  2  0  0  0  0
 35 50  1  0  0  0  0
 35 69  1  0  0  0  0
 35 73  2  0  0  0  0
 36 59  1  0  0  0  0
 36 64  1  0  0  0  0
 36 74  2  0  0  0  0
 37 58  1  0  0  0  0
 37 68  1  0  0  0  0
 37 75  2  0  0  0  0
 38 60  1  0  0  0  0
 38 70  1  0  0  0  0
 38 76  2  0  0  0  0
 39 65  1  0  0  0  0
 39 77  2  0  0  0  0
 39 79  1  0  0  0  0
 40 43  1  0  0  0  0
 41 50  1  0  0  0  0
 42 64  1  0  0  0  0
 43 45  1  0  0  0  0
 44 46  1  0  0  0  0
 44 47  1  0  0  0  0
 45 49  1  0  0  0  0
 46 51  1  0  0  0  0
 47 65  1  0  0  0  0
 48 51  1  0  0  0  0
 48 65  1  0  0  0  0
 49 69  1  0  0  0  0
 50 64  1  0  0  0  0
 51 63  1  0  0  0  0
 53 60  1  0  0  0  0
 54 61  1  0  0  0  0
 55 61  1  0  0  0  0
 56 61  1  0  0  0  0
 57 71  1  0  0  0  0
 58 80  1  0  0  0  0
 59 61  1  0  0  0  0
 59 70  1  0  0  0  0
 60 71  1  0  0  0  0
 62 63  1  0  0  0  0
M  CHG  1  71   1
M  ISO  4  39 100  58 101  79 100  80 101
M  END
> <Batch ID>
0067

> <Smiles>
CNC(C)C(=O)NC(C(=O)N1Cc2cc([101O:1][101CH2:1]C(=O)Nc3ccc(C)c([100O:0][100C:0](=O)N4CCCC(n5nc(-c6ccc(Oc7ccc(F)cc7F)cc6)c(C(N)=O)c5N)C4)c3)ccc2CC1C(=O)NC1CCCc2ccccc21)C(C)(C)C

> <Shape>
0.317

> <Color>
0.149

> <Negative vol penalty>
0.000

$$$$
