
  -OEChem-04042323273D

 88 97  0     1  0  0  0  0  0999 V2000
  -28.2068  -37.0323   18.7490 C   0  0  0  0  0  0  0  0  0  0  0  0
  -28.3075  -35.6944   18.3812 C   0  0  0  0  0  0  0  0  0  0  0  0
  -24.2137   -8.8529   20.5116 C   0  0  0  0  0  0  0  0  0  0  0  0
  -22.9079  -10.7514   21.2381 C   0  0  0  0  0  0  0  0  0  0  0  0
  -27.9637  -37.3719   20.0792 C   0  0  0  0  0  0  0  0  0  0  0  0
  -28.1663  -34.6953   19.3437 C   0  0  0  0  0  0  0  0  0  0  0  0
  -25.6358  -29.1719   18.5727 C   0  0  0  0  0  0  0  0  0  0  0  0
  -29.5769  -20.3799   21.1722 C   0  0  0  0  0  0  0  0  0  0  0  0
  -29.6113  -18.9981   21.3592 C   0  0  0  0  0  0  0  0  0  0  0  0
  -23.2061   -7.9928   20.9481 C   0  0  0  0  0  0  0  0  0  0  0  0
  -21.9002   -9.8913   21.6745 C   0  0  0  0  0  0  0  0  0  0  0  0
  -26.1862  -27.9121   18.3410 C   0  0  0  0  0  0  0  0  0  0  0  0
  -22.1323   -6.7004   23.8808 C   0  0  0  0  0  0  0  0  0  0  0  0
  -22.5136   -5.5732   24.6087 C   0  0  0  0  0  0  0  0  0  0  0  0
  -26.0711  -27.4343   20.7027 C   0  0  0  0  0  0  0  0  0  0  0  0
  -28.2199  -20.0788   19.1961 C   0  0  0  0  0  0  0  0  0  0  0  0
  -21.5164   -4.1513   22.9291 C   0  0  0  0  0  0  0  0  0  0  0  0
  -24.0646  -10.2323   20.6567 C   0  0  0  0  0  0  0  0  0  0  0  0
  -25.2359  -11.6998   18.9298 C   0  0  0  0  0  0  0  0  0  0  0  0
  -27.8098  -36.3763   21.0568 C   0  0  0  0  0  0  0  0  0  0  0  0
  -25.3085  -29.5772   19.8746 C   0  0  0  0  0  0  0  0  0  0  0  0
  -27.9222  -35.0220   20.6884 C   0  0  0  0  0  0  0  0  0  0  0  0
  -25.5143  -28.6988   20.9479 C   0  0  0  0  0  0  0  0  0  0  0  0
  -28.2544  -18.6969   19.3830 C   0  0  0  0  0  0  0  0  0  0  0  0
  -28.8811  -20.9203   20.0907 C   0  0  0  0  0  0  0  0  0  0  0  0
  -28.9501  -18.1566   20.4646 C   0  0  0  0  0  0  0  0  0  0  0  0
  -22.0493   -8.5120   21.5295 C   0  0  0  0  0  0  0  0  0  0  0  0
  -26.4066  -27.0441   19.4065 C   0  0  0  0  0  0  0  0  0  0  0  0
  -21.4429   -6.5530   22.6771 C   0  0  0  0  0  0  0  0  0  0  0  0
  -22.2057   -4.2987   24.1328 C   0  0  0  0  0  0  0  0  0  0  0  0
  -21.1350   -5.2785   22.2013 C   0  0  0  0  0  0  0  0  0  0  0  0
  -25.1054  -11.1212   20.2065 C   0  0  0  0  0  0  0  0  0  0  0  0
  -26.3793  -12.4563   19.0109 C   0  0  0  0  0  0  0  0  0  0  0  0
  -29.3852  -23.3128   20.6102 C   0  0  0  0  0  0  0  0  0  0  0  0
  -24.3983  -11.5654   17.7739 C   0  0  0  0  0  0  0  0  0  0  0  0
  -26.2709  -31.9112   21.8059 C   0  0  0  0  0  0  0  0  0  0  0  0
  -23.8886  -30.7947   23.7033 C   0  0  0  0  0  0  0  0  0  0  0  0
  -21.8718  -28.1885   24.5906 C   0  0  0  0  0  0  0  0  0  0  0  0
  -29.6447  -16.0753   21.7023 C   0  0  0  0  0  0  0  0  0  0  0  0
  -27.5952  -36.7934   22.4902 C   0  0  0  0  0  0  0  0  0  0  0  0
  -24.6907  -30.9293   20.1045 C   0  0  0  0  0  0  0  0  0  0  0  0
  -25.1614  -29.0782   22.3621 C   0  0  0  0  0  0  0  0  0  0  0  0
  -27.0852  -35.6651   23.3830 C   0  0  0  0  0  0  0  0  0  0  0  0
  -29.9610  -12.6400   22.5830 C   0  0  0  0  0  0  0  0  0  0  0  0
  -27.8919  -34.3920   23.1477 C   0  0  0  0  0  0  0  0  0  0  0  0
  -28.7367  -11.9862   21.9382 C   0  0  0  0  0  0  0  0  0  0  0  0
  -29.6426  -14.0343   23.1199 C   0  0  0  0  0  0  0  0  0  0  0  0
  -27.8005  -14.2933   21.5047 C   0  0  0  0  0  0  0  0  0  0  0  0
  -28.2041  -23.0941   18.8792 C   0  0  0  0  0  0  0  0  0  0  0  0
  -27.7502  -33.9090   21.6992 C   0  0  1  0  0  0  0  0  0  0  0  0
  -24.8725  -31.4342   21.5326 C   0  0  1  0  0  0  0  0  0  0  0  0
  -28.0886  -12.9133   20.8913 C   0  0  2  0  0  0  0  0  0  0  0  0
  -28.7796  -24.3424   19.6132 C   0  0  2  0  0  0  0  0  0  0  0  0
  -29.8238  -25.1208   18.8202 C   0  0  0  0  0  0  0  0  0  0  0  0
  -20.0498  -27.5670   26.2004 C   0  0  0  0  0  0  0  0  0  0  0  0
  -25.9479  -30.5698   25.9436 C   0  0  0  0  0  0  0  0  0  0  0  0
  -24.3436  -29.0947   27.1757 C   0  0  0  0  0  0  0  0  0  0  0  0
  -23.7206  -31.4542   26.6589 C   0  0  0  0  0  0  0  0  0  0  0  0
  -19.9639  -27.6336   22.3972 C   0  0  0  0  0  0  0  0  0  0  0  0
  -27.7337  -25.2507   20.2300 C   0  0  0  0  0  0  0  0  0  1  0  0
  -23.7873  -29.7522   24.7905 C   0  0  1  0  0  0  0  0  0  0  0  0
  -20.3728  -28.1061   24.8155 C   0  0  2  0  0  0  0  0  0  0  0  0
  -27.5355  -17.8193   18.4105 C   0  0  0  0  0  0  0  0  0  0  0  0
  -24.4584  -30.2110   26.1159 C   0  0  0  0  0  0  0  0  0  0  0  0
  -26.0876  -11.4794   21.0378 N   0  0  0  0  0  0  0  0  0  0  0  0
  -26.8462  -12.2911   20.2817 N   0  0  0  0  0  0  0  0  0  0  0  0
  -28.8451  -22.2829   19.9081 N   0  0  0  0  0  0  0  0  0  0  0  0
  -24.5658  -30.4132   22.5364 N   0  0  0  0  0  0  0  0  0  0  0  0
  -29.0353  -14.8576   22.0719 N   0  0  0  0  0  0  0  0  0  0  0  0
  -27.0210  -13.2401   18.1185 N   0  0  0  0  0  0  0  0  0  0  0  0
  -23.2625  -10.7491   17.8630 N   0  0  0  0  0  0  0  0  0  0  0  0
  -28.9956  -16.7557   20.6727 N   0  0  0  0  0  0  0  0  0  0  0  0
  -26.4783  -33.2449   21.5099 N   0  0  0  0  0  0  0  0  0  0  0  0
  -22.3698  -29.4319   24.9182 N   0  0  0  0  0  0  0  0  0  0  0  0
  -19.7458  -27.2091   23.8040 N   0  3  0  0  0  0  0  0  0  0  0  0
  -30.0634  -23.3608   21.6111 O   0  0  0  0  0  0  0  0  0  0  0  0
  -24.6586  -12.1388   16.6890 O   0  0  0  0  0  0  0  0  0  0  0  0
  -27.0999  -31.1276   22.2537 O   0  0  0  0  0  0  0  0  0  0  0  0
  -23.3791  -31.9041   23.8800 O   0  0  0  0  0  0  0  0  0  0  0  0
  -22.5352  -27.2432   24.1702 O   0  0  0  0  0  0  0  0  0  0  0  0
  -30.6823  -16.4710   22.2397 O   0  0  0  0  0  0  0  0  0  0  0  0
  -21.0658   -7.6730   21.9553 O   0  0  0  0  0  0  0  0  0  0  0  0
  -26.9443  -25.8141   19.1833 O   0  0  0  0  0  0  0  0  0  1  0  0
  -22.5732   -3.2164   24.8311 F   0  0  0  0  0  0  0  0  0  0  0  0
  -20.4741   -5.1306   21.0450 F   0  0  0  0  0  0  0  0  0  0  0  0
  -26.9062  -18.5099   17.4155 F   0  0  0  0  0  0  0  0  0  0  0  0
  -28.3526  -16.9332   17.7704 F   0  0  0  0  0  0  0  0  0  0  0  0
  -26.5671  -17.0648   19.0047 F   0  0  0  0  0  0  0  0  0  0  0  0
  1  2  1  0  0  0  0
  1  5  2  0  0  0  0
  2  6  2  0  0  0  0
  3 10  2  0  0  0  0
  3 18  1  0  0  0  0
  4 11  1  0  0  0  0
  4 18  2  0  0  0  0
  5 20  1  0  0  0  0
  6 22  1  0  0  0  0
  7 12  2  0  0  0  0
  7 21  1  0  0  0  0
  8  9  2  0  0  0  0
  8 25  1  0  0  0  0
  9 26  1  0  0  0  0
 10 27  1  0  0  0  0
 11 27  2  0  0  0  0
 12 28  1  0  0  0  0
 13 14  2  0  0  0  0
 13 29  1  0  0  0  0
 14 30  1  0  0  0  0
 15 23  1  0  0  0  0
 15 28  2  0  0  0  0
 16 24  1  0  0  0  0
 16 25  2  0  0  0  0
 17 30  2  0  0  0  0
 17 31  1  0  0  0  0
 18 32  1  0  0  0  0
 19 32  1  0  0  0  0
 19 33  2  0  0  0  0
 19 35  1  0  0  0  0
 20 22  2  0  0  0  0
 20 40  1  0  0  0  0
 21 23  2  0  0  0  0
 21 41  1  0  0  0  0
 22 50  1  0  0  0  0
 23 42  1  0  0  0  0
 24 26  2  0  0  0  0
 24 63  1  0  0  0  0
 25 67  1  0  0  0  0
 26 72  1  0  0  0  0
 27 82  1  0  0  0  0
 28 83  1  0  0  0  0
 29 31  2  0  0  0  0
 29 82  1  0  0  0  0
 30 84  1  0  0  0  0
 31 85  1  0  0  0  0
 32 65  2  0  0  0  0
 33 66  1  0  0  0  0
 33 70  1  0  0  0  0
 34 53  1  0  0  0  0
 34 67  1  0  0  0  0
 34 76  2  0  0  0  0
 35 71  1  0  0  0  0
 35 77  2  0  0  0  0
 36 51  1  0  0  0  0
 36 73  1  0  0  0  0
 36 78  2  0  0  0  0
 37 61  1  0  0  0  0
 37 68  1  0  0  0  0
 37 79  2  0  0  0  0
 38 62  1  0  0  0  0
 38 74  1  0  0  0  0
 38 80  2  0  0  0  0
 39 69  1  0  0  0  0
 39 72  1  0  0  0  0
 39 81  2  0  0  0  0
 40 43  1  0  0  0  0
 41 51  1  0  0  0  0
 42 68  1  0  0  0  0
 43 45  1  0  0  0  0
 44 46  1  0  0  0  0
 44 47  1  0  0  0  0
 45 50  1  0  0  0  0
 46 52  1  0  0  0  0
 47 69  1  0  0  0  0
 48 52  1  0  0  0  0
 48 69  1  0  0  0  0
 49 53  1  0  0  0  0
 49 67  1  0  0  0  0
 50 73  1  0  0  0  0
 51 68  1  0  0  0  0
 52 66  1  0  0  0  0
 53 54  1  0  0  0  0
 53 60  1  0  0  0  0
 55 62  1  0  0  0  0
 56 64  1  0  0  0  0
 57 64  1  0  0  0  0
 58 64  1  0  0  0  0
 59 75  1  0  0  0  0
 60 83  1  0  0  0  0
 61 64  1  0  0  0  0
 61 74  1  0  0  0  0
 62 75  1  0  0  0  0
 63 86  1  0  0  0  0
 63 87  1  0  0  0  0
 63 88  1  0  0  0  0
 65 66  1  0  0  0  0
M  CHG  1  75   1
M  ISO  4  39 100  60 101  72 100  83 101
M  END
> <Batch ID>
0068

> <Smiles>
CNC(C)C(=O)NC(C(=O)N1Cc2cc([101O:1][101CH2:1]C3(C)CN(c4ccc([100NH:0][100C:0](=O)N5CCCC(n6nc(-c7ccc(Oc8ccc(F)cc8F)cc7)c(C(N)=O)c6N)C5)c(C(F)(F)F)c4)C3=O)ccc2CC1C(=O)NC1CCCc2ccccc21)C(C)(C)C

> <Shape>
0.325

> <Color>
0.112

> <Negative vol penalty>
0.000

$$$$

  -OEChem-04042323273D

 86 94  0     1  0  0  0  0  0999 V2000
  -29.5130  -39.6540   23.8069 C   0  0  0  0  0  0  0  0  0  0  0  0
  -29.9348  -38.3283   23.7996 C   0  0  0  0  0  0  0  0  0  0  0  0
  -24.5470   -9.8226   21.6946 C   0  0  0  0  0  0  0  0  0  0  0  0
  -24.7866  -11.0495   23.7620 C   0  0  0  0  0  0  0  0  0  0  0  0
  -28.1515  -39.9514   23.7653 C   0  0  0  0  0  0  0  0  0  0  0  0
  -28.9951  -37.2991   23.7516 C   0  0  0  0  0  0  0  0  0  0  0  0
  -29.5836  -31.9062   20.9099 C   0  0  0  0  0  0  0  0  0  0  0  0
  -24.2236   -8.6725   22.4145 C   0  0  0  0  0  0  0  0  0  0  0  0
  -24.4632   -9.8994   24.4820 C   0  0  0  0  0  0  0  0  0  0  0  0
  -29.9311  -30.6367   21.3697 C   0  0  0  0  0  0  0  0  0  0  0  0
  -21.5208   -7.4059   24.0031 C   0  0  0  0  0  0  0  0  0  0  0  0
  -20.4375   -6.6470   23.5602 C   0  0  0  0  0  0  0  0  0  0  0  0
  -27.3049  -21.5350   20.7232 C   0  0  0  0  0  0  0  0  0  0  0  0
  -27.5934  -30.0736   21.5637 C   0  0  0  0  0  0  0  0  0  0  0  0
  -29.6331  -20.1713   20.0143 C   0  0  0  0  0  0  0  0  0  0  0  0
  -21.8955   -4.7453   23.2522 C   0  0  0  0  0  0  0  0  0  0  0  0
  -24.8285  -11.0111   22.3683 C   0  0  0  0  0  0  0  0  0  0  0  0
  -28.4060  -22.2404   20.2379 C   0  0  0  0  0  0  0  0  0  0  0  0
  -24.2749  -13.1806   21.1459 C   0  0  0  0  0  0  0  0  0  0  0  0
  -27.1950  -38.9255   23.7070 C   0  0  0  0  0  0  0  0  0  0  0  0
  -28.2361  -32.2733   20.7837 C   0  0  0  0  0  0  0  0  0  0  0  0
  -27.6195  -37.5831   23.7105 C   0  0  0  0  0  0  0  0  0  0  0  0
  -27.2315  -31.3475   21.0997 C   0  0  0  0  0  0  0  0  0  0  0  0
  -28.5320  -19.4658   20.4997 C   0  0  0  0  0  0  0  0  0  0  0  0
  -24.1817   -8.7109   23.8082 C   0  0  0  0  0  0  0  0  0  0  0  0
  -28.9360  -29.7212   21.6994 C   0  0  0  0  0  0  0  0  0  0  0  0
  -22.7915   -6.8345   24.0704 C   0  0  0  0  0  0  0  0  0  0  0  0
  -20.6248   -5.3167   23.1847 C   0  0  0  0  0  0  0  0  0  0  0  0
  -27.3680  -20.1477   20.8542 C   0  0  0  0  0  0  0  0  0  0  0  0
  -29.5701  -21.5586   19.8834 C   0  0  0  0  0  0  0  0  0  0  0  0
  -22.9789   -5.5042   23.6950 C   0  0  0  0  0  0  0  0  0  0  0  0
  -25.1632  -12.1993   21.6252 C   0  0  0  0  0  0  0  0  0  0  0  0
  -25.0816  -14.0936   20.5116 C   0  0  0  0  0  0  0  0  0  0  0  0
  -28.3365  -23.7097   20.1002 C   0  0  0  0  0  0  0  0  0  0  0  0
  -22.8482  -13.2599   21.2637 C   0  0  0  0  0  0  0  0  0  0  0  0
  -26.3836  -34.4948   22.1016 C   0  0  0  0  0  0  0  0  0  0  0  0
  -24.2084  -33.3952   19.9611 C   0  0  0  0  0  0  0  0  0  0  0  0
  -29.3042  -25.8932   20.7879 C   0  0  0  0  0  0  0  0  0  0  0  0
  -23.1327  -30.8332   17.9798 C   0  0  0  0  0  0  0  0  0  0  0  0
  -29.6787  -17.2296   20.3242 C   0  0  0  0  0  0  0  0  0  0  0  0
  -25.7328  -39.2952   23.7111 C   0  0  0  0  0  0  0  0  0  0  0  0
  -27.8779  -33.6374   20.2610 C   0  0  0  0  0  0  0  0  0  0  0  0
  -25.7702  -31.6854   20.9626 C   0  0  0  0  0  0  0  0  0  0  0  0
  -24.8146  -38.1532   23.2832 C   0  0  0  0  0  0  0  0  0  0  0  0
  -29.9779  -13.8477   19.2517 C   0  0  0  0  0  0  0  0  0  0  0  0
  -25.2021  -36.8612   23.9954 C   0  0  0  0  0  0  0  0  0  0  0  0
  -28.6789  -13.1981   19.7341 C   0  0  0  0  0  0  0  0  0  0  0  0
  -30.4969  -14.8845   20.2463 C   0  0  0  0  0  0  0  0  0  0  0  0
  -28.2244  -15.2627   21.1190 C   0  0  0  0  0  0  0  0  0  0  0  0
  -26.6314  -36.4393   23.6341 C   0  0  1  0  0  0  0  0  0  0  0  0
  -26.4737  -34.0804   20.6602 C   0  0  1  0  0  0  0  0  0  0  0  0
  -27.6282  -14.2578   20.1198 C   0  0  2  0  0  0  0  0  0  0  0  0
  -21.3046  -30.2182   16.3745 C   0  0  0  0  0  0  0  0  0  0  0  0
  -22.2876  -33.0094   22.3002 C   0  0  0  0  0  0  0  0  0  0  0  0
  -20.8915  -31.5483   20.8222 C   0  0  0  0  0  0  0  0  0  0  0  0
  -21.2386  -33.9473   20.2328 C   0  0  0  0  0  0  0  0  0  0  0  0
  -25.0539  -30.4331   15.7645 C   0  0  0  0  0  0  0  0  0  0  0  0
  -30.4081  -26.4125   21.6809 C   0  0  0  0  0  0  0  0  0  0  0  0
  -30.5003  -27.9300   21.6754 C   0  0  0  0  0  0  0  0  0  1  0  0
  -23.1524  -32.3165   19.9683 C   0  0  1  0  0  0  0  0  0  0  0  0
  -22.7027  -30.7975   16.5244 C   0  0  2  0  0  0  0  0  0  0  0  0
  -21.9200  -32.6993   20.8354 C   0  0  0  0  0  0  0  0  0  0  0  0
  -26.4366  -12.4638   21.3211 N   0  0  0  0  0  0  0  0  0  0  0  0
  -26.3544  -13.6218   20.6440 N   0  0  0  0  0  0  0  0  0  0  0  0
  -25.4706  -33.0339   20.4533 N   0  0  0  0  0  0  0  0  0  0  0  0
  -29.4490  -15.8578   20.5614 N   0  0  0  0  0  0  0  0  0  0  0  0
  -24.8192  -15.2459   19.8591 N   0  0  0  0  0  0  0  0  0  0  0  0
  -22.1764  -12.2375   21.9475 N   0  0  0  0  0  0  0  0  0  0  0  0
  -28.5988  -18.0566   20.6316 N   0  0  0  0  0  0  0  0  0  0  0  0
  -29.2138  -24.4509   20.7909 N   0  0  0  0  0  0  0  0  0  0  0  0
  -26.6621  -35.8303   22.3216 N   0  0  0  0  0  0  0  0  0  0  0  0
  -22.8378  -32.0440   18.5700 N   0  0  0  0  0  0  0  0  0  0  0  0
  -27.4008  -24.2138   19.2963 N   0  3  0  0  0  0  0  0  0  0  0  0
  -23.6450  -29.9635   15.7261 N   0  3  0  0  0  0  0  0  0  0  0  0
  -22.1870  -14.2009   20.7628 O   0  0  0  0  0  0  0  0  0  0  0  0
  -26.0823  -33.6647   22.9512 O   0  0  0  0  0  0  0  0  0  0  0  0
  -23.9259  -34.5152   19.5280 O   0  0  0  0  0  0  0  0  0  0  0  0
  -28.5464  -26.5807   20.1193 O   0  0  0  0  0  0  0  0  0  0  0  0
  -23.6726  -29.8808   18.5384 O   0  0  0  0  0  0  0  0  0  0  0  0
  -30.7444  -17.6376   19.8554 O   0  0  0  0  0  0  0  0  0  0  0  0
  -23.8659   -7.5889   24.5111 O   0  0  0  0  0  0  0  0  0  0  0  0
  -29.2724  -28.4816   22.1490 O   0  0  0  0  0  0  0  0  0  1  0  0
  -19.5841   -4.5877   22.7609 F   0  0  0  0  0  0  0  0  0  0  0  0
  -26.3036  -19.4798   21.3221 F   0  0  0  0  0  0  0  0  0  0  0  0
  -30.6335  -22.2277   19.4162 F   0  0  0  0  0  0  0  0  0  0  0  0
  -24.1971   -4.9495   23.7587 F   0  0  0  0  0  0  0  0  0  0  0  0
  1  2  1  0  0  0  0
  1  5  2  0  0  0  0
  2  6  2  0  0  0  0
  3  8  2  0  0  0  0
  3 17  1  0  0  0  0
  4  9  1  0  0  0  0
  4 17  2  0  0  0  0
  5 20  1  0  0  0  0
  6 22  1  0  0  0  0
  7 10  2  0  0  0  0
  7 21  1  0  0  0  0
  8 25  1  0  0  0  0
  9 25  2  0  0  0  0
 10 26  1  0  0  0  0
 11 12  2  0  0  0  0
 11 27  1  0  0  0  0
 12 28  1  0  0  0  0
 13 18  1  0  0  0  0
 13 29  2  0  0  0  0
 14 23  1  0  0  0  0
 14 26  2  0  0  0  0
 15 24  2  0  0  0  0
 15 30  1  0  0  0  0
 16 28  2  0  0  0  0
 16 31  1  0  0  0  0
 17 32  1  0  0  0  0
 18 30  2  0  0  0  0
 18 34  1  0  0  0  0
 19 32  1  0  0  0  0
 19 33  2  0  0  0  0
 19 35  1  0  0  0  0
 20 22  2  0  0  0  0
 20 41  1  0  0  0  0
 21 23  2  0  0  0  0
 21 42  1  0  0  0  0
 22 50  1  0  0  0  0
 23 43  1  0  0  0  0
 24 29  1  0  0  0  0
 24 69  1  0  0  0  0
 25 81  1  0  0  0  0
 26 82  1  0  0  0  0
 27 31  2  0  0  0  0
 27 81  1  0  0  0  0
 28 83  1  0  0  0  0
 29 84  1  0  0  0  0
 30 85  1  0  0  0  0
 31 86  1  0  0  0  0
 32 63  2  0  0  0  0
 33 64  1  0  0  0  0
 33 67  1  0  0  0  0
 34 70  1  0  0  0  0
 34 73  2  0  0  0  0
 35 68  1  0  0  0  0
 35 75  2  0  0  0  0
 36 51  1  0  0  0  0
 36 71  1  0  0  0  0
 36 76  2  0  0  0  0
 37 60  1  0  0  0  0
 37 65  1  0  0  0  0
 37 77  2  0  0  0  0
 38 58  1  0  0  0  0
 38 70  1  0  0  0  0
 38 78  2  0  0  0  0
 39 61  1  0  0  0  0
 39 72  1  0  0  0  0
 39 79  2  0  0  0  0
 40 66  1  0  0  0  0
 40 69  1  0  0  0  0
 40 80  2  0  0  0  0
 41 44  1  0  0  0  0
 42 51  1  0  0  0  0
 43 65  1  0  0  0  0
 44 46  1  0  0  0  0
 45 47  1  0  0  0  0
 45 48  1  0  0  0  0
 46 50  1  0  0  0  0
 47 52  1  0  0  0  0
 48 66  1  0  0  0  0
 49 52  1  0  0  0  0
 49 66  1  0  0  0  0
 50 71  1  0  0  0  0
 51 65  1  0  0  0  0
 52 64  1  0  0  0  0
 53 61  1  0  0  0  0
 54 62  1  0  0  0  0
 55 62  1  0  0  0  0
 56 62  1  0  0  0  0
 57 74  1  0  0  0  0
 58 59  1  0  0  0  0
 59 82  1  0  0  0  0
 60 62  1  0  0  0  0
 60 72  1  0  0  0  0
 61 74  1  0  0  0  0
 63 64  1  0  0  0  0
M  CHG  2  73   1  74   1
M  ISO  4  40 100  59 101  69 100  82 101
M  END
> <Batch ID>
0068

> <Smiles>
CNC(C)C(=O)NC(C(=O)N1Cc2cc([101O:1][101CH2:1]CC(=O)NC(=N)c3cc(F)c([100NH:0][100C:0](=O)N4CCCC(n5nc(-c6ccc(Oc7ccc(F)cc7F)cc6)c(C(N)=O)c5N)C4)cc3F)ccc2CC1C(=O)NC1CCCc2ccccc21)C(C)(C)C

> <Shape>
0.269

> <Color>
0.116

> <Negative vol penalty>
0.000

$$$$

  -OEChem-04042323273D

 87 96  0     1  0  0  0  0  0999 V2000
  -23.9642  -36.7063   25.7539 C   0  0  0  0  0  0  0  0  0  0  0  0
  -23.1335  -36.0516   24.8502 C   0  0  0  0  0  0  0  0  0  0  0  0
  -28.3749  -21.5623   20.8494 C   0  0  0  0  0  0  0  0  0  0  0  0
  -22.5196  -12.6159   22.6339 C   0  0  0  0  0  0  0  0  0  0  0  0
  -24.3942  -11.5296   23.7030 C   0  0  0  0  0  0  0  0  0  0  0  0
  -25.3399  -36.7477   25.5308 C   0  0  0  0  0  0  0  0  0  0  0  0
  -23.6780  -35.4386   23.7222 C   0  0  0  0  0  0  0  0  0  0  0  0
  -22.7667  -28.3937   22.5262 C   0  0  0  0  0  0  0  0  0  0  0  0
  -27.0893  -22.0710   20.6645 C   0  0  0  0  0  0  0  0  0  0  0  0
  -28.6195  -20.2013   20.6661 C   0  0  0  0  0  0  0  0  0  0  0  0
  -21.7281  -12.3497   23.7512 C   0  0  0  0  0  0  0  0  0  0  0  0
  -23.6028  -11.2635   24.8204 C   0  0  0  0  0  0  0  0  0  0  0  0
  -22.4588  -27.0956   22.1186 C   0  0  0  0  0  0  0  0  0  0  0  0
  -21.2243   -9.0331   25.7144 C   0  0  0  0  0  0  0  0  0  0  0  0
  -21.2922   -7.7542   26.2669 C   0  0  0  0  0  0  0  0  0  0  0  0
  -23.8634  -27.3635   20.1683 C   0  0  0  0  0  0  0  0  0  0  0  0
  -22.0442   -8.6981   28.3598 C   0  0  0  0  0  0  0  0  0  0  0  0
  -23.8526  -12.2058   22.6098 C   0  0  0  0  0  0  0  0  0  0  0  0
  -24.4499  -12.0458   20.1349 C   0  0  0  0  0  0  0  0  0  0  0  0
  -25.9025  -36.1266   24.4046 C   0  0  0  0  0  0  0  0  0  0  0  0
  -23.6373  -29.1772   21.7636 C   0  0  0  0  0  0  0  0  0  0  0  0
  -25.0624  -35.4728   23.4832 C   0  0  0  0  0  0  0  0  0  0  0  0
  -24.1853  -28.6601   20.5782 C   0  0  0  0  0  0  0  0  0  0  0  0
  -26.0483  -21.2186   20.2965 C   0  0  0  0  0  0  0  0  0  0  0  0
  -27.5785  -19.3490   20.2981 C   0  0  0  0  0  0  0  0  0  0  0  0
  -22.2697  -11.6735   24.8445 C   0  0  0  0  0  0  0  0  0  0  0  0
  -23.0057  -26.5818   20.9424 C   0  0  0  0  0  0  0  0  0  0  0  0
  -21.5664  -10.1447   26.4847 C   0  0  0  0  0  0  0  0  0  0  0  0
  -21.7021   -7.5867   27.5896 C   0  0  0  0  0  0  0  0  0  0  0  0
  -21.9764   -9.9771   27.8074 C   0  0  0  0  0  0  0  0  0  0  0  0
  -26.2929  -19.8576   20.1133 C   0  0  0  0  0  0  0  0  0  0  0  0
  -24.6705  -12.4800   21.4557 C   0  0  0  0  0  0  0  0  0  0  0  0
  -25.5010  -12.5682   19.4216 C   0  0  0  0  0  0  0  0  0  0  0  0
  -22.0173  -22.6198   19.8525 C   0  0  0  0  0  0  0  0  0  0  0  0
  -23.3895  -11.2422   19.6005 C   0  0  0  0  0  0  0  0  0  0  0  0
  -25.4156  -32.4580   21.3763 C   0  0  0  0  0  0  0  0  0  0  0  0
  -27.3993  -30.2669   20.5551 C   0  0  0  0  0  0  0  0  0  0  0  0
  -29.4071  -27.5405   20.1395 C   0  0  0  0  0  0  0  0  0  0  0  0
  -29.0484  -17.3035   20.2568 C   0  0  0  0  0  0  0  0  0  0  0  0
  -27.3899  -36.2385   24.1812 C   0  0  0  0  0  0  0  0  0  0  0  0
  -23.9485  -30.6024   22.1321 C   0  0  0  0  0  0  0  0  0  0  0  0
  -25.0897  -29.5513   19.7715 C   0  0  0  0  0  0  0  0  0  0  0  0
  -22.7747  -22.0496   18.6785 C   0  0  0  0  0  0  0  0  0  0  0  0
  -27.9287  -35.2426   23.1574 C   0  0  0  0  0  0  0  0  0  0  0  0
  -30.0706  -13.9089   19.9266 C   0  0  0  0  0  0  0  0  0  0  0  0
  -27.0434  -35.2223   21.9153 C   0  0  0  0  0  0  0  0  0  0  0  0
  -28.7805  -13.1180   20.1550 C   0  0  0  0  0  0  0  0  0  0  0  0
  -23.8601  -21.0927   19.1499 C   0  0  0  0  0  0  0  0  0  0  0  0
  -30.1436  -15.1454   20.8208 C   0  0  0  0  0  0  0  0  0  0  0  0
  -27.6869  -15.2433   20.9760 C   0  0  0  0  0  0  0  0  0  0  0  0
  -24.3382  -22.9672   20.7765 C   0  0  0  0  0  0  0  0  0  0  0  0
  -25.6181  -34.7747   22.2609 C   0  0  1  0  0  0  0  0  0  0  0  0
  -25.3903  -31.0144   21.7847 C   0  0  1  0  0  0  0  0  0  0  0  0
  -27.5381  -14.0241   20.0513 C   0  0  2  0  0  0  0  0  0  0  0  0
  -22.8276  -22.9649   21.1021 C   0  0  2  0  0  0  0  0  0  0  0  0
  -22.4983  -21.9367   22.1947 C   0  0  0  0  0  0  0  0  0  0  0  0
  -31.7575  -26.8983   19.5393 C   0  0  0  0  0  0  0  0  0  0  0  0
  -26.8088  -30.8614   17.6222 C   0  0  0  0  0  0  0  0  0  0  0  0
  -28.7212  -29.3668   17.0078 C   0  0  0  0  0  0  0  0  0  0  0  0
  -29.1325  -31.4261   18.3542 C   0  0  0  0  0  0  0  0  0  0  0  0
  -29.8421  -26.2329   22.7587 C   0  0  0  0  0  0  0  0  0  0  0  0
  -22.4225  -24.3669   21.5838 C   0  0  0  0  0  0  0  0  0  1  0  0
  -27.9865  -29.4478   19.4336 C   0  0  1  0  0  0  0  0  0  0  0  0
  -30.7926  -27.2193   20.6701 C   0  0  2  0  0  0  0  0  0  0  0  0
  -28.1408  -30.2658   18.1204 C   0  0  0  0  0  0  0  0  0  0  0  0
  -25.7751  -13.2210   21.5772 N   0  0  0  0  0  0  0  0  0  0  0  0
  -26.2580  -13.2564   20.3235 N   0  0  0  0  0  0  0  0  0  0  0  0
  -24.7635  -21.7304   20.1119 N   0  0  3  0  0  0  0  0  0  0  0  0
  -26.0035  -30.2805   20.6647 N   0  0  0  0  0  0  0  0  0  0  0  0
  -28.9351  -15.9581   20.6664 N   0  0  0  0  0  0  0  0  0  0  0  0
  -25.8423  -12.5014   18.1172 N   0  0  0  0  0  0  0  0  0  0  0  0
  -23.5532   -9.8504   19.5759 N   0  0  0  0  0  0  0  0  0  0  0  0
  -27.8303  -17.9669   20.1129 N   0  0  0  0  0  0  0  0  0  0  0  0
  -25.5665  -33.3384   22.4306 N   0  0  0  0  0  0  0  0  0  0  0  0
  -29.2365  -28.8946   19.9434 N   0  0  0  0  0  0  0  0  0  0  0  0
  -30.7369  -26.0463   21.5876 N   0  3  0  0  0  0  0  0  0  0  0  0
  -20.8029  -22.8132   19.7846 O   0  0  0  0  0  0  0  0  0  0  0  0
  -22.3352  -11.7445   19.1427 O   0  0  0  0  0  0  0  0  0  0  0  0
  -25.3077  -32.7527   20.1917 O   0  0  0  0  0  0  0  0  0  0  0  0
  -28.1550  -30.8834   21.3115 O   0  0  0  0  0  0  0  0  0  0  0  0
  -28.5620  -26.6761   19.9175 O   0  0  0  0  0  0  0  0  0  0  0  0
  -30.1438  -17.8205   20.0227 O   0  0  0  0  0  0  0  0  0  0  0  0
  -21.4978  -11.4138   25.9350 O   0  0  0  0  0  0  0  0  0  0  0  0
  -22.7045  -25.3122   20.5527 O   0  0  0  0  0  0  0  0  0  1  0  0
  -21.7658   -6.3585   28.1204 F   0  0  0  0  0  0  0  0  0  0  0  0
  -22.3052  -11.0412   28.5526 F   0  0  0  0  0  0  0  0  0  0  0  0
  -25.2911  -19.0381   19.7590 F   0  0  0  0  0  0  0  0  0  0  0  0
  1  2  1  0  0  0  0
  1  6  2  0  0  0  0
  2  7  2  0  0  0  0
  3  9  2  0  0  0  0
  3 10  1  0  0  0  0
  4 11  2  0  0  0  0
  4 18  1  0  0  0  0
  5 12  1  0  0  0  0
  5 18  2  0  0  0  0
  6 20  1  0  0  0  0
  7 22  1  0  0  0  0
  8 13  2  0  0  0  0
  8 21  1  0  0  0  0
  9 24  1  0  0  0  0
 10 25  2  0  0  0  0
 11 26  1  0  0  0  0
 12 26  2  0  0  0  0
 13 27  1  0  0  0  0
 14 15  2  0  0  0  0
 14 28  1  0  0  0  0
 15 29  1  0  0  0  0
 16 23  1  0  0  0  0
 16 27  2  0  0  0  0
 17 29  2  0  0  0  0
 17 30  1  0  0  0  0
 18 32  1  0  0  0  0
 19 32  1  0  0  0  0
 19 33  2  0  0  0  0
 19 35  1  0  0  0  0
 20 22  2  0  0  0  0
 20 40  1  0  0  0  0
 21 23  2  0  0  0  0
 21 41  1  0  0  0  0
 22 52  1  0  0  0  0
 23 42  1  0  0  0  0
 24 31  2  0  0  0  0
 24 68  1  0  0  0  0
 25 31  1  0  0  0  0
 25 73  1  0  0  0  0
 26 83  1  0  0  0  0
 27 84  1  0  0  0  0
 28 30  2  0  0  0  0
 28 83  1  0  0  0  0
 29 85  1  0  0  0  0
 30 86  1  0  0  0  0
 31 87  1  0  0  0  0
 32 66  2  0  0  0  0
 33 67  1  0  0  0  0
 33 71  1  0  0  0  0
 34 43  1  0  0  0  0
 34 55  1  0  0  0  0
 34 77  2  0  0  0  0
 35 72  1  0  0  0  0
 35 78  2  0  0  0  0
 36 53  1  0  0  0  0
 36 74  1  0  0  0  0
 36 79  2  0  0  0  0
 37 63  1  0  0  0  0
 37 69  1  0  0  0  0
 37 80  2  0  0  0  0
 38 64  1  0  0  0  0
 38 75  1  0  0  0  0
 38 81  2  0  0  0  0
 39 70  1  0  0  0  0
 39 73  1  0  0  0  0
 39 82  2  0  0  0  0
 40 44  1  0  0  0  0
 41 53  1  0  0  0  0
 42 69  1  0  0  0  0
 43 48  1  0  0  0  0
 44 46  1  0  0  0  0
 45 47  1  0  0  0  0
 45 49  1  0  0  0  0
 46 52  1  0  0  0  0
 47 54  1  0  0  0  0
 48 68  1  0  0  0  0
 49 70  1  0  0  0  0
 50 54  1  0  0  0  0
 50 70  1  0  0  0  0
 51 55  1  0  0  0  0
 51 68  1  0  0  0  0
 52 74  1  0  0  0  0
 53 69  1  0  0  0  0
 54 67  1  0  0  0  0
 55 56  1  0  0  0  0
 55 62  1  0  0  0  0
 57 64  1  0  0  0  0
 58 65  1  0  0  0  0
 59 65  1  0  0  0  0
 60 65  1  0  0  0  0
 61 76  1  0  0  0  0
 62 84  1  0  0  0  0
 63 65  1  0  0  0  0
 63 75  1  0  0  0  0
 64 76  1  0  0  0  0
 66 67  1  0  0  0  0
M  CHG  1  76   1
M  ISO  4  39 100  62 101  73 100  84 101
M  END
> <Batch ID>
0068

> <Smiles>
CNC(C)C(=O)NC(C(=O)N1Cc2cc([101O:1][101CH2:1]C3(C)CN(c4cccc([100NH:0][100C:0](=O)N5CCCC(n6nc(-c7ccc(Oc8ccc(F)cc8F)cc7)c(C(N)=O)c6N)C5)c4F)CCC3=O)ccc2CC1C(=O)NC1CCCc2ccccc21)C(C)(C)C

> <Shape>
0.244

> <Color>
0.075

> <Negative vol penalty>
0.000

$$$$

  -OEChem-04042323273D

 83 91  0     1  0  0  0  0  0999 V2000
  -27.3111  -37.8852   21.9699 C   0  0  0  0  0  0  0  0  0  0  0  0
  -27.8044  -36.8448   21.1891 C   0  0  0  0  0  0  0  0  0  0  0  0
  -24.7940   -8.6781   21.6215 C   0  0  0  0  0  0  0  0  0  0  0  0
  -23.2447  -10.0156   20.3379 C   0  0  0  0  0  0  0  0  0  0  0  0
  -26.6427  -37.6049   23.1610 C   0  0  0  0  0  0  0  0  0  0  0  0
  -27.6306  -35.5236   21.5995 C   0  0  0  0  0  0  0  0  0  0  0  0
  -26.6263  -28.9424   18.9545 C   0  0  0  0  0  0  0  0  0  0  0  0
  -25.0764  -19.7420   17.7810 C   0  0  0  0  0  0  0  0  0  0  0  0
  -23.7439   -8.2313   22.4235 C   0  0  0  0  0  0  0  0  0  0  0  0
  -22.1945   -9.5688   21.1400 C   0  0  0  0  0  0  0  0  0  0  0  0
  -27.1547  -27.6551   19.0399 C   0  0  0  0  0  0  0  0  0  0  0  0
  -21.4174   -6.4585   24.5820 C   0  0  0  0  0  0  0  0  0  0  0  0
  -24.5898  -18.5390   17.2695 C   0  0  0  0  0  0  0  0  0  0  0  0
  -21.3606   -5.0963   24.8768 C   0  0  0  0  0  0  0  0  0  0  0  0
  -25.9146  -27.2875   21.0761 C   0  0  0  0  0  0  0  0  0  0  0  0
  -26.9716  -18.5756   18.7216 C   0  0  0  0  0  0  0  0  0  0  0  0
  -21.1933   -4.5932   22.5197 C   0  0  0  0  0  0  0  0  0  0  0  0
  -24.5444   -9.5703   20.5787 C   0  0  0  0  0  0  0  0  0  0  0  0
  -26.1028   -9.4428   18.5631 C   0  0  0  0  0  0  0  0  0  0  0  0
  -26.4521  -36.2792   23.5813 C   0  0  0  0  0  0  0  0  0  0  0  0
  -25.7450  -29.4166   19.9368 C   0  0  0  0  0  0  0  0  0  0  0  0
  -26.9602  -35.2253   22.7980 C   0  0  0  0  0  0  0  0  0  0  0  0
  -25.3743  -28.5803   20.9995 C   0  0  0  0  0  0  0  0  0  0  0  0
  -26.2673  -19.7603   18.5070 C   0  0  0  0  0  0  0  0  0  0  0  0
  -26.4850  -17.3725   18.2101 C   0  0  0  0  0  0  0  0  0  0  0  0
  -22.4442   -8.6766   22.1828 C   0  0  0  0  0  0  0  0  0  0  0  0
  -26.8012  -26.8284   20.1023 C   0  0  0  0  0  0  0  0  0  0  0  0
  -21.3620   -6.8881   23.2561 C   0  0  0  0  0  0  0  0  0  0  0  0
  -21.2486   -4.1637   23.8457 C   0  0  0  0  0  0  0  0  0  0  0  0
  -25.2941  -17.3543   17.4841 C   0  0  0  0  0  0  0  0  0  0  0  0
  -21.2500   -5.9554   22.2249 C   0  0  0  0  0  0  0  0  0  0  0  0
  -25.6288  -10.0326   19.7502 C   0  0  0  0  0  0  0  0  0  0  0  0
  -27.1348  -10.2565   18.1637 C   0  0  0  0  0  0  0  0  0  0  0  0
  -27.0174  -23.2733   19.5940 C   0  0  0  0  0  0  0  0  0  0  0  0
  -26.6299  -24.5528   19.5893 C   0  0  0  0  0  0  0  0  0  1  0  0
  -25.6507   -8.2648   17.8822 C   0  0  0  0  0  0  0  0  0  0  0  0
  -26.1884  -22.2413   18.9056 C   0  0  0  0  0  0  0  0  0  0  0  0
  -25.8019  -31.7995   22.0397 C   0  0  0  0  0  0  0  0  0  0  0  0
  -22.7520  -30.8525   22.6086 C   0  0  0  0  0  0  0  0  0  0  0  0
  -20.4233  -28.3603   22.4950 C   0  0  0  0  0  0  0  0  0  0  0  0
  -28.3995  -16.0164   19.1276 C   0  0  0  0  0  0  0  0  0  0  0  0
  -25.7647  -36.0274   24.9000 C   0  0  0  0  0  0  0  0  0  0  0  0
  -25.1628  -30.7982   19.8160 C   0  0  0  0  0  0  0  0  0  0  0  0
  -24.4162  -29.0345   22.0692 C   0  0  0  0  0  0  0  0  0  0  0  0
  -25.2939  -34.5860   25.0760 C   0  0  0  0  0  0  0  0  0  0  0  0
  -30.4597  -13.2225   19.9193 C   0  0  0  0  0  0  0  0  0  0  0  0
  -26.3968  -33.6115   24.6751 C   0  0  0  0  0  0  0  0  0  0  0  0
  -29.4991  -12.0330   19.8518 C   0  0  0  0  0  0  0  0  0  0  0  0
  -29.7825  -14.4665   20.4915 C   0  0  0  0  0  0  0  0  0  0  0  0
  -27.5713  -13.6646   19.7590 C   0  0  0  0  0  0  0  0  0  0  0  0
  -26.7697  -33.7781   23.1970 C   0  0  1  0  0  0  0  0  0  0  0  0
  -24.6753  -31.3598   21.1481 C   0  0  1  0  0  0  0  0  0  0  0  0
  -28.1901  -12.4061   19.1288 C   0  0  2  0  0  0  0  0  0  0  0  0
  -18.0279  -27.8751   23.0644 C   0  0  0  0  0  0  0  0  0  0  0  0
  -23.4962  -30.6563   25.5611 C   0  0  0  0  0  0  0  0  0  0  0  0
  -21.4264  -29.2943   25.9206 C   0  0  0  0  0  0  0  0  0  0  0  0
  -21.2441  -31.6487   25.1166 C   0  0  0  0  0  0  0  0  0  0  0  0
  -19.7499  -27.7748   19.6731 C   0  0  0  0  0  0  0  0  0  0  0  0
  -22.0960  -29.8637   23.5419 C   0  0  1  0  0  0  0  0  0  0  0  0
  -18.9934  -28.3402   21.9854 C   0  0  2  0  0  0  0  0  0  0  0  0
  -22.0853  -30.3576   25.0161 C   0  0  0  0  0  0  0  0  0  0  0  0
  -26.3043  -11.1356   20.0834 N   0  0  0  0  0  0  0  0  0  0  0  0
  -27.2133  -11.2454   19.0996 N   0  0  0  0  0  0  0  0  0  0  0  0
  -23.8788  -30.3959   21.9102 N   0  0  0  0  0  0  0  0  0  0  0  0
  -28.5518  -14.7615   19.7545 N   0  0  0  0  0  0  0  0  0  0  0  0
  -27.9737  -10.2152   17.1068 N   0  0  0  0  0  0  0  0  0  0  0  0
  -24.5786   -7.5468   18.4294 N   0  0  0  0  0  0  0  0  0  0  0  0
  -26.7612  -20.9822   19.0264 N   0  0  0  0  0  0  0  0  0  0  0  0
  -27.2024  -16.1704   18.4291 N   0  0  0  0  0  0  0  0  0  0  0  0
  -25.7800  -33.1455   22.3516 N   0  0  0  0  0  0  0  0  0  0  0  0
  -20.7715  -29.5990   22.9907 N   0  0  0  0  0  0  0  0  0  0  0  0
  -18.8723  -27.4213   20.8184 N   0  3  0  0  0  0  0  0  0  0  0  0
  -26.1922   -7.8518   16.8288 O   0  0  0  0  0  0  0  0  0  0  0  0
  -25.1494  -22.5418   18.3296 O   0  0  0  0  0  0  0  0  0  0  0  0
  -26.6289  -30.9781   22.4180 O   0  0  0  0  0  0  0  0  0  0  0  0
  -22.2777  -31.9858   22.4977 O   0  0  0  0  0  0  0  0  0  0  0  0
  -21.1566  -27.3746   22.4604 O   0  0  0  0  0  0  0  0  0  0  0  0
  -29.2789  -16.8799   19.1819 O   0  0  0  0  0  0  0  0  0  0  0  0
  -21.4192   -8.2407   22.9650 O   0  0  0  0  0  0  0  0  0  0  0  0
  -27.3161  -25.5717   20.1884 O   0  0  0  0  0  0  0  0  0  1  0  0
  -21.1957   -2.8556   24.1288 F   0  0  0  0  0  0  0  0  0  0  0  0
  -24.8166  -16.2041   16.9880 F   0  0  0  0  0  0  0  0  0  0  0  0
  -21.1975   -6.3620   20.9491 F   0  0  0  0  0  0  0  0  0  0  0  0
  1  2  1  0  0  0  0
  1  5  2  0  0  0  0
  2  6  2  0  0  0  0
  3  9  2  0  0  0  0
  3 18  1  0  0  0  0
  4 10  1  0  0  0  0
  4 18  2  0  0  0  0
  5 20  1  0  0  0  0
  6 22  1  0  0  0  0
  7 11  2  0  0  0  0
  7 21  1  0  0  0  0
  8 13  2  0  0  0  0
  8 24  1  0  0  0  0
  9 26  1  0  0  0  0
 10 26  2  0  0  0  0
 11 27  1  0  0  0  0
 12 14  2  0  0  0  0
 12 28  1  0  0  0  0
 13 30  1  0  0  0  0
 14 29  1  0  0  0  0
 15 23  1  0  0  0  0
 15 27  2  0  0  0  0
 16 24  2  0  0  0  0
 16 25  1  0  0  0  0
 17 29  2  0  0  0  0
 17 31  1  0  0  0  0
 18 32  1  0  0  0  0
 19 32  1  0  0  0  0
 19 33  2  0  0  0  0
 19 36  1  0  0  0  0
 20 22  2  0  0  0  0
 20 42  1  0  0  0  0
 21 23  2  0  0  0  0
 21 43  1  0  0  0  0
 22 51  1  0  0  0  0
 23 44  1  0  0  0  0
 24 68  1  0  0  0  0
 25 30  2  0  0  0  0
 25 69  1  0  0  0  0
 26 79  1  0  0  0  0
 27 80  1  0  0  0  0
 28 31  2  0  0  0  0
 28 79  1  0  0  0  0
 29 81  1  0  0  0  0
 30 82  1  0  0  0  0
 31 83  1  0  0  0  0
 32 62  2  0  0  0  0
 33 63  1  0  0  0  0
 33 66  1  0  0  0  0
 34 35  2  0  0  0  0
 34 37  1  0  0  0  0
 35 80  1  0  0  0  0
 36 67  1  0  0  0  0
 36 73  2  0  0  0  0
 37 68  1  0  0  0  0
 37 74  2  0  0  0  0
 38 52  1  0  0  0  0
 38 70  1  0  0  0  0
 38 75  2  0  0  0  0
 39 59  1  0  0  0  0
 39 64  1  0  0  0  0
 39 76  2  0  0  0  0
 40 60  1  0  0  0  0
 40 71  1  0  0  0  0
 40 77  2  0  0  0  0
 41 65  1  0  0  0  0
 41 69  1  0  0  0  0
 41 78  2  0  0  0  0
 42 45  1  0  0  0  0
 43 52  1  0  0  0  0
 44 64  1  0  0  0  0
 45 47  1  0  0  0  0
 46 48  1  0  0  0  0
 46 49  1  0  0  0  0
 47 51  1  0  0  0  0
 48 53  1  0  0  0  0
 49 65  1  0  0  0  0
 50 53  1  0  0  0  0
 50 65  1  0  0  0  0
 51 70  1  0  0  0  0
 52 64  1  0  0  0  0
 53 63  1  0  0  0  0
 54 60  1  0  0  0  0
 55 61  1  0  0  0  0
 56 61  1  0  0  0  0
 57 61  1  0  0  0  0
 58 72  1  0  0  0  0
 59 61  1  0  0  0  0
 59 71  1  0  0  0  0
 60 72  1  0  0  0  0
 62 63  1  0  0  0  0
M  CHG  1  72   1
M  ISO  4  35 101  41 100  69 100  80 101
M  END
> <Batch ID>
0068

> <Smiles>
CNC(C)C(=O)NC(C(=O)N1Cc2cc([101O:1][101CH:1]=CC(=O)Nc3ccc(F)c([100NH:0][100C:0](=O)N4CCCC(n5nc(-c6ccc(Oc7ccc(F)cc7F)cc6)c(C(N)=O)c5N)C4)c3)ccc2CC1C(=O)NC1CCCc2ccccc21)C(C)(C)C

> <Shape>
0.298

> <Color>
0.105

> <Negative vol penalty>
0.000

$$$$

  -OEChem-04042323273D

 84 92  0     1  0  0  0  0  0999 V2000
  -16.9958  -26.6595   25.4944 C   0  0  0  0  0  0  0  0  0  0  0  0
  -18.2645  -26.1443   25.2490 C   0  0  0  0  0  0  0  0  0  0  0  0
  -23.7021   -8.9657   19.6667 C   0  0  0  0  0  0  0  0  0  0  0  0
  -23.2905  -10.0880   21.7662 C   0  0  0  0  0  0  0  0  0  0  0  0
  -27.7870  -20.2805   20.6220 C   0  0  0  0  0  0  0  0  0  0  0  0
  -16.6498  -27.9190   25.0069 C   0  0  0  0  0  0  0  0  0  0  0  0
  -19.1877  -26.8880   24.5148 C   0  0  0  0  0  0  0  0  0  0  0  0
  -25.2567  -27.0511   25.3194 C   0  0  0  0  0  0  0  0  0  0  0  0
  -27.6607  -18.8921   20.6637 C   0  0  0  0  0  0  0  0  0  0  0  0
  -23.0230   -7.8409   20.1348 C   0  0  0  0  0  0  0  0  0  0  0  0
  -22.6114   -8.9632   22.2343 C   0  0  0  0  0  0  0  0  0  0  0  0
  -26.3063  -26.3990   24.6738 C   0  0  0  0  0  0  0  0  0  0  0  0
  -19.8131   -6.8606   20.5451 C   0  0  0  0  0  0  0  0  0  0  0  0
  -18.8966   -6.2529   19.6870 C   0  0  0  0  0  0  0  0  0  0  0  0
  -26.6250  -28.3261   23.2582 C   0  0  0  0  0  0  0  0  0  0  0  0
  -30.0666  -18.6743   20.7001 C   0  0  0  0  0  0  0  0  0  0  0  0
  -20.1659   -4.1996   19.7853 C   0  0  0  0  0  0  0  0  0  0  0  0
  -23.8359  -10.0893   20.4824 C   0  0  0  0  0  0  0  0  0  0  0  0
  -29.0531  -20.8660   20.6193 C   0  0  0  0  0  0  0  0  0  0  0  0
  -23.9908  -12.3478   19.3064 C   0  0  0  0  0  0  0  0  0  0  0  0
  -17.5725  -28.6827   24.2746 C   0  0  0  0  0  0  0  0  0  0  0  0
  -24.8756  -28.3436   24.9312 C   0  0  0  0  0  0  0  0  0  0  0  0
  -18.8533  -28.1584   24.0159 C   0  0  0  0  0  0  0  0  0  0  0  0
  -25.5718  -28.9934   23.9021 C   0  0  0  0  0  0  0  0  0  0  0  0
  -28.8005  -18.0890   20.7028 C   0  0  0  0  0  0  0  0  0  0  0  0
  -22.4776   -7.8396   21.4186 C   0  0  0  0  0  0  0  0  0  0  0  0
  -26.9888  -27.0353   23.6411 C   0  0  0  0  0  0  0  0  0  0  0  0
  -20.9061   -6.1378   21.0233 C   0  0  0  0  0  0  0  0  0  0  0  0
  -19.0729   -4.9224   19.3072 C   0  0  0  0  0  0  0  0  0  0  0  0
  -30.1929  -20.0628   20.6583 C   0  0  0  0  0  0  0  0  0  0  0  0
  -21.0825   -4.8073   20.6434 C   0  0  0  0  0  0  0  0  0  0  0  0
  -24.5377  -11.2513   19.9995 C   0  0  0  0  0  0  0  0  0  0  0  0
  -25.0615  -13.1762   19.0745 C   0  0  0  0  0  0  0  0  0  0  0  0
  -29.1835  -22.3369   20.5744 C   0  0  0  0  0  0  0  0  0  0  0  0
  -22.6359  -12.5954   18.9079 C   0  0  0  0  0  0  0  0  0  0  0  0
  -22.2274  -29.6397   23.7434 C   0  0  0  0  0  0  0  0  0  0  0  0
  -23.8680  -32.4089   24.1465 C   0  0  0  0  0  0  0  0  0  0  0  0
  -28.6504  -24.4885   21.6955 C   0  0  0  0  0  0  0  0  0  0  0  0
  -26.8885  -33.9719   24.4303 C   0  0  0  0  0  0  0  0  0  0  0  0
  -29.6994  -15.7371   20.7874 C   0  0  0  0  0  0  0  0  0  0  0  0
  -17.1369  -30.0190   23.7276 C   0  0  0  0  0  0  0  0  0  0  0  0
  -23.7586  -29.0438   25.6555 C   0  0  0  0  0  0  0  0  0  0  0  0
  -25.2150  -30.3887   23.4612 C   0  0  0  0  0  0  0  0  0  0  0  0
  -18.2988  -30.9014   23.2786 C   0  0  0  0  0  0  0  0  0  0  0  0
  -30.0272  -12.3798   19.6482 C   0  0  0  0  0  0  0  0  0  0  0  0
  -19.2843  -30.0983   22.4357 C   0  0  0  0  0  0  0  0  0  0  0  0
  -28.5833  -11.8771   19.5810 C   0  0  0  0  0  0  0  0  0  0  0  0
  -30.2478  -13.3139   20.8366 C   0  0  0  0  0  0  0  0  0  0  0  0
  -27.8643  -13.9363   20.8576 C   0  0  0  0  0  0  0  0  0  0  0  0
  -19.8907  -28.9454   23.2447 C   0  0  1  0  0  0  0  0  0  0  0  0
  -23.1208  -30.1598   24.8339 C   0  0  1  0  0  0  0  0  0  0  0  0
  -27.5773  -13.0433   19.6394 C   0  0  2  0  0  0  0  0  0  0  0  0
  -27.9108  -36.2462   24.7130 C   0  0  0  0  0  0  0  0  0  0  0  0
  -23.3018  -33.0254   21.2123 C   0  0  0  0  0  0  0  0  0  0  0  0
  -25.0978  -34.7673   21.3039 C   0  0  0  0  0  0  0  0  0  0  0  0
  -23.0780  -34.9836   22.7518 C   0  0  0  0  0  0  0  0  0  0  0  0
  -28.1474  -33.2143   26.9994 C   0  0  0  0  0  0  0  0  0  0  0  0
  -27.9482  -24.9772   22.9343 C   0  0  0  0  0  0  0  0  0  1  0  0
  -24.8115  -33.2259   23.2972 C   0  0  1  0  0  0  0  0  0  0  0  0
  -27.4009  -35.0010   25.4217 C   0  0  2  0  0  0  0  0  0  0  0  0
  -24.0780  -33.9735   22.1481 C   0  0  0  0  0  0  0  0  0  0  0  0
  -25.8537  -11.3694   20.1950 N   0  0  0  0  0  0  0  0  0  0  0  0
  -26.1427  -12.5498   19.6212 N   0  0  0  0  0  0  0  0  0  0  0  0
  -24.1116  -31.0290   24.1960 N   0  0  0  0  0  0  0  0  0  0  0  0
  -29.2614  -14.3964   20.8241 N   0  0  0  0  0  0  0  0  0  0  0  0
  -25.1742  -14.3719   18.4581 N   0  0  0  0  0  0  0  0  0  0  0  0
  -21.6607  -11.6404   19.2263 N   0  0  0  0  0  0  0  0  0  0  0  0
  -28.6715  -16.6785   20.7454 N   0  0  0  0  0  0  0  0  0  0  0  0
  -28.6380  -23.0502   21.5693 N   0  0  0  0  0  0  0  0  0  0  0  0
  -20.9179  -29.4393   24.1366 N   0  0  0  0  0  0  0  0  0  0  0  0
  -25.5327  -34.1012   24.2148 N   0  0  0  0  0  0  0  0  0  0  0  0
  -29.8406  -22.8701   19.5449 N   0  3  0  0  0  0  0  0  0  0  0  0
  -28.5153  -34.4311   26.2305 N   0  3  0  0  0  0  0  0  0  0  0  0
  -22.3029  -13.6249   18.2734 O   0  0  0  0  0  0  0  0  0  0  0  0
  -22.6914  -29.4369   22.6275 O   0  0  0  0  0  0  0  0  0  0  0  0
  -22.9530  -32.9752   24.7496 O   0  0  0  0  0  0  0  0  0  0  0  0
  -29.1869  -25.2044   20.8622 O   0  0  0  0  0  0  0  0  0  0  0  0
  -27.6186  -33.1392   23.8974 O   0  0  0  0  0  0  0  0  0  0  0  0
  -30.8981  -16.0279   20.7655 O   0  0  0  0  0  0  0  0  0  0  0  0
  -21.8147   -6.7422   21.8757 O   0  0  0  0  0  0  0  0  0  0  0  0
  -28.0132  -26.4008   23.0089 O   0  0  0  0  0  0  0  0  0  1  0  0
  -18.1919   -4.3386   18.4844 F   0  0  0  0  0  0  0  0  0  0  0  0
  -31.4138  -20.6161   20.6542 F   0  0  0  0  0  0  0  0  0  0  0  0
  -22.1299   -4.1074   21.1005 F   0  0  0  0  0  0  0  0  0  0  0  0
  1  2  1  0  0  0  0
  1  6  2  0  0  0  0
  2  7  2  0  0  0  0
  3 10  2  0  0  0  0
  3 18  1  0  0  0  0
  4 11  1  0  0  0  0
  4 18  2  0  0  0  0
  5  9  2  0  0  0  0
  5 19  1  0  0  0  0
  6 21  1  0  0  0  0
  7 23  1  0  0  0  0
  8 12  2  0  0  0  0
  8 22  1  0  0  0  0
  9 25  1  0  0  0  0
 10 26  1  0  0  0  0
 11 26  2  0  0  0  0
 12 27  1  0  0  0  0
 13 14  2  0  0  0  0
 13 28  1  0  0  0  0
 14 29  1  0  0  0  0
 15 24  1  0  0  0  0
 15 27  2  0  0  0  0
 16 25  2  0  0  0  0
 16 30  1  0  0  0  0
 17 29  2  0  0  0  0
 17 31  1  0  0  0  0
 18 32  1  0  0  0  0
 19 30  2  0  0  0  0
 19 34  1  0  0  0  0
 20 32  1  0  0  0  0
 20 33  2  0  0  0  0
 20 35  1  0  0  0  0
 21 23  2  0  0  0  0
 21 41  1  0  0  0  0
 22 24  2  0  0  0  0
 22 42  1  0  0  0  0
 23 50  1  0  0  0  0
 24 43  1  0  0  0  0
 25 68  1  0  0  0  0
 26 80  1  0  0  0  0
 27 81  1  0  0  0  0
 28 31  2  0  0  0  0
 28 80  1  0  0  0  0
 29 82  1  0  0  0  0
 30 83  1  0  0  0  0
 31 84  1  0  0  0  0
 32 62  2  0  0  0  0
 33 63  1  0  0  0  0
 33 66  1  0  0  0  0
 34 69  1  0  0  0  0
 34 72  2  0  0  0  0
 35 67  1  0  0  0  0
 35 74  2  0  0  0  0
 36 51  1  0  0  0  0
 36 70  1  0  0  0  0
 36 75  2  0  0  0  0
 37 59  1  0  0  0  0
 37 64  1  0  0  0  0
 37 76  2  0  0  0  0
 38 58  1  0  0  0  0
 38 69  1  0  0  0  0
 38 77  2  0  0  0  0
 39 60  1  0  0  0  0
 39 71  1  0  0  0  0
 39 78  2  0  0  0  0
 40 65  1  0  0  0  0
 40 68  1  0  0  0  0
 40 79  2  0  0  0  0
 41 44  1  0  0  0  0
 42 51  1  0  0  0  0
 43 64  1  0  0  0  0
 44 46  1  0  0  0  0
 45 47  1  0  0  0  0
 45 48  1  0  0  0  0
 46 50  1  0  0  0  0
 47 52  1  0  0  0  0
 48 65  1  0  0  0  0
 49 52  1  0  0  0  0
 49 65  1  0  0  0  0
 50 70  1  0  0  0  0
 51 64  1  0  0  0  0
 52 63  1  0  0  0  0
 53 60  1  0  0  0  0
 54 61  1  0  0  0  0
 55 61  1  0  0  0  0
 56 61  1  0  0  0  0
 57 73  1  0  0  0  0
 58 81  1  0  0  0  0
 59 61  1  0  0  0  0
 59 71  1  0  0  0  0
 60 73  1  0  0  0  0
 62 63  1  0  0  0  0
M  CHG  2  72   1  73   1
M  ISO  4  40 100  58 101  68 100  81 101
M  END
> <Batch ID>
0068

> <Smiles>
CNC(C)C(=O)NC(C(=O)N1Cc2cc([101O:1][101CH2:1]C(=O)NC(=N)c3ccc([100NH:0][100C:0](=O)N4CCCC(n5nc(-c6ccc(Oc7ccc(F)cc7F)cc6)c(C(N)=O)c5N)C4)cc3F)ccc2CC1C(=O)NC1CCCc2ccccc21)C(C)(C)C

> <Shape>
0.277

> <Color>
0.105

> <Negative vol penalty>
0.000

$$$$

  -OEChem-04042323273D

 84 92  0     1  0  0  0  0  0999 V2000
  -28.6528  -24.3963   16.6477 C   0  0  0  0  0  0  0  0  0  0  0  0
  -27.4653  -24.5047   17.3642 C   0  0  0  0  0  0  0  0  0  0  0  0
  -27.6578  -13.1903   18.9806 C   0  0  0  0  0  0  0  0  0  0  0  0
  -28.9328  -14.2496   20.7382 C   0  0  0  0  0  0  0  0  0  0  0  0
  -20.2766  -21.8263   24.4437 C   0  0  0  0  0  0  0  0  0  0  0  0
  -29.8129  -25.0029   17.1274 C   0  0  0  0  0  0  0  0  0  0  0  0
  -27.4374  -25.2189   18.5615 C   0  0  0  0  0  0  0  0  0  0  0  0
  -23.4150  -28.2760   18.9067 C   0  0  0  0  0  0  0  0  0  0  0  0
  -28.7482  -12.3734   18.6819 C   0  0  0  0  0  0  0  0  0  0  0  0
  -30.0233  -13.4326   20.4395 C   0  0  0  0  0  0  0  0  0  0  0  0
  -22.1949  -27.6880   19.2374 C   0  0  0  0  0  0  0  0  0  0  0  0
  -30.1871   -9.5824   19.9360 C   0  0  0  0  0  0  0  0  0  0  0  0
  -21.2537  -20.9977   24.9953 C   0  0  0  0  0  0  0  0  0  0  0  0
  -29.9432   -8.2241   19.7333 C   0  0  0  0  0  0  0  0  0  0  0  0
  -21.5920  -22.0357   22.4280 C   0  0  0  0  0  0  0  0  0  0  0  0
  -22.4742  -28.4079   21.5228 C   0  0  0  0  0  0  0  0  0  0  0  0
  -30.8306   -8.3992   17.4929 C   0  0  0  0  0  0  0  0  0  0  0  0
  -27.7501  -14.1285   20.0087 C   0  0  0  0  0  0  0  0  0  0  0  0
  -20.4457  -22.3453   23.1600 C   0  0  0  0  0  0  0  0  0  0  0  0
  -25.5868  -14.7065   21.2309 C   0  0  0  0  0  0  0  0  0  0  0  0
  -29.7970  -25.7331   18.3263 C   0  0  0  0  0  0  0  0  0  0  0  0
  -24.1803  -28.9260   19.8856 C   0  0  0  0  0  0  0  0  0  0  0  0
  -28.5986  -25.8347   19.0584 C   0  0  0  0  0  0  0  0  0  0  0  0
  -23.7025  -29.0055   21.2014 C   0  0  0  0  0  0  0  0  0  0  0  0
  -22.5692  -21.2071   22.9796 C   0  0  0  0  0  0  0  0  0  0  0  0
  -29.9309  -12.4945   19.4114 C   0  0  0  0  0  0  0  0  0  0  0  0
  -21.7257  -27.7514   20.5462 C   0  0  0  0  0  0  0  0  0  0  0  0
  -30.7527  -10.3491   18.9172 C   0  0  0  0  0  0  0  0  0  0  0  0
  -30.2649   -7.6325   18.5117 C   0  0  0  0  0  0  0  0  0  0  0  0
  -22.4000  -20.6881   24.2633 C   0  0  0  0  0  0  0  0  0  0  0  0
  -31.0745   -9.7575   17.6957 C   0  0  0  0  0  0  0  0  0  0  0  0
  -26.6243  -14.9730   20.3174 C   0  0  0  0  0  0  0  0  0  0  0  0
  -24.7727  -15.8103   21.1575 C   0  0  0  0  0  0  0  0  0  0  0  0
  -25.3778  -13.5635   22.0708 C   0  0  0  0  0  0  0  0  0  0  0  0
  -19.4052  -23.2271   22.5731 C   0  0  0  0  0  0  0  0  0  0  0  0
  -27.0720  -28.4863   21.1300 C   0  0  0  0  0  0  0  0  0  0  0  0
  -26.4183  -31.2795   22.6443 C   0  0  0  0  0  0  0  0  0  0  0  0
  -19.2805  -25.1651   20.9625 C   0  0  0  0  0  0  0  0  0  0  0  0
  -24.0680  -33.4637   23.8069 C   0  0  0  0  0  0  0  0  0  0  0  0
  -24.0544  -21.3278   20.9484 C   0  0  0  0  0  0  0  0  0  0  0  0
  -31.0869  -26.3314   18.8290 C   0  0  0  0  0  0  0  0  0  0  0  0
  -25.4817  -29.5784   19.5070 C   0  0  0  0  0  0  0  0  0  0  0  0
  -24.4765  -29.7093   22.2850 C   0  0  0  0  0  0  0  0  0  0  0  0
  -30.8869  -27.3855   19.9149 C   0  0  0  0  0  0  0  0  0  0  0  0
  -24.7359  -19.6637   17.8754 C   0  0  0  0  0  0  0  0  0  0  0  0
  -29.9005  -26.8879   20.9667 C   0  0  0  0  0  0  0  0  0  0  0  0
  -25.2026  -18.2731   18.3119 C   0  0  0  0  0  0  0  0  0  0  0  0
  -25.2219  -20.7512   18.8319 C   0  0  0  0  0  0  0  0  0  0  0  0
  -25.3673  -19.1321   20.6830 C   0  0  0  0  0  0  0  0  0  0  0  0
  -28.5226  -26.6218   20.3487 C   0  0  1  0  0  0  0  0  0  0  0  0
  -26.4220  -29.7686   20.6932 C   0  0  1  0  0  0  0  0  0  0  0  0
  -24.8478  -17.9966   19.7861 C   0  0  2  0  0  0  0  0  0  0  0  0
  -23.8376  -35.6401   25.0348 C   0  0  0  0  0  0  0  0  0  0  0  0
  -27.0746  -29.8662   25.2676 C   0  0  0  0  0  0  0  0  0  0  0  0
  -25.9358  -31.7374   26.4799 C   0  0  0  0  0  0  0  0  0  0  0  0
  -27.9557  -32.2000   25.0912 C   0  0  0  0  0  0  0  0  0  0  0  0
  -22.7009  -34.7449   21.5159 C   0  0  0  0  0  0  0  0  0  0  0  0
  -20.1381  -26.0333   20.1176 C   0  0  0  0  0  0  0  0  0  1  0  0
  -25.7648  -31.6597   23.9509 C   0  0  1  0  0  0  0  0  0  0  0  0
  -23.9394  -34.9704   23.6732 C   0  0  2  0  0  0  0  0  0  0  0  0
  -26.6688  -31.3508   25.1777 C   0  0  0  0  0  0  0  0  0  0  0  0
  -26.4843  -16.1534   19.7082 N   0  0  0  0  0  0  0  0  0  0  0  0
  -25.3493  -16.6384   20.2399 N   0  0  0  0  0  0  0  0  0  0  0  0
  -25.7461  -30.3260   21.8666 N   0  0  0  0  0  0  0  0  0  0  0  0
  -24.8462  -20.4238   20.2091 N   0  0  0  0  0  0  0  0  0  0  0  0
  -23.6269  -16.1435   21.7888 N   0  0  0  0  0  0  0  0  0  0  0  0
  -26.3111  -12.5191   22.0222 N   0  0  0  0  0  0  0  0  0  0  0  0
  -17.9776  -25.4182   20.8916 N   0  0  0  0  0  0  0  0  0  0  0  0
  -23.7331  -20.8946   22.2344 N   0  0  0  0  0  0  0  0  0  0  0  0
  -27.8126  -27.8659   20.1421 N   0  0  0  0  0  0  0  0  0  0  0  0
  -25.3873  -33.0633   23.8253 N   0  0  0  0  0  0  0  0  0  0  0  0
  -18.1707  -23.0883   22.9028 N   0  3  0  0  0  0  0  0  0  0  0  0
  -19.9266  -24.2270   21.6630 N   0  3  0  0  0  0  0  0  0  0  0  0
  -22.7228  -35.3186   22.8861 N   0  3  0  0  0  0  0  0  0  0  0  0
  -24.3839  -13.4638   22.8296 O   0  0  0  0  0  0  0  0  0  0  0  0
  -26.9145  -28.0898   22.2788 O   0  0  0  0  0  0  0  0  0  0  0  0
  -27.4822  -31.8142   22.3221 O   0  0  0  0  0  0  0  0  0  0  0  0
  -23.0954  -32.7170   23.8908 O   0  0  0  0  0  0  0  0  0  0  0  0
  -23.6657  -22.3947   20.4661 O   0  0  0  0  0  0  0  0  0  0  0  0
  -30.9950  -11.6973   19.1203 O   0  0  0  0  0  0  0  0  0  0  0  0
  -20.5354  -27.1777   20.8718 O   0  0  0  0  0  0  0  0  0  1  0  0
  -30.0320   -6.3278   18.3177 F   0  0  0  0  0  0  0  0  0  0  0  0
  -23.3323  -19.8906   24.8033 F   0  0  0  0  0  0  0  0  0  0  0  0
  -31.6192  -10.4887   16.7136 F   0  0  0  0  0  0  0  0  0  0  0  0
  1  2  1  0  0  0  0
  1  6  2  0  0  0  0
  2  7  2  0  0  0  0
  3  9  2  0  0  0  0
  3 18  1  0  0  0  0
  4 10  1  0  0  0  0
  4 18  2  0  0  0  0
  5 13  2  0  0  0  0
  5 19  1  0  0  0  0
  6 21  1  0  0  0  0
  7 23  1  0  0  0  0
  8 11  2  0  0  0  0
  8 22  1  0  0  0  0
  9 26  1  0  0  0  0
 10 26  2  0  0  0  0
 11 27  1  0  0  0  0
 12 14  2  0  0  0  0
 12 28  1  0  0  0  0
 13 30  1  0  0  0  0
 14 29  1  0  0  0  0
 15 19  2  0  0  0  0
 15 25  1  0  0  0  0
 16 24  1  0  0  0  0
 16 27  2  0  0  0  0
 17 29  2  0  0  0  0
 17 31  1  0  0  0  0
 18 32  1  0  0  0  0
 19 35  1  0  0  0  0
 20 32  1  0  0  0  0
 20 33  2  0  0  0  0
 20 34  1  0  0  0  0
 21 23  2  0  0  0  0
 21 41  1  0  0  0  0
 22 24  2  0  0  0  0
 22 42  1  0  0  0  0
 23 50  1  0  0  0  0
 24 43  1  0  0  0  0
 25 30  2  0  0  0  0
 25 69  1  0  0  0  0
 26 80  1  0  0  0  0
 27 81  1  0  0  0  0
 28 31  2  0  0  0  0
 28 80  1  0  0  0  0
 29 82  1  0  0  0  0
 30 83  1  0  0  0  0
 31 84  1  0  0  0  0
 32 62  2  0  0  0  0
 33 63  1  0  0  0  0
 33 66  1  0  0  0  0
 34 67  1  0  0  0  0
 34 75  2  0  0  0  0
 35 72  2  0  0  0  0
 35 73  1  0  0  0  0
 36 51  1  0  0  0  0
 36 70  1  0  0  0  0
 36 76  2  0  0  0  0
 37 59  1  0  0  0  0
 37 64  1  0  0  0  0
 37 77  2  0  0  0  0
 38 58  1  0  0  0  0
 38 68  1  0  0  0  0
 38 73  2  0  0  0  0
 39 60  1  0  0  0  0
 39 71  1  0  0  0  0
 39 78  2  0  0  0  0
 40 65  1  0  0  0  0
 40 69  1  0  0  0  0
 40 79  2  0  0  0  0
 41 44  1  0  0  0  0
 42 51  1  0  0  0  0
 43 64  1  0  0  0  0
 44 46  1  0  0  0  0
 45 47  1  0  0  0  0
 45 48  1  0  0  0  0
 46 50  1  0  0  0  0
 47 52  1  0  0  0  0
 48 65  1  0  0  0  0
 49 52  1  0  0  0  0
 49 65  1  0  0  0  0
 50 70  1  0  0  0  0
 51 64  1  0  0  0  0
 52 63  1  0  0  0  0
 53 60  1  0  0  0  0
 54 61  1  0  0  0  0
 55 61  1  0  0  0  0
 56 61  1  0  0  0  0
 57 74  1  0  0  0  0
 58 81  1  0  0  0  0
 59 61  1  0  0  0  0
 59 71  1  0  0  0  0
 60 74  1  0  0  0  0
 62 63  1  0  0  0  0
M  CHG  3  72   1  73   1  74   1
M  ISO  4  40 100  58 101  69 100  81 101
M  END
> <Batch ID>
0068

> <Smiles>
CNC(C)C(=O)NC(C(=O)N1Cc2cc([101O:1][101CH2:1]C(=N)NC(=N)c3ccc(F)c([100NH:0][100C:0](=O)N4CCCC(n5nc(-c6ccc(Oc7ccc(F)cc7F)cc6)c(C(N)=O)c5N)C4)c3)ccc2CC1C(=O)NC1CCCc2ccccc21)C(C)(C)C

> <Shape>
0.253

> <Color>
0.061

> <Negative vol penalty>
0.000

$$$$

  -OEChem-04042323273D

 91100  0     1  0  0  0  0  0999 V2000
  -19.8046  -35.1196   17.5945 C   0  0  0  0  0  0  0  0  0  0  0  0
  -20.3749  -33.9273   17.1601 C   0  0  0  0  0  0  0  0  0  0  0  0
  -24.0233  -10.2198   22.2649 C   0  0  0  0  0  0  0  0  0  0  0  0
  -24.4708  -11.6691   24.1454 C   0  0  0  0  0  0  0  0  0  0  0  0
  -20.4406  -35.8782   18.5763 C   0  0  0  0  0  0  0  0  0  0  0  0
  -21.5822  -33.4934   17.7066 C   0  0  0  0  0  0  0  0  0  0  0  0
  -25.0979  -27.4917   19.4200 C   0  0  0  0  0  0  0  0  0  0  0  0
  -31.1591  -20.6449   20.6941 C   0  0  0  0  0  0  0  0  0  0  0  0
  -30.8778  -19.3001   20.4529 C   0  0  0  0  0  0  0  0  0  0  0  0
  -23.5324   -9.2447   23.1332 C   0  0  0  0  0  0  0  0  0  0  0  0
  -23.9799  -10.6941   25.0137 C   0  0  0  0  0  0  0  0  0  0  0  0
  -26.3282  -26.8685   19.2157 C   0  0  0  0  0  0  0  0  0  0  0  0
  -20.6815   -8.6451   24.8495 C   0  0  0  0  0  0  0  0  0  0  0  0
  -19.4892   -8.0095   24.5030 C   0  0  0  0  0  0  0  0  0  0  0  0
  -27.2966  -28.2213   20.9626 C   0  0  0  0  0  0  0  0  0  0  0  0
  -28.7927  -21.1269   20.7658 C   0  0  0  0  0  0  0  0  0  0  0  0
  -20.6312   -5.8806   24.4785 C   0  0  0  0  0  0  0  0  0  0  0  0
  -24.4926  -11.4319   22.7710 C   0  0  0  0  0  0  0  0  0  0  0  0
  -24.2705  -13.4706   21.2537 C   0  0  0  0  0  0  0  0  0  0  0  0
  -21.6514  -35.4485   19.1420 C   0  0  0  0  0  0  0  0  0  0  0  0
  -24.9601  -28.4937   20.3913 C   0  0  0  0  0  0  0  0  0  0  0  0
  -22.2357  -34.2476   18.6960 C   0  0  0  0  0  0  0  0  0  0  0  0
  -26.0628  -28.8538   21.1790 C   0  0  0  0  0  0  0  0  0  0  0  0
  -30.1165  -21.5583   20.8506 C   0  0  0  0  0  0  0  0  0  0  0  0
  -29.5541  -18.8688   20.3681 C   0  0  0  0  0  0  0  0  0  0  0  0
  -28.5115  -19.7822   20.5245 C   0  0  0  0  0  0  0  0  0  0  0  0
  -23.5107   -9.4819   24.5076 C   0  0  0  0  0  0  0  0  0  0  0  0
  -27.4285  -27.2353   19.9851 C   0  0  0  0  0  0  0  0  0  0  0  0
  -21.8487   -7.8984   25.0104 C   0  0  0  0  0  0  0  0  0  0  0  0
  -19.4640   -6.6272   24.3175 C   0  0  0  0  0  0  0  0  0  0  0  0
  -21.8235   -6.5162   24.8249 C   0  0  0  0  0  0  0  0  0  0  0  0
  -25.0003  -12.4393   21.8746 C   0  0  0  0  0  0  0  0  0  0  0  0
  -25.2028  -14.1506   20.5089 C   0  0  0  0  0  0  0  0  0  0  0  0
  -31.5316  -23.4512   21.7706 C   0  0  0  0  0  0  0  0  0  0  0  0
  -23.5813  -19.9198   20.5121 C   0  0  0  0  0  0  0  0  0  0  0  0
  -24.7857  -19.3474   20.4193 C   0  0  0  0  0  0  0  0  0  0  0  0
  -22.8746  -13.7858   21.3425 C   0  0  0  0  0  0  0  0  0  0  0  0
  -26.0265  -20.1610   20.5733 C   0  0  0  0  0  0  0  0  0  0  0  0
  -24.1904  -31.5773   20.3395 C   0  0  0  0  0  0  0  0  0  0  0  0
  -24.2828  -31.2543   23.5659 C   0  0  0  0  0  0  0  0  0  0  0  0
  -25.4684  -29.5494   26.2741 C   0  0  0  0  0  0  0  0  0  0  0  0
  -30.2290  -16.4790   19.9439 C   0  0  0  0  0  0  0  0  0  0  0  0
  -22.3257  -36.3261   20.1667 C   0  0  0  0  0  0  0  0  0  0  0  0
  -23.6197  -29.1375   20.6176 C   0  0  0  0  0  0  0  0  0  0  0  0
  -25.9625  -29.9095   22.2486 C   0  0  0  0  0  0  0  0  0  0  0  0
  -23.4124  -35.6082   20.9629 C   0  0  0  0  0  0  0  0  0  0  0  0
  -29.9889  -12.9761   19.3533 C   0  0  0  0  0  0  0  0  0  0  0  0
  -24.3204  -34.8130   20.0302 C   0  0  0  0  0  0  0  0  0  0  0  0
  -28.6096  -12.6090   19.9055 C   0  0  0  0  0  0  0  0  0  0  0  0
  -30.6724  -14.0475   20.2009 C   0  0  0  0  0  0  0  0  0  0  0  0
  -29.4944  -23.9929   20.7004 C   0  0  0  0  0  0  0  0  0  0  0  0
  -28.4948  -14.8908   20.9859 C   0  0  0  0  0  0  0  0  0  0  0  0
  -23.5316  -33.7312   19.2824 C   0  0  1  0  0  0  0  0  0  0  0  0
  -23.7191  -30.5068   21.2827 C   0  0  1  0  0  0  0  0  0  0  0  0
  -30.3402  -25.2583   20.7708 C   0  0  2  0  0  0  0  0  0  0  0  0
  -27.7401  -13.8619   20.1283 C   0  0  2  0  0  0  0  0  0  0  0  0
  -31.3272  -24.9617   21.9175 C   0  0  0  0  0  0  0  0  0  0  0  0
  -30.7623  -25.2306   23.3194 C   0  0  0  0  0  0  0  0  0  0  0  0
  -32.6474  -25.7125   21.7346 C   0  0  0  0  0  0  0  0  0  0  0  0
  -25.4003  -29.5437   28.7827 C   0  0  0  0  0  0  0  0  0  0  0  0
  -26.2168  -33.6137   23.6214 C   0  0  0  0  0  0  0  0  0  0  0  0
  -26.8355  -32.9618   25.9581 C   0  0  0  0  0  0  0  0  0  0  0  0
  -24.4921  -33.6358   25.4322 C   0  0  0  0  0  0  0  0  0  0  0  0
  -24.2443  -26.8559   26.3504 C   0  0  0  0  0  0  0  0  0  0  0  0
  -29.4946  -26.5155   20.9174 C   0  0  0  0  0  0  0  0  0  1  0  0
  -25.3492  -31.3986   24.6247 C   0  0  1  0  0  0  0  0  0  0  0  0
  -24.7695  -29.0063   27.5075 C   0  0  2  0  0  0  0  0  0  0  0  0
  -25.7261  -32.8839   24.8877 C   0  0  0  0  0  0  0  0  0  0  0  0
  -26.2963  -12.4584   21.5521 N   0  0  0  0  0  0  0  0  0  0  0  0
  -26.3882  -13.5100   20.7203 N   0  0  0  0  0  0  0  0  0  0  0  0
  -30.4049  -22.9348   21.0973 N   0  0  0  0  0  0  0  0  0  0  0  0
  -24.6322  -30.5142   22.4275 N   0  0  0  0  0  0  0  0  0  0  0  0
  -29.7914  -15.2058   20.3659 N   0  0  0  0  0  0  0  0  0  0  0  0
  -25.1161  -15.2280   19.7001 N   0  0  0  0  0  0  0  0  0  0  0  0
  -22.0590  -12.9846   22.1531 N   0  0  0  0  0  0  0  0  0  0  0  0
  -27.1768  -19.3741   20.4419 N   0  0  0  0  0  0  0  0  0  0  0  0
  -29.2936  -17.4981   20.1211 N   0  0  0  0  0  0  0  0  0  0  0  0
  -23.2802  -32.5994   20.1485 N   0  0  0  0  0  0  0  0  0  0  0  0
  -24.8555  -30.6901   25.8006 N   0  0  0  0  0  0  0  0  0  0  0  0
  -24.8489  -27.5184   27.5348 N   0  3  0  0  0  0  0  0  0  0  0  0
  -32.4959  -22.8605   22.2376 O   0  0  0  0  0  0  0  0  0  0  0  0
  -22.3626  -14.7394   20.7084 O   0  0  0  0  0  0  0  0  0  0  0  0
  -25.9735  -21.3663   20.7877 O   0  0  0  0  0  0  0  0  0  0  0  0
  -25.2984  -31.4837   19.8245 O   0  0  0  0  0  0  0  0  0  0  0  0
  -23.1782  -31.7730   23.7456 O   0  0  0  0  0  0  0  0  0  0  0  0
  -26.4611  -29.0172   25.7824 O   0  0  0  0  0  0  0  0  0  0  0  0
  -31.3404  -16.6478   19.4359 O   0  0  0  0  0  0  0  0  0  0  0  0
  -23.0315   -8.5308   25.3551 O   0  0  0  0  0  0  0  0  0  0  0  0
  -28.6307  -26.6291   19.7873 O   0  0  0  0  0  0  0  0  0  1  0  0
  -18.3187   -6.0168   23.9863 F   0  0  0  0  0  0  0  0  0  0  0  0
  -22.9414   -5.7934   24.9792 F   0  0  0  0  0  0  0  0  0  0  0  0
  1  2  1  0  0  0  0
  1  5  2  0  0  0  0
  2  6  2  0  0  0  0
  3 10  2  0  0  0  0
  3 18  1  0  0  0  0
  4 11  1  0  0  0  0
  4 18  2  0  0  0  0
  5 20  1  0  0  0  0
  6 22  1  0  0  0  0
  7 12  2  0  0  0  0
  7 21  1  0  0  0  0
  8  9  2  0  0  0  0
  8 24  1  0  0  0  0
  9 25  1  0  0  0  0
 10 27  1  0  0  0  0
 11 27  2  0  0  0  0
 12 28  1  0  0  0  0
 13 14  2  0  0  0  0
 13 29  1  0  0  0  0
 14 30  1  0  0  0  0
 15 23  1  0  0  0  0
 15 28  2  0  0  0  0
 16 24  2  0  0  0  0
 16 26  1  0  0  0  0
 17 30  2  0  0  0  0
 17 31  1  0  0  0  0
 18 32  1  0  0  0  0
 19 32  1  0  0  0  0
 19 33  2  0  0  0  0
 19 37  1  0  0  0  0
 20 22  2  0  0  0  0
 20 43  1  0  0  0  0
 21 23  2  0  0  0  0
 21 44  1  0  0  0  0
 22 53  1  0  0  0  0
 23 45  1  0  0  0  0
 24 71  1  0  0  0  0
 25 26  2  0  0  0  0
 25 77  1  0  0  0  0
 26 76  1  0  0  0  0
 27 88  1  0  0  0  0
 28 89  1  0  0  0  0
 29 31  2  0  0  0  0
 29 88  1  0  0  0  0
 30 90  1  0  0  0  0
 31 91  1  0  0  0  0
 32 69  2  0  0  0  0
 33 70  1  0  0  0  0
 33 74  1  0  0  0  0
 34 57  1  0  0  0  0
 34 71  1  0  0  0  0
 34 81  2  0  0  0  0
 35 36  2  0  0  0  0
 36 38  1  0  0  0  0
 37 75  1  0  0  0  0
 37 82  2  0  0  0  0
 38 76  1  0  0  0  0
 38 83  2  0  0  0  0
 39 54  1  0  0  0  0
 39 78  1  0  0  0  0
 39 84  2  0  0  0  0
 40 66  1  0  0  0  0
 40 72  1  0  0  0  0
 40 85  2  0  0  0  0
 41 67  1  0  0  0  0
 41 79  1  0  0  0  0
 41 86  2  0  0  0  0
 42 73  1  0  0  0  0
 42 77  1  0  0  0  0
 42 87  2  0  0  0  0
 43 46  1  0  0  0  0
 44 54  1  0  0  0  0
 45 72  1  0  0  0  0
 46 48  1  0  0  0  0
 47 49  1  0  0  0  0
 47 50  1  0  0  0  0
 48 53  1  0  0  0  0
 49 56  1  0  0  0  0
 50 73  1  0  0  0  0
 51 55  1  0  0  0  0
 51 71  1  0  0  0  0
 52 56  1  0  0  0  0
 52 73  1  0  0  0  0
 53 78  1  0  0  0  0
 54 72  1  0  0  0  0
 55 57  1  0  0  0  0
 55 65  1  0  0  0  0
 56 70  1  0  0  0  0
 57 58  1  0  0  0  0
 57 59  1  0  0  0  0
 60 67  1  0  0  0  0
 61 68  1  0  0  0  0
 62 68  1  0  0  0  0
 63 68  1  0  0  0  0
 64 80  1  0  0  0  0
 65 89  1  0  0  0  0
 66 68  1  0  0  0  0
 66 79  1  0  0  0  0
 67 80  1  0  0  0  0
 69 70  1  0  0  0  0
M  CHG  1  80   1
M  ISO  4  42 100  65 101  77 100  89 101
M  END
> <Batch ID>
0068

> <Smiles>
C=CC(=O)Nc1cc(N2CC([101CH2:1][101O:1]c3ccc4c(c3)CN(C(=O)C(NC(=O)C(C)NC)C(C)(C)C)C(C(=O)NC3CCCc5ccccc53)C4)C(C)(C)C2=O)ccc1[100NH:0][100C:0](=O)N1CCCC(n2nc(-c3ccc(Oc4ccc(F)cc4F)cc3)c(C(N)=O)c2N)C1

> <Shape>
0.291

> <Color>
0.136

> <Negative vol penalty>
0.000

$$$$

  -OEChem-04042323273D

 86 95  0     1  0  0  0  0  0999 V2000
  -16.6555  -28.7530   23.4153 C   0  0  0  0  0  0  0  0  0  0  0  0
  -17.5367  -28.3313   22.4248 C   0  0  0  0  0  0  0  0  0  0  0  0
  -22.5909  -13.7904   21.8671 C   0  0  0  0  0  0  0  0  0  0  0  0
  -22.4741  -14.2850   19.5052 C   0  0  0  0  0  0  0  0  0  0  0  0
  -16.9717  -29.8588   24.2033 C   0  0  0  0  0  0  0  0  0  0  0  0
  -18.7343  -29.0160   22.2211 C   0  0  0  0  0  0  0  0  0  0  0  0
  -24.1090  -26.6117   20.5367 C   0  0  0  0  0  0  0  0  0  0  0  0
  -21.2012  -13.6799   21.9127 C   0  0  0  0  0  0  0  0  0  0  0  0
  -21.0844  -14.1745   19.5507 C   0  0  0  0  0  0  0  0  0  0  0  0
  -24.7506  -26.5214   19.3022 C   0  0  0  0  0  0  0  0  0  0  0  0
  -18.8563  -11.3868   21.0901 C   0  0  0  0  0  0  0  0  0  0  0  0
  -18.3145  -10.3035   21.7818 C   0  0  0  0  0  0  0  0  0  0  0  0
  -26.0096  -28.5135   19.8176 C   0  0  0  0  0  0  0  0  0  0  0  0
  -27.7120  -21.9005   15.1424 C   0  0  0  0  0  0  0  0  0  0  0  0
  -27.4865  -19.6619   16.0225 C   0  0  0  0  0  0  0  0  0  0  0  0
  -28.3393  -21.4322   17.4281 C   0  0  0  0  0  0  0  0  0  0  0  0
  -17.1673  -11.8254   23.2667 C   0  0  0  0  0  0  0  0  0  0  0  0
  -23.2274  -14.0930   20.6634 C   0  0  0  0  0  0  0  0  0  0  0  0
  -25.5896  -13.1808   20.3547 C   0  0  0  0  0  0  0  0  0  0  0  0
  -18.1782  -30.5516   24.0156 C   0  0  0  0  0  0  0  0  0  0  0  0
  -24.4056  -27.6614   21.4179 C   0  0  0  0  0  0  0  0  0  0  0  0
  -19.0663  -30.1330   23.0065 C   0  0  0  0  0  0  0  0  0  0  0  0
  -25.3723  -28.6134   21.0638 C   0  0  0  0  0  0  0  0  0  0  0  0
  -27.3526  -20.5642   14.9672 C   0  0  0  0  0  0  0  0  0  0  0  0
  -28.2054  -22.3345   16.3728 C   0  0  0  0  0  0  0  0  0  0  0  0
  -27.9798  -20.0959   17.2529 C   0  0  0  0  0  0  0  0  0  0  0  0
  -20.4479  -13.8719   20.7545 C   0  0  0  0  0  0  0  0  0  0  0  0
  -25.6989  -27.4740   18.9413 C   0  0  0  0  0  0  0  0  0  0  0  0
  -18.5537  -12.6895   21.4868 C   0  0  0  0  0  0  0  0  0  0  0  0
  -17.4700  -10.5228   22.8701 C   0  0  0  0  0  0  0  0  0  0  0  0
  -17.7092  -12.9087   22.5751 C   0  0  0  0  0  0  0  0  0  0  0  0
  -24.6628  -14.2078   20.6158 C   0  0  0  0  0  0  0  0  0  0  0  0
  -26.8146  -13.7984   20.4226 C   0  0  0  0  0  0  0  0  0  0  0  0
  -29.8206  -25.5488   17.6205 C   0  0  0  0  0  0  0  0  0  0  0  0
  -28.9651  -26.4527   17.1369 C   0  0  0  0  0  0  0  0  0  0  0  0
  -29.5936  -24.0874   17.4489 C   0  0  0  0  0  0  0  0  0  0  0  0
  -25.3634  -11.7928   20.0757 C   0  0  0  0  0  0  0  0  0  0  0  0
  -22.7474  -30.0530   22.6965 C   0  0  0  0  0  0  0  0  0  0  0  0
  -25.4867  -30.5454   24.3627 C   0  0  0  0  0  0  0  0  0  0  0  0
  -28.8709  -30.1498   24.5562 C   0  0  0  0  0  0  0  0  0  0  0  0
  -28.5900  -19.4456   19.6090 C   0  0  0  0  0  0  0  0  0  0  0  0
  -18.4548  -31.7699   24.8605 C   0  0  0  0  0  0  0  0  0  0  0  0
  -23.7242  -27.7296   22.7571 C   0  0  0  0  0  0  0  0  0  0  0  0
  -25.7414  -29.7484   21.9825 C   0  0  0  0  0  0  0  0  0  0  0  0
  -19.9152  -32.2132   24.8305 C   0  0  0  0  0  0  0  0  0  0  0  0
  -29.0446  -17.4713   22.5370 C   0  0  0  0  0  0  0  0  0  0  0  0
  -20.4375  -32.2336   23.3975 C   0  0  0  0  0  0  0  0  0  0  0  0
  -28.0612  -16.3137   22.3499 C   0  0  0  0  0  0  0  0  0  0  0  0
  -28.4805  -18.7866   22.0025 C   0  0  0  0  0  0  0  0  0  0  0  0
  -27.9944  -24.7206   15.6493 C   0  0  0  0  0  0  0  0  0  0  0  0
  -27.0188  -17.5811   20.4279 C   0  0  0  0  0  0  0  0  0  0  0  0
  -20.3864  -30.8346   22.7717 C   0  0  1  0  0  0  0  0  0  0  0  0
  -27.7684  -26.0778   16.3236 C   0  0  1  0  0  0  0  0  0  0  0  0
  -23.7307  -29.1308   23.3603 C   0  0  1  0  0  0  0  0  0  0  0  0
  -27.5687  -16.2225   20.8923 C   0  0  2  0  0  0  0  0  0  0  0  0
  -26.8263  -20.1003   13.6509 C   0  0  0  0  0  0  0  0  0  0  0  0
  -30.8371  -30.6916   26.0184 C   0  0  0  0  0  0  0  0  0  0  0  0
  -25.4136  -33.4352   23.3862 C   0  0  0  0  0  0  0  0  0  0  0  0
  -27.8154  -33.6502   24.0596 C   0  0  0  0  0  0  0  0  0  0  0  0
  -26.0782  -33.1599   25.7814 C   0  0  0  0  0  0  0  0  0  0  0  0
  -29.5021  -27.2876   24.9663 C   0  0  0  0  0  0  0  0  0  0  0  0
  -26.5092  -26.0830   17.1908 C   0  0  0  0  0  0  0  0  0  1  0  0
  -26.7421  -31.3541   24.1412 C   0  0  1  0  0  0  0  0  0  0  0  0
  -29.7657  -29.6658   25.6830 C   0  0  2  0  0  0  0  0  0  0  0  0
  -26.5042  -32.8797   24.3238 C   0  0  0  0  0  0  0  0  0  0  0  0
  -25.2489  -15.3882   20.8334 N   0  0  0  0  0  0  0  0  0  0  0  0
  -26.5571  -15.1067   20.7094 N   0  0  0  0  0  0  0  0  0  0  0  0
  -28.5771  -23.7165   16.5533 N   0  0  0  0  0  0  0  0  0  0  0  0
  -25.0430  -29.7754   23.2783 N   0  0  0  0  0  0  0  0  0  0  0  0
  -28.0381  -18.6254   20.6157 N   0  0  0  0  0  0  0  0  0  0  0  0
  -28.0761  -13.3444   20.2644 N   0  0  0  0  0  0  0  0  0  0  0  0
  -24.0429  -11.3243   20.0436 N   0  0  0  0  0  0  0  0  0  0  0  0
  -28.1171  -19.1791   18.3245 N   0  0  0  0  0  0  0  0  0  0  0  0
  -21.4838  -30.0243   23.2550 N   0  0  0  0  0  0  0  0  0  0  0  0
  -27.7506  -30.7954   25.0352 N   0  0  0  0  0  0  0  0  0  0  0  0
  -30.4380  -28.3921   25.2998 N   0  3  0  0  0  0  0  0  0  0  0  0
  -30.3282  -23.3279   18.0805 O   0  0  0  0  0  0  0  0  0  0  0  0
  -26.3053  -10.9883   19.8773 O   0  0  0  0  0  0  0  0  0  0  0  0
  -23.1088  -30.7407   21.7489 O   0  0  0  0  0  0  0  0  0  0  0  0
  -24.9247  -30.5895   25.4599 O   0  0  0  0  0  0  0  0  0  0  0  0
  -29.1408  -29.9762   23.3699 O   0  0  0  0  0  0  0  0  0  0  0  0
  -29.4410  -20.3017   19.8635 O   0  0  0  0  0  0  0  0  0  0  0  0
  -19.0918  -13.7639   20.7986 O   0  0  0  0  0  0  0  0  0  0  0  0
  -26.3261  -27.3887   17.7366 O   0  0  0  0  0  0  0  0  0  1  0  0
  -16.9486   -9.4823   23.5333 F   0  0  0  0  0  0  0  0  0  0  0  0
  -17.4139  -14.1579   22.9601 F   0  0  0  0  0  0  0  0  0  0  0  0
  1  2  1  0  0  0  0
  1  5  2  0  0  0  0
  2  6  2  0  0  0  0
  3  8  2  0  0  0  0
  3 18  1  0  0  0  0
  4  9  1  0  0  0  0
  4 18  2  0  0  0  0
  5 20  1  0  0  0  0
  6 22  1  0  0  0  0
  7 10  2  0  0  0  0
  7 21  1  0  0  0  0
  8 27  1  0  0  0  0
  9 27  2  0  0  0  0
 10 28  1  0  0  0  0
 11 12  2  0  0  0  0
 11 29  1  0  0  0  0
 12 30  1  0  0  0  0
 13 23  1  0  0  0  0
 13 28  2  0  0  0  0
 14 24  2  0  0  0  0
 14 25  1  0  0  0  0
 15 24  1  0  0  0  0
 15 26  2  0  0  0  0
 16 25  2  0  0  0  0
 16 26  1  0  0  0  0
 17 30  2  0  0  0  0
 17 31  1  0  0  0  0
 18 32  1  0  0  0  0
 19 32  1  0  0  0  0
 19 33  2  0  0  0  0
 19 37  1  0  0  0  0
 20 22  2  0  0  0  0
 20 42  1  0  0  0  0
 21 23  2  0  0  0  0
 21 43  1  0  0  0  0
 22 52  1  0  0  0  0
 23 44  1  0  0  0  0
 24 56  1  0  0  0  0
 25 68  1  0  0  0  0
 26 73  1  0  0  0  0
 27 83  1  0  0  0  0
 28 84  1  0  0  0  0
 29 31  2  0  0  0  0
 29 83  1  0  0  0  0
 30 85  1  0  0  0  0
 31 86  1  0  0  0  0
 32 66  2  0  0  0  0
 33 67  1  0  0  0  0
 33 71  1  0  0  0  0
 34 35  2  0  0  0  0
 34 36  1  0  0  0  0
 35 53  1  0  0  0  0
 36 68  1  0  0  0  0
 36 77  2  0  0  0  0
 37 72  1  0  0  0  0
 37 78  2  0  0  0  0
 38 54  1  0  0  0  0
 38 74  1  0  0  0  0
 38 79  2  0  0  0  0
 39 63  1  0  0  0  0
 39 69  1  0  0  0  0
 39 80  2  0  0  0  0
 40 64  1  0  0  0  0
 40 75  1  0  0  0  0
 40 81  2  0  0  0  0
 41 70  1  0  0  0  0
 41 73  1  0  0  0  0
 41 82  2  0  0  0  0
 42 45  1  0  0  0  0
 43 54  1  0  0  0  0
 44 69  1  0  0  0  0
 45 47  1  0  0  0  0
 46 48  1  0  0  0  0
 46 49  1  0  0  0  0
 47 52  1  0  0  0  0
 48 55  1  0  0  0  0
 49 70  1  0  0  0  0
 50 53  1  0  0  0  0
 50 68  1  0  0  0  0
 51 55  1  0  0  0  0
 51 70  1  0  0  0  0
 52 74  1  0  0  0  0
 53 62  1  0  0  0  0
 54 69  1  0  0  0  0
 55 67  1  0  0  0  0
 57 64  1  0  0  0  0
 58 65  1  0  0  0  0
 59 65  1  0  0  0  0
 60 65  1  0  0  0  0
 61 76  1  0  0  0  0
 62 84  1  0  0  0  0
 63 65  1  0  0  0  0
 63 75  1  0  0  0  0
 64 76  1  0  0  0  0
 66 67  1  0  0  0  0
M  CHG  1  76   1
M  ISO  4  41 100  62 101  73 100  84 101
M  END
> <Batch ID>
0068

> <Smiles>
CNC(C)C(=O)NC(C(=O)N1Cc2cc([101O:1][101CH2:1]C3=CCC(=O)N(c4cc(C)cc([100NH:0][100C:0](=O)N5CCCC(n6nc(-c7ccc(Oc8ccc(F)cc8F)cc7)c(C(N)=O)c6N)C5)c4)C3)ccc2CC1C(=O)NC1CCCc2ccccc21)C(C)(C)C

> <Shape>
0.268

> <Color>
0.071

> <Negative vol penalty>
0.000

$$$$

  -OEChem-04042323273D

 86 94  0     1  0  0  0  0  0999 V2000
  -29.9129  -35.4530   17.9342 C   0  0  0  0  0  0  0  0  0  0  0  0
  -30.1870  -34.1049   18.1413 C   0  0  0  0  0  0  0  0  0  0  0  0
  -24.3291   -9.3598   22.4199 C   0  0  0  0  0  0  0  0  0  0  0  0
  -23.4237  -11.5227   23.0021 C   0  0  0  0  0  0  0  0  0  0  0  0
  -27.6054  -19.6232   22.1748 C   0  0  0  0  0  0  0  0  0  0  0  0
  -28.9735  -36.1030   18.7337 C   0  0  0  0  0  0  0  0  0  0  0  0
  -29.5227  -33.4062   19.1487 C   0  0  0  0  0  0  0  0  0  0  0  0
  -27.7916  -27.5330   19.0294 C   0  0  0  0  0  0  0  0  0  0  0  0
  -27.5135  -18.3952   21.5198 C   0  0  0  0  0  0  0  0  0  0  0  0
  -23.7756   -8.8161   23.5790 C   0  0  0  0  0  0  0  0  0  0  0  0
  -22.8702  -10.9790   24.1612 C   0  0  0  0  0  0  0  0  0  0  0  0
  -28.3640  -26.3755   19.5550 C   0  0  0  0  0  0  0  0  0  0  0  0
  -20.7405   -7.7624   24.6329 C   0  0  0  0  0  0  0  0  0  0  0  0
  -20.0769   -6.5405   24.5230 C   0  0  0  0  0  0  0  0  0  0  0  0
  -26.9474  -26.5647   21.4984 C   0  0  0  0  0  0  0  0  0  0  0  0
  -29.9241  -18.2436   21.4656 C   0  0  0  0  0  0  0  0  0  0  0  0
  -21.6291   -5.5564   26.0913 C   0  0  0  0  0  0  0  0  0  0  0  0
  -24.1532  -10.7131   22.1314 C   0  0  0  0  0  0  0  0  0  0  0  0
  -28.8567  -20.1615   22.4752 C   0  0  0  0  0  0  0  0  0  0  0  0
  -24.1227  -11.3651   19.6653 C   0  0  0  0  0  0  0  0  0  0  0  0
  -28.2903  -35.4095   19.7450 C   0  0  0  0  0  0  0  0  0  0  0  0
  -26.7988  -28.2222   19.7405 C   0  0  0  0  0  0  0  0  0  0  0  0
  -28.5743  -34.0478   19.9633 C   0  0  0  0  0  0  0  0  0  0  0  0
  -26.3621  -27.7292   20.9784 C   0  0  0  0  0  0  0  0  0  0  0  0
  -28.6728  -17.7054   21.1652 C   0  0  0  0  0  0  0  0  0  0  0  0
  -23.0461   -9.6257   24.4497 C   0  0  0  0  0  0  0  0  0  0  0  0
  -27.9440  -25.8928   20.7910 C   0  0  0  0  0  0  0  0  0  0  0  0
  -21.8484   -7.8814   25.4720 C   0  0  0  0  0  0  0  0  0  0  0  0
  -20.5212   -5.4375   25.2521 C   0  0  0  0  0  0  0  0  0  0  0  0
  -30.0161  -19.4717   22.1206 C   0  0  0  0  0  0  0  0  0  0  0  0
  -22.2927   -6.7784   26.2012 C   0  0  0  0  0  0  0  0  0  0  0  0
  -24.7252  -11.2755   20.9345 C   0  0  0  0  0  0  0  0  0  0  0  0
  -25.0692  -11.9742   18.8782 C   0  0  0  0  0  0  0  0  0  0  0  0
  -28.9507  -21.4621   23.1681 C   0  0  0  0  0  0  0  0  0  0  0  0
  -22.8236  -10.9363   19.2364 C   0  0  0  0  0  0  0  0  0  0  0  0
  -26.5469  -31.1342   20.9897 C   0  0  0  0  0  0  0  0  0  0  0  0
  -31.0809  -24.3449   22.6643 C   0  0  0  0  0  0  0  0  0  0  0  0
  -23.4995  -30.1930   21.5814 C   0  0  0  0  0  0  0  0  0  0  0  0
  -21.3025  -27.6273   22.0680 C   0  0  0  0  0  0  0  0  0  0  0  0
  -29.6297  -15.6440   20.0783 C   0  0  0  0  0  0  0  0  0  0  0  0
  -27.3179  -36.1664   20.6147 C   0  0  0  0  0  0  0  0  0  0  0  0
  -26.1723  -29.4544   19.1475 C   0  0  0  0  0  0  0  0  0  0  0  0
  -25.2852  -28.4209   21.7723 C   0  0  0  0  0  0  0  0  0  0  0  0
  -26.3848  -35.2615   21.4152 C   0  0  0  0  0  0  0  0  0  0  0  0
  -29.8107  -12.4868   18.4422 C   0  0  0  0  0  0  0  0  0  0  0  0
  -27.1720  -34.1354   22.0779 C   0  0  0  0  0  0  0  0  0  0  0  0
  -28.4698  -11.8286   18.7751 C   0  0  0  0  0  0  0  0  0  0  0  0
  -30.3446  -13.3100   19.6131 C   0  0  0  0  0  0  0  0  0  0  0  0
  -28.0654  -13.6435   20.4866 C   0  0  0  0  0  0  0  0  0  0  0  0
  -27.8562  -33.2496   21.0298 C   0  0  1  0  0  0  0  0  0  0  0  0
  -25.5330  -30.3623   20.1936 C   0  0  1  0  0  0  0  0  0  0  0  0
  -27.4561  -12.8564   19.3149 C   0  0  2  0  0  0  0  0  0  0  0  0
  -31.8380  -25.2255   23.6259 C   0  0  0  0  0  0  0  0  0  0  0  0
  -18.8860  -27.1712   22.5679 C   0  0  0  0  0  0  0  0  0  0  0  0
  -23.9587  -30.9683   24.4965 C   0  0  0  0  0  0  0  0  0  0  0  0
  -21.9242  -29.6390   25.0979 C   0  0  0  0  0  0  0  0  0  0  0  0
  -21.7204  -31.6125   23.5858 C   0  0  0  0  0  0  0  0  0  0  0  0
  -20.9345  -26.1556   19.5268 C   0  0  0  0  0  0  0  0  0  0  0  0
  -28.5677  -24.6629   22.7286 C   0  0  0  0  0  0  0  0  0  1  0  0
  -29.7484  -23.7987   23.1391 C   0  0  1  0  0  0  0  0  0  0  0  0
  -22.7985  -29.4952   22.7218 C   0  0  1  0  0  0  0  0  0  0  0  0
  -19.9316  -27.3495   21.4781 C   0  0  2  0  0  0  0  0  0  0  0  0
  -22.6221  -30.4166   23.9617 C   0  0  0  0  0  0  0  0  0  0  0  0
  -25.9591  -11.7865   20.9568 N   0  0  0  0  0  0  0  0  0  0  0  0
  -26.1396  -12.2031   19.6919 N   0  0  0  0  0  0  0  0  0  0  0  0
  -24.7079  -29.6254   21.1530 N   0  0  0  0  0  0  0  0  0  0  0  0
  -29.3319  -14.2648   20.0686 N   0  0  0  0  0  0  0  0  0  0  0  0
  -25.0821  -12.3308   17.5762 N   0  0  0  0  0  0  0  0  0  0  0  0
  -28.3941  -21.5729   24.3743 N   0  0  0  0  0  0  0  0  0  0  0  0
  -21.9772  -10.3288   20.1738 N   0  0  0  0  0  0  0  0  0  0  0  0
  -28.5788  -16.4578   20.5001 N   0  0  0  0  0  0  0  0  0  0  0  0
  -26.8985  -32.3468   20.4280 N   0  0  0  0  0  0  0  0  0  0  0  0
  -21.5469  -28.9799   22.1774 N   0  0  0  0  0  0  0  0  0  0  0  0
  -29.5870  -22.4667   22.5529 N   0  3  0  0  0  0  0  0  0  0  0  0
  -19.9650  -26.1099   20.6514 N   0  3  0  0  0  0  0  0  0  0  0  0
  -22.4313  -11.0725   18.0527 O   0  0  0  0  0  0  0  0  0  0  0  0
  -26.9772  -30.6651   22.0369 O   0  0  0  0  0  0  0  0  0  0  0  0
  -31.5386  -24.0961   21.5487 O   0  0  0  0  0  0  0  0  0  0  0  0
  -22.9901  -31.2004   21.0841 O   0  0  0  0  0  0  0  0  0  0  0  0
  -22.0774  -26.7338   22.4021 O   0  0  0  0  0  0  0  0  0  0  0  0
  -30.7264  -16.0736   19.7116 O   0  0  0  0  0  0  0  0  0  0  0  0
  -22.5057   -9.0954   25.5807 O   0  0  0  0  0  0  0  0  0  0  0  0
  -28.5016  -24.7636   21.3067 O   0  0  0  0  0  0  0  0  0  1  0  0
  -19.8830   -4.2645   25.1476 F   0  0  0  0  0  0  0  0  0  0  0  0
  -31.2230  -19.9818   22.4032 F   0  0  0  0  0  0  0  0  0  0  0  0
  -23.3558   -6.8869   27.0099 F   0  0  0  0  0  0  0  0  0  0  0  0
  1  2  1  0  0  0  0
  1  6  2  0  0  0  0
  2  7  2  0  0  0  0
  3 10  2  0  0  0  0
  3 18  1  0  0  0  0
  4 11  1  0  0  0  0
  4 18  2  0  0  0  0
  5  9  2  0  0  0  0
  5 19  1  0  0  0  0
  6 21  1  0  0  0  0
  7 23  1  0  0  0  0
  8 12  2  0  0  0  0
  8 22  1  0  0  0  0
  9 25  1  0  0  0  0
 10 26  1  0  0  0  0
 11 26  2  0  0  0  0
 12 27  1  0  0  0  0
 13 14  2  0  0  0  0
 13 28  1  0  0  0  0
 14 29  1  0  0  0  0
 15 24  1  0  0  0  0
 15 27  2  0  0  0  0
 16 25  2  0  0  0  0
 16 30  1  0  0  0  0
 17 29  2  0  0  0  0
 17 31  1  0  0  0  0
 18 32  1  0  0  0  0
 19 30  2  0  0  0  0
 19 34  1  0  0  0  0
 20 32  1  0  0  0  0
 20 33  2  0  0  0  0
 20 35  1  0  0  0  0
 21 23  2  0  0  0  0
 21 41  1  0  0  0  0
 22 24  2  0  0  0  0
 22 42  1  0  0  0  0
 23 50  1  0  0  0  0
 24 43  1  0  0  0  0
 25 71  1  0  0  0  0
 26 82  1  0  0  0  0
 27 83  1  0  0  0  0
 28 31  2  0  0  0  0
 28 82  1  0  0  0  0
 29 84  1  0  0  0  0
 30 85  1  0  0  0  0
 31 86  1  0  0  0  0
 32 64  2  0  0  0  0
 33 65  1  0  0  0  0
 33 68  1  0  0  0  0
 34 69  1  0  0  0  0
 34 74  2  0  0  0  0
 35 70  1  0  0  0  0
 35 76  2  0  0  0  0
 36 51  1  0  0  0  0
 36 72  1  0  0  0  0
 36 77  2  0  0  0  0
 37 53  1  0  0  0  0
 37 60  1  0  0  0  0
 37 78  2  0  0  0  0
 38 61  1  0  0  0  0
 38 66  1  0  0  0  0
 38 79  2  0  0  0  0
 39 62  1  0  0  0  0
 39 73  1  0  0  0  0
 39 80  2  0  0  0  0
 40 67  1  0  0  0  0
 40 71  1  0  0  0  0
 40 81  2  0  0  0  0
 41 44  1  0  0  0  0
 42 51  1  0  0  0  0
 43 66  1  0  0  0  0
 44 46  1  0  0  0  0
 45 47  1  0  0  0  0
 45 48  1  0  0  0  0
 46 50  1  0  0  0  0
 47 52  1  0  0  0  0
 48 67  1  0  0  0  0
 49 52  1  0  0  0  0
 49 67  1  0  0  0  0
 50 72  1  0  0  0  0
 51 66  1  0  0  0  0
 52 65  1  0  0  0  0
 54 62  1  0  0  0  0
 55 63  1  0  0  0  0
 56 63  1  0  0  0  0
 57 63  1  0  0  0  0
 58 75  1  0  0  0  0
 59 60  1  0  0  0  0
 59 83  1  0  0  0  0
 60 74  1  0  0  0  0
 61 63  1  0  0  0  0
 61 73  1  0  0  0  0
 62 75  1  0  0  0  0
 64 65  1  0  0  0  0
M  CHG  2  74   1  75   1
M  ISO  4  40 100  59 101  71 100  83 101
M  END
> <Batch ID>
0068

> <Smiles>
CNC(C)C(=O)NC(C(=O)N1Cc2cc([101O:1][101CH2:1]C(NC(=N)c3ccc([100NH:0][100C:0](=O)N4CCCC(n5nc(-c6ccc(Oc7ccc(F)cc7F)cc6)c(C(N)=O)c5N)C4)cc3F)C(C)=O)ccc2CC1C(=O)NC1CCCc2ccccc21)C(C)(C)C

> <Shape>
0.255

> <Color>
0.065

> <Negative vol penalty>
0.000

$$$$

  -OEChem-04042323273D

 83 91  0     1  0  0  0  0  0999 V2000
  -27.1762  -32.9994   28.0568 C   0  0  0  0  0  0  0  0  0  0  0  0
  -27.6243  -32.0720   27.1217 C   0  0  0  0  0  0  0  0  0  0  0  0
  -24.6278   -8.7244   21.5672 C   0  0  0  0  0  0  0  0  0  0  0  0
  -23.6869  -10.4152   23.0138 C   0  0  0  0  0  0  0  0  0  0  0  0
  -25.8085  -33.2063   28.2315 C   0  0  0  0  0  0  0  0  0  0  0  0
  -26.7049  -31.3500   26.3615 C   0  0  0  0  0  0  0  0  0  0  0  0
  -27.3582  -29.5236   20.5527 C   0  0  0  0  0  0  0  0  0  0  0  0
  -24.1613   -7.7296   22.4264 C   0  0  0  0  0  0  0  0  0  0  0  0
  -23.2203   -9.4204   23.8731 C   0  0  0  0  0  0  0  0  0  0  0  0
  -27.7381  -28.3062   19.9892 C   0  0  0  0  0  0  0  0  0  0  0  0
  -22.9054   -4.7305   24.0522 C   0  0  0  0  0  0  0  0  0  0  0  0
  -22.2806   -3.6215   23.4818 C   0  0  0  0  0  0  0  0  0  0  0  0
  -25.4155  -27.7110   19.7242 C   0  0  0  0  0  0  0  0  0  0  0  0
  -25.9349  -19.0241   19.0573 C   0  0  0  0  0  0  0  0  0  0  0  0
  -28.0877  -19.6122   19.9829 C   0  0  0  0  0  0  0  0  0  0  0  0
  -20.6051   -5.0655   22.5098 C   0  0  0  0  0  0  0  0  0  0  0  0
  -24.3906  -10.0672   21.8609 C   0  0  0  0  0  0  0  0  0  0  0  0
  -24.1945  -11.6576   19.8760 C   0  0  0  0  0  0  0  0  0  0  0  0
  -24.8720  -32.4934   27.4663 C   0  0  0  0  0  0  0  0  0  0  0  0
  -26.0019  -29.8397   20.7163 C   0  0  0  0  0  0  0  0  0  0  0  0
  -25.3234  -31.5465   26.5272 C   0  0  0  0  0  0  0  0  0  0  0  0
  -25.0210  -28.9341   20.2876 C   0  0  0  0  0  0  0  0  0  0  0  0
  -25.5894  -20.3744   19.0029 C   0  0  0  0  0  0  0  0  0  0  0  0
  -27.1840  -18.6430   19.5474 C   0  0  0  0  0  0  0  0  0  0  0  0
  -26.4931  -21.3436   19.4384 C   0  0  0  0  0  0  0  0  0  0  0  0
  -23.4575   -8.0775   23.5793 C   0  0  0  0  0  0  0  0  0  0  0  0
  -26.7667  -27.3984   19.5776 C   0  0  0  0  0  0  0  0  0  0  0  0
  -22.3800   -6.0070   23.8515 C   0  0  0  0  0  0  0  0  0  0  0  0
  -21.1304   -3.7890   22.7106 C   0  0  0  0  0  0  0  0  0  0  0  0
  -27.7422  -20.9625   19.9284 C   0  0  0  0  0  0  0  0  0  0  0  0
  -21.2299   -6.1745   23.0803 C   0  0  0  0  0  0  0  0  0  0  0  0
  -24.8728  -11.0953   20.9740 C   0  0  0  0  0  0  0  0  0  0  0  0
  -25.0728  -12.5829   19.3671 C   0  0  0  0  0  0  0  0  0  0  0  0
  -22.8874  -11.3693   19.3621 C   0  0  0  0  0  0  0  0  0  0  0  0
  -24.1254  -30.4484   23.2088 C   0  0  0  0  0  0  0  0  0  0  0  0
  -21.9404  -31.1150   20.9058 C   0  0  0  0  0  0  0  0  0  0  0  0
  -27.0222  -23.7941   19.2170 C   0  0  0  0  0  0  0  0  0  0  0  0
  -20.8863  -30.6568   17.6924 C   0  0  0  0  0  0  0  0  0  0  0  0
  -28.7312  -16.7226   20.0616 C   0  0  0  0  0  0  0  0  0  0  0  0
  -23.4029  -32.7171   27.7241 C   0  0  0  0  0  0  0  0  0  0  0  0
  -25.6084  -31.1684   21.3013 C   0  0  0  0  0  0  0  0  0  0  0  0
  -23.5512  -29.2343   20.4226 C   0  0  0  0  0  0  0  0  0  0  0  0
  -22.5015  -32.1821   26.6144 C   0  0  0  0  0  0  0  0  0  0  0  0
  -29.9614  -13.3981   20.3958 C   0  0  0  0  0  0  0  0  0  0  0  0
  -22.9256  -30.7724   26.2150 C   0  0  0  0  0  0  0  0  0  0  0  0
  -28.6914  -12.5489   20.4857 C   0  0  0  0  0  0  0  0  0  0  0  0
  -29.7990  -14.7387   21.1100 C   0  0  0  0  0  0  0  0  0  0  0  0
  -27.3572  -14.6737   20.7894 C   0  0  0  0  0  0  0  0  0  0  0  0
  -24.3575  -30.7618   25.6662 C   0  0  1  0  0  0  0  0  0  0  0  0
  -24.2018  -31.1682   21.8920 C   0  0  1  0  0  0  0  0  0  0  0  0
  -27.4505  -13.3408   20.0289 C   0  0  2  0  0  0  0  0  0  0  0  0
  -24.2439  -20.7535   18.4743 C   0  0  0  0  0  0  0  0  0  0  0  0
  -19.0467  -31.3010   16.1119 C   0  0  0  0  0  0  0  0  0  0  0  0
  -20.0635  -29.1497   22.2933 C   0  0  0  0  0  0  0  0  0  0  0  0
  -18.6747  -29.1134   20.2105 C   0  0  0  0  0  0  0  0  0  0  0  0
  -18.9646  -31.2428   21.4772 C   0  0  0  0  0  0  0  0  0  0  0  0
  -22.7812  -31.9760   15.8410 C   0  0  0  0  0  0  0  0  0  0  0  0
  -26.2547  -25.1031   19.2238 C   0  0  0  0  0  0  0  0  0  1  0  0
  -20.9065  -30.3161   20.1497 C   0  0  1  0  0  0  0  0  0  0  0  0
  -20.4350  -31.6428   16.6301 C   0  0  2  0  0  0  0  0  0  0  0  0
  -19.6800  -29.9487   21.0317 C   0  0  0  0  0  0  0  0  0  0  0  0
  -26.0882  -11.6195   21.1527 N   0  0  0  0  0  0  0  0  0  0  0  0
  -26.1807  -12.5208   20.1601 N   0  0  0  0  0  0  0  0  0  0  0  0
  -23.2169  -30.5438   21.0064 N   0  0  0  0  0  0  0  0  0  0  0  0
  -28.6057  -15.4343   20.6232 N   0  0  0  0  0  0  0  0  0  0  0  0
  -24.9977  -13.4355   18.3231 N   0  0  0  0  0  0  0  0  0  0  0  0
  -22.1178  -10.3901   20.0048 N   0  0  0  0  0  0  0  0  0  0  0  0
  -26.1586  -22.7178   19.3894 N   0  0  0  0  0  0  0  0  0  0  0  0
  -27.5338  -17.2711   19.6035 N   0  0  0  0  0  0  0  0  0  0  0  0
  -24.3803  -31.2510   24.3043 N   0  0  0  0  0  0  0  0  0  0  0  0
  -20.5762  -31.0963   18.9620 N   0  0  0  0  0  0  0  0  0  0  0  0
  -21.3816  -31.6336   15.4792 N   0  3  0  0  0  0  0  0  0  0  0  0
  -22.4224  -11.9509   18.3526 O   0  0  0  0  0  0  0  0  0  0  0  0
  -23.8538  -29.2536   23.2293 O   0  0  0  0  0  0  0  0  0  0  0  0
  -21.6289  -32.2089   21.3833 O   0  0  0  0  0  0  0  0  0  0  0  0
  -28.2401  -23.7642   19.0743 O   0  0  0  0  0  0  0  0  0  0  0  0
  -21.4537  -29.6004   17.4228 O   0  0  0  0  0  0  0  0  0  0  0  0
  -29.8249  -17.2857   19.9673 O   0  0  0  0  0  0  0  0  0  0  0  0
  -23.0019   -7.1071   24.4179 O   0  0  0  0  0  0  0  0  0  0  0  0
  -27.1348  -26.2092   19.0279 O   0  0  0  0  0  0  0  0  0  1  0  0
  -20.5314   -2.7242   22.1616 F   0  0  0  0  0  0  0  0  0  0  0  0
  -28.6191  -21.8849   20.3500 F   0  0  0  0  0  0  0  0  0  0  0  0
  -20.7212   -7.3985   22.8830 F   0  0  0  0  0  0  0  0  0  0  0  0
  1  2  1  0  0  0  0
  1  5  2  0  0  0  0
  2  6  2  0  0  0  0
  3  8  2  0  0  0  0
  3 17  1  0  0  0  0
  4  9  1  0  0  0  0
  4 17  2  0  0  0  0
  5 19  1  0  0  0  0
  6 21  1  0  0  0  0
  7 10  2  0  0  0  0
  7 20  1  0  0  0  0
  8 26  1  0  0  0  0
  9 26  2  0  0  0  0
 10 27  1  0  0  0  0
 11 12  2  0  0  0  0
 11 28  1  0  0  0  0
 12 29  1  0  0  0  0
 13 22  1  0  0  0  0
 13 27  2  0  0  0  0
 14 23  2  0  0  0  0
 14 24  1  0  0  0  0
 15 24  2  0  0  0  0
 15 30  1  0  0  0  0
 16 29  2  0  0  0  0
 16 31  1  0  0  0  0
 17 32  1  0  0  0  0
 18 32  1  0  0  0  0
 18 33  2  0  0  0  0
 18 34  1  0  0  0  0
 19 21  2  0  0  0  0
 19 40  1  0  0  0  0
 20 22  2  0  0  0  0
 20 41  1  0  0  0  0
 21 49  1  0  0  0  0
 22 42  1  0  0  0  0
 23 25  1  0  0  0  0
 23 52  1  0  0  0  0
 24 69  1  0  0  0  0
 25 30  2  0  0  0  0
 25 68  1  0  0  0  0
 26 79  1  0  0  0  0
 27 80  1  0  0  0  0
 28 31  2  0  0  0  0
 28 79  1  0  0  0  0
 29 81  1  0  0  0  0
 30 82  1  0  0  0  0
 31 83  1  0  0  0  0
 32 62  2  0  0  0  0
 33 63  1  0  0  0  0
 33 66  1  0  0  0  0
 34 67  1  0  0  0  0
 34 73  2  0  0  0  0
 35 50  1  0  0  0  0
 35 70  1  0  0  0  0
 35 74  2  0  0  0  0
 36 59  1  0  0  0  0
 36 64  1  0  0  0  0
 36 75  2  0  0  0  0
 37 58  1  0  0  0  0
 37 68  1  0  0  0  0
 37 76  2  0  0  0  0
 38 60  1  0  0  0  0
 38 71  1  0  0  0  0
 38 77  2  0  0  0  0
 39 65  1  0  0  0  0
 39 69  1  0  0  0  0
 39 78  2  0  0  0  0
 40 43  1  0  0  0  0
 41 50  1  0  0  0  0
 42 64  1  0  0  0  0
 43 45  1  0  0  0  0
 44 46  1  0  0  0  0
 44 47  1  0  0  0  0
 45 49  1  0  0  0  0
 46 51  1  0  0  0  0
 47 65  1  0  0  0  0
 48 51  1  0  0  0  0
 48 65  1  0  0  0  0
 49 70  1  0  0  0  0
 50 64  1  0  0  0  0
 51 63  1  0  0  0  0
 53 60  1  0  0  0  0
 54 61  1  0  0  0  0
 55 61  1  0  0  0  0
 56 61  1  0  0  0  0
 57 72  1  0  0  0  0
 58 80  1  0  0  0  0
 59 61  1  0  0  0  0
 59 71  1  0  0  0  0
 60 72  1  0  0  0  0
 62 63  1  0  0  0  0
M  CHG  1  72   1
M  ISO  4  39 100  58 101  69 100  80 101
M  END
> <Batch ID>
0068

> <Smiles>
CNC(C)C(=O)NC(C(=O)N1Cc2cc([101O:1][101CH2:1]C(=O)Nc3c(C)cc([100NH:0][100C:0](=O)N4CCCC(n5nc(-c6ccc(Oc7ccc(F)cc7F)cc6)c(C(N)=O)c5N)C4)cc3F)ccc2CC1C(=O)NC1CCCc2ccccc21)C(C)(C)C

> <Shape>
0.289

> <Color>
0.111

> <Negative vol penalty>
0.000

$$$$

  -OEChem-04042323273D

 85 94  0     1  0  0  0  0  0999 V2000
  -32.1019  -32.4439   18.9203 C   0  0  0  0  0  0  0  0  0  0  0  0
  -31.4431  -31.2565   19.2231 C   0  0  0  0  0  0  0  0  0  0  0  0
  -23.8976   -8.8604   21.3547 C   0  0  0  0  0  0  0  0  0  0  0  0
  -26.1399   -8.2790   22.0409 C   0  0  0  0  0  0  0  0  0  0  0  0
  -31.8232  -33.5997   19.6486 C   0  0  0  0  0  0  0  0  0  0  0  0
  -30.5060  -31.2241   20.2552 C   0  0  0  0  0  0  0  0  0  0  0  0
  -26.2915  -28.7254   18.9748 C   0  0  0  0  0  0  0  0  0  0  0  0
  -24.7279  -19.8790   20.2997 C   0  0  0  0  0  0  0  0  0  0  0  0
  -23.3786   -8.0578   22.3706 C   0  0  0  0  0  0  0  0  0  0  0  0
  -25.6209   -7.4764   23.0568 C   0  0  0  0  0  0  0  0  0  0  0  0
  -26.3472  -27.3324   18.9914 C   0  0  0  0  0  0  0  0  0  0  0  0
  -22.8399   -4.7655   22.9136 C   0  0  0  0  0  0  0  0  0  0  0  0
  -24.0109  -18.6852   20.3797 C   0  0  0  0  0  0  0  0  0  0  0  0
  -21.7785   -3.9196   22.5919 C   0  0  0  0  0  0  0  0  0  0  0  0
  -25.2577  -27.3205   21.1437 C   0  0  0  0  0  0  0  0  0  0  0  0
  -26.7958  -18.6318   20.2245 C   0  0  0  0  0  0  0  0  0  0  0  0
  -20.3965   -5.0292   24.2338 C   0  0  0  0  0  0  0  0  0  0  0  0
  -25.2783   -8.9710   21.1898 C   0  0  0  0  0  0  0  0  0  0  0  0
  -25.5996   -9.6634   18.7557 C   0  0  0  0  0  0  0  0  0  0  0  0
  -30.8752  -33.5837   20.6837 C   0  0  0  0  0  0  0  0  0  0  0  0
  -25.7273  -29.4280   20.0493 C   0  0  0  0  0  0  0  0  0  0  0  0
  -30.2154  -32.3805   20.9989 C   0  0  0  0  0  0  0  0  0  0  0  0
  -25.1937  -28.7223   21.1371 C   0  0  0  0  0  0  0  0  0  0  0  0
  -26.1204  -19.8522   20.2220 C   0  0  0  0  0  0  0  0  0  0  0  0
  -26.0787  -17.4380   20.3046 C   0  0  0  0  0  0  0  0  0  0  0  0
  -24.2402   -7.3658   23.2217 C   0  0  0  0  0  0  0  0  0  0  0  0
  -25.8329  -26.6299   20.0773 C   0  0  0  0  0  0  0  0  0  0  0  0
  -22.6797   -5.7432   23.8955 C   0  0  0  0  0  0  0  0  0  0  0  0
  -20.5568   -4.0515   23.2520 C   0  0  0  0  0  0  0  0  0  0  0  0
  -24.6862  -17.4648   20.3822 C   0  0  0  0  0  0  0  0  0  0  0  0
  -21.4580   -5.8751   24.5556 C   0  0  0  0  0  0  0  0  0  0  0  0
  -25.8150   -9.7994   20.1402 C   0  0  0  0  0  0  0  0  0  0  0  0
  -26.3226  -10.6870   18.1935 C   0  0  0  0  0  0  0  0  0  0  0  0
  -27.2864  -23.3473   20.0481 C   0  0  0  0  0  0  0  0  0  0  0  0
  -28.2515  -21.2082   20.0569 C   0  0  0  0  0  0  0  0  0  0  0  0
  -27.1149  -24.6740   20.0362 C   0  0  0  0  0  0  0  0  0  1  0  0
  -24.8159   -8.6983   18.0416 C   0  0  0  0  0  0  0  0  0  0  0  0
  -26.8068  -31.5481   22.1573 C   0  0  0  0  0  0  0  0  0  0  0  0
  -23.6871  -31.6807   23.0361 C   0  0  0  0  0  0  0  0  0  0  0  0
  -20.9896  -29.3370   23.5337 C   0  0  0  0  0  0  0  0  0  0  0  0
  -28.1451  -15.9988   20.2353 C   0  0  0  0  0  0  0  0  0  0  0  0
  -30.6421  -34.8469   21.4741 C   0  0  0  0  0  0  0  0  0  0  0  0
  -25.6507  -30.9295   20.0040 C   0  0  0  0  0  0  0  0  0  0  0  0
  -24.5592  -29.4286   22.3063 C   0  0  0  0  0  0  0  0  0  0  0  0
  -28.6117  -22.6731   19.9838 C   0  0  0  0  0  0  0  0  0  0  0  0
  -26.1778  -22.3583   20.1338 C   0  0  0  0  0  0  0  0  0  0  0  0
  -29.3623  -34.8175   22.3058 C   0  0  0  0  0  0  0  0  0  0  0  0
  -30.2020  -13.3898   18.9548 C   0  0  0  0  0  0  0  0  0  0  0  0
  -29.2479  -33.4983   23.0629 C   0  0  0  0  0  0  0  0  0  0  0  0
  -29.2889  -12.1619   18.9818 C   0  0  0  0  0  0  0  0  0  0  0  0
  -29.9599  -14.3031   20.1553 C   0  0  0  0  0  0  0  0  0  0  0  0
  -27.6493  -13.4793   20.3830 C   0  0  0  0  0  0  0  0  0  0  0  0
  -29.1742  -32.3112   22.0949 C   0  0  1  0  0  0  0  0  0  0  0  0
  -25.5177  -31.5630   21.3854 C   0  0  1  0  0  0  0  0  0  0  0  0
  -27.8112  -12.5623   19.1596 C   0  0  2  0  0  0  0  0  0  0  0  0
  -18.5055  -29.6477   23.3604 C   0  0  0  0  0  0  0  0  0  0  0  0
  -23.8330  -32.1914   26.0407 C   0  0  0  0  0  0  0  0  0  0  0  0
  -21.6790  -30.9393   26.2876 C   0  0  0  0  0  0  0  0  0  0  0  0
  -21.7530  -33.0363   24.9387 C   0  0  0  0  0  0  0  0  0  0  0  0
  -20.7326  -27.1271   21.5819 C   0  0  0  0  0  0  0  0  0  0  0  0
  -22.8221  -30.9358   24.0239 C   0  0  1  0  0  0  0  0  0  0  0  0
  -19.7632  -29.1631   22.6561 C   0  0  2  0  0  0  0  0  0  0  0  0
  -22.5443  -31.7634   25.3105 C   0  0  0  0  0  0  0  0  0  0  0  0
  -26.6126  -10.8282   20.4393 N   0  0  0  0  0  0  0  0  0  0  0  0
  -26.9048  -11.3479   19.2349 N   0  0  0  0  0  0  0  0  0  0  0  0
  -26.8565  -21.0781   20.1399 N   0  0  0  0  0  0  0  0  0  0  0  0
  -24.5138  -30.8975   22.2182 N   0  0  0  0  0  0  0  0  0  0  0  0
  -28.5393  -14.6442   20.2578 N   0  0  0  0  0  0  0  0  0  0  0  0
  -26.5109  -11.0771   16.9150 N   0  0  0  0  0  0  0  0  0  0  0  0
  -25.4335   -7.5099   17.6285 N   0  0  0  0  0  0  0  0  0  0  0  0
  -26.7670  -16.1995   20.3067 N   0  0  0  0  0  0  0  0  0  0  0  0
  -27.8474  -32.2036   21.5272 N   0  0  0  0  0  0  0  0  0  0  0  0
  -21.6207  -30.5399   23.2971 N   0  0  0  0  0  0  0  0  0  0  0  0
  -19.5796  -27.7274   22.3011 N   0  3  0  0  0  0  0  0  0  0  0  0
  -29.1153  -20.3405   20.0379 O   0  0  0  0  0  0  0  0  0  0  0  0
  -23.6080   -8.8913   17.7634 O   0  0  0  0  0  0  0  0  0  0  0  0
  -26.8535  -30.9850   23.2446 O   0  0  0  0  0  0  0  0  0  0  0  0
  -23.6262  -32.9118   22.9869 O   0  0  0  0  0  0  0  0  0  0  0  0
  -21.3495  -28.4919   24.3504 O   0  0  0  0  0  0  0  0  0  0  0  0
  -28.9676  -16.9123   20.1310 O   0  0  0  0  0  0  0  0  0  0  0  0
  -23.7341   -6.5827   24.2132 O   0  0  0  0  0  0  0  0  0  0  0  0
  -25.8867  -25.2702   20.0963 O   0  0  0  0  0  0  0  0  0  1  0  0
  -19.5372   -3.2401   22.9418 F   0  0  0  0  0  0  0  0  0  0  0  0
  -23.9865  -16.3240   20.4599 F   0  0  0  0  0  0  0  0  0  0  0  0
  -21.2976   -6.8133   25.4989 F   0  0  0  0  0  0  0  0  0  0  0  0
  1  2  1  0  0  0  0
  1  5  2  0  0  0  0
  2  6  2  0  0  0  0
  3  9  2  0  0  0  0
  3 18  1  0  0  0  0
  4 10  1  0  0  0  0
  4 18  2  0  0  0  0
  5 20  1  0  0  0  0
  6 22  1  0  0  0  0
  7 11  2  0  0  0  0
  7 21  1  0  0  0  0
  8 13  2  0  0  0  0
  8 24  1  0  0  0  0
  9 26  1  0  0  0  0
 10 26  2  0  0  0  0
 11 27  1  0  0  0  0
 12 14  2  0  0  0  0
 12 28  1  0  0  0  0
 13 30  1  0  0  0  0
 14 29  1  0  0  0  0
 15 23  1  0  0  0  0
 15 27  2  0  0  0  0
 16 24  2  0  0  0  0
 16 25  1  0  0  0  0
 17 29  2  0  0  0  0
 17 31  1  0  0  0  0
 18 32  1  0  0  0  0
 19 32  1  0  0  0  0
 19 33  2  0  0  0  0
 19 37  1  0  0  0  0
 20 22  2  0  0  0  0
 20 42  1  0  0  0  0
 21 23  2  0  0  0  0
 21 43  1  0  0  0  0
 22 53  1  0  0  0  0
 23 44  1  0  0  0  0
 24 66  1  0  0  0  0
 25 30  2  0  0  0  0
 25 71  1  0  0  0  0
 26 81  1  0  0  0  0
 27 82  1  0  0  0  0
 28 31  2  0  0  0  0
 28 81  1  0  0  0  0
 29 83  1  0  0  0  0
 30 84  1  0  0  0  0
 31 85  1  0  0  0  0
 32 64  2  0  0  0  0
 33 65  1  0  0  0  0
 33 69  1  0  0  0  0
 34 36  2  0  0  0  0
 34 45  1  0  0  0  0
 34 46  1  0  0  0  0
 35 45  1  0  0  0  0
 35 66  1  0  0  0  0
 35 75  2  0  0  0  0
 36 82  1  0  0  0  0
 37 70  1  0  0  0  0
 37 76  2  0  0  0  0
 38 54  1  0  0  0  0
 38 72  1  0  0  0  0
 38 77  2  0  0  0  0
 39 61  1  0  0  0  0
 39 67  1  0  0  0  0
 39 78  2  0  0  0  0
 40 62  1  0  0  0  0
 40 73  1  0  0  0  0
 40 79  2  0  0  0  0
 41 68  1  0  0  0  0
 41 71  1  0  0  0  0
 41 80  2  0  0  0  0
 42 47  1  0  0  0  0
 43 54  1  0  0  0  0
 44 67  1  0  0  0  0
 46 66  1  0  0  0  0
 47 49  1  0  0  0  0
 48 50  1  0  0  0  0
 48 51  1  0  0  0  0
 49 53  1  0  0  0  0
 50 55  1  0  0  0  0
 51 68  1  0  0  0  0
 52 55  1  0  0  0  0
 52 68  1  0  0  0  0
 53 72  1  0  0  0  0
 54 67  1  0  0  0  0
 55 65  1  0  0  0  0
 56 62  1  0  0  0  0
 57 63  1  0  0  0  0
 58 63  1  0  0  0  0
 59 63  1  0  0  0  0
 60 74  1  0  0  0  0
 61 63  1  0  0  0  0
 61 73  1  0  0  0  0
 62 74  1  0  0  0  0
 64 65  1  0  0  0  0
M  CHG  1  74   1
M  ISO  4  36 101  41 100  71 100  82 101
M  END
> <Batch ID>
0068

> <Smiles>
CNC(C)C(=O)NC(C(=O)N1Cc2cc([101O:1][101CH:1]=C3CC(=O)N(c4ccc(F)c([100NH:0][100C:0](=O)N5CCCC(n6nc(-c7ccc(Oc8ccc(F)cc8F)cc7)c(C(N)=O)c6N)C5)c4)C3)ccc2CC1C(=O)NC1CCCc2ccccc21)C(C)(C)C

> <Shape>
0.251

> <Color>
0.098

> <Negative vol penalty>
0.000

$$$$

  -OEChem-04042323273D

 86 94  0     1  0  0  0  0  0999 V2000
  -28.4991  -31.1663   22.2725 C   0  0  0  0  0  0  0  0  0  0  0  0
  -28.8691  -29.9176   21.7832 C   0  0  0  0  0  0  0  0  0  0  0  0
  -23.2857   -9.7149   19.9309 C   0  0  0  0  0  0  0  0  0  0  0  0
  -23.9511   -9.8489   22.2495 C   0  0  0  0  0  0  0  0  0  0  0  0
  -27.1768  -31.5938   22.1604 C   0  0  0  0  0  0  0  0  0  0  0  0
  -27.9166  -29.0953   21.1824 C   0  0  0  0  0  0  0  0  0  0  0  0
  -29.5983  -26.9834   16.8979 C   0  0  0  0  0  0  0  0  0  0  0  0
  -22.6422   -8.5038   20.1855 C   0  0  0  0  0  0  0  0  0  0  0  0
  -23.3076   -8.6378   22.5042 C   0  0  0  0  0  0  0  0  0  0  0  0
  -30.4545  -25.8900   17.0204 C   0  0  0  0  0  0  0  0  0  0  0  0
  -20.1458   -7.5572   23.0097 C   0  0  0  0  0  0  0  0  0  0  0  0
  -19.3504   -7.4754   24.1526 C   0  0  0  0  0  0  0  0  0  0  0  0
  -28.8612  -18.3569   22.3696 C   0  0  0  0  0  0  0  0  0  0  0  0
  -29.7744  -20.4087   21.4792 C   0  0  0  0  0  0  0  0  0  0  0  0
  -28.6050  -24.4015   16.5927 C   0  0  0  0  0  0  0  0  0  0  0  0
  -30.5709  -18.2783   20.6644 C   0  0  0  0  0  0  0  0  0  0  0  0
  -20.7356   -5.6809   24.9882 C   0  0  0  0  0  0  0  0  0  0  0  0
  -23.9402  -10.3874   20.9629 C   0  0  0  0  0  0  0  0  0  0  0  0
  -28.9001  -19.7509   22.3444 C   0  0  0  0  0  0  0  0  0  0  0  0
  -24.0518  -12.9298   20.7848 C   0  0  0  0  0  0  0  0  0  0  0  0
  -26.2097  -30.7803   21.5493 C   0  0  0  0  0  0  0  0  0  0  0  0
  -28.2345  -26.7933   16.6323 C   0  0  0  0  0  0  0  0  0  0  0  0
  -26.5798  -29.5118   21.0632 C   0  0  0  0  0  0  0  0  0  0  0  0
  -27.7341  -25.4942   16.4648 C   0  0  0  0  0  0  0  0  0  0  0  0
  -29.6966  -17.6205   21.5296 C   0  0  0  0  0  0  0  0  0  0  0  0
  -30.6098  -19.6724   20.6392 C   0  0  0  0  0  0  0  0  0  0  0  0
  -22.6532   -7.9653   21.4721 C   0  0  0  0  0  0  0  0  0  0  0  0
  -29.9574  -24.5987   16.8706 C   0  0  0  0  0  0  0  0  0  0  0  0
  -21.2361   -6.7007   22.8559 C   0  0  0  0  0  0  0  0  0  0  0  0
  -19.6453   -6.5373   25.1419 C   0  0  0  0  0  0  0  0  0  0  0  0
  -21.5310   -5.7626   23.8452 C   0  0  0  0  0  0  0  0  0  0  0  0
  -24.6055  -11.6382   20.7003 C   0  0  0  0  0  0  0  0  0  0  0  0
  -25.0835  -13.7688   20.4411 C   0  0  0  0  0  0  0  0  0  0  0  0
  -28.0290  -20.5186   23.2200 C   0  0  0  0  0  0  0  0  0  0  0  0
  -22.7237  -13.3348   21.1421 C   0  0  0  0  0  0  0  0  0  0  0  0
  -25.5348  -27.4652   18.1697 C   0  0  0  0  0  0  0  0  0  0  0  0
  -24.1659  -26.4009   15.4283 C   0  0  0  0  0  0  0  0  0  0  0  0
  -31.2037  -21.6282   19.2115 C   0  0  0  0  0  0  0  0  0  0  0  0
  -24.4243  -24.4883   12.6137 C   0  0  0  0  0  0  0  0  0  0  0  0
  -30.4187  -15.3240   20.7874 C   0  0  0  0  0  0  0  0  0  0  0  0
  -24.7829  -31.2658   21.4935 C   0  0  0  0  0  0  0  0  0  0  0  0
  -27.3292  -27.9844   16.4766 C   0  0  0  0  0  0  0  0  0  0  0  0
  -26.2819  -25.2372   16.1587 C   0  0  0  0  0  0  0  0  0  0  0  0
  -23.9135  -30.4899   20.5074 C   0  0  0  0  0  0  0  0  0  0  0  0
  -29.6257  -12.7595   18.4483 C   0  0  0  0  0  0  0  0  0  0  0  0
  -24.1260  -28.9887   20.6750 C   0  0  0  0  0  0  0  0  0  0  0  0
  -28.2034  -12.3454   18.8326 C   0  0  0  0  0  0  0  0  0  0  0  0
  -30.4679  -13.1020   19.6759 C   0  0  0  0  0  0  0  0  0  0  0  0
  -28.4495  -13.6789   20.9652 C   0  0  0  0  0  0  0  0  0  0  0  0
  -25.5807  -28.6014   20.3828 C   0  0  1  0  0  0  0  0  0  0  0  0
  -25.8593  -27.6527   16.7146 C   0  0  1  0  0  0  0  0  0  0  0  0
  -27.5438  -13.3868   19.7577 C   0  0  2  0  0  0  0  0  0  0  0  0
  -23.1283  -23.7879   10.5821 C   0  0  0  0  0  0  0  0  0  0  0  0
  -22.5218  -24.4841   17.1410 C   0  0  0  0  0  0  0  0  0  0  0  0
  -21.9832  -23.1983   15.0613 C   0  0  0  0  0  0  0  0  0  0  0  0
  -21.2518  -25.5730   15.2819 C   0  0  0  0  0  0  0  0  0  0  0  0
  -32.8147  -19.7045   19.4978 C   0  0  0  0  0  0  0  0  0  0  0  0
  -26.4129  -25.6972   10.7854 C   0  0  0  0  0  0  0  0  0  0  0  0
  -32.3116  -22.3064   18.4051 C   0  0  0  0  0  0  0  0  0  0  0  0
  -31.9106  -23.6735   17.8632 C   0  0  0  0  0  0  0  0  0  1  0  0
  -23.7002  -25.0590   14.9168 C   0  0  1  0  0  0  0  0  0  0  0  0
  -24.1156  -24.7908   11.1584 C   0  0  2  0  0  0  0  0  0  0  0  0
  -22.3913  -24.5830   15.6079 C   0  0  0  0  0  0  0  0  0  0  0  0
  -25.8893  -11.6507   20.3317 N   0  0  0  0  0  0  0  0  0  0  0  0
  -26.1508  -12.9603   20.1814 N   0  0  0  0  0  0  0  0  0  0  0  0
  -25.4355  -26.4340   16.0222 N   0  0  0  0  0  0  0  0  0  0  0  0
  -29.7822  -14.0973   20.5029 N   0  0  0  0  0  0  0  0  0  0  0  0
  -25.1728  -15.1119   20.3386 N   0  0  0  0  0  0  0  0  0  0  0  0
  -28.1068  -21.9068   23.1560 N   0  0  0  0  0  0  0  0  0  0  0  0
  -21.7876  -12.3437   21.4673 N   0  0  0  0  0  0  0  0  0  0  0  0
  -29.6571  -16.2043   21.5552 N   0  0  0  0  0  0  0  0  0  0  0  0
  -25.8174  -28.5662   18.9556 N   0  0  0  0  0  0  0  0  0  0  0  0
  -23.5977  -25.1879   13.4672 N   0  0  0  0  0  0  0  0  0  0  0  0
  -31.5178  -20.3559   19.7401 N   0  0  0  0  0  0  0  0  0  0  0  0
  -25.3626  -24.7439   10.3438 N   0  3  0  0  0  0  0  0  0  0  0  0
  -27.2511  -19.9595   24.0131 O   0  0  0  0  0  0  0  0  0  0  0  0
  -22.3727  -14.5391   21.1562 O   0  0  0  0  0  0  0  0  0  0  0  0
  -25.0616  -26.4011   18.5510 O   0  0  0  0  0  0  0  0  0  0  0  0
  -23.4332  -27.3848   15.2990 O   0  0  0  0  0  0  0  0  0  0  0  0
  -30.1338  -22.2174   19.3840 O   0  0  0  0  0  0  0  0  0  0  0  0
  -25.3076  -23.7065   12.9586 O   0  0  0  0  0  0  0  0  0  0  0  0
  -31.5449  -15.5859   20.3571 O   0  0  0  0  0  0  0  0  0  0  0  0
  -22.0252   -6.7836   21.7210 O   0  0  0  0  0  0  0  0  0  0  0  0
  -30.7909  -23.5296   16.9903 O   0  0  0  0  0  0  0  0  0  1  0  0
  -18.8824   -6.4600   26.2401 F   0  0  0  0  0  0  0  0  0  0  0  0
  -22.5777   -4.9380   23.7037 F   0  0  0  0  0  0  0  0  0  0  0  0
  1  2  1  0  0  0  0
  1  5  2  0  0  0  0
  2  6  2  0  0  0  0
  3  8  2  0  0  0  0
  3 18  1  0  0  0  0
  4  9  1  0  0  0  0
  4 18  2  0  0  0  0
  5 21  1  0  0  0  0
  6 23  1  0  0  0  0
  7 10  2  0  0  0  0
  7 22  1  0  0  0  0
  8 27  1  0  0  0  0
  9 27  2  0  0  0  0
 10 28  1  0  0  0  0
 11 12  2  0  0  0  0
 11 29  1  0  0  0  0
 12 30  1  0  0  0  0
 13 19  2  0  0  0  0
 13 25  1  0  0  0  0
 14 19  1  0  0  0  0
 14 26  2  0  0  0  0
 15 24  1  0  0  0  0
 15 28  2  0  0  0  0
 16 25  2  0  0  0  0
 16 26  1  0  0  0  0
 17 30  2  0  0  0  0
 17 31  1  0  0  0  0
 18 32  1  0  0  0  0
 19 34  1  0  0  0  0
 20 32  1  0  0  0  0
 20 33  2  0  0  0  0
 20 35  1  0  0  0  0
 21 23  2  0  0  0  0
 21 41  1  0  0  0  0
 22 24  2  0  0  0  0
 22 42  1  0  0  0  0
 23 50  1  0  0  0  0
 24 43  1  0  0  0  0
 25 71  1  0  0  0  0
 26 74  1  0  0  0  0
 27 83  1  0  0  0  0
 28 84  1  0  0  0  0
 29 31  2  0  0  0  0
 29 83  1  0  0  0  0
 30 85  1  0  0  0  0
 31 86  1  0  0  0  0
 32 64  2  0  0  0  0
 33 65  1  0  0  0  0
 33 68  1  0  0  0  0
 34 69  1  0  0  0  0
 34 76  2  0  0  0  0
 35 70  1  0  0  0  0
 35 77  2  0  0  0  0
 36 51  1  0  0  0  0
 36 72  1  0  0  0  0
 36 78  2  0  0  0  0
 37 61  1  0  0  0  0
 37 66  1  0  0  0  0
 37 79  2  0  0  0  0
 38 59  1  0  0  0  0
 38 74  1  0  0  0  0
 38 80  2  0  0  0  0
 39 62  1  0  0  0  0
 39 73  1  0  0  0  0
 39 81  2  0  0  0  0
 40 67  1  0  0  0  0
 40 71  1  0  0  0  0
 40 82  2  0  0  0  0
 41 44  1  0  0  0  0
 42 51  1  0  0  0  0
 43 66  1  0  0  0  0
 44 46  1  0  0  0  0
 45 47  1  0  0  0  0
 45 48  1  0  0  0  0
 46 50  1  0  0  0  0
 47 52  1  0  0  0  0
 48 67  1  0  0  0  0
 49 52  1  0  0  0  0
 49 67  1  0  0  0  0
 50 72  1  0  0  0  0
 51 66  1  0  0  0  0
 52 65  1  0  0  0  0
 53 62  1  0  0  0  0
 54 63  1  0  0  0  0
 55 63  1  0  0  0  0
 56 63  1  0  0  0  0
 57 74  1  0  0  0  0
 58 75  1  0  0  0  0
 59 60  1  0  0  0  0
 60 84  1  0  0  0  0
 61 63  1  0  0  0  0
 61 73  1  0  0  0  0
 62 75  1  0  0  0  0
 64 65  1  0  0  0  0
M  CHG  1  75   1
M  ISO  4  40 100  60 101  71 100  84 101
M  END
> <Batch ID>
0068

> <Smiles>
CNC(C)C(=O)NC(C(=O)N1Cc2cc([101O:1][101CH2:1]CC(=O)N(C)c3cc([100NH:0][100C:0](=O)N4CCCC(n5nc(-c6ccc(Oc7ccc(F)cc7F)cc6)c(C(N)=O)c5N)C4)cc(C(N)=O)c3)ccc2CC1C(=O)NC1CCCc2ccccc21)C(C)(C)C

> <Shape>
0.280

> <Color>
0.188

> <Negative vol penalty>
0.000

$$$$

  -OEChem-04042323273D

 84 92  0     1  0  0  0  0  0999 V2000
  -18.4624  -31.6083   22.9150 C   0  0  0  0  0  0  0  0  0  0  0  0
  -19.8508  -31.5295   22.8757 C   0  0  0  0  0  0  0  0  0  0  0  0
  -28.0163  -12.7029   22.4214 C   0  0  0  0  0  0  0  0  0  0  0  0
  -26.8064  -12.9721   20.3476 C   0  0  0  0  0  0  0  0  0  0  0  0
  -17.6968  -30.4459   22.8353 C   0  0  0  0  0  0  0  0  0  0  0  0
  -20.4745  -30.2879   22.7579 C   0  0  0  0  0  0  0  0  0  0  0  0
  -25.6620  -29.0445   19.7498 C   0  0  0  0  0  0  0  0  0  0  0  0
  -27.4890  -11.4193   22.5625 C   0  0  0  0  0  0  0  0  0  0  0  0
  -26.2790  -11.6884   20.4887 C   0  0  0  0  0  0  0  0  0  0  0  0
  -26.9809  -28.8949   20.1764 C   0  0  0  0  0  0  0  0  0  0  0  0
  -23.8158  -10.1869   22.2519 C   0  0  0  0  0  0  0  0  0  0  0  0
  -22.4530  -10.0158   22.0087 C   0  0  0  0  0  0  0  0  0  0  0  0
  -26.6741  -26.5039   20.2668 C   0  0  0  0  0  0  0  0  0  0  0  0
  -30.7157  -24.1265   17.8279 C   0  0  0  0  0  0  0  0  0  0  0  0
  -29.0750  -23.5313   19.4985 C   0  0  0  0  0  0  0  0  0  0  0  0
  -22.9650   -8.4490   20.2423 C   0  0  0  0  0  0  0  0  0  0  0  0
  -27.6749  -13.4793   21.3140 C   0  0  0  0  0  0  0  0  0  0  0  0
  -29.4138  -15.1674   20.5176 C   0  0  0  0  0  0  0  0  0  0  0  0
  -18.3111  -29.1902   22.7067 C   0  0  0  0  0  0  0  0  0  0  0  0
  -24.8346  -27.9238   19.5887 C   0  0  0  0  0  0  0  0  0  0  0  0
  -19.7164  -29.1074   22.6777 C   0  0  0  0  0  0  0  0  0  0  0  0
  -25.3459  -26.6417   19.8355 C   0  0  0  0  0  0  0  0  0  0  0  0
  -30.4780  -22.9223   17.1654 C   0  0  0  0  0  0  0  0  0  0  0  0
  -30.0143  -24.4310   18.9946 C   0  0  0  0  0  0  0  0  0  0  0  0
  -28.8372  -22.3271   18.8359 C   0  0  0  0  0  0  0  0  0  0  0  0
  -26.6204  -10.9121   21.5962 C   0  0  0  0  0  0  0  0  0  0  0  0
  -27.4862  -27.6247   20.4377 C   0  0  0  0  0  0  0  0  0  0  0  0
  -24.7532   -9.4891   21.4902 C   0  0  0  0  0  0  0  0  0  0  0  0
  -22.0276   -9.1468   21.0039 C   0  0  0  0  0  0  0  0  0  0  0  0
  -24.3278   -8.6201   20.4855 C   0  0  0  0  0  0  0  0  0  0  0  0
  -29.5387  -22.0226   17.6693 C   0  0  0  0  0  0  0  0  0  0  0  0
  -28.2189  -14.8056   21.1680 C   0  0  0  0  0  0  0  0  0  0  0  0
  -29.4799  -16.5324   20.6552 C   0  0  0  0  0  0  0  0  0  0  0  0
  -30.3778  -14.3434   19.8487 C   0  0  0  0  0  0  0  0  0  0  0  0
  -22.1246  -26.9269   20.9175 C   0  0  0  0  0  0  0  0  0  0  0  0
  -22.3294  -24.6034   18.6631 C   0  0  0  0  0  0  0  0  0  0  0  0
  -31.1494  -26.6577   19.3064 C   0  0  0  0  0  0  0  0  0  0  0  0
  -24.2961  -22.7771   16.5552 C   0  0  0  0  0  0  0  0  0  0  0  0
  -27.1023  -21.5648   20.4958 C   0  0  0  0  0  0  0  0  0  0  0  0
  -17.4429  -27.9575   22.6717 C   0  0  0  0  0  0  0  0  0  0  0  0
  -23.4223  -28.1000   19.1021 C   0  0  0  0  0  0  0  0  0  0  0  0
  -24.5048  -25.4049   19.6585 C   0  0  0  0  0  0  0  0  0  0  0  0
  -18.1719  -26.7131   22.1711 C   0  0  0  0  0  0  0  0  0  0  0  0
  -26.7358  -19.6926   23.5021 C   0  0  0  0  0  0  0  0  0  0  0  0
  -19.5312  -26.5812   22.8505 C   0  0  0  0  0  0  0  0  0  0  0  0
  -27.1873  -18.2841   23.1093 C   0  0  0  0  0  0  0  0  0  0  0  0
  -25.9772  -20.3816   22.3691 C   0  0  0  0  0  0  0  0  0  0  0  0
  -27.1297  -18.9999   20.6863 C   0  0  0  0  0  0  0  0  0  0  0  0
  -20.4291  -27.7811   22.5256 C   0  0  1  0  0  0  0  0  0  0  0  0
  -22.5144  -26.9294   19.4663 C   0  0  1  0  0  0  0  0  0  0  0  0
  -27.9544  -18.2904   21.7725 C   0  0  2  0  0  0  0  0  0  0  0  0
  -31.2295  -22.6006   15.9176 C   0  0  0  0  0  0  0  0  0  0  0  0
  -24.1835  -20.9257   14.8649 C   0  0  0  0  0  0  0  0  0  0  0  0
  -22.0499  -22.5659   20.9171 C   0  0  0  0  0  0  0  0  0  0  0  0
  -22.8843  -20.8101   19.3393 C   0  0  0  0  0  0  0  0  0  0  0  0
  -20.7570  -22.0166   18.8480 C   0  0  0  0  0  0  0  0  0  0  0  0
  -25.3120  -24.5290   14.3970 C   0  0  0  0  0  0  0  0  0  0  0  0
  -31.0936  -27.8056   20.3081 C   0  0  0  0  0  0  0  0  0  0  0  0
  -29.7176  -28.4468   20.4061 C   0  0  0  0  0  0  0  0  0  1  0  0
  -22.9588  -23.2330   18.5944 C   0  0  1  0  0  0  0  0  0  0  0  0
  -24.1460  -22.4300   15.0850 C   0  0  2  0  0  0  0  0  0  0  0  0
  -22.1780  -22.1797   19.4300 C   0  0  0  0  0  0  0  0  0  0  0  0
  -27.5725  -15.8559   21.6808 N   0  0  0  0  0  0  0  0  0  0  0  0
  -28.3641  -16.8911   21.3528 N   0  0  0  0  0  0  0  0  0  0  0  0
  -23.1283  -25.6297   19.1869 N   0  0  0  0  0  0  0  0  0  0  0  0
  -26.7667  -20.3530   21.1359 N   0  0  0  0  0  0  0  0  0  0  0  0
  -30.3829  -17.4488   20.2464 N   0  0  0  0  0  0  0  0  0  0  0  0
  -30.1555  -12.9605   19.7998 N   0  0  0  0  0  0  0  0  0  0  0  0
  -30.2554  -25.6529   19.6666 N   0  0  0  0  0  0  0  0  0  0  0  0
  -27.8828  -21.4147   19.3500 N   0  0  0  0  0  0  0  0  0  0  0  0
  -20.9819  -27.6528   21.1943 N   0  0  0  0  0  0  0  0  0  0  0  0
  -23.0723  -22.9065   17.1770 N   0  0  0  0  0  0  0  0  0  0  0  0
  -25.2456  -23.0486   14.2918 N   0  3  0  0  0  0  0  0  0  0  0  0
  -31.4142  -14.8175   19.3246 O   0  0  0  0  0  0  0  0  0  0  0  0
  -22.8091  -26.3106   21.7258 O   0  0  0  0  0  0  0  0  0  0  0  0
  -21.1740  -24.7591   18.2601 O   0  0  0  0  0  0  0  0  0  0  0  0
  -31.8996  -26.6738   18.3363 O   0  0  0  0  0  0  0  0  0  0  0  0
  -25.3898  -22.9156   17.0986 O   0  0  0  0  0  0  0  0  0  0  0  0
  -26.7480  -22.6569   20.9470 O   0  0  0  0  0  0  0  0  0  0  0  0
  -26.1058   -9.6595   21.7334 O   0  0  0  0  0  0  0  0  0  0  0  0
  -28.7730  -27.4759   20.8549 O   0  0  0  0  0  0  0  0  0  1  0  0
  -20.7189   -8.9814   20.7716 F   0  0  0  0  0  0  0  0  0  0  0  0
  -25.2236   -7.9461   19.7513 F   0  0  0  0  0  0  0  0  0  0  0  0
  -29.3122  -20.8648   17.0306 F   0  0  0  0  0  0  0  0  0  0  0  0
  1  2  1  0  0  0  0
  1  5  2  0  0  0  0
  2  6  2  0  0  0  0
  3  8  2  0  0  0  0
  3 17  1  0  0  0  0
  4  9  1  0  0  0  0
  4 17  2  0  0  0  0
  5 19  1  0  0  0  0
  6 21  1  0  0  0  0
  7 10  2  0  0  0  0
  7 20  1  0  0  0  0
  8 26  1  0  0  0  0
  9 26  2  0  0  0  0
 10 27  1  0  0  0  0
 11 12  2  0  0  0  0
 11 28  1  0  0  0  0
 12 29  1  0  0  0  0
 13 22  1  0  0  0  0
 13 27  2  0  0  0  0
 14 23  2  0  0  0  0
 14 24  1  0  0  0  0
 15 24  2  0  0  0  0
 15 25  1  0  0  0  0
 16 29  2  0  0  0  0
 16 30  1  0  0  0  0
 17 32  1  0  0  0  0
 18 32  1  0  0  0  0
 18 33  2  0  0  0  0
 18 34  1  0  0  0  0
 19 21  2  0  0  0  0
 19 40  1  0  0  0  0
 20 22  2  0  0  0  0
 20 41  1  0  0  0  0
 21 49  1  0  0  0  0
 22 42  1  0  0  0  0
 23 31  1  0  0  0  0
 23 52  1  0  0  0  0
 24 69  1  0  0  0  0
 25 31  2  0  0  0  0
 25 70  1  0  0  0  0
 26 80  1  0  0  0  0
 27 81  1  0  0  0  0
 28 30  2  0  0  0  0
 28 80  1  0  0  0  0
 29 82  1  0  0  0  0
 30 83  1  0  0  0  0
 31 84  1  0  0  0  0
 32 63  2  0  0  0  0
 33 64  1  0  0  0  0
 33 67  1  0  0  0  0
 34 68  1  0  0  0  0
 34 74  2  0  0  0  0
 35 50  1  0  0  0  0
 35 71  1  0  0  0  0
 35 75  2  0  0  0  0
 36 60  1  0  0  0  0
 36 65  1  0  0  0  0
 36 76  2  0  0  0  0
 37 58  1  0  0  0  0
 37 69  1  0  0  0  0
 37 77  2  0  0  0  0
 38 61  1  0  0  0  0
 38 72  1  0  0  0  0
 38 78  2  0  0  0  0
 39 66  1  0  0  0  0
 39 70  1  0  0  0  0
 39 79  2  0  0  0  0
 40 43  1  0  0  0  0
 41 50  1  0  0  0  0
 42 65  1  0  0  0  0
 43 45  1  0  0  0  0
 44 46  1  0  0  0  0
 44 47  1  0  0  0  0
 45 49  1  0  0  0  0
 46 51  1  0  0  0  0
 47 66  1  0  0  0  0
 48 51  1  0  0  0  0
 48 66  1  0  0  0  0
 49 71  1  0  0  0  0
 50 65  1  0  0  0  0
 51 64  1  0  0  0  0
 53 61  1  0  0  0  0
 54 62  1  0  0  0  0
 55 62  1  0  0  0  0
 56 62  1  0  0  0  0
 57 73  1  0  0  0  0
 58 59  1  0  0  0  0
 59 81  1  0  0  0  0
 60 62  1  0  0  0  0
 60 72  1  0  0  0  0
 61 73  1  0  0  0  0
 63 64  1  0  0  0  0
M  CHG  1  73   1
M  ISO  4  39 100  59 101  70 100  81 101
M  END
> <Batch ID>
0068

> <Smiles>
CNC(C)C(=O)NC(C(=O)N1Cc2cc([101O:1][101CH2:1]CC(=O)Nc3cc(C)c(F)c([100NH:0][100C:0](=O)N4CCCC(n5nc(-c6ccc(Oc7ccc(F)cc7F)cc6)c(C(N)=O)c5N)C4)c3)ccc2CC1C(=O)NC1CCCc2ccccc21)C(C)(C)C

> <Shape>
0.268

> <Color>
0.082

> <Negative vol penalty>
0.000

$$$$

  -OEChem-04042323273D

 84 92  0     1  0  0  0  0  0999 V2000
  -29.7680  -25.0426   33.3880 C   0  0  0  0  0  0  0  0  0  0  0  0
  -29.6757  -23.6545   33.3810 C   0  0  0  0  0  0  0  0  0  0  0  0
  -23.1894   -9.8191   19.9323 C   0  0  0  0  0  0  0  0  0  0  0  0
  -23.5699   -9.9994   22.3113 C   0  0  0  0  0  0  0  0  0  0  0  0
  -29.2739  -25.7784   32.3117 C   0  0  0  0  0  0  0  0  0  0  0  0
  -29.0883  -23.0014   32.2980 C   0  0  0  0  0  0  0  0  0  0  0  0
  -30.6792  -17.5631   29.9743 C   0  0  0  0  0  0  0  0  0  0  0  0
  -32.6603  -12.1062   23.9541 C   0  0  0  0  0  0  0  0  0  0  0  0
  -22.4235   -8.6723   20.1417 C   0  0  0  0  0  0  0  0  0  0  0  0
  -22.8039   -8.8526   22.5207 C   0  0  0  0  0  0  0  0  0  0  0  0
  -30.1582  -16.2813   30.1454 C   0  0  0  0  0  0  0  0  0  0  0  0
  -23.2052   -5.5060   22.2560 C   0  0  0  0  0  0  0  0  0  0  0  0
  -33.3907  -11.7945   25.1007 C   0  0  0  0  0  0  0  0  0  0  0  0
  -23.7046   -4.5447   23.1347 C   0  0  0  0  0  0  0  0  0  0  0  0
  -28.8488  -16.5521   28.1376 C   0  0  0  0  0  0  0  0  0  0  0  0
  -21.7493   -4.8043   24.5299 C   0  0  0  0  0  0  0  0  0  0  0  0
  -23.7627  -10.4826   21.0171 C   0  0  0  0  0  0  0  0  0  0  0  0
  -24.1008  -12.9993   20.7732 C   0  0  0  0  0  0  0  0  0  0  0  0
  -28.6888  -25.1334   31.2107 C   0  0  0  0  0  0  0  0  0  0  0  0
  -30.2800  -18.3545   28.8878 C   0  0  0  0  0  0  0  0  0  0  0  0
  -28.5847  -23.7293   31.2066 C   0  0  0  0  0  0  0  0  0  0  0  0
  -29.3682  -17.8427   27.9536 C   0  0  0  0  0  0  0  0  0  0  0  0
  -31.3167  -12.4660   24.0593 C   0  0  0  0  0  0  0  0  0  0  0  0
  -31.4339  -12.2021   26.4580 C   0  0  0  0  0  0  0  0  0  0  0  0
  -22.2307   -8.1891   21.4359 C   0  0  0  0  0  0  0  0  0  0  0  0
  -29.2406  -15.7767   29.2285 C   0  0  0  0  0  0  0  0  0  0  0  0
  -21.9779   -6.1166   22.5143 C   0  0  0  0  0  0  0  0  0  0  0  0
  -22.9766   -4.1938   24.2716 C   0  0  0  0  0  0  0  0  0  0  0  0
  -32.7775  -11.8424   26.3527 C   0  0  0  0  0  0  0  0  0  0  0  0
  -21.2500   -5.7657   23.6512 C   0  0  0  0  0  0  0  0  0  0  0  0
  -30.7035  -12.5138   25.3112 C   0  0  0  0  0  0  0  0  0  0  0  0
  -24.5544  -11.6670   20.8014 C   0  0  0  0  0  0  0  0  0  0  0  0
  -25.2317  -13.7421   20.5369 C   0  0  0  0  0  0  0  0  0  0  0  0
  -22.7757  -13.5190   20.9454 C   0  0  0  0  0  0  0  0  0  0  0  0
  -28.7935  -21.1464   28.5726 C   0  0  0  0  0  0  0  0  0  0  0  0
  -29.4815  -20.7161   25.4319 C   0  0  0  0  0  0  0  0  0  0  0  0
  -29.4736  -12.0165   28.0286 C   0  0  0  0  0  0  0  0  0  0  0  0
  -30.1979  -18.5509   22.8932 C   0  0  0  0  0  0  0  0  0  0  0  0
  -31.0372  -12.7823   21.5757 C   0  0  0  0  0  0  0  0  0  0  0  0
  -28.1263  -25.9739   30.0918 C   0  0  0  0  0  0  0  0  0  0  0  0
  -30.8716  -19.7250   28.7027 C   0  0  0  0  0  0  0  0  0  0  0  0
  -28.9226  -18.6444   26.7589 C   0  0  0  0  0  0  0  0  0  0  0  0
  -27.8563  -25.1844   28.8135 C   0  0  0  0  0  0  0  0  0  0  0  0
  -29.5217  -13.4639   18.4268 C   0  0  0  0  0  0  0  0  0  0  0  0
  -27.1272  -23.8833   29.1335 C   0  0  0  0  0  0  0  0  0  0  0  0
  -28.0339  -13.2075   18.6775 C   0  0  0  0  0  0  0  0  0  0  0  0
  -30.4037  -12.4789   19.1921 C   0  0  0  0  0  0  0  0  0  0  0  0
  -28.6455  -12.1371   20.8836 C   0  0  0  0  0  0  0  0  0  0  0  0
  -27.9766  -22.9832   30.0388 C   0  0  1  0  0  0  0  0  0  0  0  0
  -30.0046  -20.6389   27.8423 C   0  0  1  0  0  0  0  0  0  0  0  0
  -27.7189  -13.1455   20.1850 C   0  0  2  0  0  0  0  0  0  0  0  0
  -30.6727  -18.4915   20.4297 C   0  0  0  0  0  0  0  0  0  0  0  0
  -26.5164  -21.1437   24.8526 C   0  0  0  0  0  0  0  0  0  0  0  0
  -26.8879  -20.1515   22.5842 C   0  0  0  0  0  0  0  0  0  0  0  0
  -28.0662  -22.2523   23.2329 C   0  0  0  0  0  0  0  0  0  0  0  0
  -32.8874  -17.3923   23.3217 C   0  0  0  0  0  0  0  0  0  0  0  0
  -29.2263  -12.1747   29.5245 C   0  0  0  0  0  0  0  0  0  0  0  0
  -29.5621  -13.5652   30.0420 C   0  0  0  0  0  0  0  0  0  1  0  0
  -28.7845  -20.0590   24.2651 C   0  0  1  0  0  0  0  0  0  0  0  0
  -31.2751  -18.5736   21.8237 C   0  0  2  0  0  0  0  0  0  0  0  0
  -27.5705  -20.8870   23.7572 C   0  0  0  0  0  0  0  0  0  0  0  0
  -25.8708  -11.5661   20.5990 N   0  0  0  0  0  0  0  0  0  0  0  0
  -26.2540  -12.8445   20.4413 N   0  0  0  0  0  0  0  0  0  0  0  0
  -29.5247  -19.9812   26.6251 N   0  0  0  0  0  0  0  0  0  0  0  0
  -30.0513  -12.4773   20.6136 N   0  0  0  0  0  0  0  0  0  0  0  0
  -25.4413  -15.0690   20.4036 N   0  0  0  0  0  0  0  0  0  0  0  0
  -21.7294  -12.6166   21.1803 N   0  0  0  0  0  0  0  0  0  0  0  0
  -30.8128  -12.2514   27.7286 N   0  0  0  0  0  0  0  0  0  0  0  0
  -30.5777  -12.7819   22.8923 N   0  0  0  0  0  0  0  0  0  0  0  0
  -29.0075  -22.3207   29.2689 N   0  0  0  0  0  0  0  0  0  0  0  0
  -29.8115  -19.8238   23.2560 N   0  0  0  0  0  0  0  0  0  0  0  0
  -32.2062  -17.4237   22.0018 N   0  3  0  0  0  0  0  0  0  0  0  0
  -22.5242  -14.7460   20.8760 O   0  0  0  0  0  0  0  0  0  0  0  0
  -27.7424  -20.5199   28.5079 O   0  0  0  0  0  0  0  0  0  0  0  0
  -29.9757  -21.8371   25.2878 O   0  0  0  0  0  0  0  0  0  0  0  0
  -28.5762  -11.7221   27.2461 O   0  0  0  0  0  0  0  0  0  0  0  0
  -29.7421  -17.5082   23.3574 O   0  0  0  0  0  0  0  0  0  0  0  0
  -32.1970  -13.0525   21.2533 O   0  0  0  0  0  0  0  0  0  0  0  0
  -21.4832   -7.0702   21.6406 O   0  0  0  0  0  0  0  0  0  0  0  0
  -28.7300  -14.5261   29.3935 O   0  0  0  0  0  0  0  0  0  1  0  0
  -23.4555   -3.2695   25.1145 F   0  0  0  0  0  0  0  0  0  0  0  0
  -33.4903  -11.5418   27.4480 F   0  0  0  0  0  0  0  0  0  0  0  0
  -20.0698   -6.3479   23.9041 F   0  0  0  0  0  0  0  0  0  0  0  0
  -29.4110  -12.8608   25.4124 F   0  0  0  0  0  0  0  0  0  0  0  0
  1  2  1  0  0  0  0
  1  5  2  0  0  0  0
  2  6  2  0  0  0  0
  3  9  2  0  0  0  0
  3 17  1  0  0  0  0
  4 10  1  0  0  0  0
  4 17  2  0  0  0  0
  5 19  1  0  0  0  0
  6 21  1  0  0  0  0
  7 11  2  0  0  0  0
  7 20  1  0  0  0  0
  8 13  1  0  0  0  0
  8 23  2  0  0  0  0
  9 25  1  0  0  0  0
 10 25  2  0  0  0  0
 11 26  1  0  0  0  0
 12 14  2  0  0  0  0
 12 27  1  0  0  0  0
 13 29  2  0  0  0  0
 14 28  1  0  0  0  0
 15 22  1  0  0  0  0
 15 26  2  0  0  0  0
 16 28  2  0  0  0  0
 16 30  1  0  0  0  0
 17 32  1  0  0  0  0
 18 32  1  0  0  0  0
 18 33  2  0  0  0  0
 18 34  1  0  0  0  0
 19 21  2  0  0  0  0
 19 40  1  0  0  0  0
 20 22  2  0  0  0  0
 20 41  1  0  0  0  0
 21 49  1  0  0  0  0
 22 42  1  0  0  0  0
 23 31  1  0  0  0  0
 23 69  1  0  0  0  0
 24 29  1  0  0  0  0
 24 31  2  0  0  0  0
 24 68  1  0  0  0  0
 25 79  1  0  0  0  0
 26 80  1  0  0  0  0
 27 30  2  0  0  0  0
 27 79  1  0  0  0  0
 28 81  1  0  0  0  0
 29 82  1  0  0  0  0
 30 83  1  0  0  0  0
 31 84  1  0  0  0  0
 32 62  2  0  0  0  0
 33 63  1  0  0  0  0
 33 66  1  0  0  0  0
 34 67  1  0  0  0  0
 34 73  2  0  0  0  0
 35 50  1  0  0  0  0
 35 70  1  0  0  0  0
 35 74  2  0  0  0  0
 36 59  1  0  0  0  0
 36 64  1  0  0  0  0
 36 75  2  0  0  0  0
 37 57  1  0  0  0  0
 37 68  1  0  0  0  0
 37 76  2  0  0  0  0
 38 60  1  0  0  0  0
 38 71  1  0  0  0  0
 38 77  2  0  0  0  0
 39 65  1  0  0  0  0
 39 69  1  0  0  0  0
 39 78  2  0  0  0  0
 40 43  1  0  0  0  0
 41 50  1  0  0  0  0
 42 64  1  0  0  0  0
 43 45  1  0  0  0  0
 44 46  1  0  0  0  0
 44 47  1  0  0  0  0
 45 49  1  0  0  0  0
 46 51  1  0  0  0  0
 47 65  1  0  0  0  0
 48 51  1  0  0  0  0
 48 65  1  0  0  0  0
 49 70  1  0  0  0  0
 50 64  1  0  0  0  0
 51 63  1  0  0  0  0
 52 60  1  0  0  0  0
 53 61  1  0  0  0  0
 54 61  1  0  0  0  0
 55 61  1  0  0  0  0
 56 72  1  0  0  0  0
 57 58  1  0  0  0  0
 58 80  1  0  0  0  0
 59 61  1  0  0  0  0
 59 71  1  0  0  0  0
 60 72  1  0  0  0  0
 62 63  1  0  0  0  0
M  CHG  1  72   1
M  ISO  4  39 100  58 101  69 100  80 101
M  END
> <Batch ID>
0068

> <Smiles>
CNC(C)C(=O)NC(C(=O)N1Cc2cc([101O:1][101CH2:1]CC(=O)Nc3c(F)ccc([100NH:0][100C:0](=O)N4CCCC(n5nc(-c6ccc(Oc7ccc(F)cc7F)cc6)c(C(N)=O)c5N)C4)c3F)ccc2CC1C(=O)NC1CCCc2ccccc21)C(C)(C)C

> <Shape>
0.158

> <Color>
0.182

> <Negative vol penalty>
0.000

$$$$

  -OEChem-04042323273D

 83 91  0     1  0  0  0  0  0999 V2000
  -25.5651  -38.0890   22.1219 C   0  0  0  0  0  0  0  0  0  0  0  0
  -26.0220  -37.2085   21.1466 C   0  0  0  0  0  0  0  0  0  0  0  0
  -27.7326  -10.4207   21.1079 C   0  0  0  0  0  0  0  0  0  0  0  0
  -25.8773  -11.4173   19.9241 C   0  0  0  0  0  0  0  0  0  0  0  0
  -25.4006  -37.6491   23.4347 C   0  0  0  0  0  0  0  0  0  0  0  0
  -26.3158  -35.8877   21.4837 C   0  0  0  0  0  0  0  0  0  0  0  0
  -26.1586  -29.2636   18.7609 C   0  0  0  0  0  0  0  0  0  0  0  0
  -26.9020   -9.3866   21.5393 C   0  0  0  0  0  0  0  0  0  0  0  0
  -25.0465  -10.3832   20.3554 C   0  0  0  0  0  0  0  0  0  0  0  0
  -26.9839  -28.1553   18.5761 C   0  0  0  0  0  0  0  0  0  0  0  0
  -25.1827   -6.6760   23.2481 C   0  0  0  0  0  0  0  0  0  0  0  0
  -25.2608   -6.2952   24.5877 C   0  0  0  0  0  0  0  0  0  0  0  0
  -26.5864  -27.4860   20.8593 C   0  0  0  0  0  0  0  0  0  0  0  0
  -29.0243  -20.5572   14.8716 C   0  0  0  0  0  0  0  0  0  0  0  0
  -28.9301  -21.3257   17.5518 C   0  0  0  0  0  0  0  0  0  0  0  0
  -24.6255   -8.5274   25.2592 C   0  0  0  0  0  0  0  0  0  0  0  0
  -27.2203  -11.4361   20.3003 C   0  0  0  0  0  0  0  0  0  0  0  0
  -28.8485  -12.5419   18.6774 C   0  0  0  0  0  0  0  0  0  0  0  0
  -25.6834  -36.3197   23.7861 C   0  0  0  0  0  0  0  0  0  0  0  0
  -25.5487  -29.4978   20.0017 C   0  0  0  0  0  0  0  0  0  0  0  0
  -26.1563  -35.4300   22.8027 C   0  0  0  0  0  0  0  0  0  0  0  0
  -25.7518  -28.5967   21.0566 C   0  0  0  0  0  0  0  0  0  0  0  0
  -28.7621  -21.8853   15.2075 C   0  0  0  0  0  0  0  0  0  0  0  0
  -28.7151  -22.2696   16.5475 C   0  0  0  0  0  0  0  0  0  0  0  0
  -29.1923  -19.9975   17.2159 C   0  0  0  0  0  0  0  0  0  0  0  0
  -25.5589   -9.3678   21.1630 C   0  0  0  0  0  0  0  0  0  0  0  0
  -27.2002  -27.2678   19.6262 C   0  0  0  0  0  0  0  0  0  0  0  0
  -24.8260   -7.9825   22.9140 C   0  0  0  0  0  0  0  0  0  0  0  0
  -24.9822   -7.2209   25.5933 C   0  0  0  0  0  0  0  0  0  0  0  0
  -29.2393  -19.6132   15.8759 C   0  0  0  0  0  0  0  0  0  0  0  0
  -24.5474   -8.9081   23.9196 C   0  0  0  0  0  0  0  0  0  0  0  0
  -28.0778  -12.5050   19.8548 C   0  0  0  0  0  0  0  0  0  0  0  0
  -29.4777  -13.7622   18.7170 C   0  0  0  0  0  0  0  0  0  0  0  0
  -28.9837  -11.5608   17.6406 C   0  0  0  0  0  0  0  0  0  0  0  0
  -25.6895  -31.8200   22.1677 C   0  0  0  0  0  0  0  0  0  0  0  0
  -23.3081  -30.1231   23.5720 C   0  0  0  0  0  0  0  0  0  0  0  0
  -28.3719  -24.1450   18.1904 C   0  0  0  0  0  0  0  0  0  0  0  0
  -21.7469  -27.1165   23.9836 C   0  0  0  0  0  0  0  0  0  0  0  0
  -29.3976  -19.2567   19.6150 C   0  0  0  0  0  0  0  0  0  0  0  0
  -25.5353  -35.9028   25.2279 C   0  0  0  0  0  0  0  0  0  0  0  0
  -24.6399  -30.6835   20.1771 C   0  0  0  0  0  0  0  0  0  0  0  0
  -25.1041  -28.7920   22.4023 C   0  0  0  0  0  0  0  0  0  0  0  0
  -25.5118  -34.3892   25.4249 C   0  0  0  0  0  0  0  0  0  0  0  0
  -29.8508  -17.1561   22.4538 C   0  0  0  0  0  0  0  0  0  0  0  0
  -26.6319  -33.7295   24.6269 C   0  0  0  0  0  0  0  0  0  0  0  0
  -29.4933  -15.7618   21.9339 C   0  0  0  0  0  0  0  0  0  0  0  0
  -28.9625  -18.2359   21.8384 C   0  0  0  0  0  0  0  0  0  0  0  0
  -28.5513  -16.8393   19.8509 C   0  0  0  0  0  0  0  0  0  0  0  0
  -26.4620  -33.9831   23.1242 C   0  0  1  0  0  0  0  0  0  0  0  0
  -24.4808  -31.1039   21.6349 C   0  0  1  0  0  0  0  0  0  0  0  0
  -29.4621  -15.7258   20.3933 C   0  0  2  0  0  0  0  0  0  0  0  0
  -28.5352  -22.8746   14.1107 C   0  0  0  0  0  0  0  0  0  0  0  0
  -19.8526  -26.0339   25.2234 C   0  0  0  0  0  0  0  0  0  0  0  0
  -24.9783  -30.1307   26.1255 C   0  0  0  0  0  0  0  0  0  0  0  0
  -23.5292  -28.2839   26.9959 C   0  0  0  0  0  0  0  0  0  0  0  0
  -22.5317  -30.5109   26.4780 C   0  0  0  0  0  0  0  0  0  0  0  0
  -20.3739  -26.3718   21.4698 C   0  0  0  0  0  0  0  0  0  0  0  0
  -28.0681  -25.6307   18.1354 C   0  0  0  0  0  0  0  0  0  1  0  0
  -23.2458  -29.0011   24.5800 C   0  0  1  0  0  0  0  0  0  0  0  0
  -20.2797  -26.7290   23.9400 C   0  0  2  0  0  0  0  0  0  0  0  0
  -23.5852  -29.4787   26.0202 C   0  0  0  0  0  0  0  0  0  0  0  0
  -28.2043  -13.6136   20.5889 N   0  0  0  0  0  0  0  0  0  0  0  0
  -29.0619  -14.3586   19.8709 N   0  0  0  0  0  0  0  0  0  0  0  0
  -24.2291  -29.9696   22.5260 N   0  0  0  0  0  0  0  0  0  0  0  0
  -28.9856  -18.1430   20.3770 N   0  0  0  0  0  0  0  0  0  0  0  0
  -30.3405  -14.3724   17.8770 N   0  0  0  0  0  0  0  0  0  0  0  0
  -28.2665  -10.3624   17.7572 N   0  0  0  0  0  0  0  0  0  0  0  0
  -28.4502  -23.6121   16.9083 N   0  0  0  0  0  0  0  0  0  0  0  0
  -29.4101  -19.0401   18.2375 N   0  0  0  0  0  0  0  0  0  0  0  0
  -25.4405  -33.1159   22.5776 N   0  0  0  0  0  0  0  0  0  0  0  0
  -21.9216  -28.4040   24.4450 N   0  0  0  0  0  0  0  0  0  0  0  0
  -20.0211  -25.8073   22.7979 N   0  3  0  0  0  0  0  0  0  0  0  0
  -29.7314  -11.7348   16.6485 O   0  0  0  0  0  0  0  0  0  0  0  0
  -26.7679  -31.2392   22.2057 O   0  0  0  0  0  0  0  0  0  0  0  0
  -22.5619  -31.0964   23.7037 O   0  0  0  0  0  0  0  0  0  0  0  0
  -28.5163  -23.5578   19.2577 O   0  0  0  0  0  0  0  0  0  0  0  0
  -22.6480  -26.3520   23.6459 O   0  0  0  0  0  0  0  0  0  0  0  0
  -29.7418  -20.3153   20.1467 O   0  0  0  0  0  0  0  0  0  0  0  0
  -24.7481   -8.3587   21.5836 O   0  0  0  0  0  0  0  0  0  0  0  0
  -28.0058  -26.1855   19.4486 O   0  0  0  0  0  0  0  0  0  1  0  0
  -25.0558   -6.8547   26.8796 F   0  0  0  0  0  0  0  0  0  0  0  0
  -29.4905  -18.3395   15.5413 F   0  0  0  0  0  0  0  0  0  0  0  0
  -24.2030  -10.1644   23.6047 F   0  0  0  0  0  0  0  0  0  0  0  0
  1  2  1  0  0  0  0
  1  5  2  0  0  0  0
  2  6  2  0  0  0  0
  3  8  2  0  0  0  0
  3 17  1  0  0  0  0
  4  9  1  0  0  0  0
  4 17  2  0  0  0  0
  5 19  1  0  0  0  0
  6 21  1  0  0  0  0
  7 10  2  0  0  0  0
  7 20  1  0  0  0  0
  8 26  1  0  0  0  0
  9 26  2  0  0  0  0
 10 27  1  0  0  0  0
 11 12  2  0  0  0  0
 11 28  1  0  0  0  0
 12 29  1  0  0  0  0
 13 22  1  0  0  0  0
 13 27  2  0  0  0  0
 14 23  1  0  0  0  0
 14 30  2  0  0  0  0
 15 24  1  0  0  0  0
 15 25  2  0  0  0  0
 16 29  2  0  0  0  0
 16 31  1  0  0  0  0
 17 32  1  0  0  0  0
 18 32  1  0  0  0  0
 18 33  2  0  0  0  0
 18 34  1  0  0  0  0
 19 21  2  0  0  0  0
 19 40  1  0  0  0  0
 20 22  2  0  0  0  0
 20 41  1  0  0  0  0
 21 49  1  0  0  0  0
 22 42  1  0  0  0  0
 23 24  2  0  0  0  0
 23 52  1  0  0  0  0
 24 68  1  0  0  0  0
 25 30  1  0  0  0  0
 25 69  1  0  0  0  0
 26 79  1  0  0  0  0
 27 80  1  0  0  0  0
 28 31  2  0  0  0  0
 28 79  1  0  0  0  0
 29 81  1  0  0  0  0
 30 82  1  0  0  0  0
 31 83  1  0  0  0  0
 32 62  2  0  0  0  0
 33 63  1  0  0  0  0
 33 66  1  0  0  0  0
 34 67  1  0  0  0  0
 34 73  2  0  0  0  0
 35 50  1  0  0  0  0
 35 70  1  0  0  0  0
 35 74  2  0  0  0  0
 36 59  1  0  0  0  0
 36 64  1  0  0  0  0
 36 75  2  0  0  0  0
 37 58  1  0  0  0  0
 37 68  1  0  0  0  0
 37 76  2  0  0  0  0
 38 60  1  0  0  0  0
 38 71  1  0  0  0  0
 38 77  2  0  0  0  0
 39 65  1  0  0  0  0
 39 69  1  0  0  0  0
 39 78  2  0  0  0  0
 40 43  1  0  0  0  0
 41 50  1  0  0  0  0
 42 64  1  0  0  0  0
 43 45  1  0  0  0  0
 44 46  1  0  0  0  0
 44 47  1  0  0  0  0
 45 49  1  0  0  0  0
 46 51  1  0  0  0  0
 47 65  1  0  0  0  0
 48 51  1  0  0  0  0
 48 65  1  0  0  0  0
 49 70  1  0  0  0  0
 50 64  1  0  0  0  0
 51 63  1  0  0  0  0
 53 60  1  0  0  0  0
 54 61  1  0  0  0  0
 55 61  1  0  0  0  0
 56 61  1  0  0  0  0
 57 72  1  0  0  0  0
 58 80  1  0  0  0  0
 59 61  1  0  0  0  0
 59 71  1  0  0  0  0
 60 72  1  0  0  0  0
 62 63  1  0  0  0  0
M  CHG  1  72   1
M  ISO  4  39 100  58 101  69 100  80 101
M  END
> <Batch ID>
0068

> <Smiles>
CNC(C)C(=O)NC(C(=O)N1Cc2cc([101O:1][101CH2:1]C(=O)Nc3cc([100NH:0][100C:0](=O)N4CCCC(n5nc(-c6ccc(Oc7ccc(F)cc7F)cc6)c(C(N)=O)c5N)C4)c(F)cc3C)ccc2CC1C(=O)NC1CCCc2ccccc21)C(C)(C)C

> <Shape>
0.279

> <Color>
0.081

> <Negative vol penalty>
0.000

$$$$

  -OEChem-04042323273D

 82 90  0     1  0  0  0  0  0999 V2000
  -26.8912  -38.4418   25.0002 C   0  0  0  0  0  0  0  0  0  0  0  0
  -27.4631  -37.7957   23.9089 C   0  0  0  0  0  0  0  0  0  0  0  0
  -27.7581  -21.5685   15.7938 C   0  0  0  0  0  0  0  0  0  0  0  0
  -26.2153  -12.5813   21.5389 C   0  0  0  0  0  0  0  0  0  0  0  0
  -25.9858  -13.2723   19.2352 C   0  0  0  0  0  0  0  0  0  0  0  0
  -26.3542  -37.6951   26.0481 C   0  0  0  0  0  0  0  0  0  0  0  0
  -27.4992  -36.4024   23.8654 C   0  0  0  0  0  0  0  0  0  0  0  0
  -27.2051  -30.9525   19.2255 C   0  0  0  0  0  0  0  0  0  0  0  0
  -28.2362  -20.6881   16.7643 C   0  0  0  0  0  0  0  0  0  0  0  0
  -25.0173  -11.8730   21.4458 C   0  0  0  0  0  0  0  0  0  0  0  0
  -24.7878  -12.5639   19.1421 C   0  0  0  0  0  0  0  0  0  0  0  0
  -27.9073  -29.8018   18.8697 C   0  0  0  0  0  0  0  0  0  0  0  0
  -23.9638   -8.9142   20.1934 C   0  0  0  0  0  0  0  0  0  0  0  0
  -23.9301   -7.6248   20.7243 C   0  0  0  0  0  0  0  0  0  0  0  0
  -27.4810  -22.8936   16.1300 C   0  0  0  0  0  0  0  0  0  0  0  0
  -26.8779  -28.6148   20.7002 C   0  0  0  0  0  0  0  0  0  0  0  0
  -28.1602  -22.4578   18.4072 C   0  0  0  0  0  0  0  0  0  0  0  0
  -22.1699   -8.2939   22.2379 C   0  0  0  0  0  0  0  0  0  0  0  0
  -26.6995  -13.2810   20.4336 C   0  0  0  0  0  0  0  0  0  0  0  0
  -29.2318  -13.5337   20.2563 C   0  0  0  0  0  0  0  0  0  0  0  0
  -26.3752  -36.2919   26.0129 C   0  0  0  0  0  0  0  0  0  0  0  0
  -26.3408  -30.9459   20.3298 C   0  0  0  0  0  0  0  0  0  0  0  0
  -26.9632  -35.6363   24.9144 C   0  0  0  0  0  0  0  0  0  0  0  0
  -26.1640  -29.7660   21.0664 C   0  0  0  0  0  0  0  0  0  0  0  0
  -28.4372  -21.1327   18.0710 C   0  0  0  0  0  0  0  0  0  0  0  0
  -24.3036  -11.8642   20.2474 C   0  0  0  0  0  0  0  0  0  0  0  0
  -27.7460  -28.6335   19.6088 C   0  0  0  0  0  0  0  0  0  0  0  0
  -23.1006   -9.8935   20.6848 C   0  0  0  0  0  0  0  0  0  0  0  0
  -23.0332   -7.3146   21.7465 C   0  0  0  0  0  0  0  0  0  0  0  0
  -22.2036   -9.5834   21.7070 C   0  0  0  0  0  0  0  0  0  0  0  0
  -27.6820  -23.3382   17.4367 C   0  0  0  0  0  0  0  0  0  0  0  0
  -27.9367  -14.0133   20.5294 C   0  0  0  0  0  0  0  0  0  0  0  0
  -30.0534  -14.6080   20.4959 C   0  0  0  0  0  0  0  0  0  0  0  0
  -29.6544  -12.2334   19.8247 C   0  0  0  0  0  0  0  0  0  0  0  0
  -26.2266  -32.5039   23.0981 C   0  0  0  0  0  0  0  0  0  0  0  0
  -23.3814  -30.9746   23.3956 C   0  0  0  0  0  0  0  0  0  0  0  0
  -21.4085  -28.3302   22.5231 C   0  0  0  0  0  0  0  0  0  0  0  0
  -29.1778  -20.5181   20.3991 C   0  0  0  0  0  0  0  0  0  0  0  0
  -25.8248  -35.5279   27.1910 C   0  0  0  0  0  0  0  0  0  0  0  0
  -25.5703  -32.1880   20.6845 C   0  0  0  0  0  0  0  0  0  0  0  0
  -25.2327  -29.7010   22.2483 C   0  0  0  0  0  0  0  0  0  0  0  0
  -25.5668  -34.0530   26.8937 C   0  0  0  0  0  0  0  0  0  0  0  0
  -30.3421  -18.5828   23.1516 C   0  0  0  0  0  0  0  0  0  0  0  0
  -26.7594  -33.4381   26.1682 C   0  0  0  0  0  0  0  0  0  0  0  0
  -29.9807  -17.1471   22.7639 C   0  0  0  0  0  0  0  0  0  0  0  0
  -29.2761  -19.5783   22.6974 C   0  0  0  0  0  0  0  0  0  0  0  0
  -28.5625  -18.0687   20.8860 C   0  0  0  0  0  0  0  0  0  0  0  0
  -26.9991  -34.1264   24.8190 C   0  0  1  0  0  0  0  0  0  0  0  0
  -25.1085  -32.2100   22.1384 C   0  0  1  0  0  0  0  0  0  0  0  0
  -29.6378  -17.0373   21.2652 C   0  0  2  0  0  0  0  0  0  0  0  0
  -19.1479  -27.3312   22.9577 C   0  0  0  0  0  0  0  0  0  0  0  0
  -24.3558  -29.9525   26.1004 C   0  0  0  0  0  0  0  0  0  0  0  0
  -22.5201  -28.2510   26.0404 C   0  0  0  0  0  0  0  0  0  0  0  0
  -21.9642  -30.6827   26.0611 C   0  0  0  0  0  0  0  0  0  0  0  0
  -20.6191  -28.5904   19.6826 C   0  0  0  0  0  0  0  0  0  0  0  0
  -28.7470  -27.3392   17.8829 C   0  0  0  0  0  0  0  0  0  1  0  0
  -28.8541  -25.8607   17.5686 C   0  0  0  0  0  0  0  0  0  0  0  0
  -22.9339  -29.6507   23.9666 C   0  0  1  0  0  0  0  0  0  0  0  0
  -19.9615  -28.2595   22.0694 C   0  0  2  0  0  0  0  0  0  0  0  0
  -22.9626  -29.6357   25.5211 C   0  0  0  0  0  0  0  0  0  0  0  0
  -27.9309  -15.2927   20.9132 N   0  0  0  0  0  0  0  0  0  0  0  0
  -29.2324  -15.6261   20.8831 N   0  0  0  0  0  0  0  0  0  0  0  0
  -24.5064  -30.9433   22.5593 N   0  0  0  0  0  0  0  0  0  0  0  0
  -29.0063  -19.4188   21.2668 N   0  0  0  0  0  0  0  0  0  0  0  0
  -31.3907  -14.7717   20.4110 N   0  0  0  0  0  0  0  0  0  0  0  0
  -28.6799  -11.2459   19.6263 N   0  0  0  0  0  0  0  0  0  0  0  0
  -28.9232  -20.2385   19.0569 N   0  0  0  0  0  0  0  0  0  0  0  0
  -26.0457  -33.6580   23.8362 N   0  0  0  0  0  0  0  0  0  0  0  0
  -21.6210  -29.3807   23.3906 N   0  0  0  0  0  0  0  0  0  0  0  0
  -19.8819  -27.7584   20.6682 N   0  3  0  0  0  0  0  0  0  0  0  0
  -30.8620  -11.9508   19.6368 O   0  0  0  0  0  0  0  0  0  0  0  0
  -27.1820  -31.7395   23.1651 O   0  0  0  0  0  0  0  0  0  0  0  0
  -22.7517  -31.9977   23.6754 O   0  0  0  0  0  0  0  0  0  0  0  0
  -22.2638  -27.5311   22.1484 O   0  0  0  0  0  0  0  0  0  0  0  0
  -29.5514  -21.6189   20.8123 O   0  0  0  0  0  0  0  0  0  0  0  0
  -26.3415  -25.4977   16.9131 O   0  0  0  0  0  0  0  0  0  0  0  0
  -27.0622  -25.0712   19.2889 O   0  0  0  0  0  0  0  0  0  0  0  0
  -23.1347  -11.1730   20.1561 O   0  0  0  0  0  0  0  0  0  0  0  0
  -28.4307  -27.5092   19.2640 O   0  0  0  0  0  0  0  0  0  1  0  0
  -22.9999   -6.0759   22.2552 F   0  0  0  0  0  0  0  0  0  0  0  0
  -21.3710  -10.5197   22.1823 F   0  0  0  0  0  0  0  0  0  0  0  0
  -27.3298  -25.0174   17.8624 S   0  0  0  0  0  0  0  0  0  0  0  0
  1  2  1  0  0  0  0
  1  6  2  0  0  0  0
  2  7  2  0  0  0  0
  3  9  1  0  0  0  0
  3 15  2  0  0  0  0
  4 10  2  0  0  0  0
  4 19  1  0  0  0  0
  5 11  1  0  0  0  0
  5 19  2  0  0  0  0
  6 21  1  0  0  0  0
  7 23  1  0  0  0  0
  8 12  2  0  0  0  0
  8 22  1  0  0  0  0
  9 25  2  0  0  0  0
 10 26  1  0  0  0  0
 11 26  2  0  0  0  0
 12 27  1  0  0  0  0
 13 14  2  0  0  0  0
 13 28  1  0  0  0  0
 14 29  1  0  0  0  0
 15 31  1  0  0  0  0
 16 24  1  0  0  0  0
 16 27  2  0  0  0  0
 17 25  1  0  0  0  0
 17 31  2  0  0  0  0
 18 29  2  0  0  0  0
 18 30  1  0  0  0  0
 19 32  1  0  0  0  0
 20 32  1  0  0  0  0
 20 33  2  0  0  0  0
 20 34  1  0  0  0  0
 21 23  2  0  0  0  0
 21 39  1  0  0  0  0
 22 24  2  0  0  0  0
 22 40  1  0  0  0  0
 23 48  1  0  0  0  0
 24 41  1  0  0  0  0
 25 67  1  0  0  0  0
 26 78  1  0  0  0  0
 27 79  1  0  0  0  0
 28 30  2  0  0  0  0
 28 78  1  0  0  0  0
 29 80  1  0  0  0  0
 30 81  1  0  0  0  0
 31 82  1  0  0  0  0
 32 61  2  0  0  0  0
 33 62  1  0  0  0  0
 33 65  1  0  0  0  0
 34 66  1  0  0  0  0
 34 71  2  0  0  0  0
 35 49  1  0  0  0  0
 35 68  1  0  0  0  0
 35 72  2  0  0  0  0
 36 58  1  0  0  0  0
 36 63  1  0  0  0  0
 36 73  2  0  0  0  0
 37 59  1  0  0  0  0
 37 69  1  0  0  0  0
 37 74  2  0  0  0  0
 38 64  1  0  0  0  0
 38 67  1  0  0  0  0
 38 75  2  0  0  0  0
 39 42  1  0  0  0  0
 40 49  1  0  0  0  0
 41 63  1  0  0  0  0
 42 44  1  0  0  0  0
 43 45  1  0  0  0  0
 43 46  1  0  0  0  0
 44 48  1  0  0  0  0
 45 50  1  0  0  0  0
 46 64  1  0  0  0  0
 47 50  1  0  0  0  0
 47 64  1  0  0  0  0
 48 68  1  0  0  0  0
 49 63  1  0  0  0  0
 50 62  1  0  0  0  0
 51 59  1  0  0  0  0
 52 60  1  0  0  0  0
 53 60  1  0  0  0  0
 54 60  1  0  0  0  0
 55 70  1  0  0  0  0
 56 57  1  0  0  0  0
 56 79  1  0  0  0  0
 57 82  1  0  0  0  0
 58 60  1  0  0  0  0
 58 69  1  0  0  0  0
 59 70  1  0  0  0  0
 61 62  1  0  0  0  0
 76 82  2  0  0  0  0
 77 82  2  0  0  0  0
M  CHG  1  70   1
M  ISO  4  38 100  56 101  67 100  79 101
M  END
> <Batch ID>
0068

> <Smiles>
CNC(C)C(=O)NC(C(=O)N1Cc2cc([101O:1][101CH2:1]CS(=O)(=O)c3cccc([100NH:0][100C:0](=O)N4CCCC(n5nc(-c6ccc(Oc7ccc(F)cc7F)cc6)c(C(N)=O)c5N)C4)c3)ccc2CC1C(=O)NC1CCCc2ccccc21)C(C)(C)C

> <Shape>
0.331

> <Color>
0.087

> <Negative vol penalty>
0.000

$$$$

  -OEChem-04042323273D

 84 92  0     1  0  0  0  0  0999 V2000
  -17.0293  -28.5073   27.8226 C   0  0  0  0  0  0  0  0  0  0  0  0
  -18.3071  -28.0861   27.4686 C   0  0  0  0  0  0  0  0  0  0  0  0
  -23.0002   -9.8944   19.9813 C   0  0  0  0  0  0  0  0  0  0  0  0
  -23.7255   -9.9450   22.2853 C   0  0  0  0  0  0  0  0  0  0  0  0
  -16.2986  -27.7924   28.7707 C   0  0  0  0  0  0  0  0  0  0  0  0
  -18.8553  -26.9503   28.0634 C   0  0  0  0  0  0  0  0  0  0  0  0
  -22.5881  -22.8614   25.4455 C   0  0  0  0  0  0  0  0  0  0  0  0
  -22.2335   -8.7600   20.2475 C   0  0  0  0  0  0  0  0  0  0  0  0
  -22.9587   -8.8106   22.5515 C   0  0  0  0  0  0  0  0  0  0  0  0
  -23.9728  -22.7018   25.4749 C   0  0  0  0  0  0  0  0  0  0  0  0
  -23.2025   -5.4717   22.0792 C   0  0  0  0  0  0  0  0  0  0  0  0
  -23.7899   -4.4543   22.8312 C   0  0  0  0  0  0  0  0  0  0  0  0
  -23.7425  -21.0841   27.2496 C   0  0  0  0  0  0  0  0  0  0  0  0
  -29.8808  -17.4482   23.0994 C   0  0  0  0  0  0  0  0  0  0  0  0
  -32.0586  -16.5501   22.5633 C   0  0  0  0  0  0  0  0  0  0  0  0
  -22.0661   -4.6973   24.5065 C   0  0  0  0  0  0  0  0  0  0  0  0
  -23.7463  -10.4868   21.0001 C   0  0  0  0  0  0  0  0  0  0  0  0
  -24.1320  -13.0024   20.8244 C   0  0  0  0  0  0  0  0  0  0  0  0
  -16.8344  -26.6417   29.3703 C   0  0  0  0  0  0  0  0  0  0  0  0
  -21.7696  -22.1404   26.3268 C   0  0  0  0  0  0  0  0  0  0  0  0
  -18.1316  -26.2201   29.0214 C   0  0  0  0  0  0  0  0  0  0  0  0
  -22.3475  -21.2344   27.2275 C   0  0  0  0  0  0  0  0  0  0  0  0
  -30.6751  -16.5508   22.3858 C   0  0  0  0  0  0  0  0  0  0  0  0
  -30.4701  -18.3452   23.9905 C   0  0  0  0  0  0  0  0  0  0  0  0
  -31.8536  -18.3445   24.1680 C   0  0  0  0  0  0  0  0  0  0  0  0
  -22.2127   -8.2181   21.5326 C   0  0  0  0  0  0  0  0  0  0  0  0
  -24.5504  -21.8152   26.3790 C   0  0  0  0  0  0  0  0  0  0  0  0
  -22.0469   -6.1020   22.5409 C   0  0  0  0  0  0  0  0  0  0  0  0
  -23.2217   -4.0671   24.0448 C   0  0  0  0  0  0  0  0  0  0  0  0
  -32.6479  -17.4470   23.4544 C   0  0  0  0  0  0  0  0  0  0  0  0
  -21.4787   -5.7147   23.7546 C   0  0  0  0  0  0  0  0  0  0  0  0
  -24.5389  -11.6583   20.7256 C   0  0  0  0  0  0  0  0  0  0  0  0
  -25.2419  -13.7248   20.4600 C   0  0  0  0  0  0  0  0  0  0  0  0
  -27.7654  -20.4352   25.5403 C   0  0  0  0  0  0  0  0  0  0  0  0
  -26.4566  -20.6984   25.6107 C   0  0  0  0  0  0  0  0  0  1  0  0
  -22.8642  -13.5490   21.2110 C   0  0  0  0  0  0  0  0  0  0  0  0
  -28.2618  -19.3624   24.6299 C   0  0  0  0  0  0  0  0  0  0  0  0
  -19.7457  -22.9169   28.6516 C   0  0  0  0  0  0  0  0  0  0  0  0
  -19.1301  -19.7320   28.6486 C   0  0  0  0  0  0  0  0  0  0  0  0
  -20.2027  -16.5746   27.9228 C   0  0  0  0  0  0  0  0  0  0  0  0
  -30.7215  -14.6849   20.6938 C   0  0  0  0  0  0  0  0  0  0  0  0
  -16.0253  -25.9289   30.4247 C   0  0  0  0  0  0  0  0  0  0  0  0
  -20.2757  -22.3041   26.2642 C   0  0  0  0  0  0  0  0  0  0  0  0
  -21.5116  -20.4216   28.1809 C   0  0  0  0  0  0  0  0  0  0  0  0
  -16.5310  -24.5219   30.7328 C   0  0  0  0  0  0  0  0  0  0  0  0
  -29.6027  -12.2325   18.3677 C   0  0  0  0  0  0  0  0  0  0  0  0
  -18.0460  -24.5262   30.9106 C   0  0  0  0  0  0  0  0  0  0  0  0
  -28.1521  -11.9750   18.7819 C   0  0  0  0  0  0  0  0  0  0  0  0
  -30.5033  -12.4756   19.5774 C   0  0  0  0  0  0  0  0  0  0  0  0
  -28.5882  -13.2647   20.9111 C   0  0  0  0  0  0  0  0  0  0  0  0
  -18.7509  -24.9788   29.6262 C   0  0  1  0  0  0  0  0  0  0  0  0
  -19.5757  -21.9004   27.5582 C   0  0  1  0  0  0  0  0  0  0  0  0
  -27.6304  -13.0786   19.7230 C   0  0  2  0  0  0  0  0  0  0  0  0
  -19.4946  -14.1715   28.0681 C   0  0  0  0  0  0  0  0  0  0  0  0
  -19.7161  -19.7430   31.6430 C   0  0  0  0  0  0  0  0  0  0  0  0
  -19.9294  -17.2506   31.5397 C   0  0  0  0  0  0  0  0  0  0  0  0
  -17.7592  -18.3397   30.9681 C   0  0  0  0  0  0  0  0  0  0  0  0
  -20.3395  -16.2360   24.9858 C   0  0  0  0  0  0  0  0  0  0  0  0
  -19.7030  -18.5318   29.3629 C   0  0  1  0  0  0  0  0  0  0  0  0
  -19.5267  -15.4217   27.2028 C   0  0  2  0  0  0  0  0  0  0  0  0
  -19.2931  -18.4829   30.8619 C   0  0  0  0  0  0  0  0  0  0  0  0
  -25.8082  -11.5317   20.3293 N   0  0  0  0  0  0  0  0  0  0  0  0
  -26.2084  -12.8054   20.1758 N   0  0  0  0  0  0  0  0  0  0  0  0
  -20.0561  -20.6217   28.0855 N   0  0  0  0  0  0  0  0  0  0  0  0
  -29.9485  -13.5366   20.4209 N   0  0  0  0  0  0  0  0  0  0  0  0
  -32.4696  -19.2459   25.0654 N   0  0  0  0  0  0  0  0  0  0  0  0
  -25.4756  -15.0505   20.3581 N   0  0  0  0  0  0  0  0  0  0  0  0
  -21.8322  -12.6650   21.5545 N   0  0  0  0  0  0  0  0  0  0  0  0
  -29.6436  -19.2478   24.7038 N   0  0  0  0  0  0  0  0  0  0  0  0
  -30.0775  -15.6402   21.4795 N   0  0  0  0  0  0  0  0  0  0  0  0
  -18.7777  -23.9031   28.6585 N   0  0  0  0  0  0  0  0  0  0  0  0
  -19.2913  -17.3634   28.5924 N   0  0  0  0  0  0  0  0  0  0  0  0
  -20.2527  -15.1017   25.9413 N   0  3  0  0  0  0  0  0  0  0  0  0
  -22.6477  -14.7843   21.2349 O   0  0  0  0  0  0  0  0  0  0  0  0
  -27.4898  -18.7095   23.9375 O   0  0  0  0  0  0  0  0  0  0  0  0
  -20.6847  -22.8133   29.4321 O   0  0  0  0  0  0  0  0  0  0  0  0
  -17.9061  -19.8713   28.5862 O   0  0  0  0  0  0  0  0  0  0  0  0
  -21.4182  -16.7551   27.8970 O   0  0  0  0  0  0  0  0  0  0  0  0
  -31.8602  -14.8237   20.2398 O   0  0  0  0  0  0  0  0  0  0  0  0
  -21.4645   -7.1113   21.7929 O   0  0  0  0  0  0  0  0  0  0  0  0
  -25.9018  -21.6579   26.4103 O   0  0  0  0  0  0  0  0  0  1  0  0
  -23.7850   -3.0890   24.7661 F   0  0  0  0  0  0  0  0  0  0  0  0
  -33.9788  -17.4377   23.6159 F   0  0  0  0  0  0  0  0  0  0  0  0
  -20.3680   -6.3158   24.2027 F   0  0  0  0  0  0  0  0  0  0  0  0
  1  2  1  0  0  0  0
  1  5  2  0  0  0  0
  2  6  2  0  0  0  0
  3  8  2  0  0  0  0
  3 17  1  0  0  0  0
  4  9  1  0  0  0  0
  4 17  2  0  0  0  0
  5 19  1  0  0  0  0
  6 21  1  0  0  0  0
  7 10  2  0  0  0  0
  7 20  1  0  0  0  0
  8 26  1  0  0  0  0
  9 26  2  0  0  0  0
 10 27  1  0  0  0  0
 11 12  2  0  0  0  0
 11 28  1  0  0  0  0
 12 29  1  0  0  0  0
 13 22  1  0  0  0  0
 13 27  2  0  0  0  0
 14 23  2  0  0  0  0
 14 24  1  0  0  0  0
 15 23  1  0  0  0  0
 15 30  2  0  0  0  0
 16 29  2  0  0  0  0
 16 31  1  0  0  0  0
 17 32  1  0  0  0  0
 18 32  1  0  0  0  0
 18 33  2  0  0  0  0
 18 36  1  0  0  0  0
 19 21  2  0  0  0  0
 19 42  1  0  0  0  0
 20 22  2  0  0  0  0
 20 43  1  0  0  0  0
 21 51  1  0  0  0  0
 22 44  1  0  0  0  0
 23 70  1  0  0  0  0
 24 25  2  0  0  0  0
 24 69  1  0  0  0  0
 25 30  1  0  0  0  0
 25 66  1  0  0  0  0
 26 80  1  0  0  0  0
 27 81  1  0  0  0  0
 28 31  2  0  0  0  0
 28 80  1  0  0  0  0
 29 82  1  0  0  0  0
 30 83  1  0  0  0  0
 31 84  1  0  0  0  0
 32 62  2  0  0  0  0
 33 63  1  0  0  0  0
 33 67  1  0  0  0  0
 34 35  2  0  0  0  0
 34 37  1  0  0  0  0
 35 81  1  0  0  0  0
 36 68  1  0  0  0  0
 36 74  2  0  0  0  0
 37 69  1  0  0  0  0
 37 75  2  0  0  0  0
 38 52  1  0  0  0  0
 38 71  1  0  0  0  0
 38 76  2  0  0  0  0
 39 59  1  0  0  0  0
 39 64  1  0  0  0  0
 39 77  2  0  0  0  0
 40 60  1  0  0  0  0
 40 72  1  0  0  0  0
 40 78  2  0  0  0  0
 41 65  1  0  0  0  0
 41 70  1  0  0  0  0
 41 79  2  0  0  0  0
 42 45  1  0  0  0  0
 43 52  1  0  0  0  0
 44 64  1  0  0  0  0
 45 47  1  0  0  0  0
 46 48  1  0  0  0  0
 46 49  1  0  0  0  0
 47 51  1  0  0  0  0
 48 53  1  0  0  0  0
 49 65  1  0  0  0  0
 50 53  1  0  0  0  0
 50 65  1  0  0  0  0
 51 71  1  0  0  0  0
 52 64  1  0  0  0  0
 53 63  1  0  0  0  0
 54 60  1  0  0  0  0
 55 61  1  0  0  0  0
 56 61  1  0  0  0  0
 57 61  1  0  0  0  0
 58 73  1  0  0  0  0
 59 61  1  0  0  0  0
 59 72  1  0  0  0  0
 60 73  1  0  0  0  0
 62 63  1  0  0  0  0
M  CHG  1  73   1
M  ISO  4  35 101  41 100  70 100  81 101
M  END
> <Batch ID>
0068

> <Smiles>
CNC(C)C(=O)NC(C(=O)N1Cc2cc([101O:1][101CH:1]=CC(=O)Nc3cc([100NH:0][100C:0](=O)N4CCCC(n5nc(-c6ccc(Oc7ccc(F)cc7F)cc6)c(C(N)=O)c5N)C4)cc(F)c3N)ccc2CC1C(=O)NC1CCCc2ccccc21)C(C)(C)C

> <Shape>
0.171

> <Color>
0.189

> <Negative vol penalty>
0.000

$$$$

  -OEChem-04042323273D

 86 94  0     1  0  0  0  0  0999 V2000
  -27.3495  -32.6082   27.4193 C   0  0  0  0  0  0  0  0  0  0  0  0
  -27.6086  -31.5400   26.5665 C   0  0  0  0  0  0  0  0  0  0  0  0
  -24.1421  -10.2849   22.4544 C   0  0  0  0  0  0  0  0  0  0  0  0
  -22.8571  -11.8223   21.1045 C   0  0  0  0  0  0  0  0  0  0  0  0
  -26.4287  -20.9053   18.0784 C   0  0  0  0  0  0  0  0  0  0  0  0
  -26.0347  -33.0086   27.6537 C   0  0  0  0  0  0  0  0  0  0  0  0
  -26.5529  -30.8709   25.9484 C   0  0  0  0  0  0  0  0  0  0  0  0
  -27.4216  -29.9881   21.0381 C   0  0  0  0  0  0  0  0  0  0  0  0
  -23.0334  -10.0790   23.2753 C   0  0  0  0  0  0  0  0  0  0  0  0
  -21.7484  -11.6164   21.9254 C   0  0  0  0  0  0  0  0  0  0  0  0
  -28.2694  -28.9274   20.7221 C   0  0  0  0  0  0  0  0  0  0  0  0
  -20.4352   -8.8728   25.5135 C   0  0  0  0  0  0  0  0  0  0  0  0
  -26.1709  -19.8602   17.1913 C   0  0  0  0  0  0  0  0  0  0  0  0
  -20.1300   -7.5604   25.8742 C   0  0  0  0  0  0  0  0  0  0  0  0
  -26.3512  -27.5423   20.2518 C   0  0  0  0  0  0  0  0  0  0  0  0
  -19.8555   -6.9839   23.5440 C   0  0  0  0  0  0  0  0  0  0  0  0
  -24.0540  -11.1566   21.3689 C   0  0  0  0  0  0  0  0  0  0  0  0
  -27.1646  -20.6690   19.2396 C   0  0  0  0  0  0  0  0  0  0  0  0
  -25.5474  -10.6463   19.3647 C   0  0  0  0  0  0  0  0  0  0  0  0
  -24.9629  -32.3502   27.0305 C   0  0  0  0  0  0  0  0  0  0  0  0
  -26.0297  -29.8303   20.9737 C   0  0  0  0  0  0  0  0  0  0  0  0
  -25.2224  -31.2620   26.1756 C   0  0  0  0  0  0  0  0  0  0  0  0
  -25.4880  -28.6033   20.5650 C   0  0  0  0  0  0  0  0  0  0  0  0
  -27.3848  -18.3425   18.6267 C   0  0  0  0  0  0  0  0  0  0  0  0
  -21.8365  -10.7448   23.0109 C   0  0  0  0  0  0  0  0  0  0  0  0
  -27.7342  -27.7034   20.3317 C   0  0  0  0  0  0  0  0  0  0  0  0
  -20.4505   -9.2408   24.1681 C   0  0  0  0  0  0  0  0  0  0  0  0
  -19.8402   -6.6160   24.8894 C   0  0  0  0  0  0  0  0  0  0  0  0
  -26.6489  -18.5788   17.4655 C   0  0  0  0  0  0  0  0  0  0  0  0
  -20.1607   -8.2964   23.1834 C   0  0  0  0  0  0  0  0  0  0  0  0
  -27.6426  -19.3876   19.5137 C   0  0  0  0  0  0  0  0  0  0  0  0
  -25.1991  -11.3700   20.5208 C   0  0  0  0  0  0  0  0  0  0  0  0
  -26.7089  -11.2350   18.9280 C   0  0  0  0  0  0  0  0  0  0  0  0
  -29.2130  -24.4412   20.5404 C   0  0  0  0  0  0  0  0  0  0  0  0
  -28.4529  -25.5188   20.7581 C   0  0  0  0  0  0  0  0  0  1  0  0
  -27.4353  -21.7776   20.1768 C   0  0  0  0  0  0  0  0  0  0  0  0
  -24.8805   -9.5408   18.7411 C   0  0  0  0  0  0  0  0  0  0  0  0
  -23.6534  -29.9985   23.0781 C   0  0  0  0  0  0  0  0  0  0  0  0
  -21.8071  -29.6343   20.4360 C   0  0  0  0  0  0  0  0  0  0  0  0
  -21.5368  -28.5207   17.2214 C   0  0  0  0  0  0  0  0  0  0  0  0
  -29.0225  -16.7016   19.6125 C   0  0  0  0  0  0  0  0  0  0  0  0
  -23.5560  -32.7888   27.3515 C   0  0  0  0  0  0  0  0  0  0  0  0
  -25.1292  -30.9923   21.2919 C   0  0  0  0  0  0  0  0  0  0  0  0
  -24.0009  -28.3885   20.4602 C   0  0  0  0  0  0  0  0  0  0  0  0
  -22.5150  -32.2664   26.3648 C   0  0  0  0  0  0  0  0  0  0  0  0
  -30.5370  -13.6166   20.5429 C   0  0  0  0  0  0  0  0  0  0  0  0
  -22.7309  -30.7801   26.0981 C   0  0  0  0  0  0  0  0  0  0  0  0
  -29.3728  -12.6233   20.5317 C   0  0  0  0  0  0  0  0  0  0  0  0
  -30.1054  -14.9905   21.0527 C   0  0  0  0  0  0  0  0  0  0  0  0
  -27.7789  -14.5766   20.3562 C   0  0  0  0  0  0  0  0  0  0  0  0
  -24.1054  -30.5269   25.4671 C   0  0  1  0  0  0  0  0  0  0  0  0
  -23.7193  -30.5647   21.6879 C   0  0  1  0  0  0  0  0  0  0  0  0
  -28.1500  -13.1966   19.7891 C   0  0  2  0  0  0  0  0  0  0  0  0
  -30.4282  -22.7968   21.9830 C   0  0  0  0  0  0  0  0  0  0  0  0
  -19.8929  -28.3272   15.3353 C   0  0  0  0  0  0  0  0  0  0  0  0
  -20.4616  -27.2905   21.8524 C   0  0  0  0  0  0  0  0  0  0  0  0
  -19.5458  -26.5678   19.6371 C   0  0  0  0  0  0  0  0  0  0  0  0
  -18.9007  -28.7813   20.5893 C   0  0  0  0  0  0  0  0  0  0  0  0
  -23.1905  -30.2215   15.4517 C   0  0  0  0  0  0  0  0  0  0  0  0
  -29.1038  -23.1781   21.3393 C   0  0  2  0  0  0  0  0  0  0  0  0
  -21.2384  -28.4557   19.6833 C   0  0  1  0  0  0  0  0  0  0  0  0
  -20.9813  -29.1781   15.9709 C   0  0  2  0  0  0  0  0  0  0  0  0
  -20.0646  -27.7770   20.4443 C   0  0  0  0  0  0  0  0  0  0  0  0
  -26.0690  -12.3440   20.8011 N   0  0  0  0  0  0  0  0  0  0  0  0
  -26.9755  -12.2364   19.8148 N   0  0  0  0  0  0  0  0  0  0  0  0
  -23.1618  -29.5530   20.7879 N   0  0  0  0  0  0  0  0  0  0  0  0
  -28.9451  -15.4720   20.3000 N   0  0  0  0  0  0  0  0  0  0  0  0
  -27.5180  -10.9886   17.8758 N   0  0  0  0  0  0  0  0  0  0  0  0
  -26.3948  -22.4035   20.7268 N   0  0  0  0  0  0  0  0  0  0  0  0
  -23.6983   -9.0604   19.3208 N   0  0  0  0  0  0  0  0  0  0  0  0
  -27.8694  -17.0404   18.9052 N   0  0  0  0  0  0  0  0  0  0  0  0
  -24.0866  -30.8681   24.0608 N   0  0  0  0  0  0  0  0  0  0  0  0
  -20.8842  -28.9505   18.3574 N   0  0  0  0  0  0  0  0  0  0  0  0
  -28.7089  -22.1002   20.4255 N   0  3  0  0  0  0  0  0  0  0  0  0
  -22.0645  -29.3818   14.9679 N   0  3  0  0  0  0  0  0  0  0  0  0
  -25.3288   -8.9845   17.7101 O   0  0  0  0  0  0  0  0  0  0  0  0
  -23.2387  -28.8578   23.2469 O   0  0  0  0  0  0  0  0  0  0  0  0
  -21.0780  -30.5948   20.6956 O   0  0  0  0  0  0  0  0  0  0  0  0
  -22.4553  -27.7044   17.1928 O   0  0  0  0  0  0  0  0  0  0  0  0
  -30.0466  -17.3894   19.6262 O   0  0  0  0  0  0  0  0  0  0  0  0
  -20.7544  -10.5440   23.8116 O   0  0  0  0  0  0  0  0  0  0  0  0
  -28.5595  -26.6662   20.0233 O   0  0  0  0  0  0  0  0  0  1  0  0
  -19.5487   -5.3553   25.2358 F   0  0  0  0  0  0  0  0  0  0  0  0
  -26.3951  -17.5820   16.6055 F   0  0  0  0  0  0  0  0  0  0  0  0
  -20.1750   -8.6437   21.8892 F   0  0  0  0  0  0  0  0  0  0  0  0
  -28.3495  -19.1620   20.6318 F   0  0  0  0  0  0  0  0  0  0  0  0
  1  2  1  0  0  0  0
  1  6  2  0  0  0  0
  2  7  2  0  0  0  0
  3  9  2  0  0  0  0
  3 17  1  0  0  0  0
  4 10  1  0  0  0  0
  4 17  2  0  0  0  0
  5 13  2  0  0  0  0
  5 18  1  0  0  0  0
  6 20  1  0  0  0  0
  7 22  1  0  0  0  0
  8 11  2  0  0  0  0
  8 21  1  0  0  0  0
  9 25  1  0  0  0  0
 10 25  2  0  0  0  0
 11 26  1  0  0  0  0
 12 14  2  0  0  0  0
 12 27  1  0  0  0  0
 13 29  1  0  0  0  0
 14 28  1  0  0  0  0
 15 23  1  0  0  0  0
 15 26  2  0  0  0  0
 16 28  2  0  0  0  0
 16 30  1  0  0  0  0
 17 32  1  0  0  0  0
 18 31  2  0  0  0  0
 18 36  1  0  0  0  0
 19 32  1  0  0  0  0
 19 33  2  0  0  0  0
 19 37  1  0  0  0  0
 20 22  2  0  0  0  0
 20 42  1  0  0  0  0
 21 23  2  0  0  0  0
 21 43  1  0  0  0  0
 22 51  1  0  0  0  0
 23 44  1  0  0  0  0
 24 29  2  0  0  0  0
 24 31  1  0  0  0  0
 24 71  1  0  0  0  0
 25 81  1  0  0  0  0
 26 82  1  0  0  0  0
 27 30  2  0  0  0  0
 27 81  1  0  0  0  0
 28 83  1  0  0  0  0
 29 84  1  0  0  0  0
 30 85  1  0  0  0  0
 31 86  1  0  0  0  0
 32 64  2  0  0  0  0
 33 65  1  0  0  0  0
 33 68  1  0  0  0  0
 34 35  2  0  0  0  0
 34 60  1  0  0  0  0
 35 82  1  0  0  0  0
 36 69  1  0  0  0  0
 36 74  2  0  0  0  0
 37 70  1  0  0  0  0
 37 76  2  0  0  0  0
 38 52  1  0  0  0  0
 38 72  1  0  0  0  0
 38 77  2  0  0  0  0
 39 61  1  0  0  0  0
 39 66  1  0  0  0  0
 39 78  2  0  0  0  0
 40 62  1  0  0  0  0
 40 73  1  0  0  0  0
 40 79  2  0  0  0  0
 41 67  1  0  0  0  0
 41 71  1  0  0  0  0
 41 80  2  0  0  0  0
 42 45  1  0  0  0  0
 43 52  1  0  0  0  0
 44 66  1  0  0  0  0
 45 47  1  0  0  0  0
 46 48  1  0  0  0  0
 46 49  1  0  0  0  0
 47 51  1  0  0  0  0
 48 53  1  0  0  0  0
 49 67  1  0  0  0  0
 50 53  1  0  0  0  0
 50 67  1  0  0  0  0
 51 72  1  0  0  0  0
 52 66  1  0  0  0  0
 53 65  1  0  0  0  0
 54 60  1  0  0  0  0
 55 62  1  0  0  0  0
 56 63  1  0  0  0  0
 57 63  1  0  0  0  0
 58 63  1  0  0  0  0
 59 75  1  0  0  0  0
 60 74  1  0  0  0  0
 61 63  1  0  0  0  0
 61 73  1  0  0  0  0
 62 75  1  0  0  0  0
 64 65  1  0  0  0  0
M  CHG  2  74   1  75   1
M  ISO  4  35 101  41 100  71 100  82 101
M  END
> <Batch ID>
0068

> <Smiles>
CNC(C)C(=O)NC(C(=O)N1Cc2cc([101O:1][101CH:1]=CC(C)NC(=N)c3ccc(F)c([100NH:0][100C:0](=O)N4CCCC(n5nc(-c6ccc(Oc7ccc(F)cc7F)cc6)c(C(N)=O)c5N)C4)c3F)ccc2CC1C(=O)NC1CCCc2ccccc21)C(C)(C)C

> <Shape>
0.282

> <Color>
0.087

> <Negative vol penalty>
0.000

$$$$

  -OEChem-04042323273D

 85 93  0     1  0  0  0  0  0999 V2000
  -22.3357  -12.1091   18.7633 C   0  0  0  0  0  0  0  0  0  0  0  0
  -22.1055  -13.4792   18.8361 C   0  0  0  0  0  0  0  0  0  0  0  0
  -24.3627  -31.3234   20.3938 C   0  0  0  0  0  0  0  0  0  0  0  0
  -25.2081  -30.6053   22.5401 C   0  0  0  0  0  0  0  0  0  0  0  0
  -23.4579  -11.5581   19.3806 C   0  0  0  0  0  0  0  0  0  0  0  0
  -22.9970  -14.2990   19.5273 C   0  0  0  0  0  0  0  0  0  0  0  0
  -24.1168  -18.5313   16.9820 C   0  0  0  0  0  0  0  0  0  0  0  0
  -20.0188  -26.6108   17.7456 C   0  0  0  0  0  0  0  0  0  0  0  0
  -25.0855  -32.5110   20.5064 C   0  0  0  0  0  0  0  0  0  0  0  0
  -25.9310  -31.7929   22.6527 C   0  0  0  0  0  0  0  0  0  0  0  0
  -23.1710  -19.5554   17.0018 C   0  0  0  0  0  0  0  0  0  0  0  0
  -25.3164  -35.0156   23.4697 C   0  0  0  0  0  0  0  0  0  0  0  0
  -19.8655  -27.9957   17.6819 C   0  0  0  0  0  0  0  0  0  0  0  0
  -25.2749  -35.6861   24.6921 C   0  0  0  0  0  0  0  0  0  0  0  0
  -24.4417  -20.6879   18.7111 C   0  0  0  0  0  0  0  0  0  0  0  0
  -27.6721  -35.4641   24.8953 C   0  0  0  0  0  0  0  0  0  0  0  0
  -24.4239  -30.3706   21.4107 C   0  0  0  0  0  0  0  0  0  0  0  0
  -24.1117  -27.9349   20.7197 C   0  0  0  0  0  0  0  0  0  0  0  0
  -24.3687  -12.3729   20.0714 C   0  0  0  0  0  0  0  0  0  0  0  0
  -25.2285  -18.5726   17.8358 C   0  0  0  0  0  0  0  0  0  0  0  0
  -24.1317  -13.7582   20.1555 C   0  0  0  0  0  0  0  0  0  0  0  0
  -25.4016  -19.6644   18.6984 C   0  0  0  0  0  0  0  0  0  0  0  0
  -19.2165  -25.8590   18.6040 C   0  0  0  0  0  0  0  0  0  0  0  0
  -18.1079  -27.8772   19.3353 C   0  0  0  0  0  0  0  0  0  0  0  0
  -25.8697  -32.7458   21.6359 C   0  0  0  0  0  0  0  0  0  0  0  0
  -23.3318  -20.6324   17.8685 C   0  0  0  0  0  0  0  0  0  0  0  0
  -26.5357  -34.5693   22.9601 C   0  0  0  0  0  0  0  0  0  0  0  0
  -26.4527  -35.9104   25.4049 C   0  0  0  0  0  0  0  0  0  0  0  0
  -18.9101  -28.6290   18.4768 C   0  0  0  0  0  0  0  0  0  0  0  0
  -27.7136  -34.7935   23.6729 C   0  0  0  0  0  0  0  0  0  0  0  0
  -18.2611  -26.4922   19.3989 C   0  0  0  0  0  0  0  0  0  0  0  0
  -23.6770  -29.1438   21.2952 C   0  0  0  0  0  0  0  0  0  0  0  0
  -23.0418  -27.0847   20.8576 C   0  0  0  0  0  0  0  0  0  0  0  0
  -25.3701  -27.6094   20.1147 C   0  0  0  0  0  0  0  0  0  0  0  0
  -26.3146  -16.7392   20.1944 C   0  0  0  0  0  0  0  0  0  0  0  0
  -28.8550  -18.7523   20.0661 C   0  0  0  0  0  0  0  0  0  0  0  0
  -20.2724  -23.6684   17.9481 C   0  0  0  0  0  0  0  0  0  0  0  0
  -30.0793  -21.8213   19.2125 C   0  0  0  0  0  0  0  0  0  0  0  0
  -17.1219  -28.4744   21.5630 C   0  0  0  0  0  0  0  0  0  0  0  0
  -25.5423  -11.7254   20.7629 C   0  0  0  0  0  0  0  0  0  0  0  0
  -26.2537  -17.4733   17.7833 C   0  0  0  0  0  0  0  0  0  0  0  0
  -26.5881  -19.7662   19.6206 C   0  0  0  0  0  0  0  0  0  0  0  0
  -26.6374  -12.7131   21.1575 C   0  0  0  0  0  0  0  0  0  0  0  0
  -19.2337  -26.2374   23.6195 C   0  0  0  0  0  0  0  0  0  0  0  0
  -26.0317  -13.9412   21.8295 C   0  0  0  0  0  0  0  0  0  0  0  0
  -20.6498  -26.6885   23.2665 C   0  0  0  0  0  0  0  0  0  0  0  0
  -18.2266  -27.3755   23.4845 C   0  0  0  0  0  0  0  0  0  0  0  0
  -19.6543  -28.4744   21.7829 C   0  0  0  0  0  0  0  0  0  0  0  0
  -25.0888  -14.6837   20.8749 C   0  0  1  0  0  0  0  0  0  0  0  0
  -27.0789  -17.3642   19.0618 C   0  0  1  0  0  0  0  0  0  0  0  0
  -20.6811  -27.3356   21.8721 C   0  0  1  0  0  0  0  0  0  0  0  0
  -32.1846  -23.1862   19.2637 C   0  0  0  0  0  0  0  0  0  0  0  0
  -28.4757  -19.2208   23.0571 C   0  0  0  0  0  0  0  0  0  0  0  0
  -29.9340  -21.2457   22.8541 C   0  0  0  0  0  0  0  0  0  0  0  0
  -30.8576  -18.9881   22.3315 C   0  0  0  0  0  0  0  0  0  0  0  0
  -15.9248  -29.0596   19.4999 C   0  0  0  0  0  0  0  0  0  0  0  0
  -30.1250  -22.0739   16.2641 C   0  0  0  0  0  0  0  0  0  0  0  0
  -20.1098  -22.1986   18.3185 C   0  0  0  0  0  0  0  0  0  0  0  0
  -21.0645  -21.2837   17.5665 C   0  0  0  0  0  0  0  0  0  1  0  0
  -29.2191  -20.0579   20.7306 C   0  0  1  0  0  0  0  0  0  0  0  0
  -31.3254  -22.2319   18.4488 C   0  0  2  0  0  0  0  0  0  0  0  0
  -29.5981  -19.8756   22.2275 C   0  0  0  0  0  0  0  0  0  0  0  0
  -22.4282  -29.0722   21.7637 N   0  0  0  0  0  0  0  0  0  0  0  0
  -22.0691  -27.8081   21.4827 N   0  0  0  0  0  0  0  0  0  0  0  0
  -27.5597  -18.6633   19.5367 N   0  0  0  0  0  0  0  0  0  0  0  0
  -18.3093  -28.0209   22.1733 N   0  0  0  0  0  0  0  0  0  0  0  0
  -22.8476  -25.7965   20.5039 N   0  0  0  0  0  0  0  0  0  0  0  0
  -26.3594  -28.6005   20.0558 N   0  0  0  0  0  0  0  0  0  0  0  0
  -19.3748  -24.4541   18.6661 N   0  0  0  0  0  0  0  0  0  0  0  0
  -25.8471  -15.4674   19.9235 N   0  0  0  0  0  0  0  0  0  0  0  0
  -30.2735  -20.6509   19.9152 N   0  0  0  0  0  0  0  0  0  0  0  0
  -17.1193  -28.5327   20.1563 N   0  0  0  0  0  0  0  0  0  0  0  0
  -30.9524  -22.9074   17.1738 N   0  3  0  0  0  0  0  0  0  0  0  0
  -25.6045  -26.4783   19.6256 O   0  0  0  0  0  0  0  0  0  0  0  0
  -26.1616  -17.3640   21.2375 O   0  0  0  0  0  0  0  0  0  0  0  0
  -29.6915  -17.8473   20.0121 O   0  0  0  0  0  0  0  0  0  0  0  0
  -21.0977  -24.0463   17.1231 O   0  0  0  0  0  0  0  0  0  0  0  0
  -29.0391  -22.4755   19.1911 O   0  0  0  0  0  0  0  0  0  0  0  0
  -16.1492  -28.8548   22.2262 O   0  0  0  0  0  0  0  0  0  0  0  0
  -26.5754  -33.9044   21.7460 O   0  0  0  0  0  0  0  0  0  0  0  0
  -22.4097  -21.6330   17.8903 O   0  0  0  0  0  0  0  0  0  1  0  0
  -26.4129  -36.5556   26.5780 F   0  0  0  0  0  0  0  0  0  0  0  0
  -18.7712  -29.9608   18.4060 F   0  0  0  0  0  0  0  0  0  0  0  0
  -28.8881  -34.3681   23.1878 F   0  0  0  0  0  0  0  0  0  0  0  0
  -17.4887  -25.7687   20.2242 F   0  0  0  0  0  0  0  0  0  0  0  0
  1  2  1  0  0  0  0
  1  5  2  0  0  0  0
  2  6  2  0  0  0  0
  3  9  2  0  0  0  0
  3 17  1  0  0  0  0
  4 10  1  0  0  0  0
  4 17  2  0  0  0  0
  5 19  1  0  0  0  0
  6 21  1  0  0  0  0
  7 11  2  0  0  0  0
  7 20  1  0  0  0  0
  8 13  2  0  0  0  0
  8 23  1  0  0  0  0
  9 25  1  0  0  0  0
 10 25  2  0  0  0  0
 11 26  1  0  0  0  0
 12 14  2  0  0  0  0
 12 27  1  0  0  0  0
 13 29  1  0  0  0  0
 14 28  1  0  0  0  0
 15 22  1  0  0  0  0
 15 26  2  0  0  0  0
 16 28  2  0  0  0  0
 16 30  1  0  0  0  0
 17 32  1  0  0  0  0
 18 32  1  0  0  0  0
 18 33  2  0  0  0  0
 18 34  1  0  0  0  0
 19 21  2  0  0  0  0
 19 40  1  0  0  0  0
 20 22  2  0  0  0  0
 20 41  1  0  0  0  0
 21 49  1  0  0  0  0
 22 42  1  0  0  0  0
 23 31  2  0  0  0  0
 23 69  1  0  0  0  0
 24 29  2  0  0  0  0
 24 31  1  0  0  0  0
 24 72  1  0  0  0  0
 25 80  1  0  0  0  0
 26 81  1  0  0  0  0
 27 30  2  0  0  0  0
 27 80  1  0  0  0  0
 28 82  1  0  0  0  0
 29 83  1  0  0  0  0
 30 84  1  0  0  0  0
 31 85  1  0  0  0  0
 32 63  2  0  0  0  0
 33 64  1  0  0  0  0
 33 67  1  0  0  0  0
 34 68  1  0  0  0  0
 34 74  2  0  0  0  0
 35 50  1  0  0  0  0
 35 70  1  0  0  0  0
 35 75  2  0  0  0  0
 36 60  1  0  0  0  0
 36 65  1  0  0  0  0
 36 76  2  0  0  0  0
 37 58  1  0  0  0  0
 37 69  1  0  0  0  0
 37 77  2  0  0  0  0
 38 61  1  0  0  0  0
 38 71  1  0  0  0  0
 38 78  2  0  0  0  0
 39 66  1  0  0  0  0
 39 72  1  0  0  0  0
 39 79  2  0  0  0  0
 40 43  1  0  0  0  0
 41 50  1  0  0  0  0
 42 65  1  0  0  0  0
 43 45  1  0  0  0  0
 44 46  1  0  0  0  0
 44 47  1  0  0  0  0
 45 49  1  0  0  0  0
 46 51  1  0  0  0  0
 47 66  1  0  0  0  0
 48 51  1  0  0  0  0
 48 66  1  0  0  0  0
 49 70  1  0  0  0  0
 50 65  1  0  0  0  0
 51 64  1  0  0  0  0
 52 61  1  0  0  0  0
 53 62  1  0  0  0  0
 54 62  1  0  0  0  0
 55 62  1  0  0  0  0
 56 72  1  0  0  0  0
 57 73  1  0  0  0  0
 58 59  1  0  0  0  0
 59 81  1  0  0  0  0
 60 62  1  0  0  0  0
 60 71  1  0  0  0  0
 61 73  1  0  0  0  0
 63 64  1  0  0  0  0
M  CHG  1  73   1
M  ISO  4  39 100  59 101  72 100  81 101
M  END
> <Batch ID>
0068

> <Smiles>
CNC(C)C(=O)NC(C(=O)N1Cc2cc([101O:1][101CH2:1]CC(=O)Nc3ccc(F)c([100N:0](C)[100C:0](=O)N4CCCC(n5nc(-c6ccc(Oc7ccc(F)cc7F)cc6)c(C(N)=O)c5N)C4)c3F)ccc2CC1C(=O)NC1CCCc2ccccc21)C(C)(C)C

> <Shape>
0.235

> <Color>
0.076

> <Negative vol penalty>
0.000

$$$$

  -OEChem-04042323273D

 91100  0     1  0  0  0  0  0999 V2000
  -17.3929  -26.3127   22.9831 C   0  0  0  0  0  0  0  0  0  0  0  0
  -18.6392  -25.8522   22.5707 C   0  0  0  0  0  0  0  0  0  0  0  0
  -23.1358  -12.7553   23.2448 C   0  0  0  0  0  0  0  0  0  0  0  0
  -24.8704  -11.1434   23.7245 C   0  0  0  0  0  0  0  0  0  0  0  0
  -17.0838  -27.6686   22.8824 C   0  0  0  0  0  0  0  0  0  0  0  0
  -19.5768  -26.7471   22.0563 C   0  0  0  0  0  0  0  0  0  0  0  0
  -25.6590  -26.4972   22.7272 C   0  0  0  0  0  0  0  0  0  0  0  0
  -22.6020  -12.5600   24.5186 C   0  0  0  0  0  0  0  0  0  0  0  0
  -24.3366  -10.9482   24.9983 C   0  0  0  0  0  0  0  0  0  0  0  0
  -26.6756  -26.0258   21.8977 C   0  0  0  0  0  0  0  0  0  0  0  0
  -21.7589   -9.2577   26.3871 C   0  0  0  0  0  0  0  0  0  0  0  0
  -21.6286   -7.9452   26.8410 C   0  0  0  0  0  0  0  0  0  0  0  0
  -27.0401  -28.2664   21.0814 C   0  0  0  0  0  0  0  0  0  0  0  0
  -27.8424  -20.4182   18.7988 C   0  0  0  0  0  0  0  0  0  0  0  0
  -30.2220  -20.3637   19.2134 C   0  0  0  0  0  0  0  0  0  0  0  0
  -23.0886   -8.4432   28.7004 C   0  0  0  0  0  0  0  0  0  0  0  0
  -24.2699  -12.0469   22.8477 C   0  0  0  0  0  0  0  0  0  0  0  0
  -24.1790  -12.0294   20.2984 C   0  0  0  0  0  0  0  0  0  0  0  0
  -18.0215  -28.5820   22.3755 C   0  0  0  0  0  0  0  0  0  0  0  0
  -25.3174  -27.8572   22.7321 C   0  0  0  0  0  0  0  0  0  0  0  0
  -19.2794  -28.1162   21.9475 C   0  0  0  0  0  0  0  0  0  0  0  0
  -26.0205  -28.7529   21.9138 C   0  0  0  0  0  0  0  0  0  0  0  0
  -27.7661  -19.0495   19.0564 C   0  0  0  0  0  0  0  0  0  0  0  0
  -29.0704  -21.0753   18.8772 C   0  0  0  0  0  0  0  0  0  0  0  0
  -28.9177  -18.3378   19.3926 C   0  0  0  0  0  0  0  0  0  0  0  0
  -23.2024  -11.6565   25.3954 C   0  0  0  0  0  0  0  0  0  0  0  0
  -27.3643  -26.9100   21.0725 C   0  0  0  0  0  0  0  0  0  0  0  0
  -22.5542  -10.1629   27.0899 C   0  0  0  0  0  0  0  0  0  0  0  0
  -22.2934   -7.5379   27.9976 C   0  0  0  0  0  0  0  0  0  0  0  0
  -30.1457  -18.9949   19.4711 C   0  0  0  0  0  0  0  0  0  0  0  0
  -23.2190   -9.7557   28.2465 C   0  0  0  0  0  0  0  0  0  0  0  0
  -24.8214  -12.2478   21.5318 C   0  0  0  0  0  0  0  0  0  0  0  0
  -25.1206  -12.3651   19.3566 C   0  0  0  0  0  0  0  0  0  0  0  0
  -28.6974  -24.3790   17.1091 C   0  0  0  0  0  0  0  0  0  0  0  0
  -22.8498  -11.5647   20.0282 C   0  0  0  0  0  0  0  0  0  0  0  0
  -22.6986  -29.5148   22.0262 C   0  0  0  0  0  0  0  0  0  0  0  0
  -24.4403  -32.0051   23.1605 C   0  0  0  0  0  0  0  0  0  0  0  0
  -27.5172  -33.3337   23.8041 C   0  0  0  0  0  0  0  0  0  0  0  0
  -29.8608  -16.0023   19.4394 C   0  0  0  0  0  0  0  0  0  0  0  0
  -17.6246  -30.0309   22.2419 C   0  0  0  0  0  0  0  0  0  0  0  0
  -24.2363  -28.3541   23.6523 C   0  0  0  0  0  0  0  0  0  0  0  0
  -25.7059  -30.2257   21.8966 C   0  0  0  0  0  0  0  0  0  0  0  0
  -28.2095  -23.0648   17.6829 C   0  0  0  0  0  0  0  0  0  0  0  0
  -18.8098  -30.9704   22.0345 C   0  0  0  0  0  0  0  0  0  0  0  0
  -29.8605  -12.5215   18.6902 C   0  0  0  0  0  0  0  0  0  0  0  0
  -19.7541  -30.4126   20.9744 C   0  0  0  0  0  0  0  0  0  0  0  0
  -28.5072  -12.0376   19.2162 C   0  0  0  0  0  0  0  0  0  0  0  0
  -30.4669  -13.5971   19.5898 C   0  0  0  0  0  0  0  0  0  0  0  0
  -28.2344  -14.2551   20.3974 C   0  0  0  0  0  0  0  0  0  0  0  0
  -30.1457  -23.2618   19.3069 C   0  0  0  0  0  0  0  0  0  0  0  0
  -20.3320  -29.0597   21.4072 C   0  0  1  0  0  0  0  0  0  0  0  0
  -23.6256  -29.6761   23.1976 C   0  0  1  0  0  0  0  0  0  0  0  0
  -27.5541  -13.2177   19.4893 C   0  0  2  0  0  0  0  0  0  0  0  0
  -29.7657  -24.7420   19.3192 C   0  0  2  0  0  0  0  0  0  0  0  0
  -28.6221  -35.4023   24.6972 C   0  0  0  0  0  0  0  0  0  0  0  0
  -23.8524  -33.4487   20.5374 C   0  0  0  0  0  0  0  0  0  0  0  0
  -25.7091  -35.0391   21.0772 C   0  0  0  0  0  0  0  0  0  0  0  0
  -23.7198  -34.8924   22.5751 C   0  0  0  0  0  0  0  0  0  0  0  0
  -29.8867  -26.5043   17.5584 C   0  0  0  0  0  0  0  0  0  0  0  0
  -28.7870  -31.8389   26.0205 C   0  0  0  0  0  0  0  0  0  0  0  0
  -28.6397  -25.0545   20.3065 C   0  0  0  0  0  0  0  0  0  1  0  0
  -25.3990  -33.0025   22.5561 C   0  0  1  0  0  0  0  0  0  0  0  0
  -28.0798  -34.0221   25.0346 C   0  0  2  0  0  0  0  0  0  0  0  0
  -26.4378  -18.3714   18.9627 C   0  0  0  0  0  0  0  0  0  0  0  0
  -24.6750  -34.0677   21.6851 C   0  0  0  0  0  0  0  0  0  0  0  0
  -26.0744  -12.6880   21.3897 N   0  0  0  0  0  0  0  0  0  0  0  0
  -26.2269  -12.7489   20.0559 N   0  0  0  0  0  0  0  0  0  0  0  0
  -29.1466  -22.4478   18.6187 N   0  0  3  0  0  0  0  0  0  0  0  0
  -29.4361  -25.1813   17.9669 N   0  0  0  0  0  0  0  0  0  0  0  0
  -24.6364  -30.6619   22.8096 N   0  0  0  0  0  0  0  0  0  0  0  0
  -29.5089  -14.6846   19.8008 N   0  0  0  0  0  0  0  0  0  0  0  0
  -25.1020  -12.3665   18.0067 N   0  0  0  0  0  0  0  0  0  0  0  0
  -22.6382  -10.1855   19.8957 N   0  0  0  0  0  0  0  0  0  0  0  0
  -28.8581  -16.9469   19.6560 N   0  0  0  0  0  0  0  0  0  0  0  0
  -21.3889  -29.2488   22.3776 N   0  0  0  0  0  0  0  0  0  0  0  0
  -26.1638  -33.5585   23.6671 N   0  0  0  0  0  0  0  0  0  0  0  0
  -29.1856  -33.2131   25.6208 N   0  3  0  0  0  0  0  0  0  0  0  0
  -28.3790  -24.6985   15.9614 O   0  0  0  0  0  0  0  0  0  0  0  0
  -21.8815  -12.3503   19.8915 O   0  0  0  0  0  0  0  0  0  0  0  0
  -23.1386  -29.6250   20.8878 O   0  0  0  0  0  0  0  0  0  0  0  0
  -23.5547  -32.4024   23.9217 O   0  0  0  0  0  0  0  0  0  0  0  0
  -28.2100  -32.6665   23.0389 O   0  0  0  0  0  0  0  0  0  0  0  0
  -30.9602  -16.2685   18.9469 O   0  0  0  0  0  0  0  0  0  0  0  0
  -22.6820  -11.4658   26.6385 O   0  0  0  0  0  0  0  0  0  0  0  0
  -28.3566  -26.4524   20.2614 O   0  0  0  0  0  0  0  0  0  1  0  0
  -22.1669   -6.2779   28.4341 F   0  0  0  0  0  0  0  0  0  0  0  0
  -31.2598  -18.3216   19.7923 F   0  0  0  0  0  0  0  0  0  0  0  0
  -23.9834  -10.6211   28.9266 F   0  0  0  0  0  0  0  0  0  0  0  0
  -25.4194  -19.2135   18.6215 F   0  0  0  0  0  0  0  0  0  0  0  0
  -26.4021  -17.3711   18.0350 F   0  0  0  0  0  0  0  0  0  0  0  0
  -26.0612  -17.7958   20.1403 F   0  0  0  0  0  0  0  0  0  0  0  0
  1  2  1  0  0  0  0
  1  5  2  0  0  0  0
  2  6  2  0  0  0  0
  3  8  2  0  0  0  0
  3 17  1  0  0  0  0
  4  9  1  0  0  0  0
  4 17  2  0  0  0  0
  5 19  1  0  0  0  0
  6 21  1  0  0  0  0
  7 10  2  0  0  0  0
  7 20  1  0  0  0  0
  8 26  1  0  0  0  0
  9 26  2  0  0  0  0
 10 27  1  0  0  0  0
 11 12  2  0  0  0  0
 11 28  1  0  0  0  0
 12 29  1  0  0  0  0
 13 22  1  0  0  0  0
 13 27  2  0  0  0  0
 14 23  1  0  0  0  0
 14 24  2  0  0  0  0
 15 24  1  0  0  0  0
 15 30  2  0  0  0  0
 16 29  2  0  0  0  0
 16 31  1  0  0  0  0
 17 32  1  0  0  0  0
 18 32  1  0  0  0  0
 18 33  2  0  0  0  0
 18 35  1  0  0  0  0
 19 21  2  0  0  0  0
 19 40  1  0  0  0  0
 20 22  2  0  0  0  0
 20 41  1  0  0  0  0
 21 51  1  0  0  0  0
 22 42  1  0  0  0  0
 23 25  2  0  0  0  0
 23 64  1  0  0  0  0
 24 68  1  0  0  0  0
 25 30  1  0  0  0  0
 25 74  1  0  0  0  0
 26 84  1  0  0  0  0
 27 85  1  0  0  0  0
 28 31  2  0  0  0  0
 28 84  1  0  0  0  0
 29 86  1  0  0  0  0
 30 87  1  0  0  0  0
 31 88  1  0  0  0  0
 32 66  2  0  0  0  0
 33 67  1  0  0  0  0
 33 72  1  0  0  0  0
 34 43  1  0  0  0  0
 34 69  1  0  0  0  0
 34 78  2  0  0  0  0
 35 73  1  0  0  0  0
 35 79  2  0  0  0  0
 36 52  1  0  0  0  0
 36 75  1  0  0  0  0
 36 80  2  0  0  0  0
 37 62  1  0  0  0  0
 37 70  1  0  0  0  0
 37 81  2  0  0  0  0
 38 63  1  0  0  0  0
 38 76  1  0  0  0  0
 38 82  2  0  0  0  0
 39 71  1  0  0  0  0
 39 74  1  0  0  0  0
 39 83  2  0  0  0  0
 40 44  1  0  0  0  0
 41 52  1  0  0  0  0
 42 70  1  0  0  0  0
 43 68  1  0  0  0  0
 44 46  1  0  0  0  0
 45 47  1  0  0  0  0
 45 48  1  0  0  0  0
 46 51  1  0  0  0  0
 47 53  1  0  0  0  0
 48 71  1  0  0  0  0
 49 53  1  0  0  0  0
 49 71  1  0  0  0  0
 50 54  1  0  0  0  0
 50 68  1  0  0  0  0
 51 75  1  0  0  0  0
 52 70  1  0  0  0  0
 53 67  1  0  0  0  0
 54 61  1  0  0  0  0
 54 69  1  0  0  0  0
 55 63  1  0  0  0  0
 56 65  1  0  0  0  0
 57 65  1  0  0  0  0
 58 65  1  0  0  0  0
 59 69  1  0  0  0  0
 60 77  1  0  0  0  0
 61 85  1  0  0  0  0
 62 65  1  0  0  0  0
 62 76  1  0  0  0  0
 63 77  1  0  0  0  0
 64 89  1  0  0  0  0
 64 90  1  0  0  0  0
 64 91  1  0  0  0  0
 66 67  1  0  0  0  0
M  CHG  1  77   1
M  ISO  4  39 100  61 101  74 100  85 101
M  END
> <Batch ID>
0068

> <Smiles>
CNC(C)C(=O)NC(C(=O)N1Cc2cc([101O:1][101CH2:1]C3CN(c4cc(F)c([100NH:0][100C:0](=O)N5CCCC(n6nc(-c7ccc(Oc8ccc(F)cc8F)cc7)c(C(N)=O)c6N)C5)c(C(F)(F)F)c4)CC(=O)N3C)ccc2CC1C(=O)NC1CCCc2ccccc21)C(C)(C)C

> <Shape>
0.297

> <Color>
0.108

> <Negative vol penalty>
0.000

$$$$

  -OEChem-04042323273D

 87 96  0     1  0  0  0  0  0999 V2000
  -20.3619  -33.8579   27.0706 C   0  0  0  0  0  0  0  0  0  0  0  0
  -21.5721  -33.1756   27.1427 C   0  0  0  0  0  0  0  0  0  0  0  0
  -24.0177   -9.6515   21.8868 C   0  0  0  0  0  0  0  0  0  0  0  0
  -24.6781  -11.0418   23.7491 C   0  0  0  0  0  0  0  0  0  0  0  0
  -19.4362  -33.5306   26.0807 C   0  0  0  0  0  0  0  0  0  0  0  0
  -21.8569  -32.1647   26.2254 C   0  0  0  0  0  0  0  0  0  0  0  0
  -27.3503  -29.2020   22.7095 C   0  0  0  0  0  0  0  0  0  0  0  0
  -30.9883  -20.1089   19.8561 C   0  0  0  0  0  0  0  0  0  0  0  0
  -30.6789  -18.7725   19.6037 C   0  0  0  0  0  0  0  0  0  0  0  0
  -23.6203   -8.6515   22.7742 C   0  0  0  0  0  0  0  0  0  0  0  0
  -24.2806  -10.0417   24.6366 C   0  0  0  0  0  0  0  0  0  0  0  0
  -27.9295  -27.9568   22.4693 C   0  0  0  0  0  0  0  0  0  0  0  0
  -20.9731   -8.0058   24.7762 C   0  0  0  0  0  0  0  0  0  0  0  0
  -19.7463   -7.3836   24.5446 C   0  0  0  0  0  0  0  0  0  0  0  0
  -26.2883  -27.5310   20.7533 C   0  0  0  0  0  0  0  0  0  0  0  0
  -28.6456  -20.5855   20.2047 C   0  0  0  0  0  0  0  0  0  0  0  0
  -20.8669   -5.2540   24.3300 C   0  0  0  0  0  0  0  0  0  0  0  0
  -24.5467  -10.8466   22.3742 C   0  0  0  0  0  0  0  0  0  0  0  0
  -24.1697  -12.9312   20.9528 C   0  0  0  0  0  0  0  0  0  0  0  0
  -19.7139  -32.5218   25.1449 C   0  0  0  0  0  0  0  0  0  0  0  0
  -26.2272  -29.6172   21.9796 C   0  0  0  0  0  0  0  0  0  0  0  0
  -20.9336  -31.8227   25.2228 C   0  0  0  0  0  0  0  0  0  0  0  0
  -25.6983  -28.7831   20.9844 C   0  0  0  0  0  0  0  0  0  0  0  0
  -28.3361  -19.2491   19.9522 C   0  0  0  0  0  0  0  0  0  0  0  0
  -29.9717  -21.0155   20.1567 C   0  0  0  0  0  0  0  0  0  0  0  0
  -29.3528  -18.3425   19.6517 C   0  0  0  0  0  0  0  0  0  0  0  0
  -23.7517   -8.8466   24.1491 C   0  0  0  0  0  0  0  0  0  0  0  0
  -27.3968  -27.1199   21.4931 C   0  0  0  0  0  0  0  0  0  0  0  0
  -22.1468   -7.2520   24.7846 C   0  0  0  0  0  0  0  0  0  0  0  0
  -19.6932   -6.0077   24.3215 C   0  0  0  0  0  0  0  0  0  0  0  0
  -22.0937   -5.8762   24.5615 C   0  0  0  0  0  0  0  0  0  0  0  0
  -24.9579  -11.8798   21.4580 C   0  0  0  0  0  0  0  0  0  0  0  0
  -25.0178  -13.6316   20.1303 C   0  0  0  0  0  0  0  0  0  0  0  0
  -31.5731  -22.9628   20.4091 C   0  0  0  0  0  0  0  0  0  0  0  0
  -22.7939  -13.2465   21.2047 C   0  0  0  0  0  0  0  0  0  0  0  0
  -23.2293  -30.3762   22.7148 C   0  0  0  0  0  0  0  0  0  0  0  0
  -23.0768  -31.1866   19.5776 C   0  0  0  0  0  0  0  0  0  0  0  0
  -24.3060  -30.7872   16.4190 C   0  0  0  0  0  0  0  0  0  0  0  0
  -29.9636  -15.9654   19.0838 C   0  0  0  0  0  0  0  0  0  0  0  0
  -18.6625  -32.1710   24.1220 C   0  0  0  0  0  0  0  0  0  0  0  0
  -25.6304  -30.9746   22.2323 C   0  0  0  0  0  0  0  0  0  0  0  0
  -24.5060  -29.1905   20.1593 C   0  0  0  0  0  0  0  0  0  0  0  0
  -19.1983  -31.3425   22.9572 C   0  0  0  0  0  0  0  0  0  0  0  0
  -29.6406  -12.4826   18.4181 C   0  0  0  0  0  0  0  0  0  0  0  0
  -20.0702  -30.2010   23.4706 C   0  0  0  0  0  0  0  0  0  0  0  0
  -28.3287  -12.1018   19.1081 C   0  0  0  0  0  0  0  0  0  0  0  0
  -30.4194  -13.5262   19.2169 C   0  0  0  0  0  0  0  0  0  0  0  0
  -28.3464  -14.3498   20.2628 C   0  0  0  0  0  0  0  0  0  0  0  0
  -29.2753  -23.3524   20.7963 C   0  0  0  0  0  0  0  0  0  0  0  0
  -21.2894  -30.7368   24.2306 C   0  0  1  0  0  0  0  0  0  0  0  0
  -31.4108  -24.4055   20.8704 C   0  0  2  0  0  0  0  0  0  0  0  0
  -24.1759  -31.0805   21.7844 C   0  0  1  0  0  0  0  0  0  0  0  0
  -27.4960  -13.3492   19.4632 C   0  0  2  0  0  0  0  0  0  0  0  0
  -29.9341  -24.7165   20.5501 C   0  0  1  0  0  0  0  0  0  0  0  0
  -26.9074  -18.8156   20.0124 C   0  0  0  0  0  0  0  0  0  0  0  0
  -32.4462  -25.3349   20.2569 C   0  0  0  0  0  0  0  0  0  0  0  0
  -29.7073  -25.1591   19.0925 C   0  0  0  0  0  0  0  0  0  0  0  0
  -23.9525  -31.5545   14.0560 C   0  0  0  0  0  0  0  0  0  0  0  0
  -20.6339  -29.3719   19.3564 C   0  0  0  0  0  0  0  0  0  0  0  0
  -20.9067  -29.4245   16.8682 C   0  0  0  0  0  0  0  0  0  0  0  0
  -20.4427  -31.5346   18.1152 C   0  0  0  0  0  0  0  0  0  0  0  0
  -27.0219  -31.9535   16.2686 C   0  0  0  0  0  0  0  0  0  0  0  0
  -29.3620  -25.7804   21.4921 C   0  0  0  0  0  0  0  0  0  1  0  0
  -22.7239  -30.4607   18.3018 C   0  0  1  0  0  0  0  0  0  0  0  0
  -24.7017  -31.7971   15.3570 C   0  0  2  0  0  0  0  0  0  0  0  0
  -21.1981  -30.1891   18.1771 C   0  0  0  0  0  0  0  0  0  0  0  0
  -26.2105  -11.9060   20.9949 N   0  0  0  0  0  0  0  0  0  0  0  0
  -26.2157  -12.9823   20.1901 N   0  0  0  0  0  0  0  0  0  0  0  0
  -30.2888  -22.3824   20.4177 N   0  0  0  0  0  0  0  0  0  0  0  0
  -23.9540  -30.5244   20.4481 N   0  0  0  0  0  0  0  0  0  0  0  0
  -29.5684  -14.6808   19.5130 N   0  0  0  0  0  0  0  0  0  0  0  0
  -24.8482  -14.7333   19.3688 N   0  0  0  0  0  0  0  0  0  0  0  0
  -22.0683  -12.4226   22.0760 N   0  0  0  0  0  0  0  0  0  0  0  0
  -29.0592  -16.9805   19.3938 N   0  0  0  0  0  0  0  0  0  0  0  0
  -22.2960  -31.2079   23.3035 N   0  0  0  0  0  0  0  0  0  0  0  0
  -23.2803  -31.2559   17.2125 N   0  0  0  0  0  0  0  0  0  0  0  0
  -26.1636  -31.7120   15.0803 N   0  3  0  0  0  0  0  0  0  0  0  0
  -32.6577  -22.4566   20.1601 O   0  0  0  0  0  0  0  0  0  0  0  0
  -22.2203  -14.2201   20.6601 O   0  0  0  0  0  0  0  0  0  0  0  0
  -23.3368  -29.1673   22.8847 O   0  0  0  0  0  0  0  0  0  0  0  0
  -22.5976  -32.3032   19.7904 O   0  0  0  0  0  0  0  0  0  0  0  0
  -24.8497  -29.6907   16.5310 O   0  0  0  0  0  0  0  0  0  0  0  0
  -31.0131  -16.1473   18.4613 O   0  0  0  0  0  0  0  0  0  0  0  0
  -23.3638   -7.8711   25.0154 O   0  0  0  0  0  0  0  0  0  0  0  0
  -27.9599  -25.9037   21.2571 O   0  0  0  0  0  0  0  0  0  1  0  0
  -18.5150   -5.4102   24.1007 F   0  0  0  0  0  0  0  0  0  0  0  0
  -23.2177   -5.1466   24.5695 F   0  0  0  0  0  0  0  0  0  0  0  0
  1  2  1  0  0  0  0
  1  5  2  0  0  0  0
  2  6  2  0  0  0  0
  3 10  2  0  0  0  0
  3 18  1  0  0  0  0
  4 11  1  0  0  0  0
  4 18  2  0  0  0  0
  5 20  1  0  0  0  0
  6 22  1  0  0  0  0
  7 12  2  0  0  0  0
  7 21  1  0  0  0  0
  8  9  2  0  0  0  0
  8 25  1  0  0  0  0
  9 26  1  0  0  0  0
 10 27  1  0  0  0  0
 11 27  2  0  0  0  0
 12 28  1  0  0  0  0
 13 14  2  0  0  0  0
 13 29  1  0  0  0  0
 14 30  1  0  0  0  0
 15 23  1  0  0  0  0
 15 28  2  0  0  0  0
 16 24  1  0  0  0  0
 16 25  2  0  0  0  0
 17 30  2  0  0  0  0
 17 31  1  0  0  0  0
 18 32  1  0  0  0  0
 19 32  1  0  0  0  0
 19 33  2  0  0  0  0
 19 35  1  0  0  0  0
 20 22  2  0  0  0  0
 20 40  1  0  0  0  0
 21 23  2  0  0  0  0
 21 41  1  0  0  0  0
 22 50  1  0  0  0  0
 23 42  1  0  0  0  0
 24 26  2  0  0  0  0
 24 55  1  0  0  0  0
 25 69  1  0  0  0  0
 26 74  1  0  0  0  0
 27 84  1  0  0  0  0
 28 85  1  0  0  0  0
 29 31  2  0  0  0  0
 29 84  1  0  0  0  0
 30 86  1  0  0  0  0
 31 87  1  0  0  0  0
 32 67  2  0  0  0  0
 33 68  1  0  0  0  0
 33 72  1  0  0  0  0
 34 51  1  0  0  0  0
 34 69  1  0  0  0  0
 34 78  2  0  0  0  0
 35 73  1  0  0  0  0
 35 79  2  0  0  0  0
 36 52  1  0  0  0  0
 36 75  1  0  0  0  0
 36 80  2  0  0  0  0
 37 64  1  0  0  0  0
 37 70  1  0  0  0  0
 37 81  2  0  0  0  0
 38 65  1  0  0  0  0
 38 76  1  0  0  0  0
 38 82  2  0  0  0  0
 39 71  1  0  0  0  0
 39 74  1  0  0  0  0
 39 83  2  0  0  0  0
 40 43  1  0  0  0  0
 41 52  1  0  0  0  0
 42 70  1  0  0  0  0
 43 45  1  0  0  0  0
 44 46  1  0  0  0  0
 44 47  1  0  0  0  0
 45 50  1  0  0  0  0
 46 53  1  0  0  0  0
 47 71  1  0  0  0  0
 48 53  1  0  0  0  0
 48 71  1  0  0  0  0
 49 54  1  0  0  0  0
 49 69  1  0  0  0  0
 50 75  1  0  0  0  0
 51 54  1  0  0  0  0
 51 56  1  0  0  0  0
 52 70  1  0  0  0  0
 53 68  1  0  0  0  0
 54 57  1  0  0  0  0
 54 63  1  0  0  0  0
 58 65  1  0  0  0  0
 59 66  1  0  0  0  0
 60 66  1  0  0  0  0
 61 66  1  0  0  0  0
 62 77  1  0  0  0  0
 63 85  1  0  0  0  0
 64 66  1  0  0  0  0
 64 76  1  0  0  0  0
 65 77  1  0  0  0  0
 67 68  1  0  0  0  0
M  CHG  1  77   1
M  ISO  4  39 100  63 101  74 100  85 101
M  END
> <Batch ID>
0068

> <Smiles>
CNC(C)C(=O)NC(C(=O)N1Cc2cc([101O:1][101CH2:1]C3(C)CN(c4ccc([100NH:0][100C:0](=O)N5CCCC(n6nc(-c7ccc(Oc8ccc(F)cc8F)cc7)c(C(N)=O)c6N)C5)c(C)c4)C(=O)C3C)ccc2CC1C(=O)NC1CCCc2ccccc21)C(C)(C)C

> <Shape>
0.273

> <Color>
0.125

> <Negative vol penalty>
0.000

$$$$

  -OEChem-04042323273D

 88 96  0     1  0  0  0  0  0999 V2000
  -18.0741  -16.6184   28.6536 C   0  0  0  0  0  0  0  0  0  0  0  0
  -19.3078  -17.1045   28.2326 C   0  0  0  0  0  0  0  0  0  0  0  0
  -23.0962   -9.8645   20.0023 C   0  0  0  0  0  0  0  0  0  0  0  0
  -23.7855   -9.9991   22.3140 C   0  0  0  0  0  0  0  0  0  0  0  0
  -16.9574  -16.7464   27.8286 C   0  0  0  0  0  0  0  0  0  0  0  0
  -19.4257  -17.7178   26.9859 C   0  0  0  0  0  0  0  0  0  0  0  0
  -22.1488  -21.9835   27.1692 C   0  0  0  0  0  0  0  0  0  0  0  0
  -22.3505   -8.7217   20.2911 C   0  0  0  0  0  0  0  0  0  0  0  0
  -23.0397   -8.8563   22.6028 C   0  0  0  0  0  0  0  0  0  0  0  0
  -23.5355  -21.8517   27.2275 C   0  0  0  0  0  0  0  0  0  0  0  0
  -19.7984   -8.0715   23.1491 C   0  0  0  0  0  0  0  0  0  0  0  0
  -19.0061   -8.0895   24.2969 C   0  0  0  0  0  0  0  0  0  0  0  0
  -23.6719  -22.3036   24.8618 C   0  0  0  0  0  0  0  0  0  0  0  0
  -29.7624  -17.6574   22.9925 C   0  0  0  0  0  0  0  0  0  0  0  0
  -31.9675  -16.7928   22.5167 C   0  0  0  0  0  0  0  0  0  0  0  0
  -20.2334   -6.2021   25.1737 C   0  0  0  0  0  0  0  0  0  0  0  0
  -23.8138  -10.5032   21.0137 C   0  0  0  0  0  0  0  0  0  0  0  0
  -24.1473  -13.0204   20.7687 C   0  0  0  0  0  0  0  0  0  0  0  0
  -17.0597  -17.3702   26.5752 C   0  0  0  0  0  0  0  0  0  0  0  0
  -21.5112  -22.2661   25.9526 C   0  0  0  0  0  0  0  0  0  0  0  0
  -18.3097  -17.8530   26.1428 C   0  0  0  0  0  0  0  0  0  0  0  0
  -22.2772  -22.4411   24.7913 C   0  0  0  0  0  0  0  0  0  0  0  0
  -31.6977  -18.6280   24.0647 C   0  0  0  0  0  0  0  0  0  0  0  0
  -30.5874  -16.7576   22.3179 C   0  0  0  0  0  0  0  0  0  0  0  0
  -30.3175  -18.5927   23.8659 C   0  0  0  0  0  0  0  0  0  0  0  0
  -22.3222   -8.2176   21.5914 C   0  0  0  0  0  0  0  0  0  0  0  0
  -24.2970  -22.0089   26.0732 C   0  0  0  0  0  0  0  0  0  0  0  0
  -20.8081   -7.1187   23.0135 C   0  0  0  0  0  0  0  0  0  0  0  0
  -19.2236   -7.1548   25.3093 C   0  0  0  0  0  0  0  0  0  0  0  0
  -32.5227  -17.7281   23.3901 C   0  0  0  0  0  0  0  0  0  0  0  0
  -21.0257   -6.1841   24.0258 C   0  0  0  0  0  0  0  0  0  0  0  0
  -24.5848  -11.6834   20.7158 C   0  0  0  0  0  0  0  0  0  0  0  0
  -25.2466  -13.7562   20.3990 C   0  0  0  0  0  0  0  0  0  0  0  0
  -27.5503  -20.6710   25.3181 C   0  0  0  0  0  0  0  0  0  0  0  0
  -26.2356  -20.9095   25.3633 C   0  0  0  0  0  0  0  0  0  1  0  0
  -22.8622  -13.5498   21.1205 C   0  0  0  0  0  0  0  0  0  0  0  0
  -28.0806  -19.5828   24.4458 C   0  0  0  0  0  0  0  0  0  0  0  0
  -19.3836  -20.7613   24.1325 C   0  0  0  0  0  0  0  0  0  0  0  0
  -19.4695  -23.5205   22.4290 C   0  0  0  0  0  0  0  0  0  0  0  0
  -33.3979  -21.4036   23.6436 C   0  0  0  0  0  0  0  0  0  0  0  0
  -21.1927  -26.3337   21.5556 C   0  0  0  0  0  0  0  0  0  0  0  0
  -30.6999  -14.8442   20.6831 C   0  0  0  0  0  0  0  0  0  0  0  0
  -15.8347  -17.4430   25.6984 C   0  0  0  0  0  0  0  0  0  0  0  0
  -20.0168  -22.4316   25.9116 C   0  0  0  0  0  0  0  0  0  0  0  0
  -21.6428  -22.7653   23.4643 C   0  0  0  0  0  0  0  0  0  0  0  0
  -15.9658  -18.4406   24.5504 C   0  0  0  0  0  0  0  0  0  0  0  0
  -29.6699  -12.3001   18.4151 C   0  0  0  0  0  0  0  0  0  0  0  0
  -17.3090  -18.2720   23.8474 C   0  0  0  0  0  0  0  0  0  0  0  0
  -28.2191  -12.0228   18.8158 C   0  0  0  0  0  0  0  0  0  0  0  0
  -30.5467  -12.5986   19.6299 C   0  0  0  0  0  0  0  0  0  0  0  0
  -28.5949  -13.3839   20.9118 C   0  0  0  0  0  0  0  0  0  0  0  0
  -18.4726  -18.5466   24.8077 C   0  0  1  0  0  0  0  0  0  0  0  0
  -19.4292  -22.2121   24.5209 C   0  0  1  0  0  0  0  0  0  0  0  0
  -27.6595  -13.1417   19.7160 C   0  0  2  0  0  0  0  0  0  0  0  0
  -33.2303  -22.8080   23.1663 C   0  0  0  0  0  0  0  0  0  0  0  0
  -21.0206  -28.3818   20.1158 C   0  0  0  0  0  0  0  0  0  0  0  0
  -20.0601  -21.8302   19.9584 C   0  0  0  0  0  0  0  0  0  0  0  0
  -20.8051  -23.9177   18.7941 C   0  0  0  0  0  0  0  0  0  0  0  0
  -18.4472  -23.7036   19.5795 C   0  0  0  0  0  0  0  0  0  0  0  0
  -21.3789  -28.1361   23.8957 C   0  0  0  0  0  0  0  0  0  0  0  0
  -32.3164  -19.6194   24.9962 C   0  0  0  0  0  0  0  0  0  0  0  0
  -20.2926  -24.0391   21.2747 C   0  0  1  0  0  0  0  0  0  0  0  0
  -20.7763  -27.7923   21.4962 C   0  0  2  0  0  0  0  0  0  0  0  0
  -19.9134  -23.3646   19.9262 C   0  0  0  0  0  0  0  0  0  0  0  0
  -25.8624  -11.5733   20.3419 N   0  0  0  0  0  0  0  0  0  0  0  0
  -26.2370  -12.8505   20.1563 N   0  0  0  0  0  0  0  0  0  0  0  0
  -20.1778  -22.9110   23.4743 N   0  0  0  0  0  0  0  0  0  0  0  0
  -29.9563  -13.6714   20.4333 N   0  0  0  0  0  0  0  0  0  0  0  0
  -25.4529  -15.0832   20.2610 N   0  0  0  0  0  0  0  0  0  0  0  0
  -21.8447  -12.6537   21.4753 N   0  0  0  0  0  0  0  0  0  0  0  0
  -29.4632  -19.4984   24.5417 N   0  0  0  0  0  0  0  0  0  0  0  0
  -30.0234  -15.8076   21.4306 N   0  0  0  0  0  0  0  0  0  0  0  0
  -18.6481  -19.9709   24.9949 N   0  0  0  0  0  0  0  0  0  0  0  0
  -32.3572  -20.9439   24.4333 N   0  0  0  0  0  0  0  0  0  0  0  0
  -20.1373  -25.4897   21.2818 N   0  0  0  0  0  0  0  0  0  0  0  0
  -21.5454  -28.5916   22.4914 N   0  3  0  0  0  0  0  0  0  0  0  0
  -22.6185  -14.7802   21.1045 O   0  0  0  0  0  0  0  0  0  0  0  0
  -27.3315  -18.8948   23.7623 O   0  0  0  0  0  0  0  0  0  0  0  0
  -19.9710  -20.3870   23.1243 O   0  0  0  0  0  0  0  0  0  0  0  0
  -18.2438  -23.6577   22.4075 O   0  0  0  0  0  0  0  0  0  0  0  0
  -34.3974  -20.7715   23.3223 O   0  0  0  0  0  0  0  0  0  0  0  0
  -22.3404  -25.9787   21.8151 O   0  0  0  0  0  0  0  0  0  0  0  0
  -31.8420  -14.9948   20.2415 O   0  0  0  0  0  0  0  0  0  0  0  0
  -21.5944   -7.1026   21.8736 O   0  0  0  0  0  0  0  0  0  0  0  0
  -25.6507  -21.8801   26.1272 O   0  0  0  0  0  0  0  0  0  1  0  0
  -18.4637   -7.1732   26.4122 F   0  0  0  0  0  0  0  0  0  0  0  0
  -33.8501  -17.7526   23.5753 F   0  0  0  0  0  0  0  0  0  0  0  0
  -21.9950   -5.2671   23.9017 F   0  0  0  0  0  0  0  0  0  0  0  0
  1  2  1  0  0  0  0
  1  5  2  0  0  0  0
  2  6  2  0  0  0  0
  3  8  2  0  0  0  0
  3 17  1  0  0  0  0
  4  9  1  0  0  0  0
  4 17  2  0  0  0  0
  5 19  1  0  0  0  0
  6 21  1  0  0  0  0
  7 10  2  0  0  0  0
  7 20  1  0  0  0  0
  8 26  1  0  0  0  0
  9 26  2  0  0  0  0
 10 27  1  0  0  0  0
 11 12  2  0  0  0  0
 11 28  1  0  0  0  0
 12 29  1  0  0  0  0
 13 22  1  0  0  0  0
 13 27  2  0  0  0  0
 14 24  2  0  0  0  0
 14 25  1  0  0  0  0
 15 24  1  0  0  0  0
 15 30  2  0  0  0  0
 16 29  2  0  0  0  0
 16 31  1  0  0  0  0
 17 32  1  0  0  0  0
 18 32  1  0  0  0  0
 18 33  2  0  0  0  0
 18 36  1  0  0  0  0
 19 21  2  0  0  0  0
 19 43  1  0  0  0  0
 20 22  2  0  0  0  0
 20 44  1  0  0  0  0
 21 52  1  0  0  0  0
 22 45  1  0  0  0  0
 23 25  2  0  0  0  0
 23 30  1  0  0  0  0
 23 61  1  0  0  0  0
 24 72  1  0  0  0  0
 25 71  1  0  0  0  0
 26 84  1  0  0  0  0
 27 85  1  0  0  0  0
 28 31  2  0  0  0  0
 28 84  1  0  0  0  0
 29 86  1  0  0  0  0
 30 87  1  0  0  0  0
 31 88  1  0  0  0  0
 32 65  2  0  0  0  0
 33 66  1  0  0  0  0
 33 69  1  0  0  0  0
 34 35  2  0  0  0  0
 34 37  1  0  0  0  0
 35 85  1  0  0  0  0
 36 70  1  0  0  0  0
 36 77  2  0  0  0  0
 37 71  1  0  0  0  0
 37 78  2  0  0  0  0
 38 53  1  0  0  0  0
 38 73  1  0  0  0  0
 38 79  2  0  0  0  0
 39 62  1  0  0  0  0
 39 67  1  0  0  0  0
 39 80  2  0  0  0  0
 40 55  1  0  0  0  0
 40 74  1  0  0  0  0
 40 81  2  0  0  0  0
 41 63  1  0  0  0  0
 41 75  1  0  0  0  0
 41 82  2  0  0  0  0
 42 68  1  0  0  0  0
 42 72  1  0  0  0  0
 42 83  2  0  0  0  0
 43 46  1  0  0  0  0
 44 53  1  0  0  0  0
 45 67  1  0  0  0  0
 46 48  1  0  0  0  0
 47 49  1  0  0  0  0
 47 50  1  0  0  0  0
 48 52  1  0  0  0  0
 49 54  1  0  0  0  0
 50 68  1  0  0  0  0
 51 54  1  0  0  0  0
 51 68  1  0  0  0  0
 52 73  1  0  0  0  0
 53 67  1  0  0  0  0
 54 66  1  0  0  0  0
 56 63  1  0  0  0  0
 57 64  1  0  0  0  0
 58 64  1  0  0  0  0
 59 64  1  0  0  0  0
 60 76  1  0  0  0  0
 61 74  1  0  0  0  0
 62 64  1  0  0  0  0
 62 75  1  0  0  0  0
 63 76  1  0  0  0  0
 65 66  1  0  0  0  0
M  CHG  1  76   1
M  ISO  4  35 101  42 100  72 100  85 101
M  END
> <Batch ID>
0068

> <Smiles>
CNC(C)C(=O)NC(C(=O)N1Cc2cc([101O:1][101CH:1]=CC(=O)Nc3cc([100NH:0][100C:0](=O)N4CCCC(n5nc(-c6ccc(Oc7ccc(F)cc7F)cc6)c(C(N)=O)c5N)C4)cc(F)c3CNC(C)=O)ccc2CC1C(=O)NC1CCCc2ccccc21)C(C)(C)C

> <Shape>
0.195

> <Color>
0.194

> <Negative vol penalty>
0.000

$$$$

  -OEChem-04042323273D

 83 91  0     1  0  0  0  0  0999 V2000
  -23.6088  -30.7169   20.2699 C   0  0  0  0  0  0  0  0  0  0  0  0
  -23.7825  -29.3436   20.4088 C   0  0  0  0  0  0  0  0  0  0  0  0
  -22.9512   -9.8888   20.0494 C   0  0  0  0  0  0  0  0  0  0  0  0
  -23.6091  -10.0752   22.3666 C   0  0  0  0  0  0  0  0  0  0  0  0
  -24.3451  -31.5953   21.0638 C   0  0  0  0  0  0  0  0  0  0  0  0
  -24.6934  -28.8479   21.3410 C   0  0  0  0  0  0  0  0  0  0  0  0
  -24.1638  -23.7121   24.6347 C   0  0  0  0  0  0  0  0  0  0  0  0
  -22.1504   -8.7912   20.3650 C   0  0  0  0  0  0  0  0  0  0  0  0
  -22.8083   -8.9775   22.6822 C   0  0  0  0  0  0  0  0  0  0  0  0
  -24.6901  -22.4320   24.4673 C   0  0  0  0  0  0  0  0  0  0  0  0
  -22.9871   -5.6103   22.4361 C   0  0  0  0  0  0  0  0  0  0  0  0
  -23.5279   -4.6321   23.2705 C   0  0  0  0  0  0  0  0  0  0  0  0
  -26.5006  -22.9875   25.9615 C   0  0  0  0  0  0  0  0  0  0  0  0
  -32.0834  -16.5027   22.4738 C   0  0  0  0  0  0  0  0  0  0  0  0
  -29.9122  -17.4808   22.8814 C   0  0  0  0  0  0  0  0  0  0  0  0
  -21.7616   -5.0220   24.8722 C   0  0  0  0  0  0  0  0  0  0  0  0
  -23.6805  -10.5308   21.0502 C   0  0  0  0  0  0  0  0  0  0  0  0
  -24.1304  -13.0204   20.7231 C   0  0  0  0  0  0  0  0  0  0  0  0
  -25.2585  -31.1099   22.0129 C   0  0  0  0  0  0  0  0  0  0  0  0
  -24.8090  -24.6447   25.4596 C   0  0  0  0  0  0  0  0  0  0  0  0
  -25.4436  -29.7207   22.1473 C   0  0  0  0  0  0  0  0  0  0  0  0
  -25.9791  -24.2780   26.1397 C   0  0  0  0  0  0  0  0  0  0  0  0
  -32.6664  -17.4426   23.3237 C   0  0  0  0  0  0  0  0  0  0  0  0
  -30.7063  -16.5218   22.2526 C   0  0  0  0  0  0  0  0  0  0  0  0
  -30.4951  -18.4206   23.7314 C   0  0  0  0  0  0  0  0  0  0  0  0
  -31.8723  -18.4015   23.9525 C   0  0  0  0  0  0  0  0  0  0  0  0
  -22.0789   -8.3356   21.6814 C   0  0  0  0  0  0  0  0  0  0  0  0
  -25.8603  -22.0704   25.1285 C   0  0  0  0  0  0  0  0  0  0  0  0
  -21.8336   -6.2944   22.8197 C   0  0  0  0  0  0  0  0  0  0  0  0
  -22.9152   -4.3379   24.4886 C   0  0  0  0  0  0  0  0  0  0  0  0
  -21.2208   -6.0002   24.0377 C   0  0  0  0  0  0  0  0  0  0  0  0
  -24.5083  -11.6643   20.7247 C   0  0  0  0  0  0  0  0  0  0  0  0
  -25.2673  -13.6932   20.3471 C   0  0  0  0  0  0  0  0  0  0  0  0
  -22.8650  -13.6184   21.0339 C   0  0  0  0  0  0  0  0  0  0  0  0
  -26.1529  -27.4892   25.0057 C   0  0  0  0  0  0  0  0  0  0  0  0
  -26.4198  -27.4451   28.2382 C   0  0  0  0  0  0  0  0  0  0  0  0
  -28.2898  -19.5242   24.2340 C   0  0  0  0  0  0  0  0  0  0  0  0
  -26.5913  -25.6033   31.1062 C   0  0  0  0  0  0  0  0  0  0  0  0
  -30.7587  -14.5482   20.6879 C   0  0  0  0  0  0  0  0  0  0  0  0
  -26.0662  -32.0992   22.8152 C   0  0  0  0  0  0  0  0  0  0  0  0
  -24.2138  -26.0128   25.6507 C   0  0  0  0  0  0  0  0  0  0  0  0
  -26.6989  -25.2356   27.0525 C   0  0  0  0  0  0  0  0  0  0  0  0
  -26.7376  -31.4854   24.0410 C   0  0  0  0  0  0  0  0  0  0  0  0
  -29.6517  -11.9728   18.4927 C   0  0  0  0  0  0  0  0  0  0  0  0
  -27.4215  -30.1723   23.6737 C   0  0  0  0  0  0  0  0  0  0  0  0
  -28.1838  -11.7745   18.8776 C   0  0  0  0  0  0  0  0  0  0  0  0
  -30.5217  -12.2755   19.7114 C   0  0  0  0  0  0  0  0  0  0  0  0
  -28.5870  -13.1916   20.9309 C   0  0  0  0  0  0  0  0  0  0  0  0
  -26.4041  -29.1440   23.1646 C   0  0  1  0  0  0  0  0  0  0  0  0
  -25.2343  -27.0494   26.1104 C   0  0  1  0  0  0  0  0  0  0  0  0
  -27.6607  -12.9485   19.7282 C   0  0  2  0  0  0  0  0  0  0  0  0
  -34.1441  -17.3967   23.5416 C   0  0  0  0  0  0  0  0  0  0  0  0
  -26.8459  -25.8461   33.5909 C   0  0  0  0  0  0  0  0  0  0  0  0
  -29.3954  -28.0146   27.8753 C   0  0  0  0  0  0  0  0  0  0  0  0
  -29.7489  -27.3101   30.2516 C   0  0  0  0  0  0  0  0  0  0  0  0
  -28.3102  -29.2822   29.7380 C   0  0  0  0  0  0  0  0  0  0  0  0
  -23.9665  -24.3348   31.6159 C   0  0  0  0  0  0  0  0  0  0  0  0
  -27.7928  -20.6854   25.0748 C   0  0  0  0  0  0  0  0  0  1  0  0
  -27.4597  -26.9587   29.2186 C   0  0  1  0  0  0  0  0  0  0  0  0
  -25.8660  -25.7357   32.4332 C   0  0  2  0  0  0  0  0  0  0  0  0
  -28.7163  -27.8738   29.2522 C   0  0  0  0  0  0  0  0  0  0  0  0
  -25.7854  -11.4845   20.3771 N   0  0  0  0  0  0  0  0  0  0  0  0
  -26.2198  -12.7364   20.1536 N   0  0  0  0  0  0  0  0  0  0  0  0
  -26.0811  -26.5636   27.2019 N   0  0  0  0  0  0  0  0  0  0  0  0
  -29.9673  -13.4013   20.4664 N   0  0  0  0  0  0  0  0  0  0  0  0
  -32.4674  -19.3529   24.8143 N   0  0  0  0  0  0  0  0  0  0  0  0
  -25.5351  -15.0039   20.1664 N   0  0  0  0  0  0  0  0  0  0  0  0
  -21.8028  -12.7814   21.4020 N   0  0  0  0  0  0  0  0  0  0  0  0
  -29.6678  -19.3831   24.3572 N   0  0  0  0  0  0  0  0  0  0  0  0
  -30.1144  -15.5667   21.3894 N   0  0  0  0  0  0  0  0  0  0  0  0
  -25.6785  -28.5599   24.2722 N   0  0  0  0  0  0  0  0  0  0  0  0
  -26.7805  -26.8288   30.5032 N   0  0  0  0  0  0  0  0  0  0  0  0
  -24.9937  -24.5502   32.6672 N   0  3  0  0  0  0  0  0  0  0  0  0
  -22.6770  -14.8571   20.9706 O   0  0  0  0  0  0  0  0  0  0  0  0
  -27.2143  -26.9017   24.8326 O   0  0  0  0  0  0  0  0  0  0  0  0
  -25.9211  -28.5630   28.3906 O   0  0  0  0  0  0  0  0  0  0  0  0
  -27.5227  -18.8442   23.5603 O   0  0  0  0  0  0  0  0  0  0  0  0
  -26.9571  -24.5215   30.6520 O   0  0  0  0  0  0  0  0  0  0  0  0
  -31.9133  -14.6322   20.2613 O   0  0  0  0  0  0  0  0  0  0  0  0
  -21.2975   -7.2647   21.9898 O   0  0  0  0  0  0  0  0  0  0  0  0
  -26.3765  -20.8218   24.9663 O   0  0  0  0  0  0  0  0  0  1  0  0
  -23.4337   -3.3975   25.2891 F   0  0  0  0  0  0  0  0  0  0  0  0
  -20.1118   -6.6532   24.4111 F   0  0  0  0  0  0  0  0  0  0  0  0
  1  2  1  0  0  0  0
  1  5  2  0  0  0  0
  2  6  2  0  0  0  0
  3  8  2  0  0  0  0
  3 17  1  0  0  0  0
  4  9  1  0  0  0  0
  4 17  2  0  0  0  0
  5 19  1  0  0  0  0
  6 21  1  0  0  0  0
  7 10  2  0  0  0  0
  7 20  1  0  0  0  0
  8 27  1  0  0  0  0
  9 27  2  0  0  0  0
 10 28  1  0  0  0  0
 11 12  2  0  0  0  0
 11 29  1  0  0  0  0
 12 30  1  0  0  0  0
 13 22  1  0  0  0  0
 13 28  2  0  0  0  0
 14 23  2  0  0  0  0
 14 24  1  0  0  0  0
 15 24  2  0  0  0  0
 15 25  1  0  0  0  0
 16 30  2  0  0  0  0
 16 31  1  0  0  0  0
 17 32  1  0  0  0  0
 18 32  1  0  0  0  0
 18 33  2  0  0  0  0
 18 34  1  0  0  0  0
 19 21  2  0  0  0  0
 19 40  1  0  0  0  0
 20 22  2  0  0  0  0
 20 41  1  0  0  0  0
 21 49  1  0  0  0  0
 22 42  1  0  0  0  0
 23 26  1  0  0  0  0
 23 52  1  0  0  0  0
 24 70  1  0  0  0  0
 25 26  2  0  0  0  0
 25 69  1  0  0  0  0
 26 66  1  0  0  0  0
 27 80  1  0  0  0  0
 28 81  1  0  0  0  0
 29 31  2  0  0  0  0
 29 80  1  0  0  0  0
 30 82  1  0  0  0  0
 31 83  1  0  0  0  0
 32 62  2  0  0  0  0
 33 63  1  0  0  0  0
 33 67  1  0  0  0  0
 34 68  1  0  0  0  0
 34 74  2  0  0  0  0
 35 50  1  0  0  0  0
 35 71  1  0  0  0  0
 35 75  2  0  0  0  0
 36 59  1  0  0  0  0
 36 64  1  0  0  0  0
 36 76  2  0  0  0  0
 37 58  1  0  0  0  0
 37 69  1  0  0  0  0
 37 77  2  0  0  0  0
 38 60  1  0  0  0  0
 38 72  1  0  0  0  0
 38 78  2  0  0  0  0
 39 65  1  0  0  0  0
 39 70  1  0  0  0  0
 39 79  2  0  0  0  0
 40 43  1  0  0  0  0
 41 50  1  0  0  0  0
 42 64  1  0  0  0  0
 43 45  1  0  0  0  0
 44 46  1  0  0  0  0
 44 47  1  0  0  0  0
 45 49  1  0  0  0  0
 46 51  1  0  0  0  0
 47 65  1  0  0  0  0
 48 51  1  0  0  0  0
 48 65  1  0  0  0  0
 49 71  1  0  0  0  0
 50 64  1  0  0  0  0
 51 63  1  0  0  0  0
 53 60  1  0  0  0  0
 54 61  1  0  0  0  0
 55 61  1  0  0  0  0
 56 61  1  0  0  0  0
 57 73  1  0  0  0  0
 58 81  1  0  0  0  0
 59 61  1  0  0  0  0
 59 72  1  0  0  0  0
 60 73  1  0  0  0  0
 62 63  1  0  0  0  0
M  CHG  1  73   1
M  ISO  4  39 100  58 101  70 100  81 101
M  END
> <Batch ID>
0068

> <Smiles>
CNC(C)C(=O)NC(C(=O)N1Cc2cc([101O:1][101CH2:1]C(=O)Nc3cc([100NH:0][100C:0](=O)N4CCCC(n5nc(-c6ccc(Oc7ccc(F)cc7F)cc6)c(C(N)=O)c5N)C4)cc(C)c3N)ccc2CC1C(=O)NC1CCCc2ccccc21)C(C)(C)C

> <Shape>
0.239

> <Color>
0.205

> <Negative vol penalty>
0.000

$$$$

  -OEChem-04042323273D

 84 92  0     1  0  0  0  0  0999 V2000
  -28.2190  -24.0844   17.4656 C   0  0  0  0  0  0  0  0  0  0  0  0
  -27.0549  -24.2949   18.1977 C   0  0  0  0  0  0  0  0  0  0  0  0
  -27.4264  -12.8784   20.6007 C   0  0  0  0  0  0  0  0  0  0  0  0
  -25.6005  -12.9158   19.0190 C   0  0  0  0  0  0  0  0  0  0  0  0
  -29.4057  -24.7065   17.8511 C   0  0  0  0  0  0  0  0  0  0  0  0
  -27.0771  -25.1269   19.3165 C   0  0  0  0  0  0  0  0  0  0  0  0
  -23.1369  -28.3052   19.4525 C   0  0  0  0  0  0  0  0  0  0  0  0
  -21.3632  -19.7036   17.5593 C   0  0  0  0  0  0  0  0  0  0  0  0
  -27.0542  -11.5948   21.0000 C   0  0  0  0  0  0  0  0  0  0  0  0
  -25.2283  -11.6322   19.4182 C   0  0  0  0  0  0  0  0  0  0  0  0
  -21.9135  -27.7850   19.8726 C   0  0  0  0  0  0  0  0  0  0  0  0
  -23.5610  -10.2091   21.9922 C   0  0  0  0  0  0  0  0  0  0  0  0
  -20.0304  -19.9583   17.2362 C   0  0  0  0  0  0  0  0  0  0  0  0
  -22.2059   -9.9682   22.2186 C   0  0  0  0  0  0  0  0  0  0  0  0
  -22.2736  -28.7246   22.0650 C   0  0  0  0  0  0  0  0  0  0  0  0
  -21.2384  -21.3212   19.3495 C   0  0  0  0  0  0  0  0  0  0  0  0
  -22.2215   -8.2675   20.5026 C   0  0  0  0  0  0  0  0  0  0  0  0
  -26.6995  -13.5390   19.6102 C   0  0  0  0  0  0  0  0  0  0  0  0
  -27.9808  -15.2092   18.1694 C   0  0  0  0  0  0  0  0  0  0  0  0
  -29.4403  -25.5542   18.9695 C   0  0  0  0  0  0  0  0  0  0  0  0
  -23.9442  -29.0309   20.3402 C   0  0  0  0  0  0  0  0  0  0  0  0
  -28.2657  -25.7599   19.7181 C   0  0  0  0  0  0  0  0  0  0  0  0
  -23.5056  -29.2552   21.6530 C   0  0  0  0  0  0  0  0  0  0  0  0
  -21.9672  -20.3850   18.6160 C   0  0  0  0  0  0  0  0  0  0  0  0
  -19.9057  -21.5760   19.0264 C   0  0  0  0  0  0  0  0  0  0  0  0
  -25.9552  -10.9717   20.4088 C   0  0  0  0  0  0  0  0  0  0  0  0
  -21.4830  -27.9922   21.1798 C   0  0  0  0  0  0  0  0  0  0  0  0
  -24.2464   -9.4793   21.0210 C   0  0  0  0  0  0  0  0  0  0  0  0
  -21.5362   -8.9974   21.4739 C   0  0  0  0  0  0  0  0  0  0  0  0
  -19.3016  -20.8946   17.9697 C   0  0  0  0  0  0  0  0  0  0  0  0
  -23.5767   -8.5085   20.2762 C   0  0  0  0  0  0  0  0  0  0  0  0
  -27.0831  -14.8652   19.1978 C   0  0  0  0  0  0  0  0  0  0  0  0
  -28.0014  -16.5826   18.1768 C   0  0  0  0  0  0  0  0  0  0  0  0
  -28.7291  -14.3631   17.2863 C   0  0  0  0  0  0  0  0  0  0  0  0
  -26.8590  -28.6454   21.5480 C   0  0  0  0  0  0  0  0  0  0  0  0
  -26.3123  -31.5931   22.7867 C   0  0  0  0  0  0  0  0  0  0  0  0
  -19.6116  -23.2892   20.8488 C   0  0  0  0  0  0  0  0  0  0  0  0
  -24.0462  -33.9430   23.7813 C   0  0  0  0  0  0  0  0  0  0  0  0
  -24.0712  -20.7145   19.9617 C   0  0  0  0  0  0  0  0  0  0  0  0
  -30.7572  -26.1671   19.3754 C   0  0  0  0  0  0  0  0  0  0  0  0
  -25.2489  -29.6082   19.8638 C   0  0  0  0  0  0  0  0  0  0  0  0
  -24.3257  -30.0448   22.6391 C   0  0  0  0  0  0  0  0  0  0  0  0
  -30.6120  -27.3303   20.3533 C   0  0  0  0  0  0  0  0  0  0  0  0
  -27.4174  -20.3206   21.1128 C   0  0  0  0  0  0  0  0  0  0  0  0
  -29.6446  -26.9669   21.4752 C   0  0  0  0  0  0  0  0  0  0  0  0
  -27.7952  -18.9105   20.6535 C   0  0  0  0  0  0  0  0  0  0  0  0
  -25.9561  -20.4020   21.5506 C   0  0  0  0  0  0  0  0  0  0  0  0
  -25.3627  -18.4950   20.1082 C   0  0  0  0  0  0  0  0  0  0  0  0
  -28.2441  -26.6750   20.9232 C   0  0  1  0  0  0  0  0  0  0  0  0
  -26.2264  -29.8932   20.9999 C   0  0  1  0  0  0  0  0  0  0  0  0
  -26.8077  -18.3787   19.5963 C   0  0  2  0  0  0  0  0  0  0  0  0
  -23.9003  -36.2375   24.7870 C   0  0  0  0  0  0  0  0  0  0  0  0
  -27.0099  -30.4357   25.5223 C   0  0  0  0  0  0  0  0  0  0  0  0
  -25.9487  -32.4484   26.5670 C   0  0  0  0  0  0  0  0  0  0  0  0
  -27.9387  -32.7165   25.0869 C   0  0  0  0  0  0  0  0  0  0  0  0
  -22.6446  -35.0206   21.4079 C   0  0  0  0  0  0  0  0  0  0  0  0
  -18.4951  -24.1882   21.3615 C   0  0  0  0  0  0  0  0  0  0  0  0
  -19.0177  -25.4856   21.9686 C   0  0  0  0  0  0  0  0  0  0  0  0
  -19.8451  -26.2808   20.9692 C   0  0  0  0  0  0  0  0  0  1  0  0
  -25.7048  -32.1200   24.0643 C   0  0  1  0  0  0  0  0  0  0  0  0
  -23.9483  -35.4312   23.4985 C   0  0  2  0  0  0  0  0  0  0  0  0
  -26.6357  -31.9136   25.2923 C   0  0  0  0  0  0  0  0  0  0  0  0
  -26.5707  -15.9338   19.8138 N   0  0  0  0  0  0  0  0  0  0  0  0
  -27.1483  -16.9628   19.1707 N   0  0  0  0  0  0  0  0  0  0  0  0
  -25.5968  -30.5834   22.1275 N   0  0  0  0  0  0  0  0  0  0  0  0
  -25.0790  -19.8852   20.4977 N   0  0  0  0  0  0  0  0  0  0  0  0
  -28.6659  -17.4899   17.4301 N   0  0  0  0  0  0  0  0  0  0  0  0
  -28.5904  -12.9744   17.4146 N   0  0  0  0  0  0  0  0  0  0  0  0
  -19.1683  -22.5261   19.7723 N   0  0  0  0  0  0  0  0  0  0  0  0
  -23.3211  -20.1261   18.9440 N   0  0  0  0  0  0  0  0  0  0  0  0
  -27.5571  -27.9096   20.6095 N   0  0  0  0  0  0  0  0  0  0  0  0
  -25.3560  -33.5129   23.8063 N   0  0  0  0  0  0  0  0  0  0  0  0
  -22.7183  -35.7292   22.7116 N   0  3  0  0  0  0  0  0  0  0  0  0
  -29.5104  -14.8247   16.4202 O   0  0  0  0  0  0  0  0  0  0  0  0
  -26.7250  -28.3712   22.7348 O   0  0  0  0  0  0  0  0  0  0  0  0
  -27.3786  -32.0651   22.3845 O   0  0  0  0  0  0  0  0  0  0  0  0
  -20.7279  -23.2831   21.3569 O   0  0  0  0  0  0  0  0  0  0  0  0
  -23.0595  -33.2337   23.9657 O   0  0  0  0  0  0  0  0  0  0  0  0
  -23.9049  -21.8715   20.3562 O   0  0  0  0  0  0  0  0  0  0  0  0
  -25.5919   -9.7191   20.7979 O   0  0  0  0  0  0  0  0  0  0  0  0
  -20.2896  -27.4850   21.5926 O   0  0  0  0  0  0  0  0  0  1  0  0
  -20.2352   -8.7651   21.6924 F   0  0  0  0  0  0  0  0  0  0  0  0
  -18.0216  -21.1313   17.6498 F   0  0  0  0  0  0  0  0  0  0  0  0
  -24.2301   -7.8033   19.3426 F   0  0  0  0  0  0  0  0  0  0  0  0
  1  2  1  0  0  0  0
  1  5  2  0  0  0  0
  2  6  2  0  0  0  0
  3  9  2  0  0  0  0
  3 18  1  0  0  0  0
  4 10  1  0  0  0  0
  4 18  2  0  0  0  0
  5 20  1  0  0  0  0
  6 22  1  0  0  0  0
  7 11  2  0  0  0  0
  7 21  1  0  0  0  0
  8 13  2  0  0  0  0
  8 24  1  0  0  0  0
  9 26  1  0  0  0  0
 10 26  2  0  0  0  0
 11 27  1  0  0  0  0
 12 14  2  0  0  0  0
 12 28  1  0  0  0  0
 13 30  1  0  0  0  0
 14 29  1  0  0  0  0
 15 23  1  0  0  0  0
 15 27  2  0  0  0  0
 16 24  2  0  0  0  0
 16 25  1  0  0  0  0
 17 29  2  0  0  0  0
 17 31  1  0  0  0  0
 18 32  1  0  0  0  0
 19 32  1  0  0  0  0
 19 33  2  0  0  0  0
 19 34  1  0  0  0  0
 20 22  2  0  0  0  0
 20 40  1  0  0  0  0
 21 23  2  0  0  0  0
 21 41  1  0  0  0  0
 22 49  1  0  0  0  0
 23 42  1  0  0  0  0
 24 70  1  0  0  0  0
 25 30  2  0  0  0  0
 25 69  1  0  0  0  0
 26 80  1  0  0  0  0
 27 81  1  0  0  0  0
 28 31  2  0  0  0  0
 28 80  1  0  0  0  0
 29 82  1  0  0  0  0
 30 83  1  0  0  0  0
 31 84  1  0  0  0  0
 32 63  2  0  0  0  0
 33 64  1  0  0  0  0
 33 67  1  0  0  0  0
 34 68  1  0  0  0  0
 34 74  2  0  0  0  0
 35 50  1  0  0  0  0
 35 71  1  0  0  0  0
 35 75  2  0  0  0  0
 36 60  1  0  0  0  0
 36 65  1  0  0  0  0
 36 76  2  0  0  0  0
 37 57  1  0  0  0  0
 37 69  1  0  0  0  0
 37 77  2  0  0  0  0
 38 61  1  0  0  0  0
 38 72  1  0  0  0  0
 38 78  2  0  0  0  0
 39 66  1  0  0  0  0
 39 70  1  0  0  0  0
 39 79  2  0  0  0  0
 40 43  1  0  0  0  0
 41 50  1  0  0  0  0
 42 65  1  0  0  0  0
 43 45  1  0  0  0  0
 44 46  1  0  0  0  0
 44 47  1  0  0  0  0
 45 49  1  0  0  0  0
 46 51  1  0  0  0  0
 47 66  1  0  0  0  0
 48 51  1  0  0  0  0
 48 66  1  0  0  0  0
 49 71  1  0  0  0  0
 50 65  1  0  0  0  0
 51 64  1  0  0  0  0
 52 61  1  0  0  0  0
 53 62  1  0  0  0  0
 54 62  1  0  0  0  0
 55 62  1  0  0  0  0
 56 73  1  0  0  0  0
 57 58  1  0  0  0  0
 58 59  1  0  0  0  0
 59 81  1  0  0  0  0
 60 62  1  0  0  0  0
 60 72  1  0  0  0  0
 61 73  1  0  0  0  0
 63 64  1  0  0  0  0
M  CHG  1  73   1
M  ISO  4  39 100  59 101  70 100  81 101
M  END
> <Batch ID>
0068

> <Smiles>
CNC(C)C(=O)NC(C(=O)N1Cc2cc([101O:1][101CH2:1]CCC(=O)Nc3cc([100NH:0][100C:0](=O)N4CCCC(n5nc(-c6ccc(Oc7ccc(F)cc7F)cc6)c(C(N)=O)c5N)C4)ccc3F)ccc2CC1C(=O)NC1CCCc2ccccc21)C(C)(C)C

> <Shape>
0.279

> <Color>
0.070

> <Negative vol penalty>
0.000

$$$$

  -OEChem-04042323273D

 84 92  0     1  0  0  0  0  0999 V2000
  -16.8777  -29.9541   23.1495 C   0  0  0  0  0  0  0  0  0  0  0  0
  -18.1382  -30.5289   23.0225 C   0  0  0  0  0  0  0  0  0  0  0  0
  -27.8501  -13.0543   22.2347 C   0  0  0  0  0  0  0  0  0  0  0  0
  -26.5149  -13.3866   20.2488 C   0  0  0  0  0  0  0  0  0  0  0  0
  -16.7484  -28.5672   23.2121 C   0  0  0  0  0  0  0  0  0  0  0  0
  -19.2703  -29.7172   22.9591 C   0  0  0  0  0  0  0  0  0  0  0  0
  -25.7762  -29.4333   19.9743 C   0  0  0  0  0  0  0  0  0  0  0  0
  -27.2901  -11.7874   22.3992 C   0  0  0  0  0  0  0  0  0  0  0  0
  -25.9550  -12.1197   20.4132 C   0  0  0  0  0  0  0  0  0  0  0  0
  -27.1133  -29.2455   20.3216 C   0  0  0  0  0  0  0  0  0  0  0  0
  -23.5649  -10.6810   22.3233 C   0  0  0  0  0  0  0  0  0  0  0  0
  -22.1840  -10.5580   22.1701 C   0  0  0  0  0  0  0  0  0  0  0  0
  -26.7620  -26.8592   20.3595 C   0  0  0  0  0  0  0  0  0  0  0  0
  -30.6115  -24.4795   17.6295 C   0  0  0  0  0  0  0  0  0  0  0  0
  -29.0547  -23.8648   19.3717 C   0  0  0  0  0  0  0  0  0  0  0  0
  -22.5241   -8.9949   20.3595 C   0  0  0  0  0  0  0  0  0  0  0  0
  -27.4624  -13.8539   21.1596 C   0  0  0  0  0  0  0  0  0  0  0  0
  -29.2007  -15.4922   20.2640 C   0  0  0  0  0  0  0  0  0  0  0  0
  -17.8786  -27.7378   23.1396 C   0  0  0  0  0  0  0  0  0  0  0  0
  -24.9178  -28.3342   19.8273 C   0  0  0  0  0  0  0  0  0  0  0  0
  -19.1560  -28.3180   23.0221 C   0  0  0  0  0  0  0  0  0  0  0  0
  -25.4151  -27.0356   20.0077 C   0  0  0  0  0  0  0  0  0  0  0  0
  -30.3133  -23.3003   16.9468 C   0  0  0  0  0  0  0  0  0  0  0  0
  -29.9823  -24.7618   18.8420 C   0  0  0  0  0  0  0  0  0  0  0  0
  -28.7564  -22.6855   18.6890 C   0  0  0  0  0  0  0  0  0  0  0  0
  -26.3426  -11.3201   21.4884 C   0  0  0  0  0  0  0  0  0  0  0  0
  -27.6057  -27.9585   20.5171 C   0  0  0  0  0  0  0  0  0  0  0  0
  -24.4255   -9.9611   21.4946 C   0  0  0  0  0  0  0  0  0  0  0  0
  -21.6636   -9.7149   21.1883 C   0  0  0  0  0  0  0  0  0  0  0  0
  -23.9051   -9.1180   20.5127 C   0  0  0  0  0  0  0  0  0  0  0  0
  -29.3857  -22.4033   17.4765 C   0  0  0  0  0  0  0  0  0  0  0  0
  -28.0401  -15.1629   20.9895 C   0  0  0  0  0  0  0  0  0  0  0  0
  -29.3219  -16.8527   20.4092 C   0  0  0  0  0  0  0  0  0  0  0  0
  -30.0897  -14.6442   19.5250 C   0  0  0  0  0  0  0  0  0  0  0  0
  -22.2656  -27.3499   21.2767 C   0  0  0  0  0  0  0  0  0  0  0  0
  -22.2961  -25.0921   18.9477 C   0  0  0  0  0  0  0  0  0  0  0  0
  -31.1792  -26.9558   19.1543 C   0  0  0  0  0  0  0  0  0  0  0  0
  -24.1041  -23.2928   16.6805 C   0  0  0  0  0  0  0  0  0  0  0  0
  -27.1107  -21.9626   20.4540 C   0  0  0  0  0  0  0  0  0  0  0  0
  -17.6929  -26.2458   23.2590 C   0  0  0  0  0  0  0  0  0  0  0  0
  -23.4846  -28.5521   19.4262 C   0  0  0  0  0  0  0  0  0  0  0  0
  -24.5397  -25.8211   19.8422 C   0  0  0  0  0  0  0  0  0  0  0  0
  -18.9101  -25.4425   22.8080 C   0  0  0  0  0  0  0  0  0  0  0  0
  -26.8815  -20.0700   23.4612 C   0  0  0  0  0  0  0  0  0  0  0  0
  -20.1868  -26.0291   23.4019 C   0  0  0  0  0  0  0  0  0  0  0  0
  -27.2579  -18.6518   23.0265 C   0  0  0  0  0  0  0  0  0  0  0  0
  -26.0731  -20.7965   22.3876 C   0  0  0  0  0  0  0  0  0  0  0  0
  -27.0638  -19.3962   20.6192 C   0  0  0  0  0  0  0  0  0  0  0  0
  -20.4057  -27.4701   22.9251 C   0  0  1  0  0  0  0  0  0  0  0  0
  -22.5741  -27.3887   19.8066 C   0  0  1  0  0  0  0  0  0  0  0  0
  -27.9344  -18.6477   21.6416 C   0  0  2  0  0  0  0  0  0  0  0  0
  -31.0126  -23.0399   15.6512 C   0  0  0  0  0  0  0  0  0  0  0  0
  -23.8591  -21.4958   14.9460 C   0  0  0  0  0  0  0  0  0  0  0  0
  -22.0998  -22.9932   21.1536 C   0  0  0  0  0  0  0  0  0  0  0  0
  -22.8083  -21.2701   19.4811 C   0  0  0  0  0  0  0  0  0  0  0  0
  -20.6827  -22.5316   19.1453 C   0  0  0  0  0  0  0  0  0  0  0  0
  -25.0349  -25.0892   14.5205 C   0  0  0  0  0  0  0  0  0  0  0  0
  -31.2032  -28.0737   20.1904 C   0  0  0  0  0  0  0  0  0  0  0  0
  -29.8486  -28.7380   20.3842 C   0  0  0  0  0  0  0  0  0  1  0  0
  -22.8920  -23.7125   18.8039 C   0  0  1  0  0  0  0  0  0  0  0  0
  -23.8653  -22.9932   15.2116 C   0  0  2  0  0  0  0  0  0  0  0  0
  -22.1370  -22.6496   19.6511 C   0  0  0  0  0  0  0  0  0  0  0  0
  -27.4650  -16.2283   21.5537 N   0  0  0  0  0  0  0  0  0  0  0  0
  -28.2678  -17.2403   21.1829 N   0  0  0  0  0  0  0  0  0  0  0  0
  -23.1442  -26.0865   19.4554 N   0  0  0  0  0  0  0  0  0  0  0  0
  -26.7775  -20.7555   21.1042 N   0  0  0  0  0  0  0  0  0  0  0  0
  -30.2263  -17.7431   19.9493 N   0  0  0  0  0  0  0  0  0  0  0  0
  -29.8180  -13.2701   19.4786 N   0  0  0  0  0  0  0  0  0  0  0  0
  -30.2858  -25.9579   19.5346 N   0  0  0  0  0  0  0  0  0  0  0  0
  -27.8078  -21.7995   19.2574 N   0  0  0  0  0  0  0  0  0  0  0  0
  -20.9224  -27.4821   21.5733 N   0  0  0  0  0  0  0  0  0  0  0  0
  -22.9196  -23.4269   17.3735 N   0  0  0  0  0  0  0  0  0  0  0  0
  -24.9318  -23.6142   14.3762 N   0  3  0  0  0  0  0  0  0  0  0  0
  -31.1045  -15.0896   18.9372 O   0  0  0  0  0  0  0  0  0  0  0  0
  -23.1783  -27.2088   22.0820 O   0  0  0  0  0  0  0  0  0  0  0  0
  -21.1236  -25.2821   18.6149 O   0  0  0  0  0  0  0  0  0  0  0  0
  -31.8746  -26.9867   18.1444 O   0  0  0  0  0  0  0  0  0  0  0  0
  -25.2289  -23.3937   17.1654 O   0  0  0  0  0  0  0  0  0  0  0  0
  -26.8243  -23.0608   20.9377 O   0  0  0  0  0  0  0  0  0  0  0  0
  -25.7962  -10.0838   21.6485 O   0  0  0  0  0  0  0  0  0  0  0  0
  -28.9102  -27.7724   20.8568 O   0  0  0  0  0  0  0  0  0  1  0  0
  -20.3374   -9.5956   21.0423 F   0  0  0  0  0  0  0  0  0  0  0  0
  -24.7269   -8.4229   19.7144 F   0  0  0  0  0  0  0  0  0  0  0  0
  -29.0178  -20.9401   16.6227 Cl  0  0  0  0  0  0  0  0  0  0  0  0
  1  2  1  0  0  0  0
  1  5  2  0  0  0  0
  2  6  2  0  0  0  0
  3  8  2  0  0  0  0
  3 17  1  0  0  0  0
  4  9  1  0  0  0  0
  4 17  2  0  0  0  0
  5 19  1  0  0  0  0
  6 21  1  0  0  0  0
  7 10  2  0  0  0  0
  7 20  1  0  0  0  0
  8 26  1  0  0  0  0
  9 26  2  0  0  0  0
 10 27  1  0  0  0  0
 11 12  2  0  0  0  0
 11 28  1  0  0  0  0
 12 29  1  0  0  0  0
 13 22  1  0  0  0  0
 13 27  2  0  0  0  0
 14 23  2  0  0  0  0
 14 24  1  0  0  0  0
 15 24  2  0  0  0  0
 15 25  1  0  0  0  0
 16 29  2  0  0  0  0
 16 30  1  0  0  0  0
 17 32  1  0  0  0  0
 18 32  1  0  0  0  0
 18 33  2  0  0  0  0
 18 34  1  0  0  0  0
 19 21  2  0  0  0  0
 19 40  1  0  0  0  0
 20 22  2  0  0  0  0
 20 41  1  0  0  0  0
 21 49  1  0  0  0  0
 22 42  1  0  0  0  0
 23 31  1  0  0  0  0
 23 52  1  0  0  0  0
 24 69  1  0  0  0  0
 25 31  2  0  0  0  0
 25 70  1  0  0  0  0
 26 80  1  0  0  0  0
 27 81  1  0  0  0  0
 28 30  2  0  0  0  0
 28 80  1  0  0  0  0
 29 82  1  0  0  0  0
 30 83  1  0  0  0  0
 31 84  1  0  0  0  0
 32 63  2  0  0  0  0
 33 64  1  0  0  0  0
 33 67  1  0  0  0  0
 34 68  1  0  0  0  0
 34 74  2  0  0  0  0
 35 50  1  0  0  0  0
 35 71  1  0  0  0  0
 35 75  2  0  0  0  0
 36 60  1  0  0  0  0
 36 65  1  0  0  0  0
 36 76  2  0  0  0  0
 37 58  1  0  0  0  0
 37 69  1  0  0  0  0
 37 77  2  0  0  0  0
 38 61  1  0  0  0  0
 38 72  1  0  0  0  0
 38 78  2  0  0  0  0
 39 66  1  0  0  0  0
 39 70  1  0  0  0  0
 39 79  2  0  0  0  0
 40 43  1  0  0  0  0
 41 50  1  0  0  0  0
 42 65  1  0  0  0  0
 43 45  1  0  0  0  0
 44 46  1  0  0  0  0
 44 47  1  0  0  0  0
 45 49  1  0  0  0  0
 46 51  1  0  0  0  0
 47 66  1  0  0  0  0
 48 51  1  0  0  0  0
 48 66  1  0  0  0  0
 49 71  1  0  0  0  0
 50 65  1  0  0  0  0
 51 64  1  0  0  0  0
 53 61  1  0  0  0  0
 54 62  1  0  0  0  0
 55 62  1  0  0  0  0
 56 62  1  0  0  0  0
 57 73  1  0  0  0  0
 58 59  1  0  0  0  0
 59 81  1  0  0  0  0
 60 62  1  0  0  0  0
 60 72  1  0  0  0  0
 61 73  1  0  0  0  0
 63 64  1  0  0  0  0
M  CHG  1  73   1
M  ISO  4  39 100  59 101  70 100  81 101
M  END
> <Batch ID>
0068

> <Smiles>
CNC(C)C(=O)NC(C(=O)N1Cc2cc([101O:1][101CH2:1]CC(=O)Nc3cc(C)c(Cl)c([100NH:0][100C:0](=O)N4CCCC(n5nc(-c6ccc(Oc7ccc(F)cc7F)cc6)c(C(N)=O)c5N)C4)c3)ccc2CC1C(=O)NC1CCCc2ccccc21)C(C)(C)C

> <Shape>
0.275

> <Color>
0.080

> <Negative vol penalty>
0.000

$$$$

  -OEChem-04042323273D

 84 92  0     1  0  0  0  0  0999 V2000
  -30.5082  -24.4470   17.7753 C   0  0  0  0  0  0  0  0  0  0  0  0
  -29.2791  -24.4241   18.4268 C   0  0  0  0  0  0  0  0  0  0  0  0
  -25.3992  -13.0245   20.2436 C   0  0  0  0  0  0  0  0  0  0  0  0
  -23.3957  -14.3235   20.6125 C   0  0  0  0  0  0  0  0  0  0  0  0
  -31.5184  -25.2962   18.2250 C   0  0  0  0  0  0  0  0  0  0  0  0
  -29.0600  -25.2497   19.5289 C   0  0  0  0  0  0  0  0  0  0  0  0
  -24.5649  -27.5752   19.3512 C   0  0  0  0  0  0  0  0  0  0  0  0
  -24.8486  -11.9690   20.9705 C   0  0  0  0  0  0  0  0  0  0  0  0
  -22.8452  -13.2679   21.3393 C   0  0  0  0  0  0  0  0  0  0  0  0
  -23.4446  -26.8228   19.7011 C   0  0  0  0  0  0  0  0  0  0  0  0
  -23.8266   -8.7970   22.4228 C   0  0  0  0  0  0  0  0  0  0  0  0
  -23.9506   -7.5119   21.8949 C   0  0  0  0  0  0  0  0  0  0  0  0
  -23.5646  -24.1174   23.5244 C   0  0  0  0  0  0  0  0  0  0  0  0
  -25.7145  -23.2286   22.8723 C   0  0  0  0  0  0  0  0  0  0  0  0
  -23.4624  -27.8273   21.8942 C   0  0  0  0  0  0  0  0  0  0  0  0
  -23.6936  -22.3523   21.8797 C   0  0  0  0  0  0  0  0  0  0  0  0
  -22.7326   -8.2030   19.9262 C   0  0  0  0  0  0  0  0  0  0  0  0
  -24.6727  -14.2018   20.0647 C   0  0  0  0  0  0  0  0  0  0  0  0
  -24.9548  -24.1132   23.6379 C   0  0  0  0  0  0  0  0  0  0  0  0
  -25.1328  -15.5193   17.9292 C   0  0  0  0  0  0  0  0  0  0  0  0
  -31.3083  -26.1397   19.3273 C   0  0  0  0  0  0  0  0  0  0  0  0
  -25.1500  -28.4527   20.2753 C   0  0  0  0  0  0  0  0  0  0  0  0
  -30.0688  -26.1100   19.9946 C   0  0  0  0  0  0  0  0  0  0  0  0
  -24.5886  -28.5916   21.5527 C   0  0  0  0  0  0  0  0  0  0  0  0
  -22.9340  -23.2369   22.6453 C   0  0  0  0  0  0  0  0  0  0  0  0
  -25.0839  -22.3482   21.9932 C   0  0  0  0  0  0  0  0  0  0  0  0
  -23.5716  -12.0907   21.5183 C   0  0  0  0  0  0  0  0  0  0  0  0
  -22.8948  -26.9467   20.9737 C   0  0  0  0  0  0  0  0  0  0  0  0
  -23.1556   -9.7852   21.7024 C   0  0  0  0  0  0  0  0  0  0  0  0
  -23.4036   -7.2149   20.6466 C   0  0  0  0  0  0  0  0  0  0  0  0
  -22.6086   -9.4882   20.4541 C   0  0  0  0  0  0  0  0  0  0  0  0
  -25.2411  -15.2927   19.3144 C   0  0  0  0  0  0  0  0  0  0  0  0
  -25.8419  -16.6757   17.7140 C   0  0  0  0  0  0  0  0  0  0  0  0
  -25.6088  -25.0253   24.5500 C   0  0  0  0  0  0  0  0  0  0  0  0
  -24.4519  -14.7530   16.9267 C   0  0  0  0  0  0  0  0  0  0  0  0
  -27.9956  -28.6651   21.6757 C   0  0  0  0  0  0  0  0  0  0  0  0
  -20.9517  -24.0092   21.6612 C   0  0  0  0  0  0  0  0  0  0  0  0
  -26.7903  -31.4502   22.8213 C   0  0  0  0  0  0  0  0  0  0  0  0
  -24.0396  -33.3041   23.6237 C   0  0  0  0  0  0  0  0  0  0  0  0
  -27.2436  -21.3152   21.2090 C   0  0  0  0  0  0  0  0  0  0  0  0
  -32.4463  -27.0061   19.8058 C   0  0  0  0  0  0  0  0  0  0  0  0
  -26.3423  -29.2770   19.8735 C   0  0  0  0  0  0  0  0  0  0  0  0
  -25.1669  -29.5347   22.5748 C   0  0  0  0  0  0  0  0  0  0  0  0
  -32.0069  -28.1218   20.7504 C   0  0  0  0  0  0  0  0  0  0  0  0
  -29.5158  -19.1972   19.4688 C   0  0  0  0  0  0  0  0  0  0  0  0
  -31.0585  -27.5781   21.8142 C   0  0  0  0  0  0  0  0  0  0  0  0
  -28.6660  -17.9789   19.1003 C   0  0  0  0  0  0  0  0  0  0  0  0
  -29.1424  -19.7550   20.8411 C   0  0  0  0  0  0  0  0  0  0  0  0
  -26.8658  -18.8320   20.6555 C   0  0  0  0  0  0  0  0  0  0  0  0
  -29.7845  -27.0087   21.1784 C   0  0  1  0  0  0  0  0  0  0  0  0
  -27.1650  -29.7580   21.0648 C   0  0  1  0  0  0  0  0  0  0  0  0
  -27.1611  -18.2743   19.2536 C   0  0  2  0  0  0  0  0  0  0  0  0
  -19.4453  -23.9428   21.5735 C   0  0  0  0  0  0  0  0  0  0  0  0
  -23.3720  -35.5283   24.5749 C   0  0  0  0  0  0  0  0  0  0  0  0
  -27.5199  -30.4707   25.6174 C   0  0  0  0  0  0  0  0  0  0  0  0
  -26.0112  -32.2357   26.5537 C   0  0  0  0  0  0  0  0  0  0  0  0
  -28.0022  -32.8890   25.2003 C   0  0  0  0  0  0  0  0  0  0  0  0
  -22.6134  -34.0665   21.1450 C   0  0  0  0  0  0  0  0  0  0  0  0
  -21.6491  -24.9408   20.6898 C   0  0  0  0  0  0  0  0  0  1  0  0
  -26.0057  -31.8517   24.0470 C   0  0  1  0  0  0  0  0  0  0  0  0
  -23.6660  -34.7410   23.3074 C   0  0  2  0  0  0  0  0  0  0  0  0
  -26.8748  -31.8425   25.3362 C   0  0  0  0  0  0  0  0  0  0  0  0
  -25.9624  -16.2299   19.9353 N   0  0  0  0  0  0  0  0  0  0  0  0
  -21.5361  -23.2413   22.5312 N   0  0  0  0  0  0  0  0  0  0  0  0
  -26.3138  -17.0565   18.9356 N   0  0  0  0  0  0  0  0  0  0  0  0
  -26.3363  -30.3142   22.1363 N   0  0  0  0  0  0  0  0  0  0  0  0
  -27.7028  -20.0148   20.9112 N   0  0  0  0  0  0  0  0  0  0  0  0
  -26.1017  -17.3938   16.6007 N   0  0  0  0  0  0  0  0  0  0  0  0
  -24.8861  -25.8807   25.2924 N   0  0  0  0  0  0  0  0  0  0  0  0
  -23.7725  -13.5920   17.3201 N   0  0  0  0  0  0  0  0  0  0  0  0
  -25.8556  -21.4491   21.2161 N   0  0  0  0  0  0  0  0  0  0  0  0
  -28.8877  -28.0790   20.7981 N   0  0  0  0  0  0  0  0  0  0  0  0
  -25.4042  -33.1451   23.7411 N   0  0  0  0  0  0  0  0  0  0  0  0
  -26.9472  -25.0276   24.6678 N   0  3  0  0  0  0  0  0  0  0  0  0
  -22.4568  -34.7824   22.4373 N   0  3  0  0  0  0  0  0  0  0  0  0
  -24.4600  -15.0791   15.7155 O   0  0  0  0  0  0  0  0  0  0  0  0
  -27.8399  -28.3760   22.8563 O   0  0  0  0  0  0  0  0  0  0  0  0
  -27.7655  -32.1241   22.4800 O   0  0  0  0  0  0  0  0  0  0  0  0
  -23.2041  -32.4126   23.7572 O   0  0  0  0  0  0  0  0  0  0  0  0
  -28.0245  -22.2481   21.4138 O   0  0  0  0  0  0  0  0  0  0  0  0
  -23.0340  -11.0608   22.2275 O   0  0  0  0  0  0  0  0  0  0  0  0
  -21.8017  -26.2130   21.3180 O   0  0  0  0  0  0  0  0  0  1  0  0
  -23.5241   -5.9811   20.1392 F   0  0  0  0  0  0  0  0  0  0  0  0
  -21.9638  -10.4337   19.7568 F   0  0  0  0  0  0  0  0  0  0  0  0
  1  2  1  0  0  0  0
  1  5  2  0  0  0  0
  2  6  2  0  0  0  0
  3  8  2  0  0  0  0
  3 18  1  0  0  0  0
  4  9  1  0  0  0  0
  4 18  2  0  0  0  0
  5 21  1  0  0  0  0
  6 23  1  0  0  0  0
  7 10  2  0  0  0  0
  7 22  1  0  0  0  0
  8 27  1  0  0  0  0
  9 27  2  0  0  0  0
 10 28  1  0  0  0  0
 11 12  2  0  0  0  0
 11 29  1  0  0  0  0
 12 30  1  0  0  0  0
 13 19  1  0  0  0  0
 13 25  2  0  0  0  0
 14 19  2  0  0  0  0
 14 26  1  0  0  0  0
 15 24  1  0  0  0  0
 15 28  2  0  0  0  0
 16 25  1  0  0  0  0
 16 26  2  0  0  0  0
 17 30  2  0  0  0  0
 17 31  1  0  0  0  0
 18 32  1  0  0  0  0
 19 34  1  0  0  0  0
 20 32  1  0  0  0  0
 20 33  2  0  0  0  0
 20 35  1  0  0  0  0
 21 23  2  0  0  0  0
 21 41  1  0  0  0  0
 22 24  2  0  0  0  0
 22 42  1  0  0  0  0
 23 50  1  0  0  0  0
 24 43  1  0  0  0  0
 25 64  1  0  0  0  0
 26 71  1  0  0  0  0
 27 81  1  0  0  0  0
 28 82  1  0  0  0  0
 29 31  2  0  0  0  0
 29 81  1  0  0  0  0
 30 83  1  0  0  0  0
 31 84  1  0  0  0  0
 32 63  2  0  0  0  0
 33 65  1  0  0  0  0
 33 68  1  0  0  0  0
 34 69  1  0  0  0  0
 34 74  2  0  0  0  0
 35 70  1  0  0  0  0
 35 76  2  0  0  0  0
 36 51  1  0  0  0  0
 36 72  1  0  0  0  0
 36 77  2  0  0  0  0
 37 53  1  0  0  0  0
 37 59  1  0  0  0  0
 37 64  2  0  0  0  0
 38 60  1  0  0  0  0
 38 66  1  0  0  0  0
 38 78  2  0  0  0  0
 39 61  1  0  0  0  0
 39 73  1  0  0  0  0
 39 79  2  0  0  0  0
 40 67  1  0  0  0  0
 40 71  1  0  0  0  0
 40 80  2  0  0  0  0
 41 44  1  0  0  0  0
 42 51  1  0  0  0  0
 43 66  1  0  0  0  0
 44 46  1  0  0  0  0
 45 47  1  0  0  0  0
 45 48  1  0  0  0  0
 46 50  1  0  0  0  0
 47 52  1  0  0  0  0
 48 67  1  0  0  0  0
 49 52  1  0  0  0  0
 49 67  1  0  0  0  0
 50 72  1  0  0  0  0
 51 66  1  0  0  0  0
 52 65  1  0  0  0  0
 54 61  1  0  0  0  0
 55 62  1  0  0  0  0
 56 62  1  0  0  0  0
 57 62  1  0  0  0  0
 58 75  1  0  0  0  0
 59 82  1  0  0  0  0
 60 62  1  0  0  0  0
 60 73  1  0  0  0  0
 61 75  1  0  0  0  0
 63 65  1  0  0  0  0
M  CHG  2  74   1  75   1
M  ISO  4  40 100  59 101  71 100  82 101
M  END
> <Batch ID>
0068

> <Smiles>
CNC(C)C(=O)NC(C(=O)N1Cc2cc([101O:1][101CH2:1]C(C)=Nc3cc([100NH:0][100C:0](=O)N4CCCC(n5nc(-c6ccc(Oc7ccc(F)cc7F)cc6)c(C(N)=O)c5N)C4)cc(C(=N)N)c3)ccc2CC1C(=O)NC1CCCc2ccccc21)C(C)(C)C

> <Shape>
0.279

> <Color>
0.057

> <Negative vol penalty>
0.000

$$$$

  -OEChem-04042323273D

 89 98  0     1  0  0  0  0  0999 V2000
  -24.5459  -35.0795   18.5756 C   0  0  0  0  0  0  0  0  0  0  0  0
  -25.3199  -33.9934   18.9715 C   0  0  0  0  0  0  0  0  0  0  0  0
  -22.7003  -10.7338   21.1530 C   0  0  0  0  0  0  0  0  0  0  0  0
  -24.5943   -9.4054   21.8499 C   0  0  0  0  0  0  0  0  0  0  0  0
  -23.2531  -35.2317   19.0751 C   0  0  0  0  0  0  0  0  0  0  0  0
  -24.8019  -33.0594   19.8681 C   0  0  0  0  0  0  0  0  0  0  0  0
  -25.7435  -28.2866   18.4615 C   0  0  0  0  0  0  0  0  0  0  0  0
  -21.8505   -9.9083   21.8893 C   0  0  0  0  0  0  0  0  0  0  0  0
  -23.7444   -8.5800   22.5861 C   0  0  0  0  0  0  0  0  0  0  0  0
  -27.0257  -27.7937   18.6999 C   0  0  0  0  0  0  0  0  0  0  0  0
  -21.6081   -6.0302   21.9815 C   0  0  0  0  0  0  0  0  0  0  0  0
  -21.7924   -4.6516   21.8764 C   0  0  0  0  0  0  0  0  0  0  0  0
  -26.2175  -26.6623   20.6713 C   0  0  0  0  0  0  0  0  0  0  0  0
  -27.3430  -21.1077   17.4052 C   0  0  0  0  0  0  0  0  0  0  0  0
  -26.9898  -18.7179   17.3718 C   0  0  0  0  0  0  0  0  0  0  0  0
  -28.4226  -19.7040   19.0487 C   0  0  0  0  0  0  0  0  0  0  0  0
  -22.2156   -4.5271   24.2518 C   0  0  0  0  0  0  0  0  0  0  0  0
  -24.0722  -10.4823   21.1333 C   0  0  0  0  0  0  0  0  0  0  0  0
  -24.9128  -11.5723   18.9855 C   0  0  0  0  0  0  0  0  0  0  0  0
  -22.7155  -34.2939   19.9707 C   0  0  0  0  0  0  0  0  0  0  0  0
  -24.6892  -27.9795   19.3336 C   0  0  0  0  0  0  0  0  0  0  0  0
  -23.5012  -33.1999   20.3810 C   0  0  0  0  0  0  0  0  0  0  0  0
  -24.9223  -27.1505   20.4402 C   0  0  0  0  0  0  0  0  0  0  0  0
  -26.7477  -19.9824   16.8351 C   0  0  0  0  0  0  0  0  0  0  0  0
  -28.1805  -20.9685   18.5119 C   0  0  0  0  0  0  0  0  0  0  0  0
  -27.8273  -18.5787   18.4786 C   0  0  0  0  0  0  0  0  0  0  0  0
  -22.3725   -8.8315   22.6058 C   0  0  0  0  0  0  0  0  0  0  0  0
  -27.2634  -26.9838   19.8066 C   0  0  0  0  0  0  0  0  0  0  0  0
  -21.7276   -6.6573   23.2217 C   0  0  0  0  0  0  0  0  0  0  0  0
  -22.0961   -3.9000   23.0116 C   0  0  0  0  0  0  0  0  0  0  0  0
  -22.0313   -5.9058   24.3569 C   0  0  0  0  0  0  0  0  0  0  0  0
  -24.9505  -11.3342   20.3725 C   0  0  0  0  0  0  0  0  0  0  0  0
  -25.9476  -12.4466   18.7589 C   0  0  0  0  0  0  0  0  0  0  0  0
  -29.0936  -22.1637   20.4780 C   0  0  0  0  0  0  0  0  0  0  0  0
  -24.0221  -11.0498   17.9909 C   0  0  0  0  0  0  0  0  0  0  0  0
  -22.7632  -29.6754   21.2092 C   0  0  0  0  0  0  0  0  0  0  0  0
  -21.3106  -26.8089   21.6515 C   0  0  0  0  0  0  0  0  0  0  0  0
  -22.3366  -23.3870   22.1566 C   0  0  0  0  0  0  0  0  0  0  0  0
  -28.8791  -16.9811   20.1180 C   0  0  0  0  0  0  0  0  0  0  0  0
  -21.3303  -34.5261   20.5202 C   0  0  0  0  0  0  0  0  0  0  0  0
  -23.3063  -28.4972   19.0476 C   0  0  0  0  0  0  0  0  0  0  0  0
  -23.8204  -26.7747   21.3956 C   0  0  0  0  0  0  0  0  0  0  0  0
  -20.7201  -33.2901   21.1762 C   0  0  0  0  0  0  0  0  0  0  0  0
  -29.7133  -13.9498   21.7891 C   0  0  0  0  0  0  0  0  0  0  0  0
  -21.7299  -32.6264   22.1071 C   0  0  0  0  0  0  0  0  0  0  0  0
  -28.5454  -13.0187   21.4554 C   0  0  0  0  0  0  0  0  0  0  0  0
  -29.8995  -24.3724   18.7130 C   0  0  0  0  0  0  0  0  0  0  0  0
  -29.2494  -15.3912   21.9915 C   0  0  0  0  0  0  0  0  0  0  0  0
  -28.8499  -23.3582   18.2923 C   0  0  0  0  0  0  0  0  0  0  0  0
  -27.2809  -15.0147   20.5590 C   0  0  0  0  0  0  0  0  0  0  0  0
  -22.9656  -32.1522   21.3326 C   0  0  1  0  0  0  0  0  0  0  0  0
  -22.4168  -28.5415   20.2862 C   0  0  1  0  0  0  0  0  0  0  0  0
  -27.7075  -13.5638   20.2823 C   0  0  2  0  0  0  0  0  0  0  0  0
  -30.1594  -23.1919   20.9315 C   0  0  0  0  0  0  0  0  0  0  0  0
  -29.9446  -24.5822   20.2367 C   0  0  1  0  0  0  0  0  0  0  0  0
  -25.8532  -20.1317   15.6508 C   0  0  0  0  0  0  0  0  0  0  0  0
  -31.5242  -22.5446   20.5879 C   0  0  0  0  0  0  0  0  0  0  0  0
  -30.1032  -23.3063   22.4753 C   0  0  0  0  0  0  0  0  0  0  0  0
  -31.0865  -25.5840   20.5273 C   0  0  0  0  0  0  0  0  0  0  0  0
  -21.1610  -21.2354   21.6217 C   0  0  0  0  0  0  0  0  0  0  0  0
  -20.3255  -26.9670   24.5350 C   0  0  0  0  0  0  0  0  0  0  0  0
  -20.6113  -24.4849   24.6952 C   0  0  0  0  0  0  0  0  0  0  0  0
  -18.9938  -25.4493   23.0593 C   0  0  0  0  0  0  0  0  0  0  0  0
  -24.6209  -22.4028   20.5528 C   0  0  0  0  0  0  0  0  0  0  0  0
  -28.6285  -25.2539   20.7009 C   0  0  0  0  0  0  0  0  0  1  0  0
  -21.4748  -25.6659   22.6239 C   0  0  1  0  0  0  0  0  0  0  0  0
  -22.2051  -22.2433   21.1671 C   0  0  2  0  0  0  0  0  0  0  0  0
  -20.3732  -25.6584   23.7211 C   0  0  0  0  0  0  0  0  0  0  0  0
  -25.9317  -12.0032   20.9840 N   0  0  0  0  0  0  0  0  0  0  0  0
  -26.5201  -12.6701   19.9765 N   0  0  0  0  0  0  0  0  0  0  0  0
  -28.7979  -22.1361   19.1028 N   0  0  0  0  0  0  0  0  0  0  0  0
  -22.4868  -27.3109   21.0767 N   0  0  0  0  0  0  0  0  0  0  0  0
  -28.4656  -15.8410   20.8391 N   0  0  0  0  0  0  0  0  0  0  0  0
  -26.4145  -13.0382   17.6390 N   0  0  0  0  0  0  0  0  0  0  0  0
  -24.3694   -9.8562   17.3436 N   0  0  0  0  0  0  0  0  0  0  0  0
  -28.0743  -17.2941   19.0231 N   0  0  0  0  0  0  0  0  0  0  0  0
  -22.6771  -30.9240   20.6236 N   0  0  0  0  0  0  0  0  0  0  0  0
  -21.5253  -24.4498   21.8196 N   0  0  0  0  0  0  0  0  0  0  0  0
  -23.5080  -21.5354   21.0176 N   0  3  0  0  0  0  0  0  0  0  0  0
  -28.6089  -21.3797   21.3003 O   0  0  0  0  0  0  0  0  0  0  0  0
  -22.9578  -11.6331   17.6735 O   0  0  0  0  0  0  0  0  0  0  0  0
  -23.0834  -29.4353   22.3675 O   0  0  0  0  0  0  0  0  0  0  0  0
  -20.1798  -27.2358   21.4054 O   0  0  0  0  0  0  0  0  0  0  0  0
  -23.0814  -23.3406   23.1332 O   0  0  0  0  0  0  0  0  0  0  0  0
  -29.8894  -17.6160   20.4315 O   0  0  0  0  0  0  0  0  0  0  0  0
  -21.5436   -8.0260   23.3246 O   0  0  0  0  0  0  0  0  0  0  0  0
  -28.5284  -26.4963   20.0448 O   0  0  0  0  0  0  0  0  0  1  0  0
  -22.2715   -2.5759   22.9108 F   0  0  0  0  0  0  0  0  0  0  0  0
  -22.1462   -6.5024   25.5513 F   0  0  0  0  0  0  0  0  0  0  0  0
  1  2  1  0  0  0  0
  1  5  2  0  0  0  0
  2  6  2  0  0  0  0
  3  8  2  0  0  0  0
  3 18  1  0  0  0  0
  4  9  1  0  0  0  0
  4 18  2  0  0  0  0
  5 20  1  0  0  0  0
  6 22  1  0  0  0  0
  7 10  2  0  0  0  0
  7 21  1  0  0  0  0
  8 27  1  0  0  0  0
  9 27  2  0  0  0  0
 10 28  1  0  0  0  0
 11 12  2  0  0  0  0
 11 29  1  0  0  0  0
 12 30  1  0  0  0  0
 13 23  1  0  0  0  0
 13 28  2  0  0  0  0
 14 24  2  0  0  0  0
 14 25  1  0  0  0  0
 15 24  1  0  0  0  0
 15 26  2  0  0  0  0
 16 25  2  0  0  0  0
 16 26  1  0  0  0  0
 17 30  2  0  0  0  0
 17 31  1  0  0  0  0
 18 32  1  0  0  0  0
 19 32  1  0  0  0  0
 19 33  2  0  0  0  0
 19 35  1  0  0  0  0
 20 22  2  0  0  0  0
 20 40  1  0  0  0  0
 21 23  2  0  0  0  0
 21 41  1  0  0  0  0
 22 51  1  0  0  0  0
 23 42  1  0  0  0  0
 24 56  1  0  0  0  0
 25 71  1  0  0  0  0
 26 76  1  0  0  0  0
 27 86  1  0  0  0  0
 28 87  1  0  0  0  0
 29 31  2  0  0  0  0
 29 86  1  0  0  0  0
 30 88  1  0  0  0  0
 31 89  1  0  0  0  0
 32 69  2  0  0  0  0
 33 70  1  0  0  0  0
 33 74  1  0  0  0  0
 34 54  1  0  0  0  0
 34 71  1  0  0  0  0
 34 80  2  0  0  0  0
 35 75  1  0  0  0  0
 35 81  2  0  0  0  0
 36 52  1  0  0  0  0
 36 77  1  0  0  0  0
 36 82  2  0  0  0  0
 37 66  1  0  0  0  0
 37 72  1  0  0  0  0
 37 83  2  0  0  0  0
 38 67  1  0  0  0  0
 38 78  1  0  0  0  0
 38 84  2  0  0  0  0
 39 73  1  0  0  0  0
 39 76  1  0  0  0  0
 39 85  2  0  0  0  0
 40 43  1  0  0  0  0
 41 52  1  0  0  0  0
 42 72  1  0  0  0  0
 43 45  1  0  0  0  0
 44 46  1  0  0  0  0
 44 48  1  0  0  0  0
 45 51  1  0  0  0  0
 46 53  1  0  0  0  0
 47 49  1  0  0  0  0
 47 55  1  0  0  0  0
 48 73  1  0  0  0  0
 49 71  1  0  0  0  0
 50 53  1  0  0  0  0
 50 73  1  0  0  0  0
 51 77  1  0  0  0  0
 52 72  1  0  0  0  0
 53 70  1  0  0  0  0
 54 55  1  0  0  0  0
 54 57  1  0  0  0  0
 54 58  1  0  0  0  0
 55 59  1  0  0  0  0
 55 65  1  0  0  0  0
 60 67  1  0  0  0  0
 61 68  1  0  0  0  0
 62 68  1  0  0  0  0
 63 68  1  0  0  0  0
 64 79  1  0  0  0  0
 65 87  1  0  0  0  0
 66 68  1  0  0  0  0
 66 78  1  0  0  0  0
 67 79  1  0  0  0  0
 69 70  1  0  0  0  0
M  CHG  1  79   1
M  ISO  4  39 100  65 101  76 100  87 101
M  END
> <Batch ID>
0068

> <Smiles>
CNC(C)C(=O)NC(C(=O)N1Cc2cc([101O:1][101CH2:1]C3(C)CCN(c4cc(C)cc([100NH:0][100C:0](=O)N5CCCC(n6nc(-c7ccc(Oc8ccc(F)cc8F)cc7)c(C(N)=O)c6N)C5)c4)C(=O)C3(C)C)ccc2CC1C(=O)NC1CCCc2ccccc21)C(C)(C)C

> <Shape>
0.286

> <Color>
0.087

> <Negative vol penalty>
0.000

$$$$

  -OEChem-04042323273D

 85 93  0     1  0  0  0  0  0999 V2000
  -22.3928  -31.3352   26.8687 C   0  0  0  0  0  0  0  0  0  0  0  0
  -23.6273  -30.7526   26.6002 C   0  0  0  0  0  0  0  0  0  0  0  0
  -23.1983   -9.6612   20.3211 C   0  0  0  0  0  0  0  0  0  0  0  0
  -23.8313  -10.0999   22.6110 C   0  0  0  0  0  0  0  0  0  0  0  0
  -21.2738  -30.9702   26.1214 C   0  0  0  0  0  0  0  0  0  0  0  0
  -23.7432  -29.8039   25.5849 C   0  0  0  0  0  0  0  0  0  0  0  0
  -28.5420  -28.9469   21.8777 C   0  0  0  0  0  0  0  0  0  0  0  0
  -22.4874   -8.5342   20.7335 C   0  0  0  0  0  0  0  0  0  0  0  0
  -23.1204   -8.9729   23.0235 C   0  0  0  0  0  0  0  0  0  0  0  0
  -29.5977  -28.0367   21.9052 C   0  0  0  0  0  0  0  0  0  0  0  0
  -19.4978   -7.8597   22.1620 C   0  0  0  0  0  0  0  0  0  0  0  0
  -18.2221   -7.6680   21.6316 C   0  0  0  0  0  0  0  0  0  0  0  0
  -28.3954  -26.6052   20.3806 C   0  0  0  0  0  0  0  0  0  0  0  0
  -29.4485  -18.2201   22.0212 C   0  0  0  0  0  0  0  0  0  0  0  0
  -31.5886  -17.7196   21.0181 C   0  0  0  0  0  0  0  0  0  0  0  0
  -18.9282   -5.5551   20.6968 C   0  0  0  0  0  0  0  0  0  0  0  0
  -23.8703  -10.4441   21.2598 C   0  0  0  0  0  0  0  0  0  0  0  0
  -31.1531  -19.9277   21.8966 C   0  0  0  0  0  0  0  0  0  0  0  0
  -24.1195  -12.9241   20.7167 C   0  0  0  0  0  0  0  0  0  0  0  0
  -21.3780  -30.0236   25.0900 C   0  0  0  0  0  0  0  0  0  0  0  0
  -27.3984  -28.6874   21.1087 C   0  0  0  0  0  0  0  0  0  0  0  0
  -22.6243  -29.4249   24.8239 C   0  0  0  0  0  0  0  0  0  0  0  0
  -27.3276  -27.5149   20.3430 C   0  0  0  0  0  0  0  0  0  0  0  0
  -30.3070  -17.3173   21.3940 C   0  0  0  0  0  0  0  0  0  0  0  0
  -22.4484   -8.1901   22.0847 C   0  0  0  0  0  0  0  0  0  0  0  0
  -29.5234  -26.8643   21.1589 C   0  0  0  0  0  0  0  0  0  0  0  0
  -20.4888   -6.8991   21.9597 C   0  0  0  0  0  0  0  0  0  0  0  0
  -17.9373   -6.5157   20.8990 C   0  0  0  0  0  0  0  0  0  0  0  0
  -29.8715  -19.5253   22.2725 C   0  0  0  0  0  0  0  0  0  0  0  0
  -32.0117  -19.0248   21.2694 C   0  0  0  0  0  0  0  0  0  0  0  0
  -20.2040   -5.7468   21.2271 C   0  0  0  0  0  0  0  0  0  0  0  0
  -24.6053  -11.6080   20.8344 C   0  0  0  0  0  0  0  0  0  0  0  0
  -25.1997  -13.6511   20.2797 C   0  0  0  0  0  0  0  0  0  0  0  0
  -31.6011  -21.3099   22.1634 C   0  0  0  0  0  0  0  0  0  0  0  0
  -22.8089  -13.4430   20.9791 C   0  0  0  0  0  0  0  0  0  0  0  0
  -24.3131  -28.2680   21.7479 C   0  0  0  0  0  0  0  0  0  0  0  0
  -24.0472  -28.2398   18.5151 C   0  0  0  0  0  0  0  0  0  0  0  0
  -31.1972  -23.7248   21.7438 C   0  0  0  0  0  0  0  0  0  0  0  0
  -25.5370  -27.7145   15.4900 C   0  0  0  0  0  0  0  0  0  0  0  0
  -30.6034  -14.9714   20.5248 C   0  0  0  0  0  0  0  0  0  0  0  0
  -20.1309  -29.6262   24.3406 C   0  0  0  0  0  0  0  0  0  0  0  0
  -26.2796  -29.6919   21.0687 C   0  0  0  0  0  0  0  0  0  0  0  0
  -26.1307  -27.1990   19.4851 C   0  0  0  0  0  0  0  0  0  0  0  0
  -20.4142  -28.8892   23.0342 C   0  0  0  0  0  0  0  0  0  0  0  0
  -29.7145  -12.1348   18.5651 C   0  0  0  0  0  0  0  0  0  0  0  0
  -21.4651  -27.8048   23.2500 C   0  0  0  0  0  0  0  0  0  0  0  0
  -28.2660  -11.8531   18.9711 C   0  0  0  0  0  0  0  0  0  0  0  0
  -30.5532  -12.6109   19.7498 C   0  0  0  0  0  0  0  0  0  0  0  0
  -28.5471  -13.4707   20.8924 C   0  0  0  0  0  0  0  0  0  0  0  0
  -22.7953  -28.4103   23.7143 C   0  0  1  0  0  0  0  0  0  0  0  0
  -24.9439  -29.0825   20.6541 C   0  0  1  0  0  0  0  0  0  0  0  0
  -27.6473  -13.0506   19.7187 C   0  0  2  0  0  0  0  0  0  0  0  0
  -25.0552  -27.7323   13.0273 C   0  0  0  0  0  0  0  0  0  0  0  0
  -22.5908  -25.5720   18.7832 C   0  0  0  0  0  0  0  0  0  0  0  0
  -22.9811  -25.1927   16.3394 C   0  0  0  0  0  0  0  0  0  0  0  0
  -21.6068  -27.1327   17.0948 C   0  0  0  0  0  0  0  0  0  0  0  0
  -27.5334  -29.8430   14.9970 C   0  0  0  0  0  0  0  0  0  0  0  0
  -30.2250  -24.5978   20.9961 C   0  0  0  0  0  0  0  0  0  1  0  0
  -24.1101  -27.1754   17.4465 C   0  0  1  0  0  0  0  0  0  0  0  0
  -25.5500  -28.5408   14.2166 C   0  0  2  0  0  0  0  0  0  0  0  0
  -22.8441  -26.2730   17.4336 C   0  0  0  0  0  0  0  0  0  0  0  0
  -25.8938  -11.5021   20.4989 N   0  0  0  0  0  0  0  0  0  0  0  0
  -26.2268  -12.7609   20.1662 N   0  0  0  0  0  0  0  0  0  0  0  0
  -25.0599  -28.2094   19.4843 N   0  0  0  0  0  0  0  0  0  0  0  0
  -29.9076  -13.7497   20.4065 N   0  0  0  0  0  0  0  0  0  0  0  0
  -25.3618  -14.9585   19.9851 N   0  0  0  0  0  0  0  0  0  0  0  0
  -21.8164  -12.5583   21.4223 N   0  0  0  0  0  0  0  0  0  0  0  0
  -29.8769  -15.9917   21.1378 N   0  0  0  0  0  0  0  0  0  0  0  0
  -30.9098  -22.3161   21.6104 N   0  0  0  0  0  0  0  0  0  0  0  0
  -23.5012  -28.9972   22.5956 N   0  0  0  0  0  0  0  0  0  0  0  0
  -24.3595  -27.8730   16.1897 N   0  0  0  0  0  0  0  0  0  0  0  0
  -32.6690  -21.4761   22.9433 N   0  3  0  0  0  0  0  0  0  0  0  0
  -26.9316  -29.0146   13.9206 N   0  3  0  0  0  0  0  0  0  0  0  0
  -22.5221  -14.6524   20.8095 O   0  0  0  0  0  0  0  0  0  0  0  0
  -24.5446  -27.0666   21.8167 O   0  0  0  0  0  0  0  0  0  0  0  0
  -23.1372  -29.0721   18.4868 O   0  0  0  0  0  0  0  0  0  0  0  0
  -32.1419  -24.1303   22.4055 O   0  0  0  0  0  0  0  0  0  0  0  0
  -26.4760  -26.9972   15.8282 O   0  0  0  0  0  0  0  0  0  0  0  0
  -31.7488  -15.1108   20.0883 O   0  0  0  0  0  0  0  0  0  0  0  0
  -21.7547   -7.0905   22.4876 O   0  0  0  0  0  0  0  0  0  0  0  0
  -30.5522  -25.9740   21.1844 O   0  0  0  0  0  0  0  0  0  1  0  0
  -16.7117   -6.3310   20.3911 F   0  0  0  0  0  0  0  0  0  0  0  0
  -29.0392  -20.3861   22.8753 F   0  0  0  0  0  0  0  0  0  0  0  0
  -33.2448  -19.4020   20.9035 F   0  0  0  0  0  0  0  0  0  0  0  0
  -21.1516   -4.8199   21.0305 F   0  0  0  0  0  0  0  0  0  0  0  0
  1  2  1  0  0  0  0
  1  5  2  0  0  0  0
  2  6  2  0  0  0  0
  3  8  2  0  0  0  0
  3 17  1  0  0  0  0
  4  9  1  0  0  0  0
  4 17  2  0  0  0  0
  5 20  1  0  0  0  0
  6 22  1  0  0  0  0
  7 10  2  0  0  0  0
  7 21  1  0  0  0  0
  8 25  1  0  0  0  0
  9 25  2  0  0  0  0
 10 26  1  0  0  0  0
 11 12  2  0  0  0  0
 11 27  1  0  0  0  0
 12 28  1  0  0  0  0
 13 23  1  0  0  0  0
 13 26  2  0  0  0  0
 14 24  1  0  0  0  0
 14 29  2  0  0  0  0
 15 24  2  0  0  0  0
 15 30  1  0  0  0  0
 16 28  2  0  0  0  0
 16 31  1  0  0  0  0
 17 32  1  0  0  0  0
 18 29  1  0  0  0  0
 18 30  2  0  0  0  0
 18 34  1  0  0  0  0
 19 32  1  0  0  0  0
 19 33  2  0  0  0  0
 19 35  1  0  0  0  0
 20 22  2  0  0  0  0
 20 41  1  0  0  0  0
 21 23  2  0  0  0  0
 21 42  1  0  0  0  0
 22 50  1  0  0  0  0
 23 43  1  0  0  0  0
 24 68  1  0  0  0  0
 25 80  1  0  0  0  0
 26 81  1  0  0  0  0
 27 31  2  0  0  0  0
 27 80  1  0  0  0  0
 28 82  1  0  0  0  0
 29 83  1  0  0  0  0
 30 84  1  0  0  0  0
 31 85  1  0  0  0  0
 32 62  2  0  0  0  0
 33 63  1  0  0  0  0
 33 66  1  0  0  0  0
 34 69  1  0  0  0  0
 34 72  2  0  0  0  0
 35 67  1  0  0  0  0
 35 74  2  0  0  0  0
 36 51  1  0  0  0  0
 36 70  1  0  0  0  0
 36 75  2  0  0  0  0
 37 59  1  0  0  0  0
 37 64  1  0  0  0  0
 37 76  2  0  0  0  0
 38 58  1  0  0  0  0
 38 69  1  0  0  0  0
 38 77  2  0  0  0  0
 39 60  1  0  0  0  0
 39 71  1  0  0  0  0
 39 78  2  0  0  0  0
 40 65  1  0  0  0  0
 40 68  1  0  0  0  0
 40 79  2  0  0  0  0
 41 44  1  0  0  0  0
 42 51  1  0  0  0  0
 43 64  1  0  0  0  0
 44 46  1  0  0  0  0
 45 47  1  0  0  0  0
 45 48  1  0  0  0  0
 46 50  1  0  0  0  0
 47 52  1  0  0  0  0
 48 65  1  0  0  0  0
 49 52  1  0  0  0  0
 49 65  1  0  0  0  0
 50 70  1  0  0  0  0
 51 64  1  0  0  0  0
 52 63  1  0  0  0  0
 53 60  1  0  0  0  0
 54 61  1  0  0  0  0
 55 61  1  0  0  0  0
 56 61  1  0  0  0  0
 57 73  1  0  0  0  0
 58 81  1  0  0  0  0
 59 61  1  0  0  0  0
 59 71  1  0  0  0  0
 60 73  1  0  0  0  0
 62 63  1  0  0  0  0
M  CHG  2  72   1  73   1
M  ISO  4  40 100  58 101  68 100  81 101
M  END
> <Batch ID>
0068

> <Smiles>
CNC(C)C(=O)NC(C(=O)N1Cc2cc([101O:1][101CH2:1]C(=O)NC(=N)c3c(F)cc([100NH:0][100C:0](=O)N4CCCC(n5nc(-c6ccc(Oc7ccc(F)cc7F)cc6)c(C(N)=O)c5N)C4)cc3F)ccc2CC1C(=O)NC1CCCc2ccccc21)C(C)(C)C

> <Shape>
0.273

> <Color>
0.186

> <Negative vol penalty>
0.000

$$$$

  -OEChem-04042323273D

 90 99  0     1  0  0  0  0  0999 V2000
  -28.3574  -37.2267   19.6968 C   0  0  0  0  0  0  0  0  0  0  0  0
  -28.7395  -35.8976   19.5455 C   0  0  0  0  0  0  0  0  0  0  0  0
  -23.7895  -20.5612   20.7900 C   0  0  0  0  0  0  0  0  0  0  0  0
  -29.4312  -11.4509   16.3366 C   0  0  0  0  0  0  0  0  0  0  0  0
  -30.1939  -13.7431   16.3070 C   0  0  0  0  0  0  0  0  0  0  0  0
  -27.4382  -37.5786   20.6843 C   0  0  0  0  0  0  0  0  0  0  0  0
  -28.2034  -34.9197   20.3825 C   0  0  0  0  0  0  0  0  0  0  0  0
  -26.8809  -29.1266   18.9000 C   0  0  0  0  0  0  0  0  0  0  0  0
  -24.8371  -21.4238   20.4675 C   0  0  0  0  0  0  0  0  0  0  0  0
  -24.0413  -19.2048   20.9966 C   0  0  0  0  0  0  0  0  0  0  0  0
  -29.7595  -11.3242   14.9869 C   0  0  0  0  0  0  0  0  0  0  0  0
  -30.5223  -13.6164   14.9573 C   0  0  0  0  0  0  0  0  0  0  0  0
  -27.5706  -27.9296   19.0876 C   0  0  0  0  0  0  0  0  0  0  0  0
  -32.5484  -10.8445   13.1362 C   0  0  0  0  0  0  0  0  0  0  0  0
  -33.2299   -9.6938   12.7402 C   0  0  0  0  0  0  0  0  0  0  0  0
  -26.2951  -27.5161   21.0929 C   0  0  0  0  0  0  0  0  0  0  0  0
  -31.4166   -9.1346   11.2447 C   0  0  0  0  0  0  0  0  0  0  0  0
  -29.6483  -12.6604   16.9967 C   0  0  0  0  0  0  0  0  0  0  0  0
  -30.1397  -12.5300   19.4965 C   0  0  0  0  0  0  0  0  0  0  0  0
  -26.8832  -36.6030   21.5275 C   0  0  0  0  0  0  0  0  0  0  0  0
  -25.8991  -29.5334   19.8149 C   0  0  0  0  0  0  0  0  0  0  0  0
  -27.2769  -35.2590   21.3831 C   0  0  0  0  0  0  0  0  0  0  0  0
  -25.5927  -28.7174   20.9133 C   0  0  0  0  0  0  0  0  0  0  0  0
  -26.3883  -19.5737   20.5580 C   0  0  0  0  0  0  0  0  0  0  0  0
  -26.1365  -20.9301   20.3515 C   0  0  0  0  0  0  0  0  0  0  0  0
  -25.3407  -18.7111   20.8806 C   0  0  0  0  0  0  0  0  0  0  0  0
  -30.3052  -12.4069   14.2973 C   0  0  0  0  0  0  0  0  0  0  0  0
  -27.2798  -27.1255   20.1857 C   0  0  0  0  0  0  0  0  0  0  0  0
  -31.3009  -11.1403   12.5866 C   0  0  0  0  0  0  0  0  0  0  0  0
  -32.6641   -8.8388   11.7944 C   0  0  0  0  0  0  0  0  0  0  0  0
  -30.7351  -10.2854   11.6408 C   0  0  0  0  0  0  0  0  0  0  0  0
  -29.3087  -12.7920   18.3908 C   0  0  0  0  0  0  0  0  0  0  0  0
  -29.3545  -12.8062   20.5891 C   0  0  0  0  0  0  0  0  0  0  0  0
  -28.3257  -18.5702   19.2657 C   0  0  0  0  0  0  0  0  0  0  0  0
  -31.4997  -12.0775   19.5328 C   0  0  0  0  0  0  0  0  0  0  0  0
  -25.5405  -32.0196   21.7627 C   0  0  0  0  0  0  0  0  0  0  0  0
  -22.6194  -30.7037   22.2707 C   0  0  0  0  0  0  0  0  0  0  0  0
  -27.0822  -23.1963   19.7912 C   0  0  0  0  0  0  0  0  0  0  0  0
  -20.6492  -27.9175   22.2247 C   0  0  0  0  0  0  0  0  0  0  0  0
  -24.6221  -16.3581   21.4221 C   0  0  0  0  0  0  0  0  0  0  0  0
  -25.9291  -37.0382   22.6114 C   0  0  0  0  0  0  0  0  0  0  0  0
  -25.1455  -30.8144   19.5838 C   0  0  0  0  0  0  0  0  0  0  0  0
  -24.5333  -29.0991   21.9135 C   0  0  0  0  0  0  0  0  0  0  0  0
  -25.1243  -35.8884   23.2120 C   0  0  0  0  0  0  0  0  0  0  0  0
  -24.7774  -12.8477   21.9970 C   0  0  0  0  0  0  0  0  0  0  0  0
  -26.0357  -34.7067   23.5279 C   0  0  0  0  0  0  0  0  0  0  0  0
  -26.0360  -12.4122   21.2431 C   0  0  0  0  0  0  0  0  0  0  0  0
  -29.7551  -18.1297   21.1214 C   0  0  0  0  0  0  0  0  0  0  0  0
  -24.0255  -13.9516   21.2554 C   0  0  0  0  0  0  0  0  0  0  0  0
  -28.6416  -19.0632   21.5559 C   0  0  0  0  0  0  0  0  0  0  0  0
  -26.0959  -14.6851   20.1397 C   0  0  0  0  0  0  0  0  0  0  0  0
  -26.6988  -34.1658   22.2554 C   0  0  1  0  0  0  0  0  0  0  0  0
  -24.5255  -31.3810   20.8574 C   0  0  1  0  0  0  0  0  0  0  0  0
  -26.9217  -13.6202   20.8799 C   0  0  2  0  0  0  0  0  0  0  0  0
  -29.7882  -18.2785   19.5983 C   0  0  0  0  0  0  0  0  0  0  0  0
  -30.2743  -17.0012   18.9175 C   0  0  0  0  0  0  0  0  0  0  0  0
  -30.6453  -19.4740   19.1660 C   0  0  0  0  0  0  0  0  0  0  0  0
  -18.3149  -27.1469   22.7296 C   0  0  0  0  0  0  0  0  0  0  0  0
  -23.2425  -30.7806   25.2567 C   0  0  0  0  0  0  0  0  0  0  0  0
  -21.3566  -29.1747   25.6207 C   0  0  0  0  0  0  0  0  0  0  0  0
  -20.9023  -31.4325   24.6622 C   0  0  0  0  0  0  0  0  0  0  0  0
  -20.1935  -27.0845   19.4216 C   0  0  0  0  0  0  0  0  0  0  0  0
  -28.4518  -23.7827   19.4683 C   0  0  0  0  0  0  0  0  0  0  0  0
  -28.4133  -25.2801   19.2031 C   0  0  0  0  0  0  0  0  0  1  0  0
  -22.0567  -29.6910   23.2386 C   0  0  1  0  0  0  0  0  0  0  0  0
  -19.2603  -27.6751   21.6619 C   0  0  2  0  0  0  0  0  0  0  0  0
  -21.9109  -30.2632   24.6769 C   0  0  0  0  0  0  0  0  0  0  0  0
  -28.0892  -13.2030   18.7482 N   0  0  0  0  0  0  0  0  0  0  0  0
  -28.1480  -13.2012   20.0908 N   0  0  0  0  0  0  0  0  0  0  0  0
  -27.7182  -19.0683   20.4370 N   0  0  0  0  0  0  0  0  0  0  0  0
  -23.8285  -30.3640   21.6475 N   0  0  0  0  0  0  0  0  0  0  0  0
  -24.9267  -15.0644   20.9483 N   0  0  0  0  0  0  0  0  0  0  0  0
  -29.5854  -12.7473   21.9179 N   0  0  0  0  0  0  0  0  0  0  0  0
  -32.1581  -11.8419   18.3181 N   0  0  0  0  0  0  0  0  0  0  0  0
  -27.1809  -21.8271   20.0237 N   0  0  0  0  0  0  0  0  0  0  0  0
  -25.5682  -17.3292   21.0958 N   0  0  0  0  0  0  0  0  0  0  0  0
  -25.7634  -33.3582   21.5023 N   0  0  0  0  0  0  0  0  0  0  0  0
  -20.8064  -29.2184   22.6539 N   0  0  0  0  0  0  0  0  0  0  0  0
  -19.3172  -26.6824   20.5518 N   0  3  0  0  0  0  0  0  0  0  0  0
  -27.8570  -18.4306   18.1445 O   0  0  0  0  0  0  0  0  0  0  0  0
  -32.1076  -11.8719   20.6106 O   0  0  0  0  0  0  0  0  0  0  0  0
  -26.0802  -31.3479   22.6340 O   0  0  0  0  0  0  0  0  0  0  0  0
  -22.0050  -31.7543   22.0696 O   0  0  0  0  0  0  0  0  0  0  0  0
  -26.0685  -23.8859   19.8259 O   0  0  0  0  0  0  0  0  0  0  0  0
  -21.5074  -27.0396   22.2815 O   0  0  0  0  0  0  0  0  0  0  0  0
  -23.6113  -16.5822   22.0929 O   0  0  0  0  0  0  0  0  0  0  0  0
  -30.6259  -12.2836   12.9803 O   0  0  0  0  0  0  0  0  0  0  0  0
  -27.9519  -25.9569   20.3716 O   0  0  0  0  0  0  0  0  0  1  0  0
  -33.3193   -7.7346   11.4130 F   0  0  0  0  0  0  0  0  0  0  0  0
  -29.5375  -10.5649   11.1084 F   0  0  0  0  0  0  0  0  0  0  0  0
  1  2  1  0  0  0  0
  1  6  2  0  0  0  0
  2  7  2  0  0  0  0
  3  9  2  0  0  0  0
  3 10  1  0  0  0  0
  4 11  2  0  0  0  0
  4 18  1  0  0  0  0
  5 12  1  0  0  0  0
  5 18  2  0  0  0  0
  6 20  1  0  0  0  0
  7 22  1  0  0  0  0
  8 13  2  0  0  0  0
  8 21  1  0  0  0  0
  9 25  1  0  0  0  0
 10 26  2  0  0  0  0
 11 27  1  0  0  0  0
 12 27  2  0  0  0  0
 13 28  1  0  0  0  0
 14 15  2  0  0  0  0
 14 29  1  0  0  0  0
 15 30  1  0  0  0  0
 16 23  1  0  0  0  0
 16 28  2  0  0  0  0
 17 30  2  0  0  0  0
 17 31  1  0  0  0  0
 18 32  1  0  0  0  0
 19 32  1  0  0  0  0
 19 33  2  0  0  0  0
 19 35  1  0  0  0  0
 20 22  2  0  0  0  0
 20 41  1  0  0  0  0
 21 23  2  0  0  0  0
 21 42  1  0  0  0  0
 22 52  1  0  0  0  0
 23 43  1  0  0  0  0
 24 25  2  0  0  0  0
 24 26  1  0  0  0  0
 24 70  1  0  0  0  0
 25 75  1  0  0  0  0
 26 76  1  0  0  0  0
 27 87  1  0  0  0  0
 28 88  1  0  0  0  0
 29 31  2  0  0  0  0
 29 87  1  0  0  0  0
 30 89  1  0  0  0  0
 31 90  1  0  0  0  0
 32 68  2  0  0  0  0
 33 69  1  0  0  0  0
 33 73  1  0  0  0  0
 34 55  1  0  0  0  0
 34 70  1  0  0  0  0
 34 80  2  0  0  0  0
 35 74  1  0  0  0  0
 35 81  2  0  0  0  0
 36 53  1  0  0  0  0
 36 77  1  0  0  0  0
 36 82  2  0  0  0  0
 37 65  1  0  0  0  0
 37 71  1  0  0  0  0
 37 83  2  0  0  0  0
 38 63  1  0  0  0  0
 38 75  1  0  0  0  0
 38 84  2  0  0  0  0
 39 66  1  0  0  0  0
 39 78  1  0  0  0  0
 39 85  2  0  0  0  0
 40 72  1  0  0  0  0
 40 76  1  0  0  0  0
 40 86  2  0  0  0  0
 41 44  1  0  0  0  0
 42 53  1  0  0  0  0
 43 71  1  0  0  0  0
 44 46  1  0  0  0  0
 45 47  1  0  0  0  0
 45 49  1  0  0  0  0
 46 52  1  0  0  0  0
 47 54  1  0  0  0  0
 48 50  1  0  0  0  0
 48 55  1  0  0  0  0
 49 72  1  0  0  0  0
 50 70  1  0  0  0  0
 51 54  1  0  0  0  0
 51 72  1  0  0  0  0
 52 77  1  0  0  0  0
 53 71  1  0  0  0  0
 54 69  1  0  0  0  0
 55 56  1  0  0  0  0
 55 57  1  0  0  0  0
 58 66  1  0  0  0  0
 59 67  1  0  0  0  0
 60 67  1  0  0  0  0
 61 67  1  0  0  0  0
 62 79  1  0  0  0  0
 63 64  1  0  0  0  0
 64 88  1  0  0  0  0
 65 67  1  0  0  0  0
 65 78  1  0  0  0  0
 66 79  1  0  0  0  0
 68 69  1  0  0  0  0
M  CHG  1  79   1
M  ISO  4  40 100  64 101  76 100  88 101
M  END
> <Batch ID>
0068

> <Smiles>
CNC(C)C(=O)NC(C(=O)N1Cc2cc([101O:1][101CH2:1]CC(=O)Nc3cccc([100NH:0][100C:0](=O)N4CCCC(n5nc(-c6ccc(Oc7ccc(F)cc7F)cc6)c(C(N)=O)c5N)C4)c3N3CCC(C)(C)C3=O)ccc2CC1C(=O)NC1CCCc2ccccc21)C(C)(C)C

> <Shape>
0.280

> <Color>
0.070

> <Negative vol penalty>
0.000

$$$$

  -OEChem-04042323273D

 85 94  0     1  0  0  0  0  0999 V2000
  -30.0178  -36.3258   23.7080 C   0  0  0  0  0  0  0  0  0  0  0  0
  -30.3247  -34.9690   23.6920 C   0  0  0  0  0  0  0  0  0  0  0  0
  -24.7177   -8.8816   21.4299 C   0  0  0  0  0  0  0  0  0  0  0  0
  -23.1645  -10.7094   21.1412 C   0  0  0  0  0  0  0  0  0  0  0  0
  -28.7765  -36.7531   24.1776 C   0  0  0  0  0  0  0  0  0  0  0  0
  -29.3908  -34.0387   24.1465 C   0  0  0  0  0  0  0  0  0  0  0  0
  -28.4662  -28.3877   21.9745 C   0  0  0  0  0  0  0  0  0  0  0  0
  -25.2590  -19.6045   20.2661 C   0  0  0  0  0  0  0  0  0  0  0  0
  -26.1093  -20.5125   20.8971 C   0  0  0  0  0  0  0  0  0  0  0  0
  -23.8687   -8.3097   22.3773 C   0  0  0  0  0  0  0  0  0  0  0  0
  -22.3154  -10.1375   22.0886 C   0  0  0  0  0  0  0  0  0  0  0  0
  -28.8989  -27.1345   22.4060 C   0  0  0  0  0  0  0  0  0  0  0  0
  -21.0220   -6.4852   22.3921 C   0  0  0  0  0  0  0  0  0  0  0  0
  -20.7812   -5.1142   22.3031 C   0  0  0  0  0  0  0  0  0  0  0  0
  -26.8154  -26.8270   23.5823 C   0  0  0  0  0  0  0  0  0  0  0  0
  -27.9064  -18.9010   20.7942 C   0  0  0  0  0  0  0  0  0  0  0  0
  -21.6980   -4.8094   24.5176 C   0  0  0  0  0  0  0  0  0  0  0  0
  -24.3657  -10.0815   20.8118 C   0  0  0  0  0  0  0  0  0  0  0  0
  -25.2387  -10.4504   18.4434 C   0  0  0  0  0  0  0  0  0  0  0  0
  -27.8232  -35.8268   24.6291 C   0  0  0  0  0  0  0  0  0  0  0  0
  -27.2072  -28.8753   22.3533 C   0  0  0  0  0  0  0  0  0  0  0  0
  -28.1360  -34.4540   24.6238 C   0  0  0  0  0  0  0  0  0  0  0  0
  -26.3681  -28.0855   23.1522 C   0  0  0  0  0  0  0  0  0  0  0  0
  -25.7324  -18.3447   19.8992 C   0  0  0  0  0  0  0  0  0  0  0  0
  -27.4330  -20.1608   21.1611 C   0  0  0  0  0  0  0  0  0  0  0  0
  -27.0561  -17.9930   20.1632 C   0  0  0  0  0  0  0  0  0  0  0  0
  -22.6675   -8.9376   22.7067 C   0  0  0  0  0  0  0  0  0  0  0  0
  -28.0746  -26.3552   23.2124 C   0  0  0  0  0  0  0  0  0  0  0  0
  -21.6009   -7.0183   23.5438 C   0  0  0  0  0  0  0  0  0  0  0  0
  -21.1192   -4.2763   23.3658 C   0  0  0  0  0  0  0  0  0  0  0  0
  -21.9389   -6.1804   24.6065 C   0  0  0  0  0  0  0  0  0  0  0  0
  -25.2426  -10.6730   19.8335 C   0  0  0  0  0  0  0  0  0  0  0  0
  -26.2559  -11.2405   17.9663 C   0  0  0  0  0  0  0  0  0  0  0  0
  -27.9739  -22.3927   22.2358 C   0  0  0  0  0  0  0  0  0  0  0  0
  -24.3914   -9.6051   17.6541 C   0  0  0  0  0  0  0  0  0  0  0  0
  -26.1804  -31.3768   24.0242 C   0  0  0  0  0  0  0  0  0  0  0  0
  -23.2639  -30.3186   23.0776 C   0  0  0  0  0  0  0  0  0  0  0  0
  -21.3321  -27.7146   22.0125 C   0  0  0  0  0  0  0  0  0  0  0  0
  -28.8460  -16.2281   19.9962 C   0  0  0  0  0  0  0  0  0  0  0  0
  -26.5129  -36.3397   25.1718 C   0  0  0  0  0  0  0  0  0  0  0  0
  -26.7444  -30.2179   21.8575 C   0  0  0  0  0  0  0  0  0  0  0  0
  -24.9992  -28.5546   23.5700 C   0  0  0  0  0  0  0  0  0  0  0  0
  -25.4374  -35.2624   25.2859 C   0  0  0  0  0  0  0  0  0  0  0  0
  -30.4550  -13.1348   19.2753 C   0  0  0  0  0  0  0  0  0  0  0  0
  -26.0080  -34.0048   25.9336 C   0  0  0  0  0  0  0  0  0  0  0  0
  -29.3000  -12.1333   19.2041 C   0  0  0  0  0  0  0  0  0  0  0  0
  -30.3270  -22.0914   22.4269 C   0  0  0  0  0  0  0  0  0  0  0  0
  -30.2238  -14.1914   20.3542 C   0  0  0  0  0  0  0  0  0  0  0  0
  -29.6705  -20.7530   22.1539 C   0  0  0  0  0  0  0  0  0  0  0  0
  -27.7833  -13.8944   20.1966 C   0  0  0  0  0  0  0  0  0  0  0  0
  -27.1400  -33.4125   25.0855 C   0  0  1  0  0  0  0  0  0  0  0  0
  -29.1850  -22.9314   22.9802 C   0  0  1  0  0  0  0  0  0  0  0  0
  -25.6520  -30.8320   22.7274 C   0  0  1  0  0  0  0  0  0  0  0  0
  -27.9405  -12.8489   19.0805 C   0  0  2  0  0  0  0  0  0  0  0  0
  -24.7992  -17.3924   19.2247 C   0  0  0  0  0  0  0  0  0  0  0  0
  -18.9771  -27.1485   21.3560 C   0  0  0  0  0  0  0  0  0  0  0  0
  -22.4441  -30.3311   26.0166 C   0  0  0  0  0  0  0  0  0  0  0  0
  -20.4872  -28.8942   25.4049 C   0  0  0  0  0  0  0  0  0  0  0  0
  -20.6985  -31.1862   24.4431 C   0  0  0  0  0  0  0  0  0  0  0  0
  -22.1584  -26.9338   19.2800 C   0  0  0  0  0  0  0  0  0  0  0  0
  -29.3900  -24.4214   22.7812 C   0  0  0  0  0  0  0  0  0  1  0  0
  -22.2435  -29.3555   23.6346 C   0  0  1  0  0  0  0  0  0  0  0  0
  -20.3452  -27.5960   20.8651 C   0  0  2  0  0  0  0  0  0  0  0  0
  -21.4948  -29.9334   24.8687 C   0  0  0  0  0  0  0  0  0  0  0  0
  -26.1874  -11.5368   20.2147 N   0  0  0  0  0  0  0  0  0  0  0  0
  -26.7867  -11.8638   19.0572 N   0  0  0  0  0  0  0  0  0  0  0  0
  -28.3025  -21.0902   21.8068 N   0  0  0  0  0  0  0  0  0  0  0  0
  -24.5945  -29.8770   23.0649 N   0  0  0  0  0  0  0  0  0  0  0  0
  -28.9187  -14.8299   20.1709 N   0  0  0  0  0  0  0  0  0  0  0  0
  -26.7391  -11.4559   16.7244 N   0  0  0  0  0  0  0  0  0  0  0  0
  -23.3969   -8.8617   18.3041 N   0  0  0  0  0  0  0  0  0  0  0  0
  -27.5555  -16.7182   19.7984 N   0  0  0  0  0  0  0  0  0  0  0  0
  -26.5990  -32.6918   23.9530 N   0  0  0  0  0  0  0  0  0  0  0  0
  -21.3718  -28.9955   22.5216 N   0  0  0  0  0  0  0  0  0  0  0  0
  -20.8321  -26.6058   19.8634 N   0  3  0  0  0  0  0  0  0  0  0  0
  -26.9247  -23.0108   22.1283 O   0  0  0  0  0  0  0  0  0  0  0  0
  -24.5233   -9.4992   16.4111 O   0  0  0  0  0  0  0  0  0  0  0  0
  -26.2052  -30.6579   25.0163 O   0  0  0  0  0  0  0  0  0  0  0  0
  -22.8929  -31.4193   22.6623 O   0  0  0  0  0  0  0  0  0  0  0  0
  -21.9982  -26.7652   22.4190 O   0  0  0  0  0  0  0  0  0  0  0  0
  -29.8570  -16.9351   19.9930 O   0  0  0  0  0  0  0  0  0  0  0  0
  -21.8386   -8.3798   23.6309 O   0  0  0  0  0  0  0  0  0  0  0  0
  -28.4947  -25.1319   23.6355 O   0  0  0  0  0  0  0  0  0  1  0  0
  -20.8864   -2.9599   23.2809 F   0  0  0  0  0  0  0  0  0  0  0  0
  -22.4942   -6.6870   25.7160 F   0  0  0  0  0  0  0  0  0  0  0  0
  1  2  1  0  0  0  0
  1  5  2  0  0  0  0
  2  6  2  0  0  0  0
  3 10  2  0  0  0  0
  3 18  1  0  0  0  0
  4 11  1  0  0  0  0
  4 18  2  0  0  0  0
  5 20  1  0  0  0  0
  6 22  1  0  0  0  0
  7 12  2  0  0  0  0
  7 21  1  0  0  0  0
  8  9  2  0  0  0  0
  8 24  1  0  0  0  0
  9 25  1  0  0  0  0
 10 27  1  0  0  0  0
 11 27  2  0  0  0  0
 12 28  1  0  0  0  0
 13 14  2  0  0  0  0
 13 29  1  0  0  0  0
 14 30  1  0  0  0  0
 15 23  1  0  0  0  0
 15 28  2  0  0  0  0
 16 25  2  0  0  0  0
 16 26  1  0  0  0  0
 17 30  2  0  0  0  0
 17 31  1  0  0  0  0
 18 32  1  0  0  0  0
 19 32  1  0  0  0  0
 19 33  2  0  0  0  0
 19 35  1  0  0  0  0
 20 22  2  0  0  0  0
 20 40  1  0  0  0  0
 21 23  2  0  0  0  0
 21 41  1  0  0  0  0
 22 51  1  0  0  0  0
 23 42  1  0  0  0  0
 24 26  2  0  0  0  0
 24 55  1  0  0  0  0
 25 67  1  0  0  0  0
 26 72  1  0  0  0  0
 27 82  1  0  0  0  0
 28 83  1  0  0  0  0
 29 31  2  0  0  0  0
 29 82  1  0  0  0  0
 30 84  1  0  0  0  0
 31 85  1  0  0  0  0
 32 65  2  0  0  0  0
 33 66  1  0  0  0  0
 33 70  1  0  0  0  0
 34 52  1  0  0  0  0
 34 67  1  0  0  0  0
 34 76  2  0  0  0  0
 35 71  1  0  0  0  0
 35 77  2  0  0  0  0
 36 53  1  0  0  0  0
 36 73  1  0  0  0  0
 36 78  2  0  0  0  0
 37 62  1  0  0  0  0
 37 68  1  0  0  0  0
 37 79  2  0  0  0  0
 38 63  1  0  0  0  0
 38 74  1  0  0  0  0
 38 80  2  0  0  0  0
 39 69  1  0  0  0  0
 39 72  1  0  0  0  0
 39 81  2  0  0  0  0
 40 43  1  0  0  0  0
 41 53  1  0  0  0  0
 42 68  1  0  0  0  0
 43 45  1  0  0  0  0
 44 46  1  0  0  0  0
 44 48  1  0  0  0  0
 45 51  1  0  0  0  0
 46 54  1  0  0  0  0
 47 49  1  0  0  0  0
 47 52  1  0  0  0  0
 48 69  1  0  0  0  0
 49 67  1  0  0  0  0
 50 54  1  0  0  0  0
 50 69  1  0  0  0  0
 51 73  1  0  0  0  0
 52 61  1  0  0  0  0
 53 68  1  0  0  0  0
 54 66  1  0  0  0  0
 56 63  1  0  0  0  0
 57 64  1  0  0  0  0
 58 64  1  0  0  0  0
 59 64  1  0  0  0  0
 60 75  1  0  0  0  0
 61 83  1  0  0  0  0
 62 64  1  0  0  0  0
 62 74  1  0  0  0  0
 63 75  1  0  0  0  0
 65 66  1  0  0  0  0
M  CHG  1  75   1
M  ISO  4  39 100  61 101  72 100  83 101
M  END
> <Batch ID>
0068

> <Smiles>
CNC(C)C(=O)NC(C(=O)N1Cc2cc([101O:1][101CH2:1]C3CCN(c4ccc(C)c([100NH:0][100C:0](=O)N5CCCC(n6nc(-c7ccc(Oc8ccc(F)cc8F)cc7)c(C(N)=O)c6N)C5)c4)C3=O)ccc2CC1C(=O)NC1CCCc2ccccc21)C(C)(C)C

> <Shape>
0.280

> <Color>
0.081

> <Negative vol penalty>
0.000

$$$$

  -OEChem-04042323273D

 85 93  0     1  0  0  0  0  0999 V2000
  -22.5875   -9.0561   26.8094 C   0  0  0  0  0  0  0  0  0  0  0  0
  -23.5255  -10.0712   26.6517 C   0  0  0  0  0  0  0  0  0  0  0  0
  -23.3357  -10.1592   22.2382 C   0  0  0  0  0  0  0  0  0  0  0  0
  -23.5783   -9.5448   19.9142 C   0  0  0  0  0  0  0  0  0  0  0  0
  -21.2357   -9.3717   26.9394 C   0  0  0  0  0  0  0  0  0  0  0  0
  -23.1122  -11.4027   26.6228 C   0  0  0  0  0  0  0  0  0  0  0  0
  -26.1462  -16.2480   28.8191 C   0  0  0  0  0  0  0  0  0  0  0  0
  -22.5907   -9.0023   22.4663 C   0  0  0  0  0  0  0  0  0  0  0  0
  -22.8333   -8.3879   20.1423 C   0  0  0  0  0  0  0  0  0  0  0  0
  -26.9542  -17.2051   28.2068 C   0  0  0  0  0  0  0  0  0  0  0  0
  -19.4240   -7.9378   21.9528 C   0  0  0  0  0  0  0  0  0  0  0  0
  -18.2567   -8.0577   22.7068 C   0  0  0  0  0  0  0  0  0  0  0  0
  -30.6418  -19.8043   21.6497 C   0  0  0  0  0  0  0  0  0  0  0  0
  -31.1764  -17.6600   20.6736 C   0  0  0  0  0  0  0  0  0  0  0  0
  -25.0614  -18.6919   28.0466 C   0  0  0  0  0  0  0  0  0  0  0  0
  -29.5823  -17.7995   22.4838 C   0  0  0  0  0  0  0  0  0  0  0  0
  -19.1493   -6.5119   24.3349 C   0  0  0  0  0  0  0  0  0  0  0  0
  -23.8295  -10.4305   20.9621 C   0  0  0  0  0  0  0  0  0  0  0  0
  -31.3513  -19.0430   20.7210 C   0  0  0  0  0  0  0  0  0  0  0  0
  -24.1803  -12.9568   20.9128 C   0  0  0  0  0  0  0  0  0  0  0  0
  -20.8066  -10.7082   26.9218 C   0  0  0  0  0  0  0  0  0  0  0  0
  -24.7849  -16.5019   29.0402 C   0  0  0  0  0  0  0  0  0  0  0  0
  -21.7532  -11.7364   26.7514 C   0  0  0  0  0  0  0  0  0  0  0  0
  -24.2388  -17.7374   28.6641 C   0  0  0  0  0  0  0  0  0  0  0  0
  -29.7573  -19.1826   22.5312 C   0  0  0  0  0  0  0  0  0  0  0  0
  -30.2919  -17.0382   21.5550 C   0  0  0  0  0  0  0  0  0  0  0  0
  -22.3395   -8.1166   21.4184 C   0  0  0  0  0  0  0  0  0  0  0  0
  -26.4112  -18.4261   27.8179 C   0  0  0  0  0  0  0  0  0  0  0  0
  -20.4541   -7.1049   22.3899 C   0  0  0  0  0  0  0  0  0  0  0  0
  -18.1193   -7.3448   23.8978 C   0  0  0  0  0  0  0  0  0  0  0  0
  -20.3167   -6.3920   23.5809 C   0  0  0  0  0  0  0  0  0  0  0  0
  -24.5987  -11.6258   20.7257 C   0  0  0  0  0  0  0  0  0  0  0  0
  -25.2684  -13.7129   20.5510 C   0  0  0  0  0  0  0  0  0  0  0  0
  -32.2680  -19.6875   19.8070 C   0  0  0  0  0  0  0  0  0  0  0  0
  -22.9207  -13.4645   21.3727 C   0  0  0  0  0  0  0  0  0  0  0  0
  -22.0675  -15.1795   28.0548 C   0  0  0  0  0  0  0  0  0  0  0  0
  -20.7432  -17.2759   30.1461 C   0  0  0  0  0  0  0  0  0  0  0  0
  -28.1213  -19.5025   24.4193 C   0  0  0  0  0  0  0  0  0  0  0  0
  -21.0128  -20.2080   31.8714 C   0  0  0  0  0  0  0  0  0  0  0  0
  -30.7416  -14.7312   20.6485 C   0  0  0  0  0  0  0  0  0  0  0  0
  -19.3296  -10.9977   27.0185 C   0  0  0  0  0  0  0  0  0  0  0  0
  -23.9327  -15.4694   29.7260 C   0  0  0  0  0  0  0  0  0  0  0  0
  -22.7878  -18.0670   28.8974 C   0  0  0  0  0  0  0  0  0  0  0  0
  -19.0149  -12.4535   27.3534 C   0  0  0  0  0  0  0  0  0  0  0  0
  -29.5696  -12.3958   18.2300 C   0  0  0  0  0  0  0  0  0  0  0  0
  -19.8473  -13.3927   26.4863 C   0  0  0  0  0  0  0  0  0  0  0  0
  -28.1374  -12.0968   18.6791 C   0  0  0  0  0  0  0  0  0  0  0  0
  -30.5094  -12.5839   19.4195 C   0  0  0  0  0  0  0  0  0  0  0  0
  -28.6335  -13.2730   20.8602 C   0  0  0  0  0  0  0  0  0  0  0  0
  -21.3466  -13.1940   26.7399 C   0  0  1  0  0  0  0  0  0  0  0  0
  -22.4441  -15.6351   29.4362 C   0  0  1  0  0  0  0  0  0  0  0  0
  -27.6367  -13.1399   19.6973 C   0  0  2  0  0  0  0  0  0  0  0  0
  -20.4037  -22.0128   33.5051 C   0  0  0  0  0  0  0  0  0  0  0  0
  -18.9721  -18.2461   27.8587 C   0  0  0  0  0  0  0  0  0  0  0  0
  -18.4478  -20.2807   29.2202 C   0  0  0  0  0  0  0  0  0  0  0  0
  -17.8046  -18.0211   30.0589 C   0  0  0  0  0  0  0  0  0  0  0  0
  -22.4266  -18.8429   34.0843 C   0  0  0  0  0  0  0  0  0  0  0  0
  -27.5760  -20.6695   25.2347 C   0  0  0  0  0  0  0  0  0  0  0  0
  -26.5670  -20.2416   26.2896 C   0  0  0  0  0  0  0  0  0  1  0  0
  -20.2408  -18.6970   30.0617 C   0  0  1  0  0  0  0  0  0  0  0  0
  -20.7616  -20.5452   33.3301 C   0  0  2  0  0  0  0  0  0  0  0  0
  -18.8933  -18.8046   29.2936 C   0  0  0  0  0  0  0  0  0  0  0  0
  -25.8545  -11.5379   20.2795 N   0  0  0  0  0  0  0  0  0  0  0  0
  -26.2346  -12.8233   20.1831 N   0  0  0  0  0  0  0  0  0  0  0  0
  -21.9941  -17.0225   29.5657 N   0  0  0  0  0  0  0  0  0  0  0  0
  -29.9726  -13.5894   20.3391 N   0  0  0  0  0  0  0  0  0  0  0  0
  -25.4833  -15.0451   20.5147 N   0  0  0  0  0  0  0  0  0  0  0  0
  -32.4433  -21.0191   19.8444 N   0  0  0  0  0  0  0  0  0  0  0  0
  -21.9236  -13.7353   20.4257 N   0  0  0  0  0  0  0  0  0  0  0  0
  -29.0371  -19.9550   23.4732 N   0  0  0  0  0  0  0  0  0  0  0  0
  -30.1148  -15.6331   21.5077 N   0  0  0  0  0  0  0  0  0  0  0  0
  -21.7403  -13.8394   27.9740 N   0  0  0  0  0  0  0  0  0  0  0  0
  -20.1885  -19.1936   31.4325 N   0  0  0  0  0  0  0  0  0  0  0  0
  -32.9575  -18.9628   18.9100 N   0  3  0  0  0  0  0  0  0  0  0  0
  -21.9758  -20.2571   34.1448 N   0  3  0  0  0  0  0  0  0  0  0  0
  -22.6921  -13.6872   22.5858 O   0  0  0  0  0  0  0  0  0  0  0  0
  -22.0720  -15.9846   27.1309 O   0  0  0  0  0  0  0  0  0  0  0  0
  -20.0544  -16.4237   30.7125 O   0  0  0  0  0  0  0  0  0  0  0  0
  -27.7641  -18.3457   24.6156 O   0  0  0  0  0  0  0  0  0  0  0  0
  -21.8534  -20.7892   31.1886 O   0  0  0  0  0  0  0  0  0  0  0  0
  -31.8620  -14.9098   20.1638 O   0  0  0  0  0  0  0  0  0  0  0  0
  -21.6128   -6.9874   21.6406 O   0  0  0  0  0  0  0  0  0  0  0  0
  -27.1976  -19.3618   27.2195 O   0  0  0  0  0  0  0  0  0  1  0  0
  -16.9989   -7.4613   24.6225 F   0  0  0  0  0  0  0  0  0  0  0  0
  -21.3033   -5.5911   24.0065 F   0  0  0  0  0  0  0  0  0  0  0  0
  1  2  1  0  0  0  0
  1  5  2  0  0  0  0
  2  6  2  0  0  0  0
  3  8  2  0  0  0  0
  3 18  1  0  0  0  0
  4  9  1  0  0  0  0
  4 18  2  0  0  0  0
  5 21  1  0  0  0  0
  6 23  1  0  0  0  0
  7 10  2  0  0  0  0
  7 22  1  0  0  0  0
  8 27  1  0  0  0  0
  9 27  2  0  0  0  0
 10 28  1  0  0  0  0
 11 12  2  0  0  0  0
 11 29  1  0  0  0  0
 12 30  1  0  0  0  0
 13 19  1  0  0  0  0
 13 25  2  0  0  0  0
 14 19  2  0  0  0  0
 14 26  1  0  0  0  0
 15 24  1  0  0  0  0
 15 28  2  0  0  0  0
 16 25  1  0  0  0  0
 16 26  2  0  0  0  0
 17 30  2  0  0  0  0
 17 31  1  0  0  0  0
 18 32  1  0  0  0  0
 19 34  1  0  0  0  0
 20 32  1  0  0  0  0
 20 33  2  0  0  0  0
 20 35  1  0  0  0  0
 21 23  2  0  0  0  0
 21 41  1  0  0  0  0
 22 24  2  0  0  0  0
 22 42  1  0  0  0  0
 23 50  1  0  0  0  0
 24 43  1  0  0  0  0
 25 70  1  0  0  0  0
 26 71  1  0  0  0  0
 27 82  1  0  0  0  0
 28 83  1  0  0  0  0
 29 31  2  0  0  0  0
 29 82  1  0  0  0  0
 30 84  1  0  0  0  0
 31 85  1  0  0  0  0
 32 63  2  0  0  0  0
 33 64  1  0  0  0  0
 33 67  1  0  0  0  0
 34 68  1  0  0  0  0
 34 74  2  0  0  0  0
 35 69  1  0  0  0  0
 35 76  2  0  0  0  0
 36 51  1  0  0  0  0
 36 72  1  0  0  0  0
 36 77  2  0  0  0  0
 37 60  1  0  0  0  0
 37 65  1  0  0  0  0
 37 78  2  0  0  0  0
 38 58  1  0  0  0  0
 38 70  1  0  0  0  0
 38 79  2  0  0  0  0
 39 61  1  0  0  0  0
 39 73  1  0  0  0  0
 39 80  2  0  0  0  0
 40 66  1  0  0  0  0
 40 71  1  0  0  0  0
 40 81  2  0  0  0  0
 41 44  1  0  0  0  0
 42 51  1  0  0  0  0
 43 65  1  0  0  0  0
 44 46  1  0  0  0  0
 45 47  1  0  0  0  0
 45 48  1  0  0  0  0
 46 50  1  0  0  0  0
 47 52  1  0  0  0  0
 48 66  1  0  0  0  0
 49 52  1  0  0  0  0
 49 66  1  0  0  0  0
 50 72  1  0  0  0  0
 51 65  1  0  0  0  0
 52 64  1  0  0  0  0
 53 61  1  0  0  0  0
 54 62  1  0  0  0  0
 55 62  1  0  0  0  0
 56 62  1  0  0  0  0
 57 75  1  0  0  0  0
 58 59  1  0  0  0  0
 59 83  1  0  0  0  0
 60 62  1  0  0  0  0
 60 73  1  0  0  0  0
 61 75  1  0  0  0  0
 63 64  1  0  0  0  0
M  CHG  2  74   1  75   1
M  ISO  4  40 100  59 101  71 100  83 101
M  END
> <Batch ID>
0068

> <Smiles>
CNC(C)C(=O)NC(C(=O)N1Cc2cc([101O:1][101CH2:1]CC(=O)Nc3cc([100NH:0][100C:0](=O)N4CCCC(n5nc(-c6ccc(Oc7ccc(F)cc7F)cc6)c(C(N)=O)c5N)C4)cc(C(=N)N)c3)ccc2CC1C(=O)NC1CCCc2ccccc21)C(C)(C)C

> <Shape>
0.158

> <Color>
0.150

> <Negative vol penalty>
0.000

$$$$

  -OEChem-04042323273D

 84 92  0     1  0  0  0  0  0999 V2000
  -28.2892  -24.7083   16.5442 C   0  0  0  0  0  0  0  0  0  0  0  0
  -27.1039  -24.8581   17.2571 C   0  0  0  0  0  0  0  0  0  0  0  0
  -28.7763  -15.8970   21.6202 C   0  0  0  0  0  0  0  0  0  0  0  0
  -27.0484  -16.1070   19.9446 C   0  0  0  0  0  0  0  0  0  0  0  0
  -29.4756  -25.2412   17.0467 C   0  0  0  0  0  0  0  0  0  0  0  0
  -27.1046  -25.5398   18.4735 C   0  0  0  0  0  0  0  0  0  0  0  0
  -23.2420  -28.7892   18.8814 C   0  0  0  0  0  0  0  0  0  0  0  0
  -20.2219  -20.5093   21.4432 C   0  0  0  0  0  0  0  0  0  0  0  0
  -19.9477  -21.7694   23.4862 C   0  0  0  0  0  0  0  0  0  0  0  0
  -29.1215  -14.6466   21.1075 C   0  0  0  0  0  0  0  0  0  0  0  0
  -27.3936  -14.8566   19.4319 C   0  0  0  0  0  0  0  0  0  0  0  0
  -21.9911  -28.2560   19.1893 C   0  0  0  0  0  0  0  0  0  0  0  0
  -29.7938  -13.5606   17.4369 C   0  0  0  0  0  0  0  0  0  0  0  0
  -29.9010  -13.4369   16.0517 C   0  0  0  0  0  0  0  0  0  0  0  0
  -19.2851  -21.3279   20.8125 C   0  0  0  0  0  0  0  0  0  0  0  0
  -19.0109  -22.5881   22.8555 C   0  0  0  0  0  0  0  0  0  0  0  0
  -22.2916  -28.8979   21.4951 C   0  0  0  0  0  0  0  0  0  0  0  0
  -28.1657  -11.7559   16.0675 C   0  0  0  0  0  0  0  0  0  0  0  0
  -27.7397  -16.6272   21.0388 C   0  0  0  0  0  0  0  0  0  0  0  0
  -27.9048  -19.1686   21.1857 C   0  0  0  0  0  0  0  0  0  0  0  0
  -29.4890  -25.9382   18.2652 C   0  0  0  0  0  0  0  0  0  0  0  0
  -24.0331  -29.3721   19.8819 C   0  0  0  0  0  0  0  0  0  0  0  0
  -28.2925  -26.0813   18.9934 C   0  0  0  0  0  0  0  0  0  0  0  0
  -23.5511  -29.4401   21.1969 C   0  0  0  0  0  0  0  0  0  0  0  0
  -20.5532  -20.7300   22.7801 C   0  0  0  0  0  0  0  0  0  0  0  0
  -28.4302  -14.1264   20.0133 C   0  0  0  0  0  0  0  0  0  0  0  0
  -21.5170  -28.3076   20.4968 C   0  0  0  0  0  0  0  0  0  0  0  0
  -28.8726  -12.7819   18.1375 C   0  0  0  0  0  0  0  0  0  0  0  0
  -29.0869  -12.5346   15.3670 C   0  0  0  0  0  0  0  0  0  0  0  0
  -28.0586  -11.8796   17.4528 C   0  0  0  0  0  0  0  0  0  0  0  0
  -18.6796  -22.3673   21.5186 C   0  0  0  0  0  0  0  0  0  0  0  0
  -27.3822  -17.9187   21.5683 C   0  0  0  0  0  0  0  0  0  0  0  0
  -27.2443  -20.0744   21.9793 C   0  0  0  0  0  0  0  0  0  0  0  0
  -28.8985  -19.4828   20.2011 C   0  0  0  0  0  0  0  0  0  0  0  0
  -26.8899  -28.7504   21.1292 C   0  0  0  0  0  0  0  0  0  0  0  0
  -26.3701  -31.5312   22.7164 C   0  0  0  0  0  0  0  0  0  0  0  0
  -18.9699  -25.7697   20.8337 C   0  0  0  0  0  0  0  0  0  0  0  0
  -24.1270  -33.8009   23.9263 C   0  0  0  0  0  0  0  0  0  0  0  0
  -21.9462  -19.9812   24.7410 C   0  0  0  0  0  0  0  0  0  0  0  0
  -30.8045  -26.4555   18.7910 C   0  0  0  0  0  0  0  0  0  0  0  0
  -25.3687  -29.9667   19.5285 C   0  0  0  0  0  0  0  0  0  0  0  0
  -24.3528  -30.0733   22.3036 C   0  0  0  0  0  0  0  0  0  0  0  0
  -30.6515  -27.4884   19.9045 C   0  0  0  0  0  0  0  0  0  0  0  0
  -25.1308  -20.4620   26.2591 C   0  0  0  0  0  0  0  0  0  0  0  0
  -29.6338  -27.0137   20.9369 C   0  0  0  0  0  0  0  0  0  0  0  0
  -26.1173  -19.9838   25.1914 C   0  0  0  0  0  0  0  0  0  0  0  0
  -23.8618  -19.6118   26.2803 C   0  0  0  0  0  0  0  0  0  0  0  0
  -24.1732  -18.9935   23.9160 C   0  0  0  0  0  0  0  0  0  0  0  0
  -28.2483  -26.8358   20.3044 C   0  0  1  0  0  0  0  0  0  0  0  0
  -26.3095  -30.0759   20.7244 C   0  0  1  0  0  0  0  0  0  0  0  0
  -25.4393  -19.8596   23.8128 C   0  0  2  0  0  0  0  0  0  0  0  0
  -24.0003  -35.9519   25.2125 C   0  0  0  0  0  0  0  0  0  0  0  0
  -26.9353  -30.0149   25.3032 C   0  0  0  0  0  0  0  0  0  0  0  0
  -25.8858  -31.9085   26.5606 C   0  0  0  0  0  0  0  0  0  0  0  0
  -27.9361  -32.3043   25.1960 C   0  0  0  0  0  0  0  0  0  0  0  0
  -22.8430  -35.2127   21.6642 C   0  0  0  0  0  0  0  0  0  0  0  0
  -19.8463  -26.6859   20.0125 C   0  0  0  0  0  0  0  0  0  1  0  0
  -25.7281  -31.9087   24.0295 C   0  0  1  0  0  0  0  0  0  0  0  0
  -24.0768  -35.3153   23.8335 C   0  0  2  0  0  0  0  0  0  0  0  0
  -26.6068  -31.5204   25.2521 C   0  0  0  0  0  0  0  0  0  0  0  0
  -26.4608  -18.0176   22.5302 N   0  0  0  0  0  0  0  0  0  0  0  0
  -26.3993  -19.3405   22.7588 N   0  0  0  0  0  0  0  0  0  0  0  0
  -25.6552  -30.6351   21.9091 N   0  0  0  0  0  0  0  0  0  0  0  0
  -23.2722  -19.5426   24.9414 N   0  0  0  0  0  0  0  0  0  0  0  0
  -27.3097  -21.4191   22.0794 N   0  0  0  0  0  0  0  0  0  0  0  0
  -29.4756  -18.4319   19.4753 N   0  0  0  0  0  0  0  0  0  0  0  0
  -21.5049  -19.8984   23.4208 N   0  0  0  0  0  0  0  0  0  0  0  0
  -27.6044  -28.1199   20.1284 N   0  0  0  0  0  0  0  0  0  0  0  0
  -25.4239  -33.3328   23.9406 N   0  0  0  0  0  0  0  0  0  0  0  0
  -18.5018  -24.6358   20.0952 N   0  0  0  0  0  0  0  0  0  0  0  0
  -22.8850  -35.7469   23.0498 N   0  3  0  0  0  0  0  0  0  0  0  0
  -29.2756  -20.6592   19.9831 O   0  0  0  0  0  0  0  0  0  0  0  0
  -26.7046  -28.3314   22.2657 O   0  0  0  0  0  0  0  0  0  0  0  0
  -27.4622  -32.0190   22.4148 O   0  0  0  0  0  0  0  0  0  0  0  0
  -18.6934  -25.9782   22.0094 O   0  0  0  0  0  0  0  0  0  0  0  0
  -23.1169  -33.1032   23.9843 O   0  0  0  0  0  0  0  0  0  0  0  0
  -21.2625  -20.4250   25.6671 O   0  0  0  0  0  0  0  0  0  0  0  0
  -16.6243  -23.9642   21.7375 O   0  0  0  0  0  0  0  0  0  0  0  0
  -16.9376  -22.6380   19.6203 O   0  0  0  0  0  0  0  0  0  0  0  0
  -28.7669  -12.9064   19.5126 O   0  0  0  0  0  0  0  0  0  0  0  0
  -20.2967  -27.7873   20.8001 O   0  0  0  0  0  0  0  0  0  1  0  0
  -29.1888  -12.4171   14.0366 F   0  0  0  0  0  0  0  0  0  0  0  0
  -27.1709  -11.1296   18.1202 F   0  0  0  0  0  0  0  0  0  0  0  0
  -17.4922  -23.4044   20.7195 S   0  0  0  0  0  0  0  0  0  0  0  0
  1  2  1  0  0  0  0
  1  5  2  0  0  0  0
  2  6  2  0  0  0  0
  3 10  2  0  0  0  0
  3 19  1  0  0  0  0
  4 11  1  0  0  0  0
  4 19  2  0  0  0  0
  5 21  1  0  0  0  0
  6 23  1  0  0  0  0
  7 12  2  0  0  0  0
  7 22  1  0  0  0  0
  8 15  2  0  0  0  0
  8 25  1  0  0  0  0
  9 16  1  0  0  0  0
  9 25  2  0  0  0  0
 10 26  1  0  0  0  0
 11 26  2  0  0  0  0
 12 27  1  0  0  0  0
 13 14  2  0  0  0  0
 13 28  1  0  0  0  0
 14 29  1  0  0  0  0
 15 31  1  0  0  0  0
 16 31  2  0  0  0  0
 17 24  1  0  0  0  0
 17 27  2  0  0  0  0
 18 29  2  0  0  0  0
 18 30  1  0  0  0  0
 19 32  1  0  0  0  0
 20 32  1  0  0  0  0
 20 33  2  0  0  0  0
 20 34  1  0  0  0  0
 21 23  2  0  0  0  0
 21 40  1  0  0  0  0
 22 24  2  0  0  0  0
 22 41  1  0  0  0  0
 23 49  1  0  0  0  0
 24 42  1  0  0  0  0
 25 67  1  0  0  0  0
 26 80  1  0  0  0  0
 27 81  1  0  0  0  0
 28 30  2  0  0  0  0
 28 80  1  0  0  0  0
 29 82  1  0  0  0  0
 30 83  1  0  0  0  0
 31 84  1  0  0  0  0
 32 61  2  0  0  0  0
 33 62  1  0  0  0  0
 33 65  1  0  0  0  0
 34 66  1  0  0  0  0
 34 72  2  0  0  0  0
 35 50  1  0  0  0  0
 35 68  1  0  0  0  0
 35 73  2  0  0  0  0
 36 58  1  0  0  0  0
 36 63  1  0  0  0  0
 36 74  2  0  0  0  0
 37 57  1  0  0  0  0
 37 70  1  0  0  0  0
 37 75  2  0  0  0  0
 38 59  1  0  0  0  0
 38 69  1  0  0  0  0
 38 76  2  0  0  0  0
 39 64  1  0  0  0  0
 39 67  1  0  0  0  0
 39 77  2  0  0  0  0
 40 43  1  0  0  0  0
 41 50  1  0  0  0  0
 42 63  1  0  0  0  0
 43 45  1  0  0  0  0
 44 46  1  0  0  0  0
 44 47  1  0  0  0  0
 45 49  1  0  0  0  0
 46 51  1  0  0  0  0
 47 64  1  0  0  0  0
 48 51  1  0  0  0  0
 48 64  1  0  0  0  0
 49 68  1  0  0  0  0
 50 63  1  0  0  0  0
 51 62  1  0  0  0  0
 52 59  1  0  0  0  0
 53 60  1  0  0  0  0
 54 60  1  0  0  0  0
 55 60  1  0  0  0  0
 56 71  1  0  0  0  0
 57 81  1  0  0  0  0
 58 60  1  0  0  0  0
 58 69  1  0  0  0  0
 59 71  1  0  0  0  0
 61 62  1  0  0  0  0
 70 84  1  0  0  0  0
 78 84  2  0  0  0  0
 79 84  2  0  0  0  0
M  CHG  1  71   1
M  ISO  4  39 100  57 101  67 100  81 101
M  END
> <Batch ID>
0068

> <Smiles>
CNC(C)C(=O)NC(C(=O)N1Cc2cc([101O:1][101CH2:1]C(=O)NS(=O)(=O)c3ccc([100NH:0][100C:0](=O)N4CCCC(n5nc(-c6ccc(Oc7ccc(F)cc7F)cc6)c(C(N)=O)c5N)C4)cc3)ccc2CC1C(=O)NC1CCCc2ccccc21)C(C)(C)C

> <Shape>
0.268

> <Color>
0.070

> <Negative vol penalty>
0.000

$$$$

  -OEChem-04042323273D

 90 99  0     1  0  0  0  0  0999 V2000
  -32.6285  -30.9732   13.1589 C   0  0  0  0  0  0  0  0  0  0  0  0
  -31.8706  -29.8686   12.7835 C   0  0  0  0  0  0  0  0  0  0  0  0
  -22.8081  -10.0788   20.0617 C   0  0  0  0  0  0  0  0  0  0  0  0
  -24.2281   -9.4192   21.9018 C   0  0  0  0  0  0  0  0  0  0  0  0
  -28.3210  -15.6496   15.9514 C   0  0  0  0  0  0  0  0  0  0  0  0
  -33.1503  -31.0531   14.4494 C   0  0  0  0  0  0  0  0  0  0  0  0
  -31.6351  -28.8427   13.6980 C   0  0  0  0  0  0  0  0  0  0  0  0
  -26.5686  -25.4369   14.1855 C   0  0  0  0  0  0  0  0  0  0  0  0
  -27.3811  -16.5796   15.5073 C   0  0  0  0  0  0  0  0  0  0  0  0
  -22.0704   -8.9043   20.2100 C   0  0  0  0  0  0  0  0  0  0  0  0
  -23.4903   -8.2448   22.0501 C   0  0  0  0  0  0  0  0  0  0  0  0
  -26.2467  -24.1626   13.7205 C   0  0  0  0  0  0  0  0  0  0  0  0
  -20.5393   -7.3137   23.4084 C   0  0  0  0  0  0  0  0  0  0  0  0
  -20.1751   -6.9379   24.7013 C   0  0  0  0  0  0  0  0  0  0  0  0
  -28.4950  -16.8289   18.0527 C   0  0  0  0  0  0  0  0  0  0  0  0
  -26.8583  -23.2335   15.8611 C   0  0  0  0  0  0  0  0  0  0  0  0
  -21.3931   -4.8674   24.4426 C   0  0  0  0  0  0  0  0  0  0  0  0
  -23.8870  -10.3362   20.9075 C   0  0  0  0  0  0  0  0  0  0  0  0
  -28.8780  -15.7742   17.2241 C   0  0  0  0  0  0  0  0  0  0  0  0
  -24.1754  -12.8704   20.8578 C   0  0  0  0  0  0  0  0  0  0  0  0
  -32.9129  -30.0321   15.3831 C   0  0  0  0  0  0  0  0  0  0  0  0
  -27.0490  -25.6181   15.4905 C   0  0  0  0  0  0  0  0  0  0  0  0
  -32.1553  -28.9083   15.0017 C   0  0  0  0  0  0  0  0  0  0  0  0
  -27.1832  -24.5115   16.3411 C   0  0  0  0  0  0  0  0  0  0  0  0
  -26.9981  -17.6342   16.3360 C   0  0  0  0  0  0  0  0  0  0  0  0
  -27.5551  -17.7588   17.6087 C   0  0  0  0  0  0  0  0  0  0  0  0
  -22.4115   -7.9873   21.2042 C   0  0  0  0  0  0  0  0  0  0  0  0
  -26.3942  -23.0603   14.5574 C   0  0  0  0  0  0  0  0  0  0  0  0
  -21.3303   -6.4664   22.6325 C   0  0  0  0  0  0  0  0  0  0  0  0
  -20.6020   -5.7148   25.2184 C   0  0  0  0  0  0  0  0  0  0  0  0
  -21.7572   -5.2433   23.1496 C   0  0  0  0  0  0  0  0  0  0  0  0
  -24.6498  -11.5490   20.7545 C   0  0  0  0  0  0  0  0  0  0  0  0
  -25.2825  -13.6513   20.6320 C   0  0  0  0  0  0  0  0  0  0  0  0
  -24.7453  -18.3245   16.0964 C   0  0  0  0  0  0  0  0  0  0  0  0
  -29.8695  -14.7958   17.6893 C   0  0  0  0  0  0  0  0  0  0  0  0
  -22.8523  -13.3491   21.1334 C   0  0  0  0  0  0  0  0  0  0  0  0
  -29.7507  -26.7173   16.7539 C   0  0  0  0  0  0  0  0  0  0  0  0
  -28.1274  -26.3800   19.5419 C   0  0  0  0  0  0  0  0  0  0  0  0
  -27.6407  -19.0773   19.7485 C   0  0  0  0  0  0  0  0  0  0  0  0
  -25.6125  -24.8433   21.2625 C   0  0  0  0  0  0  0  0  0  0  0  0
  -33.5374  -30.1405   16.7517 C   0  0  0  0  0  0  0  0  0  0  0  0
  -27.3664  -27.0024   15.9857 C   0  0  0  0  0  0  0  0  0  0  0  0
  -27.6756  -24.6549   17.7572 C   0  0  0  0  0  0  0  0  0  0  0  0
  -32.9277  -29.1876   17.7766 C   0  0  0  0  0  0  0  0  0  0  0  0
  -30.1837  -12.4365   20.3495 C   0  0  0  0  0  0  0  0  0  0  0  0
  -32.7920  -27.7867   17.1886 C   0  0  0  0  0  0  0  0  0  0  0  0
  -28.7339  -12.0867   20.6899 C   0  0  0  0  0  0  0  0  0  0  0  0
  -30.3699  -12.6731   18.8529 C   0  0  0  0  0  0  0  0  0  0  0  0
  -28.0000  -13.3291   18.6118 C   0  0  0  0  0  0  0  0  0  0  0  0
  -26.5962  -19.7177   15.1240 C   0  0  0  0  0  0  0  0  0  0  0  0
  -31.8572  -27.7868   15.9730 C   0  0  1  0  0  0  0  0  0  0  0  0
  -23.7355  -19.3935   15.7870 C   0  0  2  0  0  0  0  0  0  0  0  0
  -28.3348  -27.0079   17.1645 C   0  0  1  0  0  0  0  0  0  0  0  0
  -24.2119  -20.3862   14.7171 C   0  0  1  0  0  0  0  0  0  0  0  0
  -27.7587  -13.1326   20.1175 C   0  0  1  0  0  0  0  0  0  0  0  0
  -25.6173  -20.8739   15.0690 C   0  0  2  0  0  0  0  0  0  1  0  0
  -26.9908  -20.3104   20.3244 C   0  0  0  0  0  0  0  0  0  0  0  0
  -23.3530  -20.1067   17.0920 C   0  0  0  0  0  0  0  0  0  0  0  0
  -24.1266  -19.7624   13.3156 C   0  0  0  0  0  0  0  0  0  0  0  0
  -24.5537  -24.7463   23.5357 C   0  0  0  0  0  0  0  0  0  0  0  0
  -30.4709  -24.7121   20.5596 C   0  0  0  0  0  0  0  0  0  0  0  0
  -28.9880  -23.8754   22.3951 C   0  0  0  0  0  0  0  0  0  0  0  0
  -29.5204  -26.3071   22.2350 C   0  0  0  0  0  0  0  0  0  0  0  0
  -25.0050  -16.0588   16.9422 C   0  0  0  0  0  0  0  0  0  0  0  0
  -23.0021  -25.7623   20.2136 C   0  0  0  0  0  0  0  0  0  0  0  0
  -27.9497  -25.2685   20.5479 C   0  0  1  0  0  0  0  0  0  0  0  0
  -24.5221  -25.3974   22.1617 C   0  0  2  0  0  0  0  0  0  0  0  0
  -29.2248  -25.0375   21.4071 C   0  0  0  0  0  0  0  0  0  0  0  0
  -25.9565  -11.4899   20.4839 N   0  0  0  0  0  0  0  0  0  0  0  0
  -26.3125  -12.7840   20.4152 N   0  0  0  0  0  0  0  0  0  0  0  0
  -26.0616  -18.5498   15.8740 N   0  0  0  0  0  0  0  0  0  0  0  0
  -29.4098  -13.6610   18.3619 N   0  0  0  0  0  0  0  0  0  0  0  0
  -27.9789  -26.0281   18.1929 N   0  0  0  0  0  0  0  0  0  0  0  0
  -25.4656  -14.9884   20.5996 N   0  0  0  0  0  0  0  0  0  0  0  0
  -22.4853  -13.5675   22.4682 N   0  0  0  0  0  0  0  0  0  0  0  0
  -27.1833  -18.8085   18.4530 N   0  0  0  0  0  0  0  0  0  0  0  0
  -30.4749  -27.8392   16.3985 N   0  0  0  0  0  0  0  0  0  0  0  0
  -26.7601  -25.6052   21.3224 N   0  0  0  0  0  0  0  0  0  0  0  0
  -24.1905  -17.2087   16.5820 N   0  3  0  0  0  0  0  0  0  0  0  0
  -23.1809  -25.1566   21.5583 N   0  3  0  0  0  0  0  0  0  0  0  0
  -31.0475  -15.0631   17.4565 O   0  0  0  0  0  0  0  0  0  0  0  0
  -22.0148  -13.5609   20.2239 O   0  0  0  0  0  0  0  0  0  0  0  0
  -30.1565  -25.5610   16.7605 O   0  0  0  0  0  0  0  0  0  0  0  0
  -28.3812  -27.5200   19.9389 O   0  0  0  0  0  0  0  0  0  0  0  0
  -28.4648  -18.4406   20.3968 O   0  0  0  0  0  0  0  0  0  0  0  0
  -25.4624  -23.8333   20.5785 O   0  0  0  0  0  0  0  0  0  0  0  0
  -21.6917   -6.8413   21.3493 O   0  0  0  0  0  0  0  0  0  0  0  0
  -26.0814  -21.8153   14.1058 O   0  0  0  0  0  0  0  0  0  1  0  0
  -20.2535   -5.3547   26.4606 F   0  0  0  0  0  0  0  0  0  0  0  0
  -22.5183   -4.4256   22.4094 F   0  0  0  0  0  0  0  0  0  0  0  0
  1  2  1  0  0  0  0
  1  6  2  0  0  0  0
  2  7  2  0  0  0  0
  3 10  2  0  0  0  0
  3 18  1  0  0  0  0
  4 11  1  0  0  0  0
  4 18  2  0  0  0  0
  5  9  2  0  0  0  0
  5 19  1  0  0  0  0
  6 21  1  0  0  0  0
  7 23  1  0  0  0  0
  8 12  2  0  0  0  0
  8 22  1  0  0  0  0
  9 25  1  0  0  0  0
 10 27  1  0  0  0  0
 11 27  2  0  0  0  0
 12 28  1  0  0  0  0
 13 14  2  0  0  0  0
 13 29  1  0  0  0  0
 14 30  1  0  0  0  0
 15 19  2  0  0  0  0
 15 26  1  0  0  0  0
 16 24  1  0  0  0  0
 16 28  2  0  0  0  0
 17 30  2  0  0  0  0
 17 31  1  0  0  0  0
 18 32  1  0  0  0  0
 19 35  1  0  0  0  0
 20 32  1  0  0  0  0
 20 33  2  0  0  0  0
 20 36  1  0  0  0  0
 21 23  2  0  0  0  0
 21 41  1  0  0  0  0
 22 24  2  0  0  0  0
 22 42  1  0  0  0  0
 23 51  1  0  0  0  0
 24 43  1  0  0  0  0
 25 26  2  0  0  0  0
 25 71  1  0  0  0  0
 26 76  1  0  0  0  0
 27 87  1  0  0  0  0
 28 88  1  0  0  0  0
 29 31  2  0  0  0  0
 29 87  1  0  0  0  0
 30 89  1  0  0  0  0
 31 90  1  0  0  0  0
 32 69  2  0  0  0  0
 33 70  1  0  0  0  0
 33 74  1  0  0  0  0
 34 52  1  0  0  0  0
 34 71  1  0  0  0  0
 34 79  2  0  0  0  0
 35 72  1  0  0  0  0
 35 81  2  0  0  0  0
 36 75  1  0  0  0  0
 36 82  2  0  0  0  0
 37 53  1  0  0  0  0
 37 77  1  0  0  0  0
 37 83  2  0  0  0  0
 38 66  1  0  0  0  0
 38 73  1  0  0  0  0
 38 84  2  0  0  0  0
 39 57  1  0  0  0  0
 39 76  1  0  0  0  0
 39 85  2  0  0  0  0
 40 67  1  0  0  0  0
 40 78  1  0  0  0  0
 40 86  2  0  0  0  0
 41 44  1  0  0  0  0
 42 53  1  0  0  0  0
 43 73  1  0  0  0  0
 44 46  1  0  0  0  0
 45 47  1  0  0  0  0
 45 48  1  0  0  0  0
 46 51  1  0  0  0  0
 47 55  1  0  0  0  0
 48 72  1  0  0  0  0
 49 55  1  0  0  0  0
 49 72  1  0  0  0  0
 50 56  1  0  0  0  0
 50 71  1  0  0  0  0
 51 77  1  0  0  0  0
 52 54  1  0  0  0  0
 52 58  1  0  0  0  0
 53 73  1  0  0  0  0
 54 56  1  0  0  0  0
 54 59  1  0  0  0  0
 55 70  1  0  0  0  0
 56 88  1  0  0  0  0
 60 67  1  0  0  0  0
 61 68  1  0  0  0  0
 62 68  1  0  0  0  0
 63 68  1  0  0  0  0
 64 79  1  0  0  0  0
 65 80  1  0  0  0  0
 66 68  1  0  0  0  0
 66 78  1  0  0  0  0
 67 80  1  0  0  0  0
 69 70  1  0  0  0  0
M  CHG  2  79   1  80   1
M  ISO  4  19 100  35 100  56 101  88 101
M  END
> <Batch ID>
0068

> <Smiles>
CN=C1C(C)C(C)[101CH:1]([101O:1]c2ccc3c(c2)CN(C(=O)C(NC(=O)C(C)NC)C(C)(C)C)C(C(=O)NC2CCCc4ccccc42)C3)CN1c1cc[100c:0]([100C:0](=O)N2CCCC(n3nc(-c4ccc(Oc5ccc(F)cc5F)cc4)c(C(N)=O)c3N)C2)cc1NC(C)=O

> <Shape>
0.202

> <Color>
0.164

> <Negative vol penalty>
0.000

$$$$

  -OEChem-04042323273D

 84 92  0     1  0  0  0  0  0999 V2000
  -28.4567  -37.2026   19.9899 C   0  0  0  0  0  0  0  0  0  0  0  0
  -28.8229  -35.8675   19.8530 C   0  0  0  0  0  0  0  0  0  0  0  0
  -30.1205   -9.9220   18.4028 C   0  0  0  0  0  0  0  0  0  0  0  0
  -29.5258  -11.3979   16.5848 C   0  0  0  0  0  0  0  0  0  0  0  0
  -27.4899  -37.5666   20.9263 C   0  0  0  0  0  0  0  0  0  0  0  0
  -28.2233  -34.8956   20.6532 C   0  0  0  0  0  0  0  0  0  0  0  0
  -26.8833  -29.1342   19.0669 C   0  0  0  0  0  0  0  0  0  0  0  0
  -30.4878   -8.9386   17.4844 C   0  0  0  0  0  0  0  0  0  0  0  0
  -29.8931  -10.4145   15.6663 C   0  0  0  0  0  0  0  0  0  0  0  0
  -27.5399  -27.9241   19.2863 C   0  0  0  0  0  0  0  0  0  0  0  0
  -32.7494   -9.1949   14.3342 C   0  0  0  0  0  0  0  0  0  0  0  0
  -33.5205   -9.5876   13.2402 C   0  0  0  0  0  0  0  0  0  0  0  0
  -26.1467  -27.5246   21.2147 C   0  0  0  0  0  0  0  0  0  0  0  0
  -24.6089  -21.4391   20.4799 C   0  0  0  0  0  0  0  0  0  0  0  0
  -23.7866  -19.2164   20.9493 C   0  0  0  0  0  0  0  0  0  0  0  0
  -31.7874   -8.8189   11.7427 C   0  0  0  0  0  0  0  0  0  0  0  0
  -29.6394  -11.1517   17.9530 C   0  0  0  0  0  0  0  0  0  0  0  0
  -30.0817  -13.1716   19.4470 C   0  0  0  0  0  0  0  0  0  0  0  0
  -26.8712  -36.5975   21.7317 C   0  0  0  0  0  0  0  0  0  0  0  0
  -25.8591  -29.5545   19.9277 C   0  0  0  0  0  0  0  0  0  0  0  0
  -27.2483  -35.2471   21.6022 C   0  0  0  0  0  0  0  0  0  0  0  0
  -25.4769  -28.7393   21.0026 C   0  0  0  0  0  0  0  0  0  0  0  0
  -23.5458  -20.5743   20.7399 C   0  0  0  0  0  0  0  0  0  0  0  0
  -25.9128  -20.9460   20.4292 C   0  0  0  0  0  0  0  0  0  0  0  0
  -25.0904  -18.7233   20.8986 C   0  0  0  0  0  0  0  0  0  0  0  0
  -30.3741   -9.1848   16.1161 C   0  0  0  0  0  0  0  0  0  0  0  0
  -27.1736  -27.1204   20.3620 C   0  0  0  0  0  0  0  0  0  0  0  0
  -31.4973   -8.6141   14.1324 C   0  0  0  0  0  0  0  0  0  0  0  0
  -33.0395   -9.3996   11.9445 C   0  0  0  0  0  0  0  0  0  0  0  0
  -31.0163   -8.4262   12.8367 C   0  0  0  0  0  0  0  0  0  0  0  0
  -26.1535  -19.5881   20.6386 C   0  0  0  0  0  0  0  0  0  0  0  0
  -29.2593  -12.1677   18.9013 C   0  0  0  0  0  0  0  0  0  0  0  0
  -29.2535  -13.8746   20.2875 C   0  0  0  0  0  0  0  0  0  0  0  0
  -31.4700  -13.4443   19.2148 C   0  0  0  0  0  0  0  0  0  0  0  0
  -25.4359  -32.0380   21.8660 C   0  0  0  0  0  0  0  0  0  0  0  0
  -22.4680  -30.7729   22.2023 C   0  0  0  0  0  0  0  0  0  0  0  0
  -26.9286  -23.1973   19.9353 C   0  0  0  0  0  0  0  0  0  0  0  0
  -20.4542  -28.0230   22.0305 C   0  0  0  0  0  0  0  0  0  0  0  0
  -24.3887  -16.3525   21.3813 C   0  0  0  0  0  0  0  0  0  0  0  0
  -25.8656  -37.0448   22.7628 C   0  0  0  0  0  0  0  0  0  0  0  0
  -25.1425  -30.8500   19.6618 C   0  0  0  0  0  0  0  0  0  0  0  0
  -24.3700  -29.1355   21.9440 C   0  0  0  0  0  0  0  0  0  0  0  0
  -25.0080  -35.9072   23.3111 C   0  0  0  0  0  0  0  0  0  0  0  0
  -24.5788  -12.8396   21.9300 C   0  0  0  0  0  0  0  0  0  0  0  0
  -25.8791  -34.7078   23.6710 C   0  0  0  0  0  0  0  0  0  0  0  0
  -25.8811  -12.4343   21.2358 C   0  0  0  0  0  0  0  0  0  0  0  0
  -23.8449  -13.9376   21.1622 C   0  0  0  0  0  0  0  0  0  0  0  0
  -25.9546  -14.7191   20.1583 C   0  0  0  0  0  0  0  0  0  0  0  0
  -26.6028  -34.1607   22.4347 C   0  0  1  0  0  0  0  0  0  0  0  0
  -24.4622  -31.4219   20.9017 C   0  0  1  0  0  0  0  0  0  0  0  0
  -26.7617  -13.6614   20.9287 C   0  0  2  0  0  0  0  0  0  0  0  0
  -22.1516  -21.1016   20.7944 C   0  0  0  0  0  0  0  0  0  0  0  0
  -18.0820  -27.2924   22.3996 C   0  0  0  0  0  0  0  0  0  0  0  0
  -22.9238  -30.8251   25.2188 C   0  0  0  0  0  0  0  0  0  0  0  0
  -20.9921  -29.2518   25.4677 C   0  0  0  0  0  0  0  0  0  0  0  0
  -20.6327  -31.5218   24.4978 C   0  0  0  0  0  0  0  0  0  0  0  0
  -20.1418  -27.2110   19.2017 C   0  0  0  0  0  0  0  0  0  0  0  0
  -28.3244  -23.7603   19.6930 C   0  0  0  0  0  0  0  0  0  0  0  0
  -28.3274  -25.2593   19.4342 C   0  0  0  0  0  0  0  0  0  1  0  0
  -21.8340  -29.7661   23.1315 C   0  0  1  0  0  0  0  0  0  0  0  0
  -19.0950  -27.8083   21.3894 C   0  0  2  0  0  0  0  0  0  0  0  0
  -21.6179  -30.3344   24.5625 C   0  0  0  0  0  0  0  0  0  0  0  0
  -28.0051  -12.2244   19.3570 N   0  0  0  0  0  0  0  0  0  0  0  0
  -28.0331  -13.2723   20.1979 N   0  0  0  0  0  0  0  0  0  0  0  0
  -23.7039  -30.4142   21.6459 N   0  0  0  0  0  0  0  0  0  0  0  0
  -24.7399  -15.0694   20.9111 N   0  0  0  0  0  0  0  0  0  0  0  0
  -29.4575  -14.9430   21.0871 N   0  0  0  0  0  0  0  0  0  0  0  0
  -32.1715  -12.6243   18.3205 N   0  0  0  0  0  0  0  0  0  0  0  0
  -26.9897  -21.8255   20.1655 N   0  0  0  0  0  0  0  0  0  0  0  0
  -25.3320  -17.3435   21.1118 N   0  0  0  0  0  0  0  0  0  0  0  0
  -25.6969  -33.3735   21.6259 N   0  0  0  0  0  0  0  0  0  0  0  0
  -20.6102  -29.3189   22.4751 N   0  0  0  0  0  0  0  0  0  0  0  0
  -19.1965  -26.8198   20.2788 N   0  3  0  0  0  0  0  0  0  0  0  0
  -32.0746  -14.3772   19.7959 O   0  0  0  0  0  0  0  0  0  0  0  0
  -25.9139  -31.3528   22.7625 O   0  0  0  0  0  0  0  0  0  0  0  0
  -21.8846  -31.8353   21.9728 O   0  0  0  0  0  0  0  0  0  0  0  0
  -25.9270  -23.9049   19.9170 O   0  0  0  0  0  0  0  0  0  0  0  0
  -21.2921  -27.1295   22.1305 O   0  0  0  0  0  0  0  0  0  0  0  0
  -23.3418  -16.5517   22.0029 O   0  0  0  0  0  0  0  0  0  0  0  0
  -30.7327   -8.2255   15.2196 O   0  0  0  0  0  0  0  0  0  0  0  0
  -27.8133  -25.9390   20.5787 O   0  0  0  0  0  0  0  0  0  1  0  0
  -33.7794   -9.7782   10.8940 F   0  0  0  0  0  0  0  0  0  0  0  0
  -29.8137   -7.8698   12.6366 F   0  0  0  0  0  0  0  0  0  0  0  0
  -27.4077  -19.1136   20.5891 F   0  0  0  0  0  0  0  0  0  0  0  0
  1  2  1  0  0  0  0
  1  5  2  0  0  0  0
  2  6  2  0  0  0  0
  3  8  2  0  0  0  0
  3 17  1  0  0  0  0
  4  9  1  0  0  0  0
  4 17  2  0  0  0  0
  5 19  1  0  0  0  0
  6 21  1  0  0  0  0
  7 10  2  0  0  0  0
  7 20  1  0  0  0  0
  8 26  1  0  0  0  0
  9 26  2  0  0  0  0
 10 27  1  0  0  0  0
 11 12  2  0  0  0  0
 11 28  1  0  0  0  0
 12 29  1  0  0  0  0
 13 22  1  0  0  0  0
 13 27  2  0  0  0  0
 14 23  2  0  0  0  0
 14 24  1  0  0  0  0
 15 23  1  0  0  0  0
 15 25  2  0  0  0  0
 16 29  2  0  0  0  0
 16 30  1  0  0  0  0
 17 32  1  0  0  0  0
 18 32  1  0  0  0  0
 18 33  2  0  0  0  0
 18 34  1  0  0  0  0
 19 21  2  0  0  0  0
 19 40  1  0  0  0  0
 20 22  2  0  0  0  0
 20 41  1  0  0  0  0
 21 49  1  0  0  0  0
 22 42  1  0  0  0  0
 23 52  1  0  0  0  0
 24 31  2  0  0  0  0
 24 69  1  0  0  0  0
 25 31  1  0  0  0  0
 25 70  1  0  0  0  0
 26 80  1  0  0  0  0
 27 81  1  0  0  0  0
 28 30  2  0  0  0  0
 28 80  1  0  0  0  0
 29 82  1  0  0  0  0
 30 83  1  0  0  0  0
 31 84  1  0  0  0  0
 32 63  2  0  0  0  0
 33 64  1  0  0  0  0
 33 67  1  0  0  0  0
 34 68  1  0  0  0  0
 34 74  2  0  0  0  0
 35 50  1  0  0  0  0
 35 71  1  0  0  0  0
 35 75  2  0  0  0  0
 36 60  1  0  0  0  0
 36 65  1  0  0  0  0
 36 76  2  0  0  0  0
 37 58  1  0  0  0  0
 37 69  1  0  0  0  0
 37 77  2  0  0  0  0
 38 61  1  0  0  0  0
 38 72  1  0  0  0  0
 38 78  2  0  0  0  0
 39 66  1  0  0  0  0
 39 70  1  0  0  0  0
 39 79  2  0  0  0  0
 40 43  1  0  0  0  0
 41 50  1  0  0  0  0
 42 65  1  0  0  0  0
 43 45  1  0  0  0  0
 44 46  1  0  0  0  0
 44 47  1  0  0  0  0
 45 49  1  0  0  0  0
 46 51  1  0  0  0  0
 47 66  1  0  0  0  0
 48 51  1  0  0  0  0
 48 66  1  0  0  0  0
 49 71  1  0  0  0  0
 50 65  1  0  0  0  0
 51 64  1  0  0  0  0
 53 61  1  0  0  0  0
 54 62  1  0  0  0  0
 55 62  1  0  0  0  0
 56 62  1  0  0  0  0
 57 73  1  0  0  0  0
 58 59  1  0  0  0  0
 59 81  1  0  0  0  0
 60 62  1  0  0  0  0
 60 72  1  0  0  0  0
 61 73  1  0  0  0  0
 63 64  1  0  0  0  0
M  CHG  1  73   1
M  ISO  4  39 100  59 101  70 100  81 101
M  END
> <Batch ID>
0068

> <Smiles>
CNC(C)C(=O)NC(C(=O)N1Cc2cc([101O:1][101CH2:1]CC(=O)Nc3cc(C)cc([100NH:0][100C:0](=O)N4CCCC(n5nc(-c6ccc(Oc7ccc(F)cc7F)cc6)c(C(N)=O)c5N)C4)c3F)ccc2CC1C(=O)NC1CCCc2ccccc21)C(C)(C)C

> <Shape>
0.245

> <Color>
0.088

> <Negative vol penalty>
0.000

$$$$

  -OEChem-04042323273D

 87 95  0     1  0  0  0  0  0999 V2000
  -44.8372  -21.8226   24.1128 C   0  0  0  0  0  0  0  0  0  0  0  0
  -43.6347  -21.1249   24.1621 C   0  0  0  0  0  0  0  0  0  0  0  0
  -22.9997   -9.8947   19.9813 C   0  0  0  0  0  0  0  0  0  0  0  0
  -23.7254   -9.9452   22.2852 C   0  0  0  0  0  0  0  0  0  0  0  0
  -45.0357  -22.7991   23.1376 C   0  0  0  0  0  0  0  0  0  0  0  0
  -42.6294  -21.4041   23.2370 C   0  0  0  0  0  0  0  0  0  0  0  0
  -40.5300  -17.2113   21.3245 C   0  0  0  0  0  0  0  0  0  0  0  0
  -22.2329   -8.7604   20.2477 C   0  0  0  0  0  0  0  0  0  0  0  0
  -22.9585   -8.8110   22.5516 C   0  0  0  0  0  0  0  0  0  0  0  0
  -39.6011  -16.5438   22.1216 C   0  0  0  0  0  0  0  0  0  0  0  0
  -23.2015   -5.4720   22.0794 C   0  0  0  0  0  0  0  0  0  0  0  0
  -23.7889   -4.4546   22.8314 C   0  0  0  0  0  0  0  0  0  0  0  0
  -37.8063  -17.5659   20.8753 C   0  0  0  0  0  0  0  0  0  0  0  0
  -32.0611  -16.5338   22.5498 C   0  0  0  0  0  0  0  0  0  0  0  0
  -31.8898  -18.3276   24.1591 C   0  0  0  0  0  0  0  0  0  0  0  0
  -22.0654   -4.6980   24.5069 C   0  0  0  0  0  0  0  0  0  0  0  0
  -23.7460  -10.4871   21.0000 C   0  0  0  0  0  0  0  0  0  0  0  0
  -24.1322  -13.0025   20.8241 C   0  0  0  0  0  0  0  0  0  0  0  0
  -44.0361  -23.0837   22.1940 C   0  0  0  0  0  0  0  0  0  0  0  0
  -40.1033  -18.0710   20.3022 C   0  0  0  0  0  0  0  0  0  0  0  0
  -42.8142  -22.3863   22.2491 C   0  0  0  0  0  0  0  0  0  0  0  0
  -38.7318  -18.2412   20.0650 C   0  0  0  0  0  0  0  0  0  0  0  0
  -29.8980  -17.4547   23.1066 C   0  0  0  0  0  0  0  0  0  0  0  0
  -32.6679  -17.4227   23.4370 C   0  0  0  0  0  0  0  0  0  0  0  0
  -30.6761  -16.5499   22.3845 C   0  0  0  0  0  0  0  0  0  0  0  0
  -22.2122   -8.2186   21.5328 C   0  0  0  0  0  0  0  0  0  0  0  0
  -38.2390  -16.7233   21.8989 C   0  0  0  0  0  0  0  0  0  0  0  0
  -22.0462   -6.1025   22.5413 C   0  0  0  0  0  0  0  0  0  0  0  0
  -23.2208   -4.0675   24.0451 C   0  0  0  0  0  0  0  0  0  0  0  0
  -30.5048  -18.3436   23.9939 C   0  0  0  0  0  0  0  0  0  0  0  0
  -21.4781   -5.7155   23.7550 C   0  0  0  0  0  0  0  0  0  0  0  0
  -24.5389  -11.6584   20.7253 C   0  0  0  0  0  0  0  0  0  0  0  0
  -25.2421  -13.7248   20.4596 C   0  0  0  0  0  0  0  0  0  0  0  0
  -22.8645  -13.5494   21.2109 C   0  0  0  0  0  0  0  0  0  0  0  0
  -40.4318  -21.1744   19.6980 C   0  0  0  0  0  0  0  0  0  0  0  0
  -38.9740  -20.3881   16.9090 C   0  0  0  0  0  0  0  0  0  0  0  0
  -36.9405  -18.2389   15.2082 C   0  0  0  0  0  0  0  0  0  0  0  0
  -34.9943  -16.5837   22.9648 C   0  0  0  0  0  0  0  0  0  0  0  0
  -30.7220  -14.6840   20.6926 C   0  0  0  0  0  0  0  0  0  0  0  0
  -44.2786  -24.1809   21.1881 C   0  0  0  0  0  0  0  0  0  0  0  0
  -41.1181  -18.7629   19.4339 C   0  0  0  0  0  0  0  0  0  0  0  0
  -38.2221  -19.1374   18.9671 C   0  0  0  0  0  0  0  0  0  0  0  0
  -43.3061  -24.1546   20.0117 C   0  0  0  0  0  0  0  0  0  0  0  0
  -29.6024  -12.2316   18.3667 C   0  0  0  0  0  0  0  0  0  0  0  0
  -41.8743  -23.9757   20.5066 C   0  0  0  0  0  0  0  0  0  0  0  0
  -28.1518  -11.9745   18.7811 C   0  0  0  0  0  0  0  0  0  0  0  0
  -30.5032  -12.4746   19.5763 C   0  0  0  0  0  0  0  0  0  0  0  0
  -28.5884  -13.2641   20.9102 C   0  0  0  0  0  0  0  0  0  0  0  0
  -41.7092  -22.6433   21.2476 C   0  0  1  0  0  0  0  0  0  0  0  0
  -40.5693  -20.0135   18.7540 C   0  0  1  0  0  0  0  0  0  0  0  0
  -27.6305  -13.0781   19.7222 C   0  0  2  0  0  0  0  0  0  0  0  0
  -35.9014  -17.8791   12.9524 C   0  0  0  0  0  0  0  0  0  0  0  0
  -36.6022  -16.5999   24.9075 C   0  0  0  0  0  0  0  0  0  0  0  0
  -27.7137  -16.5562   23.9315 C   0  0  0  0  0  0  0  0  0  0  0  0
  -36.9377  -22.5823   17.4997 C   0  0  0  0  0  0  0  0  0  0  0  0
  -35.4421  -21.5636   15.7694 C   0  0  0  0  0  0  0  0  0  0  0  0
  -37.6760  -22.4592   15.1134 C   0  0  0  0  0  0  0  0  0  0  0  0
  -38.3280  -15.6490   14.8535 C   0  0  0  0  0  0  0  0  0  0  0  0
  -37.5425  -20.3087   16.4361 C   0  0  1  0  0  0  0  0  0  0  0  0
  -37.0884  -17.5724   13.8523 C   0  0  2  0  0  0  0  0  0  0  0  0
  -36.4200  -16.8796   23.4230 C   0  0  1  0  0  0  0  0  0  1  0  0
  -28.4123  -17.4905   22.9483 C   0  0  0  0  0  0  0  0  0  0  0  0
  -36.9089  -21.7130   16.2267 C   0  0  0  0  0  0  0  0  0  0  0  0
  -25.8080  -11.5315   20.3289 N   0  0  0  0  0  0  0  0  0  0  0  0
  -26.2084  -12.8052   20.1753 N   0  0  0  0  0  0  0  0  0  0  0  0
  -39.2534  -19.7968   18.1492 N   0  0  0  0  0  0  0  0  0  0  0  0
  -29.9487  -13.5357   20.4198 N   0  0  0  0  0  0  0  0  0  0  0  0
  -25.4760  -15.0504   20.3576 N   0  0  0  0  0  0  0  0  0  0  0  0
  -21.8325  -12.6655   21.5546 N   0  0  0  0  0  0  0  0  0  0  0  0
  -34.0731  -17.4065   23.6045 N   0  0  0  0  0  0  0  0  0  0  0  0
  -30.0782  -15.6393   21.4783 N   0  0  0  0  0  0  0  0  0  0  0  0
  -41.6152  -21.5491   20.3051 N   0  0  0  0  0  0  0  0  0  0  0  0
  -37.5534  -19.4736   15.2399 N   0  0  0  0  0  0  0  0  0  0  0  0
  -37.1889  -16.0939   14.0101 N   0  3  0  0  0  0  0  0  0  0  0  0
  -22.6482  -14.7847   21.2348 O   0  0  0  0  0  0  0  0  0  0  0  0
  -39.3336  -21.6927   19.8623 O   0  0  0  0  0  0  0  0  0  0  0  0
  -39.8147  -20.9476   16.2006 O   0  0  0  0  0  0  0  0  0  0  0  0
  -36.3379  -17.7181   16.1442 O   0  0  0  0  0  0  0  0  0  0  0  0
  -34.7630  -15.7235   22.1200 O   0  0  0  0  0  0  0  0  0  0  0  0
  -31.8606  -14.8225   20.2383 O   0  0  0  0  0  0  0  0  0  0  0  0
  -21.4638   -7.1120   21.7932 O   0  0  0  0  0  0  0  0  0  0  0  0
  -37.3302  -16.0735   22.6759 O   0  0  0  0  0  0  0  0  0  1  0  0
  -23.7840   -3.0894   24.7663 F   0  0  0  0  0  0  0  0  0  0  0  0
  -29.7660  -19.2160   24.6938 F   0  0  0  0  0  0  0  0  0  0  0  0
  -20.3675   -6.3167   24.2033 F   0  0  0  0  0  0  0  0  0  0  0  0
  -28.0012  -17.1332   21.6906 F   0  0  0  0  0  0  0  0  0  0  0  0
  -27.8859  -18.7418   23.1371 F   0  0  0  0  0  0  0  0  0  0  0  0
  1  2  1  0  0  0  0
  1  5  2  0  0  0  0
  2  6  2  0  0  0  0
  3  8  2  0  0  0  0
  3 17  1  0  0  0  0
  4  9  1  0  0  0  0
  4 17  2  0  0  0  0
  5 19  1  0  0  0  0
  6 21  1  0  0  0  0
  7 10  2  0  0  0  0
  7 20  1  0  0  0  0
  8 26  1  0  0  0  0
  9 26  2  0  0  0  0
 10 27  1  0  0  0  0
 11 12  2  0  0  0  0
 11 28  1  0  0  0  0
 12 29  1  0  0  0  0
 13 22  1  0  0  0  0
 13 27  2  0  0  0  0
 14 24  2  0  0  0  0
 14 25  1  0  0  0  0
 15 24  1  0  0  0  0
 15 30  2  0  0  0  0
 16 29  2  0  0  0  0
 16 31  1  0  0  0  0
 17 32  1  0  0  0  0
 18 32  1  0  0  0  0
 18 33  2  0  0  0  0
 18 34  1  0  0  0  0
 19 21  2  0  0  0  0
 19 40  1  0  0  0  0
 20 22  2  0  0  0  0
 20 41  1  0  0  0  0
 21 49  1  0  0  0  0
 22 42  1  0  0  0  0
 23 25  2  0  0  0  0
 23 30  1  0  0  0  0
 23 62  1  0  0  0  0
 24 70  1  0  0  0  0
 25 71  1  0  0  0  0
 26 81  1  0  0  0  0
 27 82  1  0  0  0  0
 28 31  2  0  0  0  0
 28 81  1  0  0  0  0
 29 83  1  0  0  0  0
 30 84  1  0  0  0  0
 31 85  1  0  0  0  0
 32 64  2  0  0  0  0
 33 65  1  0  0  0  0
 33 68  1  0  0  0  0
 34 69  1  0  0  0  0
 34 75  2  0  0  0  0
 35 50  1  0  0  0  0
 35 72  1  0  0  0  0
 35 76  2  0  0  0  0
 36 59  1  0  0  0  0
 36 66  1  0  0  0  0
 36 77  2  0  0  0  0
 37 60  1  0  0  0  0
 37 73  1  0  0  0  0
 37 78  2  0  0  0  0
 38 61  1  0  0  0  0
 38 70  1  0  0  0  0
 38 79  2  0  0  0  0
 39 67  1  0  0  0  0
 39 71  1  0  0  0  0
 39 80  2  0  0  0  0
 40 43  1  0  0  0  0
 41 50  1  0  0  0  0
 42 66  1  0  0  0  0
 43 45  1  0  0  0  0
 44 46  1  0  0  0  0
 44 47  1  0  0  0  0
 45 49  1  0  0  0  0
 46 51  1  0  0  0  0
 47 67  1  0  0  0  0
 48 51  1  0  0  0  0
 48 67  1  0  0  0  0
 49 72  1  0  0  0  0
 50 66  1  0  0  0  0
 51 65  1  0  0  0  0
 52 60  1  0  0  0  0
 53 61  1  0  0  0  0
 54 62  1  0  0  0  0
 55 63  1  0  0  0  0
 56 63  1  0  0  0  0
 57 63  1  0  0  0  0
 58 74  1  0  0  0  0
 59 63  1  0  0  0  0
 59 73  1  0  0  0  0
 60 74  1  0  0  0  0
 61 82  1  0  0  0  0
 62 86  1  0  0  0  0
 62 87  1  0  0  0  0
 64 65  1  0  0  0  0
M  CHG  1  74   1
M  ISO  4  39 100  61 101  71 100  82 101
M  END
> <Batch ID>
0068

> <Smiles>
CNC(C)C(=O)NC(C(=O)N1Cc2cc([101O:1][101CH:1](C)C(=O)Nc3cc(F)c(C(C)(F)F)c([100NH:0][100C:0](=O)N4CCCC(n5nc(-c6ccc(Oc7ccc(F)cc7F)cc6)c(C(N)=O)c5N)C4)c3)ccc2CC1C(=O)NC1CCCc2ccccc21)C(C)(C)C

> <Shape>
0.174

> <Color>
0.198

> <Negative vol penalty>
0.000

$$$$

  -OEChem-04042323273D

 86 94  0     1  0  0  0  0  0999 V2000
  -30.0644  -11.7872   19.6422 C   0  0  0  0  0  0  0  0  0  0  0  0
  -29.9312  -13.1320   19.3120 C   0  0  0  0  0  0  0  0  0  0  0  0
  -20.9331  -26.8941   22.2728 C   0  0  0  0  0  0  0  0  0  0  0  0
  -19.9477  -29.0776   22.5861 C   0  0  0  0  0  0  0  0  0  0  0  0
  -28.9405  -11.0438   20.0002 C   0  0  0  0  0  0  0  0  0  0  0  0
  -28.6737  -13.7340   19.3385 C   0  0  0  0  0  0  0  0  0  0  0  0
  -28.7400  -18.2738   21.5816 C   0  0  0  0  0  0  0  0  0  0  0  0
  -19.6655  -26.3145   22.3245 C   0  0  0  0  0  0  0  0  0  0  0  0
  -18.6799  -28.4980   22.6378 C   0  0  0  0  0  0  0  0  0  0  0  0
  -29.2293  -19.3453   20.8359 C   0  0  0  0  0  0  0  0  0  0  0  0
  -16.6572  -24.2976   22.0127 C   0  0  0  0  0  0  0  0  0  0  0  0
  -16.3482  -23.3275   21.0592 C   0  0  0  0  0  0  0  0  0  0  0  0
  -30.3227  -27.5386   21.2831 C   0  0  0  0  0  0  0  0  0  0  0  0
  -26.9683  -20.0304   20.3480 C   0  0  0  0  0  0  0  0  0  0  0  0
  -30.9761  -28.0758   19.0200 C   0  0  0  0  0  0  0  0  0  0  0  0
  -16.7140  -24.9414   19.2989 C   0  0  0  0  0  0  0  0  0  0  0  0
  -21.0743  -28.2756   22.4037 C   0  0  0  0  0  0  0  0  0  0  0  0
  -30.6290  -28.8400   21.6805 C   0  0  0  0  0  0  0  0  0  0  0  0
  -23.0585  -29.3437   21.2079 C   0  0  0  0  0  0  0  0  0  0  0  0
  -27.6699  -11.6394   20.0405 C   0  0  0  0  0  0  0  0  0  0  0  0
  -27.3589  -18.0658   21.7073 C   0  0  0  0  0  0  0  0  0  0  0  0
  -27.5315  -12.9976   19.6960 C   0  0  0  0  0  0  0  0  0  0  0  0
  -26.4640  -18.9569   21.0980 C   0  0  0  0  0  0  0  0  0  0  0  0
  -31.2823  -29.3773   19.4174 C   0  0  0  0  0  0  0  0  0  0  0  0
  -31.1088  -29.7594   20.7477 C   0  0  0  0  0  0  0  0  0  0  0  0
  -30.4963  -27.1564   19.9529 C   0  0  0  0  0  0  0  0  0  0  0  0
  -18.5389  -27.1165   22.5069 C   0  0  0  0  0  0  0  0  0  0  0  0
  -28.3435  -20.2222   20.2165 C   0  0  0  0  0  0  0  0  0  0  0  0
  -16.9945  -25.5896   21.6093 C   0  0  0  0  0  0  0  0  0  0  0  0
  -16.3767  -23.6494   19.7023 C   0  0  0  0  0  0  0  0  0  0  0  0
  -17.0229  -25.9115   20.2524 C   0  0  0  0  0  0  0  0  0  0  0  0
  -22.3835  -28.8749   22.3510 C   0  0  0  0  0  0  0  0  0  0  0  0
  -24.2561  -29.8165   21.6862 C   0  0  0  0  0  0  0  0  0  0  0  0
  -29.4993  -23.5617   19.5416 C   0  0  0  0  0  0  0  0  0  0  0  0
  -29.0365  -22.4545   20.1308 C   0  0  0  0  0  0  0  0  0  1  0  0
  -30.4339  -29.2176   23.1040 C   0  0  0  0  0  0  0  0  0  0  0  0
  -22.6402  -29.3512   19.8366 C   0  0  0  0  0  0  0  0  0  0  0  0
  -29.7003  -24.8039   20.3432 C   0  0  0  0  0  0  0  0  0  0  0  0
  -25.3566  -15.7390   20.8824 C   0  0  0  0  0  0  0  0  0  0  0  0
  -23.2092  -17.5372   22.5188 C   0  0  0  0  0  0  0  0  0  0  0  0
  -22.3048  -20.6086   23.7000 C   0  0  0  0  0  0  0  0  0  0  0  0
  -28.7424  -29.3574   24.9048 C   0  0  0  0  0  0  0  0  0  0  0  0
  -26.4776  -10.7836   20.3877 C   0  0  0  0  0  0  0  0  0  0  0  0
  -26.8469  -16.9207   22.5373 C   0  0  0  0  0  0  0  0  0  0  0  0
  -24.9721  -18.7894   21.2191 C   0  0  0  0  0  0  0  0  0  0  0  0
  -25.2346  -11.5904   20.7538 C   0  0  0  0  0  0  0  0  0  0  0  0
  -25.8203  -30.6298   26.4344 C   0  0  0  0  0  0  0  0  0  0  0  0
  -25.0093  -12.7115   19.7442 C   0  0  0  0  0  0  0  0  0  0  0  0
  -24.7195  -30.3336   25.4123 C   0  0  0  0  0  0  0  0  0  0  0  0
  -26.8509  -29.5036   26.5007 C   0  0  0  0  0  0  0  0  0  0  0  0
  -26.3336  -28.8190   24.1938 C   0  0  0  0  0  0  0  0  0  0  0  0
  -26.1878  -13.6925   19.7370 C   0  0  1  0  0  0  0  0  0  0  0  0
  -25.4246  -16.5070   22.1721 C   0  0  1  0  0  0  0  0  0  0  0  0
  -25.3096  -29.9551   24.0390 C   0  0  1  0  0  0  0  0  0  0  0  0
  -31.7945  -30.3430   18.3992 C   0  0  0  0  0  0  0  0  0  0  0  0
  -31.4391  -31.1561   21.1714 C   0  0  0  0  0  0  0  0  0  0  0  0
  -20.4781  -21.7719   24.9678 C   0  0  0  0  0  0  0  0  0  0  0  0
  -21.4376  -17.4561   20.0359 C   0  0  0  0  0  0  0  0  0  0  0  0
  -20.1287  -19.3638   20.9929 C   0  0  0  0  0  0  0  0  0  0  0  0
  -20.2141  -17.1823   22.1998 C   0  0  0  0  0  0  0  0  0  0  0  0
  -24.1589  -21.4130   25.8620 C   0  0  0  0  0  0  0  0  0  0  0  0
  -22.2649  -18.6605   22.1645 C   0  0  1  0  0  0  0  0  0  0  0  0
  -21.8181  -21.0594   25.0654 C   0  0  2  0  0  0  0  0  0  0  0  0
  -21.0394  -18.1680   21.3442 C   0  0  0  0  0  0  0  0  0  0  0  0
  -23.0935  -29.0351   23.4709 N   0  0  0  0  0  0  0  0  0  0  0  0
  -24.2270  -29.6099   23.0340 N   0  0  0  0  0  0  0  0  0  0  0  0
  -24.5206  -17.6509   22.0360 N   0  0  0  0  0  0  0  0  0  0  0  0
  -27.3680  -29.2124   25.1624 N   0  0  0  0  0  0  0  0  0  0  0  0
  -25.3207  -30.3846   21.0810 N   0  0  0  0  0  0  0  0  0  0  0  0
  -21.3797  -28.8270   19.5196 N   0  0  0  0  0  0  0  0  0  0  0  0
  -30.1847  -25.8348   19.5491 N   0  0  0  0  0  0  0  0  0  0  0  0
  -29.1301  -29.0968   23.5858 N   0  0  0  0  0  0  0  0  0  0  0  0
  -26.1120  -14.5819   20.8762 N   0  0  0  0  0  0  0  0  0  0  0  0
  -21.9186  -19.3145   23.4218 N   0  0  0  0  0  0  0  0  0  0  0  0
  -22.8023  -21.9918   25.6843 N   0  3  0  0  0  0  0  0  0  0  0  0
  -31.4057  -29.5659   23.7689 O   0  0  0  0  0  0  0  0  0  0  0  0
  -23.3697  -29.7943   18.9173 O   0  0  0  0  0  0  0  0  0  0  0  0
  -29.4484  -24.8339   21.5421 O   0  0  0  0  0  0  0  0  0  0  0  0
  -24.6684  -16.1638   19.9618 O   0  0  0  0  0  0  0  0  0  0  0  0
  -22.8003  -16.5970   23.2048 O   0  0  0  0  0  0  0  0  0  0  0  0
  -22.9587  -21.3333   22.9533 O   0  0  0  0  0  0  0  0  0  0  0  0
  -29.5492  -29.7243   25.7650 O   0  0  0  0  0  0  0  0  0  0  0  0
  -17.3017  -26.5513   22.5571 O   0  0  0  0  0  0  0  0  0  0  0  0
  -28.8184  -21.2685   19.4876 O   0  0  0  0  0  0  0  0  0  1  0  0
  -16.0815  -22.7174   18.7867 F   0  0  0  0  0  0  0  0  0  0  0  0
  -17.3474  -27.1506   19.8587 F   0  0  0  0  0  0  0  0  0  0  0  0
  1  2  1  0  0  0  0
  1  5  2  0  0  0  0
  2  6  2  0  0  0  0
  3  8  2  0  0  0  0
  3 17  1  0  0  0  0
  4  9  1  0  0  0  0
  4 17  2  0  0  0  0
  5 20  1  0  0  0  0
  6 22  1  0  0  0  0
  7 10  2  0  0  0  0
  7 21  1  0  0  0  0
  8 27  1  0  0  0  0
  9 27  2  0  0  0  0
 10 28  1  0  0  0  0
 11 12  2  0  0  0  0
 11 29  1  0  0  0  0
 12 30  1  0  0  0  0
 13 18  1  0  0  0  0
 13 26  2  0  0  0  0
 14 23  1  0  0  0  0
 14 28  2  0  0  0  0
 15 24  2  0  0  0  0
 15 26  1  0  0  0  0
 16 30  2  0  0  0  0
 16 31  1  0  0  0  0
 17 32  1  0  0  0  0
 18 25  2  0  0  0  0
 18 36  1  0  0  0  0
 19 32  1  0  0  0  0
 19 33  2  0  0  0  0
 19 37  1  0  0  0  0
 20 22  2  0  0  0  0
 20 43  1  0  0  0  0
 21 23  2  0  0  0  0
 21 44  1  0  0  0  0
 22 52  1  0  0  0  0
 23 45  1  0  0  0  0
 24 25  1  0  0  0  0
 24 55  1  0  0  0  0
 25 56  1  0  0  0  0
 26 71  1  0  0  0  0
 27 83  1  0  0  0  0
 28 84  1  0  0  0  0
 29 31  2  0  0  0  0
 29 83  1  0  0  0  0
 30 85  1  0  0  0  0
 31 86  1  0  0  0  0
 32 65  2  0  0  0  0
 33 66  1  0  0  0  0
 33 69  1  0  0  0  0
 34 35  2  0  0  0  0
 34 38  1  0  0  0  0
 35 84  1  0  0  0  0
 36 72  1  0  0  0  0
 36 76  2  0  0  0  0
 37 70  1  0  0  0  0
 37 77  2  0  0  0  0
 38 71  1  0  0  0  0
 38 78  2  0  0  0  0
 39 53  1  0  0  0  0
 39 73  1  0  0  0  0
 39 79  2  0  0  0  0
 40 62  1  0  0  0  0
 40 67  1  0  0  0  0
 40 80  2  0  0  0  0
 41 63  1  0  0  0  0
 41 74  1  0  0  0  0
 41 81  2  0  0  0  0
 42 68  1  0  0  0  0
 42 72  1  0  0  0  0
 42 82  2  0  0  0  0
 43 46  1  0  0  0  0
 44 53  1  0  0  0  0
 45 67  1  0  0  0  0
 46 48  1  0  0  0  0
 47 49  1  0  0  0  0
 47 50  1  0  0  0  0
 48 52  1  0  0  0  0
 49 54  1  0  0  0  0
 50 68  1  0  0  0  0
 51 54  1  0  0  0  0
 51 68  1  0  0  0  0
 52 73  1  0  0  0  0
 53 67  1  0  0  0  0
 54 66  1  0  0  0  0
 57 63  1  0  0  0  0
 58 64  1  0  0  0  0
 59 64  1  0  0  0  0
 60 64  1  0  0  0  0
 61 75  1  0  0  0  0
 62 64  1  0  0  0  0
 62 74  1  0  0  0  0
 63 75  1  0  0  0  0
 65 66  1  0  0  0  0
M  CHG  1  75   1
M  ISO  4  35 101  42 100  72 100  84 101
M  END
> <Batch ID>
0068

> <Smiles>
CNC(C)C(=O)NC(C(=O)N1Cc2cc([101O:1][101CH:1]=CC(=O)Nc3cc(C)c(C)c(C(=O)[100NH:0][100C:0](=O)N4CCCC(n5nc(-c6ccc(Oc7ccc(F)cc7F)cc6)c(C(N)=O)c5N)C4)c3)ccc2CC1C(=O)NC1CCCc2ccccc21)C(C)(C)C

> <Shape>
0.257

> <Color>
0.065

> <Negative vol penalty>
0.000

$$$$

  -OEChem-04042323273D

 84 92  0     1  0  0  0  0  0999 V2000
  -28.7923  -21.4261   26.6968 C   0  0  0  0  0  0  0  0  0  0  0  0
  -28.8851  -22.6491   26.0420 C   0  0  0  0  0  0  0  0  0  0  0  0
  -26.2738  -13.1779   21.1873 C   0  0  0  0  0  0  0  0  0  0  0  0
  -24.7875  -14.4760   19.7934 C   0  0  0  0  0  0  0  0  0  0  0  0
  -27.6011  -20.7049   26.6529 C   0  0  0  0  0  0  0  0  0  0  0  0
  -27.7830  -23.1568   25.3532 C   0  0  0  0  0  0  0  0  0  0  0  0
  -28.1754  -27.7228   23.5641 C   0  0  0  0  0  0  0  0  0  0  0  0
  -25.8614  -23.5864   17.7658 C   0  0  0  0  0  0  0  0  0  0  0  0
  -26.0035  -22.5738   18.7145 C   0  0  0  0  0  0  0  0  0  0  0  0
  -25.2260  -12.3109   21.4973 C   0  0  0  0  0  0  0  0  0  0  0  0
  -23.7397  -13.6090   20.1033 C   0  0  0  0  0  0  0  0  0  0  0  0
  -28.9789  -28.0367   22.4688 C   0  0  0  0  0  0  0  0  0  0  0  0
  -23.6155   -9.7252   20.0300 C   0  0  0  0  0  0  0  0  0  0  0  0
  -23.8742   -8.3551   19.9894 C   0  0  0  0  0  0  0  0  0  0  0  0
  -27.0160  -28.1600   21.0719 C   0  0  0  0  0  0  0  0  0  0  0  0
  -27.9360  -23.7003   19.6275 C   0  0  0  0  0  0  0  0  0  0  0  0
  -23.2886   -8.1754   22.3265 C   0  0  0  0  0  0  0  0  0  0  0  0
  -26.0546  -14.2605   20.3354 C   0  0  0  0  0  0  0  0  0  0  0  0
  -28.0436  -15.0459   18.9445 C   0  0  0  0  0  0  0  0  0  0  0  0
  -26.4882  -21.1990   25.9525 C   0  0  0  0  0  0  0  0  0  0  0  0
  -26.7849  -27.6143   23.4189 C   0  0  0  0  0  0  0  0  0  0  0  0
  -26.5644  -22.4552   25.3173 C   0  0  0  0  0  0  0  0  0  0  0  0
  -26.1969  -27.8472   22.1674 C   0  0  0  0  0  0  0  0  0  0  0  0
  -26.7567  -24.6559   17.7478 C   0  0  0  0  0  0  0  0  0  0  0  0
  -27.0407  -22.6308   19.6454 C   0  0  0  0  0  0  0  0  0  0  0  0
  -27.7939  -24.7129   18.6787 C   0  0  0  0  0  0  0  0  0  0  0  0
  -23.9590  -12.5264   20.9552 C   0  0  0  0  0  0  0  0  0  0  0  0
  -28.3995  -28.2525   21.2218 C   0  0  0  0  0  0  0  0  0  0  0  0
  -23.1935  -10.3204   21.2188 C   0  0  0  0  0  0  0  0  0  0  0  0
  -23.7107   -7.5802   21.1376 C   0  0  0  0  0  0  0  0  0  0  0  0
  -23.0300   -9.5455   22.3670 C   0  0  0  0  0  0  0  0  0  0  0  0
  -27.1364  -15.1567   20.0153 C   0  0  0  0  0  0  0  0  0  0  0  0
  -28.8682  -16.1361   19.0790 C   0  0  0  0  0  0  0  0  0  0  0  0
  -28.1328  -14.0470   17.9199 C   0  0  0  0  0  0  0  0  0  0  0  0
  -24.6650  -25.2772   23.8035 C   0  0  0  0  0  0  0  0  0  0  0  0
  -22.5280  -27.6492   23.2297 C   0  0  0  0  0  0  0  0  0  0  0  0
  -30.0475  -25.7674   19.0706 C   0  0  0  0  0  0  0  0  0  0  0  0
  -21.8894  -30.6994   21.8387 C   0  0  0  0  0  0  0  0  0  0  0  0
  -28.1578  -21.5054   21.6029 C   0  0  0  0  0  0  0  0  0  0  0  0
  -25.2211  -20.3807   25.9440 C   0  0  0  0  0  0  0  0  0  0  0  0
  -25.9296  -27.3013   24.6159 C   0  0  0  0  0  0  0  0  0  0  0  0
  -24.7071  -27.7627   21.9632 C   0  0  0  0  0  0  0  0  0  0  0  0
  -24.2611  -20.7830   24.8292 C   0  0  0  0  0  0  0  0  0  0  0  0
  -30.6547  -19.0939   22.3947 C   0  0  0  0  0  0  0  0  0  0  0  0
  -24.0667  -22.2919   24.8300 C   0  0  0  0  0  0  0  0  0  0  0  0
  -30.1213  -17.8018   21.7717 C   0  0  0  0  0  0  0  0  0  0  0  0
  -29.5301  -19.9512   22.9726 C   0  0  0  0  0  0  0  0  0  0  0  0
  -27.8993  -18.9530   21.4192 C   0  0  0  0  0  0  0  0  0  0  0  0
  -25.3883  -23.0129   24.5362 C   0  0  1  0  0  0  0  0  0  0  0  0
  -24.5731  -26.7110   24.2432 C   0  0  1  0  0  0  0  0  0  0  0  0
  -28.9887  -18.0868   20.7660 C   0  0  2  0  0  0  0  0  0  0  0  0
  -26.5804  -25.7263   16.7202 C   0  0  0  0  0  0  0  0  0  0  0  0
  -20.0402  -32.3616   21.4996 C   0  0  0  0  0  0  0  0  0  0  0  0
  -31.4911  -29.1949   20.1251 C   0  0  0  0  0  0  0  0  0  0  0  0
  -21.3472  -25.8847   21.0383 C   0  0  0  0  0  0  0  0  0  0  0  0
  -20.1825  -27.9079   20.1335 C   0  0  0  0  0  0  0  0  0  0  0  0
  -19.6560  -27.0908   22.4309 C   0  0  0  0  0  0  0  0  0  0  0  0
  -23.3343  -32.7907   23.3545 C   0  0  0  0  0  0  0  0  0  0  0  0
  -30.6750  -27.1484   18.9075 C   0  0  0  0  0  0  0  0  0  0  0  0
  -21.8741  -28.2237   21.9963 C   0  0  1  0  0  0  0  0  0  0  0  0
  -21.1963  -31.9325   22.3896 C   0  0  2  0  0  0  0  0  0  0  0  0
  -30.5079  -28.0320   20.1438 C   0  0  2  0  0  0  0  0  0  1  0  0
  -20.7932  -27.2765   21.4029 C   0  0  0  0  0  0  0  0  0  0  0  0
  -27.3633  -16.2322   20.7741 N   0  0  0  0  0  0  0  0  0  0  0  0
  -28.4224  -16.8072   20.1794 N   0  0  0  0  0  0  0  0  0  0  0  0
  -23.9139  -27.4475   23.1628 N   0  0  0  0  0  0  0  0  0  0  0  0
  -28.4957  -20.1835   21.9623 N   0  0  0  0  0  0  0  0  0  0  0  0
  -29.9240  -16.5764   18.3621 N   0  0  0  0  0  0  0  0  0  0  0  0
  -27.2064  -12.9953   17.9296 N   0  0  0  0  0  0  0  0  0  0  0  0
  -28.7123  -25.7896   18.6764 N   0  0  0  0  0  0  0  0  0  0  0  0
  -27.1846  -21.6018   20.6089 N   0  0  0  0  0  0  0  0  0  0  0  0
  -25.2099  -24.4320   24.7513 N   0  0  0  0  0  0  0  0  0  0  0  0
  -21.3719  -29.5398   22.3760 N   0  0  0  0  0  0  0  0  0  0  0  0
  -22.1583  -33.0663   22.4896 N   0  3  0  0  0  0  0  0  0  0  0  0
  -29.0183  -14.0769   17.0319 O   0  0  0  0  0  0  0  0  0  0  0  0
  -24.2695  -24.9608   22.6877 O   0  0  0  0  0  0  0  0  0  0  0  0
  -21.8358  -27.3956   24.2188 O   0  0  0  0  0  0  0  0  0  0  0  0
  -30.6818  -24.8074   19.4951 O   0  0  0  0  0  0  0  0  0  0  0  0
  -22.7965  -30.7588   21.0115 O   0  0  0  0  0  0  0  0  0  0  0  0
  -28.7120  -22.4798   22.1182 O   0  0  0  0  0  0  0  0  0  0  0  0
  -22.9363  -11.6805   21.2573 O   0  0  0  0  0  0  0  0  0  0  0  0
  -29.1815  -28.5584   20.1509 O   0  0  0  0  0  0  0  0  0  1  0  0
  -23.9576   -6.2643   21.0981 F   0  0  0  0  0  0  0  0  0  0  0  0
  -22.6236  -10.1114   23.5117 F   0  0  0  0  0  0  0  0  0  0  0  0
  1  2  1  0  0  0  0
  1  5  2  0  0  0  0
  2  6  2  0  0  0  0
  3 10  2  0  0  0  0
  3 18  1  0  0  0  0
  4 11  1  0  0  0  0
  4 18  2  0  0  0  0
  5 20  1  0  0  0  0
  6 22  1  0  0  0  0
  7 12  2  0  0  0  0
  7 21  1  0  0  0  0
  8  9  2  0  0  0  0
  8 24  1  0  0  0  0
  9 25  1  0  0  0  0
 10 27  1  0  0  0  0
 11 27  2  0  0  0  0
 12 28  1  0  0  0  0
 13 14  2  0  0  0  0
 13 29  1  0  0  0  0
 14 30  1  0  0  0  0
 15 23  1  0  0  0  0
 15 28  2  0  0  0  0
 16 25  2  0  0  0  0
 16 26  1  0  0  0  0
 17 30  2  0  0  0  0
 17 31  1  0  0  0  0
 18 32  1  0  0  0  0
 19 32  1  0  0  0  0
 19 33  2  0  0  0  0
 19 34  1  0  0  0  0
 20 22  2  0  0  0  0
 20 40  1  0  0  0  0
 21 23  2  0  0  0  0
 21 41  1  0  0  0  0
 22 49  1  0  0  0  0
 23 42  1  0  0  0  0
 24 26  2  0  0  0  0
 24 52  1  0  0  0  0
 25 71  1  0  0  0  0
 26 70  1  0  0  0  0
 27 81  1  0  0  0  0
 28 82  1  0  0  0  0
 29 31  2  0  0  0  0
 29 81  1  0  0  0  0
 30 83  1  0  0  0  0
 31 84  1  0  0  0  0
 32 64  2  0  0  0  0
 33 65  1  0  0  0  0
 33 68  1  0  0  0  0
 34 69  1  0  0  0  0
 34 75  2  0  0  0  0
 35 50  1  0  0  0  0
 35 72  1  0  0  0  0
 35 76  2  0  0  0  0
 36 60  1  0  0  0  0
 36 66  1  0  0  0  0
 36 77  2  0  0  0  0
 37 59  1  0  0  0  0
 37 70  1  0  0  0  0
 37 78  2  0  0  0  0
 38 61  1  0  0  0  0
 38 73  1  0  0  0  0
 38 79  2  0  0  0  0
 39 67  1  0  0  0  0
 39 71  1  0  0  0  0
 39 80  2  0  0  0  0
 40 43  1  0  0  0  0
 41 50  1  0  0  0  0
 42 66  1  0  0  0  0
 43 45  1  0  0  0  0
 44 46  1  0  0  0  0
 44 47  1  0  0  0  0
 45 49  1  0  0  0  0
 46 51  1  0  0  0  0
 47 67  1  0  0  0  0
 48 51  1  0  0  0  0
 48 67  1  0  0  0  0
 49 72  1  0  0  0  0
 50 66  1  0  0  0  0
 51 65  1  0  0  0  0
 53 61  1  0  0  0  0
 54 62  1  0  0  0  0
 55 63  1  0  0  0  0
 56 63  1  0  0  0  0
 57 63  1  0  0  0  0
 58 74  1  0  0  0  0
 59 62  1  0  0  0  0
 60 63  1  0  0  0  0
 60 73  1  0  0  0  0
 61 74  1  0  0  0  0
 62 82  1  0  0  0  0
 64 65  1  0  0  0  0
M  CHG  1  74   1
M  ISO  4  39 100  62 101  71 100  82 101
M  END
> <Batch ID>
0068

> <Smiles>
CNC(C)C(=O)NC(C(=O)N1Cc2cc([101O:1][101CH:1](C)CC(=O)Nc3cc([100NH:0][100C:0](=O)N4CCCC(n5nc(-c6ccc(Oc7ccc(F)cc7F)cc6)c(C(N)=O)c5N)C4)ccc3C)ccc2CC1C(=O)NC1CCCc2ccccc21)C(C)(C)C

> <Shape>
0.225

> <Color>
0.060

> <Negative vol penalty>
0.000

$$$$

  -OEChem-04042323273D

 91100  0     1  0  0  0  0  0999 V2000
  -22.3346  -15.3037   13.8409 C   0  0  0  0  0  0  0  0  0  0  0  0
  -23.3704  -15.5735   14.7296 C   0  0  0  0  0  0  0  0  0  0  0  0
  -23.1591  -30.2851   25.0592 C   0  0  0  0  0  0  0  0  0  0  0  0
  -22.4339  -30.6666   22.7864 C   0  0  0  0  0  0  0  0  0  0  0  0
  -21.0655  -14.9904   14.3257 C   0  0  0  0  0  0  0  0  0  0  0  0
  -23.1373  -15.5310   16.1038 C   0  0  0  0  0  0  0  0  0  0  0  0
  -26.7876  -13.0825   18.6187 C   0  0  0  0  0  0  0  0  0  0  0  0
  -29.6198  -21.3307   21.1721 C   0  0  0  0  0  0  0  0  0  0  0  0
  -29.1141  -22.6249   21.0506 C   0  0  0  0  0  0  0  0  0  0  0  0
  -21.8321  -30.3158   25.4878 C   0  0  0  0  0  0  0  0  0  0  0  0
  -21.1068  -30.6972   23.2150 C   0  0  0  0  0  0  0  0  0  0  0  0
  -27.9761  -13.7740   18.8489 C   0  0  0  0  0  0  0  0  0  0  0  0
  -18.7174  -28.4683   24.0771 C   0  0  0  0  0  0  0  0  0  0  0  0
  -17.7797  -27.7570   23.3286 C   0  0  0  0  0  0  0  0  0  0  0  0
  -27.2554  -14.2507   21.1011 C   0  0  0  0  0  0  0  0  0  0  0  0
  -30.6805  -21.5422   19.0118 C   0  0  0  0  0  0  0  0  0  0  0  0
  -16.5645  -29.8022   22.9074 C   0  0  0  0  0  0  0  0  0  0  0  0
  -23.4600  -30.4606   23.7085 C   0  0  0  0  0  0  0  0  0  0  0  0
  -25.8748  -31.2822   23.6710 C   0  0  0  0  0  0  0  0  0  0  0  0
  -20.8191  -14.9346   15.7065 C   0  0  0  0  0  0  0  0  0  0  0  0
  -25.8177  -12.9791   19.6261 C   0  0  0  0  0  0  0  0  0  0  0  0
  -21.8633  -15.2179   16.6075 C   0  0  0  0  0  0  0  0  0  0  0  0
  -26.0565  -13.5552   20.8820 C   0  0  0  0  0  0  0  0  0  0  0  0
  -30.1748  -22.8364   18.8902 C   0  0  0  0  0  0  0  0  0  0  0  0
  -30.4031  -20.7893   20.1528 C   0  0  0  0  0  0  0  0  0  0  0  0
  -29.3916  -23.3778   19.9096 C   0  0  0  0  0  0  0  0  0  0  0  0
  -20.8059  -30.5218   24.5657 C   0  0  0  0  0  0  0  0  0  0  0  0
  -28.2089  -14.3607   20.0893 C   0  0  0  0  0  0  0  0  0  0  0  0
  -18.5787  -29.8466   24.2408 C   0  0  0  0  0  0  0  0  0  0  0  0
  -16.7032  -28.4239   22.7437 C   0  0  0  0  0  0  0  0  0  0  0  0
  -17.5022  -30.5135   23.6559 C   0  0  0  0  0  0  0  0  0  0  0  0
  -24.8306  -30.4296   23.2653 C   0  0  0  0  0  0  0  0  0  0  0  0
  -26.9693  -30.8440   22.9665 C   0  0  0  0  0  0  0  0  0  0  0  0
  -30.3613  -17.1215   20.8993 C   0  0  0  0  0  0  0  0  0  0  0  0
  -32.1488  -19.1393   19.6555 C   0  0  0  0  0  0  0  0  0  0  0  0
  -29.2862  -16.3587   20.6536 C   0  0  0  0  0  0  0  0  0  1  0  0
  -25.8569  -32.3728   24.6017 C   0  0  0  0  0  0  0  0  0  0  0  0
  -22.8002  -13.9276   19.9407 C   0  0  0  0  0  0  0  0  0  0  0  0
  -22.9634  -12.2305   22.7003 C   0  0  0  0  0  0  0  0  0  0  0  0
  -24.9012  -10.9186   25.1845 C   0  0  0  0  0  0  0  0  0  0  0  0
  -28.0766  -25.3720   20.7333 C   0  0  0  0  0  0  0  0  0  0  0  0
  -19.4192  -14.6378   16.1828 C   0  0  0  0  0  0  0  0  0  0  0  0
  -24.5524  -12.2069   19.3705 C   0  0  0  0  0  0  0  0  0  0  0  0
  -25.0560  -13.4555   22.0034 C   0  0  0  0  0  0  0  0  0  0  0  0
  -30.2690  -18.5668   21.2677 C   0  0  0  0  0  0  0  0  0  0  0  0
  -31.7453  -16.5870   20.8665 C   0  0  0  0  0  0  0  0  0  0  0  0
  -19.3473  -14.2466   17.6566 C   0  0  0  0  0  0  0  0  0  0  0  0
  -27.3349  -28.5532   18.7199 C   0  0  0  0  0  0  0  0  0  0  0  0
  -20.1762  -15.2060   18.5046 C   0  0  0  0  0  0  0  0  0  0  0  0
  -27.4044  -29.5858   19.8426 C   0  0  0  0  0  0  0  0  0  0  0  0
  -28.1149  -27.2871   19.0506 C   0  0  0  0  0  0  0  0  0  0  0  0
  -26.8702  -27.4942   21.2101 C   0  0  0  0  0  0  0  0  0  0  0  0
  -21.6560  -15.1576   18.1053 C   0  0  1  0  0  0  0  0  0  0  0  0
  -23.4117  -12.6036   20.3026 C   0  0  1  0  0  0  0  0  0  0  0  0
  -27.3479  -28.9542   21.2477 C   0  0  2  0  0  0  0  0  0  0  0  0
  -24.7462   -9.6158   27.3236 C   0  0  0  0  0  0  0  0  0  0  0  0
  -21.9836  -14.7307   24.1492 C   0  0  0  0  0  0  0  0  0  0  0  0
  -22.7476  -13.6996   26.2989 C   0  0  0  0  0  0  0  0  0  0  0  0
  -20.9637  -12.5928   24.9516 C   0  0  0  0  0  0  0  0  0  0  0  0
  -26.5330   -8.7053   24.0903 C   0  0  0  0  0  0  0  0  0  0  0  0
  -23.3526  -12.5418   24.1254 C   0  0  1  0  0  0  0  0  0  0  0  0
  -24.9311   -9.5386   25.8161 C   0  0  2  0  0  0  0  0  0  0  0  0
  -30.4895  -23.6211   17.6581 C   0  0  0  0  0  0  0  0  0  0  0  0
  -22.2801  -13.3949   24.8597 C   0  0  0  0  0  0  0  0  0  0  0  0
  -25.2263  -29.5187   22.3721 N   0  0  0  0  0  0  0  0  0  0  0  0
  -26.5312  -29.7966   22.2107 N   0  0  0  0  0  0  0  0  0  0  0  0
  -30.9311  -19.4446   20.2806 N   0  0  0  0  0  0  0  0  0  0  0  0
  -23.8315  -12.6956   21.7024 N   0  0  0  0  0  0  0  0  0  0  0  0
  -27.7168  -26.6811   20.3294 N   0  0  0  0  0  0  0  0  0  0  0  0
  -28.2541  -31.2564   22.9258 N   0  0  0  0  0  0  0  0  0  0  0  0
  -25.5702  -33.6574   24.1201 N   0  0  0  0  0  0  0  0  0  0  0  0
  -28.8699  -24.6916   19.8057 N   0  0  0  0  0  0  0  0  0  0  0  0
  -22.2902  -13.9797   18.6575 N   0  0  0  0  0  0  0  0  0  0  0  0
  -23.6339  -11.2592   24.7611 N   0  0  0  0  0  0  0  0  0  0  0  0
  -26.2326   -8.8688   25.5360 N   0  3  0  0  0  0  0  0  0  0  0  0
  -32.9474  -19.9022   19.1276 O   0  0  0  0  0  0  0  0  0  0  0  0
  -26.1045  -32.2154   25.8213 O   0  0  0  0  0  0  0  0  0  0  0  0
  -22.7905  -14.8341   20.7651 O   0  0  0  0  0  0  0  0  0  0  0  0
  -21.9311  -11.5919   22.4811 O   0  0  0  0  0  0  0  0  0  0  0  0
  -25.9012  -11.6255   25.0806 O   0  0  0  0  0  0  0  0  0  0  0  0
  -27.7180  -24.9069   21.8172 O   0  0  0  0  0  0  0  0  0  0  0  0
  -33.9835  -17.3700   19.7983 O   0  0  0  0  0  0  0  0  0  0  0  0
  -31.9870  -16.9974   18.2921 O   0  0  0  0  0  0  0  0  0  0  0  0
  -19.5109  -30.5515   24.9835 O   0  0  0  0  0  0  0  0  0  0  0  0
  -29.3679  -15.0368   20.3165 O   0  0  0  0  0  0  0  0  0  1  0  0
  -15.8036  -27.7409   22.0237 F   0  0  0  0  0  0  0  0  0  0  0  0
  -17.3642  -31.8377   23.8087 F   0  0  0  0  0  0  0  0  0  0  0  0
  -31.2676  -22.9434   16.7647 F   0  0  0  0  0  0  0  0  0  0  0  0
  -29.3818  -23.9977   16.9553 F   0  0  0  0  0  0  0  0  0  0  0  0
  -31.1625  -24.7753   17.9316 F   0  0  0  0  0  0  0  0  0  0  0  0
  -32.5561  -17.4327   19.5524 S   0  0  0  0  0  0  0  0  0  0  0  0
  1  2  1  0  0  0  0
  1  5  2  0  0  0  0
  2  6  2  0  0  0  0
  3 10  2  0  0  0  0
  3 18  1  0  0  0  0
  4 11  1  0  0  0  0
  4 18  2  0  0  0  0
  5 20  1  0  0  0  0
  6 22  1  0  0  0  0
  7 12  2  0  0  0  0
  7 21  1  0  0  0  0
  8  9  2  0  0  0  0
  8 25  1  0  0  0  0
  9 26  1  0  0  0  0
 10 27  1  0  0  0  0
 11 27  2  0  0  0  0
 12 28  1  0  0  0  0
 13 14  2  0  0  0  0
 13 29  1  0  0  0  0
 14 30  1  0  0  0  0
 15 23  1  0  0  0  0
 15 28  2  0  0  0  0
 16 24  1  0  0  0  0
 16 25  2  0  0  0  0
 17 30  2  0  0  0  0
 17 31  1  0  0  0  0
 18 32  1  0  0  0  0
 19 32  1  0  0  0  0
 19 33  2  0  0  0  0
 19 37  1  0  0  0  0
 20 22  2  0  0  0  0
 20 42  1  0  0  0  0
 21 23  2  0  0  0  0
 21 43  1  0  0  0  0
 22 53  1  0  0  0  0
 23 44  1  0  0  0  0
 24 26  2  0  0  0  0
 24 63  1  0  0  0  0
 25 67  1  0  0  0  0
 26 72  1  0  0  0  0
 27 84  1  0  0  0  0
 28 85  1  0  0  0  0
 29 31  2  0  0  0  0
 29 84  1  0  0  0  0
 30 86  1  0  0  0  0
 31 87  1  0  0  0  0
 32 65  2  0  0  0  0
 33 66  1  0  0  0  0
 33 70  1  0  0  0  0
 34 36  2  0  0  0  0
 34 45  1  0  0  0  0
 34 46  1  0  0  0  0
 35 67  1  0  0  0  0
 35 76  2  0  0  0  0
 35 91  1  0  0  0  0
 36 85  1  0  0  0  0
 37 71  1  0  0  0  0
 37 77  2  0  0  0  0
 38 54  1  0  0  0  0
 38 73  1  0  0  0  0
 38 78  2  0  0  0  0
 39 61  1  0  0  0  0
 39 68  1  0  0  0  0
 39 79  2  0  0  0  0
 40 62  1  0  0  0  0
 40 74  1  0  0  0  0
 40 80  2  0  0  0  0
 41 69  1  0  0  0  0
 41 72  1  0  0  0  0
 41 81  2  0  0  0  0
 42 47  1  0  0  0  0
 43 54  1  0  0  0  0
 44 68  1  0  0  0  0
 45 67  1  0  0  0  0
 46 91  1  0  0  0  0
 47 49  1  0  0  0  0
 48 50  1  0  0  0  0
 48 51  1  0  0  0  0
 49 53  1  0  0  0  0
 50 55  1  0  0  0  0
 51 69  1  0  0  0  0
 52 55  1  0  0  0  0
 52 69  1  0  0  0  0
 53 73  1  0  0  0  0
 54 68  1  0  0  0  0
 55 66  1  0  0  0  0
 56 62  1  0  0  0  0
 57 64  1  0  0  0  0
 58 64  1  0  0  0  0
 59 64  1  0  0  0  0
 60 75  1  0  0  0  0
 61 64  1  0  0  0  0
 61 74  1  0  0  0  0
 62 75  1  0  0  0  0
 63 88  1  0  0  0  0
 63 89  1  0  0  0  0
 63 90  1  0  0  0  0
 65 66  1  0  0  0  0
 82 91  2  0  0  0  0
 83 91  2  0  0  0  0
M  CHG  1  75   1
M  ISO  4  36 101  41 100  72 100  85 101
M  END
> <Batch ID>
0068

> <Smiles>
CNC(C)C(=O)NC(C(=O)N1Cc2cc([101O:1][101CH:1]=C3CN(c4ccc([100NH:0][100C:0](=O)N5CCCC(n6nc(-c7ccc(Oc8ccc(F)cc8F)cc7)c(C(N)=O)c6N)C5)c(C(F)(F)F)c4)C(=O)S(=O)(=O)C3)ccc2CC1C(=O)NC1CCCc2ccccc21)C(C)(C)C

> <Shape>
0.266

> <Color>
0.066

> <Negative vol penalty>
0.000

$$$$

  -OEChem-04042323273D

 85 94  0     1  0  0  0  0  0999 V2000
  -28.4025  -37.4411   21.4848 C   0  0  0  0  0  0  0  0  0  0  0  0
  -28.8057  -36.1588   21.1266 C   0  0  0  0  0  0  0  0  0  0  0  0
  -26.0672   -9.7080   23.1484 C   0  0  0  0  0  0  0  0  0  0  0  0
  -25.3628   -8.4418   21.2152 C   0  0  0  0  0  0  0  0  0  0  0  0
  -27.4165  -37.6151   22.4551 C   0  0  0  0  0  0  0  0  0  0  0  0
  -28.2237  -35.0495   21.7392 C   0  0  0  0  0  0  0  0  0  0  0  0
  -27.0547  -29.6152   19.1687 C   0  0  0  0  0  0  0  0  0  0  0  0
  -30.4695  -20.4771   20.0258 C   0  0  0  0  0  0  0  0  0  0  0  0
  -25.5349   -8.7270   23.9850 C   0  0  0  0  0  0  0  0  0  0  0  0
  -24.8305   -7.4607   22.0517 C   0  0  0  0  0  0  0  0  0  0  0  0
  -27.7410  -28.4017   19.1872 C   0  0  0  0  0  0  0  0  0  0  0  0
  -22.0440   -7.0193   23.9149 C   0  0  0  0  0  0  0  0  0  0  0  0
  -30.9751  -19.1802   19.9375 C   0  0  0  0  0  0  0  0  0  0  0  0
  -20.7753   -6.5264   23.6101 C   0  0  0  0  0  0  0  0  0  0  0  0
  -26.3386  -27.6431   20.9974 C   0  0  0  0  0  0  0  0  0  0  0  0
  -28.2706  -19.6593   19.4484 C   0  0  0  0  0  0  0  0  0  0  0  0
  -21.6952   -4.3048   23.3737 C   0  0  0  0  0  0  0  0  0  0  0  0
  -25.9811   -9.5655   21.7635 C   0  0  0  0  0  0  0  0  0  0  0  0
  -27.8388  -10.6382   20.3829 C   0  0  0  0  0  0  0  0  0  0  0  0
  -26.8153  -36.5072   23.0730 C   0  0  0  0  0  0  0  0  0  0  0  0
  -26.0106  -29.8562   20.0732 C   0  0  0  0  0  0  0  0  0  0  0  0
  -27.2297  -35.2088   22.7196 C   0  0  0  0  0  0  0  0  0  0  0  0
  -25.6389  -28.8594   20.9867 C   0  0  0  0  0  0  0  0  0  0  0  0
  -29.1172  -20.7167   19.7813 C   0  0  0  0  0  0  0  0  0  0  0  0
  -28.7762  -18.3623   19.3601 C   0  0  0  0  0  0  0  0  0  0  0  0
  -24.9166   -7.6034   23.4366 C   0  0  0  0  0  0  0  0  0  0  0  0
  -27.3849  -27.4166   20.1036 C   0  0  0  0  0  0  0  0  0  0  0  0
  -23.1384   -6.1550   23.9491 C   0  0  0  0  0  0  0  0  0  0  0  0
  -20.6008   -5.1691   23.3395 C   0  0  0  0  0  0  0  0  0  0  0  0
  -30.1285  -18.1228   19.6047 C   0  0  0  0  0  0  0  0  0  0  0  0
  -22.9639   -4.7978   23.6785 C   0  0  0  0  0  0  0  0  0  0  0  0
  -26.5303  -10.5788   20.8988 C   0  0  0  0  0  0  0  0  0  0  0  0
  -27.8574  -11.7835   19.6250 C   0  0  0  0  0  0  0  0  0  0  0  0
  -27.8971  -23.8617   19.8957 C   0  0  0  0  0  0  0  0  0  0  0  0
  -27.3771  -22.5098   19.6875 C   0  0  0  0  0  0  0  0  0  0  0  0
  -27.3415  -25.0870   19.8989 C   0  0  0  0  0  0  0  0  0  1  0  0
  -28.9391   -9.7385   20.5719 C   0  0  0  0  0  0  0  0  0  0  0  0
  -25.5008  -31.9587   22.4020 C   0  0  0  0  0  0  0  0  0  0  0  0
  -22.5642  -30.5825   22.4717 C   0  0  0  0  0  0  0  0  0  0  0  0
  -20.6264  -27.8546   21.8008 C   0  0  0  0  0  0  0  0  0  0  0  0
  -26.5285  -17.2933   19.3584 C   0  0  0  0  0  0  0  0  0  0  0  0
  -25.7872  -36.7461   24.1503 C   0  0  0  0  0  0  0  0  0  0  0  0
  -25.2626  -31.1602   20.0226 C   0  0  0  0  0  0  0  0  0  0  0  0
  -24.5119  -29.0608   21.9653 C   0  0  0  0  0  0  0  0  0  0  0  0
  -29.2749  -23.2721   20.0921 C   0  0  0  0  0  0  0  0  0  0  0  0
  -24.9545  -35.5105   24.4824 C   0  0  0  0  0  0  0  0  0  0  0  0
  -24.1102  -14.8061   18.1030 C   0  0  0  0  0  0  0  0  0  0  0  0
  -25.8533  -34.2888   24.6445 C   0  0  0  0  0  0  0  0  0  0  0  0
  -24.6014  -13.5047   18.7346 C   0  0  0  0  0  0  0  0  0  0  0  0
  -24.4410  -16.0172   18.9701 C   0  0  0  0  0  0  0  0  0  0  0  0
  -26.3784  -14.8273   19.9504 C   0  0  0  0  0  0  0  0  0  0  0  0
  -26.6045  -33.9801   23.3437 C   0  0  1  0  0  0  0  0  0  0  0  0
  -24.5541  -31.4938   21.3319 C   0  0  1  0  0  0  0  0  0  0  0  0
  -26.0981  -13.5930   19.0799 C   0  0  1  0  0  0  0  0  0  0  0  0
  -18.2707  -27.0138   22.0034 C   0  0  0  0  0  0  0  0  0  0  0  0
  -22.9863  -30.1269   25.4591 C   0  0  0  0  0  0  0  0  0  0  0  0
  -21.0948  -28.4876   25.4055 C   0  0  0  0  0  0  0  0  0  0  0  0
  -20.6853  -30.8809   24.8337 C   0  0  0  0  0  0  0  0  0  0  0  0
  -28.3883  -16.2418   18.0915 C   0  0  0  0  0  0  0  0  0  0  0  0
  -20.3659  -27.5332   18.8703 C   0  0  0  0  0  0  0  0  0  0  0  0
  -21.9474  -29.4159   23.2049 C   0  0  1  0  0  0  0  0  0  0  0  0
  -19.2803  -27.7201   21.1120 C   0  0  2  0  0  0  0  0  0  0  0  0
  -21.7010  -29.7244   24.7088 C   0  0  0  0  0  0  0  0  0  0  0  0
  -25.7726  -11.6048   20.5023 N   0  0  0  0  0  0  0  0  0  0  0  0
  -26.6077  -12.3197   19.7292 N   0  0  0  0  0  0  0  0  0  0  0  0
  -28.6189  -21.9959   19.8683 N   0  0  0  0  0  0  0  0  0  0  0  0
  -23.8151  -30.3550   21.8808 N   0  0  0  0  0  0  0  0  0  0  0  0
  -25.8612  -16.0525   19.3217 N   0  0  0  0  0  0  0  0  0  0  0  0
  -28.8206  -12.3741   18.8863 N   0  0  0  0  0  0  0  0  0  0  0  0
  -28.7482   -8.6104   21.3813 N   0  0  0  0  0  0  0  0  0  0  0  0
  -25.7286  -33.3216   22.3984 N   0  0  0  0  0  0  0  0  0  0  0  0
  -20.7431  -29.0583   22.4632 N   0  0  0  0  0  0  0  0  0  0  0  0
  -27.8978  -17.2694   19.0158 N   0  0  0  0  0  0  0  0  0  0  0  0
  -19.4199  -26.9398   19.8500 N   0  3  0  0  0  0  0  0  0  0  0  0
  -26.2875  -22.0362   19.4404 O   0  0  0  0  0  0  0  0  0  0  0  0
  -30.0631   -9.9381   20.0521 O   0  0  0  0  0  0  0  0  0  0  0  0
  -25.9873  -31.1416   23.1749 O   0  0  0  0  0  0  0  0  0  0  0  0
  -21.9552  -31.6539   22.4191 O   0  0  0  0  0  0  0  0  0  0  0  0
  -21.4867  -26.9779   21.7587 O   0  0  0  0  0  0  0  0  0  0  0  0
  -25.9398  -18.3424   19.6454 O   0  0  0  0  0  0  0  0  0  0  0  0
  -24.3972   -6.6457   24.2526 O   0  0  0  0  0  0  0  0  0  0  0  0
  -28.0535  -26.2315   20.1242 O   0  0  0  0  0  0  0  0  0  1  0  0
  -19.3822   -4.6957   23.0484 F   0  0  0  0  0  0  0  0  0  0  0  0
  -30.6257  -16.8806   19.5224 F   0  0  0  0  0  0  0  0  0  0  0  0
  -24.0113   -3.9624   23.7110 F   0  0  0  0  0  0  0  0  0  0  0  0
  1  2  1  0  0  0  0
  1  5  2  0  0  0  0
  2  6  2  0  0  0  0
  3  9  2  0  0  0  0
  3 18  1  0  0  0  0
  4 10  1  0  0  0  0
  4 18  2  0  0  0  0
  5 20  1  0  0  0  0
  6 22  1  0  0  0  0
  7 11  2  0  0  0  0
  7 21  1  0  0  0  0
  8 13  2  0  0  0  0
  8 24  1  0  0  0  0
  9 26  1  0  0  0  0
 10 26  2  0  0  0  0
 11 27  1  0  0  0  0
 12 14  2  0  0  0  0
 12 28  1  0  0  0  0
 13 30  1  0  0  0  0
 14 29  1  0  0  0  0
 15 23  1  0  0  0  0
 15 27  2  0  0  0  0
 16 24  2  0  0  0  0
 16 25  1  0  0  0  0
 17 29  2  0  0  0  0
 17 31  1  0  0  0  0
 18 32  1  0  0  0  0
 19 32  1  0  0  0  0
 19 33  2  0  0  0  0
 19 37  1  0  0  0  0
 20 22  2  0  0  0  0
 20 42  1  0  0  0  0
 21 23  2  0  0  0  0
 21 43  1  0  0  0  0
 22 52  1  0  0  0  0
 23 44  1  0  0  0  0
 24 66  1  0  0  0  0
 25 30  2  0  0  0  0
 25 73  1  0  0  0  0
 26 81  1  0  0  0  0
 27 82  1  0  0  0  0
 28 31  2  0  0  0  0
 28 81  1  0  0  0  0
 29 83  1  0  0  0  0
 30 84  1  0  0  0  0
 31 85  1  0  0  0  0
 32 64  2  0  0  0  0
 33 65  1  0  0  0  0
 33 69  1  0  0  0  0
 34 35  1  0  0  0  0
 34 36  2  0  0  0  0
 34 45  1  0  0  0  0
 35 66  1  0  0  0  0
 35 75  2  0  0  0  0
 36 82  1  0  0  0  0
 37 70  1  0  0  0  0
 37 76  2  0  0  0  0
 38 53  1  0  0  0  0
 38 71  1  0  0  0  0
 38 77  2  0  0  0  0
 39 61  1  0  0  0  0
 39 67  1  0  0  0  0
 39 78  2  0  0  0  0
 40 62  1  0  0  0  0
 40 72  1  0  0  0  0
 40 79  2  0  0  0  0
 41 68  1  0  0  0  0
 41 73  1  0  0  0  0
 41 80  2  0  0  0  0
 42 46  1  0  0  0  0
 43 53  1  0  0  0  0
 44 67  1  0  0  0  0
 45 66  1  0  0  0  0
 46 48  1  0  0  0  0
 47 49  1  0  0  0  0
 47 50  1  0  0  0  0
 48 52  1  0  0  0  0
 49 54  1  0  0  0  0
 50 68  1  0  0  0  0
 51 54  1  0  0  0  0
 51 68  1  0  0  0  0
 52 71  1  0  0  0  0
 53 67  1  0  0  0  0
 54 65  1  0  0  0  0
 55 62  1  0  0  0  0
 56 63  1  0  0  0  0
 57 63  1  0  0  0  0
 58 63  1  0  0  0  0
 59 73  1  0  0  0  0
 60 74  1  0  0  0  0
 61 63  1  0  0  0  0
 61 72  1  0  0  0  0
 62 74  1  0  0  0  0
 64 65  1  0  0  0  0
M  CHG  1  74   1
M  ISO  4  36 101  41 100  73 100  82 101
M  END
> <Batch ID>
0068

> <Smiles>
CNC(C)C(=O)NC(C(=O)N1Cc2cc([101O:1][101CH:1]=C3CN(c4ccc(F)c([100N:0](C)[100C:0](=O)N5CCCC(n6nc(-c7ccc(Oc8ccc(F)cc8F)cc7)c(C(N)=O)c6N)C5)c4)C3=O)ccc2CC1C(=O)NC1CCCc2ccccc21)C(C)(C)C

> <Shape>
0.309

> <Color>
0.090

> <Negative vol penalty>
0.000

$$$$

  -OEChem-04042323273D

 85 94  0     1  0  0  0  0  0999 V2000
  -29.0449  -35.0173   22.5502 C   0  0  0  0  0  0  0  0  0  0  0  0
  -29.1438  -33.6781   22.9138 C   0  0  0  0  0  0  0  0  0  0  0  0
  -23.5884   -9.6396   21.4921 C   0  0  0  0  0  0  0  0  0  0  0  0
  -24.2451  -10.7115   23.5553 C   0  0  0  0  0  0  0  0  0  0  0  0
  -27.8304  -35.5261   22.0920 C   0  0  0  0  0  0  0  0  0  0  0  0
  -28.0279  -32.8472   22.8205 C   0  0  0  0  0  0  0  0  0  0  0  0
  -29.1144  -28.3621   20.7351 C   0  0  0  0  0  0  0  0  0  0  0  0
  -31.7735  -19.3876   21.2670 C   0  0  0  0  0  0  0  0  0  0  0  0
  -31.3439  -18.1358   20.8267 C   0  0  0  0  0  0  0  0  0  0  0  0
  -23.0180   -8.5934   22.2171 C   0  0  0  0  0  0  0  0  0  0  0  0
  -23.6747   -9.6653   24.2804 C   0  0  0  0  0  0  0  0  0  0  0  0
  -29.7408  -27.4175   21.5469 C   0  0  0  0  0  0  0  0  0  0  0  0
  -20.1680   -8.0236   23.9450 C   0  0  0  0  0  0  0  0  0  0  0  0
  -18.9038   -7.5798   23.5571 C   0  0  0  0  0  0  0  0  0  0  0  0
  -27.6200  -26.3235   21.9002 C   0  0  0  0  0  0  0  0  0  0  0  0
  -29.4749  -20.0870   21.5213 C   0  0  0  0  0  0  0  0  0  0  0  0
  -19.8040   -5.3758   23.1454 C   0  0  0  0  0  0  0  0  0  0  0  0
  -24.2020  -10.6986   22.1611 C   0  0  0  0  0  0  0  0  0  0  0  0
  -24.1625  -12.9676   20.9959 C   0  0  0  0  0  0  0  0  0  0  0  0
  -26.7015  -34.6988   21.9839 C   0  0  0  0  0  0  0  0  0  0  0  0
  -27.7319  -28.3008   20.5082 C   0  0  0  0  0  0  0  0  0  0  0  0
  -26.7968  -33.3458   22.3617 C   0  0  0  0  0  0  0  0  0  0  0  0
  -26.9789  -27.2671   21.0830 C   0  0  0  0  0  0  0  0  0  0  0  0
  -29.0453  -18.8351   21.0809 C   0  0  0  0  0  0  0  0  0  0  0  0
  -30.8390  -20.3632   21.6144 C   0  0  0  0  0  0  0  0  0  0  0  0
  -29.9798  -17.8595   20.7336 C   0  0  0  0  0  0  0  0  0  0  0  0
  -23.0612   -8.6062   23.6112 C   0  0  0  0  0  0  0  0  0  0  0  0
  -28.9932  -26.3997   22.1319 C   0  0  0  0  0  0  0  0  0  0  0  0
  -21.2502   -7.1436   23.9330 C   0  0  0  0  0  0  0  0  0  0  0  0
  -18.7218   -6.2559   23.1573 C   0  0  0  0  0  0  0  0  0  0  0  0
  -21.0682   -5.8197   23.5332 C   0  0  0  0  0  0  0  0  0  0  0  0
  -24.7919  -11.7794   21.4127 C   0  0  0  0  0  0  0  0  0  0  0  0
  -25.1425  -13.6585   20.3260 C   0  0  0  0  0  0  0  0  0  0  0  0
  -32.5899  -22.0801   22.2206 C   0  0  0  0  0  0  0  0  0  0  0  0
  -22.8127  -13.4076   21.1965 C   0  0  0  0  0  0  0  0  0  0  0  0
  -25.2714  -30.2186   21.1178 C   0  0  0  0  0  0  0  0  0  0  0  0
  -23.6282  -28.0141   19.3967 C   0  0  0  0  0  0  0  0  0  0  0  0
  -23.4089  -24.8051   18.2560 C   0  0  0  0  0  0  0  0  0  0  0  0
  -30.3760  -15.5127   19.9078 C   0  0  0  0  0  0  0  0  0  0  0  0
  -25.3980  -35.3052   21.5281 C   0  0  0  0  0  0  0  0  0  0  0  0
  -27.0756  -29.3118   19.6084 C   0  0  0  0  0  0  0  0  0  0  0  0
  -25.4952  -27.1450   20.8543 C   0  0  0  0  0  0  0  0  0  0  0  0
  -24.3598  -34.2696   21.1036 C   0  0  0  0  0  0  0  0  0  0  0  0
  -29.7362  -12.1955   18.7837 C   0  0  0  0  0  0  0  0  0  0  0  0
  -24.2764  -33.1453   22.1311 C   0  0  0  0  0  0  0  0  0  0  0  0
  -28.3411  -11.8892   19.3332 C   0  0  0  0  0  0  0  0  0  0  0  0
  -30.5569  -13.0389   19.7578 C   0  0  0  0  0  0  0  0  0  0  0  0
  -28.5080  -13.9658   20.7639 C   0  0  0  0  0  0  0  0  0  0  0  0
  -30.3702  -22.7221   22.3394 C   0  0  0  0  0  0  0  0  0  0  0  0
  -25.6150  -32.4070   22.2509 C   0  0  1  0  0  0  0  0  0  0  0  0
  -25.5779  -29.4537   19.8614 C   0  0  1  0  0  0  0  0  0  0  0  0
  -27.6210  -13.1731   19.7900 C   0  0  2  0  0  0  0  0  0  0  0  0
  -31.2438  -23.7341   23.0466 C   0  0  2  0  0  0  0  0  0  0  0  0
  -27.5782  -18.5658   20.9929 C   0  0  0  0  0  0  0  0  0  0  0  0
  -21.9329  -23.2916   16.9039 C   0  0  0  0  0  0  0  0  0  0  0  0
  -21.6953  -27.8025   21.7481 C   0  0  0  0  0  0  0  0  0  0  0  0
  -20.8438  -25.6629   20.7656 C   0  0  0  0  0  0  0  0  0  0  0  0
  -20.6048  -27.7978   19.4975 C   0  0  0  0  0  0  0  0  0  0  0  0
  -25.5355  -24.3283   16.2537 C   0  0  0  0  0  0  0  0  0  0  0  0
  -30.9639  -25.1664   22.6331 C   0  0  0  0  0  0  0  0  0  1  0  0
  -22.8894  -26.7383   19.7214 C   0  0  1  0  0  0  0  0  0  0  0  0
  -23.1179  -24.2444   16.8757 C   0  0  2  0  0  0  0  0  0  0  0  0
  -21.5359  -27.0035   20.4392 C   0  0  0  0  0  0  0  0  0  0  0  0
  -26.0725  -11.7156   21.0387 N   0  0  0  0  0  0  0  0  0  0  0  0
  -26.2558  -12.8725   20.3799 N   0  0  0  0  0  0  0  0  0  0  0  0
  -31.2780  -21.6408   22.0668 N   0  0  0  0  0  0  0  0  0  0  0  0
  -24.8984  -28.1613   19.9719 N   0  0  0  0  0  0  0  0  0  0  0  0
  -29.8134  -14.2404   20.1432 N   0  0  0  0  0  0  0  0  0  0  0  0
  -25.1518  -14.8556   19.7020 N   0  0  0  0  0  0  0  0  0  0  0  0
  -21.9372  -12.5751   21.9069 N   0  0  0  0  0  0  0  0  0  0  0  0
  -29.5636  -16.5813   20.2856 N   0  0  0  0  0  0  0  0  0  0  0  0
  -25.7924  -31.4983   21.1386 N   0  0  0  0  0  0  0  0  0  0  0  0
  -22.7661  -26.0069   18.4651 N   0  0  0  0  0  0  0  0  0  0  0  0
  -24.3031  -23.5051   16.3564 N   0  3  0  0  0  0  0  0  0  0  0  0
  -33.6376  -21.4936   21.9886 O   0  0  0  0  0  0  0  0  0  0  0  0
  -22.3909  -14.4991   20.7446 O   0  0  0  0  0  0  0  0  0  0  0  0
  -24.6099  -29.6877   22.0023 O   0  0  0  0  0  0  0  0  0  0  0  0
  -23.1009  -28.8461   18.6542 O   0  0  0  0  0  0  0  0  0  0  0  0
  -24.1311  -24.2322   19.0690 O   0  0  0  0  0  0  0  0  0  0  0  0
  -31.4846  -15.6451   19.3828 O   0  0  0  0  0  0  0  0  0  0  0  0
  -32.5831  -23.3783   22.6768 O   0  0  0  0  0  0  0  0  0  0  0  0
  -22.5045   -7.5856   24.3191 O   0  0  0  0  0  0  0  0  0  0  0  0
  -29.6020  -25.4768   22.9253 O   0  0  0  0  0  0  0  0  0  1  0  0
  -17.5075   -5.8293   22.7864 F   0  0  0  0  0  0  0  0  0  0  0  0
  -22.1038   -4.9694   23.5207 F   0  0  0  0  0  0  0  0  0  0  0  0
  1  2  1  0  0  0  0
  1  5  2  0  0  0  0
  2  6  2  0  0  0  0
  3 10  2  0  0  0  0
  3 18  1  0  0  0  0
  4 11  1  0  0  0  0
  4 18  2  0  0  0  0
  5 20  1  0  0  0  0
  6 22  1  0  0  0  0
  7 12  2  0  0  0  0
  7 21  1  0  0  0  0
  8  9  2  0  0  0  0
  8 25  1  0  0  0  0
  9 26  1  0  0  0  0
 10 27  1  0  0  0  0
 11 27  2  0  0  0  0
 12 28  1  0  0  0  0
 13 14  2  0  0  0  0
 13 29  1  0  0  0  0
 14 30  1  0  0  0  0
 15 23  1  0  0  0  0
 15 28  2  0  0  0  0
 16 24  1  0  0  0  0
 16 25  2  0  0  0  0
 17 30  2  0  0  0  0
 17 31  1  0  0  0  0
 18 32  1  0  0  0  0
 19 32  1  0  0  0  0
 19 33  2  0  0  0  0
 19 35  1  0  0  0  0
 20 22  2  0  0  0  0
 20 40  1  0  0  0  0
 21 23  2  0  0  0  0
 21 41  1  0  0  0  0
 22 50  1  0  0  0  0
 23 42  1  0  0  0  0
 24 26  2  0  0  0  0
 24 54  1  0  0  0  0
 25 66  1  0  0  0  0
 26 71  1  0  0  0  0
 27 82  1  0  0  0  0
 28 83  1  0  0  0  0
 29 31  2  0  0  0  0
 29 82  1  0  0  0  0
 30 84  1  0  0  0  0
 31 85  1  0  0  0  0
 32 64  2  0  0  0  0
 33 65  1  0  0  0  0
 33 69  1  0  0  0  0
 34 66  1  0  0  0  0
 34 75  2  0  0  0  0
 34 81  1  0  0  0  0
 35 70  1  0  0  0  0
 35 76  2  0  0  0  0
 36 51  1  0  0  0  0
 36 72  1  0  0  0  0
 36 77  2  0  0  0  0
 37 61  1  0  0  0  0
 37 67  1  0  0  0  0
 37 78  2  0  0  0  0
 38 62  1  0  0  0  0
 38 73  1  0  0  0  0
 38 79  2  0  0  0  0
 39 68  1  0  0  0  0
 39 71  1  0  0  0  0
 39 80  2  0  0  0  0
 40 43  1  0  0  0  0
 41 51  1  0  0  0  0
 42 67  1  0  0  0  0
 43 45  1  0  0  0  0
 44 46  1  0  0  0  0
 44 47  1  0  0  0  0
 45 50  1  0  0  0  0
 46 52  1  0  0  0  0
 47 68  1  0  0  0  0
 48 52  1  0  0  0  0
 48 68  1  0  0  0  0
 49 53  1  0  0  0  0
 49 66  1  0  0  0  0
 50 72  1  0  0  0  0
 51 67  1  0  0  0  0
 52 65  1  0  0  0  0
 53 60  1  0  0  0  0
 53 81  1  0  0  0  0
 55 62  1  0  0  0  0
 56 63  1  0  0  0  0
 57 63  1  0  0  0  0
 58 63  1  0  0  0  0
 59 74  1  0  0  0  0
 60 83  1  0  0  0  0
 61 63  1  0  0  0  0
 61 73  1  0  0  0  0
 62 74  1  0  0  0  0
 64 65  1  0  0  0  0
M  CHG  1  74   1
M  ISO  4  39 100  60 101  71 100  83 101
M  END
> <Batch ID>
0068

> <Smiles>
CNC(C)C(=O)NC(C(=O)N1Cc2cc([101O:1][101CH2:1]C3CN(c4ccc([100NH:0][100C:0](=O)N5CCCC(n6nc(-c7ccc(Oc8ccc(F)cc8F)cc7)c(C(N)=O)c6N)C5)c(C)c4)C(=O)O3)ccc2CC1C(=O)NC1CCCc2ccccc21)C(C)(C)C

> <Shape>
0.265

> <Color>
0.138

> <Negative vol penalty>
0.000

$$$$

  -OEChem-04042323273D

 88 96  0     1  0  0  0  0  0999 V2000
  -20.7216  -11.8688    4.0090 C   0  0  0  0  0  0  0  0  0  0  0  0
  -21.1198  -12.8430    4.9188 C   0  0  0  0  0  0  0  0  0  0  0  0
  -23.1913   -9.8160   19.9297 C   0  0  0  0  0  0  0  0  0  0  0  0
  -23.5501  -10.0007   22.3117 C   0  0  0  0  0  0  0  0  0  0  0  0
  -19.3752  -11.7425    3.6693 C   0  0  0  0  0  0  0  0  0  0  0  0
  -20.1720  -13.6923    5.4886 C   0  0  0  0  0  0  0  0  0  0  0  0
  -20.8252  -14.2634   10.4778 C   0  0  0  0  0  0  0  0  0  0  0  0
  -22.4212   -8.6712   20.1344 C   0  0  0  0  0  0  0  0  0  0  0  0
  -22.7799   -8.8559   22.5165 C   0  0  0  0  0  0  0  0  0  0  0  0
  -21.8380  -15.1271   10.8926 C   0  0  0  0  0  0  0  0  0  0  0  0
  -21.2073   -5.7774   23.6388 C   0  0  0  0  0  0  0  0  0  0  0  0
  -21.6945   -4.8185   24.5269 C   0  0  0  0  0  0  0  0  0  0  0  0
  -20.1981  -16.8525   11.2838 C   0  0  0  0  0  0  0  0  0  0  0  0
  -26.0352  -18.9509   15.3011 C   0  0  0  0  0  0  0  0  0  0  0  0
  -23.6642   -4.5479   23.1542 C   0  0  0  0  0  0  0  0  0  0  0  0
  -23.7558  -10.4807   21.0183 C   0  0  0  0  0  0  0  0  0  0  0  0
  -28.2273  -17.5219   16.2684 C   0  0  0  0  0  0  0  0  0  0  0  0
  -24.1013  -12.9962   20.7721 C   0  0  0  0  0  0  0  0  0  0  0  0
  -18.4092  -12.5844    4.2426 C   0  0  0  0  0  0  0  0  0  0  0  0
  -19.4903  -14.6920   10.4525 C   0  0  0  0  0  0  0  0  0  0  0  0
  -18.8117  -13.5781    5.1553 C   0  0  0  0  0  0  0  0  0  0  0  0
  -19.1699  -15.9914   10.8707 C   0  0  0  0  0  0  0  0  0  0  0  0
  -26.8814  -19.5283   16.2477 C   0  0  0  0  0  0  0  0  0  0  0  0
  -27.9774  -18.8138   16.7314 C   0  0  0  0  0  0  0  0  0  0  0  0
  -26.2850  -17.6590   14.8381 C   0  0  0  0  0  0  0  0  0  0  0  0
  -22.2154   -8.1912   21.4278 C   0  0  0  0  0  0  0  0  0  0  0  0
  -21.5249  -16.4228   11.2930 C   0  0  0  0  0  0  0  0  0  0  0  0
  -21.9485   -6.1215   22.5083 C   0  0  0  0  0  0  0  0  0  0  0  0
  -22.9229   -4.2038   24.2846 C   0  0  0  0  0  0  0  0  0  0  0  0
  -23.1769   -5.5068   22.2661 C   0  0  0  0  0  0  0  0  0  0  0  0
  -27.3810  -16.9445   15.3217 C   0  0  0  0  0  0  0  0  0  0  0  0
  -24.5520  -11.6630   20.8074 C   0  0  0  0  0  0  0  0  0  0  0  0
  -25.2358  -13.7362   20.5447 C   0  0  0  0  0  0  0  0  0  0  0  0
  -29.3881  -16.7412   16.7682 C   0  0  0  0  0  0  0  0  0  0  0  0
  -22.7757  -13.5189   20.9308 C   0  0  0  0  0  0  0  0  0  0  0  0
  -17.2919  -15.0498    8.1847 C   0  0  0  0  0  0  0  0  0  0  0  0
  -15.3594  -15.7067   10.7059 C   0  0  0  0  0  0  0  0  0  0  0  0
  -24.2969  -17.6451   13.2949 C   0  0  0  0  0  0  0  0  0  0  0  0
  -15.0716  -16.7715   13.9354 C   0  0  0  0  0  0  0  0  0  0  0  0
  -30.0214  -14.6342   17.9010 C   0  0  0  0  0  0  0  0  0  0  0  0
  -16.9719  -12.4411    3.8087 C   0  0  0  0  0  0  0  0  0  0  0  0
  -18.4064  -13.7395   10.0278 C   0  0  0  0  0  0  0  0  0  0  0  0
  -17.7501  -16.4937   10.8813 C   0  0  0  0  0  0  0  0  0  0  0  0
  -15.9821  -13.1346    4.7412 C   0  0  0  0  0  0  0  0  0  0  0  0
  -30.1196  -12.3967   20.6361 C   0  0  0  0  0  0  0  0  0  0  0  0
  -16.4639  -14.5416    5.0801 C   0  0  0  0  0  0  0  0  0  0  0  0
  -28.6425  -12.1200   20.9294 C   0  0  0  0  0  0  0  0  0  0  0  0
  -30.3875  -12.5164   19.1364 C   0  0  0  0  0  0  0  0  0  0  0  0
  -28.0584  -13.1931   18.7178 C   0  0  0  0  0  0  0  0  0  0  0  0
  -17.8101  -14.5020    5.8136 C   0  0  1  0  0  0  0  0  0  0  0  0
  -17.1412  -14.4475    9.5529 C   0  0  1  0  0  0  0  0  0  0  0  0
  -27.7248  -13.1339   20.2173 C   0  0  1  0  0  0  0  0  0  0  0  0
  -28.8825  -19.4375   17.7466 C   0  0  0  0  0  0  0  0  0  0  0  0
  -13.3603  -17.2397   15.7101 C   0  0  0  0  0  0  0  0  0  0  0  0
  -14.6087  -18.3049    9.2932 C   0  0  0  0  0  0  0  0  0  0  0  0
  -13.6882  -19.1393   11.4668 C   0  0  0  0  0  0  0  0  0  0  0  0
  -12.6959  -17.1216   10.3865 C   0  0  0  0  0  0  0  0  0  0  0  0
  -16.2228  -14.7335   15.7466 C   0  0  0  0  0  0  0  0  0  0  0  0
  -25.7448  -22.1478   18.5381 C   0  0  0  0  0  0  0  0  0  0  0  0
  -26.5908  -20.9129   16.7265 C   0  0  0  0  0  0  0  0  0  0  0  0
  -23.6579  -16.6813   12.3124 C   0  0  0  0  0  0  0  0  0  1  0  0
  -14.9774  -16.9554   11.4632 C   0  0  1  0  0  0  0  0  0  0  0  0
  -14.3058  -16.2062   15.1180 C   0  0  2  0  0  0  0  0  0  0  0  0
  -14.0196  -17.8718   10.6505 C   0  0  0  0  0  0  0  0  0  0  0  0
  -25.8700  -11.5590   20.6175 N   0  0  0  0  0  0  0  0  0  0  0  0
  -26.2572  -12.8364   20.4606 N   0  0  0  0  0  0  0  0  0  0  0  0
  -16.7264  -15.5269   10.4513 N   0  0  0  0  0  0  0  0  0  0  0  0
  -29.4850  -13.5022   18.5390 N   0  0  0  0  0  0  0  0  0  0  0  0
  -25.4493  -15.0624   20.4105 N   0  0  0  0  0  0  0  0  0  0  0  0
  -21.7254  -12.6191   21.1580 N   0  0  0  0  0  0  0  0  0  0  0  0
  -25.4243  -17.0764   13.8777 N   0  0  0  0  0  0  0  0  0  0  0  0
  -29.0768  -15.5371   17.4004 N   0  0  0  0  0  0  0  0  0  0  0  0
  -17.6192  -14.1365    7.2008 N   0  0  0  0  0  0  0  0  0  0  0  0
  -14.4346  -16.5077   12.7413 N   0  0  0  0  0  0  0  0  0  0  0  0
  -15.2498  -15.7673   16.1844 N   0  3  0  0  0  0  0  0  0  0  0  0
  -30.5236  -17.1641   16.5690 O   0  0  0  0  0  0  0  0  0  0  0  0
  -22.5273  -14.7463   20.8564 O   0  0  0  0  0  0  0  0  0  0  0  0
  -17.1223  -16.2539    8.0326 O   0  0  0  0  0  0  0  0  0  0  0  0
  -14.4781  -14.9162   10.3593 O   0  0  0  0  0  0  0  0  0  0  0  0
  -23.8281  -18.7602   13.4983 O   0  0  0  0  0  0  0  0  0  0  0  0
  -16.1271  -17.3888   14.0590 O   0  0  0  0  0  0  0  0  0  0  0  0
  -31.2359  -14.8426   17.8176 O   0  0  0  0  0  0  0  0  0  0  0  0
  -21.4638   -7.0742   21.6280 O   0  0  0  0  0  0  0  0  0  0  0  0
  -22.5115  -17.2681   11.6977 O   0  0  0  0  0  0  0  0  0  1  0  0
  -26.0399  -20.8518   18.0356 O   0  0  0  0  0  0  0  0  0  0  0  0
  -23.3914   -3.2841   25.1384 F   0  0  0  0  0  0  0  0  0  0  0  0
  -23.8941   -5.8341   21.1824 F   0  0  0  0  0  0  0  0  0  0  0  0
  -27.6207  -15.7019   14.8751 F   0  0  0  0  0  0  0  0  0  0  0  0
  1  2  1  0  0  0  0
  1  5  2  0  0  0  0
  2  6  2  0  0  0  0
  3  8  2  0  0  0  0
  3 16  1  0  0  0  0
  4  9  1  0  0  0  0
  4 16  2  0  0  0  0
  5 19  1  0  0  0  0
  6 21  1  0  0  0  0
  7 10  2  0  0  0  0
  7 20  1  0  0  0  0
  8 26  1  0  0  0  0
  9 26  2  0  0  0  0
 10 27  1  0  0  0  0
 11 12  2  0  0  0  0
 11 28  1  0  0  0  0
 12 29  1  0  0  0  0
 13 22  1  0  0  0  0
 13 27  2  0  0  0  0
 14 23  2  0  0  0  0
 14 25  1  0  0  0  0
 15 29  2  0  0  0  0
 15 30  1  0  0  0  0
 16 32  1  0  0  0  0
 17 24  2  0  0  0  0
 17 31  1  0  0  0  0
 17 34  1  0  0  0  0
 18 32  1  0  0  0  0
 18 33  2  0  0  0  0
 18 35  1  0  0  0  0
 19 21  2  0  0  0  0
 19 41  1  0  0  0  0
 20 22  2  0  0  0  0
 20 42  1  0  0  0  0
 21 50  1  0  0  0  0
 22 43  1  0  0  0  0
 23 24  1  0  0  0  0
 23 60  1  0  0  0  0
 24 53  1  0  0  0  0
 25 31  2  0  0  0  0
 25 71  1  0  0  0  0
 26 83  1  0  0  0  0
 27 84  1  0  0  0  0
 28 30  2  0  0  0  0
 28 83  1  0  0  0  0
 29 86  1  0  0  0  0
 30 87  1  0  0  0  0
 31 88  1  0  0  0  0
 32 65  2  0  0  0  0
 33 66  1  0  0  0  0
 33 69  1  0  0  0  0
 34 72  1  0  0  0  0
 34 76  2  0  0  0  0
 35 70  1  0  0  0  0
 35 77  2  0  0  0  0
 36 51  1  0  0  0  0
 36 73  1  0  0  0  0
 36 78  2  0  0  0  0
 37 62  1  0  0  0  0
 37 67  1  0  0  0  0
 37 79  2  0  0  0  0
 38 61  1  0  0  0  0
 38 71  1  0  0  0  0
 38 80  2  0  0  0  0
 39 63  1  0  0  0  0
 39 74  1  0  0  0  0
 39 81  2  0  0  0  0
 40 68  1  0  0  0  0
 40 72  1  0  0  0  0
 40 82  2  0  0  0  0
 41 44  1  0  0  0  0
 42 51  1  0  0  0  0
 43 67  1  0  0  0  0
 44 46  1  0  0  0  0
 45 47  1  0  0  0  0
 45 48  1  0  0  0  0
 46 50  1  0  0  0  0
 47 52  1  0  0  0  0
 48 68  1  0  0  0  0
 49 52  1  0  0  0  0
 49 68  1  0  0  0  0
 50 73  1  0  0  0  0
 51 67  1  0  0  0  0
 52 66  1  0  0  0  0
 54 63  1  0  0  0  0
 55 64  1  0  0  0  0
 56 64  1  0  0  0  0
 57 64  1  0  0  0  0
 58 75  1  0  0  0  0
 59 85  1  0  0  0  0
 60 85  1  0  0  0  0
 61 84  1  0  0  0  0
 62 64  1  0  0  0  0
 62 74  1  0  0  0  0
 63 75  1  0  0  0  0
 65 66  1  0  0  0  0
M  CHG  1  75   1
M  ISO  4  40 100  61 101  72 100  84 101
M  END
> <Batch ID>
0068

> <Smiles>
CNC(C)C(=O)NC(C(=O)N1Cc2cc([101O:1][101CH2:1]C(=O)Nc3cc(COC)c(C)c(C(=O)[100NH:0][100C:0](=O)N4CCCC(n5nc(-c6ccc(Oc7ccc(F)cc7F)cc6)c(C(N)=O)c5N)C4)c3F)ccc2CC1C(=O)NC1CCCc2ccccc21)C(C)(C)C

> <Shape>
0.141

> <Color>
0.175

> <Negative vol penalty>
0.000

$$$$

  -OEChem-04042323273D

 85 93  0     1  0  0  0  0  0999 V2000
  -19.0456  -24.3604   23.2842 C   0  0  0  0  0  0  0  0  0  0  0  0
  -20.3606  -24.4727   22.8443 C   0  0  0  0  0  0  0  0  0  0  0  0
  -23.9383   -9.3375   21.7562 C   0  0  0  0  0  0  0  0  0  0  0  0
  -24.1286  -11.0398   23.4601 C   0  0  0  0  0  0  0  0  0  0  0  0
  -18.2231  -25.4858   23.3141 C   0  0  0  0  0  0  0  0  0  0  0  0
  -20.8536  -25.7104   22.4328 C   0  0  0  0  0  0  0  0  0  0  0  0
  -25.4645  -26.6793   24.2891 C   0  0  0  0  0  0  0  0  0  0  0  0
  -23.4227   -8.4499   22.7006 C   0  0  0  0  0  0  0  0  0  0  0  0
  -23.6130  -10.1522   24.4045 C   0  0  0  0  0  0  0  0  0  0  0  0
  -26.5448  -26.0515   23.6705 C   0  0  0  0  0  0  0  0  0  0  0  0
  -20.4614   -7.8845   24.2315 C   0  0  0  0  0  0  0  0  0  0  0  0
  -19.3432   -7.1325   23.8715 C   0  0  0  0  0  0  0  0  0  0  0  0
  -28.1867  -20.2443   19.2400 C   0  0  0  0  0  0  0  0  0  0  0  0
  -27.0153  -28.0779   22.4491 C   0  0  0  0  0  0  0  0  0  0  0  0
  -30.4159  -18.5707   19.3525 C   0  0  0  0  0  0  0  0  0  0  0  0
  -20.5973   -5.0981   24.2259 C   0  0  0  0  0  0  0  0  0  0  0  0
  -24.2913  -10.6325   22.1360 C   0  0  0  0  0  0  0  0  0  0  0  0
  -29.4625  -20.7905   19.3801 C   0  0  0  0  0  0  0  0  0  0  0  0
  -24.1004  -12.4433   20.3493 C   0  0  0  0  0  0  0  0  0  0  0  0
  -18.7093  -26.7399   22.9119 C   0  0  0  0  0  0  0  0  0  0  0  0
  -25.1444  -28.0100   23.9837 C   0  0  0  0  0  0  0  0  0  0  0  0
  -20.0365  -26.8535   22.4560 C   0  0  0  0  0  0  0  0  0  0  0  0
  -25.9321  -28.7211   23.0671 C   0  0  0  0  0  0  0  0  0  0  0  0
  -29.1401  -18.0245   19.2125 C   0  0  0  0  0  0  0  0  0  0  0  0
  -23.2600   -8.8572   24.0247 C   0  0  0  0  0  0  0  0  0  0  0  0
  -27.3186  -26.7498   22.7482 C   0  0  0  0  0  0  0  0  0  0  0  0
  -21.6476   -7.2434   24.5886 C   0  0  0  0  0  0  0  0  0  0  0  0
  -19.4111   -5.7393   23.8688 C   0  0  0  0  0  0  0  0  0  0  0  0
  -28.0255  -18.8613   19.1562 C   0  0  0  0  0  0  0  0  0  0  0  0
  -30.5771  -19.9538   19.4363 C   0  0  0  0  0  0  0  0  0  0  0  0
  -21.7156   -5.8502   24.5858 C   0  0  0  0  0  0  0  0  0  0  0  0
  -24.8246  -11.5497   21.1610 C   0  0  0  0  0  0  0  0  0  0  0  0
  -25.0595  -13.0839   19.6034 C   0  0  0  0  0  0  0  0  0  0  0  0
  -29.6303  -22.2556   19.4687 C   0  0  0  0  0  0  0  0  0  0  0  0
  -22.6872  -12.6738   20.2762 C   0  0  0  0  0  0  0  0  0  0  0  0
  -22.6255  -29.4770   22.7162 C   0  0  0  0  0  0  0  0  0  0  0  0
  -24.2948  -32.1540   23.4706 C   0  0  0  0  0  0  0  0  0  0  0  0
  -29.0637  -24.3230   20.7239 C   0  0  0  0  0  0  0  0  0  0  0  0
  -27.3206  -33.5984   24.1074 C   0  0  0  0  0  0  0  0  0  0  0  0
  -29.9814  -15.6504   19.1668 C   0  0  0  0  0  0  0  0  0  0  0  0
  -17.7686  -27.9188   22.9170 C   0  0  0  0  0  0  0  0  0  0  0  0
  -23.9922  -28.6812   24.6796 C   0  0  0  0  0  0  0  0  0  0  0  0
  -25.6426  -30.1577   22.7197 C   0  0  0  0  0  0  0  0  0  0  0  0
  -18.4798  -29.2659   22.8186 C   0  0  0  0  0  0  0  0  0  0  0  0
  -29.9896  -12.0927   19.0258 C   0  0  0  0  0  0  0  0  0  0  0  0
  -19.5382  -29.2319   21.7207 C   0  0  0  0  0  0  0  0  0  0  0  0
  -28.5870  -11.7078   19.5020 C   0  0  0  0  0  0  0  0  0  0  0  0
  -30.5314  -13.3059   19.7797 C   0  0  0  0  0  0  0  0  0  0  0  0
  -28.2472  -14.0954   20.2577 C   0  0  0  0  0  0  0  0  0  0  0  0
  -20.6153  -28.1837   22.0251 C   0  0  1  0  0  0  0  0  0  0  0  0
  -23.4450  -29.8792   23.9096 C   0  0  1  0  0  0  0  0  0  0  0  0
  -27.6332  -12.9184   19.4823 C   0  0  2  0  0  0  0  0  0  0  0  0
  -28.3712  -35.8106   24.6549 C   0  0  0  0  0  0  0  0  0  0  0  0
  -23.9684  -33.0254   20.5647 C   0  0  0  0  0  0  0  0  0  0  0  0
  -25.7924  -34.7000   20.9349 C   0  0  0  0  0  0  0  0  0  0  0  0
  -23.6738  -34.8566   22.2423 C   0  0  0  0  0  0  0  0  0  0  0  0
  -28.3620  -32.5958   26.6899 C   0  0  0  0  0  0  0  0  0  0  0  0
  -28.2808  -24.7291   21.9440 C   0  0  0  0  0  0  0  0  0  1  0  0
  -25.3191  -33.0095   22.7650 C   0  0  1  0  0  0  0  0  0  0  0  0
  -27.7798  -34.5271   25.2169 C   0  0  2  0  0  0  0  0  0  0  0  0
  -24.6930  -33.8702   21.6316 C   0  0  0  0  0  0  0  0  0  0  0  0
  -26.1420  -11.6138   20.9505 N   0  0  0  0  0  0  0  0  0  0  0  0
  -26.2532  -12.5553   19.9981 N   0  0  0  0  0  0  0  0  0  0  0  0
  -24.5016  -30.7681   23.4219 N   0  0  0  0  0  0  0  0  0  0  0  0
  -29.5768  -14.4146   19.7145 N   0  0  0  0  0  0  0  0  0  0  0  0
  -24.9897  -14.0420   18.6550 N   0  0  0  0  0  0  0  0  0  0  0  0
  -21.8446  -11.9294   21.1130 N   0  0  0  0  0  0  0  0  0  0  0  0
  -28.9793  -16.6193   19.1274 N   0  0  0  0  0  0  0  0  0  0  0  0
  -29.0274  -22.9009   20.4768 N   0  0  0  0  0  0  0  0  0  0  0  0
  -21.5377  -28.6819   23.0229 N   0  0  0  0  0  0  0  0  0  0  0  0
  -25.9886  -33.7850   23.8037 N   0  0  0  0  0  0  0  0  0  0  0  0
  -30.3763  -22.8517   18.5390 N   0  3  0  0  0  0  0  0  0  0  0  0
  -28.8157  -33.8600   26.0552 N   0  3  0  0  0  0  0  0  0  0  0  0
  -22.1851  -13.5033   19.4803 O   0  0  0  0  0  0  0  0  0  0  0  0
  -22.9547  -29.8609   21.6000 O   0  0  0  0  0  0  0  0  0  0  0  0
  -23.3500  -32.6958   24.0498 O   0  0  0  0  0  0  0  0  0  0  0  0
  -29.6787  -25.0886   19.9956 O   0  0  0  0  0  0  0  0  0  0  0  0
  -28.0695  -32.7909   23.5619 O   0  0  0  0  0  0  0  0  0  0  0  0
  -31.1245  -15.8269   18.7377 O   0  0  0  0  0  0  0  0  0  0  0  0
  -22.7567   -7.9914   24.9464 O   0  0  0  0  0  0  0  0  0  0  0  0
  -28.3732  -26.1392   22.1425 O   0  0  0  0  0  0  0  0  0  1  0  0
  -18.3367   -5.0172   23.5246 F   0  0  0  0  0  0  0  0  0  0  0  0
  -26.7944  -18.3472   19.0220 F   0  0  0  0  0  0  0  0  0  0  0  0
  -31.8071  -20.4692   19.5710 F   0  0  0  0  0  0  0  0  0  0  0  0
  -22.8520   -5.2286   24.9291 F   0  0  0  0  0  0  0  0  0  0  0  0
  1  2  1  0  0  0  0
  1  5  2  0  0  0  0
  2  6  2  0  0  0  0
  3  8  2  0  0  0  0
  3 17  1  0  0  0  0
  4  9  1  0  0  0  0
  4 17  2  0  0  0  0
  5 20  1  0  0  0  0
  6 22  1  0  0  0  0
  7 10  2  0  0  0  0
  7 21  1  0  0  0  0
  8 25  1  0  0  0  0
  9 25  2  0  0  0  0
 10 26  1  0  0  0  0
 11 12  2  0  0  0  0
 11 27  1  0  0  0  0
 12 28  1  0  0  0  0
 13 18  1  0  0  0  0
 13 29  2  0  0  0  0
 14 23  1  0  0  0  0
 14 26  2  0  0  0  0
 15 24  2  0  0  0  0
 15 30  1  0  0  0  0
 16 28  2  0  0  0  0
 16 31  1  0  0  0  0
 17 32  1  0  0  0  0
 18 30  2  0  0  0  0
 18 34  1  0  0  0  0
 19 32  1  0  0  0  0
 19 33  2  0  0  0  0
 19 35  1  0  0  0  0
 20 22  2  0  0  0  0
 20 41  1  0  0  0  0
 21 23  2  0  0  0  0
 21 42  1  0  0  0  0
 22 50  1  0  0  0  0
 23 43  1  0  0  0  0
 24 29  1  0  0  0  0
 24 68  1  0  0  0  0
 25 80  1  0  0  0  0
 26 81  1  0  0  0  0
 27 31  2  0  0  0  0
 27 80  1  0  0  0  0
 28 82  1  0  0  0  0
 29 83  1  0  0  0  0
 30 84  1  0  0  0  0
 31 85  1  0  0  0  0
 32 62  2  0  0  0  0
 33 63  1  0  0  0  0
 33 66  1  0  0  0  0
 34 69  1  0  0  0  0
 34 72  2  0  0  0  0
 35 67  1  0  0  0  0
 35 74  2  0  0  0  0
 36 51  1  0  0  0  0
 36 70  1  0  0  0  0
 36 75  2  0  0  0  0
 37 59  1  0  0  0  0
 37 64  1  0  0  0  0
 37 76  2  0  0  0  0
 38 58  1  0  0  0  0
 38 69  1  0  0  0  0
 38 77  2  0  0  0  0
 39 60  1  0  0  0  0
 39 71  1  0  0  0  0
 39 78  2  0  0  0  0
 40 65  1  0  0  0  0
 40 68  1  0  0  0  0
 40 79  2  0  0  0  0
 41 44  1  0  0  0  0
 42 51  1  0  0  0  0
 43 64  1  0  0  0  0
 44 46  1  0  0  0  0
 45 47  1  0  0  0  0
 45 48  1  0  0  0  0
 46 50  1  0  0  0  0
 47 52  1  0  0  0  0
 48 65  1  0  0  0  0
 49 52  1  0  0  0  0
 49 65  1  0  0  0  0
 50 70  1  0  0  0  0
 51 64  1  0  0  0  0
 52 63  1  0  0  0  0
 53 60  1  0  0  0  0
 54 61  1  0  0  0  0
 55 61  1  0  0  0  0
 56 61  1  0  0  0  0
 57 73  1  0  0  0  0
 58 81  1  0  0  0  0
 59 61  1  0  0  0  0
 59 71  1  0  0  0  0
 60 73  1  0  0  0  0
 62 63  1  0  0  0  0
M  CHG  2  72   1  73   1
M  ISO  4  40 100  58 101  68 100  81 101
M  END
> <Batch ID>
0068

> <Smiles>
CNC(C)C(=O)NC(C(=O)N1Cc2cc([101O:1][101CH2:1]C(=O)NC(=N)c3cc(F)c([100NH:0][100C:0](=O)N4CCCC(n5nc(-c6ccc(Oc7ccc(F)cc7F)cc6)c(C(N)=O)c5N)C4)cc3F)ccc2CC1C(=O)NC1CCCc2ccccc21)C(C)(C)C

> <Shape>
0.321

> <Color>
0.113

> <Negative vol penalty>
0.000

$$$$

  -OEChem-04042323273D

 84 92  0     1  0  0  0  0  0999 V2000
  -17.1848  -26.8171   21.7652 C   0  0  0  0  0  0  0  0  0  0  0  0
  -18.4282  -26.2027   21.8741 C   0  0  0  0  0  0  0  0  0  0  0  0
  -23.3767   -9.1685   20.5462 C   0  0  0  0  0  0  0  0  0  0  0  0
  -23.1866  -10.7875   22.3294 C   0  0  0  0  0  0  0  0  0  0  0  0
  -30.8299  -19.4941   20.5932 C   0  0  0  0  0  0  0  0  0  0  0  0
  -17.1007  -28.1547   21.3811 C   0  0  0  0  0  0  0  0  0  0  0  0
  -19.5883  -26.9253   21.5978 C   0  0  0  0  0  0  0  0  0  0  0  0
  -25.0284  -26.3484   24.3506 C   0  0  0  0  0  0  0  0  0  0  0  0
  -30.6398  -18.1261   20.3981 C   0  0  0  0  0  0  0  0  0  0  0  0
  -22.5953   -8.2728   21.2761 C   0  0  0  0  0  0  0  0  0  0  0  0
  -22.4051   -9.8918   23.0592 C   0  0  0  0  0  0  0  0  0  0  0  0
  -26.1926  -25.6690   23.9943 C   0  0  0  0  0  0  0  0  0  0  0  0
  -20.9492   -5.4247   22.8260 C   0  0  0  0  0  0  0  0  0  0  0  0
  -21.3727   -4.0974   22.8929 C   0  0  0  0  0  0  0  0  0  0  0  0
  -27.0865  -27.7042   23.0574 C   0  0  0  0  0  0  0  0  0  0  0  0
  -28.3979  -18.5510   19.6041 C   0  0  0  0  0  0  0  0  0  0  0  0
  -23.4355   -4.8079   23.9307 C   0  0  0  0  0  0  0  0  0  0  0  0
  -23.6725  -10.4258   21.0729 C   0  0  0  0  0  0  0  0  0  0  0  0
  -29.8040  -20.3905   20.2938 C   0  0  0  0  0  0  0  0  0  0  0  0
  -24.0316  -12.3152   19.3969 C   0  0  0  0  0  0  0  0  0  0  0  0
  -18.2609  -28.8968   21.1093 C   0  0  0  0  0  0  0  0  0  0  0  0
  -24.8798  -27.7106   24.0527 C   0  0  0  0  0  0  0  0  0  0  0  0
  -19.5196  -28.2738   21.2083 C   0  0  0  0  0  0  0  0  0  0  0  0
  -25.9205  -28.3992   23.4132 C   0  0  0  0  0  0  0  0  0  0  0  0
  -29.4238  -17.6545   19.9035 C   0  0  0  0  0  0  0  0  0  0  0  0
  -28.5880  -19.9190   19.7992 C   0  0  0  0  0  0  0  0  0  0  0  0
  -22.1095   -8.6345   22.5326 C   0  0  0  0  0  0  0  0  0  0  0  0
  -27.2206  -26.3462   23.3450 C   0  0  0  0  0  0  0  0  0  0  0  0
  -21.7689   -6.4436   23.3114 C   0  0  0  0  0  0  0  0  0  0  0  0
  -22.6158   -3.7889   23.4452 C   0  0  0  0  0  0  0  0  0  0  0  0
  -23.0120   -6.1352   23.8637 C   0  0  0  0  0  0  0  0  0  0  0  0
  -24.4801  -11.3512   20.3196 C   0  0  0  0  0  0  0  0  0  0  0  0
  -25.1784  -12.9321   18.9601 C   0  0  0  0  0  0  0  0  0  0  0  0
  -30.0311  -21.8343   20.5093 C   0  0  0  0  0  0  0  0  0  0  0  0
  -22.6976  -12.6252   18.9725 C   0  0  0  0  0  0  0  0  0  0  0  0
  -22.8713  -29.4107   22.2696 C   0  0  0  0  0  0  0  0  0  0  0  0
  -24.4450  -31.9237   23.5852 C   0  0  0  0  0  0  0  0  0  0  0  0
  -29.2830  -23.8838   21.6971 C   0  0  0  0  0  0  0  0  0  0  0  0
  -27.2819  -33.1134   25.0628 C   0  0  0  0  0  0  0  0  0  0  0  0
  -30.1470  -15.2418   19.9510 C   0  0  0  0  0  0  0  0  0  0  0  0
  -18.1173  -30.3267   20.6516 C   0  0  0  0  0  0  0  0  0  0  0  0
  -23.6288  -28.4353   24.4675 C   0  0  0  0  0  0  0  0  0  0  0  0
  -25.8188  -29.8665   23.0889 C   0  0  0  0  0  0  0  0  0  0  0  0
  -19.4140  -31.1276   20.7397 C   0  0  0  0  0  0  0  0  0  0  0  0
  -30.0418  -11.6976   19.6275 C   0  0  0  0  0  0  0  0  0  0  0  0
  -20.5753  -30.3291   20.1561 C   0  0  0  0  0  0  0  0  0  0  0  0
  -28.5486  -11.3708   19.7028 C   0  0  0  0  0  0  0  0  0  0  0  0
  -30.4184  -12.8479   20.5596 C   0  0  0  0  0  0  0  0  0  0  0  0
  -28.1240  -13.7408   20.4709 C   0  0  0  0  0  0  0  0  0  0  0  0
  -20.8021  -29.0314   20.9410 C   0  0  1  0  0  0  0  0  0  0  0  0
  -23.3745  -29.7014   23.6552 C   0  0  1  0  0  0  0  0  0  0  0  0
  -27.6850  -12.6315   19.5012 C   0  0  2  0  0  0  0  0  0  0  0  0
  -28.2852  -35.2174   25.9922 C   0  0  0  0  0  0  0  0  0  0  0  0
  -24.9400  -32.9370   20.7500 C   0  0  0  0  0  0  0  0  0  0  0  0
  -26.7023  -34.4557   21.6752 C   0  0  0  0  0  0  0  0  0  0  0  0
  -24.3297  -34.7135   22.4011 C   0  0  0  0  0  0  0  0  0  0  0  0
  -27.5522  -31.9301   27.7620 C   0  0  0  0  0  0  0  0  0  0  0  0
  -28.2353  -24.2953   22.6968 C   0  0  0  0  0  0  0  0  0  1  0  0
  -25.6675  -32.7300   23.2186 C   0  0  1  0  0  0  0  0  0  0  0  0
  -27.4915  -33.9588   26.3061 C   0  0  2  0  0  0  0  0  0  0  0  0
  -25.4113  -33.6810   22.0155 C   0  0  0  0  0  0  0  0  0  0  0  0
  -25.8082  -11.3518   20.4614 N   0  0  0  0  0  0  0  0  0  0  0  0
  -26.2042  -12.3237   19.6218 N   0  0  0  0  0  0  0  0  0  0  0  0
  -24.5733  -30.5295   23.5092 N   0  0  0  0  0  0  0  0  0  0  0  0
  -29.5616  -14.0088   20.3084 N   0  0  0  0  0  0  0  0  0  0  0  0
  -27.5386  -20.8119   19.4897 N   0  0  0  0  0  0  0  0  0  0  0  0
  -25.3994  -13.9302   18.0784 N   0  0  0  0  0  0  0  0  0  0  0  0
  -21.6351  -11.8946   19.5216 N   0  0  0  0  0  0  0  0  0  0  0  0
  -29.2317  -16.2648   19.7049 N   0  0  0  0  0  0  0  0  0  0  0  0
  -29.2265  -22.4797   21.3650 N   0  0  0  0  0  0  0  0  0  0  0  0
  -21.4964  -29.3054   22.1809 N   0  0  0  0  0  0  0  0  0  0  0  0
  -26.0888  -33.4101   24.4386 N   0  0  0  0  0  0  0  0  0  0  0  0
  -31.0281  -22.4120   19.8396 N   0  3  0  0  0  0  0  0  0  0  0  0
  -28.2311  -33.1828   27.3415 N   0  3  0  0  0  0  0  0  0  0  0  0
  -22.4565  -13.5124   18.1192 O   0  0  0  0  0  0  0  0  0  0  0  0
  -23.6712  -29.2922   21.3488 O   0  0  0  0  0  0  0  0  0  0  0  0
  -23.4165  -32.5090   23.9332 O   0  0  0  0  0  0  0  0  0  0  0  0
  -30.1115  -24.6316   21.1980 O   0  0  0  0  0  0  0  0  0  0  0  0
  -28.0969  -32.2763   24.6813 O   0  0  0  0  0  0  0  0  0  0  0  0
  -31.3689  -15.3729   19.8426 O   0  0  0  0  0  0  0  0  0  0  0  0
  -21.3467   -7.7608   23.2450 O   0  0  0  0  0  0  0  0  0  0  0  0
  -28.3577  -25.6853   22.9956 O   0  0  0  0  0  0  0  0  0  1  0  0
  -23.0217   -2.5141   23.5108 F   0  0  0  0  0  0  0  0  0  0  0  0
  -23.8034   -7.1097   24.3327 F   0  0  0  0  0  0  0  0  0  0  0  0
  1  2  1  0  0  0  0
  1  6  2  0  0  0  0
  2  7  2  0  0  0  0
  3 10  2  0  0  0  0
  3 18  1  0  0  0  0
  4 11  1  0  0  0  0
  4 18  2  0  0  0  0
  5  9  2  0  0  0  0
  5 19  1  0  0  0  0
  6 21  1  0  0  0  0
  7 23  1  0  0  0  0
  8 12  2  0  0  0  0
  8 22  1  0  0  0  0
  9 25  1  0  0  0  0
 10 27  1  0  0  0  0
 11 27  2  0  0  0  0
 12 28  1  0  0  0  0
 13 14  2  0  0  0  0
 13 29  1  0  0  0  0
 14 30  1  0  0  0  0
 15 24  1  0  0  0  0
 15 28  2  0  0  0  0
 16 25  2  0  0  0  0
 16 26  1  0  0  0  0
 17 30  2  0  0  0  0
 17 31  1  0  0  0  0
 18 32  1  0  0  0  0
 19 26  2  0  0  0  0
 19 34  1  0  0  0  0
 20 32  1  0  0  0  0
 20 33  2  0  0  0  0
 20 35  1  0  0  0  0
 21 23  2  0  0  0  0
 21 41  1  0  0  0  0
 22 24  2  0  0  0  0
 22 42  1  0  0  0  0
 23 50  1  0  0  0  0
 24 43  1  0  0  0  0
 25 69  1  0  0  0  0
 26 66  1  0  0  0  0
 27 81  1  0  0  0  0
 28 82  1  0  0  0  0
 29 31  2  0  0  0  0
 29 81  1  0  0  0  0
 30 83  1  0  0  0  0
 31 84  1  0  0  0  0
 32 62  2  0  0  0  0
 33 63  1  0  0  0  0
 33 67  1  0  0  0  0
 34 70  1  0  0  0  0
 34 73  2  0  0  0  0
 35 68  1  0  0  0  0
 35 75  2  0  0  0  0
 36 51  1  0  0  0  0
 36 71  1  0  0  0  0
 36 76  2  0  0  0  0
 37 59  1  0  0  0  0
 37 64  1  0  0  0  0
 37 77  2  0  0  0  0
 38 58  1  0  0  0  0
 38 70  1  0  0  0  0
 38 78  2  0  0  0  0
 39 60  1  0  0  0  0
 39 72  1  0  0  0  0
 39 79  2  0  0  0  0
 40 65  1  0  0  0  0
 40 69  1  0  0  0  0
 40 80  2  0  0  0  0
 41 44  1  0  0  0  0
 42 51  1  0  0  0  0
 43 64  1  0  0  0  0
 44 46  1  0  0  0  0
 45 47  1  0  0  0  0
 45 48  1  0  0  0  0
 46 50  1  0  0  0  0
 47 52  1  0  0  0  0
 48 65  1  0  0  0  0
 49 52  1  0  0  0  0
 49 65  1  0  0  0  0
 50 71  1  0  0  0  0
 51 64  1  0  0  0  0
 52 63  1  0  0  0  0
 53 60  1  0  0  0  0
 54 61  1  0  0  0  0
 55 61  1  0  0  0  0
 56 61  1  0  0  0  0
 57 74  1  0  0  0  0
 58 82  1  0  0  0  0
 59 61  1  0  0  0  0
 59 72  1  0  0  0  0
 60 74  1  0  0  0  0
 62 63  1  0  0  0  0
M  CHG  2  73   1  74   1
M  ISO  4  40 100  58 101  69 100  82 101
M  END
> <Batch ID>
0068

> <Smiles>
CNC(C)C(=O)NC(C(=O)N1Cc2cc([101O:1][101CH2:1]C(=O)NC(=N)c3ccc([100NH:0][100C:0](=O)N4CCCC(n5nc(-c6ccc(Oc7ccc(F)cc7F)cc6)c(C(N)=O)c5N)C4)cc3N)ccc2CC1C(=O)NC1CCCc2ccccc21)C(C)(C)C

> <Shape>
0.314

> <Color>
0.120

> <Negative vol penalty>
0.000

$$$$

  -OEChem-04042323273D

 83 91  0     1  0  0  0  0  0999 V2000
  -18.4675  -31.6214   22.9236 C   0  0  0  0  0  0  0  0  0  0  0  0
  -19.8558  -31.5414   22.8813 C   0  0  0  0  0  0  0  0  0  0  0  0
  -28.0184  -12.7004   22.4147 C   0  0  0  0  0  0  0  0  0  0  0  0
  -26.8059  -12.9691   20.3424 C   0  0  0  0  0  0  0  0  0  0  0  0
  -17.7008  -30.4595   22.8469 C   0  0  0  0  0  0  0  0  0  0  0  0
  -20.4781  -30.2991   22.7634 C   0  0  0  0  0  0  0  0  0  0  0  0
  -25.6579  -29.0481   19.7450 C   0  0  0  0  0  0  0  0  0  0  0  0
  -27.4924  -11.4163   22.5560 C   0  0  0  0  0  0  0  0  0  0  0  0
  -26.2799  -11.6850   20.4836 C   0  0  0  0  0  0  0  0  0  0  0  0
  -26.9776  -28.8979   20.1688 C   0  0  0  0  0  0  0  0  0  0  0  0
  -23.8200  -10.1807   22.2491 C   0  0  0  0  0  0  0  0  0  0  0  0
  -22.4571  -10.0084   22.0073 C   0  0  0  0  0  0  0  0  0  0  0  0
  -26.6690  -26.5073   20.2627 C   0  0  0  0  0  0  0  0  0  0  0  0
  -29.0662  -23.5314   19.4922 C   0  0  0  0  0  0  0  0  0  0  0  0
  -30.7036  -24.1242   17.8176 C   0  0  0  0  0  0  0  0  0  0  0  0
  -29.5256  -22.0204   17.6639 C   0  0  0  0  0  0  0  0  0  0  0  0
  -22.9685   -8.4426   20.2399 C   0  0  0  0  0  0  0  0  0  0  0  0
  -27.6751  -13.4768   21.3079 C   0  0  0  0  0  0  0  0  0  0  0  0
  -29.4116  -15.1668   20.5101 C   0  0  0  0  0  0  0  0  0  0  0  0
  -18.3138  -29.2032   22.7183 C   0  0  0  0  0  0  0  0  0  0  0  0
  -24.8292  -27.9280   19.5871 C   0  0  0  0  0  0  0  0  0  0  0  0
  -19.7189  -29.1192   22.6863 C   0  0  0  0  0  0  0  0  0  0  0  0
  -25.3400  -26.6457   19.8343 C   0  0  0  0  0  0  0  0  0  0  0  0
  -30.0047  -24.4302   18.9853 C   0  0  0  0  0  0  0  0  0  0  0  0
  -28.8267  -22.3265   18.8315 C   0  0  0  0  0  0  0  0  0  0  0  0
  -26.6232  -10.9086   21.5904 C   0  0  0  0  0  0  0  0  0  0  0  0
  -27.4825  -27.6276   20.4305 C   0  0  0  0  0  0  0  0  0  0  0  0
  -24.7572   -9.4840   21.4861 C   0  0  0  0  0  0  0  0  0  0  0  0
  -22.0313   -9.1394   21.0028 C   0  0  0  0  0  0  0  0  0  0  0  0
  -30.4641  -22.9192   17.1569 C   0  0  0  0  0  0  0  0  0  0  0  0
  -24.3314   -8.6149   20.4816 C   0  0  0  0  0  0  0  0  0  0  0  0
  -28.2177  -14.8036   21.1618 C   0  0  0  0  0  0  0  0  0  0  0  0
  -29.4766  -16.5318   20.6481 C   0  0  0  0  0  0  0  0  0  0  0  0
  -30.3756  -14.3438   19.8399 C   0  0  0  0  0  0  0  0  0  0  0  0
  -22.1214  -26.9347   20.9231 C   0  0  0  0  0  0  0  0  0  0  0  0
  -22.3192  -24.6086   18.6709 C   0  0  0  0  0  0  0  0  0  0  0  0
  -31.1423  -26.6564   19.2921 C   0  0  0  0  0  0  0  0  0  0  0  0
  -24.2797  -22.7782   16.5607 C   0  0  0  0  0  0  0  0  0  0  0  0
  -27.0943  -21.5620   20.4931 C   0  0  0  0  0  0  0  0  0  0  0  0
  -17.4445  -27.9711   22.6867 C   0  0  0  0  0  0  0  0  0  0  0  0
  -23.4160  -28.1048   19.1035 C   0  0  0  0  0  0  0  0  0  0  0  0
  -24.4975  -25.4094   19.6605 C   0  0  0  0  0  0  0  0  0  0  0  0
  -18.1713  -26.7256   22.1859 C   0  0  0  0  0  0  0  0  0  0  0  0
  -26.7329  -19.6886   23.4992 C   0  0  0  0  0  0  0  0  0  0  0  0
  -19.5321  -26.5933   22.8624 C   0  0  0  0  0  0  0  0  0  0  0  0
  -27.1852  -18.2806   23.1054 C   0  0  0  0  0  0  0  0  0  0  0  0
  -25.9724  -20.3773   22.3673 C   0  0  0  0  0  0  0  0  0  0  0  0
  -27.1242  -18.9972   20.6827 C   0  0  0  0  0  0  0  0  0  0  0  0
  -20.4302  -27.7921   22.5341 C   0  0  1  0  0  0  0  0  0  0  0  0
  -22.5079  -26.9353   19.4711 C   0  0  1  0  0  0  0  0  0  0  0  0
  -27.9508  -18.2880   21.7678 C   0  0  2  0  0  0  0  0  0  0  0  0
  -24.1618  -20.9250   14.8728 C   0  0  0  0  0  0  0  0  0  0  0  0
  -22.0432  -22.5738   20.9278 C   0  0  0  0  0  0  0  0  0  0  0  0
  -22.8726  -20.8156   19.3502 C   0  0  0  0  0  0  0  0  0  0  0  0
  -20.7451  -22.0232   18.8623 C   0  0  0  0  0  0  0  0  0  0  0  0
  -25.2922  -24.5269   14.3982 C   0  0  0  0  0  0  0  0  0  0  0  0
  -31.0897  -27.8054   20.2925 C   0  0  0  0  0  0  0  0  0  0  0  0
  -29.7145  -28.4478   20.3930 C   0  0  0  0  0  0  0  0  0  1  0  0
  -22.9474  -23.2376   18.6023 C   0  0  1  0  0  0  0  0  0  0  0  0
  -24.1260  -22.4296   15.0912 C   0  0  2  0  0  0  0  0  0  0  0  0
  -22.1676  -22.1858   19.4409 C   0  0  0  0  0  0  0  0  0  0  0  0
  -27.5710  -15.8532   21.6757 N   0  0  0  0  0  0  0  0  0  0  0  0
  -28.3613  -16.8893   21.3471 N   0  0  0  0  0  0  0  0  0  0  0  0
  -23.1201  -25.6348   19.1917 N   0  0  0  0  0  0  0  0  0  0  0  0
  -26.7605  -20.3498   21.1332 N   0  0  0  0  0  0  0  0  0  0  0  0
  -30.3784  -17.4491   20.2386 N   0  0  0  0  0  0  0  0  0  0  0  0
  -30.1544  -12.9607   19.7908 N   0  0  0  0  0  0  0  0  0  0  0  0
  -30.2483  -25.6527   19.6553 N   0  0  0  0  0  0  0  0  0  0  0  0
  -27.8736  -21.4130   19.3463 N   0  0  0  0  0  0  0  0  0  0  0  0
  -20.9799  -27.6619   21.2017 N   0  0  0  0  0  0  0  0  0  0  0  0
  -23.0573  -22.9094   17.1851 N   0  0  0  0  0  0  0  0  0  0  0  0
  -25.2243  -23.0464   14.2949 N   0  3  0  0  0  0  0  0  0  0  0  0
  -31.4109  -14.8190   19.3148 O   0  0  0  0  0  0  0  0  0  0  0  0
  -22.8072  -26.3188   21.7306 O   0  0  0  0  0  0  0  0  0  0  0  0
  -21.1630  -24.7647   18.2704 O   0  0  0  0  0  0  0  0  0  0  0  0
  -31.8903  -26.6707   18.3202 O   0  0  0  0  0  0  0  0  0  0  0  0
  -25.3747  -22.9165   17.1015 O   0  0  0  0  0  0  0  0  0  0  0  0
  -26.7395  -22.6537   20.9451 O   0  0  0  0  0  0  0  0  0  0  0  0
  -26.1099   -9.6555   21.7278 O   0  0  0  0  0  0  0  0  0  0  0  0
  -28.7701  -27.4782   20.8449 O   0  0  0  0  0  0  0  0  0  1  0  0
  -20.7225   -8.9729   20.7718 F   0  0  0  0  0  0  0  0  0  0  0  0
  -31.1358  -22.6248   16.0360 F   0  0  0  0  0  0  0  0  0  0  0  0
  -25.2270   -7.9419   19.7462 F   0  0  0  0  0  0  0  0  0  0  0  0
  1  2  1  0  0  0  0
  1  5  2  0  0  0  0
  2  6  2  0  0  0  0
  3  8  2  0  0  0  0
  3 18  1  0  0  0  0
  4  9  1  0  0  0  0
  4 18  2  0  0  0  0
  5 20  1  0  0  0  0
  6 22  1  0  0  0  0
  7 10  2  0  0  0  0
  7 21  1  0  0  0  0
  8 26  1  0  0  0  0
  9 26  2  0  0  0  0
 10 27  1  0  0  0  0
 11 12  2  0  0  0  0
 11 28  1  0  0  0  0
 12 29  1  0  0  0  0
 13 23  1  0  0  0  0
 13 27  2  0  0  0  0
 14 24  2  0  0  0  0
 14 25  1  0  0  0  0
 15 24  1  0  0  0  0
 15 30  2  0  0  0  0
 16 25  2  0  0  0  0
 16 30  1  0  0  0  0
 17 29  2  0  0  0  0
 17 31  1  0  0  0  0
 18 32  1  0  0  0  0
 19 32  1  0  0  0  0
 19 33  2  0  0  0  0
 19 34  1  0  0  0  0
 20 22  2  0  0  0  0
 20 40  1  0  0  0  0
 21 23  2  0  0  0  0
 21 41  1  0  0  0  0
 22 49  1  0  0  0  0
 23 42  1  0  0  0  0
 24 68  1  0  0  0  0
 25 69  1  0  0  0  0
 26 79  1  0  0  0  0
 27 80  1  0  0  0  0
 28 31  2  0  0  0  0
 28 79  1  0  0  0  0
 29 81  1  0  0  0  0
 30 82  1  0  0  0  0
 31 83  1  0  0  0  0
 32 62  2  0  0  0  0
 33 63  1  0  0  0  0
 33 66  1  0  0  0  0
 34 67  1  0  0  0  0
 34 73  2  0  0  0  0
 35 50  1  0  0  0  0
 35 70  1  0  0  0  0
 35 74  2  0  0  0  0
 36 59  1  0  0  0  0
 36 64  1  0  0  0  0
 36 75  2  0  0  0  0
 37 57  1  0  0  0  0
 37 68  1  0  0  0  0
 37 76  2  0  0  0  0
 38 60  1  0  0  0  0
 38 71  1  0  0  0  0
 38 77  2  0  0  0  0
 39 65  1  0  0  0  0
 39 69  1  0  0  0  0
 39 78  2  0  0  0  0
 40 43  1  0  0  0  0
 41 50  1  0  0  0  0
 42 64  1  0  0  0  0
 43 45  1  0  0  0  0
 44 46  1  0  0  0  0
 44 47  1  0  0  0  0
 45 49  1  0  0  0  0
 46 51  1  0  0  0  0
 47 65  1  0  0  0  0
 48 51  1  0  0  0  0
 48 65  1  0  0  0  0
 49 70  1  0  0  0  0
 50 64  1  0  0  0  0
 51 63  1  0  0  0  0
 52 60  1  0  0  0  0
 53 61  1  0  0  0  0
 54 61  1  0  0  0  0
 55 61  1  0  0  0  0
 56 72  1  0  0  0  0
 57 58  1  0  0  0  0
 58 80  1  0  0  0  0
 59 61  1  0  0  0  0
 59 71  1  0  0  0  0
 60 72  1  0  0  0  0
 62 63  1  0  0  0  0
M  CHG  1  72   1
M  ISO  4  39 100  58 101  69 100  80 101
M  END
> <Batch ID>
0068

> <Smiles>
CNC(C)C(=O)NC(C(=O)N1Cc2cc([101O:1][101CH2:1]CC(=O)Nc3cc(F)cc([100NH:0][100C:0](=O)N4CCCC(n5nc(-c6ccc(Oc7ccc(F)cc7F)cc6)c(C(N)=O)c5N)C4)c3)ccc2CC1C(=O)NC1CCCc2ccccc21)C(C)(C)C

> <Shape>
0.268

> <Color>
0.082

> <Negative vol penalty>
0.000

$$$$

  -OEChem-04042323273D

 84 92  0     1  0  0  0  0  0999 V2000
  -20.6658  -22.8889   22.1960 C   0  0  0  0  0  0  0  0  0  0  0  0
  -22.0083  -22.6720   21.9027 C   0  0  0  0  0  0  0  0  0  0  0  0
  -30.7138  -22.7202   23.8195 C   0  0  0  0  0  0  0  0  0  0  0  0
  -21.9178  -28.2994   21.0557 C   0  0  0  0  0  0  0  0  0  0  0  0
  -23.2594  -27.9750   23.0386 C   0  0  0  0  0  0  0  0  0  0  0  0
  -19.9276  -21.9019   22.8478 C   0  0  0  0  0  0  0  0  0  0  0  0
  -22.6137  -21.4683   22.2619 C   0  0  0  0  0  0  0  0  0  0  0  0
  -26.9841  -18.4823   19.1816 C   0  0  0  0  0  0  0  0  0  0  0  0
  -31.0957  -21.4294   23.4540 C   0  0  0  0  0  0  0  0  0  0  0  0
  -30.0819  -23.5493   22.8927 C   0  0  0  0  0  0  0  0  0  0  0  0
  -20.7588  -28.2312   21.8287 C   0  0  0  0  0  0  0  0  0  0  0  0
  -22.1004  -27.9069   23.8117 C   0  0  0  0  0  0  0  0  0  0  0  0
  -28.3689  -18.4283   19.3338 C   0  0  0  0  0  0  0  0  0  0  0  0
  -19.0146  -30.2684   23.8879 C   0  0  0  0  0  0  0  0  0  0  0  0
  -18.0218  -31.2196   23.6530 C   0  0  0  0  0  0  0  0  0  0  0  0
  -28.1426  -16.3996   20.6193 C   0  0  0  0  0  0  0  0  0  0  0  0
  -30.2137  -21.7968   21.2349 C   0  0  0  0  0  0  0  0  0  0  0  0
  -16.4654  -29.4576   23.0962 C   0  0  0  0  0  0  0  0  0  0  0  0
  -23.1682  -28.1713   21.6607 C   0  0  0  0  0  0  0  0  0  0  0  0
  -25.1111  -29.3929   20.5470 C   0  0  0  0  0  0  0  0  0  0  0  0
  -20.5217  -20.6817   23.2066 C   0  0  0  0  0  0  0  0  0  0  0  0
  -26.1660  -17.4995   19.7573 C   0  0  0  0  0  0  0  0  0  0  0  0
  -21.8831  -20.4646   22.9203 C   0  0  0  0  0  0  0  0  0  0  0  0
  -26.7479  -16.4419   20.4707 C   0  0  0  0  0  0  0  0  0  0  0  0
  -30.8456  -20.9677   22.1617 C   0  0  0  0  0  0  0  0  0  0  0  0
  -29.8318  -23.0876   21.6004 C   0  0  0  0  0  0  0  0  0  0  0  0
  -20.8500  -28.0350   23.2067 C   0  0  0  0  0  0  0  0  0  0  0  0
  -28.9482  -17.3885   20.0552 C   0  0  0  0  0  0  0  0  0  0  0  0
  -18.7328  -28.9118   23.7269 C   0  0  0  0  0  0  0  0  0  0  0  0
  -16.7472  -30.8142   23.2572 C   0  0  0  0  0  0  0  0  0  0  0  0
  -17.4582  -28.5064   23.3311 C   0  0  0  0  0  0  0  0  0  0  0  0
  -24.3658  -28.2411   20.8626 C   0  0  0  0  0  0  0  0  0  0  0  0
  -26.1464  -28.9303   19.7719 C   0  0  0  0  0  0  0  0  0  0  0  0
  -24.8877  -30.7588   20.9211 C   0  0  0  0  0  0  0  0  0  0  0  0
  -23.8615  -17.4997   21.9466 C   0  0  0  0  0  0  0  0  0  0  0  0
  -23.5856  -14.3825   21.0926 C   0  0  0  0  0  0  0  0  0  0  0  0
  -25.0463  -11.6066   19.7482 C   0  0  0  0  0  0  0  0  0  0  0  0
  -31.8678  -18.7011   22.5801 C   0  0  0  0  0  0  0  0  0  0  0  0
  -28.8673  -23.6282   19.3369 C   0  0  0  0  0  0  0  0  0  0  0  0
  -19.6957  -19.6635   23.9520 C   0  0  0  0  0  0  0  0  0  0  0  0
  -24.6758  -17.5574   19.5613 C   0  0  0  0  0  0  0  0  0  0  0  0
  -25.9152  -15.3510   21.0912 C   0  0  0  0  0  0  0  0  0  0  0  0
  -20.3145  -18.2680   23.9640 C   0  0  0  0  0  0  0  0  0  0  0  0
  -27.2544  -25.4155   16.7137 C   0  0  0  0  0  0  0  0  0  0  0  0
  -21.7971  -18.3445   24.3144 C   0  0  0  0  0  0  0  0  0  0  0  0
  -26.4031  -26.4517   17.4510 C   0  0  0  0  0  0  0  0  0  0  0  0
  -27.3017  -24.0844   17.4618 C   0  0  0  0  0  0  0  0  0  0  0  0
  -26.8599  -25.2136   19.6063 C   0  0  0  0  0  0  0  0  0  0  0  0
  -22.5689  -19.1622   23.2718 C   0  0  1  0  0  0  0  0  0  0  0  0
  -23.9028  -16.7848   20.6257 C   0  0  1  0  0  0  0  0  0  0  0  0
  -26.8353  -26.5910   18.9239 C   0  0  2  0  0  0  0  0  0  0  0  0
  -24.5829   -9.1982   19.2172 C   0  0  0  0  0  0  0  0  0  0  0  0
  -32.8484  -16.3864   22.7749 C   0  0  0  0  0  0  0  0  0  0  0  0
  -33.0061  -17.6264   20.5853 C   0  0  0  0  0  0  0  0  0  0  0  0
  -23.8818  -13.6768   24.0463 C   0  0  0  0  0  0  0  0  0  0  0  0
  -24.3634  -11.3170   23.3625 C   0  0  0  0  0  0  0  0  0  0  0  0
  -22.1549  -12.3439   22.8234 C   0  0  0  0  0  0  0  0  0  0  0  0
  -25.4945  -12.0379   16.8547 C   0  0  0  0  0  0  0  0  0  0  0  0
  -30.7961  -16.7275   21.3984 C   0  0  0  0  0  0  0  0  0  1  0  0
  -24.2108  -13.0882   21.5541 C   0  0  1  0  0  0  0  0  0  0  0  0
  -24.5656  -10.6259   18.6938 C   0  0  2  0  0  0  0  0  0  0  0  0
  -32.1366  -17.3695   21.8288 C   0  0  0  0  0  0  0  0  0  0  0  0
  -23.6685  -12.6280   22.9367 C   0  0  0  0  0  0  0  0  0  0  0  0
  -24.8835  -27.1303   20.3313 N   0  0  0  0  0  0  0  0  0  0  0  0
  -25.9651  -27.5821   19.6739 N   0  0  0  0  0  0  0  0  0  0  0  0
  -24.4624  -15.4552   20.8771 N   0  0  0  0  0  0  0  0  0  0  0  0
  -27.7231  -24.2939   18.8487 N   0  0  0  0  0  0  0  0  0  0  0  0
  -27.1849  -29.5493   19.1714 N   0  0  0  0  0  0  0  0  0  0  0  0
  -23.7767  -31.0594   21.7210 N   0  0  0  0  0  0  0  0  0  0  0  0
  -31.2332  -19.6566   21.7915 N   0  0  0  0  0  0  0  0  0  0  0  0
  -29.1897  -23.9303   20.6595 N   0  0  0  0  0  0  0  0  0  0  0  0
  -22.7994  -18.3735   22.0805 N   0  0  0  0  0  0  0  0  0  0  0  0
  -23.9982  -12.1259   20.4784 N   0  0  0  0  0  0  0  0  0  0  0  0
  -25.4370  -10.6947   17.4868 N   0  3  0  0  0  0  0  0  0  0  0  0
  -25.6413  -31.6877   20.5432 O   0  0  0  0  0  0  0  0  0  0  0  0
  -24.7283  -17.2742   22.7830 O   0  0  0  0  0  0  0  0  0  0  0  0
  -22.3650  -14.4376   20.9226 O   0  0  0  0  0  0  0  0  0  0  0  0
  -26.2331  -11.8815   19.9105 O   0  0  0  0  0  0  0  0  0  0  0  0
  -32.2104  -18.8484   23.7518 O   0  0  0  0  0  0  0  0  0  0  0  0
  -29.5293  -22.8686   18.6250 O   0  0  0  0  0  0  0  0  0  0  0  0
  -19.7193  -27.9686   23.9613 O   0  0  0  0  0  0  0  0  0  0  0  0
  -30.2996  -17.3339   20.2058 O   0  0  0  0  0  0  0  0  0  1  0  0
  -15.7935  -31.7277   23.0331 F   0  0  0  0  0  0  0  0  0  0  0  0
  -17.1812  -27.2045   23.1760 F   0  0  0  0  0  0  0  0  0  0  0  0
  1  2  1  0  0  0  0
  1  6  2  0  0  0  0
  2  7  2  0  0  0  0
  3  9  2  0  0  0  0
  3 10  1  0  0  0  0
  4 11  2  0  0  0  0
  4 19  1  0  0  0  0
  5 12  1  0  0  0  0
  5 19  2  0  0  0  0
  6 21  1  0  0  0  0
  7 23  1  0  0  0  0
  8 13  2  0  0  0  0
  8 22  1  0  0  0  0
  9 25  1  0  0  0  0
 10 26  2  0  0  0  0
 11 27  1  0  0  0  0
 12 27  2  0  0  0  0
 13 28  1  0  0  0  0
 14 15  2  0  0  0  0
 14 29  1  0  0  0  0
 15 30  1  0  0  0  0
 16 24  1  0  0  0  0
 16 28  2  0  0  0  0
 17 25  2  0  0  0  0
 17 26  1  0  0  0  0
 18 30  2  0  0  0  0
 18 31  1  0  0  0  0
 19 32  1  0  0  0  0
 20 32  1  0  0  0  0
 20 33  2  0  0  0  0
 20 34  1  0  0  0  0
 21 23  2  0  0  0  0
 21 40  1  0  0  0  0
 22 24  2  0  0  0  0
 22 41  1  0  0  0  0
 23 49  1  0  0  0  0
 24 42  1  0  0  0  0
 25 70  1  0  0  0  0
 26 71  1  0  0  0  0
 27 81  1  0  0  0  0
 28 82  1  0  0  0  0
 29 31  2  0  0  0  0
 29 81  1  0  0  0  0
 30 83  1  0  0  0  0
 31 84  1  0  0  0  0
 32 64  2  0  0  0  0
 33 65  1  0  0  0  0
 33 68  1  0  0  0  0
 34 69  1  0  0  0  0
 34 75  2  0  0  0  0
 35 50  1  0  0  0  0
 35 72  1  0  0  0  0
 35 76  2  0  0  0  0
 36 60  1  0  0  0  0
 36 66  1  0  0  0  0
 36 77  2  0  0  0  0
 37 61  1  0  0  0  0
 37 73  1  0  0  0  0
 37 78  2  0  0  0  0
 38 62  1  0  0  0  0
 38 70  1  0  0  0  0
 38 79  2  0  0  0  0
 39 67  1  0  0  0  0
 39 71  1  0  0  0  0
 39 80  2  0  0  0  0
 40 43  1  0  0  0  0
 41 50  1  0  0  0  0
 42 66  1  0  0  0  0
 43 45  1  0  0  0  0
 44 46  1  0  0  0  0
 44 47  1  0  0  0  0
 45 49  1  0  0  0  0
 46 51  1  0  0  0  0
 47 67  1  0  0  0  0
 48 51  1  0  0  0  0
 48 67  1  0  0  0  0
 49 72  1  0  0  0  0
 50 66  1  0  0  0  0
 51 65  1  0  0  0  0
 52 61  1  0  0  0  0
 53 62  1  0  0  0  0
 54 62  1  0  0  0  0
 55 63  1  0  0  0  0
 56 63  1  0  0  0  0
 57 63  1  0  0  0  0
 58 74  1  0  0  0  0
 59 62  1  0  0  0  0
 59 82  1  0  0  0  0
 60 63  1  0  0  0  0
 60 73  1  0  0  0  0
 61 74  1  0  0  0  0
 64 65  1  0  0  0  0
M  CHG  1  74   1
M  ISO  4  39 100  59 101  71 100  82 101
M  END
> <Batch ID>
0068

> <Smiles>
CNC(C)C(=O)NC(C(=O)N1Cc2cc([101O:1][101CH2:1]C(C)(C)C(=O)Nc3cccc([100NH:0][100C:0](=O)N4CCCC(n5nc(-c6ccc(Oc7ccc(F)cc7F)cc6)c(C(N)=O)c5N)C4)c3)ccc2CC1C(=O)NC1CCCc2ccccc21)C(C)(C)C

> <Shape>
0.233

> <Color>
0.083

> <Negative vol penalty>
0.000

$$$$

  -OEChem-04042323273D

 87 96  0     1  0  0  0  0  0999 V2000
  -21.6265  -12.3869   20.8161 C   0  0  0  0  0  0  0  0  0  0  0  0
  -21.6480  -13.7116   21.2407 C   0  0  0  0  0  0  0  0  0  0  0  0
  -17.3007  -28.4887   22.9167 C   0  0  0  0  0  0  0  0  0  0  0  0
  -17.8384  -29.7732   22.9967 C   0  0  0  0  0  0  0  0  0  0  0  0
  -27.2765  -23.8336   21.3095 C   0  0  0  0  0  0  0  0  0  0  0  0
  -28.7412  -25.5818   22.1067 C   0  0  0  0  0  0  0  0  0  0  0  0
  -22.8233  -11.7175   20.5638 C   0  0  0  0  0  0  0  0  0  0  0  0
  -22.8663  -14.3673   21.4143 C   0  0  0  0  0  0  0  0  0  0  0  0
  -22.8676  -19.1035   19.3994 C   0  0  0  0  0  0  0  0  0  0  0  0
  -18.1291  -27.4020   22.6367 C   0  0  0  0  0  0  0  0  0  0  0  0
  -19.2046  -29.9711   22.7967 C   0  0  0  0  0  0  0  0  0  0  0  0
  -27.9978  -22.8936   22.0456 C   0  0  0  0  0  0  0  0  0  0  0  0
  -29.4624  -24.6419   22.8429 C   0  0  0  0  0  0  0  0  0  0  0  0
  -22.2402  -20.1259   20.1099 C   0  0  0  0  0  0  0  0  0  0  0  0
  -28.2026  -21.8740   25.2629 C   0  0  0  0  0  0  0  0  0  0  0  0
  -27.4806  -20.9369   26.0020 C   0  0  0  0  0  0  0  0  0  0  0  0
  -24.3784  -20.8251   20.9802 C   0  0  0  0  0  0  0  0  0  0  0  0
  -28.5095  -19.1505   24.7421 C   0  0  0  0  0  0  0  0  0  0  0  0
  -27.6483  -25.1777   21.3400 C   0  0  0  0  0  0  0  0  0  0  0  0
  -26.7122  -26.1712   19.1849 C   0  0  0  0  0  0  0  0  0  0  0  0
  -24.0566  -12.3683   20.7251 C   0  0  0  0  0  0  0  0  0  0  0  0
  -24.2564  -18.9271   19.4819 C   0  0  0  0  0  0  0  0  0  0  0  0
  -24.0807  -13.7055   21.1652 C   0  0  0  0  0  0  0  0  0  0  0  0
  -25.0215  -19.8027   20.2659 C   0  0  0  0  0  0  0  0  0  0  0  0
  -19.4953  -27.5998   22.4367 C   0  0  0  0  0  0  0  0  0  0  0  0
  -20.0331  -28.8844   22.5167 C   0  0  0  0  0  0  0  0  0  0  0  0
  -29.0907  -23.2977   22.8123 C   0  0  0  0  0  0  0  0  0  0  0  0
  -22.9954  -20.9854   20.9022 C   0  0  0  0  0  0  0  0  0  0  0  0
  -29.0779  -21.4493   24.2633 C   0  0  0  0  0  0  0  0  0  0  0  0
  -27.6341  -19.5752   25.7417 C   0  0  0  0  0  0  0  0  0  0  0  0
  -29.2314  -20.0876   24.0030 C   0  0  0  0  0  0  0  0  0  0  0  0
  -26.9040  -26.1491   20.5793 C   0  0  0  0  0  0  0  0  0  0  0  0
  -25.9407  -27.2855   18.9620 C   0  0  0  0  0  0  0  0  0  0  0  0
  -22.2298  -24.3678   21.8673 C   0  0  0  0  0  0  0  0  0  0  0  0
  -21.8902  -25.0997   20.7831 C   0  0  0  0  0  0  0  0  0  0  0  0
  -21.6460  -24.7037   23.1646 C   0  0  0  0  0  0  0  0  0  0  0  0
  -21.0710  -26.3631   20.9572 C   0  0  0  0  0  0  0  0  0  0  0  0
  -22.2176  -24.4676   24.3556 C   0  0  0  0  0  0  0  0  0  0  0  0
  -27.1887  -25.2654   18.1808 C   0  0  0  0  0  0  0  0  0  0  0  0
  -26.2465  -16.6096   20.4384 C   0  0  0  0  0  0  0  0  0  0  0  0
  -28.4860  -18.7513   19.2337 C   0  0  0  0  0  0  0  0  0  0  0  0
  -30.8442  -16.2903   19.3808 C   0  0  0  0  0  0  0  0  0  0  0  0
  -22.0895  -30.3318   22.3668 C   0  0  0  0  0  0  0  0  0  0  0  0
  -25.3254  -11.5890   20.4857 C   0  0  0  0  0  0  0  0  0  0  0  0
  -24.9176  -17.8364   18.6833 C   0  0  0  0  0  0  0  0  0  0  0  0
  -26.5147  -19.6577   20.3846 C   0  0  0  0  0  0  0  0  0  0  0  0
  -20.2775  -25.3075   23.0523 C   0  0  0  0  0  0  0  0  0  0  0  0
  -26.5623  -12.4707   20.3335 C   0  0  0  0  0  0  0  0  0  0  0  0
  -25.0053  -31.6169   20.7781 C   0  0  0  0  0  0  0  0  0  0  0  0
  -26.5998  -13.5314   21.4291 C   0  0  0  0  0  0  0  0  0  0  0  0
  -25.8027  -30.3623   20.4145 C   0  0  0  0  0  0  0  0  0  0  0  0
  -24.2874  -31.4641   22.1179 C   0  0  0  0  0  0  0  0  0  0  0  0
  -24.2421  -29.0130   21.8742 C   0  0  0  0  0  0  0  0  0  0  0  0
  -25.3815  -14.4585   21.3413 C   0  0  1  0  0  0  0  0  0  0  0  0
  -26.3042  -17.4573   19.1993 C   0  0  1  0  0  0  0  0  0  0  0  0
  -24.9301  -29.0949   20.5017 C   0  0  2  0  0  0  0  0  0  0  0  0
  -22.3286  -24.8332   19.3696 C   0  0  0  0  0  0  0  0  0  0  0  0
  -33.0885  -15.1975   19.1228 C   0  0  0  0  0  0  0  0  0  0  0  0
  -27.5397  -18.3174   16.3664 C   0  0  0  0  0  0  0  0  0  0  0  0
  -29.5946  -16.9428   15.9711 C   0  0  0  0  0  0  0  0  0  0  0  0
  -29.8060  -19.3548   16.5716 C   0  0  0  0  0  0  0  0  0  0  0  0
  -31.7326  -17.2200   22.0464 C   0  0  0  0  0  0  0  0  0  0  0  0
  -23.1450  -23.1696   21.8312 C   0  0  0  0  0  0  0  0  0  1  0  0
  -29.0859  -17.6961   18.3385 C   0  0  1  0  0  0  0  0  0  0  0  0
  -32.3062  -16.3189   19.7886 C   0  0  2  0  0  0  0  0  0  0  0  0
  -28.9884  -18.0710   16.8327 C   0  0  0  0  0  0  0  0  0  0  0  0
  -26.3030  -27.1685   21.1987 N   0  0  0  0  0  0  0  0  0  0  0  0
  -25.7260  -27.8416   20.1887 N   0  0  0  0  0  0  0  0  0  0  0  0
  -20.3307  -26.4604   22.1487 N   0  0  0  0  0  0  0  0  0  0  0  0
  -27.1203  -18.6346   19.5222 N   0  0  0  0  0  0  0  0  0  0  0  0
  -23.4769  -30.2443   22.1257 N   0  0  0  0  0  0  0  0  0  0  0  0
  -25.4319  -27.8340   17.8383 N   0  0  0  0  0  0  0  0  0  0  0  0
  -26.3913  -24.1635   17.8424 N   0  0  0  0  0  0  0  0  0  0  0  0
  -21.4175  -29.1109   22.3174 N   0  0  0  0  0  0  0  0  0  0  0  0
  -25.5564  -15.4234   20.2770 N   0  0  0  0  0  0  0  0  0  0  0  0
  -30.4485  -17.4835   18.8144 N   0  0  0  0  0  0  0  0  0  0  0  0
  -32.4350  -16.1692   21.2657 N   0  3  0  0  0  0  0  0  0  0  0  0
  -21.1528  -27.2294   20.0858 O   0  0  0  0  0  0  0  0  0  0  0  0
  -28.2964  -25.4192   17.6127 O   0  0  0  0  0  0  0  0  0  0  0  0
  -26.7893  -17.0020   21.4647 O   0  0  0  0  0  0  0  0  0  0  0  0
  -29.2046  -19.6594   19.6606 O   0  0  0  0  0  0  0  0  0  0  0  0
  -30.1261  -15.3064   19.5447 O   0  0  0  0  0  0  0  0  0  0  0  0
  -21.5336  -31.4137   22.5729 O   0  0  0  0  0  0  0  0  0  0  0  0
  -29.7945  -22.3808   23.5309 O   0  0  0  0  0  0  0  0  0  0  0  0
  -22.3855  -21.9845   21.5964 O   0  0  0  0  0  0  0  0  0  1  0  0
  -26.9419  -18.6754   26.4526 F   0  0  0  0  0  0  0  0  0  0  0  0
  -30.0717  -19.6735   23.0447 F   0  0  0  0  0  0  0  0  0  0  0  0
  1  2  1  0  0  0  0
  1  7  2  0  0  0  0
  2  8  2  0  0  0  0
  3  4  1  0  0  0  0
  3 10  2  0  0  0  0
  4 11  2  0  0  0  0
  5 12  2  0  0  0  0
  5 19  1  0  0  0  0
  6 13  1  0  0  0  0
  6 19  2  0  0  0  0
  7 21  1  0  0  0  0
  8 23  1  0  0  0  0
  9 14  2  0  0  0  0
  9 22  1  0  0  0  0
 10 25  1  0  0  0  0
 11 26  1  0  0  0  0
 12 27  1  0  0  0  0
 13 27  2  0  0  0  0
 14 28  1  0  0  0  0
 15 16  2  0  0  0  0
 15 29  1  0  0  0  0
 16 30  1  0  0  0  0
 17 24  1  0  0  0  0
 17 28  2  0  0  0  0
 18 30  2  0  0  0  0
 18 31  1  0  0  0  0
 19 32  1  0  0  0  0
 20 32  1  0  0  0  0
 20 33  2  0  0  0  0
 20 39  1  0  0  0  0
 21 23  2  0  0  0  0
 21 44  1  0  0  0  0
 22 24  2  0  0  0  0
 22 45  1  0  0  0  0
 23 54  1  0  0  0  0
 24 46  1  0  0  0  0
 25 26  2  0  0  0  0
 25 69  1  0  0  0  0
 26 74  1  0  0  0  0
 27 84  1  0  0  0  0
 28 85  1  0  0  0  0
 29 31  2  0  0  0  0
 29 84  1  0  0  0  0
 30 86  1  0  0  0  0
 31 87  1  0  0  0  0
 32 67  2  0  0  0  0
 33 68  1  0  0  0  0
 33 72  1  0  0  0  0
 34 35  2  0  0  0  0
 34 36  1  0  0  0  0
 34 63  1  0  0  0  0
 35 37  1  0  0  0  0
 35 57  1  0  0  0  0
 36 38  2  0  0  0  0
 36 47  1  0  0  0  0
 37 69  1  0  0  0  0
 37 78  2  0  0  0  0
 39 73  1  0  0  0  0
 39 79  2  0  0  0  0
 40 55  1  0  0  0  0
 40 75  1  0  0  0  0
 40 80  2  0  0  0  0
 41 64  1  0  0  0  0
 41 70  1  0  0  0  0
 41 81  2  0  0  0  0
 42 65  1  0  0  0  0
 42 76  1  0  0  0  0
 42 82  2  0  0  0  0
 43 71  1  0  0  0  0
 43 74  1  0  0  0  0
 43 83  2  0  0  0  0
 44 48  1  0  0  0  0
 45 55  1  0  0  0  0
 46 70  1  0  0  0  0
 47 69  1  0  0  0  0
 48 50  1  0  0  0  0
 49 51  1  0  0  0  0
 49 52  1  0  0  0  0
 50 54  1  0  0  0  0
 51 56  1  0  0  0  0
 52 71  1  0  0  0  0
 53 56  1  0  0  0  0
 53 71  1  0  0  0  0
 54 75  1  0  0  0  0
 55 70  1  0  0  0  0
 56 68  1  0  0  0  0
 58 65  1  0  0  0  0
 59 66  1  0  0  0  0
 60 66  1  0  0  0  0
 61 66  1  0  0  0  0
 62 77  1  0  0  0  0
 63 85  1  0  0  0  0
 64 66  1  0  0  0  0
 64 76  1  0  0  0  0
 65 77  1  0  0  0  0
 67 68  1  0  0  0  0
M  CHG  1  77   1
M  ISO  4  43 100  63 101  74 100  85 101
M  END
> <Batch ID>
0068

> <Smiles>
C=C1CN(c2ccccc2[100NH:0][100C:0](=O)N2CCCC(n3nc(-c4ccc(Oc5ccc(F)cc5F)cc4)c(C(N)=O)c3N)C2)C(=O)C(C)=C1[101CH2:1][101O:1]c1ccc2c(c1)CN(C(=O)C(NC(=O)C(C)NC)C(C)(C)C)C(C(=O)NC1CCCc3ccccc31)C2

> <Shape>
0.231

> <Color>
0.090

> <Negative vol penalty>
0.000

$$$$

  -OEChem-04042323273D

 87 96  0     1  0  0  0  0  0999 V2000
  -29.7217  -36.0449   19.3814 C   0  0  0  0  0  0  0  0  0  0  0  0
  -29.8745  -34.6621   19.3938 C   0  0  0  0  0  0  0  0  0  0  0  0
  -23.9462  -16.0742   21.6407 C   0  0  0  0  0  0  0  0  0  0  0  0
  -23.9574  -15.8903   19.2318 C   0  0  0  0  0  0  0  0  0  0  0  0
  -28.8104  -36.6521   20.2444 C   0  0  0  0  0  0  0  0  0  0  0  0
  -29.1168  -33.8859   20.2700 C   0  0  0  0  0  0  0  0  0  0  0  0
  -26.9076  -28.2675   19.2412 C   0  0  0  0  0  0  0  0  0  0  0  0
  -30.9094  -19.9933   20.8898 C   0  0  0  0  0  0  0  0  0  0  0  0
  -31.0672  -18.6458   20.5660 C   0  0  0  0  0  0  0  0  0  0  0  0
  -23.3326  -17.3229   21.5426 C   0  0  0  0  0  0  0  0  0  0  0  0
  -23.3437  -17.1391   19.1336 C   0  0  0  0  0  0  0  0  0  0  0  0
  -27.3614  -27.0002   19.6042 C   0  0  0  0  0  0  0  0  0  0  0  0
  -24.2585  -20.3875   19.3384 C   0  0  0  0  0  0  0  0  0  0  0  0
  -24.7628  -21.2853   18.3976 C   0  0  0  0  0  0  0  0  0  0  0  0
  -25.8934  -27.0294   21.5182 C   0  0  0  0  0  0  0  0  0  0  0  0
  -28.5559  -19.6217   21.2898 C   0  0  0  0  0  0  0  0  0  0  0  0
  -22.6136  -21.3373   17.2952 C   0  0  0  0  0  0  0  0  0  0  0  0
  -24.2587  -15.3579   20.4853 C   0  0  0  0  0  0  0  0  0  0  0  0
  -24.2599  -12.8142   20.6786 C   0  0  0  0  0  0  0  0  0  0  0  0
  -28.0342  -35.8821   21.1249 C   0  0  0  0  0  0  0  0  0  0  0  0
  -25.9497  -28.9310   20.0214 C   0  0  0  0  0  0  0  0  0  0  0  0
  -28.1952  -34.4836   21.1466 C   0  0  0  0  0  0  0  0  0  0  0  0
  -25.4273  -28.3040   21.1616 C   0  0  0  0  0  0  0  0  0  0  0  0
  -29.6538  -20.4813   21.2518 C   0  0  0  0  0  0  0  0  0  0  0  0
  -29.9694  -17.7862   20.6040 C   0  0  0  0  0  0  0  0  0  0  0  0
  -23.0313  -17.8554   20.2891 C   0  0  0  0  0  0  0  0  0  0  0  0
  -26.8564  -26.3822   20.7445 C   0  0  0  0  0  0  0  0  0  0  0  0
  -22.9317  -19.9645   19.2576 C   0  0  0  0  0  0  0  0  0  0  0  0
  -23.9404  -21.7602   17.3760 C   0  0  0  0  0  0  0  0  0  0  0  0
  -28.7137  -18.2742   20.9659 C   0  0  0  0  0  0  0  0  0  0  0  0
  -22.1093  -20.4394   18.2360 C   0  0  0  0  0  0  0  0  0  0  0  0
  -24.8931  -14.0681   20.5860 C   0  0  0  0  0  0  0  0  0  0  0  0
  -25.2932  -11.9123   20.7514 C   0  0  0  0  0  0  0  0  0  0  0  0
  -28.4068  -22.5259   21.9481 C   0  0  0  0  0  0  0  0  0  0  0  0
  -22.8626  -12.4933   20.6970 C   0  0  0  0  0  0  0  0  0  0  0  0
  -25.8948  -31.6417   21.6804 C   0  0  0  0  0  0  0  0  0  0  0  0
  -22.7595  -30.8966   22.0503 C   0  0  0  0  0  0  0  0  0  0  0  0
  -31.1064  -15.9566   19.3557 C   0  0  0  0  0  0  0  0  0  0  0  0
  -20.3394  -28.4908   22.0976 C   0  0  0  0  0  0  0  0  0  0  0  0
  -29.4923  -15.4453   21.0950 C   0  0  0  0  0  0  0  0  0  0  0  0
  -27.0963  -36.5875   22.0723 C   0  0  0  0  0  0  0  0  0  0  0  0
  -25.4509  -30.2865   19.6014 C   0  0  0  0  0  0  0  0  0  0  0  0
  -24.3827  -28.9653   22.0218 C   0  0  0  0  0  0  0  0  0  0  0  0
  -26.0616  -35.6618   22.7068 C   0  0  0  0  0  0  0  0  0  0  0  0
  -28.8576  -12.8777   18.5175 C   0  0  0  0  0  0  0  0  0  0  0  0
  -26.7266  -34.3866   23.2153 C   0  0  0  0  0  0  0  0  0  0  0  0
  -28.3710  -11.7042   19.3593 C   0  0  0  0  0  0  0  0  0  0  0  0
  -29.8915  -13.7179   19.2600 C   0  0  0  0  0  0  0  0  0  0  0  0
  -30.3746  -22.9529   21.3454 C   0  0  0  0  0  0  0  0  0  0  0  0
  -28.8783  -13.0686   21.4422 C   0  0  0  0  0  0  0  0  0  0  0  0
  -27.3736  -33.6054   22.0652 C   0  0  1  0  0  0  0  0  0  0  0  0
  -29.1877  -23.8482   21.7837 C   0  0  1  0  0  0  0  0  0  0  0  0
  -24.8507  -31.0857   20.7540 C   0  0  1  0  0  0  0  0  0  0  0  0
  -27.8699  -12.1373   20.7455 C   0  0  1  0  0  0  0  0  0  0  0  0
  -31.2202  -16.7287   18.0591 C   0  0  0  0  0  0  0  0  0  0  0  0
  -17.8762  -28.1815   22.4642 C   0  0  0  0  0  0  0  0  0  0  0  0
  -23.1718  -31.1974   25.0586 C   0  0  0  0  0  0  0  0  0  0  0  0
  -21.0124  -29.9792   25.4060 C   0  0  0  0  0  0  0  0  0  0  0  0
  -21.0309  -32.1614   24.1975 C   0  0  0  0  0  0  0  0  0  0  0  0
  -19.9457  -27.4414   19.3585 C   0  0  0  0  0  0  0  0  0  0  0  0
  -28.6376  -24.8063   20.7450 C   0  0  0  0  0  0  0  0  0  1  0  0
  -21.9603  -30.1052   23.0573 C   0  0  1  0  0  0  0  0  0  0  0  0
  -18.9732  -28.4232   21.4392 C   0  0  2  0  0  0  0  0  0  0  0  0
  -21.8149  -30.8489   24.4149 C   0  0  0  0  0  0  0  0  0  0  0  0
  -26.2255  -13.9751   20.5988 N   0  0  0  0  0  0  0  0  0  0  0  0
  -26.4379  -12.6520   20.7003 N   0  0  0  0  0  0  0  0  0  0  0  0
  -29.4978  -21.8109   21.5707 N   0  0  0  0  0  0  0  0  0  0  0  0
  -23.9316  -30.2930   21.5731 N   0  0  0  0  0  0  0  0  0  0  0  0
  -29.4182  -14.1303   20.5877 N   0  0  0  0  0  0  0  0  0  0  0  0
  -25.3253  -10.5666   20.8535 N   0  0  0  0  0  0  0  0  0  0  0  0
  -21.9354  -13.5410   20.6135 N   0  0  0  0  0  0  0  0  0  0  0  0
  -26.3671  -32.8873   21.3130 N   0  0  0  0  0  0  0  0  0  0  0  0
  -20.6914  -29.7865   22.4117 N   0  0  0  0  0  0  0  0  0  0  0  0
  -30.1357  -16.3929   20.2679 N   0  0  0  0  0  0  0  0  0  0  0  0
  -18.9341  -27.3186   20.4395 N   0  3  0  0  0  0  0  0  0  0  0  0
  -27.2769  -22.2123   22.2463 O   0  0  0  0  0  0  0  0  0  0  0  0
  -22.4485  -11.3139   20.8014 O   0  0  0  0  0  0  0  0  0  0  0  0
  -26.2448  -30.9897   22.6572 O   0  0  0  0  0  0  0  0  0  0  0  0
  -22.3548  -32.0063   21.6947 O   0  0  0  0  0  0  0  0  0  0  0  0
  -31.8232  -14.9694   19.5424 O   0  0  0  0  0  0  0  0  0  0  0  0
  -21.0240  -27.4936   22.3153 O   0  0  0  0  0  0  0  0  0  0  0  0
  -29.0801  -15.7476   22.2217 O   0  0  0  0  0  0  0  0  0  0  0  0
  -22.4323  -19.0738   20.1929 O   0  0  0  0  0  0  0  0  0  0  0  0
  -27.2981  -25.1455   21.1014 O   0  0  0  0  0  0  0  0  0  1  0  0
  -24.4244  -22.6235   16.4734 F   0  0  0  0  0  0  0  0  0  0  0  0
  -27.6510  -17.4574   21.0044 F   0  0  0  0  0  0  0  0  0  0  0  0
  -20.8335  -20.0376   18.1539 F   0  0  0  0  0  0  0  0  0  0  0  0
  1  2  1  0  0  0  0
  1  5  2  0  0  0  0
  2  6  2  0  0  0  0
  3 10  2  0  0  0  0
  3 18  1  0  0  0  0
  4 11  1  0  0  0  0
  4 18  2  0  0  0  0
  5 20  1  0  0  0  0
  6 22  1  0  0  0  0
  7 12  2  0  0  0  0
  7 21  1  0  0  0  0
  8  9  2  0  0  0  0
  8 24  1  0  0  0  0
  9 25  1  0  0  0  0
 10 26  1  0  0  0  0
 11 26  2  0  0  0  0
 12 27  1  0  0  0  0
 13 14  2  0  0  0  0
 13 28  1  0  0  0  0
 14 29  1  0  0  0  0
 15 23  1  0  0  0  0
 15 27  2  0  0  0  0
 16 24  2  0  0  0  0
 16 30  1  0  0  0  0
 17 29  2  0  0  0  0
 17 31  1  0  0  0  0
 18 32  1  0  0  0  0
 19 32  1  0  0  0  0
 19 33  2  0  0  0  0
 19 35  1  0  0  0  0
 20 22  2  0  0  0  0
 20 41  1  0  0  0  0
 21 23  2  0  0  0  0
 21 42  1  0  0  0  0
 22 51  1  0  0  0  0
 23 43  1  0  0  0  0
 24 67  1  0  0  0  0
 25 30  2  0  0  0  0
 25 74  1  0  0  0  0
 26 83  1  0  0  0  0
 27 84  1  0  0  0  0
 28 31  2  0  0  0  0
 28 83  1  0  0  0  0
 29 85  1  0  0  0  0
 30 86  1  0  0  0  0
 31 87  1  0  0  0  0
 32 65  2  0  0  0  0
 33 66  1  0  0  0  0
 33 70  1  0  0  0  0
 34 52  1  0  0  0  0
 34 67  1  0  0  0  0
 34 76  2  0  0  0  0
 35 71  1  0  0  0  0
 35 77  2  0  0  0  0
 36 53  1  0  0  0  0
 36 72  1  0  0  0  0
 36 78  2  0  0  0  0
 37 62  1  0  0  0  0
 37 68  1  0  0  0  0
 37 79  2  0  0  0  0
 38 55  1  0  0  0  0
 38 74  1  0  0  0  0
 38 80  2  0  0  0  0
 39 63  1  0  0  0  0
 39 73  1  0  0  0  0
 39 81  2  0  0  0  0
 40 69  1  0  0  0  0
 40 74  1  0  0  0  0
 40 82  2  0  0  0  0
 41 44  1  0  0  0  0
 42 53  1  0  0  0  0
 43 68  1  0  0  0  0
 44 46  1  0  0  0  0
 45 47  1  0  0  0  0
 45 48  1  0  0  0  0
 46 51  1  0  0  0  0
 47 54  1  0  0  0  0
 48 69  1  0  0  0  0
 49 52  1  0  0  0  0
 49 67  1  0  0  0  0
 50 54  1  0  0  0  0
 50 69  1  0  0  0  0
 51 72  1  0  0  0  0
 52 61  1  0  0  0  0
 53 68  1  0  0  0  0
 54 66  1  0  0  0  0
 56 63  1  0  0  0  0
 57 64  1  0  0  0  0
 58 64  1  0  0  0  0
 59 64  1  0  0  0  0
 60 75  1  0  0  0  0
 61 84  1  0  0  0  0
 62 64  1  0  0  0  0
 62 73  1  0  0  0  0
 63 75  1  0  0  0  0
 65 66  1  0  0  0  0
M  CHG  1  75   1
M  ISO  4  40 100  61 101  74 100  84 101
M  END
> <Batch ID>
0068

> <Smiles>
CNC(C)C(=O)NC(C(=O)N1Cc2cc([101O:1][101CH2:1]C3CN(c4ccc([100N:0](C(C)=O)[100C:0](=O)N5CCCC(n6nc(-c7ccc(Oc8ccc(F)cc8F)cc7)c(C(N)=O)c6N)C5)c(F)c4)C3=O)ccc2CC1C(=O)NC1CCCc2ccccc21)C(C)(C)C

> <Shape>
0.281

> <Color>
0.088

> <Negative vol penalty>
0.000

$$$$

  -OEChem-04042323273D

 83 91  0     1  0  0  0  0  0999 V2000
  -29.2125  -36.7050   20.1122 C   0  0  0  0  0  0  0  0  0  0  0  0
  -29.4058  -35.3490   19.8683 C   0  0  0  0  0  0  0  0  0  0  0  0
  -24.7935   -8.6728   21.6210 C   0  0  0  0  0  0  0  0  0  0  0  0
  -23.2442  -10.0124   20.3395 C   0  0  0  0  0  0  0  0  0  0  0  0
  -28.3896  -37.1131   21.1611 C   0  0  0  0  0  0  0  0  0  0  0  0
  -28.7771  -34.4004   20.6741 C   0  0  0  0  0  0  0  0  0  0  0  0
  -26.6281  -28.9358   18.9346 C   0  0  0  0  0  0  0  0  0  0  0  0
  -23.7439   -8.2275   22.4245 C   0  0  0  0  0  0  0  0  0  0  0  0
  -22.1946   -9.5671   21.1430 C   0  0  0  0  0  0  0  0  0  0  0  0
  -27.1573  -27.6488   19.0213 C   0  0  0  0  0  0  0  0  0  0  0  0
  -21.2456   -5.9575   22.2272 C   0  0  0  0  0  0  0  0  0  0  0  0
  -21.1856   -4.5949   22.5189 C   0  0  0  0  0  0  0  0  0  0  0  0
  -25.9198  -27.2837   21.0595 C   0  0  0  0  0  0  0  0  0  0  0  0
  -26.9783  -18.5687   18.7166 C   0  0  0  0  0  0  0  0  0  0  0  0
  -25.0817  -19.7332   17.7767 C   0  0  0  0  0  0  0  0  0  0  0  0
  -25.3001  -17.3452   17.4823 C   0  0  0  0  0  0  0  0  0  0  0  0
  -21.3566   -5.0922   24.8770 C   0  0  0  0  0  0  0  0  0  0  0  0
  -24.5437   -9.5653   20.5785 C   0  0  0  0  0  0  0  0  0  0  0  0
  -26.0992   -9.4356   18.5608 C   0  0  0  0  0  0  0  0  0  0  0  0
  -27.7429  -36.1690   21.9741 C   0  0  0  0  0  0  0  0  0  0  0  0
  -25.7477  -29.4110   19.9172 C   0  0  0  0  0  0  0  0  0  0  0  0
  -27.9459  -34.7963   21.7357 C   0  0  0  0  0  0  0  0  0  0  0  0
  -25.3788  -28.5761   20.9817 C   0  0  0  0  0  0  0  0  0  0  0  0
  -26.2734  -19.7529   18.5014 C   0  0  0  0  0  0  0  0  0  0  0  0
  -26.4918  -17.3648   18.2070 C   0  0  0  0  0  0  0  0  0  0  0  0
  -22.4444   -8.6746   22.1855 C   0  0  0  0  0  0  0  0  0  0  0  0
  -26.8055  -26.8236   20.0854 C   0  0  0  0  0  0  0  0  0  0  0  0
  -21.3612   -6.8876   23.2603 C   0  0  0  0  0  0  0  0  0  0  0  0
  -21.2411   -4.1622   23.8438 C   0  0  0  0  0  0  0  0  0  0  0  0
  -24.5950  -18.5293   17.2671 C   0  0  0  0  0  0  0  0  0  0  0  0
  -21.4167   -6.4549   24.5852 C   0  0  0  0  0  0  0  0  0  0  0  0
  -25.6276  -10.0261   19.7485 C   0  0  0  0  0  0  0  0  0  0  0  0
  -27.1317  -10.2479   18.1600 C   0  0  0  0  0  0  0  0  0  0  0  0
  -27.0229  -23.2679   19.5823 C   0  0  0  0  0  0  0  0  0  0  0  0
  -26.6348  -24.5472   19.5760 C   0  0  0  0  0  0  0  0  0  1  0  0
  -25.6445   -8.2582   17.8806 C   0  0  0  0  0  0  0  0  0  0  0  0
  -26.1937  -22.2344   18.8963 C   0  0  0  0  0  0  0  0  0  0  0  0
  -25.8059  -31.7972   22.0164 C   0  0  0  0  0  0  0  0  0  0  0  0
  -22.7572  -30.8494   22.5903 C   0  0  0  0  0  0  0  0  0  0  0  0
  -20.4296  -28.3559   22.4833 C   0  0  0  0  0  0  0  0  0  0  0  0
  -28.4057  -16.0061   19.1219 C   0  0  0  0  0  0  0  0  0  0  0  0
  -26.9005  -36.6582   23.1255 C   0  0  0  0  0  0  0  0  0  0  0  0
  -25.1647  -30.7921   19.7950 C   0  0  0  0  0  0  0  0  0  0  0  0
  -24.4216  -29.0315   22.0517 C   0  0  0  0  0  0  0  0  0  0  0  0
  -25.9732  -35.5897   23.6988 C   0  0  0  0  0  0  0  0  0  0  0  0
  -30.4631  -13.2094   19.9110 C   0  0  0  0  0  0  0  0  0  0  0  0
  -26.7292  -34.2808   23.9036 C   0  0  0  0  0  0  0  0  0  0  0  0
  -29.5008  -12.0212   19.8448 C   0  0  0  0  0  0  0  0  0  0  0  0
  -29.7884  -14.4544   20.4841 C   0  0  0  0  0  0  0  0  0  0  0  0
  -27.5751  -13.6554   19.7546 C   0  0  0  0  0  0  0  0  0  0  0  0
  -27.2615  -33.7370   22.5723 C   0  0  1  0  0  0  0  0  0  0  0  0
  -24.6785  -31.3555   21.1268 C   0  0  1  0  0  0  0  0  0  0  0  0
  -28.1913  -12.3961   19.1236 C   0  0  2  0  0  0  0  0  0  0  0  0
  -18.0352  -27.8703   23.0563 C   0  0  0  0  0  0  0  0  0  0  0  0
  -23.5049  -30.6581   25.5423 C   0  0  0  0  0  0  0  0  0  0  0  0
  -21.4363  -29.2956   25.9063 C   0  0  0  0  0  0  0  0  0  0  0  0
  -21.2518  -31.6487   25.0990 C   0  0  0  0  0  0  0  0  0  0  0  0
  -19.7532  -27.7658   19.6631 C   0  0  0  0  0  0  0  0  0  0  0  0
  -22.1028  -29.8617   23.5259 C   0  0  1  0  0  0  0  0  0  0  0  0
  -18.9992  -28.3343   21.9755 C   0  0  2  0  0  0  0  0  0  0  0  0
  -22.0935  -30.3578   24.9994 C   0  0  0  0  0  0  0  0  0  0  0  0
  -26.3051  -11.1283   20.0807 N   0  0  0  0  0  0  0  0  0  0  0  0
  -27.2129  -11.2367   19.0958 N   0  0  0  0  0  0  0  0  0  0  0  0
  -23.8834  -30.3924   21.8913 N   0  0  0  0  0  0  0  0  0  0  0  0
  -28.5571  -14.7511   19.7487 N   0  0  0  0  0  0  0  0  0  0  0  0
  -27.9691  -10.2054   17.1020 N   0  0  0  0  0  0  0  0  0  0  0  0
  -24.5722   -7.5417   18.4293 N   0  0  0  0  0  0  0  0  0  0  0  0
  -26.7672  -20.9758   19.0184 N   0  0  0  0  0  0  0  0  0  0  0  0
  -27.2078  -16.1617   18.4251 N   0  0  0  0  0  0  0  0  0  0  0  0
  -26.1963  -33.1082   21.8210 N   0  0  0  0  0  0  0  0  0  0  0  0
  -20.7777  -29.5954   22.9767 N   0  0  0  0  0  0  0  0  0  0  0  0
  -18.8771  -27.4136   20.8100 N   0  3  0  0  0  0  0  0  0  0  0  0
  -26.1841   -7.8444   16.8265 O   0  0  0  0  0  0  0  0  0  0  0  0
  -25.1538  -22.5335   18.3212 O   0  0  0  0  0  0  0  0  0  0  0  0
  -26.2851  -31.0074   22.8217 O   0  0  0  0  0  0  0  0  0  0  0  0
  -22.2822  -31.9823   22.4783 O   0  0  0  0  0  0  0  0  0  0  0  0
  -21.1634  -27.3705   22.4493 O   0  0  0  0  0  0  0  0  0  0  0  0
  -29.2863  -16.8684   19.1750 O   0  0  0  0  0  0  0  0  0  0  0  0
  -21.4199   -8.2401   22.9691 O   0  0  0  0  0  0  0  0  0  0  0  0
  -27.3211  -25.5673   20.1728 O   0  0  0  0  0  0  0  0  0  1  0  0
  -21.1818   -2.8536   24.1238 F   0  0  0  0  0  0  0  0  0  0  0  0
  -23.4511  -18.5103   16.5705 F   0  0  0  0  0  0  0  0  0  0  0  0
  -21.5265   -7.3437   25.5821 F   0  0  0  0  0  0  0  0  0  0  0  0
  1  2  1  0  0  0  0
  1  5  2  0  0  0  0
  2  6  2  0  0  0  0
  3  8  2  0  0  0  0
  3 18  1  0  0  0  0
  4  9  1  0  0  0  0
  4 18  2  0  0  0  0
  5 20  1  0  0  0  0
  6 22  1  0  0  0  0
  7 10  2  0  0  0  0
  7 21  1  0  0  0  0
  8 26  1  0  0  0  0
  9 26  2  0  0  0  0
 10 27  1  0  0  0  0
 11 12  2  0  0  0  0
 11 28  1  0  0  0  0
 12 29  1  0  0  0  0
 13 23  1  0  0  0  0
 13 27  2  0  0  0  0
 14 24  2  0  0  0  0
 14 25  1  0  0  0  0
 15 24  1  0  0  0  0
 15 30  2  0  0  0  0
 16 25  2  0  0  0  0
 16 30  1  0  0  0  0
 17 29  2  0  0  0  0
 17 31  1  0  0  0  0
 18 32  1  0  0  0  0
 19 32  1  0  0  0  0
 19 33  2  0  0  0  0
 19 36  1  0  0  0  0
 20 22  2  0  0  0  0
 20 42  1  0  0  0  0
 21 23  2  0  0  0  0
 21 43  1  0  0  0  0
 22 51  1  0  0  0  0
 23 44  1  0  0  0  0
 24 68  1  0  0  0  0
 25 69  1  0  0  0  0
 26 79  1  0  0  0  0
 27 80  1  0  0  0  0
 28 31  2  0  0  0  0
 28 79  1  0  0  0  0
 29 81  1  0  0  0  0
 30 82  1  0  0  0  0
 31 83  1  0  0  0  0
 32 62  2  0  0  0  0
 33 63  1  0  0  0  0
 33 66  1  0  0  0  0
 34 35  2  0  0  0  0
 34 37  1  0  0  0  0
 35 80  1  0  0  0  0
 36 67  1  0  0  0  0
 36 73  2  0  0  0  0
 37 68  1  0  0  0  0
 37 74  2  0  0  0  0
 38 52  1  0  0  0  0
 38 70  1  0  0  0  0
 38 75  2  0  0  0  0
 39 59  1  0  0  0  0
 39 64  1  0  0  0  0
 39 76  2  0  0  0  0
 40 60  1  0  0  0  0
 40 71  1  0  0  0  0
 40 77  2  0  0  0  0
 41 65  1  0  0  0  0
 41 69  1  0  0  0  0
 41 78  2  0  0  0  0
 42 45  1  0  0  0  0
 43 52  1  0  0  0  0
 44 64  1  0  0  0  0
 45 47  1  0  0  0  0
 46 48  1  0  0  0  0
 46 49  1  0  0  0  0
 47 51  1  0  0  0  0
 48 53  1  0  0  0  0
 49 65  1  0  0  0  0
 50 53  1  0  0  0  0
 50 65  1  0  0  0  0
 51 70  1  0  0  0  0
 52 64  1  0  0  0  0
 53 63  1  0  0  0  0
 54 60  1  0  0  0  0
 55 61  1  0  0  0  0
 56 61  1  0  0  0  0
 57 61  1  0  0  0  0
 58 72  1  0  0  0  0
 59 61  1  0  0  0  0
 59 71  1  0  0  0  0
 60 72  1  0  0  0  0
 62 63  1  0  0  0  0
M  CHG  1  72   1
M  ISO  4  35 101  41 100  69 100  80 101
M  END
> <Batch ID>
0068

> <Smiles>
CNC(C)C(=O)NC(C(=O)N1Cc2cc([101O:1][101CH:1]=CC(=O)Nc3cc(F)cc([100NH:0][100C:0](=O)N4CCCC(n5nc(-c6ccc(Oc7ccc(F)cc7F)cc6)c(C(N)=O)c5N)C4)c3)ccc2CC1C(=O)NC1CCCc2ccccc21)C(C)(C)C

> <Shape>
0.273

> <Color>
0.105

> <Negative vol penalty>
0.000

$$$$

  -OEChem-04042323273D

 85 93  0     1  0  0  0  0  0999 V2000
  -33.2022  -25.5654    8.1385 C   0  0  0  0  0  0  0  0  0  0  0  0
  -33.1833  -24.6565    9.1916 C   0  0  0  0  0  0  0  0  0  0  0  0
  -23.0721   -9.8728   19.9364 C   0  0  0  0  0  0  0  0  0  0  0  0
  -23.8356   -9.8688   22.2286 C   0  0  0  0  0  0  0  0  0  0  0  0
  -32.8608  -26.8983    8.3634 C   0  0  0  0  0  0  0  0  0  0  0  0
  -32.8240  -25.0804   10.4705 C   0  0  0  0  0  0  0  0  0  0  0  0
  -29.7574  -21.8681   14.6875 C   0  0  0  0  0  0  0  0  0  0  0  0
  -22.3277   -8.7192   20.1824 C   0  0  0  0  0  0  0  0  0  0  0  0
  -23.0910   -8.7152   22.4746 C   0  0  0  0  0  0  0  0  0  0  0  0
  -30.1771  -21.1358   15.7972 C   0  0  0  0  0  0  0  0  0  0  0  0
  -19.8631   -7.9175   23.0785 C   0  0  0  0  0  0  0  0  0  0  0  0
  -19.1079   -7.8730   24.2504 C   0  0  0  0  0  0  0  0  0  0  0  0
  -29.6975  -19.2610   22.4018 C   0  0  0  0  0  0  0  0  0  0  0  0
  -29.7564  -23.0459   17.2093 C   0  0  0  0  0  0  0  0  0  0  0  0
  -31.1552  -17.6911   20.6149 C   0  0  0  0  0  0  0  0  0  0  0  0
  -20.3488   -5.9312   24.9763 C   0  0  0  0  0  0  0  0  0  0  0  0
  -23.8262  -10.4476   20.9595 C   0  0  0  0  0  0  0  0  0  0  0  0
  -30.5967  -19.8604   21.5199 C   0  0  0  0  0  0  0  0  0  0  0  0
  -24.1700  -12.9730   20.8503 C   0  0  0  0  0  0  0  0  0  0  0  0
  -32.4878  -27.3367    9.6438 C   0  0  0  0  0  0  0  0  0  0  0  0
  -29.3436  -23.2005   14.8290 C   0  0  0  0  0  0  0  0  0  0  0  0
  -32.4786  -26.4207   10.7130 C   0  0  0  0  0  0  0  0  0  0  0  0
  -29.3294  -23.7921   16.1002 C   0  0  0  0  0  0  0  0  0  0  0  0
  -31.3255  -19.0755   20.6264 C   0  0  0  0  0  0  0  0  0  0  0  0
  -30.2560  -17.0916   21.4968 C   0  0  0  0  0  0  0  0  0  0  0  0
  -22.3371   -8.1404   21.4514 C   0  0  0  0  0  0  0  0  0  0  0  0
  -30.1795  -21.7256   17.0579 C   0  0  0  0  0  0  0  0  0  0  0  0
  -20.8611   -6.9688   22.8554 C   0  0  0  0  0  0  0  0  0  0  0  0
  -19.3508   -6.8799   25.1993 C   0  0  0  0  0  0  0  0  0  0  0  0
  -29.5272  -17.8766   22.3903 C   0  0  0  0  0  0  0  0  0  0  0  0
  -21.1039   -5.9757   23.8043 C   0  0  0  0  0  0  0  0  0  0  0  0
  -24.5959  -11.6390   20.7059 C   0  0  0  0  0  0  0  0  0  0  0  0
  -25.2622  -13.7231   20.4887 C   0  0  0  0  0  0  0  0  0  0  0  0
  -30.7562  -21.2997   21.5502 C   0  0  0  0  0  0  0  0  0  0  0  0
  -22.9006  -13.4880   21.2734 C   0  0  0  0  0  0  0  0  0  0  0  0
  -30.3633  -25.9965   13.7128 C   0  0  0  0  0  0  0  0  0  0  0  0
  -27.6781  -27.1093   15.1528 C   0  0  0  0  0  0  0  0  0  0  0  0
  -25.2858  -26.6815   17.5489 C   0  0  0  0  0  0  0  0  0  0  0  0
  -30.7296  -14.7633   20.6596 C   0  0  0  0  0  0  0  0  0  0  0  0
  -32.1727  -28.7974    9.8478 C   0  0  0  0  0  0  0  0  0  0  0  0
  -28.8683  -23.9683   13.6261 C   0  0  0  0  0  0  0  0  0  0  0  0
  -28.8753  -25.2129   16.3086 C   0  0  0  0  0  0  0  0  0  0  0  0
  -31.4415  -29.0858   11.1564 C   0  0  0  0  0  0  0  0  0  0  0  0
  -29.6095  -12.3610   18.2823 C   0  0  0  0  0  0  0  0  0  0  0  0
  -32.1131  -28.3560   12.3153 C   0  0  0  0  0  0  0  0  0  0  0  0
  -28.1702  -12.0687   18.7128 C   0  0  0  0  0  0  0  0  0  0  0  0
  -30.5266  -12.5836   19.4836 C   0  0  0  0  0  0  0  0  0  0  0  0
  -28.6224  -13.3036   20.8710 C   0  0  0  0  0  0  0  0  0  0  0  0
  -32.0704  -26.8370   12.1095 C   0  0  1  0  0  0  0  0  0  0  0  0
  -28.9555  -25.4803   13.8097 C   0  0  1  0  0  0  0  0  0  0  0  0
  -27.6476  -13.1364   19.6939 C   0  0  2  0  0  0  0  0  0  0  0  0
  -23.2427  -27.7764   18.5102 C   0  0  0  0  0  0  0  0  0  0  0  0
  -29.4469  -29.1178   16.6182 C   0  0  0  0  0  0  0  0  0  0  0  0
  -27.5583  -29.5112   18.2141 C   0  0  0  0  0  0  0  0  0  0  0  0
  -27.2759  -30.0462   15.7941 C   0  0  0  0  0  0  0  0  0  0  0  0
  -23.5698  -24.3823   16.8222 C   0  0  0  0  0  0  0  0  0  0  0  0
  -27.3399  -27.6282   16.5296 C   0  0  1  0  0  0  0  0  0  0  0  0
  -23.7722  -26.7806   17.4900 C   0  0  2  0  0  0  0  0  0  0  0  0
  -27.9157  -29.0497   16.7851 C   0  0  0  0  0  0  0  0  0  0  0  0
  -25.8600  -11.5439   20.2853 N   0  0  0  0  0  0  0  0  0  0  0  0
  -26.2378  -12.8277   20.1621 N   0  0  0  0  0  0  0  0  0  0  0  0
  -28.4258  -25.9244   15.1006 N   0  0  0  0  0  0  0  0  0  0  0  0
  -29.9699  -13.6110   20.3664 N   0  0  0  0  0  0  0  0  0  0  0  0
  -25.4737  -15.0547   20.4213 N   0  0  0  0  0  0  0  0  0  0  0  0
  -29.9867  -22.0842   20.7790 N   0  0  0  0  0  0  0  0  0  0  0  0
  -21.8884  -12.5782   21.6082 N   0  0  0  0  0  0  0  0  0  0  0  0
  -30.0842  -15.6852   21.4832 N   0  0  0  0  0  0  0  0  0  0  0  0
  -32.2599  -19.6755   19.7081 N   0  0  0  0  0  0  0  0  0  0  0  0
  -30.7565  -26.3206   12.4283 N   0  0  0  0  0  0  0  0  0  0  0  0
  -25.8890  -27.5399   16.6541 N   0  0  0  0  0  0  0  0  0  0  0  0
  -31.6738  -21.8642   22.3511 N   0  3  0  0  0  0  0  0  0  0  0  0
  -23.1550  -25.4524   17.7655 N   0  3  0  0  0  0  0  0  0  0  0  0
  -22.6655  -14.7185   21.3366 O   0  0  0  0  0  0  0  0  0  0  0  0
  -31.0420  -26.0950   14.7284 O   0  0  0  0  0  0  0  0  0  0  0  0
  -27.2869  -27.7285   14.1603 O   0  0  0  0  0  0  0  0  0  0  0  0
  -25.8743  -25.9215   18.3148 O   0  0  0  0  0  0  0  0  0  0  0  0
  -31.8581  -14.9331   20.1911 O   0  0  0  0  0  0  0  0  0  0  0  0
  -32.8333  -20.2981   17.2889 O   0  0  0  0  0  0  0  0  0  0  0  0
  -31.0362  -18.5829   17.6956 O   0  0  0  0  0  0  0  0  0  0  0  0
  -21.6105   -7.0148   21.6919 O   0  0  0  0  0  0  0  0  0  0  0  0
  -30.5893  -21.0133   18.1425 O   0  0  0  0  0  0  0  0  0  1  0  0
  -18.6265   -6.8382   26.3253 F   0  0  0  0  0  0  0  0  0  0  0  0
  -28.6600  -17.3115   23.2424 F   0  0  0  0  0  0  0  0  0  0  0  0
  -22.0622   -5.0623   23.5962 F   0  0  0  0  0  0  0  0  0  0  0  0
  -31.7079  -19.8148   18.0700 S   0  0  0  0  0  0  0  0  0  1  0  0
  1  2  1  0  0  0  0
  1  5  2  0  0  0  0
  2  6  2  0  0  0  0
  3  8  2  0  0  0  0
  3 17  1  0  0  0  0
  4  9  1  0  0  0  0
  4 17  2  0  0  0  0
  5 20  1  0  0  0  0
  6 22  1  0  0  0  0
  7 10  2  0  0  0  0
  7 21  1  0  0  0  0
  8 26  1  0  0  0  0
  9 26  2  0  0  0  0
 10 27  1  0  0  0  0
 11 12  2  0  0  0  0
 11 28  1  0  0  0  0
 12 29  1  0  0  0  0
 13 18  1  0  0  0  0
 13 30  2  0  0  0  0
 14 23  1  0  0  0  0
 14 27  2  0  0  0  0
 15 24  1  0  0  0  0
 15 25  2  0  0  0  0
 16 29  2  0  0  0  0
 16 31  1  0  0  0  0
 17 32  1  0  0  0  0
 18 24  2  0  0  0  0
 18 34  1  0  0  0  0
 19 32  1  0  0  0  0
 19 33  2  0  0  0  0
 19 35  1  0  0  0  0
 20 22  2  0  0  0  0
 20 40  1  0  0  0  0
 21 23  2  0  0  0  0
 21 41  1  0  0  0  0
 22 49  1  0  0  0  0
 23 42  1  0  0  0  0
 24 68  1  0  0  0  0
 25 30  1  0  0  0  0
 25 67  1  0  0  0  0
 26 80  1  0  0  0  0
 27 81  1  0  0  0  0
 28 31  2  0  0  0  0
 28 80  1  0  0  0  0
 29 82  1  0  0  0  0
 30 83  1  0  0  0  0
 31 84  1  0  0  0  0
 32 60  2  0  0  0  0
 33 61  1  0  0  0  0
 33 64  1  0  0  0  0
 34 65  1  0  0  0  0
 34 71  2  0  0  0  0
 35 66  1  0  0  0  0
 35 73  2  0  0  0  0
 36 50  1  0  0  0  0
 36 69  1  0  0  0  0
 36 74  2  0  0  0  0
 37 57  1  0  0  0  0
 37 62  1  0  0  0  0
 37 75  2  0  0  0  0
 38 58  1  0  0  0  0
 38 70  1  0  0  0  0
 38 76  2  0  0  0  0
 39 63  1  0  0  0  0
 39 67  1  0  0  0  0
 39 77  2  0  0  0  0
 40 43  1  0  0  0  0
 41 50  1  0  0  0  0
 42 62  1  0  0  0  0
 43 45  1  0  0  0  0
 44 46  1  0  0  0  0
 44 47  1  0  0  0  0
 45 49  1  0  0  0  0
 46 51  1  0  0  0  0
 47 63  1  0  0  0  0
 48 51  1  0  0  0  0
 48 63  1  0  0  0  0
 49 69  1  0  0  0  0
 50 62  1  0  0  0  0
 51 61  1  0  0  0  0
 52 58  1  0  0  0  0
 53 59  1  0  0  0  0
 54 59  1  0  0  0  0
 55 59  1  0  0  0  0
 56 72  1  0  0  0  0
 57 59  1  0  0  0  0
 57 70  1  0  0  0  0
 58 72  1  0  0  0  0
 60 61  1  0  0  0  0
 68 85  1  0  0  0  0
 78 85  2  0  0  0  0
 79 85  2  0  0  0  0
 81 85  1  0  0  0  0
M  CHG  2  71   1  72   1
M  ISO  4  39 100  67 100  81 101  85 101
M  END
> <Batch ID>
0068

> <Smiles>
CNC(C)C(=O)NC(C(=O)N1Cc2cc([101O:1][101S:1](=O)(=O)Nc3cc([100NH:0][100C:0](=O)N4CCCC(n5nc(-c6ccc(Oc7ccc(F)cc7F)cc6)c(C(N)=O)c5N)C4)c(F)cc3C(=N)N)ccc2CC1C(=O)NC1CCCc2ccccc21)C(C)(C)C

> <Shape>
0.208

> <Color>
0.180

> <Negative vol penalty>
0.000

$$$$

  -OEChem-04042323273D

 85 93  0     1  0  0  0  0  0999 V2000
  -30.3442  -35.2063   18.7621 C   0  0  0  0  0  0  0  0  0  0  0  0
  -30.2363  -33.8618   19.1027 C   0  0  0  0  0  0  0  0  0  0  0  0
  -24.9590   -8.4294   21.4411 C   0  0  0  0  0  0  0  0  0  0  0  0
  -23.6003   -9.5698   19.8009 C   0  0  0  0  0  0  0  0  0  0  0  0
  -29.5619  -36.1555   19.4185 C   0  0  0  0  0  0  0  0  0  0  0  0
  -29.3467  -33.4658   20.1008 C   0  0  0  0  0  0  0  0  0  0  0  0
  -26.6686  -29.3686   18.8023 C   0  0  0  0  0  0  0  0  0  0  0  0
  -23.9022   -7.5606   21.7126 C   0  0  0  0  0  0  0  0  0  0  0  0
  -22.5434   -8.7009   20.0723 C   0  0  0  0  0  0  0  0  0  0  0  0
  -27.3094  -28.1338   18.8937 C   0  0  0  0  0  0  0  0  0  0  0  0
  -21.0221   -7.6183   23.4808 C   0  0  0  0  0  0  0  0  0  0  0  0
  -20.7331   -7.3485   24.8184 C   0  0  0  0  0  0  0  0  0  0  0  0
  -26.2121  -27.7271   21.0031 C   0  0  0  0  0  0  0  0  0  0  0  0
  -29.0701  -19.1015   15.3966 C   0  0  0  0  0  0  0  0  0  0  0  0
  -28.6081  -18.7232   17.7377 C   0  0  0  0  0  0  0  0  0  0  0  0
  -21.1511   -5.0000   24.4350 C   0  0  0  0  0  0  0  0  0  0  0  0
  -24.8081   -9.4341   20.4853 C   0  0  0  0  0  0  0  0  0  0  0  0
  -26.9150  -10.1624   19.2450 C   0  0  0  0  0  0  0  0  0  0  0  0
  -28.6552  -35.7698   20.4185 C   0  0  0  0  0  0  0  0  0  0  0  0
  -25.8017  -29.7974   19.8177 C   0  0  0  0  0  0  0  0  0  0  0  0
  -28.5524  -34.4108   20.7721 C   0  0  0  0  0  0  0  0  0  0  0  0
  -25.5595  -28.9667   20.9211 C   0  0  0  0  0  0  0  0  0  0  0  0
  -29.1937  -17.7263   15.1988 C   0  0  0  0  0  0  0  0  0  0  0  0
  -28.7774  -19.6000   16.6661 C   0  0  0  0  0  0  0  0  0  0  0  0
  -28.7317  -17.3480   17.5399 C   0  0  0  0  0  0  0  0  0  0  0  0
  -22.6944   -7.6963   21.0282 C   0  0  0  0  0  0  0  0  0  0  0  0
  -27.0835  -27.3141   19.9956 C   0  0  0  0  0  0  0  0  0  0  0  0
  -21.3756   -6.5789   22.6202 C   0  0  0  0  0  0  0  0  0  0  0  0
  -20.7977   -6.0394   25.2956 C   0  0  0  0  0  0  0  0  0  0  0  0
  -21.4401   -5.2698   23.0974 C   0  0  0  0  0  0  0  0  0  0  0  0
  -29.0245  -16.8495   16.2704 C   0  0  0  0  0  0  0  0  0  0  0  0
  -25.8993  -10.3323   20.2049 C   0  0  0  0  0  0  0  0  0  0  0  0
  -27.6992  -11.2827   19.3730 C   0  0  0  0  0  0  0  0  0  0  0  0
  -27.1302   -9.0880   18.3204 C   0  0  0  0  0  0  0  0  0  0  0  0
  -25.7619  -32.2416   21.8494 C   0  0  0  0  0  0  0  0  0  0  0  0
  -22.8381  -31.0590   22.6076 C   0  0  0  0  0  0  0  0  0  0  0  0
  -28.3656  -21.6593   18.0561 C   0  0  0  0  0  0  0  0  0  0  0  0
  -20.7294  -28.3768   22.6873 C   0  0  0  0  0  0  0  0  0  0  0  0
  -28.2661  -16.7914   19.9523 C   0  0  0  0  0  0  0  0  0  0  0  0
  -27.8650  -36.8374   21.1329 C   0  0  0  0  0  0  0  0  0  0  0  0
  -25.0974  -31.1205   19.6913 C   0  0  0  0  0  0  0  0  0  0  0  0
  -24.6223  -29.3719   22.0283 C   0  0  0  0  0  0  0  0  0  0  0  0
  -26.6755  -36.2916   21.9186 C   0  0  0  0  0  0  0  0  0  0  0  0
  -27.7283  -14.8958   22.9179 C   0  0  0  0  0  0  0  0  0  0  0  0
  -27.0907  -35.0745   22.7390 C   0  0  0  0  0  0  0  0  0  0  0  0
  -27.2880  -13.5256   22.3975 C   0  0  0  0  0  0  0  0  0  0  0  0
  -27.1820  -16.0323   22.0555 C   0  0  0  0  0  0  0  0  0  0  0  0
  -27.0252  -14.5433   20.0991 C   0  0  0  0  0  0  0  0  0  0  0  0
  -27.5810  -33.9392   21.8323 C   0  0  1  0  0  0  0  0  0  0  0  0
  -24.6328  -31.6805   21.0321 C   0  0  1  0  0  0  0  0  0  0  0  0
  -27.6045  -13.3641   20.8977 C   0  0  2  0  0  0  0  0  0  0  0  0
  -29.5060  -17.1969   13.8396 C   0  0  0  0  0  0  0  0  0  0  0  0
  -18.4172  -27.7094   23.3983 C   0  0  0  0  0  0  0  0  0  0  0  0
  -23.7477  -31.0193   25.5199 C   0  0  0  0  0  0  0  0  0  0  0  0
  -21.8238  -29.4996   26.0273 C   0  0  0  0  0  0  0  0  0  0  0  0
  -21.3987  -31.8037   25.1712 C   0  0  0  0  0  0  0  0  0  0  0  0
  -19.9643  -27.6481   19.9228 C   0  0  0  0  0  0  0  0  0  0  0  0
  -28.3216  -23.1642   17.8301 C   0  0  0  0  0  0  0  0  0  0  0  0
  -28.0110  -23.9408   19.1049 C   0  0  0  0  0  0  0  0  0  0  0  0
  -28.0194  -25.4434   18.8640 C   0  0  0  0  0  0  0  0  0  1  0  0
  -22.3186  -30.0482   23.6014 C   0  0  1  0  0  0  0  0  0  0  0  0
  -19.2822  -28.2201   22.2566 C   0  0  2  0  0  0  0  0  0  0  0  0
  -22.3414  -30.5856   25.0602 C   0  0  0  0  0  0  0  0  0  0  0  0
  -26.0244  -11.4708   20.8920 N   0  0  0  0  0  0  0  0  0  0  0  0
  -27.1281  -12.0264   20.3634 N   0  0  0  0  0  0  0  0  0  0  0  0
  -23.9625  -30.6774   21.8620 N   0  0  0  0  0  0  0  0  0  0  0  0
  -27.5238  -15.8139   20.6483 N   0  0  0  0  0  0  0  0  0  0  0  0
  -28.8148  -11.6943   18.7339 N   0  0  0  0  0  0  0  0  0  0  0  0
  -26.2290   -8.0146   18.3217 N   0  0  0  0  0  0  0  0  0  0  0  0
  -28.6518  -20.9952   16.8666 N   0  0  0  0  0  0  0  0  0  0  0  0
  -28.5596  -16.4594   18.6301 N   0  0  0  0  0  0  0  0  0  0  0  0
  -26.4585  -33.2579   21.2237 N   0  0  0  0  0  0  0  0  0  0  0  0
  -20.9950  -29.6554   23.1299 N   0  0  0  0  0  0  0  0  0  0  0  0
  -19.1805  -27.2580   21.1230 N   0  3  0  0  0  0  0  0  0  0  0  0
  -28.1025   -9.0722   17.5280 O   0  0  0  0  0  0  0  0  0  0  0  0
  -25.9837  -31.7873   22.9657 O   0  0  0  0  0  0  0  0  0  0  0  0
  -22.2631  -32.1441   22.4920 O   0  0  0  0  0  0  0  0  0  0  0  0
  -28.1670  -21.1604   19.1589 O   0  0  0  0  0  0  0  0  0  0  0  0
  -21.5420  -27.4560   22.6397 O   0  0  0  0  0  0  0  0  0  0  0  0
  -28.6391  -17.8332   20.4977 O   0  0  0  0  0  0  0  0  0  0  0  0
  -21.6629   -6.8485   21.2926 O   0  0  0  0  0  0  0  0  0  0  0  0
  -27.7082  -26.1086   20.0875 O   0  0  0  0  0  0  0  0  0  1  0  0
  -20.5216   -5.7807   26.5805 F   0  0  0  0  0  0  0  0  0  0  0  0
  -21.7802   -4.2673   22.2757 F   0  0  0  0  0  0  0  0  0  0  0  0
  -29.1443  -15.5273   16.0778 F   0  0  0  0  0  0  0  0  0  0  0  0
  1  2  1  0  0  0  0
  1  5  2  0  0  0  0
  2  6  2  0  0  0  0
  3  8  2  0  0  0  0
  3 17  1  0  0  0  0
  4  9  1  0  0  0  0
  4 17  2  0  0  0  0
  5 19  1  0  0  0  0
  6 21  1  0  0  0  0
  7 10  2  0  0  0  0
  7 20  1  0  0  0  0
  8 26  1  0  0  0  0
  9 26  2  0  0  0  0
 10 27  1  0  0  0  0
 11 12  2  0  0  0  0
 11 28  1  0  0  0  0
 12 29  1  0  0  0  0
 13 22  1  0  0  0  0
 13 27  2  0  0  0  0
 14 23  2  0  0  0  0
 14 24  1  0  0  0  0
 15 24  2  0  0  0  0
 15 25  1  0  0  0  0
 16 29  2  0  0  0  0
 16 30  1  0  0  0  0
 17 32  1  0  0  0  0
 18 32  1  0  0  0  0
 18 33  2  0  0  0  0
 18 34  1  0  0  0  0
 19 21  2  0  0  0  0
 19 40  1  0  0  0  0
 20 22  2  0  0  0  0
 20 41  1  0  0  0  0
 21 49  1  0  0  0  0
 22 42  1  0  0  0  0
 23 31  1  0  0  0  0
 23 52  1  0  0  0  0
 24 70  1  0  0  0  0
 25 31  2  0  0  0  0
 25 71  1  0  0  0  0
 26 81  1  0  0  0  0
 27 82  1  0  0  0  0
 28 30  2  0  0  0  0
 28 81  1  0  0  0  0
 29 83  1  0  0  0  0
 30 84  1  0  0  0  0
 31 85  1  0  0  0  0
 32 64  2  0  0  0  0
 33 65  1  0  0  0  0
 33 68  1  0  0  0  0
 34 69  1  0  0  0  0
 34 75  2  0  0  0  0
 35 50  1  0  0  0  0
 35 72  1  0  0  0  0
 35 76  2  0  0  0  0
 36 61  1  0  0  0  0
 36 66  1  0  0  0  0
 36 77  2  0  0  0  0
 37 58  1  0  0  0  0
 37 70  1  0  0  0  0
 37 78  2  0  0  0  0
 38 62  1  0  0  0  0
 38 73  1  0  0  0  0
 38 79  2  0  0  0  0
 39 67  1  0  0  0  0
 39 71  1  0  0  0  0
 39 80  2  0  0  0  0
 40 43  1  0  0  0  0
 41 50  1  0  0  0  0
 42 66  1  0  0  0  0
 43 45  1  0  0  0  0
 44 46  1  0  0  0  0
 44 47  1  0  0  0  0
 45 49  1  0  0  0  0
 46 51  1  0  0  0  0
 47 67  1  0  0  0  0
 48 51  1  0  0  0  0
 48 67  1  0  0  0  0
 49 72  1  0  0  0  0
 50 66  1  0  0  0  0
 51 65  1  0  0  0  0
 53 62  1  0  0  0  0
 54 63  1  0  0  0  0
 55 63  1  0  0  0  0
 56 63  1  0  0  0  0
 57 74  1  0  0  0  0
 58 59  1  0  0  0  0
 59 60  1  0  0  0  0
 60 82  1  0  0  0  0
 61 63  1  0  0  0  0
 61 73  1  0  0  0  0
 62 74  1  0  0  0  0
 64 65  1  0  0  0  0
M  CHG  1  74   1
M  ISO  4  39 100  60 101  71 100  82 101
M  END
> <Batch ID>
0068

> <Smiles>
CNC(C)C(=O)NC(C(=O)N1Cc2cc([101O:1][101CH2:1]CCC(=O)Nc3cc(C)c(F)c([100NH:0][100C:0](=O)N4CCCC(n5nc(-c6ccc(Oc7ccc(F)cc7F)cc6)c(C(N)=O)c5N)C4)c3)ccc2CC1C(=O)NC1CCCc2ccccc21)C(C)(C)C

> <Shape>
0.262

> <Color>
0.100

> <Negative vol penalty>
0.000

$$$$

  -OEChem-04042323273D

 88 97  0     1  0  0  0  0  0999 V2000
  -29.5043  -27.9057   26.8085 C   0  0  0  0  0  0  0  0  0  0  0  0
  -29.0571  -27.4133   25.5866 C   0  0  0  0  0  0  0  0  0  0  0  0
  -24.7592   -9.0700   21.9314 C   0  0  0  0  0  0  0  0  0  0  0  0
  -23.2397  -10.4043   20.6095 C   0  0  0  0  0  0  0  0  0  0  0  0
  -28.6180  -28.5641   27.6599 C   0  0  0  0  0  0  0  0  0  0  0  0
  -27.7229  -27.5781   25.2159 C   0  0  0  0  0  0  0  0  0  0  0  0
  -27.2146  -29.0901   20.4096 C   0  0  0  0  0  0  0  0  0  0  0  0
  -26.8258  -21.5552   20.5502 C   0  0  0  0  0  0  0  0  0  0  0  0
  -26.7998  -20.3902   21.3169 C   0  0  0  0  0  0  0  0  0  0  0  0
  -23.8463   -8.0156   21.9166 C   0  0  0  0  0  0  0  0  0  0  0  0
  -22.3266   -9.3499   20.5947 C   0  0  0  0  0  0  0  0  0  0  0  0
  -27.3628  -28.1210   19.4182 C   0  0  0  0  0  0  0  0  0  0  0  0
  -21.7618   -5.0998   22.5303 C   0  0  0  0  0  0  0  0  0  0  0  0
  -21.5199   -4.4324   23.7310 C   0  0  0  0  0  0  0  0  0  0  0  0
  -24.9636  -27.9540   19.2312 C   0  0  0  0  0  0  0  0  0  0  0  0
  -20.7525   -6.4969   24.7239 C   0  0  0  0  0  0  0  0  0  0  0  0
  -24.4559  -10.2644   21.2779 C   0  0  0  0  0  0  0  0  0  0  0  0
  -26.4255  -11.6030   20.3633 C   0  0  0  0  0  0  0  0  0  0  0  0
  -27.2746  -28.7455   27.2952 C   0  0  0  0  0  0  0  0  0  0  0  0
  -25.9375  -29.4911   20.8276 C   0  0  0  0  0  0  0  0  0  0  0  0
  -26.8175  -28.2384   26.0639 C   0  0  0  0  0  0  0  0  0  0  0  0
  -24.8018  -28.9301   20.2263 C   0  0  0  0  0  0  0  0  0  0  0  0
  -27.5180  -20.2720   18.6238 C   0  0  0  0  0  0  0  0  0  0  0  0
  -27.1849  -21.4961   19.2036 C   0  0  0  0  0  0  0  0  0  0  0  0
  -27.1330  -19.1661   20.7370 C   0  0  0  0  0  0  0  0  0  0  0  0
  -27.4921  -19.1070   19.3904 C   0  0  0  0  0  0  0  0  0  0  0  0
  -22.6300   -8.1555   21.2482 C   0  0  0  0  0  0  0  0  0  0  0  0
  -26.2372  -27.5508   18.8309 C   0  0  0  0  0  0  0  0  0  0  0  0
  -21.4990   -6.4657   22.4264 C   0  0  0  0  0  0  0  0  0  0  0  0
  -21.0152   -5.1310   24.8278 C   0  0  0  0  0  0  0  0  0  0  0  0
  -20.9944   -7.1643   23.5231 C   0  0  0  0  0  0  0  0  0  0  0  0
  -25.3984  -11.3542   21.2933 C   0  0  0  0  0  0  0  0  0  0  0  0
  -27.0322  -12.7476   20.8198 C   0  0  0  0  0  0  0  0  0  0  0  0
  -28.1934  -23.2929   17.7886 C   0  0  0  0  0  0  0  0  0  0  0  0
  -28.8548  -17.0172   19.1696 C   0  0  0  0  0  0  0  0  0  0  0  0
  -26.7980  -10.8655   19.1916 C   0  0  0  0  0  0  0  0  0  0  0  0
  -24.3406  -29.3865   23.5740 C   0  0  0  0  0  0  0  0  0  0  0  0
  -22.1460  -31.1042   21.9140 C   0  0  0  0  0  0  0  0  0  0  0  0
  -20.8326  -31.9707   18.8856 C   0  0  0  0  0  0  0  0  0  0  0  0
  -26.7631  -17.9099   22.8891 C   0  0  0  0  0  0  0  0  0  0  0  0
  -26.3430  -29.4221   28.2694 C   0  0  0  0  0  0  0  0  0  0  0  0
  -25.7947  -30.5569   21.8794 C   0  0  0  0  0  0  0  0  0  0  0  0
  -23.4087  -29.3407   20.6251 C   0  0  0  0  0  0  0  0  0  0  0  0
  -25.0326  -29.8850   27.6378 C   0  0  0  0  0  0  0  0  0  0  0  0
  -26.5252  -15.2188   25.2082 C   0  0  0  0  0  0  0  0  0  0  0  0
  -24.4395  -28.7807   26.7686 C   0  0  0  0  0  0  0  0  0  0  0  0
  -26.2953  -13.9939   24.3200 C   0  0  0  0  0  0  0  0  0  0  0  0
  -25.8114  -16.4553   24.6649 C   0  0  0  0  0  0  0  0  0  0  0  0
  -25.8759  -15.5512   22.3742 C   0  0  0  0  0  0  0  0  0  0  0  0
  -26.1440  -23.6119   18.1589 C   0  0  0  0  0  0  0  0  0  0  0  0
  -25.3836  -28.4193   25.6155 C   0  0  1  0  0  0  0  0  0  0  0  0
  -24.4455  -30.5176   22.5905 C   0  0  1  0  0  0  0  0  0  0  0  0
  -26.6286  -14.2963   22.8458 C   0  0  2  0  0  0  0  0  0  0  0  0
  -27.2086  -24.4163   17.3540 C   0  0  2  0  0  0  0  0  0  0  0  0
  -27.9020  -20.2112   17.1774 C   0  0  0  0  0  0  0  0  0  0  0  0
  -26.9606  -24.4716   15.8506 C   0  0  0  0  0  0  0  0  0  0  0  0
  -19.0205  -33.3643   17.8504 C   0  0  0  0  0  0  0  0  0  0  0  0
  -20.0759  -29.0192   22.7368 C   0  0  0  0  0  0  0  0  0  0  0  0
  -18.5699  -29.9091   20.9456 C   0  0  0  0  0  0  0  0  0  0  0  0
  -19.2690  -31.3844   22.8318 C   0  0  0  0  0  0  0  0  0  0  0  0
  -22.7901  -33.6238   17.4042 C   0  0  0  0  0  0  0  0  0  0  0  0
  -27.5396  -25.7765   17.9299 C   0  0  0  0  0  0  0  0  0  1  0  0
  -20.9541  -30.7666   21.0512 C   0  0  1  0  0  0  0  0  0  0  0  0
  -20.4751  -33.3214   18.2920 C   0  0  2  0  0  0  0  0  0  0  0  0
  -19.7433  -30.2605   21.8850 C   0  0  0  0  0  0  0  0  0  0  0  0
  -25.3522  -12.2672   22.2671 N   0  0  0  0  0  0  0  0  0  0  0  0
  -26.3580  -13.1009   21.9516 N   0  0  0  0  0  0  0  0  0  0  0  0
  -27.2028  -22.6571   18.4666 N   0  0  0  0  0  0  0  0  0  0  0  0
  -23.3211  -30.3820   21.6623 N   0  0  0  0  0  0  0  0  0  0  0  0
  -26.1786  -16.6821   23.2654 N   0  0  0  0  0  0  0  0  0  0  0  0
  -28.0712  -13.4763   20.3596 N   0  0  0  0  0  0  0  0  0  0  0  0
  -26.0690   -9.7131   18.8677 N   0  0  0  0  0  0  0  0  0  0  0  0
  -27.8285  -17.8794   18.8071 N   0  0  0  0  0  0  0  0  0  0  0  0
  -27.0998  -17.9983   21.5387 N   0  0  0  0  0  0  0  0  0  0  0  0
  -25.3025  -29.4123   24.5658 N   0  0  0  0  0  0  0  0  0  0  0  0
  -20.6758  -31.9573   20.2555 N   0  0  0  0  0  0  0  0  0  0  0  0
  -21.3341  -33.6111   17.1092 N   0  3  0  0  0  0  0  0  0  0  0  0
  -29.3653  -23.0444   17.6182 O   0  0  0  0  0  0  0  0  0  0  0  0
  -29.6867  -17.1215   20.0600 O   0  0  0  0  0  0  0  0  0  0  0  0
  -27.7594  -11.2088   18.4627 O   0  0  0  0  0  0  0  0  0  0  0  0
  -23.4518  -28.5530   23.4437 O   0  0  0  0  0  0  0  0  0  0  0  0
  -22.0404  -31.9816   22.7746 O   0  0  0  0  0  0  0  0  0  0  0  0
  -21.2094  -31.0214   18.2021 O   0  0  0  0  0  0  0  0  0  0  0  0
  -26.9761  -18.8058   23.7100 O   0  0  0  0  0  0  0  0  0  0  0  0
  -21.7390   -7.1267   21.2334 O   0  0  0  0  0  0  0  0  0  0  0  0
  -26.3791  -26.6043   17.8635 O   0  0  0  0  0  0  0  0  0  1  0  0
  -20.7816   -4.4897   25.9803 F   0  0  0  0  0  0  0  0  0  0  0  0
  -20.7389   -8.4764   23.4290 F   0  0  0  0  0  0  0  0  0  0  0  0
  1  2  1  0  0  0  0
  1  5  2  0  0  0  0
  2  6  2  0  0  0  0
  3 10  2  0  0  0  0
  3 17  1  0  0  0  0
  4 11  1  0  0  0  0
  4 17  2  0  0  0  0
  5 19  1  0  0  0  0
  6 21  1  0  0  0  0
  7 12  2  0  0  0  0
  7 20  1  0  0  0  0
  8  9  2  0  0  0  0
  8 24  1  0  0  0  0
  9 25  1  0  0  0  0
 10 27  1  0  0  0  0
 11 27  2  0  0  0  0
 12 28  1  0  0  0  0
 13 14  2  0  0  0  0
 13 29  1  0  0  0  0
 14 30  1  0  0  0  0
 15 22  1  0  0  0  0
 15 28  2  0  0  0  0
 16 30  2  0  0  0  0
 16 31  1  0  0  0  0
 17 32  1  0  0  0  0
 18 32  1  0  0  0  0
 18 33  2  0  0  0  0
 18 36  1  0  0  0  0
 19 21  2  0  0  0  0
 19 41  1  0  0  0  0
 20 22  2  0  0  0  0
 20 42  1  0  0  0  0
 21 51  1  0  0  0  0
 22 43  1  0  0  0  0
 23 24  2  0  0  0  0
 23 26  1  0  0  0  0
 23 55  1  0  0  0  0
 24 68  1  0  0  0  0
 25 26  2  0  0  0  0
 25 74  1  0  0  0  0
 26 73  1  0  0  0  0
 27 85  1  0  0  0  0
 28 86  1  0  0  0  0
 29 31  2  0  0  0  0
 29 85  1  0  0  0  0
 30 87  1  0  0  0  0
 31 88  1  0  0  0  0
 32 66  2  0  0  0  0
 33 67  1  0  0  0  0
 33 71  1  0  0  0  0
 34 54  1  0  0  0  0
 34 68  1  0  0  0  0
 34 78  2  0  0  0  0
 35 73  1  0  0  0  0
 35 79  2  0  0  0  0
 36 72  1  0  0  0  0
 36 80  2  0  0  0  0
 37 52  1  0  0  0  0
 37 75  1  0  0  0  0
 37 81  2  0  0  0  0
 38 63  1  0  0  0  0
 38 69  1  0  0  0  0
 38 82  2  0  0  0  0
 39 64  1  0  0  0  0
 39 76  1  0  0  0  0
 39 83  2  0  0  0  0
 40 70  1  0  0  0  0
 40 74  1  0  0  0  0
 40 84  2  0  0  0  0
 41 44  1  0  0  0  0
 42 52  1  0  0  0  0
 43 69  1  0  0  0  0
 44 46  1  0  0  0  0
 45 47  1  0  0  0  0
 45 48  1  0  0  0  0
 46 51  1  0  0  0  0
 47 53  1  0  0  0  0
 48 70  1  0  0  0  0
 49 53  1  0  0  0  0
 49 70  1  0  0  0  0
 50 54  1  0  0  0  0
 50 68  1  0  0  0  0
 51 75  1  0  0  0  0
 52 69  1  0  0  0  0
 53 67  1  0  0  0  0
 54 56  1  0  0  0  0
 54 62  1  0  0  0  0
 57 64  1  0  0  0  0
 58 65  1  0  0  0  0
 59 65  1  0  0  0  0
 60 65  1  0  0  0  0
 61 77  1  0  0  0  0
 62 86  1  0  0  0  0
 63 65  1  0  0  0  0
 63 76  1  0  0  0  0
 64 77  1  0  0  0  0
 66 67  1  0  0  0  0
M  CHG  1  77   1
M  ISO  4  40 100  62 101  74 100  86 101
M  END
> <Batch ID>
0068

> <Smiles>
CNC(C)C(=O)NC(C(=O)N1Cc2cc([101O:1][101CH2:1]C3(C)CN(c4ccc([100NH:0][100C:0](=O)N5CCCC(n6nc(-c7ccc(Oc8ccc(F)cc8F)cc7)c(C(N)=O)c6N)C5)c(NC=O)c4C)C3=O)ccc2CC1C(=O)NC1CCCc2ccccc21)C(C)(C)C

> <Shape>
0.247

> <Color>
0.114

> <Negative vol penalty>
0.000

$$$$

  -OEChem-04042323273D

 88 96  0     1  0  0  0  0  0999 V2000
  -23.8147   -8.0820   21.9089 C   0  0  0  0  0  0  0  0  0  0  0  0
  -24.4979   -9.0923   21.2396 C   0  0  0  0  0  0  0  0  0  0  0  0
  -22.0545  -28.1587   21.3552 C   0  0  0  0  0  0  0  0  0  0  0  0
  -22.9810  -27.0964   23.3174 C   0  0  0  0  0  0  0  0  0  0  0  0
  -22.4819   -8.2669   22.2740 C   0  0  0  0  0  0  0  0  0  0  0  0
  -23.8483  -10.2878   20.9340 C   0  0  0  0  0  0  0  0  0  0  0  0
  -26.6809  -14.3568   21.9658 C   0  0  0  0  0  0  0  0  0  0  0  0
  -20.7728  -28.0286   21.8898 C   0  0  0  0  0  0  0  0  0  0  0  0
  -21.6992  -26.9662   23.8521 C   0  0  0  0  0  0  0  0  0  0  0  0
  -27.6870  -14.6795   21.0562 C   0  0  0  0  0  0  0  0  0  0  0  0
  -18.8637  -29.6020   24.1947 C   0  0  0  0  0  0  0  0  0  0  0  0
  -18.0149  -30.7063   24.1199 C   0  0  0  0  0  0  0  0  0  0  0  0
  -26.2645  -16.3726   20.0925 C   0  0  0  0  0  0  0  0  0  0  0  0
  -30.0272  -19.7074   22.8496 C   0  0  0  0  0  0  0  0  0  0  0  0
  -29.3140  -22.0155   22.8258 C   0  0  0  0  0  0  0  0  0  0  0  0
  -29.5960  -20.8168   20.7472 C   0  0  0  0  0  0  0  0  0  0  0  0
  -16.4410  -29.4089   22.8250 C   0  0  0  0  0  0  0  0  0  0  0  0
  -23.1586  -27.6926   22.0690 C   0  0  0  0  0  0  0  0  0  0  0  0
  -25.3685  -28.9076   21.6845 C   0  0  0  0  0  0  0  0  0  0  0  0
  -21.8185   -9.4690   21.9814 C   0  0  0  0  0  0  0  0  0  0  0  0
  -25.4529  -15.0334   21.9384 C   0  0  0  0  0  0  0  0  0  0  0  0
  -22.5050  -10.4884   21.2944 C   0  0  0  0  0  0  0  0  0  0  0  0
  -25.2453  -16.0584   21.0045 C   0  0  0  0  0  0  0  0  0  0  0  0
  -29.6955  -20.8763   23.5345 C   0  0  0  0  0  0  0  0  0  0  0  0
  -29.9775  -19.6776   21.4559 C   0  0  0  0  0  0  0  0  0  0  0  0
  -29.2642  -21.9858   21.4321 C   0  0  0  0  0  0  0  0  0  0  0  0
  -20.5952  -27.4324   23.1383 C   0  0  0  0  0  0  0  0  0  0  0  0
  -27.4779  -15.6855   20.1175 C   0  0  0  0  0  0  0  0  0  0  0  0
  -18.5012  -28.4011   23.5846 C   0  0  0  0  0  0  0  0  0  0  0  0
  -16.8036  -30.6097   23.4351 C   0  0  0  0  0  0  0  0  0  0  0  0
  -17.2899  -28.3046   22.8997 C   0  0  0  0  0  0  0  0  0  0  0  0
  -24.4828  -27.8263   21.5170 C   0  0  0  0  0  0  0  0  0  0  0  0
  -26.4841  -28.5521   20.9664 C   0  0  0  0  0  0  0  0  0  0  0  0
  -25.1981  -30.1245   22.4233 C   0  0  0  0  0  0  0  0  0  0  0  0
  -22.4324  -14.1799   21.4367 C   0  0  0  0  0  0  0  0  0  0  0  0
  -21.8350  -17.2633   22.2480 C   0  0  0  0  0  0  0  0  0  0  0  0
  -22.9784  -20.4700   22.4868 C   0  0  0  0  0  0  0  0  0  0  0  0
  -30.3210  -18.2814   19.3848 C   0  0  0  0  0  0  0  0  0  0  0  0
  -28.7767  -23.2828   19.3282 C   0  0  0  0  0  0  0  0  0  0  0  0
  -20.3634   -9.6044   22.3542 C   0  0  0  0  0  0  0  0  0  0  0  0
  -24.3876  -14.6916   22.9438 C   0  0  0  0  0  0  0  0  0  0  0  0
  -23.9524  -16.8287   20.9467 C   0  0  0  0  0  0  0  0  0  0  0  0
  -19.8588  -11.0449   22.3253 C   0  0  0  0  0  0  0  0  0  0  0  0
  -27.8255  -25.9534   17.1741 C   0  0  0  0  0  0  0  0  0  0  0  0
  -20.3121  -11.7438   21.0475 C   0  0  0  0  0  0  0  0  0  0  0  0
  -26.9459  -26.8384   18.0603 C   0  0  0  0  0  0  0  0  0  0  0  0
  -27.6225  -24.4695   17.4750 C   0  0  0  0  0  0  0  0  0  0  0  0
  -26.8963  -24.9805   19.7730 C   0  0  0  0  0  0  0  0  0  0  0  0
  -21.8421  -11.8089   20.9673 C   0  0  1  0  0  0  0  0  0  0  0  0
  -22.9876  -15.0949   22.4913 C   0  0  1  0  0  0  0  0  0  0  0  0
  -27.1137  -26.4863   19.5515 C   0  0  2  0  0  0  0  0  0  0  0  0
  -22.2479  -22.7776   23.1489 C   0  0  0  0  0  0  0  0  0  0  0  0
  -31.1228  -21.3379   25.5367 C   0  0  0  0  0  0  0  0  0  0  0  0
  -32.1758  -16.5771   19.4968 C   0  0  0  0  0  0  0  0  0  0  0  0
  -30.6953  -16.6757   17.4583 C   0  0  0  0  0  0  0  0  0  0  0  0
  -20.2821  -17.5191   19.6340 C   0  0  0  0  0  0  0  0  0  0  0  0
  -20.4001  -20.0070   19.8883 C   0  0  0  0  0  0  0  0  0  0  0  0
  -19.2094  -18.6353   21.5981 C   0  0  0  0  0  0  0  0  0  0  0  0
  -25.0177  -20.6275   24.6258 C   0  0  0  0  0  0  0  0  0  0  0  0
  -29.8069  -15.8108   19.6527 C   0  0  0  0  0  0  0  0  0  1  0  0
  -21.7346  -18.5671   21.4936 C   0  0  1  0  0  0  0  0  0  0  0  0
  -22.9020  -21.4854   23.6126 C   0  0  2  0  0  0  0  0  0  0  0  0
  -29.7501  -20.9080   25.0249 C   0  0  0  0  0  0  0  0  0  0  0  0
  -30.7482  -16.8430   18.9872 C   0  0  0  0  0  0  0  0  0  0  0  0
  -20.4303  -18.6665   20.6531 C   0  0  0  0  0  0  0  0  0  0  0  0
  -24.9918  -26.8566   20.7523 N   0  0  0  0  0  0  0  0  0  0  0  0
  -26.2093  -27.3274   20.4329 N   0  0  0  0  0  0  0  0  0  0  0  0
  -22.9391  -16.4533   21.9466 N   0  0  0  0  0  0  0  0  0  0  0  0
  -27.8012  -24.2103   18.9053 N   0  0  0  0  0  0  0  0  0  0  0  0
  -27.6634  -29.1709   20.7456 N   0  0  0  0  0  0  0  0  0  0  0  0
  -23.9901  -30.3295   23.1037 N   0  0  0  0  0  0  0  0  0  0  0  0
  -30.3146  -18.4904   20.7610 N   0  0  0  0  0  0  0  0  0  0  0  0
  -28.8780  -23.1434   20.7120 N   0  0  0  0  0  0  0  0  0  0  0  0
  -22.3491  -12.8569   21.8269 N   0  0  0  0  0  0  0  0  0  0  0  0
  -21.8883  -19.6256   22.4857 N   0  0  0  0  0  0  0  0  0  0  0  0
  -24.2679  -21.8044   24.1161 N   0  3  0  0  0  0  0  0  0  0  0  0
  -26.0843  -31.0113   22.4649 O   0  0  0  0  0  0  0  0  0  0  0  0
  -22.1025  -14.6404   20.3500 O   0  0  0  0  0  0  0  0  0  0  0  0
  -20.9697  -16.9775   23.0794 O   0  0  0  0  0  0  0  0  0  0  0  0
  -23.9100  -20.4321   21.6860 O   0  0  0  0  0  0  0  0  0  0  0  0
  -30.0189  -19.1122   18.5300 O   0  0  0  0  0  0  0  0  0  0  0  0
  -29.4897  -22.6784   18.5231 O   0  0  0  0  0  0  0  0  0  0  0  0
  -19.3446  -27.3054   23.6604 O   0  0  0  0  0  0  0  0  0  0  0  0
  -28.4580  -16.0020   19.2281 O   0  0  0  0  0  0  0  0  0  1  0  0
  -15.9878  -31.6699   23.3647 F   0  0  0  0  0  0  0  0  0  0  0  0
  -16.9357  -27.1532   22.3126 F   0  0  0  0  0  0  0  0  0  0  0  0
  -29.4709  -19.6933   25.5976 F   0  0  0  0  0  0  0  0  0  0  0  0
  -28.8302  -21.7628   25.5770 F   0  0  0  0  0  0  0  0  0  0  0  0
  1  2  1  0  0  0  0
  1  5  2  0  0  0  0
  2  6  2  0  0  0  0
  3  8  2  0  0  0  0
  3 18  1  0  0  0  0
  4  9  1  0  0  0  0
  4 18  2  0  0  0  0
  5 20  1  0  0  0  0
  6 22  1  0  0  0  0
  7 10  2  0  0  0  0
  7 21  1  0  0  0  0
  8 27  1  0  0  0  0
  9 27  2  0  0  0  0
 10 28  1  0  0  0  0
 11 12  2  0  0  0  0
 11 29  1  0  0  0  0
 12 30  1  0  0  0  0
 13 23  1  0  0  0  0
 13 28  2  0  0  0  0
 14 24  1  0  0  0  0
 14 25  2  0  0  0  0
 15 24  2  0  0  0  0
 15 26  1  0  0  0  0
 16 25  1  0  0  0  0
 16 26  2  0  0  0  0
 17 30  2  0  0  0  0
 17 31  1  0  0  0  0
 18 32  1  0  0  0  0
 19 32  1  0  0  0  0
 19 33  2  0  0  0  0
 19 34  1  0  0  0  0
 20 22  2  0  0  0  0
 20 40  1  0  0  0  0
 21 23  2  0  0  0  0
 21 41  1  0  0  0  0
 22 49  1  0  0  0  0
 23 42  1  0  0  0  0
 24 63  1  0  0  0  0
 25 72  1  0  0  0  0
 26 73  1  0  0  0  0
 27 83  1  0  0  0  0
 28 84  1  0  0  0  0
 29 31  2  0  0  0  0
 29 83  1  0  0  0  0
 30 85  1  0  0  0  0
 31 86  1  0  0  0  0
 32 66  2  0  0  0  0
 33 67  1  0  0  0  0
 33 70  1  0  0  0  0
 34 71  1  0  0  0  0
 34 77  2  0  0  0  0
 35 50  1  0  0  0  0
 35 74  1  0  0  0  0
 35 78  2  0  0  0  0
 36 61  1  0  0  0  0
 36 68  1  0  0  0  0
 36 79  2  0  0  0  0
 37 62  1  0  0  0  0
 37 75  1  0  0  0  0
 37 80  2  0  0  0  0
 38 64  1  0  0  0  0
 38 72  1  0  0  0  0
 38 81  2  0  0  0  0
 39 69  1  0  0  0  0
 39 73  1  0  0  0  0
 39 82  2  0  0  0  0
 40 43  1  0  0  0  0
 41 50  1  0  0  0  0
 42 68  1  0  0  0  0
 43 45  1  0  0  0  0
 44 46  1  0  0  0  0
 44 47  1  0  0  0  0
 45 49  1  0  0  0  0
 46 51  1  0  0  0  0
 47 69  1  0  0  0  0
 48 51  1  0  0  0  0
 48 69  1  0  0  0  0
 49 74  1  0  0  0  0
 50 68  1  0  0  0  0
 51 67  1  0  0  0  0
 52 62  1  0  0  0  0
 53 63  1  0  0  0  0
 54 64  1  0  0  0  0
 55 64  1  0  0  0  0
 56 65  1  0  0  0  0
 57 65  1  0  0  0  0
 58 65  1  0  0  0  0
 59 76  1  0  0  0  0
 60 64  1  0  0  0  0
 60 84  1  0  0  0  0
 61 65  1  0  0  0  0
 61 75  1  0  0  0  0
 62 76  1  0  0  0  0
 63 87  1  0  0  0  0
 63 88  1  0  0  0  0
 66 67  1  0  0  0  0
M  CHG  1  76   1
M  ISO  4  39 100  60 101  73 100  84 101
M  END
> <Batch ID>
0068

> <Smiles>
CNC(C)C(=O)NC(C(=O)N1Cc2cc([101O:1][101CH2:1]C(C)(C)C(=O)Nc3cc([100NH:0][100C:0](=O)N4CCCC(n5nc(-c6ccc(Oc7ccc(F)cc7F)cc6)c(C(N)=O)c5N)C4)cc(C(C)(F)F)c3)ccc2CC1C(=O)NC1CCCc2ccccc21)C(C)(C)C

> <Shape>
0.243

> <Color>
0.085

> <Negative vol penalty>
0.000

$$$$

  -OEChem-04042323273D

 83 91  0     1  0  0  0  0  0999 V2000
  -20.8639  -30.0469   27.2780 C   0  0  0  0  0  0  0  0  0  0  0  0
  -21.9672  -29.4056   26.7241 C   0  0  0  0  0  0  0  0  0  0  0  0
  -24.6218   -9.1013   22.1338 C   0  0  0  0  0  0  0  0  0  0  0  0
  -22.9744  -10.4457   20.9868 C   0  0  0  0  0  0  0  0  0  0  0  0
  -19.7012  -30.2064   26.5252 C   0  0  0  0  0  0  0  0  0  0  0  0
  -21.9081  -28.9224   25.4174 C   0  0  0  0  0  0  0  0  0  0  0  0
  -26.4826  -28.7378   21.3499 C   0  0  0  0  0  0  0  0  0  0  0  0
  -28.8769  -20.7113   22.7821 C   0  0  0  0  0  0  0  0  0  0  0  0
  -27.9154  -19.8178   23.2540 C   0  0  0  0  0  0  0  0  0  0  0  0
  -23.8054   -7.9793   21.9914 C   0  0  0  0  0  0  0  0  0  0  0  0
  -22.1579   -9.3237   20.8444 C   0  0  0  0  0  0  0  0  0  0  0  0
  -27.3462  -27.7169   20.9552 C   0  0  0  0  0  0  0  0  0  0  0  0
  -21.0600   -6.6914   23.4843 C   0  0  0  0  0  0  0  0  0  0  0  0
  -20.8928   -5.8671   24.5970 C   0  0  0  0  0  0  0  0  0  0  0  0
  -25.9048  -27.2293   19.0834 C   0  0  0  0  0  0  0  0  0  0  0  0
  -27.3217  -19.2560   20.9804 C   0  0  0  0  0  0  0  0  0  0  0  0
  -21.8268   -4.0119   23.3629 C   0  0  0  0  0  0  0  0  0  0  0  0
  -24.2062  -10.3345   21.6316 C   0  0  0  0  0  0  0  0  0  0  0  0
  -26.0387  -11.9446   20.8851 C   0  0  0  0  0  0  0  0  0  0  0  0
  -19.6310  -29.7334   25.2054 C   0  0  0  0  0  0  0  0  0  0  0  0
  -25.3160  -29.0054   20.6192 C   0  0  0  0  0  0  0  0  0  0  0  0
  -20.7428  -29.0744   24.6468 C   0  0  0  0  0  0  0  0  0  0  0  0
  -25.0293  -28.2558   19.4694 C   0  0  0  0  0  0  0  0  0  0  0  0
  -29.0608  -20.8772   21.4093 C   0  0  0  0  0  0  0  0  0  0  0  0
  -27.1378  -19.0901   22.3532 C   0  0  0  0  0  0  0  0  0  0  0  0
  -22.5735   -8.0905   21.3467 C   0  0  0  0  0  0  0  0  0  0  0  0
  -27.0559  -26.9606   19.8235 C   0  0  0  0  0  0  0  0  0  0  0  0
  -21.6106   -6.1760   22.3108 C   0  0  0  0  0  0  0  0  0  0  0  0
  -21.2762   -4.5273   24.5363 C   0  0  0  0  0  0  0  0  0  0  0  0
  -28.2832  -20.1496   20.5085 C   0  0  0  0  0  0  0  0  0  0  0  0
  -21.9940   -4.8362   22.2502 C   0  0  0  0  0  0  0  0  0  0  0  0
  -25.0489  -11.4939   21.7789 C   0  0  0  0  0  0  0  0  0  0  0  0
  -26.5474  -13.0746   21.4773 C   0  0  0  0  0  0  0  0  0  0  0  0
  -26.4606  -11.3912   19.6315 C   0  0  0  0  0  0  0  0  0  0  0  0
  -22.2028  -28.9253   21.2557 C   0  0  0  0  0  0  0  0  0  0  0  0
  -21.9589  -30.2046   18.2848 C   0  0  0  0  0  0  0  0  0  0  0  0
  -28.9403  -23.8719   20.0626 C   0  0  0  0  0  0  0  0  0  0  0  0
  -23.3431  -30.6420   15.1962 C   0  0  0  0  0  0  0  0  0  0  0  0
  -25.8486  -17.9022   24.1623 C   0  0  0  0  0  0  0  0  0  0  0  0
  -18.3365  -29.8871   24.4470 C   0  0  0  0  0  0  0  0  0  0  0  0
  -24.4085  -30.1276   21.0429 C   0  0  0  0  0  0  0  0  0  0  0  0
  -23.8002  -28.5165   18.6389 C   0  0  0  0  0  0  0  0  0  0  0  0
  -18.4838  -29.6787   22.9419 C   0  0  0  0  0  0  0  0  0  0  0  0
  -25.8774  -14.9386   26.1355 C   0  0  0  0  0  0  0  0  0  0  0  0
  -19.3082  -28.4279   22.6544 C   0  0  0  0  0  0  0  0  0  0  0  0
  -25.7458  -13.8153   25.1044 C   0  0  0  0  0  0  0  0  0  0  0  0
  -25.0507  -16.1635   25.7483 C   0  0  0  0  0  0  0  0  0  0  0  0
  -25.1670  -15.5540   23.3641 C   0  0  0  0  0  0  0  0  0  0  0  0
  -20.7259  -28.5585   23.2242 C   0  0  1  0  0  0  0  0  0  0  0  0
  -22.9844  -29.9751   20.5176 C   0  0  1  0  0  0  0  0  0  0  0  0
  -26.0332  -14.3232   23.6779 C   0  0  2  0  0  0  0  0  0  0  0  0
  -22.8907  -31.7016   12.9669 C   0  0  0  0  0  0  0  0  0  0  0  0
  -20.0208  -27.9473   17.6080 C   0  0  0  0  0  0  0  0  0  0  0  0
  -20.3491  -28.4858   15.1850 C   0  0  0  0  0  0  0  0  0  0  0  0
  -19.3628  -30.1895   16.7170 C   0  0  0  0  0  0  0  0  0  0  0  0
  -25.7106  -32.4034   15.4228 C   0  0  0  0  0  0  0  0  0  0  0  0
  -30.0982  -21.8386   20.9056 C   0  0  0  0  0  0  0  0  0  0  0  0
  -28.6326  -25.2990   20.4630 C   0  0  0  0  0  0  0  0  0  1  0  0
  -21.8262  -29.6469   16.8883 C   0  0  1  0  0  0  0  0  0  0  0  0
  -23.5216  -31.8820   14.3388 C   0  0  2  0  0  0  0  0  0  0  0  0
  -20.4120  -29.0610   16.6161 C   0  0  0  0  0  0  0  0  0  0  0  0
  -24.9340  -12.2740   22.8571 N   0  0  0  0  0  0  0  0  0  0  0  0
  -25.8584  -13.2261   22.6446 N   0  0  0  0  0  0  0  0  0  0  0  0
  -22.9407  -29.6203   19.0976 N   0  0  0  0  0  0  0  0  0  0  0  0
  -25.3794  -16.5905   24.3865 N   0  0  0  0  0  0  0  0  0  0  0  0
  -27.5124  -13.9435   21.1083 N   0  0  0  0  0  0  0  0  0  0  0  0
  -25.8324  -10.2264   19.1701 N   0  0  0  0  0  0  0  0  0  0  0  0
  -26.1597  -18.1838   22.8325 N   0  0  0  0  0  0  0  0  0  0  0  0
  -21.5382  -29.3989   22.3708 N   0  0  0  0  0  0  0  0  0  0  0  0
  -29.6716  -23.2125   21.0381 N   0  0  0  0  0  0  0  0  0  0  0  0
  -22.2122  -30.7222   15.9809 N   0  0  0  0  0  0  0  0  0  0  0  0
  -24.9701  -32.1801   14.1544 N   0  3  0  0  0  0  0  0  0  0  0  0
  -27.3791  -11.9049   18.9488 O   0  0  0  0  0  0  0  0  0  0  0  0
  -22.2015  -27.7714   20.8432 O   0  0  0  0  0  0  0  0  0  0  0  0
  -21.2237  -31.1296   18.6391 O   0  0  0  0  0  0  0  0  0  0  0  0
  -28.5735  -23.3875   18.9955 O   0  0  0  0  0  0  0  0  0  0  0  0
  -24.1264  -29.6953   15.1695 O   0  0  0  0  0  0  0  0  0  0  0  0
  -25.9916  -18.7070   25.0863 O   0  0  0  0  0  0  0  0  0  0  0  0
  -21.7767   -6.9959   21.2073 O   0  0  0  0  0  0  0  0  0  0  0  0
  -27.8968  -25.9631   19.4364 O   0  0  0  0  0  0  0  0  0  1  0  0
  -21.1169   -3.7362   25.6054 F   0  0  0  0  0  0  0  0  0  0  0  0
  -28.4526  -20.3021   19.1878 F   0  0  0  0  0  0  0  0  0  0  0  0
  -22.5246   -4.3357   21.1260 F   0  0  0  0  0  0  0  0  0  0  0  0
  1  2  1  0  0  0  0
  1  5  2  0  0  0  0
  2  6  2  0  0  0  0
  3 10  2  0  0  0  0
  3 18  1  0  0  0  0
  4 11  1  0  0  0  0
  4 18  2  0  0  0  0
  5 20  1  0  0  0  0
  6 22  1  0  0  0  0
  7 12  2  0  0  0  0
  7 21  1  0  0  0  0
  8  9  2  0  0  0  0
  8 24  1  0  0  0  0
  9 25  1  0  0  0  0
 10 26  1  0  0  0  0
 11 26  2  0  0  0  0
 12 27  1  0  0  0  0
 13 14  2  0  0  0  0
 13 28  1  0  0  0  0
 14 29  1  0  0  0  0
 15 23  1  0  0  0  0
 15 27  2  0  0  0  0
 16 25  2  0  0  0  0
 16 30  1  0  0  0  0
 17 29  2  0  0  0  0
 17 31  1  0  0  0  0
 18 32  1  0  0  0  0
 19 32  1  0  0  0  0
 19 33  2  0  0  0  0
 19 34  1  0  0  0  0
 20 22  2  0  0  0  0
 20 40  1  0  0  0  0
 21 23  2  0  0  0  0
 21 41  1  0  0  0  0
 22 49  1  0  0  0  0
 23 42  1  0  0  0  0
 24 30  2  0  0  0  0
 24 57  1  0  0  0  0
 25 68  1  0  0  0  0
 26 79  1  0  0  0  0
 27 80  1  0  0  0  0
 28 31  2  0  0  0  0
 28 79  1  0  0  0  0
 29 81  1  0  0  0  0
 30 82  1  0  0  0  0
 31 83  1  0  0  0  0
 32 62  2  0  0  0  0
 33 63  1  0  0  0  0
 33 66  1  0  0  0  0
 34 67  1  0  0  0  0
 34 73  2  0  0  0  0
 35 50  1  0  0  0  0
 35 69  1  0  0  0  0
 35 74  2  0  0  0  0
 36 59  1  0  0  0  0
 36 64  1  0  0  0  0
 36 75  2  0  0  0  0
 37 58  1  0  0  0  0
 37 70  1  0  0  0  0
 37 76  2  0  0  0  0
 38 60  1  0  0  0  0
 38 71  1  0  0  0  0
 38 77  2  0  0  0  0
 39 65  1  0  0  0  0
 39 68  1  0  0  0  0
 39 78  2  0  0  0  0
 40 43  1  0  0  0  0
 41 50  1  0  0  0  0
 42 64  1  0  0  0  0
 43 45  1  0  0  0  0
 44 46  1  0  0  0  0
 44 47  1  0  0  0  0
 45 49  1  0  0  0  0
 46 51  1  0  0  0  0
 47 65  1  0  0  0  0
 48 51  1  0  0  0  0
 48 65  1  0  0  0  0
 49 69  1  0  0  0  0
 50 64  1  0  0  0  0
 51 63  1  0  0  0  0
 52 60  1  0  0  0  0
 53 61  1  0  0  0  0
 54 61  1  0  0  0  0
 55 61  1  0  0  0  0
 56 72  1  0  0  0  0
 57 70  1  0  0  0  0
 58 80  1  0  0  0  0
 59 61  1  0  0  0  0
 59 71  1  0  0  0  0
 60 72  1  0  0  0  0
 62 63  1  0  0  0  0
M  CHG  1  72   1
M  ISO  4  39 100  58 101  68 100  80 101
M  END
> <Batch ID>
0068

> <Smiles>
CNC(C)C(=O)NC(C(=O)N1Cc2cc([101O:1][101CH2:1]C(=O)NCc3ccc([100NH:0][100C:0](=O)N4CCCC(n5nc(-c6ccc(Oc7ccc(F)cc7F)cc6)c(C(N)=O)c5N)C4)cc3F)ccc2CC1C(=O)NC1CCCc2ccccc21)C(C)(C)C

> <Shape>
0.256

> <Color>
0.119

> <Negative vol penalty>
0.000

$$$$

  -OEChem-04042323273D

 85 93  0     1  0  0  0  0  0999 V2000
  -22.5731   -9.1270   26.7084 C   0  0  0  0  0  0  0  0  0  0  0  0
  -23.4999  -10.1523   26.5500 C   0  0  0  0  0  0  0  0  0  0  0  0
  -23.0758   -9.8675   19.9408 C   0  0  0  0  0  0  0  0  0  0  0  0
  -23.8345   -9.8750   22.2345 C   0  0  0  0  0  0  0  0  0  0  0  0
  -31.3191  -19.0821   20.6076 C   0  0  0  0  0  0  0  0  0  0  0  0
  -21.2146   -9.4255   26.8044 C   0  0  0  0  0  0  0  0  0  0  0  0
  -23.0686  -11.4768   26.4864 C   0  0  0  0  0  0  0  0  0  0  0  0
  -25.9881  -16.4070   28.6486 C   0  0  0  0  0  0  0  0  0  0  0  0
  -31.1505  -17.6975   20.5999 C   0  0  0  0  0  0  0  0  0  0  0  0
  -22.3317   -8.7145   20.1906 C   0  0  0  0  0  0  0  0  0  0  0  0
  -23.0904   -8.7220   22.4844 C   0  0  0  0  0  0  0  0  0  0  0  0
  -26.7952  -17.3636   28.0344 C   0  0  0  0  0  0  0  0  0  0  0  0
  -19.8619   -7.9244   23.0854 C   0  0  0  0  0  0  0  0  0  0  0  0
  -19.1043   -7.8848   24.2559 C   0  0  0  0  0  0  0  0  0  0  0  0
  -24.8855  -18.8196   27.8062 C   0  0  0  0  0  0  0  0  0  0  0  0
  -29.5191  -17.8863   22.3719 C   0  0  0  0  0  0  0  0  0  0  0  0
  -20.3453   -5.9475   24.9935 C   0  0  0  0  0  0  0  0  0  0  0  0
  -23.8272  -10.4478   20.9627 C   0  0  0  0  0  0  0  0  0  0  0  0
  -30.5877  -19.8688   21.4975 C   0  0  0  0  0  0  0  0  0  0  0  0
  -24.1692  -12.9729   20.8423 C   0  0  0  0  0  0  0  0  0  0  0  0
  -20.7672  -10.7551   26.7517 C   0  0  0  0  0  0  0  0  0  0  0  0
  -24.6191  -16.6455   28.8367 C   0  0  0  0  0  0  0  0  0  0  0  0
  -21.7027  -11.7933   26.5805 C   0  0  0  0  0  0  0  0  0  0  0  0
  -24.0637  -17.8655   28.4254 C   0  0  0  0  0  0  0  0  0  0  0  0
  -30.2505  -17.0996   21.4820 C   0  0  0  0  0  0  0  0  0  0  0  0
  -29.6877  -19.2709   22.3796 C   0  0  0  0  0  0  0  0  0  0  0  0
  -22.3390   -8.1417   21.4624 C   0  0  0  0  0  0  0  0  0  0  0  0
  -26.2434  -18.5689   27.6104 C   0  0  0  0  0  0  0  0  0  0  0  0
  -20.8611   -6.9755   22.8689 C   0  0  0  0  0  0  0  0  0  0  0  0
  -19.3460   -6.8963   25.2100 C   0  0  0  0  0  0  0  0  0  0  0  0
  -21.1028   -5.9871   23.8229 C   0  0  0  0  0  0  0  0  0  0  0  0
  -24.5964  -11.6386   20.7051 C   0  0  0  0  0  0  0  0  0  0  0  0
  -25.2615  -13.7223   20.4794 C   0  0  0  0  0  0  0  0  0  0  0  0
  -30.7809  -21.3044   21.4861 C   0  0  0  0  0  0  0  0  0  0  0  0
  -22.8985  -13.4889   21.2604 C   0  0  0  0  0  0  0  0  0  0  0  0
  -21.9416  -15.2653   27.8220 C   0  0  0  0  0  0  0  0  0  0  0  0
  -20.5449  -17.3825   29.8441 C   0  0  0  0  0  0  0  0  0  0  0  0
  -28.0085  -19.6038   24.2272 C   0  0  0  0  0  0  0  0  0  0  0  0
  -20.7375  -20.3511   31.5166 C   0  0  0  0  0  0  0  0  0  0  0  0
  -30.7277  -14.7677   20.6567 C   0  0  0  0  0  0  0  0  0  0  0  0
  -19.2847  -11.0252   26.8124 C   0  0  0  0  0  0  0  0  0  0  0  0
  -23.7675  -15.6144   29.5251 C   0  0  0  0  0  0  0  0  0  0  0  0
  -22.6037  -18.1786   28.6223 C   0  0  0  0  0  0  0  0  0  0  0  0
  -18.9428  -12.4824   27.1120 C   0  0  0  0  0  0  0  0  0  0  0  0
  -29.6144  -12.3534   18.2884 C   0  0  0  0  0  0  0  0  0  0  0  0
  -19.7798  -13.4165   26.2439 C   0  0  0  0  0  0  0  0  0  0  0  0
  -28.1745  -12.0620   18.7173 C   0  0  0  0  0  0  0  0  0  0  0  0
  -30.5289  -12.5824   19.4905 C   0  0  0  0  0  0  0  0  0  0  0  0
  -28.6213  -13.3073   20.8706 C   0  0  0  0  0  0  0  0  0  0  0  0
  -21.2760  -13.2445   26.5320 C   0  0  1  0  0  0  0  0  0  0  0  0
  -22.2830  -15.7529   29.2016 C   0  0  1  0  0  0  0  0  0  0  0  0
  -27.6490  -13.1338   19.6923 C   0  0  2  0  0  0  0  0  0  0  0  0
  -19.4250  -21.8307   33.0611 C   0  0  0  0  0  0  0  0  0  0  0  0
  -18.8083  -18.2825   27.5022 C   0  0  0  0  0  0  0  0  0  0  0  0
  -18.2273  -20.3354   28.8124 C   0  0  0  0  0  0  0  0  0  0  0  0
  -17.5985  -18.0834   29.6820 C   0  0  0  0  0  0  0  0  0  0  0  0
  -22.7882  -20.1489   33.6408 C   0  0  0  0  0  0  0  0  0  0  0  0
  -27.4301  -20.7784   25.0081 C   0  0  0  0  0  0  0  0  0  0  0  0
  -26.4055  -20.3565   26.0502 C   0  0  0  0  0  0  0  0  0  1  0  0
  -20.0245  -18.7943   29.7215 C   0  0  1  0  0  0  0  0  0  0  0  0
  -20.4513  -20.7128   32.9629 C   0  0  2  0  0  0  0  0  0  0  0  0
  -18.6918  -18.8675   28.9239 C   0  0  0  0  0  0  0  0  0  0  0  0
  -25.8615  -11.5426   20.2875 N   0  0  0  0  0  0  0  0  0  0  0  0
  -26.2385  -12.8261   20.1591 N   0  0  0  0  0  0  0  0  0  0  0  0
  -21.8110  -17.1360   29.2946 N   0  0  0  0  0  0  0  0  0  0  0  0
  -29.9695  -13.6135   20.3674 N   0  0  0  0  0  0  0  0  0  0  0  0
  -25.4720  -15.0537   20.4062 N   0  0  0  0  0  0  0  0  0  0  0  0
  -31.7142  -21.8697   22.2681 N   0  0  0  0  0  0  0  0  0  0  0  0
  -21.8864  -12.5798   21.5974 N   0  0  0  0  0  0  0  0  0  0  0  0
  -28.9373  -20.0510   23.2913 N   0  0  0  0  0  0  0  0  0  0  0  0
  -30.0799  -15.6930   21.4746 N   0  0  0  0  0  0  0  0  0  0  0  0
  -21.6350  -13.9193   27.7609 N   0  0  0  0  0  0  0  0  0  0  0  0
  -19.9368  -19.3165   31.0809 N   0  0  0  0  0  0  0  0  0  0  0  0
  -30.0299  -22.0839   20.6922 N   0  3  0  0  0  0  0  0  0  0  0  0
  -21.7002  -21.1605   33.6417 N   0  3  0  0  0  0  0  0  0  0  0  0
  -22.6622  -14.7195   21.3174 O   0  0  0  0  0  0  0  0  0  0  0  0
  -21.9540  -16.0522   26.8828 O   0  0  0  0  0  0  0  0  0  0  0  0
  -19.8565  -16.5315   30.4130 O   0  0  0  0  0  0  0  0  0  0  0  0
  -27.6635  -18.4460   24.4387 O   0  0  0  0  0  0  0  0  0  0  0  0
  -21.5838  -20.9309   30.8399 O   0  0  0  0  0  0  0  0  0  0  0  0
  -31.8570  -14.9363   20.1897 O   0  0  0  0  0  0  0  0  0  0  0  0
  -21.6129   -7.0167   21.7066 O   0  0  0  0  0  0  0  0  0  0  0  0
  -27.0288  -19.5041   27.0100 O   0  0  0  0  0  0  0  0  0  1  0  0
  -18.6195   -6.8593   26.3347 F   0  0  0  0  0  0  0  0  0  0  0  0
  -22.0622   -5.0735   23.6210 F   0  0  0  0  0  0  0  0  0  0  0  0
  1  2  1  0  0  0  0
  1  6  2  0  0  0  0
  2  7  2  0  0  0  0
  3 10  2  0  0  0  0
  3 18  1  0  0  0  0
  4 11  1  0  0  0  0
  4 18  2  0  0  0  0
  5  9  2  0  0  0  0
  5 19  1  0  0  0  0
  6 21  1  0  0  0  0
  7 23  1  0  0  0  0
  8 12  2  0  0  0  0
  8 22  1  0  0  0  0
  9 25  1  0  0  0  0
 10 27  1  0  0  0  0
 11 27  2  0  0  0  0
 12 28  1  0  0  0  0
 13 14  2  0  0  0  0
 13 29  1  0  0  0  0
 14 30  1  0  0  0  0
 15 24  1  0  0  0  0
 15 28  2  0  0  0  0
 16 25  2  0  0  0  0
 16 26  1  0  0  0  0
 17 30  2  0  0  0  0
 17 31  1  0  0  0  0
 18 32  1  0  0  0  0
 19 26  2  0  0  0  0
 19 34  1  0  0  0  0
 20 32  1  0  0  0  0
 20 33  2  0  0  0  0
 20 35  1  0  0  0  0
 21 23  2  0  0  0  0
 21 41  1  0  0  0  0
 22 24  2  0  0  0  0
 22 42  1  0  0  0  0
 23 50  1  0  0  0  0
 24 43  1  0  0  0  0
 25 71  1  0  0  0  0
 26 70  1  0  0  0  0
 27 82  1  0  0  0  0
 28 83  1  0  0  0  0
 29 31  2  0  0  0  0
 29 82  1  0  0  0  0
 30 84  1  0  0  0  0
 31 85  1  0  0  0  0
 32 63  2  0  0  0  0
 33 64  1  0  0  0  0
 33 67  1  0  0  0  0
 34 68  1  0  0  0  0
 34 74  2  0  0  0  0
 35 69  1  0  0  0  0
 35 76  2  0  0  0  0
 36 51  1  0  0  0  0
 36 72  1  0  0  0  0
 36 77  2  0  0  0  0
 37 60  1  0  0  0  0
 37 65  1  0  0  0  0
 37 78  2  0  0  0  0
 38 58  1  0  0  0  0
 38 70  1  0  0  0  0
 38 79  2  0  0  0  0
 39 61  1  0  0  0  0
 39 73  1  0  0  0  0
 39 80  2  0  0  0  0
 40 66  1  0  0  0  0
 40 71  1  0  0  0  0
 40 81  2  0  0  0  0
 41 44  1  0  0  0  0
 42 51  1  0  0  0  0
 43 65  1  0  0  0  0
 44 46  1  0  0  0  0
 45 47  1  0  0  0  0
 45 48  1  0  0  0  0
 46 50  1  0  0  0  0
 47 52  1  0  0  0  0
 48 66  1  0  0  0  0
 49 52  1  0  0  0  0
 49 66  1  0  0  0  0
 50 72  1  0  0  0  0
 51 65  1  0  0  0  0
 52 64  1  0  0  0  0
 53 61  1  0  0  0  0
 54 62  1  0  0  0  0
 55 62  1  0  0  0  0
 56 62  1  0  0  0  0
 57 75  1  0  0  0  0
 58 59  1  0  0  0  0
 59 83  1  0  0  0  0
 60 62  1  0  0  0  0
 60 73  1  0  0  0  0
 61 75  1  0  0  0  0
 63 64  1  0  0  0  0
M  CHG  2  74   1  75   1
M  ISO  4  40 100  59 101  71 100  83 101
M  END
> <Batch ID>
0068

> <Smiles>
CNC(C)C(=O)NC(C(=O)N1Cc2cc([101O:1][101CH2:1]CC(=O)Nc3cc([100NH:0][100C:0](=O)N4CCCC(n5nc(-c6ccc(Oc7ccc(F)cc7F)cc6)c(C(N)=O)c5N)C4)ccc3C(=N)N)ccc2CC1C(=O)NC1CCCc2ccccc21)C(C)(C)C

> <Shape>
0.182

> <Color>
0.180

> <Negative vol penalty>
0.000

$$$$

  -OEChem-04042323273D

 83 91  0     1  0  0  0  0  0999 V2000
  -25.0593   -9.9824   25.5744 C   0  0  0  0  0  0  0  0  0  0  0  0
  -25.3675  -11.3377   25.5140 C   0  0  0  0  0  0  0  0  0  0  0  0
  -22.6656  -10.1824   20.1258 C   0  0  0  0  0  0  0  0  0  0  0  0
  -24.2815   -9.4430   21.7627 C   0  0  0  0  0  0  0  0  0  0  0  0
  -23.7610   -9.5768   25.8805 C   0  0  0  0  0  0  0  0  0  0  0  0
  -24.3771  -12.2883   25.7587 C   0  0  0  0  0  0  0  0  0  0  0  0
  -25.9683  -16.0134   28.7978 C   0  0  0  0  0  0  0  0  0  0  0  0
  -31.2640  -19.0976   20.8794 C   0  0  0  0  0  0  0  0  0  0  0  0
  -31.1064  -17.7136   20.8074 C   0  0  0  0  0  0  0  0  0  0  0  0
  -21.9314   -9.0128   20.3222 C   0  0  0  0  0  0  0  0  0  0  0  0
  -23.5472   -8.2734   21.9592 C   0  0  0  0  0  0  0  0  0  0  0  0
  -26.7673  -17.0033   28.2271 C   0  0  0  0  0  0  0  0  0  0  0  0
  -20.7620   -7.3335   23.6263 C   0  0  0  0  0  0  0  0  0  0  0  0
  -20.5465   -6.9184   24.9404 C   0  0  0  0  0  0  0  0  0  0  0  0
  -24.8464  -18.4539   28.0687 C   0  0  0  0  0  0  0  0  0  0  0  0
  -29.4784  -17.8062   22.5902 C   0  0  0  0  0  0  0  0  0  0  0  0
  -21.6915   -4.8430   24.4726 C   0  0  0  0  0  0  0  0  0  0  0  0
  -23.8407  -10.3975   20.8459 C   0  0  0  0  0  0  0  0  0  0  0  0
  -24.1627  -12.9281   20.8444 C   0  0  0  0  0  0  0  0  0  0  0  0
  -22.7564  -10.5229   26.1386 C   0  0  0  0  0  0  0  0  0  0  0  0
  -24.5979  -16.2328   28.9985 C   0  0  0  0  0  0  0  0  0  0  0  0
  -23.0637  -11.8950   26.0673 C   0  0  0  0  0  0  0  0  0  0  0  0
  -24.0328  -17.4662   28.6444 C   0  0  0  0  0  0  0  0  0  0  0  0
  -30.5288  -19.8360   21.8069 C   0  0  0  0  0  0  0  0  0  0  0  0
  -30.2136  -17.0679   21.6628 C   0  0  0  0  0  0  0  0  0  0  0  0
  -29.6360  -19.1903   22.6622 C   0  0  0  0  0  0  0  0  0  0  0  0
  -22.3722   -8.0583   21.2390 C   0  0  0  0  0  0  0  0  0  0  0  0
  -26.2058  -18.2227   27.8598 C   0  0  0  0  0  0  0  0  0  0  0  0
  -21.4421   -6.5032   22.7352 C   0  0  0  0  0  0  0  0  0  0  0  0
  -21.0113   -5.6732   25.3635 C   0  0  0  0  0  0  0  0  0  0  0  0
  -21.9069   -5.2580   23.1584 C   0  0  0  0  0  0  0  0  0  0  0  0
  -24.5999  -11.6052   20.6430 C   0  0  0  0  0  0  0  0  0  0  0  0
  -25.2481  -13.7024   20.5145 C   0  0  0  0  0  0  0  0  0  0  0  0
  -22.8893  -13.4136   21.2898 C   0  0  0  0  0  0  0  0  0  0  0  0
  -21.9290  -14.8807   27.9249 C   0  0  0  0  0  0  0  0  0  0  0  0
  -20.5200  -16.8922   30.0442 C   0  0  0  0  0  0  0  0  0  0  0  0
  -27.9575  -19.4252   24.5254 C   0  0  0  0  0  0  0  0  0  0  0  0
  -20.6934  -19.7820   31.8512 C   0  0  0  0  0  0  0  0  0  0  0  0
  -30.7064  -14.7815   20.7268 C   0  0  0  0  0  0  0  0  0  0  0  0
  -21.3564  -10.0370   26.4189 C   0  0  0  0  0  0  0  0  0  0  0  0
  -23.7551  -15.1647   29.6398 C   0  0  0  0  0  0  0  0  0  0  0  0
  -22.5708  -17.7590   28.8576 C   0  0  0  0  0  0  0  0  0  0  0  0
  -20.4532  -11.1034   27.0332 C   0  0  0  0  0  0  0  0  0  0  0  0
  -29.6049  -12.4733   18.2497 C   0  0  0  0  0  0  0  0  0  0  0  0
  -20.5882  -12.4194   26.2738 C   0  0  0  0  0  0  0  0  0  0  0  0
  -28.1686  -12.1505   18.6681 C   0  0  0  0  0  0  0  0  0  0  0  0
  -30.5211  -12.6524   19.4588 C   0  0  0  0  0  0  0  0  0  0  0  0
  -28.6121  -13.2960   20.8768 C   0  0  0  0  0  0  0  0  0  0  0  0
  -22.0226  -12.9561   26.3508 C   0  0  1  0  0  0  0  0  0  0  0  0
  -22.2691  -15.3069   29.3251 C   0  0  1  0  0  0  0  0  0  0  0  0
  -27.6377  -13.1708   19.6941 C   0  0  2  0  0  0  0  0  0  0  0  0
  -30.7180  -21.3172   21.8617 C   0  0  0  0  0  0  0  0  0  0  0  0
  -19.3726  -21.1792   33.4639 C   0  0  0  0  0  0  0  0  0  0  0  0
  -18.7729  -17.8860   27.7485 C   0  0  0  0  0  0  0  0  0  0  0  0
  -18.1789  -19.8720   29.1525 C   0  0  0  0  0  0  0  0  0  0  0  0
  -17.5683  -17.5778   29.9184 C   0  0  0  0  0  0  0  0  0  0  0  0
  -22.7492  -19.4977   33.9612 C   0  0  0  0  0  0  0  0  0  0  0  0
  -27.3717  -20.5583   25.3603 C   0  0  0  0  0  0  0  0  0  0  0  0
  -26.3520  -20.0813   26.3833 C   0  0  0  0  0  0  0  0  0  1  0  0
  -19.9890  -18.3042   29.9873 C   0  0  1  0  0  0  0  0  0  0  0  0
  -20.4070  -20.0747   33.3130 C   0  0  2  0  0  0  0  0  0  0  0  0
  -18.6545  -18.4041   29.1958 C   0  0  0  0  0  0  0  0  0  0  0  0
  -25.8644  -11.5391   20.2180 N   0  0  0  0  0  0  0  0  0  0  0  0
  -26.2310  -12.8302   20.1495 N   0  0  0  0  0  0  0  0  0  0  0  0
  -21.7870  -16.6806   29.4822 N   0  0  0  0  0  0  0  0  0  0  0  0
  -29.9564  -13.6363   20.3850 N   0  0  0  0  0  0  0  0  0  0  0  0
  -25.4480  -15.0375   20.5039 N   0  0  0  0  0  0  0  0  0  0  0  0
  -22.6857  -13.5910   22.6651 N   0  0  0  0  0  0  0  0  0  0  0  0
  -28.8814  -19.9220   23.6098 N   0  0  0  0  0  0  0  0  0  0  0  0
  -30.0539  -15.6619   21.5892 N   0  0  0  0  0  0  0  0  0  0  0  0
  -22.2637  -13.5710   27.6386 N   0  0  0  0  0  0  0  0  0  0  0  0
  -19.8997  -18.7627   31.3694 N   0  0  0  0  0  0  0  0  0  0  0  0
  -21.6537  -20.5000   34.0100 N   0  3  0  0  0  0  0  0  0  0  0  0
  -21.9540  -13.6666   20.4931 O   0  0  0  0  0  0  0  0  0  0  0  0
  -21.4006  -15.6805   27.1615 O   0  0  0  0  0  0  0  0  0  0  0  0
  -19.8389  -16.0108   30.5742 O   0  0  0  0  0  0  0  0  0  0  0  0
  -27.6215  -18.2564   24.6839 O   0  0  0  0  0  0  0  0  0  0  0  0
  -21.5343  -20.3987   31.2007 O   0  0  0  0  0  0  0  0  0  0  0  0
  -31.8330  -14.9810   20.2652 O   0  0  0  0  0  0  0  0  0  0  0  0
  -21.6559   -6.9171   21.4311 O   0  0  0  0  0  0  0  0  0  0  0  0
  -26.9833  -19.1903   27.3020 O   0  0  0  0  0  0  0  0  0  1  0  0
  -20.8057   -5.2754   26.6259 F   0  0  0  0  0  0  0  0  0  0  0  0
  -22.5620   -4.4566   22.3073 F   0  0  0  0  0  0  0  0  0  0  0  0
  1  2  1  0  0  0  0
  1  5  2  0  0  0  0
  2  6  2  0  0  0  0
  3 10  2  0  0  0  0
  3 18  1  0  0  0  0
  4 11  1  0  0  0  0
  4 18  2  0  0  0  0
  5 20  1  0  0  0  0
  6 22  1  0  0  0  0
  7 12  2  0  0  0  0
  7 21  1  0  0  0  0
  8  9  2  0  0  0  0
  8 24  1  0  0  0  0
  9 25  1  0  0  0  0
 10 27  1  0  0  0  0
 11 27  2  0  0  0  0
 12 28  1  0  0  0  0
 13 14  2  0  0  0  0
 13 29  1  0  0  0  0
 14 30  1  0  0  0  0
 15 23  1  0  0  0  0
 15 28  2  0  0  0  0
 16 25  2  0  0  0  0
 16 26  1  0  0  0  0
 17 30  2  0  0  0  0
 17 31  1  0  0  0  0
 18 32  1  0  0  0  0
 19 32  1  0  0  0  0
 19 33  2  0  0  0  0
 19 34  1  0  0  0  0
 20 22  2  0  0  0  0
 20 40  1  0  0  0  0
 21 23  2  0  0  0  0
 21 41  1  0  0  0  0
 22 49  1  0  0  0  0
 23 42  1  0  0  0  0
 24 26  2  0  0  0  0
 24 52  1  0  0  0  0
 25 70  1  0  0  0  0
 26 69  1  0  0  0  0
 27 80  1  0  0  0  0
 28 81  1  0  0  0  0
 29 31  2  0  0  0  0
 29 80  1  0  0  0  0
 30 82  1  0  0  0  0
 31 83  1  0  0  0  0
 32 63  2  0  0  0  0
 33 64  1  0  0  0  0
 33 67  1  0  0  0  0
 34 68  1  0  0  0  0
 34 74  2  0  0  0  0
 35 50  1  0  0  0  0
 35 71  1  0  0  0  0
 35 75  2  0  0  0  0
 36 60  1  0  0  0  0
 36 65  1  0  0  0  0
 36 76  2  0  0  0  0
 37 58  1  0  0  0  0
 37 69  1  0  0  0  0
 37 77  2  0  0  0  0
 38 61  1  0  0  0  0
 38 72  1  0  0  0  0
 38 78  2  0  0  0  0
 39 66  1  0  0  0  0
 39 70  1  0  0  0  0
 39 79  2  0  0  0  0
 40 43  1  0  0  0  0
 41 50  1  0  0  0  0
 42 65  1  0  0  0  0
 43 45  1  0  0  0  0
 44 46  1  0  0  0  0
 44 47  1  0  0  0  0
 45 49  1  0  0  0  0
 46 51  1  0  0  0  0
 47 66  1  0  0  0  0
 48 51  1  0  0  0  0
 48 66  1  0  0  0  0
 49 71  1  0  0  0  0
 50 65  1  0  0  0  0
 51 64  1  0  0  0  0
 53 61  1  0  0  0  0
 54 62  1  0  0  0  0
 55 62  1  0  0  0  0
 56 62  1  0  0  0  0
 57 73  1  0  0  0  0
 58 59  1  0  0  0  0
 59 81  1  0  0  0  0
 60 62  1  0  0  0  0
 60 72  1  0  0  0  0
 61 73  1  0  0  0  0
 63 64  1  0  0  0  0
M  CHG  1  73   1
M  ISO  4  39 100  59 101  70 100  81 101
M  END
> <Batch ID>
0068

> <Smiles>
CNC(C)C(=O)NC(C(=O)N1Cc2cc([101O:1][101CH2:1]CC(=O)Nc3cc([100NH:0][100C:0](=O)N4CCCC(n5nc(-c6ccc(Oc7ccc(F)cc7F)cc6)c(C(N)=O)c5N)C4)ccc3C)ccc2CC1C(=O)NC1CCCc2ccccc21)C(C)(C)C

> <Shape>
0.192

> <Color>
0.178

> <Negative vol penalty>
0.000

$$$$

  -OEChem-04042323273D

 90 99  0     1  0  0  0  0  0999 V2000
  -20.5560  -18.5971   16.7624 C   0  0  0  0  0  0  0  0  0  0  0  0
  -21.6730  -19.0757   17.4397 C   0  0  0  0  0  0  0  0  0  0  0  0
  -19.3901  -26.0408   21.5051 C   0  0  0  0  0  0  0  0  0  0  0  0
  -21.0441  -24.3150   21.8563 C   0  0  0  0  0  0  0  0  0  0  0  0
  -20.2054  -17.2514   16.8619 C   0  0  0  0  0  0  0  0  0  0  0  0
  -22.4394  -18.2088   18.2179 C   0  0  0  0  0  0  0  0  0  0  0  0
  -27.4125  -18.8256   17.4880 C   0  0  0  0  0  0  0  0  0  0  0  0
  -18.5039  -25.0889   21.0011 C   0  0  0  0  0  0  0  0  0  0  0  0
  -20.1578  -23.3631   21.3523 C   0  0  0  0  0  0  0  0  0  0  0  0
  -28.0182  -19.9131   18.1159 C   0  0  0  0  0  0  0  0  0  0  0  0
  -17.4701  -21.6352   22.4530 C   0  0  0  0  0  0  0  0  0  0  0  0
  -17.3446  -20.4347   23.1518 C   0  0  0  0  0  0  0  0  0  0  0  0
  -28.8298  -18.4502   19.8538 C   0  0  0  0  0  0  0  0  0  0  0  0
  -30.8442  -25.3607   19.1487 C   0  0  0  0  0  0  0  0  0  0  0  0
  -29.5445  -27.3932   19.0199 C   0  0  0  0  0  0  0  0  0  0  0  0
  -18.0754  -19.2196   21.1956 C   0  0  0  0  0  0  0  0  0  0  0  0
  -20.6603  -25.6538   21.9327 C   0  0  0  0  0  0  0  0  0  0  0  0
  -21.7162  -27.0432   23.7934 C   0  0  0  0  0  0  0  0  0  0  0  0
  -20.9735  -16.3656   17.6340 C   0  0  0  0  0  0  0  0  0  0  0  0
  -27.5019  -17.5418   18.0451 C   0  0  0  0  0  0  0  0  0  0  0  0
  -22.0980  -16.8502   18.3290 C   0  0  0  0  0  0  0  0  0  0  0  0
  -28.2266  -17.3476   19.2297 C   0  0  0  0  0  0  0  0  0  0  0  0
  -30.0272  -24.9037   20.1826 C   0  0  0  0  0  0  0  0  0  0  0  0
  -30.6029  -26.6055   18.5673 C   0  0  0  0  0  0  0  0  0  0  0  0
  -28.7273  -26.9361   20.0539 C   0  0  0  0  0  0  0  0  0  0  0  0
  -18.8877  -23.7501   20.9247 C   0  0  0  0  0  0  0  0  0  0  0  0
  -28.7245  -19.7261   19.3004 C   0  0  0  0  0  0  0  0  0  0  0  0
  -17.8982  -21.6281   21.1254 C   0  0  0  0  0  0  0  0  0  0  0  0
  -17.6473  -19.2268   22.5232 C   0  0  0  0  0  0  0  0  0  0  0  0
  -18.2009  -20.4202   20.4968 C   0  0  0  0  0  0  0  0  0  0  0  0
  -28.9687  -25.6914   20.6352 C   0  0  0  0  0  0  0  0  0  0  0  0
  -21.5765  -26.6367   22.4529 C   0  0  0  0  0  0  0  0  0  0  0  0
  -22.7112  -27.9895   23.7634 C   0  0  0  0  0  0  0  0  0  0  0  0
  -31.2071  -22.7254   20.5159 C   0  0  0  0  0  0  0  0  0  0  0  0
  -34.1970  -26.7949   15.1950 C   0  0  0  0  0  0  0  0  0  0  0  0
  -33.1333  -27.2415   15.8702 C   0  0  0  0  0  0  0  0  0  0  0  0
  -21.0098  -26.6045   24.9614 C   0  0  0  0  0  0  0  0  0  0  0  0
  -32.5211  -26.4179   16.9529 C   0  0  0  0  0  0  0  0  0  0  0  0
  -25.4055  -15.4329   19.1682 C   0  0  0  0  0  0  0  0  0  0  0  0
  -28.0244  -13.5315   19.3876 C   0  0  0  0  0  0  0  0  0  0  0  0
  -31.4181  -13.2945   19.6589 C   0  0  0  0  0  0  0  0  0  0  0  0
  -27.2767  -28.9957   20.0419 C   0  0  0  0  0  0  0  0  0  0  0  0
  -20.5279  -14.9293   17.7493 C   0  0  0  0  0  0  0  0  0  0  0  0
  -26.8656  -16.3746   17.3414 C   0  0  0  0  0  0  0  0  0  0  0  0
  -28.3694  -15.9861   19.8578 C   0  0  0  0  0  0  0  0  0  0  0  0
  -21.6084  -13.9982   18.2934 C   0  0  0  0  0  0  0  0  0  0  0  0
  -24.6708  -31.2727   20.8798 C   0  0  0  0  0  0  0  0  0  0  0  0
  -22.2767  -14.6144   19.5184 C   0  0  0  0  0  0  0  0  0  0  0  0
  -23.5968  -30.3801   21.5059 C   0  0  0  0  0  0  0  0  0  0  0  0
  -25.3847  -30.5750   19.7234 C   0  0  0  0  0  0  0  0  0  0  0  0
  -24.8644  -28.3603   20.6687 C   0  0  0  0  0  0  0  0  0  0  0  0
  -29.5807  -22.9720   21.8322 C   0  0  0  0  0  0  0  0  0  0  0  0
  -22.9687  -15.9359   19.1631 C   0  0  1  0  0  0  0  0  0  0  0  0
  -26.5867  -15.1968   18.2700 C   0  0  1  0  0  0  0  0  0  0  0  0
  -24.1622  -28.9958   21.8798 C   0  0  2  0  0  0  0  0  0  0  0  0
  -30.6143  -21.8226   21.6358 C   0  0  2  0  0  0  0  0  0  0  0  0
  -31.5553  -21.6054   22.8157 C   0  0  0  0  0  0  0  0  0  0  0  0
  -33.2656  -11.6075   19.8551 C   0  0  0  0  0  0  0  0  0  0  0  0
  -27.2932  -13.0746   22.3145 C   0  0  0  0  0  0  0  0  0  0  0  0
  -29.6111  -12.2042   22.6854 C   0  0  0  0  0  0  0  0  0  0  0  0
  -28.0787  -11.0319   21.1044 C   0  0  0  0  0  0  0  0  0  0  0  0
  -32.6696  -14.1994   17.1342 C   0  0  0  0  0  0  0  0  0  0  0  0
  -30.0238  -20.5221   21.1263 C   0  0  0  0  0  0  0  0  0  1  0  0
  -29.0661  -13.2646   20.4472 C   0  0  1  0  0  0  0  0  0  0  0  0
  -32.4326  -12.4537   18.9049 C   0  0  2  0  0  0  0  0  0  0  0  0
  -28.5081  -12.4199   21.6273 C   0  0  0  0  0  0  0  0  0  0  0  0
  -22.4155  -27.2729   21.6311 N   0  0  0  0  0  0  0  0  0  0  0  0
  -23.0919  -28.0887   22.4575 N   0  0  0  0  0  0  0  0  0  0  0  0
  -30.2671  -23.6764   20.7551 N   0  0  0  0  0  0  0  0  0  0  0  0
  -27.7240  -14.8776   19.1353 N   0  0  0  0  0  0  0  0  0  0  0  0
  -25.8975  -29.2721   20.1527 N   0  0  0  0  0  0  0  0  0  0  0  0
  -23.2889  -28.7381   24.7269 N   0  0  0  0  0  0  0  0  0  0  0  0
  -20.0181  -25.6251   24.8140 N   0  0  0  0  0  0  0  0  0  0  0  0
  -31.4208  -27.0633   17.5336 N   0  0  0  0  0  0  0  0  0  0  0  0
  -27.6522  -27.7375   20.5116 N   0  0  0  0  0  0  0  0  0  0  0  0
  -24.2263  -15.6836   18.4928 N   0  0  0  0  0  0  0  0  0  0  0  0
  -30.2002  -12.6559   19.7605 N   0  0  0  0  0  0  0  0  0  0  0  0
  -33.3531  -13.3286   18.1250 N   0  3  0  0  0  0  0  0  0  0  0  0
  -32.1245  -22.6539   19.7301 O   0  0  0  0  0  0  0  0  0  0  0  0
  -21.2395  -27.0790   26.0997 O   0  0  0  0  0  0  0  0  0  0  0  0
  -32.9750  -25.3189   17.2490 O   0  0  0  0  0  0  0  0  0  0  0  0
  -25.5528  -15.3894   20.3840 O   0  0  0  0  0  0  0  0  0  0  0  0
  -27.5019  -12.5809   18.8003 O   0  0  0  0  0  0  0  0  0  0  0  0
  -31.6809  -14.4049   20.1155 O   0  0  0  0  0  0  0  0  0  0  0  0
  -28.0705  -29.8252   19.5906 O   0  0  0  0  0  0  0  0  0  0  0  0
  -18.0230  -22.8209   20.4332 O   0  0  0  0  0  0  0  0  0  0  0  0
  -29.3160  -20.7860   19.9156 O   0  0  0  0  0  0  0  0  0  1  0  0
  -17.5283  -18.0741   23.1949 F   0  0  0  0  0  0  0  0  0  0  0  0
  -18.6137  -20.4071   19.2220 F   0  0  0  0  0  0  0  0  0  0  0  0
  -28.1830  -25.2512   21.6302 F   0  0  0  0  0  0  0  0  0  0  0  0
  1  2  1  0  0  0  0
  1  5  2  0  0  0  0
  2  6  2  0  0  0  0
  3  8  2  0  0  0  0
  3 17  1  0  0  0  0
  4  9  1  0  0  0  0
  4 17  2  0  0  0  0
  5 19  1  0  0  0  0
  6 21  1  0  0  0  0
  7 10  2  0  0  0  0
  7 20  1  0  0  0  0
  8 26  1  0  0  0  0
  9 26  2  0  0  0  0
 10 27  1  0  0  0  0
 11 12  2  0  0  0  0
 11 28  1  0  0  0  0
 12 29  1  0  0  0  0
 13 22  1  0  0  0  0
 13 27  2  0  0  0  0
 14 23  1  0  0  0  0
 14 24  2  0  0  0  0
 15 24  1  0  0  0  0
 15 25  2  0  0  0  0
 16 29  2  0  0  0  0
 16 30  1  0  0  0  0
 17 32  1  0  0  0  0
 18 32  1  0  0  0  0
 18 33  2  0  0  0  0
 18 37  1  0  0  0  0
 19 21  2  0  0  0  0
 19 43  1  0  0  0  0
 20 22  2  0  0  0  0
 20 44  1  0  0  0  0
 21 53  1  0  0  0  0
 22 45  1  0  0  0  0
 23 31  2  0  0  0  0
 23 69  1  0  0  0  0
 24 74  1  0  0  0  0
 25 31  1  0  0  0  0
 25 75  1  0  0  0  0
 26 86  1  0  0  0  0
 27 87  1  0  0  0  0
 28 30  2  0  0  0  0
 28 86  1  0  0  0  0
 29 88  1  0  0  0  0
 30 89  1  0  0  0  0
 31 90  1  0  0  0  0
 32 67  2  0  0  0  0
 33 68  1  0  0  0  0
 33 72  1  0  0  0  0
 34 56  1  0  0  0  0
 34 69  1  0  0  0  0
 34 79  2  0  0  0  0
 35 36  2  0  0  0  0
 36 38  1  0  0  0  0
 37 73  1  0  0  0  0
 37 80  2  0  0  0  0
 38 74  1  0  0  0  0
 38 81  2  0  0  0  0
 39 54  1  0  0  0  0
 39 76  1  0  0  0  0
 39 82  2  0  0  0  0
 40 64  1  0  0  0  0
 40 70  1  0  0  0  0
 40 83  2  0  0  0  0
 41 65  1  0  0  0  0
 41 77  1  0  0  0  0
 41 84  2  0  0  0  0
 42 71  1  0  0  0  0
 42 75  1  0  0  0  0
 42 85  2  0  0  0  0
 43 46  1  0  0  0  0
 44 54  1  0  0  0  0
 45 70  1  0  0  0  0
 46 48  1  0  0  0  0
 47 49  1  0  0  0  0
 47 50  1  0  0  0  0
 48 53  1  0  0  0  0
 49 55  1  0  0  0  0
 50 71  1  0  0  0  0
 51 55  1  0  0  0  0
 51 71  1  0  0  0  0
 52 56  1  0  0  0  0
 52 69  1  0  0  0  0
 53 76  1  0  0  0  0
 54 70  1  0  0  0  0
 55 68  1  0  0  0  0
 56 57  1  0  0  0  0
 56 63  1  0  0  0  0
 58 65  1  0  0  0  0
 59 66  1  0  0  0  0
 60 66  1  0  0  0  0
 61 66  1  0  0  0  0
 62 78  1  0  0  0  0
 63 87  1  0  0  0  0
 64 66  1  0  0  0  0
 64 77  1  0  0  0  0
 65 78  1  0  0  0  0
 67 68  1  0  0  0  0
M  CHG  1  78   1
M  ISO  4  42 100  63 101  75 100  87 101
M  END
> <Batch ID>
0068

> <Smiles>
C=CC(=O)Nc1cc([100NH:0][100C:0](=O)N2CCCC(n3nc(-c4ccc(Oc5ccc(F)cc5F)cc4)c(C(N)=O)c3N)C2)c(F)c(N2CC(C)([101CH2:1][101O:1]c3ccc4c(c3)CN(C(=O)C(NC(=O)C(C)NC)C(C)(C)C)C(C(=O)NC3CCCc5ccccc53)C4)C2=O)c1

> <Shape>
0.220

> <Color>
0.068

> <Negative vol penalty>
0.000

$$$$

  -OEChem-04042323273D

 89 98  0     1  0  0  0  0  0999 V2000
  -29.6553  -31.7162   25.8868 C   0  0  0  0  0  0  0  0  0  0  0  0
  -29.4159  -30.7486   24.9164 C   0  0  0  0  0  0  0  0  0  0  0  0
  -24.3030   -8.7559   21.3591 C   0  0  0  0  0  0  0  0  0  0  0  0
  -23.9672  -10.5759   22.9122 C   0  0  0  0  0  0  0  0  0  0  0  0
  -28.6147  -32.1536   26.7052 C   0  0  0  0  0  0  0  0  0  0  0  0
  -28.1358  -30.2168   24.7647 C   0  0  0  0  0  0  0  0  0  0  0  0
  -26.7273  -29.8983   19.9108 C   0  0  0  0  0  0  0  0  0  0  0  0
  -29.6246  -20.0995   19.1067 C   0  0  0  0  0  0  0  0  0  0  0  0
  -29.6663  -18.7054   19.1189 C   0  0  0  0  0  0  0  0  0  0  0  0
  -23.7789   -7.8622   22.2931 C   0  0  0  0  0  0  0  0  0  0  0  0
  -23.4431   -9.6822   23.8462 C   0  0  0  0  0  0  0  0  0  0  0  0
  -27.2470  -28.8411   19.1651 C   0  0  0  0  0  0  0  0  0  0  0  0
  -20.7264   -6.9366   23.4147 C   0  0  0  0  0  0  0  0  0  0  0  0
  -19.8025   -5.9944   22.9629 C   0  0  0  0  0  0  0  0  0  0  0  0
  -25.1834  -27.6271   19.4592 C   0  0  0  0  0  0  0  0  0  0  0  0
  -27.2781  -20.0244   18.5360 C   0  0  0  0  0  0  0  0  0  0  0  0
  -21.2684   -4.2129   23.6801 C   0  0  0  0  0  0  0  0  0  0  0  0
  -24.3971  -10.1128   21.6687 C   0  0  0  0  0  0  0  0  0  0  0  0
  -24.2306  -11.7480   19.7178 C   0  0  0  0  0  0  0  0  0  0  0  0
  -27.3191  -31.6340   26.5570 C   0  0  0  0  0  0  0  0  0  0  0  0
  -25.4335  -29.8231   20.4464 C   0  0  0  0  0  0  0  0  0  0  0  0
  -27.0772  -30.6466   25.5828 C   0  0  0  0  0  0  0  0  0  0  0  0
  -24.6486  -28.6857   20.2092 C   0  0  0  0  0  0  0  0  0  0  0  0
  -27.3199  -18.6302   18.5481 C   0  0  0  0  0  0  0  0  0  0  0  0
  -28.4305  -20.7591   18.8153 C   0  0  0  0  0  0  0  0  0  0  0  0
  -28.5140  -17.9707   18.8395 C   0  0  0  0  0  0  0  0  0  0  0  0
  -23.3490   -8.3253   23.5366 C   0  0  0  0  0  0  0  0  0  0  0  0
  -26.4761  -27.7041   18.9416 C   0  0  0  0  0  0  0  0  0  0  0  0
  -21.9214   -6.5169   23.9992 C   0  0  0  0  0  0  0  0  0  0  0  0
  -20.0734   -4.6326   23.0956 C   0  0  0  0  0  0  0  0  0  0  0  0
  -22.1924   -5.1551   24.1319 C   0  0  0  0  0  0  0  0  0  0  0  0
  -24.9389  -11.0364   20.7046 C   0  0  0  0  0  0  0  0  0  0  0  0
  -25.1921  -12.4818   19.0670 C   0  0  0  0  0  0  0  0  0  0  0  0
  -29.4619  -23.0611   19.0688 C   0  0  0  0  0  0  0  0  0  0  0  0
  -22.8289  -11.7459   19.4165 C   0  0  0  0  0  0  0  0  0  0  0  0
  -24.2158  -29.8569   23.3824 C   0  0  0  0  0  0  0  0  0  0  0  0
  -21.3906  -29.9171   21.7895 C   0  0  0  0  0  0  0  0  0  0  0  0
  -19.6610  -29.2219   18.9308 C   0  0  0  0  0  0  0  0  0  0  0  0
  -29.6905  -15.7625   19.1324 C   0  0  0  0  0  0  0  0  0  0  0  0
  -26.2368  -32.1034   27.4966 C   0  0  0  0  0  0  0  0  0  0  0  0
  -24.8777  -30.9831   21.2261 C   0  0  0  0  0  0  0  0  0  0  0  0
  -23.2463  -28.5640   20.7452 C   0  0  0  0  0  0  0  0  0  0  0  0
  -24.8270  -31.7614   27.0212 C   0  0  0  0  0  0  0  0  0  0  0  0
  -30.2425  -12.2498   19.3149 C   0  0  0  0  0  0  0  0  0  0  0  0
  -24.7573  -30.3098   26.5579 C   0  0  0  0  0  0  0  0  0  0  0  0
  -28.8536  -11.6795   19.6115 C   0  0  0  0  0  0  0  0  0  0  0  0
  -30.4732  -13.5808   20.0283 C   0  0  0  0  0  0  0  0  0  0  0  0
  -28.0513  -14.0276   20.0909 C   0  0  0  0  0  0  0  0  0  0  0  0
  -27.1563  -22.9172   18.5561 C   0  0  0  0  0  0  0  0  0  0  0  0
  -25.6967  -30.0638   25.3710 C   0  0  1  0  0  0  0  0  0  0  0  0
  -23.7374  -30.5850   22.1581 C   0  0  1  0  0  0  0  0  0  0  0  0
  -27.7482  -12.7193   19.3424 C   0  0  2  0  0  0  0  0  0  0  0  0
  -28.8986  -24.4873   19.0930 C   0  0  2  0  0  0  0  0  0  0  0  0
  -27.6157  -24.3436   18.2149 C   0  0  1  0  0  0  0  0  0  0  0  0
  -26.0701  -17.8684   18.2472 C   0  0  0  0  0  0  0  0  0  0  0  0
  -29.9272  -25.4903   18.5596 C   0  0  0  0  0  0  0  0  0  0  0  0
  -27.9149  -24.4272   16.6999 C   0  0  0  0  0  0  0  0  0  0  0  0
  -29.8411  -24.7526   21.4020 C   0  0  0  0  0  0  0  0  0  0  0  0
  -17.3581  -29.3481   17.9418 C   0  0  0  0  0  0  0  0  0  0  0  0
  -20.5517  -27.4915   23.4395 C   0  0  0  0  0  0  0  0  0  0  0  0
  -18.7090  -27.0952   21.7917 C   0  0  0  0  0  0  0  0  0  0  0  0
  -18.7595  -29.2062   23.1198 C   0  0  0  0  0  0  0  0  0  0  0  0
  -20.5609  -31.0374   16.7738 C   0  0  0  0  0  0  0  0  0  0  0  0
  -28.6057  -24.8240   20.5691 C   0  0  0  0  0  0  0  0  0  0  0  0
  -26.5127  -25.3612   18.5349 C   0  0  0  0  0  0  0  0  0  1  0  0
  -20.4393  -28.8713   21.2602 C   0  0  1  0  0  0  0  0  0  0  0  0
  -18.6934  -30.0561   18.1109 C   0  0  2  0  0  0  0  0  0  0  0  0
  -19.6420  -28.1672   22.3942 C   0  0  0  0  0  0  0  0  0  0  0  0
  -26.2492  -11.2947   20.6859 N   0  0  0  0  0  0  0  0  0  0  0  0
  -26.3719  -12.1768   19.6795 N   0  0  0  0  0  0  0  0  0  0  0  0
  -28.3873  -22.1864   18.8057 N   0  0  0  0  0  0  0  0  0  0  0  0
  -22.7500  -29.7221   21.5067 N   0  0  0  0  0  0  0  0  0  0  0  0
  -29.3892  -14.5171   19.7233 N   0  0  0  0  0  0  0  0  0  0  0  0
  -25.1349  -13.3518   18.0363 N   0  0  0  0  0  0  0  0  0  0  0  0
  -21.9818  -10.9342   20.1833 N   0  0  0  0  0  0  0  0  0  0  0  0
  -28.5765  -16.5553   18.8584 N   0  0  0  0  0  0  0  0  0  0  0  0
  -25.1127  -30.5754   24.1497 N   0  0  0  0  0  0  0  0  0  0  0  0
  -19.6038  -29.5430   20.2706 N   0  0  0  0  0  0  0  0  0  0  0  0
  -19.2580  -30.3239   16.7580 N   0  3  0  0  0  0  0  0  0  0  0  0
  -30.6327  -22.8018   19.3111 O   0  0  0  0  0  0  0  0  0  0  0  0
  -22.3442  -12.4306   18.4838 O   0  0  0  0  0  0  0  0  0  0  0  0
  -23.8006  -28.7276   23.6144 O   0  0  0  0  0  0  0  0  0  0  0  0
  -20.9434  -30.8757   22.4242 O   0  0  0  0  0  0  0  0  0  0  0  0
  -20.3917  -28.3681   18.4332 O   0  0  0  0  0  0  0  0  0  0  0  0
  -30.8491  -16.0894   18.8625 O   0  0  0  0  0  0  0  0  0  0  0  0
  -22.8373   -7.4536   24.4481 O   0  0  0  0  0  0  0  0  0  0  0  0
  -26.9812  -26.6705   18.2146 O   0  0  0  0  0  0  0  0  0  1  0  0
  -19.1854   -3.7279   22.6630 F   0  0  0  0  0  0  0  0  0  0  0  0
  -23.3381   -4.7459   24.6937 F   0  0  0  0  0  0  0  0  0  0  0  0
  1  2  1  0  0  0  0
  1  5  2  0  0  0  0
  2  6  2  0  0  0  0
  3 10  2  0  0  0  0
  3 18  1  0  0  0  0
  4 11  1  0  0  0  0
  4 18  2  0  0  0  0
  5 20  1  0  0  0  0
  6 22  1  0  0  0  0
  7 12  2  0  0  0  0
  7 21  1  0  0  0  0
  8  9  2  0  0  0  0
  8 25  1  0  0  0  0
  9 26  1  0  0  0  0
 10 27  1  0  0  0  0
 11 27  2  0  0  0  0
 12 28  1  0  0  0  0
 13 14  2  0  0  0  0
 13 29  1  0  0  0  0
 14 30  1  0  0  0  0
 15 23  1  0  0  0  0
 15 28  2  0  0  0  0
 16 24  1  0  0  0  0
 16 25  2  0  0  0  0
 17 30  2  0  0  0  0
 17 31  1  0  0  0  0
 18 32  1  0  0  0  0
 19 32  1  0  0  0  0
 19 33  2  0  0  0  0
 19 35  1  0  0  0  0
 20 22  2  0  0  0  0
 20 40  1  0  0  0  0
 21 23  2  0  0  0  0
 21 41  1  0  0  0  0
 22 50  1  0  0  0  0
 23 42  1  0  0  0  0
 24 26  2  0  0  0  0
 24 55  1  0  0  0  0
 25 71  1  0  0  0  0
 26 76  1  0  0  0  0
 27 86  1  0  0  0  0
 28 87  1  0  0  0  0
 29 31  2  0  0  0  0
 29 86  1  0  0  0  0
 30 88  1  0  0  0  0
 31 89  1  0  0  0  0
 32 69  2  0  0  0  0
 33 70  1  0  0  0  0
 33 74  1  0  0  0  0
 34 53  1  0  0  0  0
 34 71  1  0  0  0  0
 34 80  2  0  0  0  0
 35 75  1  0  0  0  0
 35 81  2  0  0  0  0
 36 51  1  0  0  0  0
 36 77  1  0  0  0  0
 36 82  2  0  0  0  0
 37 66  1  0  0  0  0
 37 72  1  0  0  0  0
 37 83  2  0  0  0  0
 38 67  1  0  0  0  0
 38 78  1  0  0  0  0
 38 84  2  0  0  0  0
 39 73  1  0  0  0  0
 39 76  1  0  0  0  0
 39 85  2  0  0  0  0
 40 43  1  0  0  0  0
 41 51  1  0  0  0  0
 42 72  1  0  0  0  0
 43 45  1  0  0  0  0
 44 46  1  0  0  0  0
 44 47  1  0  0  0  0
 45 50  1  0  0  0  0
 46 52  1  0  0  0  0
 47 73  1  0  0  0  0
 48 52  1  0  0  0  0
 48 73  1  0  0  0  0
 49 54  1  0  0  0  0
 49 71  1  0  0  0  0
 50 77  1  0  0  0  0
 51 72  1  0  0  0  0
 52 70  1  0  0  0  0
 53 54  1  0  0  0  0
 53 56  1  0  0  0  0
 53 64  1  0  0  0  0
 54 57  1  0  0  0  0
 54 65  1  0  0  0  0
 58 64  1  0  0  0  0
 59 67  1  0  0  0  0
 60 68  1  0  0  0  0
 61 68  1  0  0  0  0
 62 68  1  0  0  0  0
 63 79  1  0  0  0  0
 65 87  1  0  0  0  0
 66 68  1  0  0  0  0
 66 78  1  0  0  0  0
 67 79  1  0  0  0  0
 69 70  1  0  0  0  0
M  CHG  1  79   1
M  ISO  4  39 100  65 101  76 100  87 101
M  END
> <Batch ID>
0068

> <Smiles>
CCC1(C)C(=O)N(c2ccc([100NH:0][100C:0](=O)N3CCCC(n4nc(-c5ccc(Oc6ccc(F)cc6F)cc5)c(C(N)=O)c4N)C3)c(C)c2)CC1(C)[101CH2:1][101O:1]c1ccc2c(c1)CN(C(=O)C(NC(=O)C(C)NC)C(C)(C)C)C(C(=O)NC1CCCc3ccccc31)C2

> <Shape>
0.347

> <Color>
0.089

> <Negative vol penalty>
0.000

$$$$

  -OEChem-04042323273D

 86 94  0     1  0  0  0  0  0999 V2000
  -23.8124   -8.0841   21.9112 C   0  0  0  0  0  0  0  0  0  0  0  0
  -24.4963   -9.0938   21.2417 C   0  0  0  0  0  0  0  0  0  0  0  0
  -22.0548  -28.1532   21.3526 C   0  0  0  0  0  0  0  0  0  0  0  0
  -22.9832  -27.0927   23.3149 C   0  0  0  0  0  0  0  0  0  0  0  0
  -22.4796   -8.2698   22.2759 C   0  0  0  0  0  0  0  0  0  0  0  0
  -23.8473  -10.2894   20.9355 C   0  0  0  0  0  0  0  0  0  0  0  0
  -26.6814  -14.3576   21.9663 C   0  0  0  0  0  0  0  0  0  0  0  0
  -20.7735  -28.0225   21.8881 C   0  0  0  0  0  0  0  0  0  0  0  0
  -21.7019  -26.9621   23.8505 C   0  0  0  0  0  0  0  0  0  0  0  0
  -27.6880  -14.6794   21.0569 C   0  0  0  0  0  0  0  0  0  0  0  0
  -18.8647  -29.5960   24.1932 C   0  0  0  0  0  0  0  0  0  0  0  0
  -18.0151  -30.6997   24.1182 C   0  0  0  0  0  0  0  0  0  0  0  0
  -26.2665  -16.3728   20.0921 C   0  0  0  0  0  0  0  0  0  0  0  0
  -29.5998  -20.8154   20.7454 C   0  0  0  0  0  0  0  0  0  0  0  0
  -30.0303  -19.7078   22.8489 C   0  0  0  0  0  0  0  0  0  0  0  0
  -29.3185  -22.0164   22.8227 C   0  0  0  0  0  0  0  0  0  0  0  0
  -16.4413  -29.4004   22.8251 C   0  0  0  0  0  0  0  0  0  0  0  0
  -23.1597  -27.6883   22.0660 C   0  0  0  0  0  0  0  0  0  0  0  0
  -25.3685  -28.9046   21.6794 C   0  0  0  0  0  0  0  0  0  0  0  0
  -21.8168   -9.4720   21.9825 C   0  0  0  0  0  0  0  0  0  0  0  0
  -25.4537  -15.0347   21.9383 C   0  0  0  0  0  0  0  0  0  0  0  0
  -22.5039  -10.4908   21.2954 C   0  0  0  0  0  0  0  0  0  0  0  0
  -25.2469  -16.0595   21.0039 C   0  0  0  0  0  0  0  0  0  0  0  0
  -29.9806  -19.6767   21.4552 C   0  0  0  0  0  0  0  0  0  0  0  0
  -29.2689  -21.9853   21.4291 C   0  0  0  0  0  0  0  0  0  0  0  0
  -20.5970  -27.4269   23.1371 C   0  0  0  0  0  0  0  0  0  0  0  0
  -27.4795  -15.6852   20.1177 C   0  0  0  0  0  0  0  0  0  0  0  0
  -18.5027  -28.3945   23.5840 C   0  0  0  0  0  0  0  0  0  0  0  0
  -29.6992  -20.8777   23.5326 C   0  0  0  0  0  0  0  0  0  0  0  0
  -16.8034  -30.6019   23.4342 C   0  0  0  0  0  0  0  0  0  0  0  0
  -17.2910  -28.2967   22.9000 C   0  0  0  0  0  0  0  0  0  0  0  0
  -24.4834  -27.8225   21.5131 C   0  0  0  0  0  0  0  0  0  0  0  0
  -26.4838  -28.5494   20.9608 C   0  0  0  0  0  0  0  0  0  0  0  0
  -25.1977  -30.1218   22.4174 C   0  0  0  0  0  0  0  0  0  0  0  0
  -22.4330  -14.1825   21.4360 C   0  0  0  0  0  0  0  0  0  0  0  0
  -21.8368  -17.2665   22.2458 C   0  0  0  0  0  0  0  0  0  0  0  0
  -22.9816  -20.4727   22.4836 C   0  0  0  0  0  0  0  0  0  0  0  0
  -30.3240  -18.2795   19.3848 C   0  0  0  0  0  0  0  0  0  0  0  0
  -28.7791  -23.2806   19.3247 C   0  0  0  0  0  0  0  0  0  0  0  0
  -20.3616   -9.6083   22.3549 C   0  0  0  0  0  0  0  0  0  0  0  0
  -24.3880  -14.6939   22.9435 C   0  0  0  0  0  0  0  0  0  0  0  0
  -23.9543  -16.8303   20.9454 C   0  0  0  0  0  0  0  0  0  0  0  0
  -19.8577  -11.0489   22.3252 C   0  0  0  0  0  0  0  0  0  0  0  0
  -27.8247  -25.9492   17.1694 C   0  0  0  0  0  0  0  0  0  0  0  0
  -20.3117  -11.7471   21.0472 C   0  0  0  0  0  0  0  0  0  0  0  0
  -26.9450  -26.8340   18.0556 C   0  0  0  0  0  0  0  0  0  0  0  0
  -27.6229  -24.4653   17.4713 C   0  0  0  0  0  0  0  0  0  0  0  0
  -26.8978  -24.9773   19.7694 C   0  0  0  0  0  0  0  0  0  0  0  0
  -21.8417  -11.8114   20.9674 C   0  0  1  0  0  0  0  0  0  0  0  0
  -22.9883  -15.0977   22.4904 C   0  0  1  0  0  0  0  0  0  0  0  0
  -27.1140  -26.4831   19.5468 C   0  0  2  0  0  0  0  0  0  0  0  0
  -22.2519  -22.7810   23.1445 C   0  0  0  0  0  0  0  0  0  0  0  0
  -32.1780  -16.5744   19.4981 C   0  0  0  0  0  0  0  0  0  0  0  0
  -30.6983  -16.6727   17.4591 C   0  0  0  0  0  0  0  0  0  0  0  0
  -20.2848  -17.5219   19.6312 C   0  0  0  0  0  0  0  0  0  0  0  0
  -20.4039  -20.0098   19.8846 C   0  0  0  0  0  0  0  0  0  0  0  0
  -19.2120  -18.6394   21.5946 C   0  0  0  0  0  0  0  0  0  0  0  0
  -25.0203  -20.6302   24.6232 C   0  0  0  0  0  0  0  0  0  0  0  0
  -29.3965  -22.1368   25.5273 C   0  0  0  0  0  0  0  0  0  0  0  0
  -29.8088  -15.8092   19.6536 C   0  0  0  0  0  0  0  0  0  1  0  0
  -21.7372  -18.5699   21.4908 C   0  0  1  0  0  0  0  0  0  0  0  0
  -22.9053  -21.4886   23.6090 C   0  0  2  0  0  0  0  0  0  0  0  0
  -30.7507  -16.8406   18.9880 C   0  0  0  0  0  0  0  0  0  0  0  0
  -20.4332  -18.6696   20.6499 C   0  0  0  0  0  0  0  0  0  0  0  0
  -24.9926  -26.8527   20.7487 N   0  0  0  0  0  0  0  0  0  0  0  0
  -26.2096  -27.3241   20.4283 N   0  0  0  0  0  0  0  0  0  0  0  0
  -22.9405  -16.4558   21.9451 N   0  0  0  0  0  0  0  0  0  0  0  0
  -27.8027  -24.2072   18.9017 N   0  0  0  0  0  0  0  0  0  0  0  0
  -27.6625  -29.1689   20.7388 N   0  0  0  0  0  0  0  0  0  0  0  0
  -23.9899  -30.3264   23.0985 N   0  0  0  0  0  0  0  0  0  0  0  0
  -30.3174  -18.4890   20.7609 N   0  0  0  0  0  0  0  0  0  0  0  0
  -28.8814  -23.1422   20.7085 N   0  0  0  0  0  0  0  0  0  0  0  0
  -22.3490  -12.8597   21.8267 N   0  0  0  0  0  0  0  0  0  0  0  0
  -21.8910  -19.6288   22.4825 N   0  0  0  0  0  0  0  0  0  0  0  0
  -24.2712  -21.8072   24.1127 N   0  3  0  0  0  0  0  0  0  0  0  0
  -26.0833  -31.0093   22.4580 O   0  0  0  0  0  0  0  0  0  0  0  0
  -22.1037  -14.6426   20.3491 O   0  0  0  0  0  0  0  0  0  0  0  0
  -20.9711  -16.9814   23.0771 O   0  0  0  0  0  0  0  0  0  0  0  0
  -23.9134  -20.4340   21.6831 O   0  0  0  0  0  0  0  0  0  0  0  0
  -30.0226  -19.1100   18.5296 O   0  0  0  0  0  0  0  0  0  0  0  0
  -29.4920  -22.6762   18.5195 O   0  0  0  0  0  0  0  0  0  0  0  0
  -19.3469  -27.2994   23.6601 O   0  0  0  0  0  0  0  0  0  0  0  0
  -29.7476  -20.9082   24.8925 O   0  0  0  0  0  0  0  0  0  0  0  0
  -28.4601  -16.0008   19.2285 O   0  0  0  0  0  0  0  0  0  1  0  0
  -15.9869  -31.6614   23.3636 F   0  0  0  0  0  0  0  0  0  0  0  0
  -16.9372  -27.1447   22.3139 F   0  0  0  0  0  0  0  0  0  0  0  0
  1  2  1  0  0  0  0
  1  5  2  0  0  0  0
  2  6  2  0  0  0  0
  3  8  2  0  0  0  0
  3 18  1  0  0  0  0
  4  9  1  0  0  0  0
  4 18  2  0  0  0  0
  5 20  1  0  0  0  0
  6 22  1  0  0  0  0
  7 10  2  0  0  0  0
  7 21  1  0  0  0  0
  8 26  1  0  0  0  0
  9 26  2  0  0  0  0
 10 27  1  0  0  0  0
 11 12  2  0  0  0  0
 11 28  1  0  0  0  0
 12 30  1  0  0  0  0
 13 23  1  0  0  0  0
 13 27  2  0  0  0  0
 14 24  1  0  0  0  0
 14 25  2  0  0  0  0
 15 24  2  0  0  0  0
 15 29  1  0  0  0  0
 16 25  1  0  0  0  0
 16 29  2  0  0  0  0
 17 30  2  0  0  0  0
 17 31  1  0  0  0  0
 18 32  1  0  0  0  0
 19 32  1  0  0  0  0
 19 33  2  0  0  0  0
 19 34  1  0  0  0  0
 20 22  2  0  0  0  0
 20 40  1  0  0  0  0
 21 23  2  0  0  0  0
 21 41  1  0  0  0  0
 22 49  1  0  0  0  0
 23 42  1  0  0  0  0
 24 71  1  0  0  0  0
 25 72  1  0  0  0  0
 26 82  1  0  0  0  0
 27 84  1  0  0  0  0
 28 31  2  0  0  0  0
 28 82  1  0  0  0  0
 29 83  1  0  0  0  0
 30 85  1  0  0  0  0
 31 86  1  0  0  0  0
 32 65  2  0  0  0  0
 33 66  1  0  0  0  0
 33 69  1  0  0  0  0
 34 70  1  0  0  0  0
 34 76  2  0  0  0  0
 35 50  1  0  0  0  0
 35 73  1  0  0  0  0
 35 77  2  0  0  0  0
 36 61  1  0  0  0  0
 36 67  1  0  0  0  0
 36 78  2  0  0  0  0
 37 62  1  0  0  0  0
 37 74  1  0  0  0  0
 37 79  2  0  0  0  0
 38 63  1  0  0  0  0
 38 71  1  0  0  0  0
 38 80  2  0  0  0  0
 39 68  1  0  0  0  0
 39 72  1  0  0  0  0
 39 81  2  0  0  0  0
 40 43  1  0  0  0  0
 41 50  1  0  0  0  0
 42 67  1  0  0  0  0
 43 45  1  0  0  0  0
 44 46  1  0  0  0  0
 44 47  1  0  0  0  0
 45 49  1  0  0  0  0
 46 51  1  0  0  0  0
 47 68  1  0  0  0  0
 48 51  1  0  0  0  0
 48 68  1  0  0  0  0
 49 73  1  0  0  0  0
 50 67  1  0  0  0  0
 51 66  1  0  0  0  0
 52 62  1  0  0  0  0
 53 63  1  0  0  0  0
 54 63  1  0  0  0  0
 55 64  1  0  0  0  0
 56 64  1  0  0  0  0
 57 64  1  0  0  0  0
 58 75  1  0  0  0  0
 59 83  1  0  0  0  0
 60 63  1  0  0  0  0
 60 84  1  0  0  0  0
 61 64  1  0  0  0  0
 61 74  1  0  0  0  0
 62 75  1  0  0  0  0
 65 66  1  0  0  0  0
M  CHG  1  75   1
M  ISO  4  39 100  60 101  72 100  84 101
M  END
> <Batch ID>
0068

> <Smiles>
CNC(C)C(=O)NC(C(=O)N1Cc2cc([101O:1][101CH2:1]C(C)(C)C(=O)Nc3cc([100NH:0][100C:0](=O)N4CCCC(n5nc(-c6ccc(Oc7ccc(F)cc7F)cc6)c(C(N)=O)c5N)C4)cc(OC)c3)ccc2CC1C(=O)NC1CCCc2ccccc21)C(C)(C)C

> <Shape>
0.245

> <Color>
0.083

> <Negative vol penalty>
0.000

$$$$

  -OEChem-04042323273D

 85 93  0     1  0  0  0  0  0999 V2000
  -27.8761  -37.7517   20.9096 C   0  0  0  0  0  0  0  0  0  0  0  0
  -28.3436  -36.4986   20.5267 C   0  0  0  0  0  0  0  0  0  0  0  0
  -26.6441  -10.7659   19.4265 C   0  0  0  0  0  0  0  0  0  0  0  0
  -25.3337  -12.0190   17.8298 C   0  0  0  0  0  0  0  0  0  0  0  0
  -26.9789  -37.8654   21.9708 C   0  0  0  0  0  0  0  0  0  0  0  0
  -27.9150  -35.3585   21.2056 C   0  0  0  0  0  0  0  0  0  0  0  0
  -26.9387  -29.8028   18.8207 C   0  0  0  0  0  0  0  0  0  0  0  0
  -25.6639   -9.7739   19.4525 C   0  0  0  0  0  0  0  0  0  0  0  0
  -24.3535  -11.0270   17.8557 C   0  0  0  0  0  0  0  0  0  0  0  0
  -27.7184  -28.6476   18.7840 C   0  0  0  0  0  0  0  0  0  0  0  0
  -23.3379   -7.0836   20.2110 C   0  0  0  0  0  0  0  0  0  0  0  0
  -22.9534   -6.5820   21.4544 C   0  0  0  0  0  0  0  0  0  0  0  0
  -30.4425  -21.2586   15.0925 C   0  0  0  0  0  0  0  0  0  0  0  0
  -26.5649  -27.8144   20.7319 C   0  0  0  0  0  0  0  0  0  0  0  0
  -29.5206  -21.7948   17.6703 C   0  0  0  0  0  0  0  0  0  0  0  0
  -22.2541   -8.7936   22.1303 C   0  0  0  0  0  0  0  0  0  0  0  0
  -26.4790  -11.8885   18.6152 C   0  0  0  0  0  0  0  0  0  0  0  0
  -30.1565  -22.5699   15.4722 C   0  0  0  0  0  0  0  0  0  0  0  0
  -28.6050  -12.9865   17.7308 C   0  0  0  0  0  0  0  0  0  0  0  0
  -26.5316  -36.7252   22.6567 C   0  0  0  0  0  0  0  0  0  0  0  0
  -25.9721  -29.9777   19.8215 C   0  0  0  0  0  0  0  0  0  0  0  0
  -27.0120  -35.4572   22.2778 C   0  0  0  0  0  0  0  0  0  0  0  0
  -25.7725  -28.9717   20.7776 C   0  0  0  0  0  0  0  0  0  0  0  0
  -29.6956  -22.8380   16.7611 C   0  0  0  0  0  0  0  0  0  0  0  0
  -29.8066  -20.4834   17.2906 C   0  0  0  0  0  0  0  0  0  0  0  0
  -24.5186   -9.9044   18.6670 C   0  0  0  0  0  0  0  0  0  0  0  0
  -27.5335  -27.6545   19.7414 C   0  0  0  0  0  0  0  0  0  0  0  0
  -23.1805   -8.4402   19.9272 C   0  0  0  0  0  0  0  0  0  0  0  0
  -22.4115   -7.4370   22.4141 C   0  0  0  0  0  0  0  0  0  0  0  0
  -30.2676  -20.2153   16.0017 C   0  0  0  0  0  0  0  0  0  0  0  0
  -22.6386   -9.2952   20.8869 C   0  0  0  0  0  0  0  0  0  0  0  0
  -27.4910  -12.9139   18.5884 C   0  0  0  0  0  0  0  0  0  0  0  0
  -29.2511  -14.1396   18.1042 C   0  0  0  0  0  0  0  0  0  0  0  0
  -29.0188  -12.0918   16.6897 C   0  0  0  0  0  0  0  0  0  0  0  0
  -30.3502  -23.6541   14.4908 C   0  0  0  0  0  0  0  0  0  0  0  0
  -25.5259  -32.0760   22.1670 C   0  0  0  0  0  0  0  0  0  0  0  0
  -22.7298  -30.4748   22.5414 C   0  0  0  0  0  0  0  0  0  0  0  0
  -28.9384  -24.5820   18.4101 C   0  0  0  0  0  0  0  0  0  0  0  0
  -20.9601  -27.5912   22.0942 C   0  0  0  0  0  0  0  0  0  0  0  0
  -29.1766  -19.5210   19.5319 C   0  0  0  0  0  0  0  0  0  0  0  0
  -25.5980  -36.9024   23.8279 C   0  0  0  0  0  0  0  0  0  0  0  0
  -25.1209  -31.2177   19.8314 C   0  0  0  0  0  0  0  0  0  0  0  0
  -24.7341  -29.1019   21.8608 C   0  0  0  0  0  0  0  0  0  0  0  0
  -24.9033  -35.6115   24.2537 C   0  0  0  0  0  0  0  0  0  0  0  0
  -28.5640  -17.1492   22.1157 C   0  0  0  0  0  0  0  0  0  0  0  0
  -25.9085  -34.4674   24.3389 C   0  0  0  0  0  0  0  0  0  0  0  0
  -28.3218  -15.8418   21.3578 C   0  0  0  0  0  0  0  0  0  0  0  0
  -27.9848  -18.3514   21.3721 C   0  0  0  0  0  0  0  0  0  0  0  0
  -28.1714  -17.1746   19.2159 C   0  0  0  0  0  0  0  0  0  0  0  0
  -26.5512  -34.1948   22.9736 C   0  0  1  0  0  0  0  0  0  0  0  0
  -24.5194  -31.5186   21.2007 C   0  0  1  0  0  0  0  0  0  0  0  0
  -28.7938  -15.9433   19.8941 C   0  0  2  0  0  0  0  0  0  0  0  0
  -18.7104  -26.5717   22.5377 C   0  0  0  0  0  0  0  0  0  0  0  0
  -23.4771  -30.1087   25.4770 C   0  0  0  0  0  0  0  0  0  0  0  0
  -21.7266  -28.3251   25.6280 C   0  0  0  0  0  0  0  0  0  0  0  0
  -21.0730  -30.6680   25.0744 C   0  0  0  0  0  0  0  0  0  0  0  0
  -20.4409  -27.1966   19.2074 C   0  0  0  0  0  0  0  0  0  0  0  0
  -28.7494  -26.0875   18.4291 C   0  0  0  0  0  0  0  0  0  1  0  0
  -22.2830  -29.2770   23.3443 C   0  0  1  0  0  0  0  0  0  0  0  0
  -19.5682  -27.3387   21.5435 C   0  0  2  0  0  0  0  0  0  0  0  0
  -22.1609  -29.5928   24.8618 C   0  0  0  0  0  0  0  0  0  0  0  0
  -27.4299  -13.9391   19.4423 N   0  0  0  0  0  0  0  0  0  0  0  0
  -28.5137  -14.6668   19.1233 N   0  0  0  0  0  0  0  0  0  0  0  0
  -23.9311  -30.3355   21.8320 N   0  0  0  0  0  0  0  0  0  0  0  0
  -28.4792  -18.3849   19.9940 N   0  0  0  0  0  0  0  0  0  0  0  0
  -30.3725  -14.7438   17.6571 N   0  0  0  0  0  0  0  0  0  0  0  0
  -28.2397  -10.9543   16.4375 N   0  0  0  0  0  0  0  0  0  0  0  0
  -29.4005  -24.1609   17.1678 N   0  0  0  0  0  0  0  0  0  0  0  0
  -29.6270  -19.4251   18.2156 N   0  0  0  0  0  0  0  0  0  0  0  0
  -25.6425  -33.4523   22.1265 N   0  0  0  0  0  0  0  0  0  0  0  0
  -21.0444  -28.8123   22.7292 N   0  0  0  0  0  0  0  0  0  0  0  0
  -19.6457  -26.5488   20.2821 N   0  3  0  0  0  0  0  0  0  0  0  0
  -29.3670  -23.9770   13.7268 O   0  5  0  0  0  0  0  0  0  0  0  0
  -30.0578  -12.2863   16.0143 O   0  0  0  0  0  0  0  0  0  0  0  0
  -31.4954  -24.2370   14.4342 O   0  0  0  0  0  0  0  0  0  0  0  0
  -26.1495  -31.3140   22.8965 O   0  0  0  0  0  0  0  0  0  0  0  0
  -22.0348  -31.4939   22.5380 O   0  0  0  0  0  0  0  0  0  0  0  0
  -28.6963  -23.8916   19.3946 O   0  0  0  0  0  0  0  0  0  0  0  0
  -21.8796  -26.7842   21.9765 O   0  0  0  0  0  0  0  0  0  0  0  0
  -29.3845  -20.4953   20.2595 O   0  0  0  0  0  0  0  0  0  0  0  0
  -23.5620   -8.9365   18.6919 O   0  0  0  0  0  0  0  0  0  0  0  0
  -28.2936  -26.5262   19.7082 O   0  0  0  0  0  0  0  0  0  1  0  0
  -22.0410   -6.9549   23.6076 F   0  0  0  0  0  0  0  0  0  0  0  0
  -30.5454  -18.9588   15.6258 F   0  0  0  0  0  0  0  0  0  0  0  0
  -22.4840  -10.5992   20.6196 F   0  0  0  0  0  0  0  0  0  0  0  0
  1  2  1  0  0  0  0
  1  5  2  0  0  0  0
  2  6  2  0  0  0  0
  3  8  2  0  0  0  0
  3 17  1  0  0  0  0
  4  9  1  0  0  0  0
  4 17  2  0  0  0  0
  5 20  1  0  0  0  0
  6 22  1  0  0  0  0
  7 10  2  0  0  0  0
  7 21  1  0  0  0  0
  8 26  1  0  0  0  0
  9 26  2  0  0  0  0
 10 27  1  0  0  0  0
 11 12  2  0  0  0  0
 11 28  1  0  0  0  0
 12 29  1  0  0  0  0
 13 18  1  0  0  0  0
 13 30  2  0  0  0  0
 14 23  1  0  0  0  0
 14 27  2  0  0  0  0
 15 24  1  0  0  0  0
 15 25  2  0  0  0  0
 16 29  2  0  0  0  0
 16 31  1  0  0  0  0
 17 32  1  0  0  0  0
 18 24  2  0  0  0  0
 18 35  1  0  0  0  0
 19 32  1  0  0  0  0
 19 33  2  0  0  0  0
 19 34  1  0  0  0  0
 20 22  2  0  0  0  0
 20 41  1  0  0  0  0
 21 23  2  0  0  0  0
 21 42  1  0  0  0  0
 22 50  1  0  0  0  0
 23 43  1  0  0  0  0
 24 68  1  0  0  0  0
 25 30  1  0  0  0  0
 25 69  1  0  0  0  0
 26 81  1  0  0  0  0
 27 82  1  0  0  0  0
 28 31  2  0  0  0  0
 28 81  1  0  0  0  0
 29 83  1  0  0  0  0
 30 84  1  0  0  0  0
 31 85  1  0  0  0  0
 32 62  2  0  0  0  0
 33 63  1  0  0  0  0
 33 66  1  0  0  0  0
 34 67  1  0  0  0  0
 34 74  2  0  0  0  0
 35 73  1  0  0  0  0
 35 75  2  0  0  0  0
 36 51  1  0  0  0  0
 36 70  1  0  0  0  0
 36 76  2  0  0  0  0
 37 59  1  0  0  0  0
 37 64  1  0  0  0  0
 37 77  2  0  0  0  0
 38 58  1  0  0  0  0
 38 68  1  0  0  0  0
 38 78  2  0  0  0  0
 39 60  1  0  0  0  0
 39 71  1  0  0  0  0
 39 79  2  0  0  0  0
 40 65  1  0  0  0  0
 40 69  1  0  0  0  0
 40 80  2  0  0  0  0
 41 44  1  0  0  0  0
 42 51  1  0  0  0  0
 43 64  1  0  0  0  0
 44 46  1  0  0  0  0
 45 47  1  0  0  0  0
 45 48  1  0  0  0  0
 46 50  1  0  0  0  0
 47 52  1  0  0  0  0
 48 65  1  0  0  0  0
 49 52  1  0  0  0  0
 49 65  1  0  0  0  0
 50 70  1  0  0  0  0
 51 64  1  0  0  0  0
 52 63  1  0  0  0  0
 53 60  1  0  0  0  0
 54 61  1  0  0  0  0
 55 61  1  0  0  0  0
 56 61  1  0  0  0  0
 57 72  1  0  0  0  0
 58 82  1  0  0  0  0
 59 61  1  0  0  0  0
 59 71  1  0  0  0  0
 60 72  1  0  0  0  0
 62 63  1  0  0  0  0
M  CHG  2  72   1  73  -1
M  ISO  4  40 100  58 101  69 100  82 101
M  END
> <Batch ID>
0068

> <Smiles>
CNC(C)C(=O)NC(C(=O)N1Cc2cc([101O:1][101CH2:1]C(=O)Nc3cc([100NH:0][100C:0](=O)N4CCCC(n5nc(-c6ccc(Oc7ccc(F)cc7F)cc6)c(C(N)=O)c5N)C4)c(F)cc3C(=O)O)ccc2CC1C(=O)NC1CCCc2ccccc21)C(C)(C)C

> <Shape>
0.297

> <Color>
0.077

> <Negative vol penalty>
0.000

$$$$

  -OEChem-04042323273D

 85 93  0     1  0  0  0  0  0999 V2000
  -26.7230  -35.5043   25.8834 C   0  0  0  0  0  0  0  0  0  0  0  0
  -26.9644  -34.1379   25.7820 C   0  0  0  0  0  0  0  0  0  0  0  0
  -23.1076   -9.9139   21.5742 C   0  0  0  0  0  0  0  0  0  0  0  0
  -23.7654  -11.0368   23.6096 C   0  0  0  0  0  0  0  0  0  0  0  0
  -25.4584  -36.0114   25.5872 C   0  0  0  0  0  0  0  0  0  0  0  0
  -25.9411  -33.2777   25.3855 C   0  0  0  0  0  0  0  0  0  0  0  0
  -27.4761  -29.8838   21.9548 C   0  0  0  0  0  0  0  0  0  0  0  0
  -22.3649   -8.9981   22.3194 C   0  0  0  0  0  0  0  0  0  0  0  0
  -23.0227  -10.1210   24.3549 C   0  0  0  0  0  0  0  0  0  0  0  0
  -28.2041  -28.7905   22.4222 C   0  0  0  0  0  0  0  0  0  0  0  0
  -22.9569   -6.2392   24.1802 C   0  0  0  0  0  0  0  0  0  0  0  0
  -23.0754   -4.8890   23.8507 C   0  0  0  0  0  0  0  0  0  0  0  0
  -26.2124  -27.4327   22.3305 C   0  0  0  0  0  0  0  0  0  0  0  0
  -31.6447  -19.6478   21.5548 C   0  0  0  0  0  0  0  0  0  0  0  0
  -31.9059  -17.3256   20.9416 C   0  0  0  0  0  0  0  0  0  0  0  0
  -20.7072   -4.7957   23.3816 C   0  0  0  0  0  0  0  0  0  0  0  0
  -23.8079  -10.9332   22.2193 C   0  0  0  0  0  0  0  0  0  0  0  0
  -24.1294  -13.1041   20.9187 C   0  0  0  0  0  0  0  0  0  0  0  0
  -24.4217  -35.1581   25.1775 C   0  0  0  0  0  0  0  0  0  0  0  0
  -26.1060  -29.7623   21.6816 C   0  0  0  0  0  0  0  0  0  0  0  0
  -24.6611  -33.7738   25.0849 C   0  0  0  0  0  0  0  0  0  0  0  0
  -25.4698  -28.5252   21.8573 C   0  0  0  0  0  0  0  0  0  0  0  0
  -29.7054  -18.3218   20.9913 C   0  0  0  0  0  0  0  0  0  0  0  0
  -30.2648  -19.5378   21.3835 C   0  0  0  0  0  0  0  0  0  0  0  0
  -30.5259  -17.2156   20.7703 C   0  0  0  0  0  0  0  0  0  0  0  0
  -22.3225   -9.1016   23.7097 C   0  0  0  0  0  0  0  0  0  0  0  0
  -27.5717  -27.5655   22.6129 C   0  0  0  0  0  0  0  0  0  0  0  0
  -21.7135   -6.8676   24.1105 C   0  0  0  0  0  0  0  0  0  0  0  0
  -21.9505   -4.1673   23.4514 C   0  0  0  0  0  0  0  0  0  0  0  0
  -32.4652  -18.5417   21.3338 C   0  0  0  0  0  0  0  0  0  0  0  0
  -20.5887   -6.1459   23.7112 C   0  0  0  0  0  0  0  0  0  0  0  0
  -24.5757  -11.8792   21.4501 C   0  0  0  0  0  0  0  0  0  0  0  0
  -25.2290  -13.6217   20.2788 C   0  0  0  0  0  0  0  0  0  0  0  0
  -22.8366  -13.7191   20.9967 C   0  0  0  0  0  0  0  0  0  0  0  0
  -23.4627  -31.1059   22.8267 C   0  0  0  0  0  0  0  0  0  0  0  0
  -22.0468  -29.4502   20.4233 C   0  0  0  0  0  0  0  0  0  0  0  0
  -29.8605  -21.9443   22.0064 C   0  0  0  0  0  0  0  0  0  0  0  0
  -22.1566  -26.8034   18.2718 C   0  0  0  0  0  0  0  0  0  0  0  0
  -30.6715  -14.7866   20.1183 C   0  0  0  0  0  0  0  0  0  0  0  0
  -23.0585  -35.7469   24.9137 C   0  0  0  0  0  0  0  0  0  0  0  0
  -25.3407  -30.9442   21.1525 C   0  0  0  0  0  0  0  0  0  0  0  0
  -24.0054  -28.3372   21.5594 C   0  0  0  0  0  0  0  0  0  0  0  0
  -22.1315  -34.8136   24.1391 C   0  0  0  0  0  0  0  0  0  0  0  0
  -29.6868  -11.5033   19.1553 C   0  0  0  0  0  0  0  0  0  0  0  0
  -22.1740  -33.4079   24.7299 C   0  0  0  0  0  0  0  0  0  0  0  0
  -28.2326  -11.4091   19.6227 C   0  0  0  0  0  0  0  0  0  0  0  0
  -30.5457  -12.3049   20.1318 C   0  0  0  0  0  0  0  0  0  0  0  0
  -28.5725  -13.5433   20.9331 C   0  0  0  0  0  0  0  0  0  0  0  0
  -23.5835  -32.8116   24.6341 C   0  0  1  0  0  0  0  0  0  0  0  0
  -23.8383  -30.8408   21.3962 C   0  0  1  0  0  0  0  0  0  0  0  0
  -27.6544  -12.8001   19.9490 C   0  0  2  0  0  0  0  0  0  0  0  0
  -28.2240  -18.2037   20.8082 C   0  0  0  0  0  0  0  0  0  0  0  0
  -20.8373  -25.6885   16.4513 C   0  0  0  0  0  0  0  0  0  0  0  0
  -20.1643  -28.2693   22.5142 C   0  0  0  0  0  0  0  0  0  0  0  0
  -19.5344  -26.5074   20.8506 C   0  0  0  0  0  0  0  0  0  0  0  0
  -19.0635  -28.9077   20.3612 C   0  0  0  0  0  0  0  0  0  0  0  0
  -24.3064  -27.2422   16.2857 C   0  0  0  0  0  0  0  0  0  0  0  0
  -28.6617  -22.8730   22.1403 C   0  0  0  0  0  0  0  0  0  0  0  0
  -29.0553  -24.2822   22.5695 C   0  0  0  0  0  0  0  0  0  0  0  0
  -27.8468  -25.2035   22.6502 C   0  0  0  0  0  0  0  0  0  1  0  0
  -21.4482  -28.0714   20.2829 C   0  0  1  0  0  0  0  0  0  0  0  0
  -21.9156  -26.7106   16.7759 C   0  0  2  0  0  0  0  0  0  0  0  0
  -20.0798  -27.9427   21.0098 C   0  0  0  0  0  0  0  0  0  0  0  0
  -25.8586  -11.6332   21.1717 N   0  0  0  0  0  0  0  0  0  0  0  0
  -26.2280  -12.7107   20.4584 N   0  0  0  0  0  0  0  0  0  0  0  0
  -23.2988  -29.5242   21.0501 N   0  0  0  0  0  0  0  0  0  0  0  0
  -29.9383  -13.6122   20.3902 N   0  0  0  0  0  0  0  0  0  0  0  0
  -25.4292  -14.7626   19.5855 N   0  0  0  0  0  0  0  0  0  0  0  0
  -21.8199  -13.0513   21.6929 N   0  0  0  0  0  0  0  0  0  0  0  0
  -29.4516  -20.6729   21.6138 N   0  0  0  0  0  0  0  0  0  0  0  0
  -29.9794  -15.9702   20.3725 N   0  0  0  0  0  0  0  0  0  0  0  0
  -23.8468  -32.3506   23.2878 N   0  0  0  0  0  0  0  0  0  0  0  0
  -21.3929  -27.7943   18.8516 N   0  0  0  0  0  0  0  0  0  0  0  0
  -23.1679  -26.3118   16.0732 N   0  3  0  0  0  0  0  0  0  0  0  0
  -22.5858  -14.8203   20.4509 O   0  0  0  0  0  0  0  0  0  0  0  0
  -22.8671  -30.2455   23.4644 O   0  0  0  0  0  0  0  0  0  0  0  0
  -21.4297  -30.4248   19.9864 O   0  0  0  0  0  0  0  0  0  0  0  0
  -31.0057  -22.3232   22.2284 O   0  0  0  0  0  0  0  0  0  0  0  0
  -22.9408  -26.0677   18.8670 O   0  0  0  0  0  0  0  0  0  0  0  0
  -31.8184  -14.7454   19.6656 O   0  0  0  0  0  0  0  0  0  0  0  0
  -21.5977   -8.2083   24.4372 O   0  0  0  0  0  0  0  0  0  0  0  0
  -28.2798  -26.4969   23.0697 O   0  0  0  0  0  0  0  0  0  1  0  0
  -22.0647   -2.8711   23.1335 F   0  0  0  0  0  0  0  0  0  0  0  0
  -33.7904  -18.6478   21.4982 F   0  0  0  0  0  0  0  0  0  0  0  0
  -19.3918   -6.7445   23.6412 F   0  0  0  0  0  0  0  0  0  0  0  0
  1  2  1  0  0  0  0
  1  5  2  0  0  0  0
  2  6  2  0  0  0  0
  3  8  2  0  0  0  0
  3 17  1  0  0  0  0
  4  9  1  0  0  0  0
  4 17  2  0  0  0  0
  5 19  1  0  0  0  0
  6 21  1  0  0  0  0
  7 10  2  0  0  0  0
  7 20  1  0  0  0  0
  8 26  1  0  0  0  0
  9 26  2  0  0  0  0
 10 27  1  0  0  0  0
 11 12  2  0  0  0  0
 11 28  1  0  0  0  0
 12 29  1  0  0  0  0
 13 22  1  0  0  0  0
 13 27  2  0  0  0  0
 14 24  1  0  0  0  0
 14 30  2  0  0  0  0
 15 25  2  0  0  0  0
 15 30  1  0  0  0  0
 16 29  2  0  0  0  0
 16 31  1  0  0  0  0
 17 32  1  0  0  0  0
 18 32  1  0  0  0  0
 18 33  2  0  0  0  0
 18 34  1  0  0  0  0
 19 21  2  0  0  0  0
 19 40  1  0  0  0  0
 20 22  2  0  0  0  0
 20 41  1  0  0  0  0
 21 49  1  0  0  0  0
 22 42  1  0  0  0  0
 23 24  2  0  0  0  0
 23 25  1  0  0  0  0
 23 52  1  0  0  0  0
 24 70  1  0  0  0  0
 25 71  1  0  0  0  0
 26 81  1  0  0  0  0
 27 82  1  0  0  0  0
 28 31  2  0  0  0  0
 28 81  1  0  0  0  0
 29 83  1  0  0  0  0
 30 84  1  0  0  0  0
 31 85  1  0  0  0  0
 32 64  2  0  0  0  0
 33 65  1  0  0  0  0
 33 68  1  0  0  0  0
 34 69  1  0  0  0  0
 34 75  2  0  0  0  0
 35 50  1  0  0  0  0
 35 72  1  0  0  0  0
 35 76  2  0  0  0  0
 36 61  1  0  0  0  0
 36 66  1  0  0  0  0
 36 77  2  0  0  0  0
 37 58  1  0  0  0  0
 37 70  1  0  0  0  0
 37 78  2  0  0  0  0
 38 62  1  0  0  0  0
 38 73  1  0  0  0  0
 38 79  2  0  0  0  0
 39 67  1  0  0  0  0
 39 71  1  0  0  0  0
 39 80  2  0  0  0  0
 40 43  1  0  0  0  0
 41 50  1  0  0  0  0
 42 66  1  0  0  0  0
 43 45  1  0  0  0  0
 44 46  1  0  0  0  0
 44 47  1  0  0  0  0
 45 49  1  0  0  0  0
 46 51  1  0  0  0  0
 47 67  1  0  0  0  0
 48 51  1  0  0  0  0
 48 67  1  0  0  0  0
 49 72  1  0  0  0  0
 50 66  1  0  0  0  0
 51 65  1  0  0  0  0
 53 62  1  0  0  0  0
 54 63  1  0  0  0  0
 55 63  1  0  0  0  0
 56 63  1  0  0  0  0
 57 74  1  0  0  0  0
 58 59  1  0  0  0  0
 59 60  1  0  0  0  0
 60 82  1  0  0  0  0
 61 63  1  0  0  0  0
 61 73  1  0  0  0  0
 62 74  1  0  0  0  0
 64 65  1  0  0  0  0
M  CHG  1  74   1
M  ISO  4  39 100  60 101  71 100  82 101
M  END
> <Batch ID>
0068

> <Smiles>
CNC(C)C(=O)NC(C(=O)N1Cc2cc([101O:1][101CH2:1]CCC(=O)Nc3cc(F)cc([100NH:0][100C:0](=O)N4CCCC(n5nc(-c6ccc(Oc7ccc(F)cc7F)cc6)c(C(N)=O)c5N)C4)c3C)ccc2CC1C(=O)NC1CCCc2ccccc21)C(C)(C)C

> <Shape>
0.301

> <Color>
0.154

> <Negative vol penalty>
0.000

$$$$

  -OEChem-04042323273D

 86 94  0     1  0  0  0  0  0999 V2000
  -27.5556  -16.7257   14.0233 C   0  0  0  0  0  0  0  0  0  0  0  0
  -28.1576  -16.2430   15.1809 C   0  0  0  0  0  0  0  0  0  0  0  0
  -31.7317  -17.7738   25.0160 C   0  0  0  0  0  0  0  0  0  0  0  0
  -28.0038  -26.3549   17.9198 C   0  0  0  0  0  0  0  0  0  0  0  0
  -27.3720  -25.8381   20.1938 C   0  0  0  0  0  0  0  0  0  0  0  0
  -31.9728  -16.4055   24.8919 C   0  0  0  0  0  0  0  0  0  0  0  0
  -26.2553  -17.2264   14.0719 C   0  0  0  0  0  0  0  0  0  0  0  0
  -27.4600  -16.2619   16.3881 C   0  0  0  0  0  0  0  0  0  0  0  0
  -27.9226  -11.9284   18.9672 C   0  0  0  0  0  0  0  0  0  0  0  0
  -31.2814  -18.5051   23.9168 C   0  0  0  0  0  0  0  0  0  0  0  0
  -26.9419  -27.2548   17.8292 C   0  0  0  0  0  0  0  0  0  0  0  0
  -26.3101  -26.7380   20.1032 C   0  0  0  0  0  0  0  0  0  0  0  0
  -29.1121  -11.7273   19.6660 C   0  0  0  0  0  0  0  0  0  0  0  0
  -25.8618  -30.0837   20.2655 C   0  0  0  0  0  0  0  0  0  0  0  0
  -25.6601  -30.9555   21.3354 C   0  0  0  0  0  0  0  0  0  0  0  0
  -31.3136  -16.4999   22.5695 C   0  0  0  0  0  0  0  0  0  0  0  0
  -28.0177  -12.3958   21.7092 C   0  0  0  0  0  0  0  0  0  0  0  0
  -23.4486  -30.0400   21.6645 C   0  0  0  0  0  0  0  0  0  0  0  0
  -28.2188  -25.6465   19.1021 C   0  0  0  0  0  0  0  0  0  0  0  0
  -31.7638  -15.7686   23.6687 C   0  0  0  0  0  0  0  0  0  0  0  0
  -30.6283  -24.9905   19.6234 C   0  0  0  0  0  0  0  0  0  0  0  0
  -25.5379  -17.2425   15.2784 C   0  0  0  0  0  0  0  0  0  0  0  0
  -26.7727  -12.3760   19.6333 C   0  0  0  0  0  0  0  0  0  0  0  0
  -26.1493  -16.7646   16.4531 C   0  0  0  0  0  0  0  0  0  0  0  0
  -26.8142  -12.5994   21.0169 C   0  0  0  0  0  0  0  0  0  0  0  0
  -31.0724  -17.8682   22.6936 C   0  0  0  0  0  0  0  0  0  0  0  0
  -26.0951  -27.4464   18.9209 C   0  0  0  0  0  0  0  0  0  0  0  0
  -29.1606  -11.9638   21.0367 C   0  0  0  0  0  0  0  0  0  0  0  0
  -24.8568  -29.1900   19.8950 C   0  0  0  0  0  0  0  0  0  0  0  0
  -24.4535  -30.9337   22.0349 C   0  0  0  0  0  0  0  0  0  0  0  0
  -23.6503  -29.1682   20.5945 C   0  0  0  0  0  0  0  0  0  0  0  0
  -29.3152  -24.7164   19.1961 C   0  0  0  0  0  0  0  0  0  0  0  0
  -31.2784  -23.7842   19.5308 C   0  0  0  0  0  0  0  0  0  0  0  0
  -32.0210  -14.3112   23.5381 C   0  0  0  0  0  0  0  0  0  0  0  0
  -31.2084  -26.2252   20.0647 C   0  0  0  0  0  0  0  0  0  0  0  0
  -24.9241  -14.9539   19.4320 C   0  0  0  0  0  0  0  0  0  0  0  0
  -23.1028  -13.3365   21.5741 C   0  0  0  0  0  0  0  0  0  0  0  0
  -22.9239  -10.9506   24.0077 C   0  0  0  0  0  0  0  0  0  0  0  0
  -30.3568  -18.1335   20.2928 C   0  0  0  0  0  0  0  0  0  0  0  0
  -24.1519  -17.8371   15.2909 C   0  0  0  0  0  0  0  0  0  0  0  0
  -25.4903  -12.5624   18.8697 C   0  0  0  0  0  0  0  0  0  0  0  0
  -25.6020  -13.0612   21.7824 C   0  0  0  0  0  0  0  0  0  0  0  0
  -23.3454  -17.4761   16.5357 C   0  0  0  0  0  0  0  0  0  0  0  0
  -30.4871  -19.5811   17.0425 C   0  0  0  0  0  0  0  0  0  0  0  0
  -24.1895  -17.6656   17.7921 C   0  0  0  0  0  0  0  0  0  0  0  0
  -30.3268  -21.0800   17.3065 C   0  0  0  0  0  0  0  0  0  0  0  0
  -29.6353  -18.7433   17.9944 C   0  0  0  0  0  0  0  0  0  0  0  0
  -29.6667  -20.5354   19.6845 C   0  0  0  0  0  0  0  0  0  0  0  0
  -25.4160  -16.7454   17.7768 C   0  0  1  0  0  0  0  0  0  0  0  0
  -24.5169  -13.5133   19.5596 C   0  0  1  0  0  0  0  0  0  0  0  0
  -30.5553  -21.4180   18.7928 C   0  0  2  0  0  0  0  0  0  0  0  0
  -21.3082   -9.8796   25.6014 C   0  0  0  0  0  0  0  0  0  0  0  0
  -23.2274  -15.8087   23.3581 C   0  0  0  0  0  0  0  0  0  0  0  0
  -22.4468  -14.3865   25.2649 C   0  0  0  0  0  0  0  0  0  0  0  0
  -20.9874  -14.7004   23.2663 C   0  0  0  0  0  0  0  0  0  0  0  0
  -34.3523  -10.7312   21.3324 C   0  0  0  0  0  0  0  0  0  0  0  0
  -34.3124  -12.9072   20.1259 C   0  0  0  0  0  0  0  0  0  0  0  0
  -35.1179  -12.8156   22.4911 C   0  0  0  0  0  0  0  0  0  0  0  0
  -23.3174   -8.2801   22.7941 C   0  0  0  0  0  0  0  0  0  0  0  0
  -31.5386  -11.9719   21.0061 C   0  0  0  0  0  0  0  0  0  1  0  0
  -23.0485  -13.2481   23.0802 C   0  0  1  0  0  0  0  0  0  0  0  0
  -21.9520   -9.8049   24.2256 C   0  0  2  0  0  0  0  0  0  0  0  0
  -32.6137  -12.4765   21.9765 C   0  0  1  0  0  0  0  0  0  0  0  0
  -22.4511  -14.5291   23.7279 C   0  0  0  0  0  0  0  0  0  0  0  0
  -34.0861  -12.2437   21.5008 C   0  0  0  0  0  0  0  0  0  0  0  0
  -29.1400  -23.4365   18.8570 N   0  0  0  0  0  0  0  0  0  0  0  0
  -30.3514  -22.8955   19.0711 N   0  0  0  0  0  0  0  0  0  0  0  0
  -24.3734  -13.2352   20.9901 N   0  0  0  0  0  0  0  0  0  0  0  0
  -29.9083  -19.1154   19.3843 N   0  0  0  0  0  0  0  0  0  0  0  0
  -32.5468  -23.4075   19.7984 N   0  0  0  0  0  0  0  0  0  0  0  0
  -30.3992  -27.3690   20.0991 N   0  0  0  0  0  0  0  0  0  0  0  0
  -30.6148  -18.6112   21.5772 N   0  0  0  0  0  0  0  0  0  0  0  0
  -32.3571  -13.8752   22.2703 N   0  0  0  0  0  0  0  0  0  0  0  0
  -25.0376  -15.3930   18.1267 N   0  0  0  0  0  0  0  0  0  0  0  0
  -22.3174  -12.0245   23.3912 N   0  0  0  0  0  0  0  0  0  0  0  0
  -22.6574   -8.4976   24.1072 N   0  3  0  0  0  0  0  0  0  0  0  0
  -31.9052  -13.5906   24.5259 O   0  0  0  0  0  0  0  0  0  0  0  0
  -32.4131  -26.3150   20.4026 O   0  0  0  0  0  0  0  0  0  0  0  0
  -25.1194  -15.6184   20.4429 O   0  0  0  0  0  0  0  0  0  0  0  0
  -22.0555  -13.4826   20.9388 O   0  0  0  0  0  0  0  0  0  0  0  0
  -24.1022  -10.8994   24.3533 O   0  0  0  0  0  0  0  0  0  0  0  0
  -30.5274  -16.9610   19.9491 O   0  0  0  0  0  0  0  0  0  0  0  0
  -25.0589  -28.3245   18.8330 O   0  0  0  0  0  0  0  0  0  0  0  0
  -30.3205  -11.7689   21.7212 O   0  0  0  0  0  0  0  0  0  1  0  0
  -24.2606  -31.7699   23.0634 F   0  0  0  0  0  0  0  0  0  0  0  0
  -22.6816  -28.3111   20.2440 F   0  0  0  0  0  0  0  0  0  0  0  0
  1  2  1  0  0  0  0
  1  7  2  0  0  0  0
  2  8  2  0  0  0  0
  3  6  2  0  0  0  0
  3 10  1  0  0  0  0
  4 11  2  0  0  0  0
  4 19  1  0  0  0  0
  5 12  1  0  0  0  0
  5 19  2  0  0  0  0
  6 20  1  0  0  0  0
  7 22  1  0  0  0  0
  8 24  1  0  0  0  0
  9 13  2  0  0  0  0
  9 23  1  0  0  0  0
 10 26  2  0  0  0  0
 11 27  1  0  0  0  0
 12 27  2  0  0  0  0
 13 28  1  0  0  0  0
 14 15  2  0  0  0  0
 14 29  1  0  0  0  0
 15 30  1  0  0  0  0
 16 20  2  0  0  0  0
 16 26  1  0  0  0  0
 17 25  1  0  0  0  0
 17 28  2  0  0  0  0
 18 30  2  0  0  0  0
 18 31  1  0  0  0  0
 19 32  1  0  0  0  0
 20 34  1  0  0  0  0
 21 32  1  0  0  0  0
 21 33  2  0  0  0  0
 21 35  1  0  0  0  0
 22 24  2  0  0  0  0
 22 40  1  0  0  0  0
 23 25  2  0  0  0  0
 23 41  1  0  0  0  0
 24 49  1  0  0  0  0
 25 42  1  0  0  0  0
 26 72  1  0  0  0  0
 27 83  1  0  0  0  0
 28 84  1  0  0  0  0
 29 31  2  0  0  0  0
 29 83  1  0  0  0  0
 30 85  1  0  0  0  0
 31 86  1  0  0  0  0
 32 66  2  0  0  0  0
 33 67  1  0  0  0  0
 33 70  1  0  0  0  0
 34 73  1  0  0  0  0
 34 77  2  0  0  0  0
 35 71  1  0  0  0  0
 35 78  2  0  0  0  0
 36 50  1  0  0  0  0
 36 74  1  0  0  0  0
 36 79  2  0  0  0  0
 37 61  1  0  0  0  0
 37 68  1  0  0  0  0
 37 80  2  0  0  0  0
 38 62  1  0  0  0  0
 38 75  1  0  0  0  0
 38 81  2  0  0  0  0
 39 69  1  0  0  0  0
 39 72  1  0  0  0  0
 39 82  2  0  0  0  0
 40 43  1  0  0  0  0
 41 50  1  0  0  0  0
 42 68  1  0  0  0  0
 43 45  1  0  0  0  0
 44 46  1  0  0  0  0
 44 47  1  0  0  0  0
 45 49  1  0  0  0  0
 46 51  1  0  0  0  0
 47 69  1  0  0  0  0
 48 51  1  0  0  0  0
 48 69  1  0  0  0  0
 49 74  1  0  0  0  0
 50 68  1  0  0  0  0
 51 67  1  0  0  0  0
 52 62  1  0  0  0  0
 53 64  1  0  0  0  0
 54 64  1  0  0  0  0
 55 64  1  0  0  0  0
 56 65  1  0  0  0  0
 57 65  1  0  0  0  0
 58 65  1  0  0  0  0
 59 76  1  0  0  0  0
 60 63  1  0  0  0  0
 60 84  1  0  0  0  0
 61 64  1  0  0  0  0
 61 75  1  0  0  0  0
 62 76  1  0  0  0  0
 63 65  1  0  0  0  0
 63 73  1  0  0  0  0
 66 67  1  0  0  0  0
M  CHG  1  76   1
M  ISO  4  39 100  60 101  72 100  84 101
M  END
> <Batch ID>
0068

> <Smiles>
CNC(C)C(=O)NC(C(=O)N1Cc2cc([101O:1][101CH2:1]C(NC(=O)c3cccc([100NH:0][100C:0](=O)N4CCCC(n5nc(-c6ccc(Oc7ccc(F)cc7F)cc6)c(C(N)=O)c5N)C4)c3)C(C)(C)C)ccc2CC1C(=O)NC1CCCc2ccccc21)C(C)(C)C

> <Shape>
0.239

> <Color>
0.082

> <Negative vol penalty>
0.000

$$$$

  -OEChem-04042323273D

 87 96  0     1  0  0  0  0  0999 V2000
  -27.3231  -31.4666   28.4992 C   0  0  0  0  0  0  0  0  0  0  0  0
  -27.6067  -30.5378   27.5030 C   0  0  0  0  0  0  0  0  0  0  0  0
  -22.8906  -18.2916   19.3764 C   0  0  0  0  0  0  0  0  0  0  0  0
  -23.5948   -9.0174   19.4742 C   0  0  0  0  0  0  0  0  0  0  0  0
  -24.5700   -9.1285   21.6818 C   0  0  0  0  0  0  0  0  0  0  0  0
  -26.0254  -31.9545   28.6466 C   0  0  0  0  0  0  0  0  0  0  0  0
  -26.5925  -30.0956   26.6544 C   0  0  0  0  0  0  0  0  0  0  0  0
  -27.1274  -28.6209   20.7345 C   0  0  0  0  0  0  0  0  0  0  0  0
  -23.3869  -19.5935   19.4412 C   0  0  0  0  0  0  0  0  0  0  0  0
  -23.7607  -17.2071   19.4882 C   0  0  0  0  0  0  0  0  0  0  0  0
  -22.4337   -8.4651   20.0148 C   0  0  0  0  0  0  0  0  0  0  0  0
  -23.4089   -8.5763   22.2225 C   0  0  0  0  0  0  0  0  0  0  0  0
  -27.2631  -27.3966   20.0814 C   0  0  0  0  0  0  0  0  0  0  0  0
  -20.8410   -6.8630   24.1410 C   0  0  0  0  0  0  0  0  0  0  0  0
  -20.9853   -5.8469   25.0856 C   0  0  0  0  0  0  0  0  0  0  0  0
  -24.8831  -27.3478   19.6911 C   0  0  0  0  0  0  0  0  0  0  0  0
  -25.6236  -18.7266   19.7292 C   0  0  0  0  0  0  0  0  0  0  0  0
  -22.1500   -4.4967   23.4554 C   0  0  0  0  0  0  0  0  0  0  0  0
  -24.6630   -9.3490   20.3076 C   0  0  0  0  0  0  0  0  0  0  0  0
  -26.7134   -9.3381   18.7898 C   0  0  0  0  0  0  0  0  0  0  0  0
  -24.9967  -31.5253   27.7932 C   0  0  0  0  0  0  0  0  0  0  0  0
  -25.8649  -29.2135   20.8806 C   0  0  0  0  0  0  0  0  0  0  0  0
  -25.2795  -30.5773   26.7914 C   0  0  0  0  0  0  0  0  0  0  0  0
  -24.7343  -28.5808   20.3442 C   0  0  0  0  0  0  0  0  0  0  0  0
  -24.7534  -19.8111   19.6175 C   0  0  0  0  0  0  0  0  0  0  0  0
  -25.1272  -17.4246   19.6645 C   0  0  0  0  0  0  0  0  0  0  0  0
  -22.3407   -8.2446   21.3890 C   0  0  0  0  0  0  0  0  0  0  0  0
  -26.1405  -26.7585   19.5621 C   0  0  0  0  0  0  0  0  0  0  0  0
  -21.3511   -6.6959   22.8535 C   0  0  0  0  0  0  0  0  0  0  0  0
  -21.6398   -4.6638   24.7428 C   0  0  0  0  0  0  0  0  0  0  0  0
  -22.0057   -5.5128   22.5107 C   0  0  0  0  0  0  0  0  0  0  0  0
  -25.8630   -9.9190   19.7496 C   0  0  0  0  0  0  0  0  0  0  0  0
  -27.7015  -10.2722   18.5964 C   0  0  0  0  0  0  0  0  0  0  0  0
  -26.3463  -21.6335   20.3539 C   0  0  0  0  0  0  0  0  0  0  0  0
  -27.1468  -21.0819   21.2747 C   0  0  0  0  0  0  0  0  0  0  0  0
  -26.6185   -8.0677   18.1319 C   0  0  0  0  0  0  0  0  0  0  0  0
  -28.2772  -21.8520   21.8560 C   0  0  0  0  0  0  0  0  0  0  0  0
  -24.0412  -30.0264   23.3539 C   0  0  0  0  0  0  0  0  0  0  0  0
  -22.1706  -31.3307   21.0470 C   0  0  0  0  0  0  0  0  0  0  0  0
  -21.2056  -31.3626   17.7737 C   0  0  0  0  0  0  0  0  0  0  0  0
  -27.3963  -16.3538   19.9552 C   0  0  0  0  0  0  0  0  0  0  0  0
  -23.5996  -32.0455   28.0214 C   0  0  0  0  0  0  0  0  0  0  0  0
  -25.7388  -30.5473   21.5643 C   0  0  0  0  0  0  0  0  0  0  0  0
  -23.3593  -29.1850   20.4568 C   0  0  0  0  0  0  0  0  0  0  0  0
  -22.6609  -31.8081   26.8413 C   0  0  0  0  0  0  0  0  0  0  0  0
  -29.7996  -13.8147   21.1533 C   0  0  0  0  0  0  0  0  0  0  0  0
  -22.7900  -30.3745   26.3364 C   0  0  0  0  0  0  0  0  0  0  0  0
  -29.2856  -12.4689   20.6397 C   0  0  0  0  0  0  0  0  0  0  0  0
  -29.4423  -14.9749   20.2344 C   0  0  0  0  0  0  0  0  0  0  0  0
  -27.2543  -13.8060   19.8925 C   0  0  0  0  0  0  0  0  0  0  0  0
  -24.5610  -22.1974   18.9971 C   0  0  0  0  0  0  0  0  0  0  0  0
  -24.2115  -30.0920   25.8354 C   0  0  1  0  0  0  0  0  0  0  0  0
  -24.3375  -30.8105   22.1070 C   0  0  1  0  0  0  0  0  0  0  0  0
  -28.1701  -12.6095   19.5905 C   0  0  2  0  0  0  0  0  0  0  0  0
  -25.6770  -23.2396   18.9173 C   0  0  1  0  0  0  0  0  0  0  0  0
  -28.6694  -21.5110   23.2694 C   0  0  0  0  0  0  0  0  0  0  0  0
  -19.6305  -32.5140   16.1955 C   0  0  0  0  0  0  0  0  0  0  0  0
  -19.8461  -29.7249   22.1993 C   0  0  0  0  0  0  0  0  0  0  0  0
  -18.5888  -30.1540   20.0771 C   0  0  0  0  0  0  0  0  0  0  0  0
  -19.2678  -32.0643   21.5305 C   0  0  0  0  0  0  0  0  0  0  0  0
  -23.4315  -32.3716   16.1046 C   0  0  0  0  0  0  0  0  0  0  0  0
  -25.1631  -24.6655   18.9964 C   0  0  0  0  0  0  0  0  0  1  0  0
  -21.0279  -30.8385   20.1920 C   0  0  1  0  0  0  0  0  0  0  0  0
  -21.0320  -32.5020   16.7858 C   0  0  2  0  0  0  0  0  0  0  0  0
  -19.7082  -30.6829   20.9991 C   0  0  0  0  0  0  0  0  0  0  0  0
  -26.2750  -11.1284   20.1389 N   0  0  0  0  0  0  0  0  0  0  0  0
  -27.3951  -11.3151   19.4202 N   0  0  0  0  0  0  0  0  0  0  0  0
  -25.2522  -21.1209   19.6832 N   0  0  0  0  0  0  0  0  0  0  0  0
  -23.2869  -30.4873   21.1396 N   0  0  0  0  0  0  0  0  0  0  0  0
  -27.9941  -15.0721   20.0303 N   0  0  0  0  0  0  0  0  0  0  0  0
  -28.7940  -10.2950   17.8037 N   0  0  0  0  0  0  0  0  0  0  0  0
  -27.2382   -6.9598   18.7259 N   0  0  0  0  0  0  0  0  0  0  0  0
  -26.0110  -16.3226   19.7767 N   0  0  0  0  0  0  0  0  0  0  0  0
  -24.4081  -30.6671   24.5220 N   0  0  0  0  0  0  0  0  0  0  0  0
  -20.9342  -31.7609   19.0656 N   0  0  0  0  0  0  0  0  0  0  0  0
  -22.0110  -32.3735   15.6696 N   0  3  0  0  0  0  0  0  0  0  0  0
  -26.0164   -7.9228   17.0411 O   0  0  0  0  0  0  0  0  0  0  0  0
  -28.8841  -22.7084   21.2170 O   0  0  0  0  0  0  0  0  0  0  0  0
  -23.5172  -28.9224   23.2632 O   0  0  0  0  0  0  0  0  0  0  0  0
  -22.0792  -32.4264   21.6062 O   0  0  0  0  0  0  0  0  0  0  0  0
  -21.5442  -30.2313   17.4330 O   0  0  0  0  0  0  0  0  0  0  0  0
  -28.0627  -17.3861   20.0571 O   0  0  0  0  0  0  0  0  0  0  0  0
  -26.5574  -22.9843   20.0341 O   0  0  0  0  0  0  0  0  0  0  0  0
  -21.2077   -7.7059   21.9170 O   0  0  0  0  0  0  0  0  0  0  0  0
  -26.2701  -25.5631   18.9247 O   0  0  0  0  0  0  0  0  0  1  0  0
  -21.7797   -3.6888   25.6506 F   0  0  0  0  0  0  0  0  0  0  0  0
  -22.4989   -5.3470   21.2758 F   0  0  0  0  0  0  0  0  0  0  0  0
  1  2  1  0  0  0  0
  1  6  2  0  0  0  0
  2  7  2  0  0  0  0
  3  9  2  0  0  0  0
  3 10  1  0  0  0  0
  4 11  2  0  0  0  0
  4 19  1  0  0  0  0
  5 12  1  0  0  0  0
  5 19  2  0  0  0  0
  6 21  1  0  0  0  0
  7 23  1  0  0  0  0
  8 13  2  0  0  0  0
  8 22  1  0  0  0  0
  9 25  1  0  0  0  0
 10 26  2  0  0  0  0
 11 27  1  0  0  0  0
 12 27  2  0  0  0  0
 13 28  1  0  0  0  0
 14 15  2  0  0  0  0
 14 29  1  0  0  0  0
 15 30  1  0  0  0  0
 16 24  1  0  0  0  0
 16 28  2  0  0  0  0
 17 25  2  0  0  0  0
 17 26  1  0  0  0  0
 18 30  2  0  0  0  0
 18 31  1  0  0  0  0
 19 32  1  0  0  0  0
 20 32  1  0  0  0  0
 20 33  2  0  0  0  0
 20 36  1  0  0  0  0
 21 23  2  0  0  0  0
 21 42  1  0  0  0  0
 22 24  2  0  0  0  0
 22 43  1  0  0  0  0
 23 52  1  0  0  0  0
 24 44  1  0  0  0  0
 25 68  1  0  0  0  0
 26 73  1  0  0  0  0
 27 84  1  0  0  0  0
 28 85  1  0  0  0  0
 29 31  2  0  0  0  0
 29 84  1  0  0  0  0
 30 86  1  0  0  0  0
 31 87  1  0  0  0  0
 32 66  2  0  0  0  0
 33 67  1  0  0  0  0
 33 71  1  0  0  0  0
 34 35  2  0  0  0  0
 34 68  1  0  0  0  0
 34 83  1  0  0  0  0
 35 37  1  0  0  0  0
 36 72  1  0  0  0  0
 36 77  2  0  0  0  0
 37 56  1  0  0  0  0
 37 78  2  0  0  0  0
 38 53  1  0  0  0  0
 38 74  1  0  0  0  0
 38 79  2  0  0  0  0
 39 63  1  0  0  0  0
 39 69  1  0  0  0  0
 39 80  2  0  0  0  0
 40 64  1  0  0  0  0
 40 75  1  0  0  0  0
 40 81  2  0  0  0  0
 41 70  1  0  0  0  0
 41 73  1  0  0  0  0
 41 82  2  0  0  0  0
 42 45  1  0  0  0  0
 43 53  1  0  0  0  0
 44 69  1  0  0  0  0
 45 47  1  0  0  0  0
 46 48  1  0  0  0  0
 46 49  1  0  0  0  0
 47 52  1  0  0  0  0
 48 54  1  0  0  0  0
 49 70  1  0  0  0  0
 50 54  1  0  0  0  0
 50 70  1  0  0  0  0
 51 55  1  0  0  0  0
 51 68  1  0  0  0  0
 52 74  1  0  0  0  0
 53 69  1  0  0  0  0
 54 67  1  0  0  0  0
 55 62  1  0  0  0  0
 55 83  1  0  0  0  0
 57 64  1  0  0  0  0
 58 65  1  0  0  0  0
 59 65  1  0  0  0  0
 60 65  1  0  0  0  0
 61 76  1  0  0  0  0
 62 85  1  0  0  0  0
 63 65  1  0  0  0  0
 63 75  1  0  0  0  0
 64 76  1  0  0  0  0
 66 67  1  0  0  0  0
M  CHG  1  76   1
M  ISO  4  41 100  62 101  73 100  85 101
M  END
> <Batch ID>
0068

> <Smiles>
CNC(C)C(=O)NC(C(=O)N1Cc2cc([101O:1][101CH2:1]C3CN(c4cccc([100NH:0][100C:0](=O)N5CCCC(n6nc(-c7ccc(Oc8ccc(F)cc8F)cc7)c(C(N)=O)c6N)C5)c4)C(=CC(C)=O)O3)ccc2CC1C(=O)NC1CCCc2ccccc21)C(C)(C)C

> <Shape>
0.244

> <Color>
0.105

> <Negative vol penalty>
0.000

$$$$

  -OEChem-04042323273D

 83 91  0     1  0  0  0  0  0999 V2000
  -23.9349   -8.0447   22.0635 C   0  0  0  0  0  0  0  0  0  0  0  0
  -24.6216   -9.0687   21.4192 C   0  0  0  0  0  0  0  0  0  0  0  0
  -21.9887  -28.3495   21.3623 C   0  0  0  0  0  0  0  0  0  0  0  0
  -22.9554  -27.3724   23.3492 C   0  0  0  0  0  0  0  0  0  0  0  0
  -22.5754   -8.1845   22.3394 C   0  0  0  0  0  0  0  0  0  0  0  0
  -23.9489  -10.2328   21.0493 C   0  0  0  0  0  0  0  0  0  0  0  0
  -26.5555  -14.4251   22.1783 C   0  0  0  0  0  0  0  0  0  0  0  0
  -20.7177  -28.2387   21.9262 C   0  0  0  0  0  0  0  0  0  0  0  0
  -21.6844  -27.2616   23.9131 C   0  0  0  0  0  0  0  0  0  0  0  0
  -27.6053  -14.7704   21.3283 C   0  0  0  0  0  0  0  0  0  0  0  0
  -18.8474  -29.9026   24.1992 C   0  0  0  0  0  0  0  0  0  0  0  0
  -17.9938  -31.0007   24.0945 C   0  0  0  0  0  0  0  0  0  0  0  0
  -26.1856  -16.3906   20.2427 C   0  0  0  0  0  0  0  0  0  0  0  0
  -30.0151  -19.9872   23.0567 C   0  0  0  0  0  0  0  0  0  0  0  0
  -29.2942  -22.2906   22.9501 C   0  0  0  0  0  0  0  0  0  0  0  0
  -29.5407  -21.0067   20.9184 C   0  0  0  0  0  0  0  0  0  0  0  0
  -16.4000  -29.6465   22.8850 C   0  0  0  0  0  0  0  0  0  0  0  0
  -23.1075  -27.9163   22.0738 C   0  0  0  0  0  0  0  0  0  0  0  0
  -25.3059  -29.1194   21.5970 C   0  0  0  0  0  0  0  0  0  0  0  0
  -21.8878   -9.3548   21.9814 C   0  0  0  0  0  0  0  0  0  0  0  0
  -25.3075  -15.0534   22.0595 C   0  0  0  0  0  0  0  0  0  0  0  0
  -22.5786  -10.3878   21.3194 C   0  0  0  0  0  0  0  0  0  0  0  0
  -25.1223  -16.0533   21.0941 C   0  0  0  0  0  0  0  0  0  0  0  0
  -29.6926  -21.1830   23.6984 C   0  0  0  0  0  0  0  0  0  0  0  0
  -29.9392  -19.8991   21.6667 C   0  0  0  0  0  0  0  0  0  0  0  0
  -29.2182  -22.2025   21.5600 C   0  0  0  0  0  0  0  0  0  0  0  0
  -20.5656  -27.6948   23.2016 C   0  0  0  0  0  0  0  0  0  0  0  0
  -27.4196  -15.7512   20.3585 C   0  0  0  0  0  0  0  0  0  0  0  0
  -18.4773  -28.6763   23.6467 C   0  0  0  0  0  0  0  0  0  0  0  0
  -16.7701  -30.8727   23.4374 C   0  0  0  0  0  0  0  0  0  0  0  0
  -17.2536  -28.5483   22.9897 C   0  0  0  0  0  0  0  0  0  0  0  0
  -24.4207  -28.0299   21.4916 C   0  0  0  0  0  0  0  0  0  0  0  0
  -26.4088  -28.7370   20.8733 C   0  0  0  0  0  0  0  0  0  0  0  0
  -25.1456  -30.3658   22.2874 C   0  0  0  0  0  0  0  0  0  0  0  0
  -22.3594  -14.0757   21.3836 C   0  0  0  0  0  0  0  0  0  0  0  0
  -21.5965  -17.1475   22.0940 C   0  0  0  0  0  0  0  0  0  0  0  0
  -30.2464  -18.4231   19.6490 C   0  0  0  0  0  0  0  0  0  0  0  0
  -22.6018  -20.3994   22.3414 C   0  0  0  0  0  0  0  0  0  0  0  0
  -28.6869  -23.4093   19.4134 C   0  0  0  0  0  0  0  0  0  0  0  0
  -20.4077   -9.4407   22.2582 C   0  0  0  0  0  0  0  0  0  0  0  0
  -24.1931  -14.6884   23.0016 C   0  0  0  0  0  0  0  0  0  0  0  0
  -23.8079  -16.7721   20.9389 C   0  0  0  0  0  0  0  0  0  0  0  0
  -19.8527  -10.8599   22.1687 C   0  0  0  0  0  0  0  0  0  0  0  0
  -27.6867  -25.9851   17.1681 C   0  0  0  0  0  0  0  0  0  0  0  0
  -20.3608  -11.5534   20.9086 C   0  0  0  0  0  0  0  0  0  0  0  0
  -26.8212  -26.9042   18.0331 C   0  0  0  0  0  0  0  0  0  0  0  0
  -27.4941  -24.5146   17.5345 C   0  0  0  0  0  0  0  0  0  0  0  0
  -26.8099  -25.1196   19.8225 C   0  0  0  0  0  0  0  0  0  0  0  0
  -21.8893  -11.6759   20.9247 C   0  0  1  0  0  0  0  0  0  0  0  0
  -22.8111  -15.0296   22.4530 C   0  0  1  0  0  0  0  0  0  0  0  0
  -27.0181  -26.6153   19.5342 C   0  0  2  0  0  0  0  0  0  0  0  0
  -29.7753  -21.2771   25.1848 C   0  0  0  0  0  0  0  0  0  0  0  0
  -21.7447  -22.6884   22.9098 C   0  0  0  0  0  0  0  0  0  0  0  0
  -20.2065  -17.2978   19.3819 C   0  0  0  0  0  0  0  0  0  0  0  0
  -20.2151  -19.7925   19.5939 C   0  0  0  0  0  0  0  0  0  0  0  0
  -18.9688  -18.4059   21.2513 C   0  0  0  0  0  0  0  0  0  0  0  0
  -24.4920  -20.6725   24.6023 C   0  0  0  0  0  0  0  0  0  0  0  0
  -30.6714  -16.9849   19.3756 C   0  0  0  0  0  0  0  0  0  0  0  0
  -29.7674  -15.9579   20.0405 C   0  0  0  0  0  0  0  0  0  1  0  0
  -21.4963  -18.4331   21.3090 C   0  0  1  0  0  0  0  0  0  0  0  0
  -22.4153  -21.4306   23.4397 C   0  0  2  0  0  0  0  0  0  0  0  0
  -20.2460  -18.4676   20.3854 C   0  0  0  0  0  0  0  0  0  0  0  0
  -24.9182  -27.0303   20.7586 N   0  0  0  0  0  0  0  0  0  0  0  0
  -26.1280  -27.4903   20.3967 N   0  0  0  0  0  0  0  0  0  0  0  0
  -22.7471  -16.3755   21.8795 N   0  0  0  0  0  0  0  0  0  0  0  0
  -27.7006  -24.3159   18.9707 N   0  0  0  0  0  0  0  0  0  0  0  0
  -27.5817  -29.3488   20.6044 N   0  0  0  0  0  0  0  0  0  0  0  0
  -23.9499  -30.5961   22.9815 N   0  0  0  0  0  0  0  0  0  0  0  0
  -30.2666  -18.6857   21.0162 N   0  0  0  0  0  0  0  0  0  0  0  0
  -28.8148  -23.3281   20.7997 N   0  0  0  0  0  0  0  0  0  0  0  0
  -22.3006  -12.7575   21.7938 N   0  0  0  0  0  0  0  0  0  0  0  0
  -21.5462  -19.5139   22.2877 N   0  0  0  0  0  0  0  0  0  0  0  0
  -23.7332  -21.8106   24.0226 N   0  3  0  0  0  0  0  0  0  0  0  0
  -26.0295  -31.2557   22.2751 O   0  0  0  0  0  0  0  0  0  0  0  0
  -22.0832  -14.5042   20.2692 O   0  0  0  0  0  0  0  0  0  0  0  0
  -20.6908  -16.8431   22.8741 O   0  0  0  0  0  0  0  0  0  0  0  0
  -29.9395  -19.1958   18.7472 O   0  0  0  0  0  0  0  0  0  0  0  0
  -23.5837  -20.3835   21.6024 O   0  0  0  0  0  0  0  0  0  0  0  0
  -29.3865  -22.7734   18.6209 O   0  0  0  0  0  0  0  0  0  0  0  0
  -19.3255  -27.5868   23.7522 O   0  0  0  0  0  0  0  0  0  0  0  0
  -28.4425  -16.0896   19.5271 O   0  0  0  0  0  0  0  0  0  1  0  0
  -15.9498  -31.9270   23.3383 F   0  0  0  0  0  0  0  0  0  0  0  0
  -16.8921  -27.3726   22.4580 F   0  0  0  0  0  0  0  0  0  0  0  0
  1  2  1  0  0  0  0
  1  5  2  0  0  0  0
  2  6  2  0  0  0  0
  3  8  2  0  0  0  0
  3 18  1  0  0  0  0
  4  9  1  0  0  0  0
  4 18  2  0  0  0  0
  5 20  1  0  0  0  0
  6 22  1  0  0  0  0
  7 10  2  0  0  0  0
  7 21  1  0  0  0  0
  8 27  1  0  0  0  0
  9 27  2  0  0  0  0
 10 28  1  0  0  0  0
 11 12  2  0  0  0  0
 11 29  1  0  0  0  0
 12 30  1  0  0  0  0
 13 23  1  0  0  0  0
 13 28  2  0  0  0  0
 14 24  2  0  0  0  0
 14 25  1  0  0  0  0
 15 24  1  0  0  0  0
 15 26  2  0  0  0  0
 16 25  2  0  0  0  0
 16 26  1  0  0  0  0
 17 30  2  0  0  0  0
 17 31  1  0  0  0  0
 18 32  1  0  0  0  0
 19 32  1  0  0  0  0
 19 33  2  0  0  0  0
 19 34  1  0  0  0  0
 20 22  2  0  0  0  0
 20 40  1  0  0  0  0
 21 23  2  0  0  0  0
 21 41  1  0  0  0  0
 22 49  1  0  0  0  0
 23 42  1  0  0  0  0
 24 52  1  0  0  0  0
 25 69  1  0  0  0  0
 26 70  1  0  0  0  0
 27 80  1  0  0  0  0
 28 81  1  0  0  0  0
 29 31  2  0  0  0  0
 29 80  1  0  0  0  0
 30 82  1  0  0  0  0
 31 83  1  0  0  0  0
 32 63  2  0  0  0  0
 33 64  1  0  0  0  0
 33 67  1  0  0  0  0
 34 68  1  0  0  0  0
 34 74  2  0  0  0  0
 35 50  1  0  0  0  0
 35 71  1  0  0  0  0
 35 75  2  0  0  0  0
 36 60  1  0  0  0  0
 36 65  1  0  0  0  0
 36 76  2  0  0  0  0
 37 58  1  0  0  0  0
 37 69  1  0  0  0  0
 37 77  2  0  0  0  0
 38 61  1  0  0  0  0
 38 72  1  0  0  0  0
 38 78  2  0  0  0  0
 39 66  1  0  0  0  0
 39 70  1  0  0  0  0
 39 79  2  0  0  0  0
 40 43  1  0  0  0  0
 41 50  1  0  0  0  0
 42 65  1  0  0  0  0
 43 45  1  0  0  0  0
 44 46  1  0  0  0  0
 44 47  1  0  0  0  0
 45 49  1  0  0  0  0
 46 51  1  0  0  0  0
 47 66  1  0  0  0  0
 48 51  1  0  0  0  0
 48 66  1  0  0  0  0
 49 71  1  0  0  0  0
 50 65  1  0  0  0  0
 51 64  1  0  0  0  0
 53 61  1  0  0  0  0
 54 62  1  0  0  0  0
 55 62  1  0  0  0  0
 56 62  1  0  0  0  0
 57 73  1  0  0  0  0
 58 59  1  0  0  0  0
 59 81  1  0  0  0  0
 60 62  1  0  0  0  0
 60 72  1  0  0  0  0
 61 73  1  0  0  0  0
 63 64  1  0  0  0  0
M  CHG  1  73   1
M  ISO  4  39 100  59 101  70 100  81 101
M  END
> <Batch ID>
0068

> <Smiles>
CNC(C)C(=O)NC(C(=O)N1Cc2cc([101O:1][101CH2:1]CC(=O)Nc3cc(C)cc([100NH:0][100C:0](=O)N4CCCC(n5nc(-c6ccc(Oc7ccc(F)cc7F)cc6)c(C(N)=O)c5N)C4)c3)ccc2CC1C(=O)NC1CCCc2ccccc21)C(C)(C)C

> <Shape>
0.248

> <Color>
0.086

> <Negative vol penalty>
0.000

$$$$

  -OEChem-04042323273D

 84 92  0     1  0  0  0  0  0999 V2000
  -23.9383   -8.0469   22.0156 C   0  0  0  0  0  0  0  0  0  0  0  0
  -24.6214   -9.0760   21.3755 C   0  0  0  0  0  0  0  0  0  0  0  0
  -21.9880  -28.3362   21.3524 C   0  0  0  0  0  0  0  0  0  0  0  0
  -22.9613  -27.3711   23.3420 C   0  0  0  0  0  0  0  0  0  0  0  0
  -22.5809   -8.1854   22.3022 C   0  0  0  0  0  0  0  0  0  0  0  0
  -23.9471  -10.2439   21.0206 C   0  0  0  0  0  0  0  0  0  0  0  0
  -26.5653  -14.4239   22.1682 C   0  0  0  0  0  0  0  0  0  0  0  0
  -20.7186  -28.2264   21.9201 C   0  0  0  0  0  0  0  0  0  0  0  0
  -21.6919  -27.2613   23.9097 C   0  0  0  0  0  0  0  0  0  0  0  0
  -27.6094  -14.7758   21.3140 C   0  0  0  0  0  0  0  0  0  0  0  0
  -18.8514  -29.8991   24.1891 C   0  0  0  0  0  0  0  0  0  0  0  0
  -17.9958  -30.9954   24.0808 C   0  0  0  0  0  0  0  0  0  0  0  0
  -26.1835  -16.4067   20.2527 C   0  0  0  0  0  0  0  0  0  0  0  0
  -29.5494  -21.0029   20.9280 C   0  0  0  0  0  0  0  0  0  0  0  0
  -29.3072  -22.2975   22.9533 C   0  0  0  0  0  0  0  0  0  0  0  0
  -16.4011  -29.6323   22.8825 C   0  0  0  0  0  0  0  0  0  0  0  0
  -23.1093  -27.9085   22.0633 C   0  0  0  0  0  0  0  0  0  0  0  0
  -25.3045  -29.1127   21.5746 C   0  0  0  0  0  0  0  0  0  0  0  0
  -21.8918   -9.3594   21.9593 C   0  0  0  0  0  0  0  0  0  0  0  0
  -25.3170  -15.0542   22.0637 C   0  0  0  0  0  0  0  0  0  0  0  0
  -22.5788  -10.3977   21.3017 C   0  0  0  0  0  0  0  0  0  0  0  0
  -25.1260  -16.0628   21.1085 C   0  0  0  0  0  0  0  0  0  0  0  0
  -30.0295  -19.9950   23.0706 C   0  0  0  0  0  0  0  0  0  0  0  0
  -29.2279  -22.2019   21.5640 C   0  0  0  0  0  0  0  0  0  0  0  0
  -29.9501  -19.8994   21.6813 C   0  0  0  0  0  0  0  0  0  0  0  0
  -20.5706  -27.6889   23.1987 C   0  0  0  0  0  0  0  0  0  0  0  0
  -27.4178  -15.7653   20.3542 C   0  0  0  0  0  0  0  0  0  0  0  0
  -18.4819  -28.6694   23.6441 C   0  0  0  0  0  0  0  0  0  0  0  0
  -16.7706  -30.8620   23.4275 C   0  0  0  0  0  0  0  0  0  0  0  0
  -29.7080  -21.1941   23.7066 C   0  0  0  0  0  0  0  0  0  0  0  0
  -17.2567  -28.5360   22.9908 C   0  0  0  0  0  0  0  0  0  0  0  0
  -24.4208  -28.0212   21.4772 C   0  0  0  0  0  0  0  0  0  0  0  0
  -26.4062  -28.7281   20.8501 C   0  0  0  0  0  0  0  0  0  0  0  0
  -25.1439  -30.3624   22.2588 C   0  0  0  0  0  0  0  0  0  0  0  0
  -22.3634  -14.0850   21.3999 C   0  0  0  0  0  0  0  0  0  0  0  0
  -21.6082  -17.1510   22.1427 C   0  0  0  0  0  0  0  0  0  0  0  0
  -30.2419  -18.4410   19.6485 C   0  0  0  0  0  0  0  0  0  0  0  0
  -22.6181  -20.3998   22.4118 C   0  0  0  0  0  0  0  0  0  0  0  0
  -28.6891  -23.3965   19.4125 C   0  0  0  0  0  0  0  0  0  0  0  0
  -20.4138   -9.4440   22.2472 C   0  0  0  0  0  0  0  0  0  0  0  0
  -24.2090  -14.6819   23.0104 C   0  0  0  0  0  0  0  0  0  0  0  0
  -23.8111  -16.7840   20.9689 C   0  0  0  0  0  0  0  0  0  0  0  0
  -19.8593  -10.8644   22.1741 C   0  0  0  0  0  0  0  0  0  0  0  0
  -27.6791  -25.9589   17.1561 C   0  0  0  0  0  0  0  0  0  0  0  0
  -20.3593  -11.5686   20.9168 C   0  0  0  0  0  0  0  0  0  0  0  0
  -26.8143  -26.8811   18.0185 C   0  0  0  0  0  0  0  0  0  0  0  0
  -27.4898  -24.4900   17.5308 C   0  0  0  0  0  0  0  0  0  0  0  0
  -26.8104  -25.1059   19.8173 C   0  0  0  0  0  0  0  0  0  0  0  0
  -21.8880  -11.6897   20.9231 C   0  0  1  0  0  0  0  0  0  0  0  0
  -22.8234  -15.0291   22.4745 C   0  0  1  0  0  0  0  0  0  0  0  0
  -27.0156  -26.6004   19.5206 C   0  0  2  0  0  0  0  0  0  0  0  0
  -30.4575  -18.8275   23.8996 C   0  0  0  0  0  0  0  0  0  0  0  0
  -21.7670  -22.6844   23.0064 C   0  0  0  0  0  0  0  0  0  0  0  0
  -20.1994  -17.3265   19.4419 C   0  0  0  0  0  0  0  0  0  0  0  0
  -20.2117  -19.8191   19.6758 C   0  0  0  0  0  0  0  0  0  0  0  0
  -18.9758  -18.4190   21.3296 C   0  0  0  0  0  0  0  0  0  0  0  0
  -24.5243  -20.6513   24.6617 C   0  0  0  0  0  0  0  0  0  0  0  0
  -30.6638  -17.0049   19.3595 C   0  0  0  0  0  0  0  0  0  0  0  0
  -29.7635  -15.9729   20.0216 C   0  0  0  0  0  0  0  0  0  1  0  0
  -21.5037  -18.4436   21.3698 C   0  0  1  0  0  0  0  0  0  0  0  0
  -22.4402  -21.4214   23.5205 C   0  0  2  0  0  0  0  0  0  0  0  0
  -20.2470  -18.4873   20.4554 C   0  0  0  0  0  0  0  0  0  0  0  0
  -24.9180  -27.0185   20.7482 N   0  0  0  0  0  0  0  0  0  0  0  0
  -26.1262  -27.4785   20.3808 N   0  0  0  0  0  0  0  0  0  0  0  0
  -22.7566  -16.3800   21.9134 N   0  0  0  0  0  0  0  0  0  0  0  0
  -27.7003  -24.2992   18.9675 N   0  0  0  0  0  0  0  0  0  0  0  0
  -27.5774  -29.3404   20.5750 N   0  0  0  0  0  0  0  0  0  0  0  0
  -23.9497  -30.5944   22.9547 N   0  0  0  0  0  0  0  0  0  0  0  0
  -30.2719  -18.6915   21.0178 N   0  0  0  0  0  0  0  0  0  0  0  0
  -28.8207  -23.3228   20.7988 N   0  0  0  0  0  0  0  0  0  0  0  0
  -22.3062  -12.7633   21.7989 N   0  0  0  0  0  0  0  0  0  0  0  0
  -21.5614  -19.5157   22.3577 N   0  0  0  0  0  0  0  0  0  0  0  0
  -23.7625  -21.7951   24.0975 N   0  3  0  0  0  0  0  0  0  0  0  0
  -26.0264  -31.2536   22.2396 O   0  0  0  0  0  0  0  0  0  0  0  0
  -22.0797  -14.5235   20.2913 O   0  0  0  0  0  0  0  0  0  0  0  0
  -20.7077  -16.8405   22.9265 O   0  0  0  0  0  0  0  0  0  0  0  0
  -29.9295  -19.2219   18.7558 O   0  0  0  0  0  0  0  0  0  0  0  0
  -23.5948  -20.3896   21.6658 O   0  0  0  0  0  0  0  0  0  0  0  0
  -29.3878  -22.7576   18.6215 O   0  0  0  0  0  0  0  0  0  0  0  0
  -19.3321  -27.5818   23.7531 O   0  0  0  0  0  0  0  0  0  0  0  0
  -28.4351  -16.1102   19.5187 O   0  0  0  0  0  0  0  0  0  1  0  0
  -15.9484  -31.9144   23.3250 F   0  0  0  0  0  0  0  0  0  0  0  0
  -29.7825  -21.2969   25.0411 F   0  0  0  0  0  0  0  0  0  0  0  0
  -16.8957  -27.3569   22.4663 F   0  0  0  0  0  0  0  0  0  0  0  0
  1  2  1  0  0  0  0
  1  5  2  0  0  0  0
  2  6  2  0  0  0  0
  3  8  2  0  0  0  0
  3 17  1  0  0  0  0
  4  9  1  0  0  0  0
  4 17  2  0  0  0  0
  5 19  1  0  0  0  0
  6 21  1  0  0  0  0
  7 10  2  0  0  0  0
  7 20  1  0  0  0  0
  8 26  1  0  0  0  0
  9 26  2  0  0  0  0
 10 27  1  0  0  0  0
 11 12  2  0  0  0  0
 11 28  1  0  0  0  0
 12 29  1  0  0  0  0
 13 22  1  0  0  0  0
 13 27  2  0  0  0  0
 14 24  2  0  0  0  0
 14 25  1  0  0  0  0
 15 24  1  0  0  0  0
 15 30  2  0  0  0  0
 16 29  2  0  0  0  0
 16 31  1  0  0  0  0
 17 32  1  0  0  0  0
 18 32  1  0  0  0  0
 18 33  2  0  0  0  0
 18 34  1  0  0  0  0
 19 21  2  0  0  0  0
 19 40  1  0  0  0  0
 20 22  2  0  0  0  0
 20 41  1  0  0  0  0
 21 49  1  0  0  0  0
 22 42  1  0  0  0  0
 23 25  2  0  0  0  0
 23 30  1  0  0  0  0
 23 52  1  0  0  0  0
 24 70  1  0  0  0  0
 25 69  1  0  0  0  0
 26 80  1  0  0  0  0
 27 81  1  0  0  0  0
 28 31  2  0  0  0  0
 28 80  1  0  0  0  0
 29 82  1  0  0  0  0
 30 83  1  0  0  0  0
 31 84  1  0  0  0  0
 32 63  2  0  0  0  0
 33 64  1  0  0  0  0
 33 67  1  0  0  0  0
 34 68  1  0  0  0  0
 34 74  2  0  0  0  0
 35 50  1  0  0  0  0
 35 71  1  0  0  0  0
 35 75  2  0  0  0  0
 36 60  1  0  0  0  0
 36 65  1  0  0  0  0
 36 76  2  0  0  0  0
 37 58  1  0  0  0  0
 37 69  1  0  0  0  0
 37 77  2  0  0  0  0
 38 61  1  0  0  0  0
 38 72  1  0  0  0  0
 38 78  2  0  0  0  0
 39 66  1  0  0  0  0
 39 70  1  0  0  0  0
 39 79  2  0  0  0  0
 40 43  1  0  0  0  0
 41 50  1  0  0  0  0
 42 65  1  0  0  0  0
 43 45  1  0  0  0  0
 44 46  1  0  0  0  0
 44 47  1  0  0  0  0
 45 49  1  0  0  0  0
 46 51  1  0  0  0  0
 47 66  1  0  0  0  0
 48 51  1  0  0  0  0
 48 66  1  0  0  0  0
 49 71  1  0  0  0  0
 50 65  1  0  0  0  0
 51 64  1  0  0  0  0
 53 61  1  0  0  0  0
 54 62  1  0  0  0  0
 55 62  1  0  0  0  0
 56 62  1  0  0  0  0
 57 73  1  0  0  0  0
 58 59  1  0  0  0  0
 59 81  1  0  0  0  0
 60 62  1  0  0  0  0
 60 72  1  0  0  0  0
 61 73  1  0  0  0  0
 63 64  1  0  0  0  0
M  CHG  1  73   1
M  ISO  4  39 100  59 101  70 100  81 101
M  END
> <Batch ID>
0068

> <Smiles>
CNC(C)C(=O)NC(C(=O)N1Cc2cc([101O:1][101CH2:1]CC(=O)Nc3cc([100NH:0][100C:0](=O)N4CCCC(n5nc(-c6ccc(Oc7ccc(F)cc7F)cc6)c(C(N)=O)c5N)C4)cc(F)c3C)ccc2CC1C(=O)NC1CCCc2ccccc21)C(C)(C)C

> <Shape>
0.247

> <Color>
0.087

> <Negative vol penalty>
0.000

$$$$

  -OEChem-04042323273D

 87 96  0     1  0  0  0  0  0999 V2000
  -25.5456  -19.8086   16.2303 C   0  0  0  0  0  0  0  0  0  0  0  0
  -25.7661  -18.4726   16.5517 C   0  0  0  0  0  0  0  0  0  0  0  0
  -18.7642  -24.0415   23.4457 C   0  0  0  0  0  0  0  0  0  0  0  0
  -20.1465  -24.0487   23.2893 C   0  0  0  0  0  0  0  0  0  0  0  0
  -25.9666  -20.8150   17.1000 C   0  0  0  0  0  0  0  0  0  0  0  0
  -26.4084  -18.1378   17.7441 C   0  0  0  0  0  0  0  0  0  0  0  0
  -24.3717   -8.8808   20.5571 C   0  0  0  0  0  0  0  0  0  0  0  0
  -22.6970  -10.5837   20.9212 C   0  0  0  0  0  0  0  0  0  0  0  0
  -18.0255  -25.1890   23.1601 C   0  0  0  0  0  0  0  0  0  0  0  0
  -20.7909  -25.2031   22.8460 C   0  0  0  0  0  0  0  0  0  0  0  0
  -24.9625  -26.2479   25.5202 C   0  0  0  0  0  0  0  0  0  0  0  0
  -23.4761   -7.9060   20.9966 C   0  0  0  0  0  0  0  0  0  0  0  0
  -21.8013   -9.6088   21.3606 C   0  0  0  0  0  0  0  0  0  0  0  0
  -26.1070  -25.5064   25.2304 C   0  0  0  0  0  0  0  0  0  0  0  0
  -22.3012   -6.7529   23.9486 C   0  0  0  0  0  0  0  0  0  0  0  0
  -22.7769   -5.7916   24.8403 C   0  0  0  0  0  0  0  0  0  0  0  0
  -27.0452  -21.4963   19.1917 C   0  0  0  0  0  0  0  0  0  0  0  0
  -26.9481  -27.3355   23.9014 C   0  0  0  0  0  0  0  0  0  0  0  0
  -27.9079  -19.8255   20.7056 C   0  0  0  0  0  0  0  0  0  0  0  0
  -22.2260   -4.0511   23.2579 C   0  0  0  0  0  0  0  0  0  0  0  0
  -26.6147  -20.4963   18.3045 C   0  0  0  0  0  0  0  0  0  0  0  0
  -26.8389  -19.1377   18.6314 C   0  0  0  0  0  0  0  0  0  0  0  0
  -23.9822  -10.2197   20.5195 C   0  0  0  0  0  0  0  0  0  0  0  0
  -25.0858  -11.6853   18.7470 C   0  0  0  0  0  0  0  0  0  0  0  0
  -18.6622  -26.3610   22.7224 C   0  0  0  0  0  0  0  0  0  0  0  0
  -24.7969  -27.5368   24.9931 C   0  0  0  0  0  0  0  0  0  0  0  0
  -20.0600  -26.3669   22.5530 C   0  0  0  0  0  0  0  0  0  0  0  0
  -25.8017  -28.0923   24.1882 C   0  0  0  0  0  0  0  0  0  0  0  0
  -27.6875  -21.1615   20.3841 C   0  0  0  0  0  0  0  0  0  0  0  0
  -27.4869  -18.8191   19.8359 C   0  0  0  0  0  0  0  0  0  0  0  0
  -22.1909   -8.2700   21.3983 C   0  0  0  0  0  0  0  0  0  0  0  0
  -27.0987  -26.0490   24.4185 C   0  0  0  0  0  0  0  0  0  0  0  0
  -21.7878   -6.3633   22.7115 C   0  0  0  0  0  0  0  0  0  0  0  0
  -22.7394   -4.4407   24.4950 C   0  0  0  0  0  0  0  0  0  0  0  0
  -21.7503   -5.0124   22.3661 C   0  0  0  0  0  0  0  0  0  0  0  0
  -24.9071  -11.2272   20.0661 C   0  0  0  0  0  0  0  0  0  0  0  0
  -26.0724  -12.6360   18.8444 C   0  0  0  0  0  0  0  0  0  0  0  0
  -28.0634  -24.1314   23.4896 C   0  0  0  0  0  0  0  0  0  1  0  0
  -24.4196  -11.2872   17.5415 C   0  0  0  0  0  0  0  0  0  0  0  0
  -29.0820  -23.3283   23.1532 C   0  0  0  0  0  0  0  0  0  0  0  0
  -28.7809  -22.0266   22.4746 C   0  0  0  0  0  0  0  0  0  0  0  0
  -22.6955  -28.9099   23.0432 C   0  0  0  0  0  0  0  0  0  0  0  0
  -24.3335  -31.6034   23.8075 C   0  0  0  0  0  0  0  0  0  0  0  0
  -27.2430  -33.0130   24.9006 C   0  0  0  0  0  0  0  0  0  0  0  0
  -28.3683  -17.0314   21.3766 C   0  0  0  0  0  0  0  0  0  0  0  0
  -17.8167  -27.5623   22.3807 C   0  0  0  0  0  0  0  0  0  0  0  0
  -23.5687  -28.3340   25.3370 C   0  0  0  0  0  0  0  0  0  0  0  0
  -25.6815  -29.4795   23.6140 C   0  0  0  0  0  0  0  0  0  0  0  0
  -18.6152  -28.8589   22.2745 C   0  0  0  0  0  0  0  0  0  0  0  0
  -29.1425  -13.8148   22.6924 C   0  0  0  0  0  0  0  0  0  0  0  0
  -19.8758  -28.6429   21.4431 C   0  0  0  0  0  0  0  0  0  0  0  0
  -28.1243  -12.8926   22.0179 C   0  0  0  0  0  0  0  0  0  0  0  0
  -28.5398  -15.1788   23.0239 C   0  0  0  0  0  0  0  0  0  0  0  0
  -26.8772  -14.9414   21.2215 C   0  0  0  0  0  0  0  0  0  0  0  0
  -20.7979  -27.6073   22.0980 C   0  0  1  0  0  0  0  0  0  0  0  0
  -23.2706  -29.4378   24.3270 C   0  0  1  0  0  0  0  0  0  0  0  0
  -27.4566  -13.5781   20.8097 C   0  0  2  0  0  0  0  0  0  0  0  0
  -30.5226  -23.5991   23.4578 C   0  0  0  0  0  0  0  0  0  0  0  0
  -28.2915  -35.2402   25.3877 C   0  0  0  0  0  0  0  0  0  0  0  0
  -24.6774  -32.0931   20.8155 C   0  0  0  0  0  0  0  0  0  0  0  0
  -26.4843  -33.7373   21.3632 C   0  0  0  0  0  0  0  0  0  0  0  0
  -24.1529  -34.1395   22.1541 C   0  0  0  0  0  0  0  0  0  0  0  0
  -27.6563  -32.3255   27.7494 C   0  0  0  0  0  0  0  0  0  0  0  0
  -25.5341  -32.3217   23.2404 C   0  0  1  0  0  0  0  0  0  0  0  0
  -27.5169  -34.0639   25.9613 C   0  0  2  0  0  0  0  0  0  0  0  0
  -25.2139  -33.0460   21.9024 C   0  0  0  0  0  0  0  0  0  0  0  0
  -25.7154  -11.8366   20.9376 N   0  0  0  0  0  0  0  0  0  0  0  0
  -26.4116  -12.6872   20.1645 N   0  0  0  0  0  0  0  0  0  0  0  0
  -24.4591  -30.2169   23.9739 N   0  0  0  0  0  0  0  0  0  0  0  0
  -27.9293  -15.7699   21.8311 N   0  0  0  0  0  0  0  0  0  0  0  0
  -26.6742  -13.4246   17.9288 N   0  0  0  0  0  0  0  0  0  0  0  0
  -23.4310  -10.2969   17.6203 N   0  0  0  0  0  0  0  0  0  0  0  0
  -28.1149  -22.1827   21.2674 N   0  0  0  0  0  0  0  0  0  0  0  0
  -27.7381  -17.4771   20.2152 N   0  0  0  0  0  0  0  0  0  0  0  0
  -21.5202  -28.2008   23.2028 N   0  0  0  0  0  0  0  0  0  0  0  0
  -26.0183  -33.2041   24.2965 N   0  0  0  0  0  0  0  0  0  0  0  0
  -28.3107  -33.4780   27.0781 N   0  3  0  0  0  0  0  0  0  0  0  0
  -24.7045  -11.7829   16.4249 O   0  0  0  0  0  0  0  0  0  0  0  0
  -29.1746  -20.9830   22.9861 O   0  0  0  0  0  0  0  0  0  0  0  0
  -23.2743  -29.1308   21.9859 O   0  0  0  0  0  0  0  0  0  0  0  0
  -23.3241  -32.2497   24.0990 O   0  0  0  0  0  0  0  0  0  0  0  0
  -28.0377  -32.1147   24.6320 O   0  0  0  0  0  0  0  0  0  0  0  0
  -29.2582  -17.6571   21.9584 O   0  0  0  0  0  0  0  0  0  0  0  0
  -21.3166   -7.3190   21.8270 O   0  0  0  0  0  0  0  0  0  0  0  0
  -28.2165  -25.3272   24.1334 O   0  0  0  0  0  0  0  0  0  1  0  0
  -23.1977   -3.5178   25.3508 F   0  0  0  0  0  0  0  0  0  0  0  0
  -21.2593   -4.6321   21.1786 F   0  0  0  0  0  0  0  0  0  0  0  0
  1  2  1  0  0  0  0
  1  5  2  0  0  0  0
  2  6  2  0  0  0  0
  3  4  1  0  0  0  0
  3  9  2  0  0  0  0
  4 10  2  0  0  0  0
  5 21  1  0  0  0  0
  6 22  1  0  0  0  0
  7 12  2  0  0  0  0
  7 23  1  0  0  0  0
  8 13  1  0  0  0  0
  8 23  2  0  0  0  0
  9 25  1  0  0  0  0
 10 27  1  0  0  0  0
 11 14  2  0  0  0  0
 11 26  1  0  0  0  0
 12 31  1  0  0  0  0
 13 31  2  0  0  0  0
 14 32  1  0  0  0  0
 15 16  2  0  0  0  0
 15 33  1  0  0  0  0
 16 34  1  0  0  0  0
 17 21  1  0  0  0  0
 17 29  2  0  0  0  0
 18 28  1  0  0  0  0
 18 32  2  0  0  0  0
 19 29  1  0  0  0  0
 19 30  2  0  0  0  0
 20 34  2  0  0  0  0
 20 35  1  0  0  0  0
 21 22  2  0  0  0  0
 22 30  1  0  0  0  0
 23 36  1  0  0  0  0
 24 36  1  0  0  0  0
 24 37  2  0  0  0  0
 24 39  1  0  0  0  0
 25 27  2  0  0  0  0
 25 46  1  0  0  0  0
 26 28  2  0  0  0  0
 26 47  1  0  0  0  0
 27 55  1  0  0  0  0
 28 48  1  0  0  0  0
 29 73  1  0  0  0  0
 30 74  1  0  0  0  0
 31 84  1  0  0  0  0
 32 85  1  0  0  0  0
 33 35  2  0  0  0  0
 33 84  1  0  0  0  0
 34 86  1  0  0  0  0
 35 87  1  0  0  0  0
 36 67  2  0  0  0  0
 37 68  1  0  0  0  0
 37 71  1  0  0  0  0
 38 40  2  0  0  0  0
 38 85  1  0  0  0  0
 39 72  1  0  0  0  0
 39 78  2  0  0  0  0
 40 41  1  0  0  0  0
 40 58  1  0  0  0  0
 41 73  1  0  0  0  0
 41 79  2  0  0  0  0
 42 56  1  0  0  0  0
 42 75  1  0  0  0  0
 42 80  2  0  0  0  0
 43 64  1  0  0  0  0
 43 69  1  0  0  0  0
 43 81  2  0  0  0  0
 44 65  1  0  0  0  0
 44 76  1  0  0  0  0
 44 82  2  0  0  0  0
 45 70  1  0  0  0  0
 45 74  1  0  0  0  0
 45 83  2  0  0  0  0
 46 49  1  0  0  0  0
 47 56  1  0  0  0  0
 48 69  1  0  0  0  0
 49 51  1  0  0  0  0
 50 52  1  0  0  0  0
 50 53  1  0  0  0  0
 51 55  1  0  0  0  0
 52 57  1  0  0  0  0
 53 70  1  0  0  0  0
 54 57  1  0  0  0  0
 54 70  1  0  0  0  0
 55 75  1  0  0  0  0
 56 69  1  0  0  0  0
 57 68  1  0  0  0  0
 59 65  1  0  0  0  0
 60 66  1  0  0  0  0
 61 66  1  0  0  0  0
 62 66  1  0  0  0  0
 63 77  1  0  0  0  0
 64 66  1  0  0  0  0
 64 76  1  0  0  0  0
 65 77  1  0  0  0  0
 67 68  1  0  0  0  0
M  CHG  1  77   1
M  ISO  4  38 101  45 100  74 100  85 101
M  END
> <Batch ID>
0068

> <Smiles>
CNC(C)C(=O)NC(C(=O)N1Cc2cc([101O:1][101CH:1]=C(C)C(=O)Nc3cc([100NH:0][100C:0](=O)N4CCCC(n5nc(-c6ccc(Oc7ccc(F)cc7F)cc6)c(C(N)=O)c5N)C4)c4ccccc4c3)ccc2CC1C(=O)NC1CCCc2ccccc21)C(C)(C)C

> <Shape>
0.270

> <Color>
0.112

> <Negative vol penalty>
0.000

$$$$

  -OEChem-04042323273D

 83 91  0     1  0  0  0  0  0999 V2000
  -24.3099   -7.0298   23.6888 C   0  0  0  0  0  0  0  0  0  0  0  0
  -25.4919   -7.7631   23.6623 C   0  0  0  0  0  0  0  0  0  0  0  0
  -24.4935  -31.5225   22.9922 C   0  0  0  0  0  0  0  0  0  0  0  0
  -25.3747  -31.4001   20.7460 C   0  0  0  0  0  0  0  0  0  0  0  0
  -23.2493   -7.3890   22.8581 C   0  0  0  0  0  0  0  0  0  0  0  0
  -25.6143   -8.8555   22.8043 C   0  0  0  0  0  0  0  0  0  0  0  0
  -28.7335  -15.2894   22.3676 C   0  0  0  0  0  0  0  0  0  0  0  0
  -27.5841  -24.3169   17.4133 C   0  0  0  0  0  0  0  0  0  0  0  0
  -25.1655  -32.7286   23.1901 C   0  0  0  0  0  0  0  0  0  0  0  0
  -26.0467  -32.6063   20.9438 C   0  0  0  0  0  0  0  0  0  0  0  0
  -29.5489  -16.0357   21.5179 C   0  0  0  0  0  0  0  0  0  0  0  0
  -24.7424  -35.9803   22.3651 C   0  0  0  0  0  0  0  0  0  0  0  0
  -28.5782  -23.9447   16.5085 C   0  0  0  0  0  0  0  0  0  0  0  0
  -24.0396  -37.0221   22.9703 C   0  0  0  0  0  0  0  0  0  0  0  0
  -27.6224  -16.6117   20.1852 C   0  0  0  0  0  0  0  0  0  0  0  0
  -28.3072  -22.5758   18.9241 C   0  0  0  0  0  0  0  0  0  0  0  0
  -25.6535  -37.0665   24.7677 C   0  0  0  0  0  0  0  0  0  0  0  0
  -24.5982  -30.8581   21.7701 C   0  0  0  0  0  0  0  0  0  0  0  0
  -22.6012  -29.4368   21.0632 C   0  0  0  0  0  0  0  0  0  0  0  0
  -23.3553   -8.4922   21.9965 C   0  0  0  0  0  0  0  0  0  0  0  0
  -27.3558  -15.1896   22.1259 C   0  0  0  0  0  0  0  0  0  0  0  0
  -24.5546   -9.2290   21.9604 C   0  0  0  0  0  0  0  0  0  0  0  0
  -26.7913  -15.8657   21.0349 C   0  0  0  0  0  0  0  0  0  0  0  0
  -27.4486  -23.6325   18.6211 C   0  0  0  0  0  0  0  0  0  0  0  0
  -29.3014  -22.2035   18.0192 C   0  0  0  0  0  0  0  0  0  0  0  0
  -25.9420  -33.2706   22.1659 C   0  0  0  0  0  0  0  0  0  0  0  0
  -28.9938  -16.6946   20.4248 C   0  0  0  0  0  0  0  0  0  0  0  0
  -25.9007  -35.4815   22.9612 C   0  0  0  0  0  0  0  0  0  0  0  0
  -24.4952  -37.5653   24.1716 C   0  0  0  0  0  0  0  0  0  0  0  0
  -29.4368  -22.8880   16.8114 C   0  0  0  0  0  0  0  0  0  0  0  0
  -26.3563  -36.0247   24.1625 C   0  0  0  0  0  0  0  0  0  0  0  0
  -23.9047  -29.6118   21.5653 C   0  0  0  0  0  0  0  0  0  0  0  0
  -22.4133  -28.0763   21.0627 C   0  0  0  0  0  0  0  0  0  0  0  0
  -21.6457  -30.4165   20.6355 C   0  0  0  0  0  0  0  0  0  0  0  0
  -25.3593  -12.8028   21.4776 C   0  0  0  0  0  0  0  0  0  0  0  0
  -23.1107  -15.1233   21.7628 C   0  0  0  0  0  0  0  0  0  0  0  0
  -30.1763  -20.3471   19.4795 C   0  0  0  0  0  0  0  0  0  0  0  0
  -22.3428  -18.4458   21.6281 C   0  0  0  0  0  0  0  0  0  0  0  0
  -26.1684  -23.4367   20.7819 C   0  0  0  0  0  0  0  0  0  0  0  0
  -22.1991   -8.8134   21.0829 C   0  0  0  0  0  0  0  0  0  0  0  0
  -26.4859  -14.4026   23.0673 C   0  0  0  0  0  0  0  0  0  0  0  0
  -25.3149  -15.8070   20.7433 C   0  0  0  0  0  0  0  0  0  0  0  0
  -22.2741  -10.2112   20.4740 C   0  0  0  0  0  0  0  0  0  0  0  0
  -23.7966  -24.1040   23.3523 C   0  0  0  0  0  0  0  0  0  0  0  0
  -23.6753  -10.4850   19.9368 C   0  0  0  0  0  0  0  0  0  0  0  0
  -23.4320  -25.5746   23.1362 C   0  0  0  0  0  0  0  0  0  0  0  0
  -25.2732  -23.8377   23.0651 C   0  0  0  0  0  0  0  0  0  0  0  0
  -25.3778  -25.7656   21.5349 C   0  0  0  0  0  0  0  0  0  0  0  0
  -24.7167  -10.4354   21.0613 C   0  0  1  0  0  0  0  0  0  0  0  0
  -25.1754  -13.9489   22.4317 C   0  0  1  0  0  0  0  0  0  0  0  0
  -23.8861  -26.0699   21.7491 C   0  0  2  0  0  0  0  0  0  0  0  0
  -20.4144  -20.0333   21.8693 C   0  0  0  0  0  0  0  0  0  0  0  0
  -22.0921  -14.3008   19.0067 C   0  0  0  0  0  0  0  0  0  0  0  0
  -20.8426  -16.4676   18.8987 C   0  0  0  0  0  0  0  0  0  0  0  0
  -20.2978  -14.8030   20.6749 C   0  0  0  0  0  0  0  0  0  0  0  0
  -23.6259  -19.8420   23.9004 C   0  0  0  0  0  0  0  0  0  0  0  0
  -31.2821  -19.3003   19.4070 C   0  0  0  0  0  0  0  0  0  0  0  0
  -30.9481  -18.0247   20.1654 C   0  0  0  0  0  0  0  0  0  1  0  0
  -22.4608  -16.1043   20.8171 C   0  0  1  0  0  0  0  0  0  0  0  0
  -21.5669  -19.3397   22.5786 C   0  0  2  0  0  0  0  0  0  0  0  0
  -21.4515  -15.4186   19.8535 C   0  0  0  0  0  0  0  0  0  0  0  0
  -24.5025  -28.4549   21.8623 N   0  0  0  0  0  0  0  0  0  0  0  0
  -23.5704  -27.5399   21.5460 N   0  0  0  0  0  0  0  0  0  0  0  0
  -24.5070  -15.0195   21.6891 N   0  0  0  0  0  0  0  0  0  0  0  0
  -25.6301  -24.3296   21.7326 N   0  0  0  0  0  0  0  0  0  0  0  0
  -21.3727  -27.2983   20.6961 N   0  0  0  0  0  0  0  0  0  0  0  0
  -22.0016  -31.7705   20.7021 N   0  0  0  0  0  0  0  0  0  0  0  0
  -30.1715  -21.1313   18.3290 N   0  0  0  0  0  0  0  0  0  0  0  0
  -26.4385  -24.0107   19.5401 N   0  0  0  0  0  0  0  0  0  0  0  0
  -24.6793  -11.6554   21.8389 N   0  0  0  0  0  0  0  0  0  0  0  0
  -21.8757  -17.1487   21.6509 N   0  0  0  0  0  0  0  0  0  0  0  0
  -22.4612  -20.3837   23.1540 N   0  3  0  0  0  0  0  0  0  0  0  0
  -20.5040  -30.1015   20.2223 O   0  0  0  0  0  0  0  0  0  0  0  0
  -26.0646  -12.9491   20.4862 O   0  0  0  0  0  0  0  0  0  0  0  0
  -22.4060  -14.4782   22.5432 O   0  0  0  0  0  0  0  0  0  0  0  0
  -29.4256  -20.4379   20.4451 O   0  0  0  0  0  0  0  0  0  0  0  0
  -23.2682  -18.8579   20.9320 O   0  0  0  0  0  0  0  0  0  0  0  0
  -26.3491  -22.2442   21.0412 O   0  0  0  0  0  0  0  0  0  0  0  0
  -26.5977  -34.4477   22.3586 O   0  0  0  0  0  0  0  0  0  0  0  0
  -29.7874  -17.4231   19.5934 O   0  0  0  0  0  0  0  0  0  1  0  0
  -23.8211  -38.5668   24.7519 F   0  0  0  0  0  0  0  0  0  0  0  0
  -30.3883  -22.5391   15.9339 F   0  0  0  0  0  0  0  0  0  0  0  0
  -27.4690  -35.5505   24.7392 F   0  0  0  0  0  0  0  0  0  0  0  0
  1  2  1  0  0  0  0
  1  5  2  0  0  0  0
  2  6  2  0  0  0  0
  3  9  2  0  0  0  0
  3 18  1  0  0  0  0
  4 10  1  0  0  0  0
  4 18  2  0  0  0  0
  5 20  1  0  0  0  0
  6 22  1  0  0  0  0
  7 11  2  0  0  0  0
  7 21  1  0  0  0  0
  8 13  2  0  0  0  0
  8 24  1  0  0  0  0
  9 26  1  0  0  0  0
 10 26  2  0  0  0  0
 11 27  1  0  0  0  0
 12 14  2  0  0  0  0
 12 28  1  0  0  0  0
 13 30  1  0  0  0  0
 14 29  1  0  0  0  0
 15 23  1  0  0  0  0
 15 27  2  0  0  0  0
 16 24  2  0  0  0  0
 16 25  1  0  0  0  0
 17 29  2  0  0  0  0
 17 31  1  0  0  0  0
 18 32  1  0  0  0  0
 19 32  1  0  0  0  0
 19 33  2  0  0  0  0
 19 34  1  0  0  0  0
 20 22  2  0  0  0  0
 20 40  1  0  0  0  0
 21 23  2  0  0  0  0
 21 41  1  0  0  0  0
 22 49  1  0  0  0  0
 23 42  1  0  0  0  0
 24 69  1  0  0  0  0
 25 30  2  0  0  0  0
 25 68  1  0  0  0  0
 26 79  1  0  0  0  0
 27 80  1  0  0  0  0
 28 31  2  0  0  0  0
 28 79  1  0  0  0  0
 29 81  1  0  0  0  0
 30 82  1  0  0  0  0
 31 83  1  0  0  0  0
 32 62  2  0  0  0  0
 33 63  1  0  0  0  0
 33 66  1  0  0  0  0
 34 67  1  0  0  0  0
 34 73  2  0  0  0  0
 35 50  1  0  0  0  0
 35 70  1  0  0  0  0
 35 74  2  0  0  0  0
 36 59  1  0  0  0  0
 36 64  1  0  0  0  0
 36 75  2  0  0  0  0
 37 57  1  0  0  0  0
 37 68  1  0  0  0  0
 37 76  2  0  0  0  0
 38 60  1  0  0  0  0
 38 71  1  0  0  0  0
 38 77  2  0  0  0  0
 39 65  1  0  0  0  0
 39 69  1  0  0  0  0
 39 78  2  0  0  0  0
 40 43  1  0  0  0  0
 41 50  1  0  0  0  0
 42 64  1  0  0  0  0
 43 45  1  0  0  0  0
 44 46  1  0  0  0  0
 44 47  1  0  0  0  0
 45 49  1  0  0  0  0
 46 51  1  0  0  0  0
 47 65  1  0  0  0  0
 48 51  1  0  0  0  0
 48 65  1  0  0  0  0
 49 70  1  0  0  0  0
 50 64  1  0  0  0  0
 51 63  1  0  0  0  0
 52 60  1  0  0  0  0
 53 61  1  0  0  0  0
 54 61  1  0  0  0  0
 55 61  1  0  0  0  0
 56 72  1  0  0  0  0
 57 58  1  0  0  0  0
 58 80  1  0  0  0  0
 59 61  1  0  0  0  0
 59 71  1  0  0  0  0
 60 72  1  0  0  0  0
 62 63  1  0  0  0  0
M  CHG  1  72   1
M  ISO  4  39 100  58 101  69 100  80 101
M  END
> <Batch ID>
0068

> <Smiles>
CNC(C)C(=O)NC(C(=O)N1Cc2cc([101O:1][101CH2:1]CC(=O)Nc3cc([100NH:0][100C:0](=O)N4CCCC(n5nc(-c6ccc(Oc7ccc(F)cc7F)cc6)c(C(N)=O)c5N)C4)ccc3F)ccc2CC1C(=O)NC1CCCc2ccccc21)C(C)(C)C

> <Shape>
0.234

> <Color>
0.061

> <Negative vol penalty>
0.000

$$$$

  -OEChem-04042323273D

 85 93  0     1  0  0  0  0  0999 V2000
  -20.7176  -33.9232   15.3737 C   0  0  0  0  0  0  0  0  0  0  0  0
  -21.5405  -32.8065   15.4798 C   0  0  0  0  0  0  0  0  0  0  0  0
  -22.9251  -11.6102   21.5141 C   0  0  0  0  0  0  0  0  0  0  0  0
  -22.9181  -14.0064   21.2057 C   0  0  0  0  0  0  0  0  0  0  0  0
  -20.9280  -35.0241   16.2029 C   0  0  0  0  0  0  0  0  0  0  0  0
  -22.5750  -32.7905   16.4147 C   0  0  0  0  0  0  0  0  0  0  0  0
  -24.6167  -27.9511   19.5639 C   0  0  0  0  0  0  0  0  0  0  0  0
  -21.9067  -11.7289   22.4597 C   0  0  0  0  0  0  0  0  0  0  0  0
  -21.8997  -14.1251   22.1514 C   0  0  0  0  0  0  0  0  0  0  0  0
  -25.7024  -27.0977   19.3726 C   0  0  0  0  0  0  0  0  0  0  0  0
  -19.0489  -15.0249   24.2206 C   0  0  0  0  0  0  0  0  0  0  0  0
  -17.9765  -15.8638   23.9180 C   0  0  0  0  0  0  0  0  0  0  0  0
  -27.0057  -28.4203   20.9124 C   0  0  0  0  0  0  0  0  0  0  0  0
  -31.4584  -19.6092   20.9096 C   0  0  0  0  0  0  0  0  0  0  0  0
  -31.8239  -17.2221   20.8405 C   0  0  0  0  0  0  0  0  0  0  0  0
  -29.7930  -18.1601   19.9279 C   0  0  0  0  0  0  0  0  0  0  0  0
  -17.4767  -14.5227   21.9715 C   0  0  0  0  0  0  0  0  0  0  0  0
  -23.4309  -12.7489   20.8871 C   0  0  0  0  0  0  0  0  0  0  0  0
  -24.3378  -12.4481   18.5218 C   0  0  0  0  0  0  0  0  0  0  0  0
  -21.9595  -35.0178   17.1550 C   0  0  0  0  0  0  0  0  0  0  0  0
  -24.7210  -29.0537   20.4240 C   0  0  0  0  0  0  0  0  0  0  0  0
  -22.8002  -33.8929   17.2565 C   0  0  0  0  0  0  0  0  0  0  0  0
  -25.9191  -29.2848   21.1149 C   0  0  0  0  0  0  0  0  0  0  0  0
  -32.2571  -18.5008   21.1907 C   0  0  0  0  0  0  0  0  0  0  0  0
  -30.2263  -19.4389   20.2782 C   0  0  0  0  0  0  0  0  0  0  0  0
  -30.5918  -17.0517   20.2091 C   0  0  0  0  0  0  0  0  0  0  0  0
  -21.3940  -12.9863   22.7784 C   0  0  0  0  0  0  0  0  0  0  0  0
  -26.8981  -27.3338   20.0446 C   0  0  0  0  0  0  0  0  0  0  0  0
  -19.3354  -13.9349   23.3987 C   0  0  0  0  0  0  0  0  0  0  0  0
  -17.1903  -15.6127   22.7934 C   0  0  0  0  0  0  0  0  0  0  0  0
  -18.5493  -13.6838   22.2741 C   0  0  0  0  0  0  0  0  0  0  0  0
  -24.4833  -12.6270   19.9105 C   0  0  0  0  0  0  0  0  0  0  0  0
  -25.6251  -12.3915   18.0462 C   0  0  0  0  0  0  0  0  0  0  0  0
  -23.1457  -12.3426   17.7323 C   0  0  0  0  0  0  0  0  0  0  0  0
  -24.5029  -32.2048   20.0680 C   0  0  0  0  0  0  0  0  0  0  0  0
  -24.7487  -32.1956   23.3025 C   0  0  0  0  0  0  0  0  0  0  0  0
  -29.6913  -21.8998   20.2710 C   0  0  0  0  0  0  0  0  0  0  0  0
  -25.7917  -30.5841   26.1242 C   0  0  0  0  0  0  0  0  0  0  0  0
  -30.8205  -14.5472   20.0626 C   0  0  0  0  0  0  0  0  0  0  0  0
  -22.1779  -36.2499   17.9969 C   0  0  0  0  0  0  0  0  0  0  0  0
  -23.5322  -29.9495   20.6401 C   0  0  0  0  0  0  0  0  0  0  0  0
  -26.0761  -30.4430   22.0648 C   0  0  0  0  0  0  0  0  0  0  0  0
  -23.0606  -36.0047   19.2180 C   0  0  0  0  0  0  0  0  0  0  0  0
  -30.0544  -11.1400   19.3689 C   0  0  0  0  0  0  0  0  0  0  0  0
  -24.3003  -35.2057   18.8288 C   0  0  0  0  0  0  0  0  0  0  0  0
  -28.5258  -11.1195   19.2967 C   0  0  0  0  0  0  0  0  0  0  0  0
  -30.5586  -12.1051   20.4403 C   0  0  0  0  0  0  0  0  0  0  0  0
  -28.5027  -13.4517   20.2702 C   0  0  0  0  0  0  0  0  0  0  0  0
  -23.9174  -33.8279   18.2753 C   0  0  1  0  0  0  0  0  0  0  0  0
  -23.9139  -31.3378   21.1445 C   0  0  1  0  0  0  0  0  0  0  0  0
  -27.9490  -12.5424   19.1610 C   0  0  2  0  0  0  0  0  0  0  0  0
  -33.4588  -18.6226   23.3879 C   0  0  0  0  0  0  0  0  0  0  0  0
  -25.8884  -30.8424   28.6185 C   0  0  0  0  0  0  0  0  0  0  0  0
  -27.0663  -34.1582   23.0069 C   0  0  0  0  0  0  0  0  0  0  0  0
  -27.7129  -33.6425   25.3700 C   0  0  0  0  0  0  0  0  0  0  0  0
  -25.4948  -34.6745   24.8826 C   0  0  0  0  0  0  0  0  0  0  0  0
  -24.1215  -28.1791   26.5544 C   0  0  0  0  0  0  0  0  0  0  0  0
  -33.5740  -18.6834   21.8671 C   0  0  0  0  0  0  0  0  0  0  0  0
  -28.5505  -22.7893   19.7967 C   0  0  0  0  0  0  0  0  0  0  0  0
  -28.8019  -24.2668   20.0774 C   0  0  0  0  0  0  0  0  0  0  0  0
  -27.6711  -25.1393   19.5524 C   0  0  0  0  0  0  0  0  0  1  0  0
  -25.8910  -32.2493   24.2880 C   0  0  1  0  0  0  0  0  0  0  0  0
  -25.0908  -30.3034   27.4412 C   0  0  2  0  0  0  0  0  0  0  0  0
  -26.5392  -33.6603   24.3676 C   0  0  0  0  0  0  0  0  0  0  0  0
  -25.7621  -12.6804   20.2924 N   0  0  0  0  0  0  0  0  0  0  0  0
  -26.4319  -12.5341   19.1365 N   0  0  0  0  0  0  0  0  0  0  0  0
  -24.8872  -31.2940   22.2377 N   0  0  0  0  0  0  0  0  0  0  0  0
  -29.9737  -13.4336   20.2458 N   0  0  0  0  0  0  0  0  0  0  0  0
  -26.1342  -12.2341   16.8058 N   0  0  0  0  0  0  0  0  0  0  0  0
  -21.9057  -12.4217   18.3807 N   0  0  0  0  0  0  0  0  0  0  0  0
  -29.4162  -20.5637   19.9934 N   0  0  0  0  0  0  0  0  0  0  0  0
  -30.1510  -15.7526   19.8544 N   0  0  0  0  0  0  0  0  0  0  0  0
  -23.5673  -32.9293   19.3544 N   0  0  0  0  0  0  0  0  0  0  0  0
  -25.3588  -31.7639   25.5566 N   0  0  0  0  0  0  0  0  0  0  0  0
  -24.9093  -28.8361   27.6289 N   0  3  0  0  0  0  0  0  0  0  0  0
  -23.1791  -12.1665   16.4908 O   0  0  0  0  0  0  0  0  0  0  0  0
  -25.7165  -32.2169   19.8984 O   0  0  0  0  0  0  0  0  0  0  0  0
  -23.7665  -32.9216   23.4751 O   0  0  0  0  0  0  0  0  0  0  0  0
  -30.6899  -22.3571   20.8168 O   0  0  0  0  0  0  0  0  0  0  0  0
  -26.6411  -29.8340   25.6485 O   0  0  0  0  0  0  0  0  0  0  0  0
  -32.0491  -14.4350   20.0614 O   0  0  0  0  0  0  0  0  0  0  0  0
  -20.4000  -13.1025   23.7010 O   0  0  0  0  0  0  0  0  0  0  0  0
  -27.9595  -26.5027   19.8592 O   0  0  0  0  0  0  0  0  0  1  0  0
  -16.1595  -16.4175   22.5038 F   0  0  0  0  0  0  0  0  0  0  0  0
  -18.8188  -12.6375   21.4814 F   0  0  0  0  0  0  0  0  0  0  0  0
  1  2  1  0  0  0  0
  1  5  2  0  0  0  0
  2  6  2  0  0  0  0
  3  8  2  0  0  0  0
  3 18  1  0  0  0  0
  4  9  1  0  0  0  0
  4 18  2  0  0  0  0
  5 20  1  0  0  0  0
  6 22  1  0  0  0  0
  7 10  2  0  0  0  0
  7 21  1  0  0  0  0
  8 27  1  0  0  0  0
  9 27  2  0  0  0  0
 10 28  1  0  0  0  0
 11 12  2  0  0  0  0
 11 29  1  0  0  0  0
 12 30  1  0  0  0  0
 13 23  1  0  0  0  0
 13 28  2  0  0  0  0
 14 24  1  0  0  0  0
 14 25  2  0  0  0  0
 15 24  2  0  0  0  0
 15 26  1  0  0  0  0
 16 25  1  0  0  0  0
 16 26  2  0  0  0  0
 17 30  2  0  0  0  0
 17 31  1  0  0  0  0
 18 32  1  0  0  0  0
 19 32  1  0  0  0  0
 19 33  2  0  0  0  0
 19 34  1  0  0  0  0
 20 22  2  0  0  0  0
 20 40  1  0  0  0  0
 21 23  2  0  0  0  0
 21 41  1  0  0  0  0
 22 49  1  0  0  0  0
 23 42  1  0  0  0  0
 24 58  1  0  0  0  0
 25 71  1  0  0  0  0
 26 72  1  0  0  0  0
 27 82  1  0  0  0  0
 28 83  1  0  0  0  0
 29 31  2  0  0  0  0
 29 82  1  0  0  0  0
 30 84  1  0  0  0  0
 31 85  1  0  0  0  0
 32 65  2  0  0  0  0
 33 66  1  0  0  0  0
 33 69  1  0  0  0  0
 34 70  1  0  0  0  0
 34 76  2  0  0  0  0
 35 50  1  0  0  0  0
 35 73  1  0  0  0  0
 35 77  2  0  0  0  0
 36 62  1  0  0  0  0
 36 67  1  0  0  0  0
 36 78  2  0  0  0  0
 37 59  1  0  0  0  0
 37 71  1  0  0  0  0
 37 79  2  0  0  0  0
 38 63  1  0  0  0  0
 38 74  1  0  0  0  0
 38 80  2  0  0  0  0
 39 68  1  0  0  0  0
 39 72  1  0  0  0  0
 39 81  2  0  0  0  0
 40 43  1  0  0  0  0
 41 50  1  0  0  0  0
 42 67  1  0  0  0  0
 43 45  1  0  0  0  0
 44 46  1  0  0  0  0
 44 47  1  0  0  0  0
 45 49  1  0  0  0  0
 46 51  1  0  0  0  0
 47 68  1  0  0  0  0
 48 51  1  0  0  0  0
 48 68  1  0  0  0  0
 49 73  1  0  0  0  0
 50 67  1  0  0  0  0
 51 66  1  0  0  0  0
 52 58  1  0  0  0  0
 53 63  1  0  0  0  0
 54 64  1  0  0  0  0
 55 64  1  0  0  0  0
 56 64  1  0  0  0  0
 57 75  1  0  0  0  0
 59 60  1  0  0  0  0
 60 61  1  0  0  0  0
 61 83  1  0  0  0  0
 62 64  1  0  0  0  0
 62 74  1  0  0  0  0
 63 75  1  0  0  0  0
 65 66  1  0  0  0  0
M  CHG  1  75   1
M  ISO  4  39 100  61 101  72 100  83 101
M  END
> <Batch ID>
0068

> <Smiles>
CCc1cc(NC(=O)CC[101CH2:1][101O:1]c2ccc3c(c2)CN(C(=O)C(NC(=O)C(C)NC)C(C)(C)C)C(C(=O)NC2CCCc4ccccc42)C3)cc([100NH:0][100C:0](=O)N2CCCC(n3nc(-c4ccc(Oc5ccc(F)cc5F)cc4)c(C(N)=O)c3N)C2)c1

> <Shape>
0.273

> <Color>
0.099

> <Negative vol penalty>
0.000

$$$$

  -OEChem-04042323273D

 84 92  0     1  0  0  0  0  0999 V2000
  -24.3133  -32.6612   23.3635 C   0  0  0  0  0  0  0  0  0  0  0  0
  -23.9631  -31.3635   23.0045 C   0  0  0  0  0  0  0  0  0  0  0  0
  -23.0000   -9.8940   19.9830 C   0  0  0  0  0  0  0  0  0  0  0  0
  -23.7234   -9.9485   22.2875 C   0  0  0  0  0  0  0  0  0  0  0  0
  -32.6449  -17.4500   23.4538 C   0  0  0  0  0  0  0  0  0  0  0  0
  -25.4223  -32.8824   24.1791 C   0  0  0  0  0  0  0  0  0  0  0  0
  -24.7224  -30.2863   23.4602 C   0  0  0  0  0  0  0  0  0  0  0  0
  -24.0657  -23.4316   25.4344 C   0  0  0  0  0  0  0  0  0  0  0  0
  -32.0572  -16.5527   22.5622 C   0  0  0  0  0  0  0  0  0  0  0  0
  -22.2329   -8.7602   20.2505 C   0  0  0  0  0  0  0  0  0  0  0  0
  -22.9563   -8.8147   22.5551 C   0  0  0  0  0  0  0  0  0  0  0  0
  -24.6112  -22.1767   25.1670 C   0  0  0  0  0  0  0  0  0  0  0  0
  -23.1999   -5.4749   22.0888 C   0  0  0  0  0  0  0  0  0  0  0  0
  -23.7865   -4.4587   22.8431 C   0  0  0  0  0  0  0  0  0  0  0  0
  -26.4592  -22.6738   26.6357 C   0  0  0  0  0  0  0  0  0  0  0  0
  -29.8784  -17.4514   23.0938 C   0  0  0  0  0  0  0  0  0  0  0  0
  -22.0614   -4.7050   24.5165 C   0  0  0  0  0  0  0  0  0  0  0  0
  -23.7453  -10.4881   21.0014 C   0  0  0  0  0  0  0  0  0  0  0  0
  -31.8494  -18.3480   24.1655 C   0  0  0  0  0  0  0  0  0  0  0  0
  -24.1316  -13.0033   20.8216 C   0  0  0  0  0  0  0  0  0  0  0  0
  -26.1898  -31.8067   24.6529 C   0  0  0  0  0  0  0  0  0  0  0  0
  -24.7195  -24.3227   26.2975 C   0  0  0  0  0  0  0  0  0  0  0  0
  -25.8434  -30.4935   24.2818 C   0  0  0  0  0  0  0  0  0  0  0  0
  -25.9186  -23.9383   26.9144 C   0  0  0  0  0  0  0  0  0  0  0  0
  -30.6740  -16.5534   22.3822 C   0  0  0  0  0  0  0  0  0  0  0  0
  -30.4662  -18.3487   23.9855 C   0  0  0  0  0  0  0  0  0  0  0  0
  -22.2110   -8.2205   21.5366 C   0  0  0  0  0  0  0  0  0  0  0  0
  -25.8096  -21.7987   25.7654 C   0  0  0  0  0  0  0  0  0  0  0  0
  -22.0441   -6.1062   22.5485 C   0  0  0  0  0  0  0  0  0  0  0  0
  -23.2173   -4.0737   24.0569 C   0  0  0  0  0  0  0  0  0  0  0  0
  -21.4748   -5.7212   23.7623 C   0  0  0  0  0  0  0  0  0  0  0  0
  -24.5384  -11.6590   20.7255 C   0  0  0  0  0  0  0  0  0  0  0  0
  -25.2419  -13.7249   20.4568 C   0  0  0  0  0  0  0  0  0  0  0  0
  -32.4836  -19.2696   25.0857 C   0  0  0  0  0  0  0  0  0  0  0  0
  -22.8635  -13.5507   21.2062 C   0  0  0  0  0  0  0  0  0  0  0  0
  -25.9915  -27.2192   25.9878 C   0  0  0  0  0  0  0  0  0  0  0  0
  -26.3666  -26.9719   29.2003 C   0  0  0  0  0  0  0  0  0  0  0  0
  -28.2575  -19.3691   24.6293 C   0  0  0  0  0  0  0  0  0  0  0  0
  -26.6697  -24.9527   31.9349 C   0  0  0  0  0  0  0  0  0  0  0  0
  -30.7215  -14.6846   20.6935 C   0  0  0  0  0  0  0  0  0  0  0  0
  -27.4076  -32.0985   25.4934 C   0  0  0  0  0  0  0  0  0  0  0  0
  -24.1043  -25.6623   26.5964 C   0  0  0  0  0  0  0  0  0  0  0  0
  -26.6494  -24.8503   27.8645 C   0  0  0  0  0  0  0  0  0  0  0  0
  -27.9388  -30.8779   26.2405 C   0  0  0  0  0  0  0  0  0  0  0  0
  -29.6042  -12.2283   18.3707 C   0  0  0  0  0  0  0  0  0  0  0  0
  -28.0159  -29.6732   25.3080 C   0  0  0  0  0  0  0  0  0  0  0  0
  -28.1532  -11.9718   18.7841 C   0  0  0  0  0  0  0  0  0  0  0  0
  -30.5039  -12.4734   19.5808 C   0  0  0  0  0  0  0  0  0  0  0  0
  -28.5877  -13.2650   20.9115 C   0  0  0  0  0  0  0  0  0  0  0  0
  -26.6276  -29.2973   24.7763 C   0  0  1  0  0  0  0  0  0  0  0  0
  -25.1190  -26.6890   27.0901 C   0  0  1  0  0  0  0  0  0  0  0  0
  -27.6309  -13.0770   19.7229 C   0  0  2  0  0  0  0  0  0  0  0  0
  -27.0020  -25.0397   34.4207 C   0  0  0  0  0  0  0  0  0  0  0  0
  -29.3167  -27.6283   28.7805 C   0  0  0  0  0  0  0  0  0  0  0  0
  -29.7629  -26.7795   31.0932 C   0  0  0  0  0  0  0  0  0  0  0  0
  -28.2695  -28.7489   30.7558 C   0  0  0  0  0  0  0  0  0  0  0  0
  -24.0886  -23.5971   32.4441 C   0  0  0  0  0  0  0  0  0  0  0  0
  -27.7661  -20.4625   25.5597 C   0  0  0  0  0  0  0  0  0  1  0  0
  -27.4479  -26.4459   30.1130 C   0  0  1  0  0  0  0  0  0  0  0  0
  -25.9864  -24.9831   33.2901 C   0  0  2  0  0  0  0  0  0  0  0  0
  -28.6867  -27.3840   30.1663 C   0  0  0  0  0  0  0  0  0  0  0  0
  -25.8079  -11.5314   20.3305 N   0  0  0  0  0  0  0  0  0  0  0  0
  -26.2084  -12.8048   20.1751 N   0  0  0  0  0  0  0  0  0  0  0  0
  -26.0110  -26.1521   28.1199 N   0  0  0  0  0  0  0  0  0  0  0  0
  -29.9485  -13.5359   20.4219 N   0  0  0  0  0  0  0  0  0  0  0  0
  -25.4759  -15.0504   20.3528 N   0  0  0  0  0  0  0  0  0  0  0  0
  -32.6693  -18.9261   26.3700 N   0  0  0  0  0  0  0  0  0  0  0  0
  -21.8312  -12.6675   21.5504 N   0  0  0  0  0  0  0  0  0  0  0  0
  -29.6414  -19.2504   24.6990 N   0  0  0  0  0  0  0  0  0  0  0  0
  -30.0769  -15.6413   21.4770 N   0  0  0  0  0  0  0  0  0  0  0  0
  -25.8767  -28.5813   25.7852 N   0  0  0  0  0  0  0  0  0  0  0  0
  -26.8146  -26.2184   31.4075 N   0  0  0  0  0  0  0  0  0  0  0  0
  -32.8938  -20.4758   24.6630 N   0  3  0  0  0  0  0  0  0  0  0  0
  -25.1459  -23.7663   33.4739 N   0  3  0  0  0  0  0  0  0  0  0  0
  -22.6472  -14.7862   21.2278 O   0  0  0  0  0  0  0  0  0  0  0  0
  -26.7164  -26.4498   25.3679 O   0  0  0  0  0  0  0  0  0  0  0  0
  -25.8514  -28.0665   29.4413 O   0  0  0  0  0  0  0  0  0  0  0  0
  -27.4819  -18.7176   23.9375 O   0  0  0  0  0  0  0  0  0  0  0  0
  -27.0412  -23.9107   31.3995 O   0  0  0  0  0  0  0  0  0  0  0  0
  -31.8605  -14.8224   20.2401 O   0  0  0  0  0  0  0  0  0  0  0  0
  -21.4624   -7.1143   21.7982 O   0  0  0  0  0  0  0  0  0  0  0  0
  -26.3446  -20.5747   25.5056 O   0  0  0  0  0  0  0  0  0  1  0  0
  -23.7799   -3.0968   24.7803 F   0  0  0  0  0  0  0  0  0  0  0  0
  -20.3638   -6.3231   24.2085 F   0  0  0  0  0  0  0  0  0  0  0  0
  1  2  1  0  0  0  0
  1  6  2  0  0  0  0
  2  7  2  0  0  0  0
  3 10  2  0  0  0  0
  3 18  1  0  0  0  0
  4 11  1  0  0  0  0
  4 18  2  0  0  0  0
  5  9  2  0  0  0  0
  5 19  1  0  0  0  0
  6 21  1  0  0  0  0
  7 23  1  0  0  0  0
  8 12  2  0  0  0  0
  8 22  1  0  0  0  0
  9 25  1  0  0  0  0
 10 27  1  0  0  0  0
 11 27  2  0  0  0  0
 12 28  1  0  0  0  0
 13 14  2  0  0  0  0
 13 29  1  0  0  0  0
 14 30  1  0  0  0  0
 15 24  1  0  0  0  0
 15 28  2  0  0  0  0
 16 25  2  0  0  0  0
 16 26  1  0  0  0  0
 17 30  2  0  0  0  0
 17 31  1  0  0  0  0
 18 32  1  0  0  0  0
 19 26  2  0  0  0  0
 19 34  1  0  0  0  0
 20 32  1  0  0  0  0
 20 33  2  0  0  0  0
 20 35  1  0  0  0  0
 21 23  2  0  0  0  0
 21 41  1  0  0  0  0
 22 24  2  0  0  0  0
 22 42  1  0  0  0  0
 23 50  1  0  0  0  0
 24 43  1  0  0  0  0
 25 70  1  0  0  0  0
 26 69  1  0  0  0  0
 27 81  1  0  0  0  0
 28 82  1  0  0  0  0
 29 31  2  0  0  0  0
 29 81  1  0  0  0  0
 30 83  1  0  0  0  0
 31 84  1  0  0  0  0
 32 62  2  0  0  0  0
 33 63  1  0  0  0  0
 33 66  1  0  0  0  0
 34 67  1  0  0  0  0
 34 73  2  0  0  0  0
 35 68  1  0  0  0  0
 35 75  2  0  0  0  0
 36 51  1  0  0  0  0
 36 71  1  0  0  0  0
 36 76  2  0  0  0  0
 37 59  1  0  0  0  0
 37 64  1  0  0  0  0
 37 77  2  0  0  0  0
 38 58  1  0  0  0  0
 38 69  1  0  0  0  0
 38 78  2  0  0  0  0
 39 60  1  0  0  0  0
 39 72  1  0  0  0  0
 39 79  2  0  0  0  0
 40 65  1  0  0  0  0
 40 70  1  0  0  0  0
 40 80  2  0  0  0  0
 41 44  1  0  0  0  0
 42 51  1  0  0  0  0
 43 64  1  0  0  0  0
 44 46  1  0  0  0  0
 45 47  1  0  0  0  0
 45 48  1  0  0  0  0
 46 50  1  0  0  0  0
 47 52  1  0  0  0  0
 48 65  1  0  0  0  0
 49 52  1  0  0  0  0
 49 65  1  0  0  0  0
 50 71  1  0  0  0  0
 51 64  1  0  0  0  0
 52 63  1  0  0  0  0
 53 60  1  0  0  0  0
 54 61  1  0  0  0  0
 55 61  1  0  0  0  0
 56 61  1  0  0  0  0
 57 74  1  0  0  0  0
 58 82  1  0  0  0  0
 59 61  1  0  0  0  0
 59 72  1  0  0  0  0
 60 74  1  0  0  0  0
 62 63  1  0  0  0  0
M  CHG  2  73   1  74   1
M  ISO  4  40 100  58 101  70 100  82 101
M  END
> <Batch ID>
0068

> <Smiles>
CNC(C)C(=O)NC(C(=O)N1Cc2cc([101O:1][101CH2:1]C(=O)Nc3cc([100NH:0][100C:0](=O)N4CCCC(n5nc(-c6ccc(Oc7ccc(F)cc7F)cc6)c(C(N)=O)c5N)C4)ccc3C(=N)N)ccc2CC1C(=O)NC1CCCc2ccccc21)C(C)(C)C

> <Shape>
0.236

> <Color>
0.186

> <Negative vol penalty>
0.000

$$$$

  -OEChem-04042323273D

 85 93  0     1  0  0  0  0  0999 V2000
  -31.0167  -24.0680   18.6429 C   0  0  0  0  0  0  0  0  0  0  0  0
  -29.7257  -24.5302   18.4137 C   0  0  0  0  0  0  0  0  0  0  0  0
  -27.2928  -15.1778   20.0843 C   0  0  0  0  0  0  0  0  0  0  0  0
  -25.1484  -15.0153   18.9834 C   0  0  0  0  0  0  0  0  0  0  0  0
  -31.6184  -24.2781   19.8819 C   0  0  0  0  0  0  0  0  0  0  0  0
  -29.0404  -25.2130   19.4192 C   0  0  0  0  0  0  0  0  0  0  0  0
  -23.3299  -27.3321   19.5853 C   0  0  0  0  0  0  0  0  0  0  0  0
  -27.1803  -13.8509   20.4993 C   0  0  0  0  0  0  0  0  0  0  0  0
  -25.0358  -13.6884   19.3985 C   0  0  0  0  0  0  0  0  0  0  0  0
  -22.0760  -26.8799   19.9937 C   0  0  0  0  0  0  0  0  0  0  0  0
  -27.5984  -10.7765   19.1553 C   0  0  0  0  0  0  0  0  0  0  0  0
  -28.7166   -9.9553   19.0115 C   0  0  0  0  0  0  0  0  0  0  0  0
  -20.0430  -22.8037   20.7337 C   0  0  0  0  0  0  0  0  0  0  0  0
  -17.8944  -22.1612   19.8351 C   0  0  0  0  0  0  0  0  0  0  0  0
  -22.3640  -28.0079   22.1065 C   0  0  0  0  0  0  0  0  0  0  0  0
  -19.9211  -21.2453   18.8914 C   0  0  0  0  0  0  0  0  0  0  0  0
  -28.7431   -9.5735   21.3970 C   0  0  0  0  0  0  0  0  0  0  0  0
  -26.2768  -15.7601   19.3264 C   0  0  0  0  0  0  0  0  0  0  0  0
  -18.6512  -22.8948   20.7486 C   0  0  0  0  0  0  0  0  0  0  0  0
  -26.9693  -17.6024   17.7035 C   0  0  0  0  0  0  0  0  0  0  0  0
  -30.9348  -24.9529   20.9067 C   0  0  0  0  0  0  0  0  0  0  0  0
  -24.1163  -28.1178   20.4401 C   0  0  0  0  0  0  0  0  0  0  0  0
  -29.6395  -25.4560   20.6685 C   0  0  0  0  0  0  0  0  0  0  0  0
  -23.6265  -28.4709   21.7056 C   0  0  0  0  0  0  0  0  0  0  0  0
  -20.6780  -21.9790   19.8050 C   0  0  0  0  0  0  0  0  0  0  0  0
  -26.0519  -13.1062   20.1564 C   0  0  0  0  0  0  0  0  0  0  0  0
  -21.5940  -27.2153   21.2556 C   0  0  0  0  0  0  0  0  0  0  0  0
  -27.0525  -10.9963   20.4200 C   0  0  0  0  0  0  0  0  0  0  0  0
  -29.2890   -9.3537   20.1323 C   0  0  0  0  0  0  0  0  0  0  0  0
  -18.5293  -21.3364   18.9065 C   0  0  0  0  0  0  0  0  0  0  0  0
  -27.6248  -10.3948   21.5408 C   0  0  0  0  0  0  0  0  0  0  0  0
  -26.3922  -17.1309   18.8978 C   0  0  0  0  0  0  0  0  0  0  0  0
  -26.8305  -18.9673   17.7706 C   0  0  0  0  0  0  0  0  0  0  0  0
  -17.9785  -23.7687   21.7306 C   0  0  0  0  0  0  0  0  0  0  0  0
  -27.5765  -16.8721   16.6294 C   0  0  0  0  0  0  0  0  0  0  0  0
  -26.9641  -27.7795   21.8111 C   0  0  0  0  0  0  0  0  0  0  0  0
  -26.4413  -30.8396   22.7518 C   0  0  0  0  0  0  0  0  0  0  0  0
  -24.1964  -33.3205   23.4244 C   0  0  0  0  0  0  0  0  0  0  0  0
  -22.9908  -22.5444   20.6282 C   0  0  0  0  0  0  0  0  0  0  0  0
  -31.6364  -25.1596   22.2259 C   0  0  0  0  0  0  0  0  0  0  0  0
  -25.4555  -28.6200   19.9743 C   0  0  0  0  0  0  0  0  0  0  0  0
  -24.4230  -29.3289   22.6532 C   0  0  0  0  0  0  0  0  0  0  0  0
  -30.6772  -25.4955   23.3632 C   0  0  0  0  0  0  0  0  0  0  0  0
  -26.5381  -22.5505   20.9344 C   0  0  0  0  0  0  0  0  0  0  0  0
  -29.7384  -26.6146   22.9379 C   0  0  0  0  0  0  0  0  0  0  0  0
  -26.9562  -21.2069   20.3326 C   0  0  0  0  0  0  0  0  0  0  0  0
  -25.2260  -22.4412   21.7091 C   0  0  0  0  0  0  0  0  0  0  0  0
  -24.5297  -20.5010   20.3599 C   0  0  0  0  0  0  0  0  0  0  0  0
  -28.8634  -26.1744   21.7574 C   0  0  1  0  0  0  0  0  0  0  0  0
  -26.3893  -28.9858   21.1239 C   0  0  1  0  0  0  0  0  0  0  0  0
  -25.8123  -20.5750   19.5155 C   0  0  2  0  0  0  0  0  0  0  0  0
  -24.0671  -35.7000   24.2109 C   0  0  0  0  0  0  0  0  0  0  0  0
  -17.7730  -27.8806   20.8995 C   0  0  0  0  0  0  0  0  0  0  0  0
  -26.9872  -29.9220   25.6102 C   0  0  0  0  0  0  0  0  0  0  0  0
  -25.9346  -32.0449   26.4186 C   0  0  0  0  0  0  0  0  0  0  0  0
  -27.9941  -32.1322   25.0138 C   0  0  0  0  0  0  0  0  0  0  0  0
  -22.9295  -34.2075   20.9011 C   0  0  0  0  0  0  0  0  0  0  0  0
  -17.6544  -26.0433   22.6349 C   0  0  0  0  0  0  0  0  0  0  0  0
  -19.6512  -27.6001   22.5721 C   0  0  0  0  0  0  0  0  0  1  0  0
  -25.7923  -31.4945   23.9472 C   0  0  1  0  0  0  0  0  0  0  0  0
  -24.1504  -34.7785   23.0040 C   0  0  2  0  0  0  0  0  0  0  0  0
  -18.1447  -27.4596   22.3249 C   0  0  1  0  0  0  0  0  0  0  0  0
  -26.6626  -31.3806   25.2306 C   0  0  0  0  0  0  0  0  0  0  0  0
  -25.9220  -18.1161   19.6674 N   0  0  0  0  0  0  0  0  0  0  0  0
  -26.2035  -19.2204   18.9551 N   0  0  0  0  0  0  0  0  0  0  0  0
  -25.7292  -29.7901   22.1542 N   0  0  0  0  0  0  0  0  0  0  0  0
  -24.1878  -21.8378   20.8706 N   0  0  0  0  0  0  0  0  0  0  0  0
  -27.1850  -19.9636   16.9315 N   0  0  0  0  0  0  0  0  0  0  0  0
  -17.1260  -23.2091   22.5892 N   0  0  0  0  0  0  0  0  0  0  0  0
  -27.6360  -15.4748   16.7213 N   0  0  0  0  0  0  0  0  0  0  0  0
  -22.0917  -21.8852   19.7905 N   0  0  0  0  0  0  0  0  0  0  0  0
  -28.1414  -27.3210   21.2516 N   0  0  0  0  0  0  0  0  0  0  0  0
  -25.4921  -32.8654   23.5486 N   0  0  0  0  0  0  0  0  0  0  0  0
  -18.2541  -25.0787   21.7109 N   0  3  0  0  0  0  0  0  0  0  0  0
  -22.9644  -35.0305   22.1375 N   0  3  0  0  0  0  0  0  0  0  0  0
  -28.0669  -17.4428   15.6258 O   0  0  0  0  0  0  0  0  0  0  0  0
  -26.3832  -27.3012   22.7783 O   0  0  0  0  0  0  0  0  0  0  0  0
  -27.5364  -31.2490   22.3583 O   0  0  0  0  0  0  0  0  0  0  0  0
  -23.1843  -32.6532   23.6263 O   0  0  0  0  0  0  0  0  0  0  0  0
  -22.7904  -23.6644   21.1050 O   0  0  0  0  0  0  0  0  0  0  0  0
  -25.9419  -11.8113   20.5611 O   0  0  0  0  0  0  0  0  0  0  0  0
  -20.3707  -26.7747   21.6570 O   0  0  0  0  0  0  0  0  0  1  0  0
  -30.3619   -8.5639   19.9938 F   0  0  0  0  0  0  0  0  0  0  0  0
  -17.8025  -20.6320   18.0292 F   0  0  0  0  0  0  0  0  0  0  0  0
  -27.1041  -10.6012   22.7582 F   0  0  0  0  0  0  0  0  0  0  0  0
  1  2  1  0  0  0  0
  1  5  2  0  0  0  0
  2  6  2  0  0  0  0
  3  8  2  0  0  0  0
  3 18  1  0  0  0  0
  4  9  1  0  0  0  0
  4 18  2  0  0  0  0
  5 21  1  0  0  0  0
  6 23  1  0  0  0  0
  7 10  2  0  0  0  0
  7 22  1  0  0  0  0
  8 26  1  0  0  0  0
  9 26  2  0  0  0  0
 10 27  1  0  0  0  0
 11 12  2  0  0  0  0
 11 28  1  0  0  0  0
 12 29  1  0  0  0  0
 13 19  2  0  0  0  0
 13 25  1  0  0  0  0
 14 19  1  0  0  0  0
 14 30  2  0  0  0  0
 15 24  1  0  0  0  0
 15 27  2  0  0  0  0
 16 25  2  0  0  0  0
 16 30  1  0  0  0  0
 17 29  2  0  0  0  0
 17 31  1  0  0  0  0
 18 32  1  0  0  0  0
 19 34  1  0  0  0  0
 20 32  1  0  0  0  0
 20 33  2  0  0  0  0
 20 35  1  0  0  0  0
 21 23  2  0  0  0  0
 21 40  1  0  0  0  0
 22 24  2  0  0  0  0
 22 41  1  0  0  0  0
 23 49  1  0  0  0  0
 24 42  1  0  0  0  0
 25 71  1  0  0  0  0
 26 81  1  0  0  0  0
 27 82  1  0  0  0  0
 28 31  2  0  0  0  0
 28 81  1  0  0  0  0
 29 83  1  0  0  0  0
 30 84  1  0  0  0  0
 31 85  1  0  0  0  0
 32 64  2  0  0  0  0
 33 65  1  0  0  0  0
 33 68  1  0  0  0  0
 34 69  1  0  0  0  0
 34 74  2  0  0  0  0
 35 70  1  0  0  0  0
 35 76  2  0  0  0  0
 36 50  1  0  0  0  0
 36 72  1  0  0  0  0
 36 77  2  0  0  0  0
 37 60  1  0  0  0  0
 37 66  1  0  0  0  0
 37 78  2  0  0  0  0
 38 61  1  0  0  0  0
 38 73  1  0  0  0  0
 38 79  2  0  0  0  0
 39 67  1  0  0  0  0
 39 71  1  0  0  0  0
 39 80  2  0  0  0  0
 40 43  1  0  0  0  0
 41 50  1  0  0  0  0
 42 66  1  0  0  0  0
 43 45  1  0  0  0  0
 44 46  1  0  0  0  0
 44 47  1  0  0  0  0
 45 49  1  0  0  0  0
 46 51  1  0  0  0  0
 47 67  1  0  0  0  0
 48 51  1  0  0  0  0
 48 67  1  0  0  0  0
 49 72  1  0  0  0  0
 50 66  1  0  0  0  0
 51 65  1  0  0  0  0
 52 61  1  0  0  0  0
 53 62  1  0  0  0  0
 54 63  1  0  0  0  0
 55 63  1  0  0  0  0
 56 63  1  0  0  0  0
 57 75  1  0  0  0  0
 58 62  1  0  0  0  0
 58 74  1  0  0  0  0
 59 62  1  0  0  0  0
 59 82  1  0  0  0  0
 60 63  1  0  0  0  0
 60 73  1  0  0  0  0
 61 75  1  0  0  0  0
 64 65  1  0  0  0  0
M  CHG  2  74   1  75   1
M  ISO  4  39 100  59 101  71 100  82 101
M  END
> <Batch ID>
0068

> <Smiles>
CNC(C)C(=O)NC(C(=O)N1Cc2cc([101O:1][101CH2:1]C(C)CNC(=N)c3cc(F)cc([100NH:0][100C:0](=O)N4CCCC(n5nc(-c6ccc(Oc7ccc(F)cc7F)cc6)c(C(N)=O)c5N)C4)c3)ccc2CC1C(=O)NC1CCCc2ccccc21)C(C)(C)C

> <Shape>
0.216

> <Color>
0.054

> <Negative vol penalty>
0.000

$$$$

  -OEChem-04042323273D

 86 95  0     1  0  0  0  0  0999 V2000
  -27.3889  -34.7699   23.9505 C   0  0  0  0  0  0  0  0  0  0  0  0
  -27.6881  -33.4472   23.6401 C   0  0  0  0  0  0  0  0  0  0  0  0
  -23.0088  -12.2030   22.9799 C   0  0  0  0  0  0  0  0  0  0  0  0
  -22.1027  -13.5606   21.1987 C   0  0  0  0  0  0  0  0  0  0  0  0
  -26.0994  -35.1159   24.3522 C   0  0  0  0  0  0  0  0  0  0  0  0
  -26.6982  -32.4694   23.7323 C   0  0  0  0  0  0  0  0  0  0  0  0
  -26.6705  -29.3503   19.7429 C   0  0  0  0  0  0  0  0  0  0  0  0
  -27.0229  -21.6224   17.2878 C   0  0  0  0  0  0  0  0  0  0  0  0
  -21.7776  -12.2399   23.6344 C   0  0  0  0  0  0  0  0  0  0  0  0
  -20.8714  -13.5975   21.8531 C   0  0  0  0  0  0  0  0  0  0  0  0
  -27.6432  -28.3521   19.7084 C   0  0  0  0  0  0  0  0  0  0  0  0
  -17.3863  -13.7483   22.8775 C   0  0  0  0  0  0  0  0  0  0  0  0
  -26.2775  -20.5011   16.9238 C   0  0  0  0  0  0  0  0  0  0  0  0
  -16.2386  -13.5356   22.1139 C   0  0  0  0  0  0  0  0  0  0  0  0
  -26.0212  -26.7527   20.5024 C   0  0  0  0  0  0  0  0  0  0  0  0
  -28.3519  -20.2569   18.7731 C   0  0  0  0  0  0  0  0  0  0  0  0
  -17.0554  -11.3474   21.4959 C   0  0  0  0  0  0  0  0  0  0  0  0
  -23.1714  -12.8634   21.7621 C   0  0  0  0  0  0  0  0  0  0  0  0
  -24.8762  -11.8763   20.1413 C   0  0  0  0  0  0  0  0  0  0  0  0
  -25.0907  -34.1435   24.4401 C   0  0  0  0  0  0  0  0  0  0  0  0
  -25.3665  -29.0592   20.1685 C   0  0  0  0  0  0  0  0  0  0  0  0
  -25.3943  -32.8025   24.1369 C   0  0  0  0  0  0  0  0  0  0  0  0
  -25.0332  -27.7485   20.5389 C   0  0  0  0  0  0  0  0  0  0  0  0
  -28.0602  -21.5003   18.2124 C   0  0  0  0  0  0  0  0  0  0  0  0
  -27.6064  -19.1355   18.4092 C   0  0  0  0  0  0  0  0  0  0  0  0
  -20.7089  -12.9371   23.0710 C   0  0  0  0  0  0  0  0  0  0  0  0
  -27.3193  -27.0536   20.0910 C   0  0  0  0  0  0  0  0  0  0  0  0
  -18.3687  -12.7607   22.9501 C   0  0  0  0  0  0  0  0  0  0  0  0
  -16.0731  -12.3351   21.4232 C   0  0  0  0  0  0  0  0  0  0  0  0
  -26.5692  -19.2576   17.4845 C   0  0  0  0  0  0  0  0  0  0  0  0
  -18.2032  -11.5603   22.2594 C   0  0  0  0  0  0  0  0  0  0  0  0
  -24.4431  -12.8261   21.0858 C   0  0  0  0  0  0  0  0  0  0  0  0
  -26.1444  -12.2813   19.8037 C   0  0  0  0  0  0  0  0  0  0  0  0
  -28.6498  -23.9645   18.1085 C   0  0  0  0  0  0  0  0  0  0  0  0
  -24.1930  -10.7304   19.6160 C   0  0  0  0  0  0  0  0  0  0  0  0
  -23.5169  -30.0374   22.5614 C   0  0  0  0  0  0  0  0  0  0  0  0
  -21.2753  -28.2505   21.0434 C   0  0  0  0  0  0  0  0  0  0  0  0
  -20.5762  -25.6715   18.9204 C   0  0  0  0  0  0  0  0  0  0  0  0
  -28.9012  -17.5816   19.9109 C   0  0  0  0  0  0  0  0  0  0  0  0
  -23.7237  -34.5574   24.9245 C   0  0  0  0  0  0  0  0  0  0  0  0
  -24.3220  -30.1414   20.1745 C   0  0  0  0  0  0  0  0  0  0  0  0
  -23.6425  -27.3797   20.9843 C   0  0  0  0  0  0  0  0  0  0  0  0
  -22.6368  -33.5251   24.6358 C   0  0  0  0  0  0  0  0  0  0  0  0
  -29.9296  -14.6123   21.5850 C   0  0  0  0  0  0  0  0  0  0  0  0
  -23.1120  -32.1277   25.0208 C   0  0  0  0  0  0  0  0  0  0  0  0
  -28.6806  -13.7284   21.5557 C   0  0  0  0  0  0  0  0  0  0  0  0
  -30.2134  -23.9964   19.9072 C   0  0  0  0  0  0  0  0  0  0  0  0
  -29.5770  -16.0862   21.7770 C   0  0  0  0  0  0  0  0  0  0  0  0
  -29.9438  -22.5600   19.5017 C   0  0  0  0  0  0  0  0  0  0  0  0
  -27.3449  -15.7347   20.7954 C   0  0  0  0  0  0  0  0  0  0  0  0
  -24.3413  -31.7176   24.2010 C   0  0  1  0  0  0  0  0  0  0  0  0
  -23.1584  -29.8436   21.1151 C   0  0  1  0  0  0  0  0  0  0  0  0
  -27.6457  -14.2489   20.5390 C   0  0  2  0  0  0  0  0  0  0  0  0
  -29.7829  -24.8118   18.6854 C   0  0  1  0  0  0  0  0  0  0  0  0
  -30.9074  -24.9117   17.6480 C   0  0  0  0  0  0  0  0  0  0  0  0
  -18.6511  -24.4247   17.9023 C   0  0  0  0  0  0  0  0  0  0  0  0
  -20.8119  -26.8081   23.6920 C   0  0  0  0  0  0  0  0  0  0  0  0
  -19.6259  -25.0052   22.4227 C   0  0  0  0  0  0  0  0  0  0  0  0
  -18.7288  -27.3328   22.4115 C   0  0  0  0  0  0  0  0  0  0  0  0
  -21.3988  -26.4105   16.1751 C   0  0  0  0  0  0  0  0  0  0  0  0
  -29.2973  -26.2045   19.0799 C   0  0  0  0  0  0  0  0  0  1  0  0
  -20.8322  -26.8089   21.1102 C   0  0  1  0  0  0  0  0  0  0  0  0
  -19.6359  -25.5710   17.7329 C   0  0  2  0  0  0  0  0  0  0  0  0
  -20.0265  -26.4958   22.4026 C   0  0  0  0  0  0  0  0  0  0  0  0
  -25.3618  -13.7638   21.3326 N   0  0  0  0  0  0  0  0  0  0  0  0
  -26.3847  -13.4051   20.5382 N   0  0  0  0  0  0  0  0  0  0  0  0
  -28.8230  -22.6484   18.5849 N   0  0  0  0  0  0  0  0  0  0  0  0
  -22.6579  -28.4743   20.9791 N   0  0  0  0  0  0  0  0  0  0  0  0
  -28.5953  -16.5100   20.7762 N   0  0  0  0  0  0  0  0  0  0  0  0
  -27.0664  -11.7821   18.9533 N   0  0  0  0  0  0  0  0  0  0  0  0
  -22.8953  -10.4596   20.0707 N   0  0  0  0  0  0  0  0  0  0  0  0
  -27.9049  -17.8734   18.9798 N   0  0  0  0  0  0  0  0  0  0  0  0
  -23.9481  -31.3140   22.8680 N   0  0  0  0  0  0  0  0  0  0  0  0
  -20.1031  -26.5482   19.8737 N   0  0  0  0  0  0  0  0  0  0  0  0
  -20.4081  -25.3457   16.4783 N   0  3  0  0  0  0  0  0  0  0  0  0
  -27.8170  -24.4074   17.3296 O   0  0  0  0  0  0  0  0  0  0  0  0
  -24.7241   -9.9598   18.7807 O   0  0  0  0  0  0  0  0  0  0  0  0
  -23.4089  -29.0987   23.3416 O   0  0  0  0  0  0  0  0  0  0  0  0
  -20.4256  -29.1448   21.0410 O   0  0  0  0  0  0  0  0  0  0  0  0
  -21.6237  -25.0332   18.9965 O   0  0  0  0  0  0  0  0  0  0  0  0
  -29.9797  -18.1776   19.9721 O   0  0  0  0  0  0  0  0  0  0  0  0
  -19.5072  -12.9732   23.7092 O   0  0  0  0  0  0  0  0  0  0  0  0
  -28.2669  -26.0775   20.0589 O   0  0  0  0  0  0  0  0  0  1  0  0
  -14.9701  -12.1303   20.6912 F   0  0  0  0  0  0  0  0  0  0  0  0
  -25.8458  -18.1871   17.1274 F   0  0  0  0  0  0  0  0  0  0  0  0
  -19.1429  -10.6073   22.3263 F   0  0  0  0  0  0  0  0  0  0  0  0
  1  2  1  0  0  0  0
  1  5  2  0  0  0  0
  2  6  2  0  0  0  0
  3  9  2  0  0  0  0
  3 18  1  0  0  0  0
  4 10  1  0  0  0  0
  4 18  2  0  0  0  0
  5 20  1  0  0  0  0
  6 22  1  0  0  0  0
  7 11  2  0  0  0  0
  7 21  1  0  0  0  0
  8 13  2  0  0  0  0
  8 24  1  0  0  0  0
  9 26  1  0  0  0  0
 10 26  2  0  0  0  0
 11 27  1  0  0  0  0
 12 14  2  0  0  0  0
 12 28  1  0  0  0  0
 13 30  1  0  0  0  0
 14 29  1  0  0  0  0
 15 23  1  0  0  0  0
 15 27  2  0  0  0  0
 16 24  2  0  0  0  0
 16 25  1  0  0  0  0
 17 29  2  0  0  0  0
 17 31  1  0  0  0  0
 18 32  1  0  0  0  0
 19 32  1  0  0  0  0
 19 33  2  0  0  0  0
 19 35  1  0  0  0  0
 20 22  2  0  0  0  0
 20 40  1  0  0  0  0
 21 23  2  0  0  0  0
 21 41  1  0  0  0  0
 22 51  1  0  0  0  0
 23 42  1  0  0  0  0
 24 67  1  0  0  0  0
 25 30  2  0  0  0  0
 25 72  1  0  0  0  0
 26 82  1  0  0  0  0
 27 83  1  0  0  0  0
 28 31  2  0  0  0  0
 28 82  1  0  0  0  0
 29 84  1  0  0  0  0
 30 85  1  0  0  0  0
 31 86  1  0  0  0  0
 32 65  2  0  0  0  0
 33 66  1  0  0  0  0
 33 70  1  0  0  0  0
 34 54  1  0  0  0  0
 34 67  1  0  0  0  0
 34 76  2  0  0  0  0
 35 71  1  0  0  0  0
 35 77  2  0  0  0  0
 36 52  1  0  0  0  0
 36 73  1  0  0  0  0
 36 78  2  0  0  0  0
 37 62  1  0  0  0  0
 37 68  1  0  0  0  0
 37 79  2  0  0  0  0
 38 63  1  0  0  0  0
 38 74  1  0  0  0  0
 38 80  2  0  0  0  0
 39 69  1  0  0  0  0
 39 72  1  0  0  0  0
 39 81  2  0  0  0  0
 40 43  1  0  0  0  0
 41 52  1  0  0  0  0
 42 68  1  0  0  0  0
 43 45  1  0  0  0  0
 44 46  1  0  0  0  0
 44 48  1  0  0  0  0
 45 51  1  0  0  0  0
 46 53  1  0  0  0  0
 47 49  1  0  0  0  0
 47 54  1  0  0  0  0
 48 69  1  0  0  0  0
 49 67  1  0  0  0  0
 50 53  1  0  0  0  0
 50 69  1  0  0  0  0
 51 73  1  0  0  0  0
 52 68  1  0  0  0  0
 53 66  1  0  0  0  0
 54 55  1  0  0  0  0
 54 61  1  0  0  0  0
 56 63  1  0  0  0  0
 57 64  1  0  0  0  0
 58 64  1  0  0  0  0
 59 64  1  0  0  0  0
 60 75  1  0  0  0  0
 61 83  1  0  0  0  0
 62 64  1  0  0  0  0
 62 74  1  0  0  0  0
 63 75  1  0  0  0  0
 65 66  1  0  0  0  0
M  CHG  1  75   1
M  ISO  4  39 100  61 101  72 100  83 101
M  END
> <Batch ID>
0068

> <Smiles>
CNC(C)C(=O)NC(C(=O)N1Cc2cc([101O:1][101CH2:1]C3(C)CCN(c4ccc(F)c([100NH:0][100C:0](=O)N5CCCC(n6nc(-c7ccc(Oc8ccc(F)cc8F)cc7)c(C(N)=O)c6N)C5)c4)C3=O)ccc2CC1C(=O)NC1CCCc2ccccc21)C(C)(C)C

> <Shape>
0.311

> <Color>
0.082

> <Negative vol penalty>
0.000

$$$$

  -OEChem-04042323273D

 83 91  0     1  0  0  0  0  0999 V2000
  -21.1761  -29.3714   14.2273 C   0  0  0  0  0  0  0  0  0  0  0  0
  -22.3669  -28.9501   14.8104 C   0  0  0  0  0  0  0  0  0  0  0  0
  -24.5816   -9.4090   21.6043 C   0  0  0  0  0  0  0  0  0  0  0  0
  -23.1207  -10.9594   20.4645 C   0  0  0  0  0  0  0  0  0  0  0  0
  -20.6733  -30.6406   14.5105 C   0  0  0  0  0  0  0  0  0  0  0  0
  -23.0562  -29.7984   15.6762 C   0  0  0  0  0  0  0  0  0  0  0  0
  -24.6713  -27.4227   19.8466 C   0  0  0  0  0  0  0  0  0  0  0  0
  -28.5257  -20.0709   17.7866 C   0  0  0  0  0  0  0  0  0  0  0  0
  -28.4558  -21.3326   18.3772 C   0  0  0  0  0  0  0  0  0  0  0  0
  -23.5278   -8.5029   21.7225 C   0  0  0  0  0  0  0  0  0  0  0  0
  -22.0669  -10.0532   20.5827 C   0  0  0  0  0  0  0  0  0  0  0  0
  -25.8120  -26.6301   19.7265 C   0  0  0  0  0  0  0  0  0  0  0  0
  -21.9402   -6.2581   19.7545 C   0  0  0  0  0  0  0  0  0  0  0  0
  -22.1982   -4.9209   19.4529 C   0  0  0  0  0  0  0  0  0  0  0  0
  -27.1397  -28.4081   20.6727 C   0  0  0  0  0  0  0  0  0  0  0  0
  -28.1866  -20.3024   20.5459 C   0  0  0  0  0  0  0  0  0  0  0  0
  -21.5724   -4.2933   21.7005 C   0  0  0  0  0  0  0  0  0  0  0  0
  -24.3781  -10.6373   20.9753 C   0  0  0  0  0  0  0  0  0  0  0  0
  -26.3914  -11.6693   19.7967 C   0  0  0  0  0  0  0  0  0  0  0  0
  -21.3519  -31.5012   15.3878 C   0  0  0  0  0  0  0  0  0  0  0  0
  -24.7581  -28.7202   20.3714 C   0  0  0  0  0  0  0  0  0  0  0  0
  -22.5628  -31.0809   15.9704 C   0  0  0  0  0  0  0  0  0  0  0  0
  -25.9982  -29.2142   20.8007 C   0  0  0  0  0  0  0  0  0  0  0  0
  -28.4259  -18.9250   18.5756 C   0  0  0  0  0  0  0  0  0  0  0  0
  -28.2863  -21.4484   19.7569 C   0  0  0  0  0  0  0  0  0  0  0  0
  -28.2564  -19.0407   19.9552 C   0  0  0  0  0  0  0  0  0  0  0  0
  -22.2705   -8.8249   21.2117 C   0  0  0  0  0  0  0  0  0  0  0  0
  -27.0469  -27.1239   20.1369 C   0  0  0  0  0  0  0  0  0  0  0  0
  -21.4984   -6.6130   21.0291 C   0  0  0  0  0  0  0  0  0  0  0  0
  -22.0143   -3.9385   20.4259 C   0  0  0  0  0  0  0  0  0  0  0  0
  -21.3145   -5.6306   22.0021 C   0  0  0  0  0  0  0  0  0  0  0  0
  -25.4661  -11.5740   20.8534 C   0  0  0  0  0  0  0  0  0  0  0  0
  -27.2146  -12.7091   20.1539 C   0  0  0  0  0  0  0  0  0  0  0  0
  -26.4972  -10.8880   18.5992 C   0  0  0  0  0  0  0  0  0  0  0  0
  -24.1610  -31.6359   19.2553 C   0  0  0  0  0  0  0  0  0  0  0  0
  -24.7905  -32.5125   22.3143 C   0  0  0  0  0  0  0  0  0  0  0  0
  -26.3301  -31.7969   25.2748 C   0  0  0  0  0  0  0  0  0  0  0  0
  -28.2880  -23.9659   19.7239 C   0  0  0  0  0  0  0  0  0  0  0  0
  -27.9823  -17.8474   22.1569 C   0  0  0  0  0  0  0  0  0  0  0  0
  -20.7939  -32.8819   15.6266 C   0  0  0  0  0  0  0  0  0  0  0  0
  -23.5140  -29.5526   20.5191 C   0  0  0  0  0  0  0  0  0  0  0  0
  -26.1417  -30.5930   21.3897 C   0  0  0  0  0  0  0  0  0  0  0  0
  -21.3911  -33.5776   16.8470 C   0  0  0  0  0  0  0  0  0  0  0  0
  -27.6458  -15.2151   24.5307 C   0  0  0  0  0  0  0  0  0  0  0  0
  -22.9100  -33.4363   16.8520 C   0  0  0  0  0  0  0  0  0  0  0  0
  -27.1249  -14.0410   23.6987 C   0  0  0  0  0  0  0  0  0  0  0  0
  -27.0601  -16.5460   24.0624 C   0  0  0  0  0  0  0  0  0  0  0  0
  -26.6961  -15.6493   21.7969 C   0  0  0  0  0  0  0  0  0  0  0  0
  -23.3267  -31.9628   16.9341 C   0  0  1  0  0  0  0  0  0  0  0  0
  -23.8015  -31.0491   20.5910 C   0  0  1  0  0  0  0  0  0  0  0  0
  -27.3081  -14.2946   22.1895 C   0  0  2  0  0  0  0  0  0  0  0  0
  -28.5041  -17.5865   17.9158 C   0  0  0  0  0  0  0  0  0  0  0  0
  -26.6953  -32.7212   27.5791 C   0  0  0  0  0  0  0  0  0  0  0  0
  -29.3203  -25.1074   21.7216 C   0  0  0  0  0  0  0  0  0  0  0  0
  -26.8313  -34.4863   21.1965 C   0  0  0  0  0  0  0  0  0  0  0  0
  -27.8070  -34.6716   23.4947 C   0  0  0  0  0  0  0  0  0  0  0  0
  -25.4484  -35.3717   23.0828 C   0  0  0  0  0  0  0  0  0  0  0  0
  -24.9920  -29.4811   26.5417 C   0  0  0  0  0  0  0  0  0  0  0  0
  -26.0297  -32.9112   23.0787 C   0  0  1  0  0  0  0  0  0  0  0  0
  -25.8257  -31.8298   26.7062 C   0  0  2  0  0  0  0  0  0  0  0  0
  -28.1703  -25.1120   20.7253 C   0  0  1  0  0  0  0  0  0  1  0  0
  -26.5270  -34.3349   22.7004 C   0  0  0  0  0  0  0  0  0  0  0  0
  -25.6810  -12.4807   21.8103 N   0  0  0  0  0  0  0  0  0  0  0  0
  -26.7507  -13.1557   21.3562 N   0  0  0  0  0  0  0  0  0  0  0  0
  -24.8972  -31.3708   21.5076 N   0  0  0  0  0  0  0  0  0  0  0  0
  -27.2749  -16.7196   22.6241 N   0  0  0  0  0  0  0  0  0  0  0  0
  -28.2829  -13.2757   19.5538 N   0  0  0  0  0  0  0  0  0  0  0  0
  -25.5697   -9.8584   18.3891 N   0  0  0  0  0  0  0  0  0  0  0  0
  -28.2155  -22.7287   20.3557 N   0  0  0  0  0  0  0  0  0  0  0  0
  -28.1529  -17.8885   20.7735 N   0  0  0  0  0  0  0  0  0  0  0  0
  -23.1871  -31.4728   18.2887 N   0  0  0  0  0  0  0  0  0  0  0  0
  -25.7081  -32.7466   24.4922 N   0  0  0  0  0  0  0  0  0  0  0  0
  -25.8270  -30.4575   27.2875 N   0  3  0  0  0  0  0  0  0  0  0  0
  -27.3978  -11.0859   17.7488 O   0  0  0  0  0  0  0  0  0  0  0  0
  -25.2413  -32.1965   19.1127 O   0  0  0  0  0  0  0  0  0  0  0  0
  -23.7634  -33.1851   22.4343 O   0  0  0  0  0  0  0  0  0  0  0  0
  -27.1925  -31.0102   24.8903 O   0  0  0  0  0  0  0  0  0  0  0  0
  -28.4124  -24.1815   18.5217 O   0  0  0  0  0  0  0  0  0  0  0  0
  -28.4293  -18.6990   22.9295 O   0  0  0  0  0  0  0  0  0  0  0  0
  -21.2420   -7.9409   21.3267 O   0  0  0  0  0  0  0  0  0  0  0  0
  -28.1619  -26.3526   20.0202 O   0  0  0  0  0  0  0  0  0  1  0  0
  -22.2605   -2.6543   20.1357 F   0  0  0  0  0  0  0  0  0  0  0  0
  -20.8892   -5.9652   23.2280 F   0  0  0  0  0  0  0  0  0  0  0  0
  1  2  1  0  0  0  0
  1  5  2  0  0  0  0
  2  6  2  0  0  0  0
  3 10  2  0  0  0  0
  3 18  1  0  0  0  0
  4 11  1  0  0  0  0
  4 18  2  0  0  0  0
  5 20  1  0  0  0  0
  6 22  1  0  0  0  0
  7 12  2  0  0  0  0
  7 21  1  0  0  0  0
  8  9  2  0  0  0  0
  8 24  1  0  0  0  0
  9 25  1  0  0  0  0
 10 27  1  0  0  0  0
 11 27  2  0  0  0  0
 12 28  1  0  0  0  0
 13 14  2  0  0  0  0
 13 29  1  0  0  0  0
 14 30  1  0  0  0  0
 15 23  1  0  0  0  0
 15 28  2  0  0  0  0
 16 25  2  0  0  0  0
 16 26  1  0  0  0  0
 17 30  2  0  0  0  0
 17 31  1  0  0  0  0
 18 32  1  0  0  0  0
 19 32  1  0  0  0  0
 19 33  2  0  0  0  0
 19 34  1  0  0  0  0
 20 22  2  0  0  0  0
 20 40  1  0  0  0  0
 21 23  2  0  0  0  0
 21 41  1  0  0  0  0
 22 49  1  0  0  0  0
 23 42  1  0  0  0  0
 24 26  2  0  0  0  0
 24 52  1  0  0  0  0
 25 69  1  0  0  0  0
 26 70  1  0  0  0  0
 27 80  1  0  0  0  0
 28 81  1  0  0  0  0
 29 31  2  0  0  0  0
 29 80  1  0  0  0  0
 30 82  1  0  0  0  0
 31 83  1  0  0  0  0
 32 63  2  0  0  0  0
 33 64  1  0  0  0  0
 33 67  1  0  0  0  0
 34 68  1  0  0  0  0
 34 74  2  0  0  0  0
 35 50  1  0  0  0  0
 35 71  1  0  0  0  0
 35 75  2  0  0  0  0
 36 59  1  0  0  0  0
 36 65  1  0  0  0  0
 36 76  2  0  0  0  0
 37 60  1  0  0  0  0
 37 72  1  0  0  0  0
 37 77  2  0  0  0  0
 38 61  1  0  0  0  0
 38 69  1  0  0  0  0
 38 78  2  0  0  0  0
 39 66  1  0  0  0  0
 39 70  1  0  0  0  0
 39 79  2  0  0  0  0
 40 43  1  0  0  0  0
 41 50  1  0  0  0  0
 42 65  1  0  0  0  0
 43 45  1  0  0  0  0
 44 46  1  0  0  0  0
 44 47  1  0  0  0  0
 45 49  1  0  0  0  0
 46 51  1  0  0  0  0
 47 66  1  0  0  0  0
 48 51  1  0  0  0  0
 48 66  1  0  0  0  0
 49 71  1  0  0  0  0
 50 65  1  0  0  0  0
 51 64  1  0  0  0  0
 53 60  1  0  0  0  0
 54 61  1  0  0  0  0
 55 62  1  0  0  0  0
 56 62  1  0  0  0  0
 57 62  1  0  0  0  0
 58 73  1  0  0  0  0
 59 62  1  0  0  0  0
 59 72  1  0  0  0  0
 60 73  1  0  0  0  0
 61 81  1  0  0  0  0
 63 64  1  0  0  0  0
M  CHG  1  73   1
M  ISO  4  39 100  61 101  70 100  81 101
M  END
> <Batch ID>
0068

> <Smiles>
CNC(C)C(=O)NC(C(=O)N1Cc2cc([101O:1][101CH:1](C)C(=O)Nc3ccc(C)c([100NH:0][100C:0](=O)N4CCCC(n5nc(-c6ccc(Oc7ccc(F)cc7F)cc6)c(C(N)=O)c5N)C4)c3)ccc2CC1C(=O)NC1CCCc2ccccc21)C(C)(C)C

> <Shape>
0.296

> <Color>
0.088

> <Negative vol penalty>
0.000

$$$$

  -OEChem-04042323273D

 83 91  0     1  0  0  0  0  0999 V2000
  -25.0593   -9.9824   25.5744 C   0  0  0  0  0  0  0  0  0  0  0  0
  -25.3675  -11.3377   25.5140 C   0  0  0  0  0  0  0  0  0  0  0  0
  -22.6656  -10.1824   20.1258 C   0  0  0  0  0  0  0  0  0  0  0  0
  -24.2815   -9.4430   21.7627 C   0  0  0  0  0  0  0  0  0  0  0  0
  -23.7610   -9.5768   25.8805 C   0  0  0  0  0  0  0  0  0  0  0  0
  -24.3771  -12.2883   25.7587 C   0  0  0  0  0  0  0  0  0  0  0  0
  -25.9683  -16.0134   28.7978 C   0  0  0  0  0  0  0  0  0  0  0  0
  -31.2640  -19.0976   20.8794 C   0  0  0  0  0  0  0  0  0  0  0  0
  -31.1064  -17.7136   20.8074 C   0  0  0  0  0  0  0  0  0  0  0  0
  -21.9314   -9.0128   20.3222 C   0  0  0  0  0  0  0  0  0  0  0  0
  -23.5472   -8.2734   21.9592 C   0  0  0  0  0  0  0  0  0  0  0  0
  -26.7673  -17.0033   28.2271 C   0  0  0  0  0  0  0  0  0  0  0  0
  -20.7620   -7.3335   23.6263 C   0  0  0  0  0  0  0  0  0  0  0  0
  -20.5465   -6.9184   24.9404 C   0  0  0  0  0  0  0  0  0  0  0  0
  -24.8464  -18.4539   28.0687 C   0  0  0  0  0  0  0  0  0  0  0  0
  -29.4784  -17.8062   22.5902 C   0  0  0  0  0  0  0  0  0  0  0  0
  -21.6915   -4.8430   24.4726 C   0  0  0  0  0  0  0  0  0  0  0  0
  -23.8407  -10.3975   20.8459 C   0  0  0  0  0  0  0  0  0  0  0  0
  -24.1627  -12.9281   20.8444 C   0  0  0  0  0  0  0  0  0  0  0  0
  -22.7564  -10.5229   26.1386 C   0  0  0  0  0  0  0  0  0  0  0  0
  -24.5979  -16.2328   28.9985 C   0  0  0  0  0  0  0  0  0  0  0  0
  -23.0637  -11.8950   26.0673 C   0  0  0  0  0  0  0  0  0  0  0  0
  -24.0328  -17.4662   28.6444 C   0  0  0  0  0  0  0  0  0  0  0  0
  -30.5288  -19.8360   21.8069 C   0  0  0  0  0  0  0  0  0  0  0  0
  -30.2136  -17.0679   21.6628 C   0  0  0  0  0  0  0  0  0  0  0  0
  -29.6360  -19.1903   22.6622 C   0  0  0  0  0  0  0  0  0  0  0  0
  -22.3722   -8.0583   21.2390 C   0  0  0  0  0  0  0  0  0  0  0  0
  -26.2058  -18.2227   27.8598 C   0  0  0  0  0  0  0  0  0  0  0  0
  -21.4421   -6.5032   22.7352 C   0  0  0  0  0  0  0  0  0  0  0  0
  -21.0113   -5.6732   25.3635 C   0  0  0  0  0  0  0  0  0  0  0  0
  -21.9069   -5.2580   23.1584 C   0  0  0  0  0  0  0  0  0  0  0  0
  -24.5999  -11.6052   20.6430 C   0  0  0  0  0  0  0  0  0  0  0  0
  -25.2481  -13.7024   20.5145 C   0  0  0  0  0  0  0  0  0  0  0  0
  -22.8893  -13.4136   21.2898 C   0  0  0  0  0  0  0  0  0  0  0  0
  -21.9290  -14.8807   27.9249 C   0  0  0  0  0  0  0  0  0  0  0  0
  -20.5200  -16.8922   30.0442 C   0  0  0  0  0  0  0  0  0  0  0  0
  -27.9575  -19.4252   24.5254 C   0  0  0  0  0  0  0  0  0  0  0  0
  -20.6934  -19.7820   31.8512 C   0  0  0  0  0  0  0  0  0  0  0  0
  -30.7064  -14.7815   20.7268 C   0  0  0  0  0  0  0  0  0  0  0  0
  -21.3564  -10.0370   26.4189 C   0  0  0  0  0  0  0  0  0  0  0  0
  -23.7551  -15.1647   29.6398 C   0  0  0  0  0  0  0  0  0  0  0  0
  -22.5708  -17.7590   28.8576 C   0  0  0  0  0  0  0  0  0  0  0  0
  -20.4532  -11.1034   27.0332 C   0  0  0  0  0  0  0  0  0  0  0  0
  -29.6049  -12.4733   18.2497 C   0  0  0  0  0  0  0  0  0  0  0  0
  -20.5882  -12.4194   26.2738 C   0  0  0  0  0  0  0  0  0  0  0  0
  -28.1686  -12.1505   18.6681 C   0  0  0  0  0  0  0  0  0  0  0  0
  -30.5211  -12.6524   19.4588 C   0  0  0  0  0  0  0  0  0  0  0  0
  -28.6121  -13.2960   20.8768 C   0  0  0  0  0  0  0  0  0  0  0  0
  -22.0226  -12.9561   26.3508 C   0  0  1  0  0  0  0  0  0  0  0  0
  -22.2691  -15.3069   29.3251 C   0  0  1  0  0  0  0  0  0  0  0  0
  -27.6377  -13.1708   19.6941 C   0  0  2  0  0  0  0  0  0  0  0  0
  -30.7180  -21.3172   21.8617 C   0  0  0  0  0  0  0  0  0  0  0  0
  -19.3726  -21.1792   33.4639 C   0  0  0  0  0  0  0  0  0  0  0  0
  -18.7729  -17.8860   27.7485 C   0  0  0  0  0  0  0  0  0  0  0  0
  -18.1789  -19.8720   29.1525 C   0  0  0  0  0  0  0  0  0  0  0  0
  -17.5683  -17.5778   29.9184 C   0  0  0  0  0  0  0  0  0  0  0  0
  -22.7492  -19.4977   33.9612 C   0  0  0  0  0  0  0  0  0  0  0  0
  -27.3717  -20.5583   25.3603 C   0  0  0  0  0  0  0  0  0  0  0  0
  -26.3520  -20.0813   26.3833 C   0  0  0  0  0  0  0  0  0  1  0  0
  -19.9890  -18.3042   29.9873 C   0  0  1  0  0  0  0  0  0  0  0  0
  -20.4070  -20.0747   33.3130 C   0  0  2  0  0  0  0  0  0  0  0  0
  -18.6545  -18.4041   29.1958 C   0  0  0  0  0  0  0  0  0  0  0  0
  -25.8644  -11.5391   20.2180 N   0  0  0  0  0  0  0  0  0  0  0  0
  -26.2310  -12.8302   20.1495 N   0  0  0  0  0  0  0  0  0  0  0  0
  -21.7870  -16.6806   29.4822 N   0  0  0  0  0  0  0  0  0  0  0  0
  -29.9564  -13.6363   20.3850 N   0  0  0  0  0  0  0  0  0  0  0  0
  -25.4480  -15.0375   20.5039 N   0  0  0  0  0  0  0  0  0  0  0  0
  -22.6857  -13.5910   22.6651 N   0  0  0  0  0  0  0  0  0  0  0  0
  -28.8814  -19.9220   23.6098 N   0  0  0  0  0  0  0  0  0  0  0  0
  -30.0539  -15.6619   21.5892 N   0  0  0  0  0  0  0  0  0  0  0  0
  -22.2637  -13.5710   27.6386 N   0  0  0  0  0  0  0  0  0  0  0  0
  -19.8997  -18.7627   31.3694 N   0  0  0  0  0  0  0  0  0  0  0  0
  -21.6537  -20.5000   34.0100 N   0  3  0  0  0  0  0  0  0  0  0  0
  -21.9540  -13.6666   20.4931 O   0  0  0  0  0  0  0  0  0  0  0  0
  -21.4006  -15.6805   27.1615 O   0  0  0  0  0  0  0  0  0  0  0  0
  -19.8389  -16.0108   30.5742 O   0  0  0  0  0  0  0  0  0  0  0  0
  -27.6215  -18.2564   24.6839 O   0  0  0  0  0  0  0  0  0  0  0  0
  -21.5343  -20.3987   31.2007 O   0  0  0  0  0  0  0  0  0  0  0  0
  -31.8330  -14.9810   20.2652 O   0  0  0  0  0  0  0  0  0  0  0  0
  -21.6559   -6.9171   21.4311 O   0  0  0  0  0  0  0  0  0  0  0  0
  -26.9833  -19.1903   27.3020 O   0  0  0  0  0  0  0  0  0  1  0  0
  -20.8057   -5.2754   26.6259 F   0  0  0  0  0  0  0  0  0  0  0  0
  -22.5620   -4.4566   22.3073 F   0  0  0  0  0  0  0  0  0  0  0  0
  1  2  1  0  0  0  0
  1  5  2  0  0  0  0
  2  6  2  0  0  0  0
  3 10  2  0  0  0  0
  3 18  1  0  0  0  0
  4 11  1  0  0  0  0
  4 18  2  0  0  0  0
  5 20  1  0  0  0  0
  6 22  1  0  0  0  0
  7 12  2  0  0  0  0
  7 21  1  0  0  0  0
  8  9  2  0  0  0  0
  8 24  1  0  0  0  0
  9 25  1  0  0  0  0
 10 27  1  0  0  0  0
 11 27  2  0  0  0  0
 12 28  1  0  0  0  0
 13 14  2  0  0  0  0
 13 29  1  0  0  0  0
 14 30  1  0  0  0  0
 15 23  1  0  0  0  0
 15 28  2  0  0  0  0
 16 25  2  0  0  0  0
 16 26  1  0  0  0  0
 17 30  2  0  0  0  0
 17 31  1  0  0  0  0
 18 32  1  0  0  0  0
 19 32  1  0  0  0  0
 19 33  2  0  0  0  0
 19 34  1  0  0  0  0
 20 22  2  0  0  0  0
 20 40  1  0  0  0  0
 21 23  2  0  0  0  0
 21 41  1  0  0  0  0
 22 49  1  0  0  0  0
 23 42  1  0  0  0  0
 24 26  2  0  0  0  0
 24 52  1  0  0  0  0
 25 70  1  0  0  0  0
 26 69  1  0  0  0  0
 27 80  1  0  0  0  0
 28 81  1  0  0  0  0
 29 31  2  0  0  0  0
 29 80  1  0  0  0  0
 30 82  1  0  0  0  0
 31 83  1  0  0  0  0
 32 63  2  0  0  0  0
 33 64  1  0  0  0  0
 33 67  1  0  0  0  0
 34 68  1  0  0  0  0
 34 74  2  0  0  0  0
 35 50  1  0  0  0  0
 35 71  1  0  0  0  0
 35 75  2  0  0  0  0
 36 60  1  0  0  0  0
 36 65  1  0  0  0  0
 36 76  2  0  0  0  0
 37 58  1  0  0  0  0
 37 69  1  0  0  0  0
 37 77  2  0  0  0  0
 38 61  1  0  0  0  0
 38 72  1  0  0  0  0
 38 78  2  0  0  0  0
 39 66  1  0  0  0  0
 39 70  1  0  0  0  0
 39 79  2  0  0  0  0
 40 43  1  0  0  0  0
 41 50  1  0  0  0  0
 42 65  1  0  0  0  0
 43 45  1  0  0  0  0
 44 46  1  0  0  0  0
 44 47  1  0  0  0  0
 45 49  1  0  0  0  0
 46 51  1  0  0  0  0
 47 66  1  0  0  0  0
 48 51  1  0  0  0  0
 48 66  1  0  0  0  0
 49 71  1  0  0  0  0
 50 65  1  0  0  0  0
 51 64  1  0  0  0  0
 53 61  1  0  0  0  0
 54 62  1  0  0  0  0
 55 62  1  0  0  0  0
 56 62  1  0  0  0  0
 57 73  1  0  0  0  0
 58 59  1  0  0  0  0
 59 81  1  0  0  0  0
 60 62  1  0  0  0  0
 60 72  1  0  0  0  0
 61 73  1  0  0  0  0
 63 64  1  0  0  0  0
M  CHG  1  73   1
M  ISO  4  39 100  59 101  70 100  81 101
M  END
> <Batch ID>
0068

> <Smiles>
CNC(C)C(=O)NC(C(=O)N1Cc2cc([101O:1][101CH2:1]CC(=O)Nc3cc([100NH:0][100C:0](=O)N4CCCC(n5nc(-c6ccc(Oc7ccc(F)cc7F)cc6)c(C(N)=O)c5N)C4)ccc3C)ccc2CC1C(=O)NC1CCCc2ccccc21)C(C)(C)C

> <Shape>
0.192

> <Color>
0.178

> <Negative vol penalty>
0.000

$$$$

  -OEChem-04042323273D

 88 97  0     1  0  0  0  0  0999 V2000
  -24.6207  -34.3749   25.0224 C   0  0  0  0  0  0  0  0  0  0  0  0
  -24.7000  -33.0537   25.4510 C   0  0  0  0  0  0  0  0  0  0  0  0
  -23.0357  -10.0140   19.8782 C   0  0  0  0  0  0  0  0  0  0  0  0
  -23.8507   -9.8517   22.1468 C   0  0  0  0  0  0  0  0  0  0  0  0
  -31.5249  -18.9656   20.9300 C   0  0  0  0  0  0  0  0  0  0  0  0
  -24.6387  -34.6665   23.6592 C   0  0  0  0  0  0  0  0  0  0  0  0
  -24.7963  -32.0233   24.5164 C   0  0  0  0  0  0  0  0  0  0  0  0
  -27.9204  -26.7900   25.1155 C   0  0  0  0  0  0  0  0  0  0  0  0
  -31.3207  -17.5889   20.8365 C   0  0  0  0  0  0  0  0  0  0  0  0
  -22.2690   -8.8649   20.0714 C   0  0  0  0  0  0  0  0  0  0  0  0
  -23.0840   -8.7026   22.3400 C   0  0  0  0  0  0  0  0  0  0  0  0
  -27.5298  -25.5001   25.4724 C   0  0  0  0  0  0  0  0  0  0  0  0
  -19.8521   -7.9438   22.9721 C   0  0  0  0  0  0  0  0  0  0  0  0
  -19.1229   -7.8447   24.1570 C   0  0  0  0  0  0  0  0  0  0  0  0
  -27.3520  -24.9148   23.1389 C   0  0  0  0  0  0  0  0  0  0  0  0
  -29.7389  -17.6996   22.6593 C   0  0  0  0  0  0  0  0  0  0  0  0
  -20.3320   -5.8340   24.7331 C   0  0  0  0  0  0  0  0  0  0  0  0
  -23.8266  -10.5074   20.9159 C   0  0  0  0  0  0  0  0  0  0  0  0
  -30.8361  -19.7093   21.8882 C   0  0  0  0  0  0  0  0  0  0  0  0
  -24.2296  -13.0261   20.9523 C   0  0  0  0  0  0  0  0  0  0  0  0
  -24.7451  -33.6399   22.7077 C   0  0  0  0  0  0  0  0  0  0  0  0
  -28.0193  -27.1558   23.7654 C   0  0  0  0  0  0  0  0  0  0  0  0
  -24.8145  -32.3014   23.1391 C   0  0  0  0  0  0  0  0  0  0  0  0
  -27.7465  -26.2093   22.7675 C   0  0  0  0  0  0  0  0  0  0  0  0
  -29.9431  -19.0763   22.7528 C   0  0  0  0  0  0  0  0  0  0  0  0
  -30.4277  -16.9560   21.7011 C   0  0  0  0  0  0  0  0  0  0  0  0
  -22.2931   -8.2092   21.3023 C   0  0  0  0  0  0  0  0  0  0  0  0
  -27.2428  -24.5631   24.4840 C   0  0  0  0  0  0  0  0  0  0  0  0
  -20.8212   -6.9879   22.6676 C   0  0  0  0  0  0  0  0  0  0  0  0
  -19.3628   -6.7899   25.0375 C   0  0  0  0  0  0  0  0  0  0  0  0
  -21.0612   -5.9330   23.5481 C   0  0  0  0  0  0  0  0  0  0  0  0
  -24.6193  -11.6940   20.7168 C   0  0  0  0  0  0  0  0  0  0  0  0
  -25.3314  -13.7717   20.6108 C   0  0  0  0  0  0  0  0  0  0  0  0
  -29.7793  -20.5674   24.7926 C   0  0  0  0  0  0  0  0  0  0  0  0
  -32.2687  -21.6809   22.1631 C   0  0  0  0  0  0  0  0  0  0  0  0
  -31.0756  -21.1462   21.9555 C   0  0  0  0  0  0  0  0  0  0  0  0
  -22.9831  -13.5432   21.4367 C   0  0  0  0  0  0  0  0  0  0  0  0
  -26.5759  -29.2950   21.9095 C   0  0  0  0  0  0  0  0  0  0  0  0
  -28.7584  -28.2972   19.7270 C   0  0  0  0  0  0  0  0  0  0  0  0
  -30.8650  -25.8367   18.6525 C   0  0  0  0  0  0  0  0  0  0  0  0
  -30.8250  -14.6731   20.7125 C   0  0  0  0  0  0  0  0  0  0  0  0
  -24.7131  -34.0008   21.2437 C   0  0  0  0  0  0  0  0  0  0  0  0
  -28.4677  -28.5435   23.3969 C   0  0  0  0  0  0  0  0  0  0  0  0
  -27.8571  -26.5459   21.3036 C   0  0  0  0  0  0  0  0  0  0  0  0
  -25.1950  -32.8778   20.3288 C   0  0  0  0  0  0  0  0  0  0  0  0
  -29.5927  -12.4480   18.2211 C   0  0  0  0  0  0  0  0  0  0  0  0
  -24.5537  -31.5524   20.7274 C   0  0  0  0  0  0  0  0  0  0  0  0
  -28.1569  -12.1630   18.6676 C   0  0  0  0  0  0  0  0  0  0  0  0
  -30.5421  -12.5752   19.4111 C   0  0  0  0  0  0  0  0  0  0  0  0
  -27.7743  -19.7968   23.8107 C   0  0  0  0  0  0  0  0  0  0  0  0
  -28.6881  -13.2521   20.8854 C   0  0  0  0  0  0  0  0  0  0  0  0
  -24.9451  -31.1579   22.1566 C   0  0  1  0  0  0  0  0  0  0  0  0
  -28.6325  -21.0729   25.6523 C   0  0  1  0  0  0  0  0  0  0  0  0
  -28.0376  -28.9573   21.9929 C   0  0  1  0  0  0  0  0  0  0  0  0
  -27.4160  -20.9620   24.7262 C   0  0  1  0  0  0  0  0  0  0  0  0
  -27.6830  -13.1801   19.7243 C   0  0  2  0  0  0  0  0  0  0  0  0
  -27.4002  -20.6588   27.7933 C   0  0  0  0  0  0  0  0  0  0  0  0
  -32.4897  -25.2966   16.8177 C   0  0  0  0  0  0  0  0  0  0  0  0
  -26.4316  -27.7787   17.8225 C   0  0  0  0  0  0  0  0  0  0  0  0
  -27.9760  -26.3895   16.4250 C   0  0  0  0  0  0  0  0  0  0  0  0
  -28.4409  -28.8179   16.7561 C   0  0  0  0  0  0  0  0  0  0  0  0
  -33.1095  -25.5638   20.5621 C   0  0  0  0  0  0  0  0  0  0  0  0
  -28.5030  -20.1963   26.8934 C   0  0  0  0  0  0  0  0  0  0  0  0
  -27.2028  -22.2510   23.9288 C   0  0  0  0  0  0  0  0  0  1  0  0
  -28.8017  -27.2138   18.6766 C   0  0  1  0  0  0  0  0  0  0  0  0
  -32.3178  -25.8749   18.2137 C   0  0  2  0  0  0  0  0  0  0  0  0
  -27.9085  -27.5439   17.4475 C   0  0  0  0  0  0  0  0  0  0  0  0
  -25.8709  -11.5959   20.2607 N   0  0  0  0  0  0  0  0  0  0  0  0
  -26.2771  -12.8758   20.2068 N   0  0  0  0  0  0  0  0  0  0  0  0
  -29.2242  -19.8106   23.7437 N   0  0  0  0  0  0  0  0  0  0  0  0
  -28.2932  -27.9175   20.9940 N   0  0  0  0  0  0  0  0  0  0  0  0
  -30.0308  -13.5589   20.3681 N   0  0  0  0  0  0  0  0  0  0  0  0
  -25.5737  -15.0997   20.6195 N   0  0  0  0  0  0  0  0  0  0  0  0
  -21.9568  -12.6381   21.7398 N   0  0  0  0  0  0  0  0  0  0  0  0
  -30.2213  -15.5573   21.6060 N   0  0  0  0  0  0  0  0  0  0  0  0
  -26.2878  -30.6187   22.1824 N   0  0  0  0  0  0  0  0  0  0  0  0
  -30.2104  -27.0132   18.3549 N   0  0  0  0  0  0  0  0  0  0  0  0
  -33.1642  -25.0891   19.1555 N   0  3  0  0  0  0  0  0  0  0  0  0
  -30.9510  -20.7778   25.0732 O   0  0  0  0  0  0  0  0  0  0  0  0
  -22.7797  -14.7727   21.5803 O   0  0  0  0  0  0  0  0  0  0  0  0
  -25.7693  -28.4199   21.6177 O   0  0  0  0  0  0  0  0  0  0  0  0
  -29.1305  -29.4367   19.4360 O   0  0  0  0  0  0  0  0  0  0  0  0
  -30.3603  -24.8593   19.2007 O   0  0  0  0  0  0  0  0  0  0  0  0
  -31.9464  -14.8454   20.2279 O   0  0  0  0  0  0  0  0  0  0  0  0
  -21.5449   -7.0880   21.4912 O   0  0  0  0  0  0  0  0  0  0  0  0
  -26.8608  -23.3036   24.8296 O   0  0  0  0  0  0  0  0  0  1  0  0
  -18.6636   -6.6957   26.1761 F   0  0  0  0  0  0  0  0  0  0  0  0
  -21.9918   -5.0123   23.2616 F   0  0  0  0  0  0  0  0  0  0  0  0
  1  2  1  0  0  0  0
  1  6  2  0  0  0  0
  2  7  2  0  0  0  0
  3 10  2  0  0  0  0
  3 18  1  0  0  0  0
  4 11  1  0  0  0  0
  4 18  2  0  0  0  0
  5  9  2  0  0  0  0
  5 19  1  0  0  0  0
  6 21  1  0  0  0  0
  7 23  1  0  0  0  0
  8 12  2  0  0  0  0
  8 22  1  0  0  0  0
  9 26  1  0  0  0  0
 10 27  1  0  0  0  0
 11 27  2  0  0  0  0
 12 28  1  0  0  0  0
 13 14  2  0  0  0  0
 13 29  1  0  0  0  0
 14 30  1  0  0  0  0
 15 24  1  0  0  0  0
 15 28  2  0  0  0  0
 16 25  1  0  0  0  0
 16 26  2  0  0  0  0
 17 30  2  0  0  0  0
 17 31  1  0  0  0  0
 18 32  1  0  0  0  0
 19 25  2  0  0  0  0
 19 36  1  0  0  0  0
 20 32  1  0  0  0  0
 20 33  2  0  0  0  0
 20 37  1  0  0  0  0
 21 23  2  0  0  0  0
 21 42  1  0  0  0  0
 22 24  2  0  0  0  0
 22 43  1  0  0  0  0
 23 52  1  0  0  0  0
 24 44  1  0  0  0  0
 25 70  1  0  0  0  0
 26 75  1  0  0  0  0
 27 85  1  0  0  0  0
 28 86  1  0  0  0  0
 29 31  2  0  0  0  0
 29 85  1  0  0  0  0
 30 87  1  0  0  0  0
 31 88  1  0  0  0  0
 32 68  2  0  0  0  0
 33 69  1  0  0  0  0
 33 73  1  0  0  0  0
 34 53  1  0  0  0  0
 34 70  1  0  0  0  0
 34 79  2  0  0  0  0
 35 36  2  0  0  0  0
 37 74  1  0  0  0  0
 37 80  2  0  0  0  0
 38 54  1  0  0  0  0
 38 76  1  0  0  0  0
 38 81  2  0  0  0  0
 39 65  1  0  0  0  0
 39 71  1  0  0  0  0
 39 82  2  0  0  0  0
 40 66  1  0  0  0  0
 40 77  1  0  0  0  0
 40 83  2  0  0  0  0
 41 72  1  0  0  0  0
 41 75  1  0  0  0  0
 41 84  2  0  0  0  0
 42 45  1  0  0  0  0
 43 54  1  0  0  0  0
 44 71  1  0  0  0  0
 45 47  1  0  0  0  0
 46 48  1  0  0  0  0
 46 49  1  0  0  0  0
 47 52  1  0  0  0  0
 48 56  1  0  0  0  0
 49 72  1  0  0  0  0
 50 55  1  0  0  0  0
 50 70  1  0  0  0  0
 51 56  1  0  0  0  0
 51 72  1  0  0  0  0
 52 76  1  0  0  0  0
 53 55  1  0  0  0  0
 53 63  1  0  0  0  0
 54 71  1  0  0  0  0
 55 64  1  0  0  0  0
 56 69  1  0  0  0  0
 57 63  1  0  0  0  0
 58 66  1  0  0  0  0
 59 67  1  0  0  0  0
 60 67  1  0  0  0  0
 61 67  1  0  0  0  0
 62 78  1  0  0  0  0
 64 86  1  0  0  0  0
 65 67  1  0  0  0  0
 65 77  1  0  0  0  0
 66 78  1  0  0  0  0
 68 69  1  0  0  0  0
M  CHG  1  78   1
M  ISO  4  41 100  64 101  75 100  86 101
M  END
> <Batch ID>
0068

> <Smiles>
C=Cc1ccc([100NH:0][100C:0](=O)N2CCCC(n3nc(-c4ccc(Oc5ccc(F)cc5F)cc4)c(C(N)=O)c3N)C2)cc1N1CC([101CH2:1][101O:1]c2ccc3c(c2)CN(C(=O)C(NC(=O)C(C)NC)C(C)(C)C)C(C(=O)NC2CCCc4ccccc42)C3)C(CC)C1=O

> <Shape>
0.290

> <Color>
0.195

> <Negative vol penalty>
0.000

$$$$

  -OEChem-04042323273D

 90 99  0     1  0  0  0  0  0999 V2000
  -27.5744  -37.2969   18.9742 C   0  0  0  0  0  0  0  0  0  0  0  0
  -28.0837  -36.0025   18.9980 C   0  0  0  0  0  0  0  0  0  0  0  0
  -24.5510   -9.3190   22.0232 C   0  0  0  0  0  0  0  0  0  0  0  0
  -22.9936  -11.0779   22.5868 C   0  0  0  0  0  0  0  0  0  0  0  0
  -26.5810  -37.6706   19.8782 C   0  0  0  0  0  0  0  0  0  0  0  0
  -27.6005  -35.0813   19.9266 C   0  0  0  0  0  0  0  0  0  0  0  0
  -26.8873  -29.0545   19.1052 C   0  0  0  0  0  0  0  0  0  0  0  0
  -23.8953   -8.4567   22.9019 C   0  0  0  0  0  0  0  0  0  0  0  0
  -22.3378  -10.2156   23.4655 C   0  0  0  0  0  0  0  0  0  0  0  0
  -27.6743  -27.9598   19.4604 C   0  0  0  0  0  0  0  0  0  0  0  0
  -21.0838   -6.5784   22.9148 C   0  0  0  0  0  0  0  0  0  0  0  0
  -20.8137   -5.2837   22.4718 C   0  0  0  0  0  0  0  0  0  0  0  0
  -26.3484  -27.6610   21.4534 C   0  0  0  0  0  0  0  0  0  0  0  0
  -25.2746  -19.0093   22.2512 C   0  0  0  0  0  0  0  0  0  0  0  0
  -27.4479  -19.6710   21.4291 C   0  0  0  0  0  0  0  0  0  0  0  0
  -22.1395   -4.3877   24.2819 C   0  0  0  0  0  0  0  0  0  0  0  0
  -24.1002  -10.6296   21.8657 C   0  0  0  0  0  0  0  0  0  0  0  0
  -24.5010  -11.7143   19.5918 C   0  0  0  0  0  0  0  0  0  0  0  0
  -26.0785  -36.7508   20.8120 C   0  0  0  0  0  0  0  0  0  0  0  0
  -25.8300  -29.4680   19.9283 C   0  0  0  0  0  0  0  0  0  0  0  0
  -26.6003  -35.4435   20.8449 C   0  0  0  0  0  0  0  0  0  0  0  0
  -25.5479  -28.7597   21.1051 C   0  0  0  0  0  0  0  0  0  0  0  0
  -24.7788  -20.2811   21.9642 C   0  0  0  0  0  0  0  0  0  0  0  0
  -26.9521  -20.9428   21.1420 C   0  0  0  0  0  0  0  0  0  0  0  0
  -26.6092  -18.7043   21.9837 C   0  0  0  0  0  0  0  0  0  0  0  0
  -22.7887   -8.9050   23.6231 C   0  0  0  0  0  0  0  0  0  0  0  0
  -27.4067  -27.2647   20.6361 C   0  0  0  0  0  0  0  0  0  0  0  0
  -21.8818   -6.7778   24.0414 C   0  0  0  0  0  0  0  0  0  0  0  0
  -21.3415   -4.1883   23.1553 C   0  0  0  0  0  0  0  0  0  0  0  0
  -22.4096   -5.6825   24.7249 C   0  0  0  0  0  0  0  0  0  0  0  0
  -25.6175  -21.2478   21.4096 C   0  0  0  0  0  0  0  0  0  0  0  0
  -24.7775  -11.5209   20.9585 C   0  0  0  0  0  0  0  0  0  0  0  0
  -25.4156  -12.6552   19.1862 C   0  0  0  0  0  0  0  0  0  0  0  0
  -28.9171  -21.6990   19.7302 C   0  0  0  0  0  0  0  0  0  0  0  0
  -23.5062  -11.0984   18.7630 C   0  0  0  0  0  0  0  0  0  0  0  0
  -25.1525  -32.1175   21.5484 C   0  0  0  0  0  0  0  0  0  0  0  0
  -22.3437  -30.5932   22.1049 C   0  0  0  0  0  0  0  0  0  0  0  0
  -20.6421  -27.6431   22.3231 C   0  0  0  0  0  0  0  0  0  0  0  0
  -28.4109  -16.9458   22.0713 C   0  0  0  0  0  0  0  0  0  0  0  0
  -25.0380  -37.2147   21.8004 C   0  0  0  0  0  0  0  0  0  0  0  0
  -24.9738  -30.6344   19.5175 C   0  0  0  0  0  0  0  0  0  0  0  0
  -24.4117  -29.1508   22.0130 C   0  0  0  0  0  0  0  0  0  0  0  0
  -24.3145  -36.0702   22.5054 C   0  0  0  0  0  0  0  0  0  0  0  0
  -29.8116  -14.2757   20.1777 C   0  0  0  0  0  0  0  0  0  0  0  0
  -25.3145  -35.0271   22.9941 C   0  0  0  0  0  0  0  0  0  0  0  0
  -28.6527  -13.2866   20.0335 C   0  0  0  0  0  0  0  0  0  0  0  0
  -29.8073  -14.9591   21.5440 C   0  0  0  0  0  0  0  0  0  0  0  0
  -27.5905  -23.3511   20.7720 C   0  0  0  0  0  0  0  0  0  0  0  0
  -27.3792  -14.6090   21.7703 C   0  0  0  0  0  0  0  0  0  0  0  0
  -26.0842  -34.4085   21.8209 C   0  0  1  0  0  0  0  0  0  0  0  0
  -29.4308  -23.0605   19.2850 C   0  0  1  0  0  0  0  0  0  0  0  0
  -24.2446  -31.2827   20.6903 C   0  0  1  0  0  0  0  0  0  0  0  0
  -28.9139  -23.9943   20.3803 C   0  0  1  0  0  0  0  0  0  0  0  0
  -27.3039  -13.9436   20.3863 C   0  0  2  0  0  0  0  0  0  0  0  0
  -30.9416  -23.0892   19.1279 C   0  0  0  0  0  0  0  0  0  0  0  0
  -18.3671  -26.7142   22.8321 C   0  0  0  0  0  0  0  0  0  0  0  0
  -22.8146  -31.0771   25.0805 C   0  0  0  0  0  0  0  0  0  0  0  0
  -21.0689  -29.3495   25.5665 C   0  0  0  0  0  0  0  0  0  0  0  0
  -20.4554  -31.4258   24.3274 C   0  0  0  0  0  0  0  0  0  0  0  0
  -20.3985  -26.4493   19.6260 C   0  0  0  0  0  0  0  0  0  0  0  0
  -28.7502  -25.4359   19.9245 C   0  0  0  0  0  0  0  0  0  1  0  0
  -21.8311  -29.6503   23.1665 C   0  0  1  0  0  0  0  0  0  0  0  0
  -19.3096  -27.2035   21.7436 C   0  0  2  0  0  0  0  0  0  0  0  0
  -23.3508  -20.6033   22.2509 C   0  0  0  0  0  0  0  0  0  0  0  0
  -21.5652  -30.3692   24.5193 C   0  0  0  0  0  0  0  0  0  0  0  0
  -25.7887  -12.2781   21.3921 N   0  0  0  0  0  0  0  0  0  0  0  0
  -26.1557  -12.9563   20.2915 N   0  0  0  0  0  0  0  0  0  0  0  0
  -27.8124  -21.9305   20.5748 N   0  0  0  0  0  0  0  0  0  0  0  0
  -23.6072  -30.3019   21.5713 N   0  0  0  0  0  0  0  0  0  0  0  0
  -28.4992  -15.5625   21.8080 N   0  0  0  0  0  0  0  0  0  0  0  0
  -25.6509  -13.2462   17.9955 N   0  0  0  0  0  0  0  0  0  0  0  0
  -22.6480  -10.1525   19.3401 N   0  0  0  0  0  0  0  0  0  0  0  0
  -27.1127  -17.4123   22.2750 N   0  0  0  0  0  0  0  0  0  0  0  0
  -25.2637  -33.4320   21.1370 N   0  0  0  0  0  0  0  0  0  0  0  0
  -20.6587  -28.9941   22.5981 N   0  0  0  0  0  0  0  0  0  0  0  0
  -19.5101  -26.0986   20.7638 N   0  3  0  0  0  0  0  0  0  0  0  0
  -29.3895  -20.6434   19.3333 O   0  0  0  0  0  0  0  0  0  0  0  0
  -23.3928  -11.3665   17.5428 O   0  0  0  0  0  0  0  0  0  0  0  0
  -25.7097  -31.6073   22.5132 O   0  0  0  0  0  0  0  0  0  0  0  0
  -21.6457  -31.5488   21.7566 O   0  0  0  0  0  0  0  0  0  0  0  0
  -21.5736  -26.8650   22.5163 O   0  0  0  0  0  0  0  0  0  0  0  0
  -29.4106  -17.6687   22.0862 O   0  0  0  0  0  0  0  0  0  0  0  0
  -22.1484   -8.0639   24.4804 O   0  0  0  0  0  0  0  0  0  0  0  0
  -28.1737  -26.1962   20.9855 O   0  0  0  0  0  0  0  0  0  1  0  0
  -21.0807   -2.9450   22.7307 F   0  0  0  0  0  0  0  0  0  0  0  0
  -23.1760   -5.8677   25.8085 F   0  0  0  0  0  0  0  0  0  0  0  0
  -25.1385  -22.4705   21.1349 F   0  0  0  0  0  0  0  0  0  0  0  0
  -22.6524  -19.5610   22.7909 F   0  0  0  0  0  0  0  0  0  0  0  0
  -23.1894  -21.6345   23.1317 F   0  0  0  0  0  0  0  0  0  0  0  0
  -22.6597  -20.9662   21.1314 F   0  0  0  0  0  0  0  0  0  0  0  0
  1  2  1  0  0  0  0
  1  5  2  0  0  0  0
  2  6  2  0  0  0  0
  3  8  2  0  0  0  0
  3 17  1  0  0  0  0
  4  9  1  0  0  0  0
  4 17  2  0  0  0  0
  5 19  1  0  0  0  0
  6 21  1  0  0  0  0
  7 10  2  0  0  0  0
  7 20  1  0  0  0  0
  8 26  1  0  0  0  0
  9 26  2  0  0  0  0
 10 27  1  0  0  0  0
 11 12  2  0  0  0  0
 11 28  1  0  0  0  0
 12 29  1  0  0  0  0
 13 22  1  0  0  0  0
 13 27  2  0  0  0  0
 14 23  2  0  0  0  0
 14 25  1  0  0  0  0
 15 24  1  0  0  0  0
 15 25  2  0  0  0  0
 16 29  2  0  0  0  0
 16 30  1  0  0  0  0
 17 32  1  0  0  0  0
 18 32  1  0  0  0  0
 18 33  2  0  0  0  0
 18 35  1  0  0  0  0
 19 21  2  0  0  0  0
 19 40  1  0  0  0  0
 20 22  2  0  0  0  0
 20 41  1  0  0  0  0
 21 50  1  0  0  0  0
 22 42  1  0  0  0  0
 23 31  1  0  0  0  0
 23 64  1  0  0  0  0
 24 31  2  0  0  0  0
 24 68  1  0  0  0  0
 25 73  1  0  0  0  0
 26 83  1  0  0  0  0
 27 84  1  0  0  0  0
 28 30  2  0  0  0  0
 28 83  1  0  0  0  0
 29 85  1  0  0  0  0
 30 86  1  0  0  0  0
 31 87  1  0  0  0  0
 32 66  2  0  0  0  0
 33 67  1  0  0  0  0
 33 71  1  0  0  0  0
 34 51  1  0  0  0  0
 34 68  1  0  0  0  0
 34 77  2  0  0  0  0
 35 72  1  0  0  0  0
 35 78  2  0  0  0  0
 36 52  1  0  0  0  0
 36 74  1  0  0  0  0
 36 79  2  0  0  0  0
 37 62  1  0  0  0  0
 37 69  1  0  0  0  0
 37 80  2  0  0  0  0
 38 63  1  0  0  0  0
 38 75  1  0  0  0  0
 38 81  2  0  0  0  0
 39 70  1  0  0  0  0
 39 73  1  0  0  0  0
 39 82  2  0  0  0  0
 40 43  1  0  0  0  0
 41 52  1  0  0  0  0
 42 69  1  0  0  0  0
 43 45  1  0  0  0  0
 44 46  1  0  0  0  0
 44 47  1  0  0  0  0
 45 50  1  0  0  0  0
 46 54  1  0  0  0  0
 47 70  1  0  0  0  0
 48 53  1  0  0  0  0
 48 68  1  0  0  0  0
 49 54  1  0  0  0  0
 49 70  1  0  0  0  0
 50 74  1  0  0  0  0
 51 53  1  0  0  0  0
 51 55  1  0  0  0  0
 52 69  1  0  0  0  0
 53 61  1  0  0  0  0
 54 67  1  0  0  0  0
 56 63  1  0  0  0  0
 57 65  1  0  0  0  0
 58 65  1  0  0  0  0
 59 65  1  0  0  0  0
 60 76  1  0  0  0  0
 61 84  1  0  0  0  0
 62 65  1  0  0  0  0
 62 75  1  0  0  0  0
 63 76  1  0  0  0  0
 64 88  1  0  0  0  0
 64 89  1  0  0  0  0
 64 90  1  0  0  0  0
 66 67  1  0  0  0  0
M  CHG  1  76   1
M  ISO  4  39 100  61 101  73 100  84 101
M  END
> <Batch ID>
0068

> <Smiles>
CNC(C)C(=O)NC(C(=O)N1Cc2cc([101O:1][101CH2:1]C3CN(c4cc([100NH:0][100C:0](=O)N5CCCC(n6nc(-c7ccc(Oc8ccc(F)cc8F)cc7)c(C(N)=O)c6N)C5)cc(C(F)(F)F)c4F)C(=O)C3C)ccc2CC1C(=O)NC1CCCc2ccccc21)C(C)(C)C

> <Shape>
0.307

> <Color>
0.100

> <Negative vol penalty>
0.000

$$$$

  -OEChem-04042323273D

 87 95  0     1  0  0  0  0  0999 V2000
  -17.2582  -31.9415   22.4193 C   0  0  0  0  0  0  0  0  0  0  0  0
  -18.4897  -32.2546   21.8530 C   0  0  0  0  0  0  0  0  0  0  0  0
  -25.9428  -14.6495   21.7105 C   0  0  0  0  0  0  0  0  0  0  0  0
  -25.6269  -15.6665   19.5418 C   0  0  0  0  0  0  0  0  0  0  0  0
  -17.1602  -30.8985   23.3394 C   0  0  0  0  0  0  0  0  0  0  0  0
  -19.6243  -31.5254   22.2073 C   0  0  0  0  0  0  0  0  0  0  0  0
  -25.8098  -29.1505   19.4842 C   0  0  0  0  0  0  0  0  0  0  0  0
  -24.5751  -14.3869   21.7866 C   0  0  0  0  0  0  0  0  0  0  0  0
  -24.2591  -15.4038   19.6179 C   0  0  0  0  0  0  0  0  0  0  0  0
  -27.1777  -29.1552   19.7539 C   0  0  0  0  0  0  0  0  0  0  0  0
  -21.7473  -16.0947   22.5019 C   0  0  0  0  0  0  0  0  0  0  0  0
  -21.0990  -16.3812   23.7032 C   0  0  0  0  0  0  0  0  0  0  0  0
  -26.8742  -27.3235   21.2940 C   0  0  0  0  0  0  0  0  0  0  0  0
  -29.8871  -22.2006   17.2358 C   0  0  0  0  0  0  0  0  0  0  0  0
  -30.6634  -23.6736   18.9864 C   0  0  0  0  0  0  0  0  0  0  0  0
  -20.4637  -14.0598   23.9141 C   0  0  0  0  0  0  0  0  0  0  0  0
  -26.4688  -15.2894   20.5881 C   0  0  0  0  0  0  0  0  0  0  0  0
  -28.8793  -14.7263   19.9719 C   0  0  0  0  0  0  0  0  0  0  0  0
  -18.2924  -30.1500   23.6979 C   0  0  0  0  0  0  0  0  0  0  0  0
  -24.9608  -28.2380   20.1267 C   0  0  0  0  0  0  0  0  0  0  0  0
  -19.5416  -30.4723   23.1341 C   0  0  0  0  0  0  0  0  0  0  0  0
  -25.4964  -27.3076   21.0289 C   0  0  0  0  0  0  0  0  0  0  0  0
  -29.6013  -23.3050   16.4333 C   0  0  0  0  0  0  0  0  0  0  0  0
  -30.4181  -22.3849   18.5125 C   0  0  0  0  0  0  0  0  0  0  0  0
  -30.3777  -24.7780   18.1838 C   0  0  0  0  0  0  0  0  0  0  0  0
  -23.7332  -14.7640   20.7403 C   0  0  0  0  0  0  0  0  0  0  0  0
  -27.7097  -28.2436   20.6610 C   0  0  0  0  0  0  0  0  0  0  0  0
  -21.7538  -14.7907   22.0066 C   0  0  0  0  0  0  0  0  0  0  0  0
  -20.4572  -15.3638   24.4093 C   0  0  0  0  0  0  0  0  0  0  0  0
  -21.1120  -13.7733   22.7127 C   0  0  0  0  0  0  0  0  0  0  0  0
  -29.8466  -24.5937   16.9072 C   0  0  0  0  0  0  0  0  0  0  0  0
  -27.8815  -15.5615   20.5091 C   0  0  0  0  0  0  0  0  0  0  0  0
  -30.0444  -15.4354   20.1338 C   0  0  0  0  0  0  0  0  0  0  0  0
  -28.7634  -13.4258   19.3794 C   0  0  0  0  0  0  0  0  0  0  0  0
  -22.4815  -28.4871   22.1002 C   0  0  0  0  0  0  0  0  0  0  0  0
  -22.3234  -25.2743   21.6819 C   0  0  0  0  0  0  0  0  0  0  0  0
  -31.1495  -26.4461   19.9060 C   0  0  0  0  0  0  0  0  0  0  0  0
  -23.9318  -22.3756   20.8711 C   0  0  0  0  0  0  0  0  0  0  0  0
  -31.2382  -21.2703   20.6176 C   0  0  0  0  0  0  0  0  0  0  0  0
  -18.1458  -29.0624   24.7324 C   0  0  0  0  0  0  0  0  0  0  0  0
  -23.4916  -28.2282   19.8048 C   0  0  0  0  0  0  0  0  0  0  0  0
  -24.6307  -26.2939   21.7299 C   0  0  0  0  0  0  0  0  0  0  0  0
  -19.3270  -28.0961   24.7718 C   0  0  0  0  0  0  0  0  0  0  0  0
  -32.0624  -18.7261   22.9681 C   0  0  0  0  0  0  0  0  0  0  0  0
  -20.6452  -28.8636   24.7588 C   0  0  0  0  0  0  0  0  0  0  0  0
  -31.1790  -17.5478   22.5516 C   0  0  0  0  0  0  0  0  0  0  0  0
  -31.3465  -20.0634   22.7871 C   0  0  0  0  0  0  0  0  0  0  0  0
  -29.9014  -19.1126   21.0330 C   0  0  0  0  0  0  0  0  0  0  0  0
  -20.7906  -29.6885   23.4744 C   0  0  1  0  0  0  0  0  0  0  0  0
  -22.6436  -27.5938   20.9030 C   0  0  1  0  0  0  0  0  0  0  0  0
  -30.6026  -17.7483   21.1363 C   0  0  2  0  0  0  0  0  0  0  0  0
  -23.5497  -19.9048   20.6548 C   0  0  0  0  0  0  0  0  0  0  0  0
  -22.3818  -25.0017   24.7204 C   0  0  0  0  0  0  0  0  0  0  0  0
  -22.9533  -22.5824   24.4227 C   0  0  0  0  0  0  0  0  0  0  0  0
  -20.7829  -23.4641   23.5655 C   0  0  0  0  0  0  0  0  0  0  0  0
  -24.6142  -22.4048   17.9915 C   0  0  0  0  0  0  0  0  0  0  0  0
  -31.2552  -27.9627   20.0185 C   0  0  0  0  0  0  0  0  0  0  0  0
  -29.9145  -28.6673   19.8768 C   0  0  0  0  0  0  0  0  0  1  0  0
  -22.9267  -24.0753   22.3729 C   0  0  1  0  0  0  0  0  0  0  0  0
  -23.5554  -21.2433   19.9327 C   0  0  2  0  0  0  0  0  0  0  0  0
  -29.0343  -23.1039   15.0682 C   0  0  0  0  0  0  0  0  0  0  0  0
  -22.2774  -23.8011   23.7588 C   0  0  0  0  0  0  0  0  0  0  0  0
  -28.3700  -16.7130   20.9774 N   0  0  0  0  0  0  0  0  0  0  0  0
  -29.6876  -16.6064   20.7350 N   0  0  0  0  0  0  0  0  0  0  0  0
  -23.1995  -26.3284   21.3865 N   0  0  0  0  0  0  0  0  0  0  0  0
  -30.8309  -20.1848   21.4217 N   0  0  0  0  0  0  0  0  0  0  0  0
  -31.3291  -15.1652   19.8191 N   0  0  0  0  0  0  0  0  0  0  0  0
  -27.4921  -12.8424   19.2919 N   0  0  0  0  0  0  0  0  0  0  0  0
  -30.6272  -26.0846   18.6671 N   0  0  0  0  0  0  0  0  0  0  0  0
  -30.7086  -21.2628   19.3276 N   0  0  0  0  0  0  0  0  0  0  0  0
  -21.1719  -28.8375   22.3676 N   0  0  0  0  0  0  0  0  0  0  0  0
  -22.8189  -22.9652   21.4324 N   0  0  0  0  0  0  0  0  0  0  0  0
  -24.5236  -21.1635   18.8026 N   0  3  0  0  0  0  0  0  0  0  0  0
  -29.7599  -12.7927   18.9556 O   0  0  0  0  0  0  0  0  0  0  0  0
  -23.4713  -28.8317   22.7353 O   0  0  0  0  0  0  0  0  0  0  0  0
  -21.1207  -25.2726   21.4078 O   0  0  0  0  0  0  0  0  0  0  0  0
  -31.4925  -25.6985   20.8159 O   0  0  0  0  0  0  0  0  0  0  0  0
  -25.0968  -22.7018   21.0877 O   0  0  0  0  0  0  0  0  0  0  0  0
  -32.0221  -22.1275   21.0332 O   0  0  0  0  0  0  0  0  0  0  0  0
  -22.3985  -14.5077   20.8142 O   0  0  0  0  0  0  0  0  0  0  0  0
  -29.0444  -28.2464   20.9265 O   0  0  0  0  0  0  0  0  0  1  0  0
  -19.8360  -15.6388   25.5637 F   0  0  0  0  0  0  0  0  0  0  0  0
  -21.1158  -12.5184   22.2425 F   0  0  0  0  0  0  0  0  0  0  0  0
  -29.5705  -25.6544   16.1336 F   0  0  0  0  0  0  0  0  0  0  0  0
  -28.8491  -21.7909   14.7407 F   0  0  0  0  0  0  0  0  0  0  0  0
  -27.8138  -23.6907   14.8916 F   0  0  0  0  0  0  0  0  0  0  0  0
  -29.8329  -23.6168   14.0875 F   0  0  0  0  0  0  0  0  0  0  0  0
  1  2  1  0  0  0  0
  1  5  2  0  0  0  0
  2  6  2  0  0  0  0
  3  8  2  0  0  0  0
  3 17  1  0  0  0  0
  4  9  1  0  0  0  0
  4 17  2  0  0  0  0
  5 19  1  0  0  0  0
  6 21  1  0  0  0  0
  7 10  2  0  0  0  0
  7 20  1  0  0  0  0
  8 26  1  0  0  0  0
  9 26  2  0  0  0  0
 10 27  1  0  0  0  0
 11 12  2  0  0  0  0
 11 28  1  0  0  0  0
 12 29  1  0  0  0  0
 13 22  1  0  0  0  0
 13 27  2  0  0  0  0
 14 23  2  0  0  0  0
 14 24  1  0  0  0  0
 15 24  2  0  0  0  0
 15 25  1  0  0  0  0
 16 29  2  0  0  0  0
 16 30  1  0  0  0  0
 17 32  1  0  0  0  0
 18 32  1  0  0  0  0
 18 33  2  0  0  0  0
 18 34  1  0  0  0  0
 19 21  2  0  0  0  0
 19 40  1  0  0  0  0
 20 22  2  0  0  0  0
 20 41  1  0  0  0  0
 21 49  1  0  0  0  0
 22 42  1  0  0  0  0
 23 31  1  0  0  0  0
 23 61  1  0  0  0  0
 24 70  1  0  0  0  0
 25 31  2  0  0  0  0
 25 69  1  0  0  0  0
 26 80  1  0  0  0  0
 27 81  1  0  0  0  0
 28 30  2  0  0  0  0
 28 80  1  0  0  0  0
 29 82  1  0  0  0  0
 30 83  1  0  0  0  0
 31 84  1  0  0  0  0
 32 63  2  0  0  0  0
 33 64  1  0  0  0  0
 33 67  1  0  0  0  0
 34 68  1  0  0  0  0
 34 74  2  0  0  0  0
 35 50  1  0  0  0  0
 35 71  1  0  0  0  0
 35 75  2  0  0  0  0
 36 59  1  0  0  0  0
 36 65  1  0  0  0  0
 36 76  2  0  0  0  0
 37 57  1  0  0  0  0
 37 69  1  0  0  0  0
 37 77  2  0  0  0  0
 38 60  1  0  0  0  0
 38 72  1  0  0  0  0
 38 78  2  0  0  0  0
 39 66  1  0  0  0  0
 39 70  1  0  0  0  0
 39 79  2  0  0  0  0
 40 43  1  0  0  0  0
 41 50  1  0  0  0  0
 42 65  1  0  0  0  0
 43 45  1  0  0  0  0
 44 46  1  0  0  0  0
 44 47  1  0  0  0  0
 45 49  1  0  0  0  0
 46 51  1  0  0  0  0
 47 66  1  0  0  0  0
 48 51  1  0  0  0  0
 48 66  1  0  0  0  0
 49 71  1  0  0  0  0
 50 65  1  0  0  0  0
 51 64  1  0  0  0  0
 52 60  1  0  0  0  0
 53 62  1  0  0  0  0
 54 62  1  0  0  0  0
 55 62  1  0  0  0  0
 56 73  1  0  0  0  0
 57 58  1  0  0  0  0
 58 81  1  0  0  0  0
 59 62  1  0  0  0  0
 59 72  1  0  0  0  0
 60 73  1  0  0  0  0
 61 85  1  0  0  0  0
 61 86  1  0  0  0  0
 61 87  1  0  0  0  0
 63 64  1  0  0  0  0
M  CHG  1  73   1
M  ISO  4  39 100  58 101  70 100  81 101
M  END
> <Batch ID>
0068

> <Smiles>
CNC(C)C(=O)NC(C(=O)N1Cc2cc([101O:1][101CH2:1]CC(=O)Nc3cc([100NH:0][100C:0](=O)N4CCCC(n5nc(-c6ccc(Oc7ccc(F)cc7F)cc6)c(C(N)=O)c5N)C4)cc(C(F)(F)F)c3F)ccc2CC1C(=O)NC1CCCc2ccccc21)C(C)(C)C

> <Shape>
0.237

> <Color>
0.079

> <Negative vol penalty>
0.000

$$$$

  -OEChem-04042323273D

 88 96  0     1  0  0  0  0  0999 V2000
  -23.8134   -8.0836   21.9010 C   0  0  0  0  0  0  0  0  0  0  0  0
  -24.4960   -9.0943   21.2317 C   0  0  0  0  0  0  0  0  0  0  0  0
  -22.0562  -28.1518   21.3501 C   0  0  0  0  0  0  0  0  0  0  0  0
  -22.9852  -27.0918   23.3125 C   0  0  0  0  0  0  0  0  0  0  0  0
  -22.4814   -8.2689   22.2690 C   0  0  0  0  0  0  0  0  0  0  0  0
  -23.8466  -10.2905   20.9290 C   0  0  0  0  0  0  0  0  0  0  0  0
  -26.6838  -14.3563   21.9607 C   0  0  0  0  0  0  0  0  0  0  0  0
  -20.7751  -28.0212   21.8860 C   0  0  0  0  0  0  0  0  0  0  0  0
  -21.7040  -26.9613   23.8484 C   0  0  0  0  0  0  0  0  0  0  0  0
  -27.6884  -14.6795   21.0496 C   0  0  0  0  0  0  0  0  0  0  0  0
  -18.8669  -29.5953   24.1912 C   0  0  0  0  0  0  0  0  0  0  0  0
  -18.0173  -30.6990   24.1162 C   0  0  0  0  0  0  0  0  0  0  0  0
  -29.3213  -22.0150   22.8198 C   0  0  0  0  0  0  0  0  0  0  0  0
  -26.2651  -16.3749   20.0908 C   0  0  0  0  0  0  0  0  0  0  0  0
  -29.6012  -20.8143   20.7420 C   0  0  0  0  0  0  0  0  0  0  0  0
  -16.4432  -29.3993   22.8238 C   0  0  0  0  0  0  0  0  0  0  0  0
  -23.1613  -27.6871   22.0633 C   0  0  0  0  0  0  0  0  0  0  0  0
  -29.7030  -20.8763   23.5293 C   0  0  0  0  0  0  0  0  0  0  0  0
  -25.3700  -28.9033   21.6758 C   0  0  0  0  0  0  0  0  0  0  0  0
  -21.8182   -9.4717   21.9792 C   0  0  0  0  0  0  0  0  0  0  0  0
  -25.4562  -15.0337   21.9365 C   0  0  0  0  0  0  0  0  0  0  0  0
  -22.5040  -10.4916   21.2922 C   0  0  0  0  0  0  0  0  0  0  0  0
  -25.2475  -16.0602   21.0043 C   0  0  0  0  0  0  0  0  0  0  0  0
  -29.2703  -21.9840   21.4262 C   0  0  0  0  0  0  0  0  0  0  0  0
  -29.9829  -19.6756   21.4515 C   0  0  0  0  0  0  0  0  0  0  0  0
  -20.5990  -27.4260   23.1352 C   0  0  0  0  0  0  0  0  0  0  0  0
  -27.4781  -15.6869   20.1126 C   0  0  0  0  0  0  0  0  0  0  0  0
  -18.5047  -28.3936   23.5825 C   0  0  0  0  0  0  0  0  0  0  0  0
  -16.8054  -30.6010   23.4325 C   0  0  0  0  0  0  0  0  0  0  0  0
  -17.2929  -28.2956   22.8988 C   0  0  0  0  0  0  0  0  0  0  0  0
  -30.0339  -19.7066   22.8451 C   0  0  0  0  0  0  0  0  0  0  0  0
  -24.4849  -27.8211   21.5100 C   0  0  0  0  0  0  0  0  0  0  0  0
  -26.4852  -28.5479   20.9570 C   0  0  0  0  0  0  0  0  0  0  0  0
  -29.7550  -20.9126   24.9824 C   0  0  0  0  0  0  0  0  0  0  0  0
  -25.1994  -30.1207   22.4136 C   0  0  0  0  0  0  0  0  0  0  0  0
  -22.4342  -14.1830   21.4395 C   0  0  0  0  0  0  0  0  0  0  0  0
  -21.8404  -17.2657   22.2559 C   0  0  0  0  0  0  0  0  0  0  0  0
  -22.9864  -20.4712   22.4967 C   0  0  0  0  0  0  0  0  0  0  0  0
  -30.3215  -18.2819   19.3779 C   0  0  0  0  0  0  0  0  0  0  0  0
  -28.7800  -23.2788   19.3216 C   0  0  0  0  0  0  0  0  0  0  0  0
  -20.3639   -9.6077   22.3550 C   0  0  0  0  0  0  0  0  0  0  0  0
  -24.3926  -14.6914   22.9435 C   0  0  0  0  0  0  0  0  0  0  0  0
  -23.9550  -16.8314   20.9500 C   0  0  0  0  0  0  0  0  0  0  0  0
  -19.8602  -11.0484   22.3289 C   0  0  0  0  0  0  0  0  0  0  0  0
  -27.8250  -25.9467   17.1659 C   0  0  0  0  0  0  0  0  0  0  0  0
  -20.3115  -11.7487   21.0511 C   0  0  0  0  0  0  0  0  0  0  0  0
  -26.9456  -26.8318   18.0521 C   0  0  0  0  0  0  0  0  0  0  0  0
  -27.6233  -24.4629   17.4683 C   0  0  0  0  0  0  0  0  0  0  0  0
  -26.8989  -24.9755   19.7664 C   0  0  0  0  0  0  0  0  0  0  0  0
  -21.8414  -11.8129   20.9681 C   0  0  1  0  0  0  0  0  0  0  0  0
  -22.9920  -15.0962   22.4942 C   0  0  1  0  0  0  0  0  0  0  0  0
  -27.1149  -26.4813   19.5434 C   0  0  2  0  0  0  0  0  0  0  0  0
  -30.0752  -22.2273   25.6321 C   0  0  0  0  0  0  0  0  0  0  0  0
  -22.2587  -22.7785   23.1632 C   0  0  0  0  0  0  0  0  0  0  0  0
  -32.1754  -16.5762   19.4841 C   0  0  0  0  0  0  0  0  0  0  0  0
  -30.6912  -16.6784   17.4486 C   0  0  0  0  0  0  0  0  0  0  0  0
  -20.2827  -17.5259   19.6452 C   0  0  0  0  0  0  0  0  0  0  0  0
  -20.4028  -20.0134   19.9026 C   0  0  0  0  0  0  0  0  0  0  0  0
  -19.2145  -18.6403   21.6129 C   0  0  0  0  0  0  0  0  0  0  0  0
  -25.0299  -20.6246   24.6320 C   0  0  0  0  0  0  0  0  0  0  0  0
  -29.8063  -15.8113   19.6436 C   0  0  0  0  0  0  0  0  0  1  0  0
  -21.7394  -18.5705   21.5034 C   0  0  1  0  0  0  0  0  0  0  0  0
  -22.9128  -21.4853   23.6240 C   0  0  2  0  0  0  0  0  0  0  0  0
  -30.7470  -16.8437   18.9776 C   0  0  0  0  0  0  0  0  0  0  0  0
  -20.4336  -18.6719   20.6655 C   0  0  0  0  0  0  0  0  0  0  0  0
  -24.9939  -26.8511   20.7458 N   0  0  0  0  0  0  0  0  0  0  0  0
  -26.2108  -27.3225   20.4248 N   0  0  0  0  0  0  0  0  0  0  0  0
  -22.9433  -16.4554   21.9514 N   0  0  0  0  0  0  0  0  0  0  0  0
  -27.8034  -24.2052   18.8986 N   0  0  0  0  0  0  0  0  0  0  0  0
  -27.6638  -29.1674   20.7345 N   0  0  0  0  0  0  0  0  0  0  0  0
  -23.9918  -30.3254   23.0949 N   0  0  0  0  0  0  0  0  0  0  0  0
  -30.3179  -18.4891   20.7543 N   0  0  0  0  0  0  0  0  0  0  0  0
  -28.8826  -23.1406   20.7054 N   0  0  0  0  0  0  0  0  0  0  0  0
  -22.3507  -12.8595   21.8280 N   0  0  0  0  0  0  0  0  0  0  0  0
  -21.8957  -19.6277   22.4966 N   0  0  0  0  0  0  0  0  0  0  0  0
  -24.2799  -21.8027   24.1253 N   0  3  0  0  0  0  0  0  0  0  0  0
  -29.5606  -19.9445   25.7204 O   0  0  0  0  0  0  0  0  0  0  0  0
  -26.0850  -31.0082   22.4537 O   0  0  0  0  0  0  0  0  0  0  0  0
  -22.1025  -14.6451   20.3540 O   0  0  0  0  0  0  0  0  0  0  0  0
  -20.9765  -16.9794   23.0886 O   0  0  0  0  0  0  0  0  0  0  0  0
  -23.9164  -20.4338   21.6941 O   0  0  0  0  0  0  0  0  0  0  0  0
  -30.0184  -19.1140   18.5248 O   0  0  0  0  0  0  0  0  0  0  0  0
  -29.4927  -22.6741   18.5164 O   0  0  0  0  0  0  0  0  0  0  0  0
  -19.3490  -27.2986   23.6585 O   0  0  0  0  0  0  0  0  0  0  0  0
  -28.4568  -16.0039   19.2217 O   0  0  0  0  0  0  0  0  0  1  0  0
  -15.9889  -31.6604   23.3619 F   0  0  0  0  0  0  0  0  0  0  0  0
  -16.9390  -27.1435   22.3131 F   0  0  0  0  0  0  0  0  0  0  0  0
  -30.4010  -18.6113   23.5278 F   0  0  0  0  0  0  0  0  0  0  0  0
  1  2  1  0  0  0  0
  1  5  2  0  0  0  0
  2  6  2  0  0  0  0
  3  8  2  0  0  0  0
  3 17  1  0  0  0  0
  4  9  1  0  0  0  0
  4 17  2  0  0  0  0
  5 20  1  0  0  0  0
  6 22  1  0  0  0  0
  7 10  2  0  0  0  0
  7 21  1  0  0  0  0
  8 26  1  0  0  0  0
  9 26  2  0  0  0  0
 10 27  1  0  0  0  0
 11 12  2  0  0  0  0
 11 28  1  0  0  0  0
 12 29  1  0  0  0  0
 13 18  2  0  0  0  0
 13 24  1  0  0  0  0
 14 23  1  0  0  0  0
 14 27  2  0  0  0  0
 15 24  2  0  0  0  0
 15 25  1  0  0  0  0
 16 29  2  0  0  0  0
 16 30  1  0  0  0  0
 17 32  1  0  0  0  0
 18 31  1  0  0  0  0
 18 34  1  0  0  0  0
 19 32  1  0  0  0  0
 19 33  2  0  0  0  0
 19 35  1  0  0  0  0
 20 22  2  0  0  0  0
 20 41  1  0  0  0  0
 21 23  2  0  0  0  0
 21 42  1  0  0  0  0
 22 50  1  0  0  0  0
 23 43  1  0  0  0  0
 24 73  1  0  0  0  0
 25 31  2  0  0  0  0
 25 72  1  0  0  0  0
 26 84  1  0  0  0  0
 27 85  1  0  0  0  0
 28 30  2  0  0  0  0
 28 84  1  0  0  0  0
 29 86  1  0  0  0  0
 30 87  1  0  0  0  0
 31 88  1  0  0  0  0
 32 66  2  0  0  0  0
 33 67  1  0  0  0  0
 33 70  1  0  0  0  0
 34 53  1  0  0  0  0
 34 77  2  0  0  0  0
 35 71  1  0  0  0  0
 35 78  2  0  0  0  0
 36 51  1  0  0  0  0
 36 74  1  0  0  0  0
 36 79  2  0  0  0  0
 37 62  1  0  0  0  0
 37 68  1  0  0  0  0
 37 80  2  0  0  0  0
 38 63  1  0  0  0  0
 38 75  1  0  0  0  0
 38 81  2  0  0  0  0
 39 64  1  0  0  0  0
 39 72  1  0  0  0  0
 39 82  2  0  0  0  0
 40 69  1  0  0  0  0
 40 73  1  0  0  0  0
 40 83  2  0  0  0  0
 41 44  1  0  0  0  0
 42 51  1  0  0  0  0
 43 68  1  0  0  0  0
 44 46  1  0  0  0  0
 45 47  1  0  0  0  0
 45 48  1  0  0  0  0
 46 50  1  0  0  0  0
 47 52  1  0  0  0  0
 48 69  1  0  0  0  0
 49 52  1  0  0  0  0
 49 69  1  0  0  0  0
 50 74  1  0  0  0  0
 51 68  1  0  0  0  0
 52 67  1  0  0  0  0
 54 63  1  0  0  0  0
 55 64  1  0  0  0  0
 56 64  1  0  0  0  0
 57 65  1  0  0  0  0
 58 65  1  0  0  0  0
 59 65  1  0  0  0  0
 60 76  1  0  0  0  0
 61 64  1  0  0  0  0
 61 85  1  0  0  0  0
 62 65  1  0  0  0  0
 62 75  1  0  0  0  0
 63 76  1  0  0  0  0
 66 67  1  0  0  0  0
M  CHG  1  76   1
M  ISO  4  40 100  61 101  73 100  85 101
M  END
> <Batch ID>
0068

> <Smiles>
CNC(C)C(=O)NC(C(=O)N1Cc2cc([101O:1][101CH2:1]C(C)(C)C(=O)Nc3cc([100NH:0][100C:0](=O)N4CCCC(n5nc(-c6ccc(Oc7ccc(F)cc7F)cc6)c(C(N)=O)c5N)C4)cc(C(C)=O)c3F)ccc2CC1C(=O)NC1CCCc2ccccc21)C(C)(C)C

> <Shape>
0.244

> <Color>
0.083

> <Negative vol penalty>
0.000

$$$$

  -OEChem-04042323273D

 86 95  0     1  0  0  0  0  0999 V2000
  -21.4553  -13.1107   20.1798 C   0  0  0  0  0  0  0  0  0  0  0  0
  -21.4644  -14.4974   20.2904 C   0  0  0  0  0  0  0  0  0  0  0  0
  -30.2441  -28.1880   21.0728 C   0  0  0  0  0  0  0  0  0  0  0  0
  -29.0026  -26.3532   22.0367 C   0  0  0  0  0  0  0  0  0  0  0  0
  -22.5906  -12.3777   20.5230 C   0  0  0  0  0  0  0  0  0  0  0  0
  -22.6085  -15.1520   20.7454 C   0  0  0  0  0  0  0  0  0  0  0  0
  -23.7498  -19.2281   17.9656 C   0  0  0  0  0  0  0  0  0  0  0  0
  -18.2514  -27.9090   23.6674 C   0  0  0  0  0  0  0  0  0  0  0  0
  -19.3411  -28.6351   23.1867 C   0  0  0  0  0  0  0  0  0  0  0  0
  -31.4003  -27.7419   21.7128 C   0  0  0  0  0  0  0  0  0  0  0  0
  -30.1589  -25.9070   22.6767 C   0  0  0  0  0  0  0  0  0  0  0  0
  -23.0056  -20.3844   18.1956 C   0  0  0  0  0  0  0  0  0  0  0  0
  -33.7302  -25.3347   21.2542 C   0  0  0  0  0  0  0  0  0  0  0  0
  -34.9087  -25.2938   20.5093 C   0  0  0  0  0  0  0  0  0  0  0  0
  -24.7994  -21.2625   19.5485 C   0  0  0  0  0  0  0  0  0  0  0  0
  -18.9728  -25.9851   22.3964 C   0  0  0  0  0  0  0  0  0  0  0  0
  -35.9399  -26.8370   22.0560 C   0  0  0  0  0  0  0  0  0  0  0  0
  -21.2189  -26.5156   19.7663 C   0  0  0  0  0  0  0  0  0  0  0  0
  -29.0451  -27.4937   21.2348 C   0  0  0  0  0  0  0  0  0  0  0  0
  -27.3928  -27.5908   19.2937 C   0  0  0  0  0  0  0  0  0  0  0  0
  -23.7524  -13.0243   20.9732 C   0  0  0  0  0  0  0  0  0  0  0  0
  -25.0221  -19.0755   18.5352 C   0  0  0  0  0  0  0  0  0  0  0  0
  -23.7600  -14.4268   21.0962 C   0  0  0  0  0  0  0  0  0  0  0  0
  -25.5588  -20.1045   19.3221 C   0  0  0  0  0  0  0  0  0  0  0  0
  -18.0673  -26.5840   23.2723 C   0  0  0  0  0  0  0  0  0  0  0  0
  -22.4438  -24.6750   20.1927 C   0  0  0  0  0  0  0  0  0  0  0  0
  -20.0624  -26.7112   21.9157 C   0  0  0  0  0  0  0  0  0  0  0  0
  -20.2466  -28.0362   22.3109 C   0  0  0  0  0  0  0  0  0  0  0  0
  -31.3578  -26.6014   22.5147 C   0  0  0  0  0  0  0  0  0  0  0  0
  -23.5292  -21.4006   18.9896 C   0  0  0  0  0  0  0  0  0  0  0  0
  -33.6564  -26.1267   22.4001 C   0  0  0  0  0  0  0  0  0  0  0  0
  -22.1423  -25.6550   19.2150 C   0  0  0  0  0  0  0  0  0  0  0  0
  -36.0135  -26.0449   20.9102 C   0  0  0  0  0  0  0  0  0  0  0  0
  -34.7613  -26.8778   22.8010 C   0  0  0  0  0  0  0  0  0  0  0  0
  -27.8502  -27.9544   20.5745 C   0  0  0  0  0  0  0  0  0  0  0  0
  -26.2249  -28.2957   19.1334 C   0  0  0  0  0  0  0  0  0  0  0  0
  -21.6952  -24.9665   21.3117 C   0  0  0  0  0  0  0  0  0  0  0  0
  -27.9717  -26.6959   18.3348 C   0  0  0  0  0  0  0  0  0  0  0  0
  -26.3284  -17.0351   20.5929 C   0  0  0  0  0  0  0  0  0  0  0  0
  -29.0505  -18.6367   19.8532 C   0  0  0  0  0  0  0  0  0  0  0  0
  -30.5047  -21.5028   18.7055 C   0  0  0  0  0  0  0  0  0  0  0  0
  -21.6498  -30.1221   22.1489 C   0  0  0  0  0  0  0  0  0  0  0  0
  -24.9393  -12.1861   21.3775 C   0  0  0  0  0  0  0  0  0  0  0  0
  -25.8232  -17.8335   18.2555 C   0  0  0  0  0  0  0  0  0  0  0  0
  -26.9282  -19.9982   19.9400 C   0  0  0  0  0  0  0  0  0  0  0  0
  -26.2361  -12.9830   21.4948 C   0  0  0  0  0  0  0  0  0  0  0  0
  -24.2789  -32.3372   21.2222 C   0  0  0  0  0  0  0  0  0  0  0  0
  -26.0020  -14.2713   22.2773 C   0  0  0  0  0  0  0  0  0  0  0  0
  -25.4241  -31.3987   20.8350 C   0  0  0  0  0  0  0  0  0  0  0  0
  -23.4726  -31.7923   22.3998 C   0  0  0  0  0  0  0  0  0  0  0  0
  -24.1222  -29.4819   21.8439 C   0  0  0  0  0  0  0  0  0  0  0  0
  -24.9902  -15.1749   21.5623 C   0  0  1  0  0  0  0  0  0  0  0  0
  -26.8959  -17.5651   19.3065 C   0  0  1  0  0  0  0  0  0  0  0  0
  -24.9232  -29.9569   20.6207 C   0  0  2  0  0  0  0  0  0  0  0  0
  -16.9021  -25.8085   23.7872 C   0  0  0  0  0  0  0  0  0  0  0  0
  -32.7500  -22.5263   18.2487 C   0  0  0  0  0  0  0  0  0  0  0  0
  -29.4551  -19.0783   22.8450 C   0  0  0  0  0  0  0  0  0  0  0  0
  -31.1229  -20.8598   22.2857 C   0  0  0  0  0  0  0  0  0  0  0  0
  -31.5369  -18.5019   21.5847 C   0  0  0  0  0  0  0  0  0  0  0  0
  -29.9019  -21.8236   15.8258 C   0  0  0  0  0  0  0  0  0  0  0  0
  -23.4023  -23.5308   20.0394 C   0  0  0  0  0  0  0  0  0  1  0  0
  -29.7577  -19.8528   20.4007 C   0  0  1  0  0  0  0  0  0  0  0  0
  -31.5872  -21.7373   17.6673 C   0  0  2  0  0  0  0  0  0  0  0  0
  -30.4415  -19.5747   21.7691 C   0  0  0  0  0  0  0  0  0  0  0  0
  -27.0392  -28.8229   21.1844 N   0  0  0  0  0  0  0  0  0  0  0  0
  -20.9543  -26.0872   21.0409 N   0  0  0  0  0  0  0  0  0  0  0  0
  -26.0604  -29.0110   20.2829 N   0  0  0  0  0  0  0  0  0  0  0  0
  -27.6700  -18.7618   19.6424 N   0  0  0  0  0  0  0  0  0  0  0  0
  -23.0277  -30.4246   22.1236 N   0  0  0  0  0  0  0  0  0  0  0  0
  -25.3329  -28.3673   18.1226 N   0  0  0  0  0  0  0  0  0  0  0  0
  -29.1744  -26.0543   18.6606 N   0  0  0  0  0  0  0  0  0  0  0  0
  -21.3445  -28.7973   21.8387 N   0  0  0  0  0  0  0  0  0  0  0  0
  -25.6187  -15.8578   20.4519 N   0  0  0  0  0  0  0  0  0  0  0  0
  -30.6725  -20.2983   19.3552 N   0  0  0  0  0  0  0  0  0  0  0  0
  -31.0375  -22.4957   16.5081 N   0  3  0  0  0  0  0  0  0  0  0  0
  -27.4468  -26.4845   17.2153 O   0  0  0  0  0  0  0  0  0  0  0  0
  -26.5214  -17.6480   21.6363 O   0  0  0  0  0  0  0  0  0  0  0  0
  -29.7003  -17.6157   19.6143 O   0  0  0  0  0  0  0  0  0  0  0  0
  -29.6028  -22.3094   18.9213 O   0  0  0  0  0  0  0  0  0  0  0  0
  -20.8011  -30.9820   22.3986 O   0  0  0  0  0  0  0  0  0  0  0  0
  -22.6375  -25.7667   17.9742 O   0  0  0  0  0  0  0  0  0  0  0  0
  -21.6212  -24.3533   22.4874 O   0  0  0  0  0  0  0  0  0  0  0  0
  -32.4859  -26.1656   23.1391 O   0  0  0  0  0  0  0  0  0  0  0  0
  -22.8046  -22.5300   19.2163 O   0  0  0  0  0  0  0  0  0  1  0  0
  -37.1457  -26.0044   20.1955 F   0  0  0  0  0  0  0  0  0  0  0  0
  -34.6969  -27.6397   23.9016 F   0  0  0  0  0  0  0  0  0  0  0  0
  1  2  1  0  0  0  0
  1  5  2  0  0  0  0
  2  6  2  0  0  0  0
  3 10  2  0  0  0  0
  3 19  1  0  0  0  0
  4 11  1  0  0  0  0
  4 19  2  0  0  0  0
  5 21  1  0  0  0  0
  6 23  1  0  0  0  0
  7 12  2  0  0  0  0
  7 22  1  0  0  0  0
  8  9  2  0  0  0  0
  8 25  1  0  0  0  0
  9 28  1  0  0  0  0
 10 29  1  0  0  0  0
 11 29  2  0  0  0  0
 12 30  1  0  0  0  0
 13 14  2  0  0  0  0
 13 31  1  0  0  0  0
 14 33  1  0  0  0  0
 15 24  1  0  0  0  0
 15 30  2  0  0  0  0
 16 25  2  0  0  0  0
 16 27  1  0  0  0  0
 17 33  2  0  0  0  0
 17 34  1  0  0  0  0
 18 32  2  0  0  0  0
 18 66  1  0  0  0  0
 19 35  1  0  0  0  0
 20 35  1  0  0  0  0
 20 36  2  0  0  0  0
 20 38  1  0  0  0  0
 21 23  2  0  0  0  0
 21 43  1  0  0  0  0
 22 24  2  0  0  0  0
 22 44  1  0  0  0  0
 23 52  1  0  0  0  0
 24 45  1  0  0  0  0
 25 55  1  0  0  0  0
 26 32  1  0  0  0  0
 26 37  2  0  0  0  0
 26 61  1  0  0  0  0
 27 28  2  0  0  0  0
 27 66  1  0  0  0  0
 28 72  1  0  0  0  0
 29 83  1  0  0  0  0
 30 84  1  0  0  0  0
 31 34  2  0  0  0  0
 31 83  1  0  0  0  0
 32 81  1  0  0  0  0
 33 85  1  0  0  0  0
 34 86  1  0  0  0  0
 35 65  2  0  0  0  0
 36 67  1  0  0  0  0
 36 70  1  0  0  0  0
 37 66  1  0  0  0  0
 37 82  1  0  0  0  0
 38 71  1  0  0  0  0
 38 76  2  0  0  0  0
 39 53  1  0  0  0  0
 39 73  1  0  0  0  0
 39 77  2  0  0  0  0
 40 62  1  0  0  0  0
 40 68  1  0  0  0  0
 40 78  2  0  0  0  0
 41 63  1  0  0  0  0
 41 74  1  0  0  0  0
 41 79  2  0  0  0  0
 42 69  1  0  0  0  0
 42 72  1  0  0  0  0
 42 80  2  0  0  0  0
 43 46  1  0  0  0  0
 44 53  1  0  0  0  0
 45 68  1  0  0  0  0
 46 48  1  0  0  0  0
 47 49  1  0  0  0  0
 47 50  1  0  0  0  0
 48 52  1  0  0  0  0
 49 54  1  0  0  0  0
 50 69  1  0  0  0  0
 51 54  1  0  0  0  0
 51 69  1  0  0  0  0
 52 73  1  0  0  0  0
 53 68  1  0  0  0  0
 54 67  1  0  0  0  0
 56 63  1  0  0  0  0
 57 64  1  0  0  0  0
 58 64  1  0  0  0  0
 59 64  1  0  0  0  0
 60 75  1  0  0  0  0
 61 84  1  0  0  0  0
 62 64  1  0  0  0  0
 62 74  1  0  0  0  0
 63 75  1  0  0  0  0
 65 67  1  0  0  0  0
M  CHG  1  75   1
M  ISO  4  42 100  61 101  72 100  84 101
M  END
> <Batch ID>
0068

> <Smiles>
CNC(C)C(=O)NC(C(=O)N1Cc2cc([101O:1][101CH2:1]C3C(=O)CN(c4cc(C)ccc4[100NH:0][100C:0](=O)N4CCCC(n5nc(-c6ccc(Oc7ccc(F)cc7F)cc6)c(C(N)=O)c5N)C4)C3=O)ccc2CC1C(=O)NC1CCCc2ccccc21)C(C)(C)C

> <Shape>
0.228

> <Color>
0.072

> <Negative vol penalty>
0.000

$$$$

  -OEChem-04042323273D

 84 92  0     1  0  0  0  0  0999 V2000
  -18.1306  -10.0666   24.5997 C   0  0  0  0  0  0  0  0  0  0  0  0
  -19.5000  -10.1545   24.8288 C   0  0  0  0  0  0  0  0  0  0  0  0
  -32.6121  -15.2201   24.8016 C   0  0  0  0  0  0  0  0  0  0  0  0
  -23.1900   -9.8196   19.9313 C   0  0  0  0  0  0  0  0  0  0  0  0
  -23.5688   -9.9995   22.3107 C   0  0  0  0  0  0  0  0  0  0  0  0
  -17.3043  -11.1495   24.8972 C   0  0  0  0  0  0  0  0  0  0  0  0
  -20.0440  -11.3259   25.3544 C   0  0  0  0  0  0  0  0  0  0  0  0
  -24.7893  -11.7789   29.1992 C   0  0  0  0  0  0  0  0  0  0  0  0
  -32.0507  -15.1122   26.0740 C   0  0  0  0  0  0  0  0  0  0  0  0
  -32.1174  -14.4447   23.7530 C   0  0  0  0  0  0  0  0  0  0  0  0
  -22.4240   -8.6728   20.1400 C   0  0  0  0  0  0  0  0  0  0  0  0
  -22.8028   -8.8527   22.5193 C   0  0  0  0  0  0  0  0  0  0  0  0
  -26.1390  -12.0618   28.9942 C   0  0  0  0  0  0  0  0  0  0  0  0
  -21.2461   -5.7684   23.6479 C   0  0  0  0  0  0  0  0  0  0  0  0
  -21.7428   -4.8084   24.5295 C   0  0  0  0  0  0  0  0  0  0  0  0
  -25.7265  -14.3800   29.5186 C   0  0  0  0  0  0  0  0  0  0  0  0
  -23.7012   -4.5451   23.1394 C   0  0  0  0  0  0  0  0  0  0  0  0
  -23.7625  -10.4830   21.0167 C   0  0  0  0  0  0  0  0  0  0  0  0
  -24.1007  -12.9997   20.7734 C   0  0  0  0  0  0  0  0  0  0  0  0
  -17.8372  -12.3313   25.4358 C   0  0  0  0  0  0  0  0  0  0  0  0
  -23.8946  -12.7982   29.5555 C   0  0  0  0  0  0  0  0  0  0  0  0
  -19.2243  -12.4261   25.6581 C   0  0  0  0  0  0  0  0  0  0  0  0
  -24.3665  -14.1070   29.7301 C   0  0  0  0  0  0  0  0  0  0  0  0
  -30.5000  -13.4533   25.2490 C   0  0  0  0  0  0  0  0  0  0  0  0
  -30.9947  -14.2288   26.2977 C   0  0  0  0  0  0  0  0  0  0  0  0
  -31.0613  -13.5613   23.9767 C   0  0  0  0  0  0  0  0  0  0  0  0
  -22.2303   -8.1893   21.4340 C   0  0  0  0  0  0  0  0  0  0  0  0
  -26.6073  -13.3631   29.1510 C   0  0  0  0  0  0  0  0  0  0  0  0
  -21.9769   -6.1166   22.5119 C   0  0  0  0  0  0  0  0  0  0  0  0
  -22.9704   -4.1968   24.2753 C   0  0  0  0  0  0  0  0  0  0  0  0
  -23.2044   -5.5050   22.2577 C   0  0  0  0  0  0  0  0  0  0  0  0
  -24.5544  -11.6674   20.8017 C   0  0  0  0  0  0  0  0  0  0  0  0
  -25.2317  -13.7426   20.5380 C   0  0  0  0  0  0  0  0  0  0  0  0
  -22.7754  -13.5194   20.9446 C   0  0  0  0  0  0  0  0  0  0  0  0
  -21.3067  -14.0775   28.2251 C   0  0  0  0  0  0  0  0  0  0  0  0
  -21.1394  -15.6940   31.0324 C   0  0  0  0  0  0  0  0  0  0  0  0
  -30.8224  -14.8391   28.7360 C   0  0  0  0  0  0  0  0  0  0  0  0
  -22.7618  -16.9020   33.7811 C   0  0  0  0  0  0  0  0  0  0  0  0
  -31.0366  -12.7828   21.5809 C   0  0  0  0  0  0  0  0  0  0  0  0
  -16.9107  -13.4923   25.6971 C   0  0  0  0  0  0  0  0  0  0  0  0
  -22.4467  -12.4716   29.7992 C   0  0  0  0  0  0  0  0  0  0  0  0
  -23.4506  -15.2333   30.1315 C   0  0  0  0  0  0  0  0  0  0  0  0
  -17.5158  -14.5628   26.6017 C   0  0  0  0  0  0  0  0  0  0  0  0
  -29.5233  -13.4649   18.4310 C   0  0  0  0  0  0  0  0  0  0  0  0
  -18.9352  -14.8989   26.1555 C   0  0  0  0  0  0  0  0  0  0  0  0
  -28.0353  -13.2085   18.6805 C   0  0  0  0  0  0  0  0  0  0  0  0
  -30.4048  -12.4798   19.1968 C   0  0  0  0  0  0  0  0  0  0  0  0
  -28.6454  -12.1377   20.8870 C   0  0  0  0  0  0  0  0  0  0  0  0
  -19.8487  -13.6709   26.2503 C   0  0  1  0  0  0  0  0  0  0  0  0
  -21.5291  -13.6822   29.6575 C   0  0  1  0  0  0  0  0  0  0  0  0
  -27.7192  -13.1462   20.1878 C   0  0  2  0  0  0  0  0  0  0  0  0
  -29.3667  -12.5042   25.4894 C   0  0  0  0  0  0  0  0  0  0  0  0
  -30.4514  -15.2120   31.1798 C   0  0  0  0  0  0  0  0  0  0  0  0
  -22.3669  -18.2147   35.8831 C   0  0  0  0  0  0  0  0  0  0  0  0
  -21.0168  -18.2682   29.3989 C   0  0  0  0  0  0  0  0  0  0  0  0
  -21.5792  -19.5356   31.4835 C   0  0  0  0  0  0  0  0  0  0  0  0
  -19.4721  -18.2056   31.3647 C   0  0  0  0  0  0  0  0  0  0  0  0
  -23.6119  -14.6409   35.4910 C   0  0  0  0  0  0  0  0  0  0  0  0
  -28.4823  -14.7169   29.7055 C   0  0  0  0  0  0  0  0  0  1  0  0
  -21.6885  -17.0028   31.5468 C   0  0  1  0  0  0  0  0  0  0  0  0
  -29.9687  -14.4449   29.9493 C   0  0  1  0  0  0  0  0  0  0  0  0
  -22.4290  -16.8287   35.2604 C   0  0  2  0  0  0  0  0  0  0  0  0
  -20.9563  -18.2324   30.9390 C   0  0  0  0  0  0  0  0  0  0  0  0
  -25.8709  -11.5666   20.6003 N   0  0  0  0  0  0  0  0  0  0  0  0
  -26.2542  -12.8450   20.4430 N   0  0  0  0  0  0  0  0  0  0  0  0
  -22.0424  -14.8648   30.3520 N   0  0  0  0  0  0  0  0  0  0  0  0
  -30.0513  -12.4780   20.6180 N   0  0  0  0  0  0  0  0  0  0  0  0
  -25.4414  -15.0696   20.4050 N   0  0  0  0  0  0  0  0  0  0  0  0
  -21.7290  -12.6169   21.1787 N   0  0  0  0  0  0  0  0  0  0  0  0
  -30.4414  -14.1347   27.5970 N   0  0  0  0  0  0  0  0  0  0  0  0
  -30.5761  -12.7822   22.8972 N   0  0  0  0  0  0  0  0  0  0  0  0
  -20.2401  -13.4370   27.6238 N   0  0  0  0  0  0  0  0  0  0  0  0
  -21.6242  -16.9285   33.0024 N   0  0  0  0  0  0  0  0  0  0  0  0
  -23.4609  -16.0339   35.9847 N   0  3  0  0  0  0  0  0  0  0  0  0
  -22.5240  -14.7464   20.8753 O   0  0  0  0  0  0  0  0  0  0  0  0
  -22.0470  -14.9036   27.7043 O   0  0  0  0  0  0  0  0  0  0  0  0
  -19.9549  -15.4144   31.2333 O   0  0  0  0  0  0  0  0  0  0  0  0
  -31.7209  -15.6711   28.8230 O   0  0  0  0  0  0  0  0  0  0  0  0
  -23.9155  -16.9364   33.3588 O   0  0  0  0  0  0  0  0  0  0  0  0
  -32.1965  -13.0532   21.2593 O   0  0  0  0  0  0  0  0  0  0  0  0
  -21.4827   -7.0704   21.6380 O   0  0  0  0  0  0  0  0  0  0  0  0
  -27.9241  -13.6421   28.9508 O   0  0  0  0  0  0  0  0  0  1  0  0
  -23.4480   -3.2761   25.1229 F   0  0  0  0  0  0  0  0  0  0  0  0
  -23.9116   -5.8363   21.1687 F   0  0  0  0  0  0  0  0  0  0  0  0
  1  2  1  0  0  0  0
  1  6  2  0  0  0  0
  2  7  2  0  0  0  0
  3  9  2  0  0  0  0
  3 10  1  0  0  0  0
  4 11  2  0  0  0  0
  4 18  1  0  0  0  0
  5 12  1  0  0  0  0
  5 18  2  0  0  0  0
  6 20  1  0  0  0  0
  7 22  1  0  0  0  0
  8 13  2  0  0  0  0
  8 21  1  0  0  0  0
  9 25  1  0  0  0  0
 10 26  2  0  0  0  0
 11 27  1  0  0  0  0
 12 27  2  0  0  0  0
 13 28  1  0  0  0  0
 14 15  2  0  0  0  0
 14 29  1  0  0  0  0
 15 30  1  0  0  0  0
 16 23  1  0  0  0  0
 16 28  2  0  0  0  0
 17 30  2  0  0  0  0
 17 31  1  0  0  0  0
 18 32  1  0  0  0  0
 19 32  1  0  0  0  0
 19 33  2  0  0  0  0
 19 34  1  0  0  0  0
 20 22  2  0  0  0  0
 20 40  1  0  0  0  0
 21 23  2  0  0  0  0
 21 41  1  0  0  0  0
 22 49  1  0  0  0  0
 23 42  1  0  0  0  0
 24 25  2  0  0  0  0
 24 26  1  0  0  0  0
 24 52  1  0  0  0  0
 25 70  1  0  0  0  0
 26 71  1  0  0  0  0
 27 81  1  0  0  0  0
 28 82  1  0  0  0  0
 29 31  2  0  0  0  0
 29 81  1  0  0  0  0
 30 83  1  0  0  0  0
 31 84  1  0  0  0  0
 32 64  2  0  0  0  0
 33 65  1  0  0  0  0
 33 68  1  0  0  0  0
 34 69  1  0  0  0  0
 34 75  2  0  0  0  0
 35 50  1  0  0  0  0
 35 72  1  0  0  0  0
 35 76  2  0  0  0  0
 36 60  1  0  0  0  0
 36 66  1  0  0  0  0
 36 77  2  0  0  0  0
 37 61  1  0  0  0  0
 37 70  1  0  0  0  0
 37 78  2  0  0  0  0
 38 62  1  0  0  0  0
 38 73  1  0  0  0  0
 38 79  2  0  0  0  0
 39 67  1  0  0  0  0
 39 71  1  0  0  0  0
 39 80  2  0  0  0  0
 40 43  1  0  0  0  0
 41 50  1  0  0  0  0
 42 66  1  0  0  0  0
 43 45  1  0  0  0  0
 44 46  1  0  0  0  0
 44 47  1  0  0  0  0
 45 49  1  0  0  0  0
 46 51  1  0  0  0  0
 47 67  1  0  0  0  0
 48 51  1  0  0  0  0
 48 67  1  0  0  0  0
 49 72  1  0  0  0  0
 50 66  1  0  0  0  0
 51 65  1  0  0  0  0
 53 61  1  0  0  0  0
 54 62  1  0  0  0  0
 55 63  1  0  0  0  0
 56 63  1  0  0  0  0
 57 63  1  0  0  0  0
 58 74  1  0  0  0  0
 59 61  1  0  0  0  0
 59 82  1  0  0  0  0
 60 63  1  0  0  0  0
 60 73  1  0  0  0  0
 62 74  1  0  0  0  0
 64 65  1  0  0  0  0
M  CHG  1  74   1
M  ISO  4  39 100  59 101  71 100  82 101
M  END
> <Batch ID>
0068

> <Smiles>
CNC(C)C(=O)NC(C(=O)N1Cc2cc([101O:1][101CH2:1]C(C)C(=O)Nc3cccc([100NH:0][100C:0](=O)N4CCCC(n5nc(-c6ccc(Oc7ccc(F)cc7F)cc6)c(C(N)=O)c5N)C4)c3C)ccc2CC1C(=O)NC1CCCc2ccccc21)C(C)(C)C

> <Shape>
0.139

> <Color>
0.178

> <Negative vol penalty>
0.000

$$$$

  -OEChem-04042323273D

 88 97  0     1  0  0  0  0  0999 V2000
  -24.4658  -33.5735   28.9616 C   0  0  0  0  0  0  0  0  0  0  0  0
  -24.6527  -32.2281   28.6608 C   0  0  0  0  0  0  0  0  0  0  0  0
  -23.0809   -9.8600   19.9439 C   0  0  0  0  0  0  0  0  0  0  0  0
  -23.8331   -9.8790   22.2397 C   0  0  0  0  0  0  0  0  0  0  0  0
  -24.7790  -34.5482   28.0152 C   0  0  0  0  0  0  0  0  0  0  0  0
  -25.1519  -31.8567   27.4129 C   0  0  0  0  0  0  0  0  0  0  0  0
  -28.8478  -27.1305   26.1845 C   0  0  0  0  0  0  0  0  0  0  0  0
  -22.3379   -8.7069   20.1969 C   0  0  0  0  0  0  0  0  0  0  0  0
  -23.0901   -8.7259   22.4927 C   0  0  0  0  0  0  0  0  0  0  0  0
  -28.5997  -25.8471   25.6996 C   0  0  0  0  0  0  0  0  0  0  0  0
  -19.8612   -7.9261   23.0883 C   0  0  0  0  0  0  0  0  0  0  0  0
  -19.1004   -7.8905   24.2569 C   0  0  0  0  0  0  0  0  0  0  0  0
  -29.1170  -26.5974   23.4661 C   0  0  0  0  0  0  0  0  0  0  0  0
  -30.5736  -19.8798   21.4772 C   0  0  0  0  0  0  0  0  0  0  0  0
  -31.1417  -17.7055   20.5902 C   0  0  0  0  0  0  0  0  0  0  0  0
  -29.5053  -17.8994   22.3571 C   0  0  0  0  0  0  0  0  0  0  0  0
  -20.3423   -5.9585   25.0066 C   0  0  0  0  0  0  0  0  0  0  0  0
  -23.8285  -10.4460   20.9653 C   0  0  0  0  0  0  0  0  0  0  0  0
  -24.1670  -12.9711   20.8344 C   0  0  0  0  0  0  0  0  0  0  0  0
  -25.2914  -34.1890   26.7586 C   0  0  0  0  0  0  0  0  0  0  0  0
  -29.2224  -28.1614   25.3107 C   0  0  0  0  0  0  0  0  0  0  0  0
  -25.4710  -32.8274   26.4483 C   0  0  0  0  0  0  0  0  0  0  0  0
  -29.3718  -27.8924   23.9427 C   0  0  0  0  0  0  0  0  0  0  0  0
  -31.3084  -19.0904   20.5927 C   0  0  0  0  0  0  0  0  0  0  0  0
  -29.6721  -19.2843   22.3595 C   0  0  0  0  0  0  0  0  0  0  0  0
  -30.2401  -17.1100   21.4725 C   0  0  0  0  0  0  0  0  0  0  0  0
  -22.3425   -8.1399   21.4713 C   0  0  0  0  0  0  0  0  0  0  0  0
  -28.7315  -25.5810   24.3398 C   0  0  0  0  0  0  0  0  0  0  0  0
  -20.8625   -6.9777   22.8788 C   0  0  0  0  0  0  0  0  0  0  0  0
  -19.3409   -6.9068   25.2160 C   0  0  0  0  0  0  0  0  0  0  0  0
  -21.1030   -5.9940   23.8380 C   0  0  0  0  0  0  0  0  0  0  0  0
  -24.5967  -11.6368   20.7045 C   0  0  0  0  0  0  0  0  0  0  0  0
  -25.2592  -13.7205   20.4712 C   0  0  0  0  0  0  0  0  0  0  0  0
  -27.9772  -19.6420   24.2103 C   0  0  0  0  0  0  0  0  0  0  0  0
  -22.8943  -13.4869   21.2467 C   0  0  0  0  0  0  0  0  0  0  0  0
  -27.9601  -30.9526   24.4628 C   0  0  0  0  0  0  0  0  0  0  0  0
  -30.7576  -31.2873   22.8553 C   0  0  0  0  0  0  0  0  0  0  0  0
  -33.4459  -29.7931   21.3763 C   0  0  0  0  0  0  0  0  0  0  0  0
  -30.7232  -14.7752   20.6591 C   0  0  0  0  0  0  0  0  0  0  0  0
  -25.5709  -35.2758   25.7509 C   0  0  0  0  0  0  0  0  0  0  0  0
  -29.5124  -29.5339   25.8533 C   0  0  0  0  0  0  0  0  0  0  0  0
  -29.7912  -28.9594   22.9659 C   0  0  0  0  0  0  0  0  0  0  0  0
  -26.4479  -34.8178   24.5884 C   0  0  0  0  0  0  0  0  0  0  0  0
  -29.6203  -12.3485   18.2986 C   0  0  0  0  0  0  0  0  0  0  0  0
  -25.9562  -33.4806   24.0433 C   0  0  0  0  0  0  0  0  0  0  0  0
  -28.1797  -12.0567   18.7248 C   0  0  0  0  0  0  0  0  0  0  0  0
  -30.5311  -12.5844   19.5022 C   0  0  0  0  0  0  0  0  0  0  0  0
  -29.1037  -21.5298   23.3490 C   0  0  0  0  0  0  0  0  0  0  0  0
  -28.6184  -13.3125   20.8737 C   0  0  0  0  0  0  0  0  0  0  0  0
  -26.0337  -32.3861   25.1146 C   0  0  1  0  0  0  0  0  0  0  0  0
  -27.5458  -20.8547   25.0221 C   0  0  1  0  0  0  0  0  0  0  0  0
  -29.3884  -30.6310   24.8005 C   0  0  1  0  0  0  0  0  0  0  0  0
  -27.8663  -22.0219   24.0872 C   0  0  1  0  0  0  0  0  0  0  0  0
  -27.6498  -13.1322   19.6935 C   0  0  2  0  0  0  0  0  0  0  0  0
  -32.2733  -19.7275   19.6503 C   0  0  0  0  0  0  0  0  0  0  0  0
  -35.5478  -30.3258   20.1131 C   0  0  0  0  0  0  0  0  0  0  0  0
  -29.1071  -31.8525   20.3520 C   0  0  0  0  0  0  0  0  0  0  0  0
  -31.1632  -31.4333   18.9863 C   0  0  0  0  0  0  0  0  0  0  0  0
  -31.1191  -33.3122   20.6265 C   0  0  0  0  0  0  0  0  0  0  0  0
  -35.1482  -28.5556   23.4572 C   0  0  0  0  0  0  0  0  0  0  0  0
  -24.6108  -19.8284   26.9892 C   0  0  0  0  0  0  0  0  0  0  0  0
  -26.0842  -20.7906   25.4317 C   0  0  0  0  0  0  0  0  0  0  0  0
  -28.1040  -23.3366   24.8137 C   0  0  0  0  0  0  0  0  0  1  0  0
  -31.2443  -30.9325   21.4710 C   0  0  1  0  0  0  0  0  0  0  0  0
  -34.9352  -30.0682   21.4810 C   0  0  2  0  0  0  0  0  0  0  0  0
  -30.6486  -31.8628   20.3768 C   0  0  0  0  0  0  0  0  0  0  0  0
  -25.8631  -11.5409   20.2909 N   0  0  0  0  0  0  0  0  0  0  0  0
  -26.2385  -12.8244   20.1577 N   0  0  0  0  0  0  0  0  0  0  0  0
  -28.9205  -20.0925   23.2647 N   0  0  0  0  0  0  0  0  0  0  0  0
  -30.0572  -30.2869   23.5442 N   0  0  0  0  0  0  0  0  0  0  0  0
  -29.9676  -13.6185   20.3728 N   0  0  0  0  0  0  0  0  0  0  0  0
  -25.4678  -15.0519   20.3926 N   0  0  0  0  0  0  0  0  0  0  0  0
  -21.8827  -12.5778   21.5849 N   0  0  0  0  0  0  0  0  0  0  0  0
  -30.0717  -15.7031   21.4710 N   0  0  0  0  0  0  0  0  0  0  0  0
  -27.3966  -31.9243   25.2677 N   0  0  0  0  0  0  0  0  0  0  0  0
  -32.7017  -30.9429   21.5355 N   0  0  0  0  0  0  0  0  0  0  0  0
  -35.6346  -28.9058   22.0979 N   0  3  0  0  0  0  0  0  0  0  0  0
  -27.5810  -18.5083   24.4397 O   0  0  0  0  0  0  0  0  0  0  0  0
  -22.6560  -14.7175   21.2974 O   0  0  0  0  0  0  0  0  0  0  0  0
  -27.4103  -30.3639   23.5392 O   0  0  0  0  0  0  0  0  0  0  0  0
  -30.9965  -32.4082   23.3114 O   0  0  0  0  0  0  0  0  0  0  0  0
  -32.9887  -28.6711   21.1700 O   0  0  0  0  0  0  0  0  0  0  0  0
  -31.8536  -14.9434   20.1945 O   0  0  0  0  0  0  0  0  0  0  0  0
  -21.6174   -7.0148   21.7185 O   0  0  0  0  0  0  0  0  0  0  0  0
  -28.4894  -24.3294   23.8639 O   0  0  0  0  0  0  0  0  0  1  0  0
  -25.9609  -19.9325   26.5538 O   0  0  0  0  0  0  0  0  0  0  0  0
  -18.6113   -6.8737   26.3389 F   0  0  0  0  0  0  0  0  0  0  0  0
  -22.0644   -5.0810   23.6429 F   0  0  0  0  0  0  0  0  0  0  0  0
  1  2  1  0  0  0  0
  1  5  2  0  0  0  0
  2  6  2  0  0  0  0
  3  8  2  0  0  0  0
  3 18  1  0  0  0  0
  4  9  1  0  0  0  0
  4 18  2  0  0  0  0
  5 20  1  0  0  0  0
  6 22  1  0  0  0  0
  7 10  2  0  0  0  0
  7 21  1  0  0  0  0
  8 27  1  0  0  0  0
  9 27  2  0  0  0  0
 10 28  1  0  0  0  0
 11 12  2  0  0  0  0
 11 29  1  0  0  0  0
 12 30  1  0  0  0  0
 13 23  1  0  0  0  0
 13 28  2  0  0  0  0
 14 24  2  0  0  0  0
 14 25  1  0  0  0  0
 15 24  1  0  0  0  0
 15 26  2  0  0  0  0
 16 25  2  0  0  0  0
 16 26  1  0  0  0  0
 17 30  2  0  0  0  0
 17 31  1  0  0  0  0
 18 32  1  0  0  0  0
 19 32  1  0  0  0  0
 19 33  2  0  0  0  0
 19 35  1  0  0  0  0
 20 22  2  0  0  0  0
 20 40  1  0  0  0  0
 21 23  2  0  0  0  0
 21 41  1  0  0  0  0
 22 50  1  0  0  0  0
 23 42  1  0  0  0  0
 24 55  1  0  0  0  0
 25 69  1  0  0  0  0
 26 74  1  0  0  0  0
 27 84  1  0  0  0  0
 28 85  1  0  0  0  0
 29 31  2  0  0  0  0
 29 84  1  0  0  0  0
 30 87  1  0  0  0  0
 31 88  1  0  0  0  0
 32 67  2  0  0  0  0
 33 68  1  0  0  0  0
 33 72  1  0  0  0  0
 34 51  1  0  0  0  0
 34 69  1  0  0  0  0
 34 78  2  0  0  0  0
 35 73  1  0  0  0  0
 35 79  2  0  0  0  0
 36 52  1  0  0  0  0
 36 75  1  0  0  0  0
 36 80  2  0  0  0  0
 37 64  1  0  0  0  0
 37 70  1  0  0  0  0
 37 81  2  0  0  0  0
 38 65  1  0  0  0  0
 38 76  1  0  0  0  0
 38 82  2  0  0  0  0
 39 71  1  0  0  0  0
 39 74  1  0  0  0  0
 39 83  2  0  0  0  0
 40 43  1  0  0  0  0
 41 52  1  0  0  0  0
 42 70  1  0  0  0  0
 43 45  1  0  0  0  0
 44 46  1  0  0  0  0
 44 47  1  0  0  0  0
 45 50  1  0  0  0  0
 46 54  1  0  0  0  0
 47 71  1  0  0  0  0
 48 53  1  0  0  0  0
 48 69  1  0  0  0  0
 49 54  1  0  0  0  0
 49 71  1  0  0  0  0
 50 75  1  0  0  0  0
 51 53  1  0  0  0  0
 51 62  1  0  0  0  0
 52 70  1  0  0  0  0
 53 63  1  0  0  0  0
 54 68  1  0  0  0  0
 56 65  1  0  0  0  0
 57 66  1  0  0  0  0
 58 66  1  0  0  0  0
 59 66  1  0  0  0  0
 60 77  1  0  0  0  0
 61 86  1  0  0  0  0
 62 86  1  0  0  0  0
 63 85  1  0  0  0  0
 64 66  1  0  0  0  0
 64 76  1  0  0  0  0
 65 77  1  0  0  0  0
 67 68  1  0  0  0  0
M  CHG  1  77   1
M  ISO  4  39 100  63 101  74 100  85 101
M  END
> <Batch ID>
0068

> <Smiles>
CNC(C)C(=O)NC(C(=O)N1Cc2cc([101O:1][101CH2:1]C3CN(c4cc(C)cc([100NH:0][100C:0](=O)N5CCCC(n6nc(-c7ccc(Oc8ccc(F)cc8F)cc7)c(C(N)=O)c6N)C5)c4)C(=O)C3COC)ccc2CC1C(=O)NC1CCCc2ccccc21)C(C)(C)C

> <Shape>
0.236

> <Color>
0.187

> <Negative vol penalty>
0.000

$$$$

  -OEChem-04042323273D

 85 93  0     1  0  0  0  0  0999 V2000
  -19.8743  -32.7157   15.4146 C   0  0  0  0  0  0  0  0  0  0  0  0
  -20.8404  -31.7214   15.5305 C   0  0  0  0  0  0  0  0  0  0  0  0
  -24.7274  -11.0956   23.8732 C   0  0  0  0  0  0  0  0  0  0  0  0
  -24.1252  -13.4348   23.9252 C   0  0  0  0  0  0  0  0  0  0  0  0
  -20.0032  -33.8993   16.1401 C   0  0  0  0  0  0  0  0  0  0  0  0
  -21.9367  -31.9106   16.3713 C   0  0  0  0  0  0  0  0  0  0  0  0
  -24.8217  -27.6381   19.6771 C   0  0  0  0  0  0  0  0  0  0  0  0
  -24.3702  -10.9738   25.2160 C   0  0  0  0  0  0  0  0  0  0  0  0
  -23.7680  -13.3129   25.2680 C   0  0  0  0  0  0  0  0  0  0  0  0
  -25.9908  -26.9117   19.4555 C   0  0  0  0  0  0  0  0  0  0  0  0
  -21.5265  -10.6644   27.0190 C   0  0  0  0  0  0  0  0  0  0  0  0
  -20.7608   -9.5586   27.3883 C   0  0  0  0  0  0  0  0  0  0  0  0
  -28.6897  -20.3626   20.0470 C   0  0  0  0  0  0  0  0  0  0  0  0
  -27.2259  -28.5082   20.7765 C   0  0  0  0  0  0  0  0  0  0  0  0
  -30.7064  -18.5427   19.4114 C   0  0  0  0  0  0  0  0  0  0  0  0
  -22.5076   -8.8543   28.9015 C   0  0  0  0  0  0  0  0  0  0  0  0
  -24.6050  -12.3261   23.2278 C   0  0  0  0  0  0  0  0  0  0  0  0
  -30.0145  -20.7909   19.9631 C   0  0  0  0  0  0  0  0  0  0  0  0
  -24.1444  -12.2642   20.7195 C   0  0  0  0  0  0  0  0  0  0  0  0
  -21.0966  -34.0991   16.9975 C   0  0  0  0  0  0  0  0  0  0  0  0
  -24.8479  -28.8130   20.4422 C   0  0  0  0  0  0  0  0  0  0  0  0
  -22.0810  -33.0986   17.1079 C   0  0  0  0  0  0  0  0  0  0  0  0
  -26.0552  -29.2463   21.0084 C   0  0  0  0  0  0  0  0  0  0  0  0
  -29.3816  -18.1144   19.4954 C   0  0  0  0  0  0  0  0  0  0  0  0
  -23.8905  -12.0824   25.9134 C   0  0  0  0  0  0  0  0  0  0  0  0
  -27.1937  -27.3482   20.0029 C   0  0  0  0  0  0  0  0  0  0  0  0
  -22.7829  -10.8651   27.5908 C   0  0  0  0  0  0  0  0  0  0  0  0
  -21.2513   -8.6536   28.3296 C   0  0  0  0  0  0  0  0  0  0  0  0
  -28.3732  -19.0243   19.8132 C   0  0  0  0  0  0  0  0  0  0  0  0
  -31.0229  -19.8810   19.6453 C   0  0  0  0  0  0  0  0  0  0  0  0
  -23.2734   -9.9601   28.5321 C   0  0  0  0  0  0  0  0  0  0  0  0
  -24.9743  -12.4527   21.8408 C   0  0  0  0  0  0  0  0  0  0  0  0
  -24.9636  -12.4999   19.6425 C   0  0  0  0  0  0  0  0  0  0  0  0
  -30.3468  -22.2168   20.2122 C   0  0  0  0  0  0  0  0  0  0  0  0
  -22.7570  -11.9080   20.6569 C   0  0  0  0  0  0  0  0  0  0  0  0
  -24.1974  -31.8727   19.8775 C   0  0  0  0  0  0  0  0  0  0  0  0
  -24.6886  -32.1631   23.0708 C   0  0  0  0  0  0  0  0  0  0  0  0
  -29.4551  -24.5145   20.0691 C   0  0  0  0  0  0  0  0  0  0  0  0
  -26.1437  -30.9326   25.9019 C   0  0  0  0  0  0  0  0  0  0  0  0
  -29.9434  -15.7246   18.9300 C   0  0  0  0  0  0  0  0  0  0  0  0
  -21.2174  -35.4146   17.7253 C   0  0  0  0  0  0  0  0  0  0  0  0
  -23.5732  -29.5706   20.6942 C   0  0  0  0  0  0  0  0  0  0  0  0
  -26.1331  -30.4900   21.8543 C   0  0  0  0  0  0  0  0  0  0  0  0
  -22.2150  -35.3823   18.8803 C   0  0  0  0  0  0  0  0  0  0  0  0
  -29.5538  -12.2417   18.3017 C   0  0  0  0  0  0  0  0  0  0  0  0
  -23.5143  -34.7122   18.4449 C   0  0  0  0  0  0  0  0  0  0  0  0
  -28.2565  -11.8847   19.0309 C   0  0  0  0  0  0  0  0  0  0  0  0
  -30.3689  -13.2804   19.0702 C   0  0  0  0  0  0  0  0  0  0  0  0
  -28.3374  -14.1410   20.1664 C   0  0  0  0  0  0  0  0  0  0  0  0
  -23.2717  -33.2564   18.0285 C   0  0  1  0  0  0  0  0  0  0  0  0
  -23.8095  -31.0324   21.0612 C   0  0  1  0  0  0  0  0  0  0  0  0
  -27.4513  -13.1464   19.3989 C   0  0  2  0  0  0  0  0  0  0  0  0
  -26.3964  -31.4076   28.3530 C   0  0  0  0  0  0  0  0  0  0  0  0
  -26.7035  -34.3642   22.4340 C   0  0  0  0  0  0  0  0  0  0  0  0
  -27.5900  -34.1305   24.7638 C   0  0  0  0  0  0  0  0  0  0  0  0
  -25.2263  -34.8377   24.3957 C   0  0  0  0  0  0  0  0  0  0  0  0
  -24.8364  -28.3846   26.6488 C   0  0  0  0  0  0  0  0  0  0  0  0
  -28.2043  -25.2321   19.6071 C   0  0  0  0  0  0  0  0  0  1  0  0
  -25.8863  -32.4387   23.9475 C   0  0  1  0  0  0  0  0  0  0  0  0
  -25.5877  -30.6784   27.2914 C   0  0  2  0  0  0  0  0  0  0  0  0
  -26.3507  -33.9203   23.8677 C   0  0  0  0  0  0  0  0  0  0  0  0
  -26.2249  -12.7826   21.5072 N   0  0  0  0  0  0  0  0  0  0  0  0
  -26.1868  -12.8031   20.1639 N   0  0  0  0  0  0  0  0  0  0  0  0
  -24.8609  -31.1998   22.0666 N   0  0  0  0  0  0  0  0  0  0  0  0
  -29.5425  -14.4490   19.3804 N   0  0  0  0  0  0  0  0  0  0  0  0
  -24.7497  -12.4752   18.3098 N   0  0  0  0  0  0  0  0  0  0  0  0
  -22.0651  -11.7024   21.8583 N   0  0  0  0  0  0  0  0  0  0  0  0
  -29.0621  -16.7547   19.2568 N   0  0  0  0  0  0  0  0  0  0  0  0
  -29.3513  -23.1351   19.8830 N   0  0  0  0  0  0  0  0  0  0  0  0
  -23.1242  -32.4146   19.1964 N   0  0  0  0  0  0  0  0  0  0  0  0
  -25.5198  -31.9988   25.2893 N   0  0  0  0  0  0  0  0  0  0  0  0
  -25.6124  -29.2208   27.6006 N   0  3  0  0  0  0  0  0  0  0  0  0
  -31.4356  -22.4997   20.7047 O   0  0  0  0  0  0  0  0  0  0  0  0
  -22.1529  -11.7598   19.5676 O   0  0  0  0  0  0  0  0  0  0  0  0
  -25.3827  -32.0197   19.6034 O   0  0  0  0  0  0  0  0  0  0  0  0
  -23.6368  -32.7746   23.2741 O   0  0  0  0  0  0  0  0  0  0  0  0
  -30.4231  -25.1039   20.5417 O   0  0  0  0  0  0  0  0  0  0  0  0
  -27.0442  -30.2556   25.4107 O   0  0  0  0  0  0  0  0  0  0  0  0
  -30.9776  -15.8869   18.2773 O   0  0  0  0  0  0  0  0  0  0  0  0
  -23.5416  -11.9638   27.2237 O   0  0  0  0  0  0  0  0  0  0  0  0
  -28.3365  -26.6414   19.7876 O   0  0  0  0  0  0  0  0  0  1  0  0
  -20.5151   -7.5926   28.6853 F   0  0  0  0  0  0  0  0  0  0  0  0
  -27.0964  -18.6238   19.8968 F   0  0  0  0  0  0  0  0  0  0  0  0
  -32.2997  -20.2813   19.5606 F   0  0  0  0  0  0  0  0  0  0  0  0
  -24.4791  -10.1483   29.0858 F   0  0  0  0  0  0  0  0  0  0  0  0
  1  2  1  0  0  0  0
  1  5  2  0  0  0  0
  2  6  2  0  0  0  0
  3  8  2  0  0  0  0
  3 17  1  0  0  0  0
  4  9  1  0  0  0  0
  4 17  2  0  0  0  0
  5 20  1  0  0  0  0
  6 22  1  0  0  0  0
  7 10  2  0  0  0  0
  7 21  1  0  0  0  0
  8 25  1  0  0  0  0
  9 25  2  0  0  0  0
 10 26  1  0  0  0  0
 11 12  2  0  0  0  0
 11 27  1  0  0  0  0
 12 28  1  0  0  0  0
 13 18  1  0  0  0  0
 13 29  2  0  0  0  0
 14 23  1  0  0  0  0
 14 26  2  0  0  0  0
 15 24  2  0  0  0  0
 15 30  1  0  0  0  0
 16 28  2  0  0  0  0
 16 31  1  0  0  0  0
 17 32  1  0  0  0  0
 18 30  2  0  0  0  0
 18 34  1  0  0  0  0
 19 32  1  0  0  0  0
 19 33  2  0  0  0  0
 19 35  1  0  0  0  0
 20 22  2  0  0  0  0
 20 41  1  0  0  0  0
 21 23  2  0  0  0  0
 21 42  1  0  0  0  0
 22 50  1  0  0  0  0
 23 43  1  0  0  0  0
 24 29  1  0  0  0  0
 24 68  1  0  0  0  0
 25 80  1  0  0  0  0
 26 81  1  0  0  0  0
 27 31  2  0  0  0  0
 27 80  1  0  0  0  0
 28 82  1  0  0  0  0
 29 83  1  0  0  0  0
 30 84  1  0  0  0  0
 31 85  1  0  0  0  0
 32 62  2  0  0  0  0
 33 63  1  0  0  0  0
 33 66  1  0  0  0  0
 34 69  1  0  0  0  0
 34 73  2  0  0  0  0
 35 67  1  0  0  0  0
 35 74  2  0  0  0  0
 36 51  1  0  0  0  0
 36 70  1  0  0  0  0
 36 75  2  0  0  0  0
 37 59  1  0  0  0  0
 37 64  1  0  0  0  0
 37 76  2  0  0  0  0
 38 58  1  0  0  0  0
 38 69  1  0  0  0  0
 38 77  2  0  0  0  0
 39 60  1  0  0  0  0
 39 71  1  0  0  0  0
 39 78  2  0  0  0  0
 40 65  1  0  0  0  0
 40 68  1  0  0  0  0
 40 79  2  0  0  0  0
 41 44  1  0  0  0  0
 42 51  1  0  0  0  0
 43 64  1  0  0  0  0
 44 46  1  0  0  0  0
 45 47  1  0  0  0  0
 45 48  1  0  0  0  0
 46 50  1  0  0  0  0
 47 52  1  0  0  0  0
 48 65  1  0  0  0  0
 49 52  1  0  0  0  0
 49 65  1  0  0  0  0
 50 70  1  0  0  0  0
 51 64  1  0  0  0  0
 52 63  1  0  0  0  0
 53 60  1  0  0  0  0
 54 61  1  0  0  0  0
 55 61  1  0  0  0  0
 56 61  1  0  0  0  0
 57 72  1  0  0  0  0
 58 81  1  0  0  0  0
 59 61  1  0  0  0  0
 59 71  1  0  0  0  0
 60 72  1  0  0  0  0
 62 63  1  0  0  0  0
M  CHG  1  72   1
M  ISO  4  40 100  58 101  68 100  81 101
M  END
> <Batch ID>
0068

> <Smiles>
CNC(C)C(=O)NC(C(=O)N1Cc2cc([101O:1][101CH2:1]C(=O)NC(=O)c3cc(F)c([100NH:0][100C:0](=O)N4CCCC(n5nc(-c6ccc(Oc7ccc(F)cc7F)cc6)c(C(N)=O)c5N)C4)cc3F)ccc2CC1C(=O)NC1CCCc2ccccc21)C(C)(C)C

> <Shape>
0.273

> <Color>
0.112

> <Negative vol penalty>
0.000

$$$$

  -OEChem-04042323273D

 87 96  0     1  0  0  0  0  0999 V2000
  -26.6868  -34.1232   21.0394 C   0  0  0  0  0  0  0  0  0  0  0  0
  -27.0015  -32.8066   20.7185 C   0  0  0  0  0  0  0  0  0  0  0  0
  -22.2483  -12.7403   22.5546 C   0  0  0  0  0  0  0  0  0  0  0  0
  -21.8405  -13.7192   20.3838 C   0  0  0  0  0  0  0  0  0  0  0  0
  -25.7471  -34.3917   22.0338 C   0  0  0  0  0  0  0  0  0  0  0  0
  -26.3774  -31.7576   21.3928 C   0  0  0  0  0  0  0  0  0  0  0  0
  -24.8363  -28.0831   18.2674 C   0  0  0  0  0  0  0  0  0  0  0  0
  -20.9080  -12.9290   22.8915 C   0  0  0  0  0  0  0  0  0  0  0  0
  -20.5001  -13.9079   20.7207 C   0  0  0  0  0  0  0  0  0  0  0  0
  -25.8055  -27.1966   17.8001 C   0  0  0  0  0  0  0  0  0  0  0  0
  -18.6734  -16.0904   22.5457 C   0  0  0  0  0  0  0  0  0  0  0  0
  -18.0953  -17.3222   22.2392 C   0  0  0  0  0  0  0  0  0  0  0  0
  -25.1112  -25.5780   19.4485 C   0  0  0  0  0  0  0  0  0  0  0  0
  -27.9823  -20.7330   16.1927 C   0  0  0  0  0  0  0  0  0  0  0  0
  -28.8662  -19.6833   18.1811 C   0  0  0  0  0  0  0  0  0  0  0  0
  -27.3539  -18.4660   16.7430 C   0  0  0  0  0  0  0  0  0  0  0  0
  -16.4729  -16.2114   20.8352 C   0  0  0  0  0  0  0  0  0  0  0  0
  -22.7146  -13.1355   21.3007 C   0  0  0  0  0  0  0  0  0  0  0  0
  -24.6703  -11.8121   20.3355 C   0  0  0  0  0  0  0  0  0  0  0  0
  -25.1041  -33.3454   22.7139 C   0  0  0  0  0  0  0  0  0  0  0  0
  -24.0031  -27.7273   19.3377 C   0  0  0  0  0  0  0  0  0  0  0  0
  -25.4293  -32.0123   22.3982 C   0  0  0  0  0  0  0  0  0  0  0  0
  -24.1304  -26.4608   19.9258 C   0  0  0  0  0  0  0  0  0  0  0  0
  -28.7810  -20.7889   17.3348 C   0  0  0  0  0  0  0  0  0  0  0  0
  -27.2686  -19.5715   15.8968 C   0  0  0  0  0  0  0  0  0  0  0  0
  -28.1526  -18.5219   17.8852 C   0  0  0  0  0  0  0  0  0  0  0  0
  -20.0339  -13.5127   21.9746 C   0  0  0  0  0  0  0  0  0  0  0  0
  -25.9450  -25.9449   18.3925 C   0  0  0  0  0  0  0  0  0  0  0  0
  -18.1513  -14.9190   21.9970 C   0  0  0  0  0  0  0  0  0  0  0  0
  -16.9951  -17.3828   21.3839 C   0  0  0  0  0  0  0  0  0  0  0  0
  -17.0510  -14.9796   21.1418 C   0  0  0  0  0  0  0  0  0  0  0  0
  -24.0991  -12.9414   20.9523 C   0  0  0  0  0  0  0  0  0  0  0  0
  -26.0040  -12.1202   20.2229 C   0  0  0  0  0  0  0  0  0  0  0  0
  -29.1382  -24.3226   18.1385 C   0  0  0  0  0  0  0  0  0  0  0  0
  -30.4578  -24.4421   18.8071 C   0  0  0  0  0  0  0  0  0  0  0  0
  -30.7423  -21.9355   18.3365 C   0  0  0  0  0  0  0  0  0  0  0  0
  -28.1332  -25.1266   18.5057 C   0  0  0  0  0  0  0  0  0  1  0  0
  -24.0506  -10.5937   19.9030 C   0  0  0  0  0  0  0  0  0  0  0  0
  -23.5033  -28.8618   22.2646 C   0  0  0  0  0  0  0  0  0  0  0  0
  -21.1361  -26.6442   22.2983 C   0  0  0  0  0  0  0  0  0  0  0  0
  -19.8927  -23.7149   21.0655 C   0  0  0  0  0  0  0  0  0  0  0  0
  -28.9884  -17.2878   19.9162 C   0  0  0  0  0  0  0  0  0  0  0  0
  -24.1300  -33.6851   23.8141 C   0  0  0  0  0  0  0  0  0  0  0  0
  -22.9446  -28.6847   19.8126 C   0  0  0  0  0  0  0  0  0  0  0  0
  -23.2472  -26.0228   21.0644 C   0  0  0  0  0  0  0  0  0  0  0  0
  -29.0553  -23.2665   17.0826 C   0  0  0  0  0  0  0  0  0  0  0  0
  -31.3918  -23.2790   18.6114 C   0  0  0  0  0  0  0  0  0  0  0  0
  -23.2386  -32.5147   24.2212 C   0  0  0  0  0  0  0  0  0  0  0  0
  -29.4405  -14.7077   22.3277 C   0  0  0  0  0  0  0  0  0  0  0  0
  -24.0696  -31.2483   24.4015 C   0  0  0  0  0  0  0  0  0  0  0  0
  -28.1768  -13.8557   22.1883 C   0  0  0  0  0  0  0  0  0  0  0  0
  -29.1450  -16.1950   22.1424 C   0  0  0  0  0  0  0  0  0  0  0  0
  -27.1659  -15.6845   20.7669 C   0  0  0  0  0  0  0  0  0  0  0  0
  -24.7555  -30.8472   23.0900 C   0  0  1  0  0  0  0  0  0  0  0  0
  -22.4942  -28.4150   21.2449 C   0  0  1  0  0  0  0  0  0  0  0  0
  -27.4243  -14.1733   20.8812 C   0  0  2  0  0  0  0  0  0  0  0  0
  -17.9576  -22.1366   21.3143 C   0  0  0  0  0  0  0  0  0  0  0  0
  -22.3403  -25.5806   24.8923 C   0  0  0  0  0  0  0  0  0  0  0  0
  -20.9929  -23.4936   24.5804 C   0  0  0  0  0  0  0  0  0  0  0  0
  -19.8418  -25.6878   24.8689 C   0  0  0  0  0  0  0  0  0  0  0  0
  -19.0594  -24.1093   18.2532 C   0  0  0  0  0  0  0  0  0  0  0  0
  -21.0376  -25.1916   22.6973 C   0  0  1  0  0  0  0  0  0  0  0  0
  -18.5097  -23.3392   20.5648 C   0  0  2  0  0  0  0  0  0  0  0  0
  -21.0712  -24.9971   24.2396 C   0  0  0  0  0  0  0  0  0  0  0  0
  -24.9966  -13.8955   21.2134 N   0  0  0  0  0  0  0  0  0  0  0  0
  -26.1453  -13.3665   20.7585 N   0  0  0  0  0  0  0  0  0  0  0  0
  -29.5196  -21.9880   17.6405 N   0  0  0  0  0  0  0  0  0  0  0  0
  -22.2315  -26.9967   21.4972 N   0  0  0  0  0  0  0  0  0  0  0  0
  -28.4349  -16.4203   20.8815 N   0  0  0  0  0  0  0  0  0  0  0  0
  -26.4609  -19.5144   14.7421 N   0  0  0  0  0  0  0  0  0  0  0  0
  -27.0581  -11.4438   19.7191 N   0  0  0  0  0  0  0  0  0  0  0  0
  -22.6705  -10.4414   20.0944 N   0  0  0  0  0  0  0  0  0  0  0  0
  -28.2408  -17.3985   18.7443 N   0  0  0  0  0  0  0  0  0  0  0  0
  -23.8101  -30.2076   22.2002 N   0  0  0  0  0  0  0  0  0  0  0  0
  -19.8345  -24.6727   22.0557 N   0  0  0  0  0  0  0  0  0  0  0  0
  -18.5572  -23.0067   19.1128 N   0  3  0  0  0  0  0  0  0  0  0  0
  -30.7891  -25.4397   19.4412 O   0  0  0  0  0  0  0  0  0  0  0  0
  -31.3430  -20.9110   18.6671 O   0  0  0  0  0  0  0  0  0  0  0  0
  -24.7041   -9.6607   19.3777 O   0  0  0  0  0  0  0  0  0  0  0  0
  -23.9679  -28.0463   23.0525 O   0  0  0  0  0  0  0  0  0  0  0  0
  -20.2691  -27.4356   22.6773 O   0  0  0  0  0  0  0  0  0  0  0  0
  -20.9214  -23.2067   20.6251 O   0  0  0  0  0  0  0  0  0  0  0  0
  -30.0614  -17.8672   20.1035 O   0  0  0  0  0  0  0  0  0  0  0  0
  -18.7259  -13.6968   22.3029 O   0  0  0  0  0  0  0  0  0  0  0  0
  -26.8907  -25.0779   17.9387 O   0  0  0  0  0  0  0  0  0  1  0  0
  -16.4391  -18.5656   21.0909 F   0  0  0  0  0  0  0  0  0  0  0  0
  -16.5443  -13.8576   20.6125 F   0  0  0  0  0  0  0  0  0  0  0  0
  1  2  1  0  0  0  0
  1  5  2  0  0  0  0
  2  6  2  0  0  0  0
  3  8  2  0  0  0  0
  3 18  1  0  0  0  0
  4  9  1  0  0  0  0
  4 18  2  0  0  0  0
  5 20  1  0  0  0  0
  6 22  1  0  0  0  0
  7 10  2  0  0  0  0
  7 21  1  0  0  0  0
  8 27  1  0  0  0  0
  9 27  2  0  0  0  0
 10 28  1  0  0  0  0
 11 12  2  0  0  0  0
 11 29  1  0  0  0  0
 12 30  1  0  0  0  0
 13 23  1  0  0  0  0
 13 28  2  0  0  0  0
 14 24  1  0  0  0  0
 14 25  2  0  0  0  0
 15 24  2  0  0  0  0
 15 26  1  0  0  0  0
 16 25  1  0  0  0  0
 16 26  2  0  0  0  0
 17 30  2  0  0  0  0
 17 31  1  0  0  0  0
 18 32  1  0  0  0  0
 19 32  1  0  0  0  0
 19 33  2  0  0  0  0
 19 38  1  0  0  0  0
 20 22  2  0  0  0  0
 20 43  1  0  0  0  0
 21 23  2  0  0  0  0
 21 44  1  0  0  0  0
 22 54  1  0  0  0  0
 23 45  1  0  0  0  0
 24 67  1  0  0  0  0
 25 70  1  0  0  0  0
 26 73  1  0  0  0  0
 27 84  1  0  0  0  0
 28 85  1  0  0  0  0
 29 31  2  0  0  0  0
 29 84  1  0  0  0  0
 30 86  1  0  0  0  0
 31 87  1  0  0  0  0
 32 65  2  0  0  0  0
 33 66  1  0  0  0  0
 33 71  1  0  0  0  0
 34 35  1  0  0  0  0
 34 37  2  0  0  0  0
 34 46  1  0  0  0  0
 35 47  1  0  0  0  0
 35 77  2  0  0  0  0
 36 47  1  0  0  0  0
 36 67  1  0  0  0  0
 36 78  2  0  0  0  0
 37 85  1  0  0  0  0
 38 72  1  0  0  0  0
 38 79  2  0  0  0  0
 39 55  1  0  0  0  0
 39 74  1  0  0  0  0
 39 80  2  0  0  0  0
 40 62  1  0  0  0  0
 40 68  1  0  0  0  0
 40 81  2  0  0  0  0
 41 63  1  0  0  0  0
 41 75  1  0  0  0  0
 41 82  2  0  0  0  0
 42 69  1  0  0  0  0
 42 73  1  0  0  0  0
 42 83  2  0  0  0  0
 43 48  1  0  0  0  0
 44 55  1  0  0  0  0
 45 68  1  0  0  0  0
 46 67  1  0  0  0  0
 48 50  1  0  0  0  0
 49 51  1  0  0  0  0
 49 52  1  0  0  0  0
 50 54  1  0  0  0  0
 51 56  1  0  0  0  0
 52 69  1  0  0  0  0
 53 56  1  0  0  0  0
 53 69  1  0  0  0  0
 54 74  1  0  0  0  0
 55 68  1  0  0  0  0
 56 66  1  0  0  0  0
 57 63  1  0  0  0  0
 58 64  1  0  0  0  0
 59 64  1  0  0  0  0
 60 64  1  0  0  0  0
 61 76  1  0  0  0  0
 62 64  1  0  0  0  0
 62 75  1  0  0  0  0
 63 76  1  0  0  0  0
 65 66  1  0  0  0  0
M  CHG  1  76   1
M  ISO  4  37 101  42 100  73 100  85 101
M  END
> <Batch ID>
0068

> <Smiles>
CNC(C)C(=O)NC(C(=O)N1Cc2cc([101O:1][101CH:1]=C3CN(c4cc(N)cc([100NH:0][100C:0](=O)N5CCCC(n6nc(-c7ccc(Oc8ccc(F)cc8F)cc7)c(C(N)=O)c6N)C5)c4)C(=O)CC3=O)ccc2CC1C(=O)NC1CCCc2ccccc21)C(C)(C)C

> <Shape>
0.237

> <Color>
0.061

> <Negative vol penalty>
0.000

$$$$

  -OEChem-04042323273D

 88 97  0     1  0  0  0  0  0999 V2000
  -18.8935  -33.5378   20.9818 C   0  0  0  0  0  0  0  0  0  0  0  0
  -20.2067  -33.2658   20.6117 C   0  0  0  0  0  0  0  0  0  0  0  0
  -26.0076  -13.0278   21.7488 C   0  0  0  0  0  0  0  0  0  0  0  0
  -25.2584  -14.1034   19.7194 C   0  0  0  0  0  0  0  0  0  0  0  0
  -18.3309  -32.8875   22.0793 C   0  0  0  0  0  0  0  0  0  0  0  0
  -20.9584  -32.3442   21.3396 C   0  0  0  0  0  0  0  0  0  0  0  0
  -25.1951  -28.5013   19.1513 C   0  0  0  0  0  0  0  0  0  0  0  0
  -24.8974  -12.1842   21.7116 C   0  0  0  0  0  0  0  0  0  0  0  0
  -24.1482  -13.2598   19.6821 C   0  0  0  0  0  0  0  0  0  0  0  0
  -26.5872  -28.5648   19.1101 C   0  0  0  0  0  0  0  0  0  0  0  0
  -22.4502   -9.5070   21.9536 C   0  0  0  0  0  0  0  0  0  0  0  0
  -22.6586   -8.1497   22.1981 C   0  0  0  0  0  0  0  0  0  0  0  0
  -26.7010  -27.2512   21.1302 C   0  0  0  0  0  0  0  0  0  0  0  0
  -32.0685  -23.3504   16.8519 C   0  0  0  0  0  0  0  0  0  0  0  0
  -31.6941  -21.1455   17.7655 C   0  0  0  0  0  0  0  0  0  0  0  0
  -30.8892  -23.0944   18.9449 C   0  0  0  0  0  0  0  0  0  0  0  0
  -24.1500   -8.0368   20.3007 C   0  0  0  0  0  0  0  0  0  0  0  0
  -26.1881  -13.9875   20.7527 C   0  0  0  0  0  0  0  0  0  0  0  0
  -28.5946  -14.6333   20.2055 C   0  0  0  0  0  0  0  0  0  0  0  0
  -19.0730  -31.9503   22.8152 C   0  0  0  0  0  0  0  0  0  0  0  0
  -24.5441  -27.8204   20.1901 C   0  0  0  0  0  0  0  0  0  0  0  0
  -20.4056  -31.6818   22.4489 C   0  0  0  0  0  0  0  0  0  0  0  0
  -25.3006  -27.1784   21.1809 C   0  0  0  0  0  0  0  0  0  0  0  0
  -32.2120  -21.9659   16.7633 C   0  0  0  0  0  0  0  0  0  0  0  0
  -31.4071  -23.9147   17.9427 C   0  0  0  0  0  0  0  0  0  0  0  0
  -31.0327  -21.7097   18.8563 C   0  0  0  0  0  0  0  0  0  0  0  0
  -23.9677  -12.3002   20.6783 C   0  0  0  0  0  0  0  0  0  0  0  0
  -27.3403  -27.9421   20.1011 C   0  0  0  0  0  0  0  0  0  0  0  0
  -23.0917  -10.1292   20.8826 C   0  0  0  0  0  0  0  0  0  0  0  0
  -23.5085   -7.4146   21.3717 C   0  0  0  0  0  0  0  0  0  0  0  0
  -23.9416   -9.3941   20.0562 C   0  0  0  0  0  0  0  0  0  0  0  0
  -27.3345  -14.8595   20.7909 C   0  0  0  0  0  0  0  0  0  0  0  0
  -29.3274  -15.7499   20.5257 C   0  0  0  0  0  0  0  0  0  0  0  0
  -31.7106  -26.2257   17.1408 C   0  0  0  0  0  0  0  0  0  0  0  0
  -31.4161  -27.4737   17.5233 C   0  0  0  0  0  0  0  0  0  0  0  0
  -29.0609  -13.5139   19.4406 C   0  0  0  0  0  0  0  0  0  0  0  0
  -22.5216  -28.6530   22.4965 C   0  0  0  0  0  0  0  0  0  0  0  0
  -22.4363  -25.4563   23.0407 C   0  0  0  0  0  0  0  0  0  0  0  0
  -23.9795  -22.4261   22.7521 C   0  0  0  0  0  0  0  0  0  0  0  0
  -29.8230  -21.2735   21.0226 C   0  0  0  0  0  0  0  0  0  0  0  0
  -18.4373  -31.3078   24.0226 C   0  0  0  0  0  0  0  0  0  0  0  0
  -23.0423  -27.7385   20.2056 C   0  0  0  0  0  0  0  0  0  0  0  0
  -24.6505  -26.4174   22.3064 C   0  0  0  0  0  0  0  0  0  0  0  0
  -19.1793  -30.0675   24.5141 C   0  0  0  0  0  0  0  0  0  0  0  0
  -28.3381  -19.5270   23.7470 C   0  0  0  0  0  0  0  0  0  0  0  0
  -20.6793  -30.3356   24.5839 C   0  0  0  0  0  0  0  0  0  0  0  0
  -28.0483  -18.1384   23.1726 C   0  0  0  0  0  0  0  0  0  0  0  0
  -28.1173  -20.6270   22.7101 C   0  0  0  0  0  0  0  0  0  0  0  0
  -30.5778  -25.9254   19.1576 C   0  0  0  0  0  0  0  0  0  0  0  0
  -28.5423  -19.0484   20.8672 C   0  0  0  0  0  0  0  0  0  0  0  0
  -21.2451  -30.6702   23.1985 C   0  0  1  0  0  0  0  0  0  0  0  0
  -30.6782  -27.4460   18.8418 C   0  0  2  0  0  0  0  0  0  0  0  0
  -22.4737  -27.4539   21.5924 C   0  0  1  0  0  0  0  0  0  0  0  0
  -28.8134  -17.9024   21.8556 C   0  0  2  0  0  0  0  0  0  0  0  0
  -31.7681  -28.7345   16.8227 C   0  0  0  0  0  0  0  0  0  0  0  0
  -23.6813  -20.0012   23.3248 C   0  0  0  0  0  0  0  0  0  0  0  0
  -23.1400  -26.0590   25.9479 C   0  0  0  0  0  0  0  0  0  0  0  0
  -23.7539  -23.6478   26.2263 C   0  0  0  0  0  0  0  0  0  0  0  0
  -21.4122  -24.2772   25.6406 C   0  0  0  0  0  0  0  0  0  0  0  0
  -24.0443  -21.6257   19.9035 C   0  0  0  0  0  0  0  0  0  0  0  0
  -29.3099  -28.0965   18.7772 C   0  0  0  0  0  0  0  0  0  1  0  0
  -23.2280  -24.4958   23.8949 C   0  0  1  0  0  0  0  0  0  0  0  0
  -23.4712  -21.0786   22.2723 C   0  0  2  0  0  0  0  0  0  0  0  0
  -32.9192  -21.3627   15.5970 C   0  0  0  0  0  0  0  0  0  0  0  0
  -22.8960  -24.6358   25.4074 C   0  0  0  0  0  0  0  0  0  0  0  0
  -27.2672  -16.0280   21.4344 N   0  0  0  0  0  0  0  0  0  0  0  0
  -28.4943  -16.5459   21.2553 N   0  0  0  0  0  0  0  0  0  0  0  0
  -31.2662  -25.2767   18.0295 N   0  0  0  0  0  0  0  0  0  0  0  0
  -23.1792  -26.3713   22.2813 N   0  0  0  0  0  0  0  0  0  0  0  0
  -28.8761  -20.3383   21.4912 N   0  0  0  0  0  0  0  0  0  0  0  0
  -30.5968  -16.1186   20.2517 N   0  0  0  0  0  0  0  0  0  0  0  0
  -28.1778  -12.4515   19.2044 N   0  0  0  0  0  0  0  0  0  0  0  0
  -30.5064  -20.8759   19.8739 N   0  0  0  0  0  0  0  0  0  0  0  0
  -21.4064  -29.4648   22.4139 N   0  0  0  0  0  0  0  0  0  0  0  0
  -22.9806  -23.1654   23.3496 N   0  0  0  0  0  0  0  0  0  0  0  0
  -24.1853  -20.6679   21.0303 N   0  3  0  0  0  0  0  0  0  0  0  0
  -30.2314  -13.4500   18.9940 O   0  0  0  0  0  0  0  0  0  0  0  0
  -23.4973  -28.8280   23.2170 O   0  0  0  0  0  0  0  0  0  0  0  0
  -21.2044  -25.3923   23.0417 O   0  0  0  0  0  0  0  0  0  0  0  0
  -25.1467  -22.7853   22.6142 O   0  0  0  0  0  0  0  0  0  0  0  0
  -30.0329  -22.3361   21.6133 O   0  0  0  0  0  0  0  0  0  0  0  0
  -22.8844  -11.4771   20.6416 O   0  0  0  0  0  0  0  0  0  0  0  0
  -28.6993  -28.0031   20.0636 O   0  0  0  0  0  0  0  0  0  1  0  0
  -23.7097   -6.1115   21.6076 F   0  0  0  0  0  0  0  0  0  0  0  0
  -24.5615   -9.9867   19.0264 F   0  0  0  0  0  0  0  0  0  0  0  0
  -33.3727  -22.2835   14.6956 F   0  0  0  0  0  0  0  0  0  0  0  0
  -34.0199  -20.6317   15.9432 F   0  0  0  0  0  0  0  0  0  0  0  0
  -32.1248  -20.5126   14.8834 F   0  0  0  0  0  0  0  0  0  0  0  0
  1  2  1  0  0  0  0
  1  5  2  0  0  0  0
  2  6  2  0  0  0  0
  3  8  2  0  0  0  0
  3 18  1  0  0  0  0
  4  9  1  0  0  0  0
  4 18  2  0  0  0  0
  5 20  1  0  0  0  0
  6 22  1  0  0  0  0
  7 10  2  0  0  0  0
  7 21  1  0  0  0  0
  8 27  1  0  0  0  0
  9 27  2  0  0  0  0
 10 28  1  0  0  0  0
 11 12  2  0  0  0  0
 11 29  1  0  0  0  0
 12 30  1  0  0  0  0
 13 23  1  0  0  0  0
 13 28  2  0  0  0  0
 14 24  1  0  0  0  0
 14 25  2  0  0  0  0
 15 24  2  0  0  0  0
 15 26  1  0  0  0  0
 16 25  1  0  0  0  0
 16 26  2  0  0  0  0
 17 30  2  0  0  0  0
 17 31  1  0  0  0  0
 18 32  1  0  0  0  0
 19 32  1  0  0  0  0
 19 33  2  0  0  0  0
 19 36  1  0  0  0  0
 20 22  2  0  0  0  0
 20 41  1  0  0  0  0
 21 23  2  0  0  0  0
 21 42  1  0  0  0  0
 22 51  1  0  0  0  0
 23 43  1  0  0  0  0
 24 64  1  0  0  0  0
 25 68  1  0  0  0  0
 26 73  1  0  0  0  0
 27 82  1  0  0  0  0
 28 83  1  0  0  0  0
 29 31  2  0  0  0  0
 29 82  1  0  0  0  0
 30 84  1  0  0  0  0
 31 85  1  0  0  0  0
 32 66  2  0  0  0  0
 33 67  1  0  0  0  0
 33 71  1  0  0  0  0
 34 35  2  0  0  0  0
 34 68  1  0  0  0  0
 35 52  1  0  0  0  0
 35 55  1  0  0  0  0
 36 72  1  0  0  0  0
 36 77  2  0  0  0  0
 37 53  1  0  0  0  0
 37 74  1  0  0  0  0
 37 78  2  0  0  0  0
 38 62  1  0  0  0  0
 38 69  1  0  0  0  0
 38 79  2  0  0  0  0
 39 63  1  0  0  0  0
 39 75  1  0  0  0  0
 39 80  2  0  0  0  0
 40 70  1  0  0  0  0
 40 73  1  0  0  0  0
 40 81  2  0  0  0  0
 41 44  1  0  0  0  0
 42 53  1  0  0  0  0
 43 69  1  0  0  0  0
 44 46  1  0  0  0  0
 45 47  1  0  0  0  0
 45 48  1  0  0  0  0
 46 51  1  0  0  0  0
 47 54  1  0  0  0  0
 48 70  1  0  0  0  0
 49 52  1  0  0  0  0
 49 68  1  0  0  0  0
 50 54  1  0  0  0  0
 50 70  1  0  0  0  0
 51 74  1  0  0  0  0
 52 61  1  0  0  0  0
 53 69  1  0  0  0  0
 54 67  1  0  0  0  0
 56 63  1  0  0  0  0
 57 65  1  0  0  0  0
 58 65  1  0  0  0  0
 59 65  1  0  0  0  0
 60 76  1  0  0  0  0
 61 83  1  0  0  0  0
 62 65  1  0  0  0  0
 62 75  1  0  0  0  0
 63 76  1  0  0  0  0
 64 86  1  0  0  0  0
 64 87  1  0  0  0  0
 64 88  1  0  0  0  0
 66 67  1  0  0  0  0
M  CHG  1  76   1
M  ISO  4  40 100  61 101  73 100  83 101
M  END
> <Batch ID>
0068

> <Smiles>
CNC(C)C(=O)NC(C(=O)N1Cc2cc([101O:1][101CH2:1]C3CN(c4cc([100NH:0][100C:0](=O)N5CCCC(n6nc(-c7ccc(Oc8ccc(F)cc8F)cc7)c(C(N)=O)c6N)C5)cc(C(F)(F)F)c4)C=C3C)ccc2CC1C(=O)NC1CCCc2ccccc21)C(C)(C)C

> <Shape>
0.229

> <Color>
0.093

> <Negative vol penalty>
0.000

$$$$

  -OEChem-04042323273D

 86 95  0     1  0  0  0  0  0999 V2000
  -26.6014  -31.1164   28.8924 C   0  0  0  0  0  0  0  0  0  0  0  0
  -27.1462  -30.5274   27.7559 C   0  0  0  0  0  0  0  0  0  0  0  0
  -26.3979  -12.6472   21.4697 C   0  0  0  0  0  0  0  0  0  0  0  0
  -26.3418  -13.0682   19.0914 C   0  0  0  0  0  0  0  0  0  0  0  0
  -25.2200  -31.1178   29.0814 C   0  0  0  0  0  0  0  0  0  0  0  0
  -26.3099  -29.9383   26.8083 C   0  0  0  0  0  0  0  0  0  0  0  0
  -27.1347  -29.8126   20.7412 C   0  0  0  0  0  0  0  0  0  0  0  0
  -25.1154  -12.1027   21.4036 C   0  0  0  0  0  0  0  0  0  0  0  0
  -25.0593  -12.5236   19.0252 C   0  0  0  0  0  0  0  0  0  0  0  0
  -27.6462  -28.8392   19.8840 C   0  0  0  0  0  0  0  0  0  0  0  0
  -23.6949   -9.1814   20.4649 C   0  0  0  0  0  0  0  0  0  0  0  0
  -23.4626   -7.9856   21.1443 C   0  0  0  0  0  0  0  0  0  0  0  0
  -25.4038  -28.0854   19.4120 C   0  0  0  0  0  0  0  0  0  0  0  0
  -29.4575  -26.0666   15.9145 C   0  0  0  0  0  0  0  0  0  0  0  0
  -29.2782  -21.9284   14.9315 C   0  0  0  0  0  0  0  0  0  0  0  0
  -29.8166  -21.6945   17.2750 C   0  0  0  0  0  0  0  0  0  0  0  0
  -29.6946  -19.7383   15.8625 C   0  0  0  0  0  0  0  0  0  0  0  0
  -21.7673   -9.0730   22.4786 C   0  0  0  0  0  0  0  0  0  0  0  0
  -27.0110  -13.1300   20.3136 C   0  0  0  0  0  0  0  0  0  0  0  0
  -29.5580  -13.0111   20.2316 C   0  0  0  0  0  0  0  0  0  0  0  0
  -24.3657  -30.5369   28.1309 C   0  0  0  0  0  0  0  0  0  0  0  0
  -25.7523  -29.9228   20.9489 C   0  0  0  0  0  0  0  0  0  0  0  0
  -24.9159  -29.9306   26.9854 C   0  0  0  0  0  0  0  0  0  0  0  0
  -24.8772  -29.0627   20.2702 C   0  0  0  0  0  0  0  0  0  0  0  0
  -29.0409  -25.8816   17.2559 C   0  0  0  0  0  0  0  0  0  0  0  0
  -29.4983  -22.5025   16.1835 C   0  0  0  0  0  0  0  0  0  0  0  0
  -29.3762  -20.5463   14.7710 C   0  0  0  0  0  0  0  0  0  0  0  0
  -29.9148  -20.3123   17.1146 C   0  0  0  0  0  0  0  0  0  0  0  0
  -24.4461  -12.0409   20.1814 C   0  0  0  0  0  0  0  0  0  0  0  0
  -26.7809  -27.9735   19.2215 C   0  0  0  0  0  0  0  0  0  0  0  0
  -22.9635  -10.3231   20.7924 C   0  0  0  0  0  0  0  0  0  0  0  0
  -22.4988   -7.9314   22.1512 C   0  0  0  0  0  0  0  0  0  0  0  0
  -21.9997  -10.2689   21.7992 C   0  0  0  0  0  0  0  0  0  0  0  0
  -28.3356  -13.6931   20.3814 C   0  0  0  0  0  0  0  0  0  0  0  0
  -30.5150  -13.9850   20.3806 C   0  0  0  0  0  0  0  0  0  0  0  0
  -29.6722  -24.8177   15.3746 C   0  0  0  0  0  0  0  0  0  0  0  0
  -29.0138  -24.5253   17.4949 C   0  0  0  0  0  0  0  0  0  0  0  0
  -29.8061  -11.6215   19.9803 C   0  0  0  0  0  0  0  0  0  0  0  0
  -23.8321  -29.6341   23.4655 C   0  0  0  0  0  0  0  0  0  0  0  0
  -21.5742  -30.6477   21.3685 C   0  0  0  0  0  0  0  0  0  0  0  0
  -20.5619  -30.9515   18.1236 C   0  0  0  0  0  0  0  0  0  0  0  0
  -30.4866  -19.8998   19.5331 C   0  0  0  0  0  0  0  0  0  0  0  0
  -22.8822  -30.5210   28.4019 C   0  0  0  0  0  0  0  0  0  0  0  0
  -25.2149  -30.9955   21.8560 C   0  0  0  0  0  0  0  0  0  0  0  0
  -23.3838  -29.1528   20.4432 C   0  0  0  0  0  0  0  0  0  0  0  0
  -22.0409  -30.2064   27.1676 C   0  0  0  0  0  0  0  0  0  0  0  0
  -31.2776  -18.1850   22.5515 C   0  0  0  0  0  0  0  0  0  0  0  0
  -22.6188  -29.0098   26.4185 C   0  0  0  0  0  0  0  0  0  0  0  0
  -30.7296  -16.7747   22.3215 C   0  0  0  0  0  0  0  0  0  0  0  0
  -30.3779  -19.2515   21.9295 C   0  0  0  0  0  0  0  0  0  0  0  0
  -29.5163  -17.6378   20.2794 C   0  0  0  0  0  0  0  0  0  0  0  0
  -24.0399  -29.3033   25.9227 C   0  0  1  0  0  0  0  0  0  0  0  0
  -23.8203  -30.6832   22.3899 C   0  0  1  0  0  0  0  0  0  0  0  0
  -30.4225  -16.5254   20.8318 C   0  0  2  0  0  0  0  0  0  0  0  0
  -18.6534  -31.7886   16.7256 C   0  0  0  0  0  0  0  0  0  0  0  0
  -19.9373  -28.1897   22.1358 C   0  0  0  0  0  0  0  0  0  0  0  0
  -18.5507  -28.5588   20.0841 C   0  0  0  0  0  0  0  0  0  0  0  0
  -18.6058  -30.2910   21.8783 C   0  0  0  0  0  0  0  0  0  0  0  0
  -22.2870  -32.9169   16.7378 C   0  0  0  0  0  0  0  0  0  0  0  0
  -28.6953  -26.9672   18.2324 C   0  0  0  0  0  0  0  0  0  1  0  0
  -20.6328  -29.9713   20.4014 C   0  0  1  0  0  0  0  0  0  0  0  0
  -19.9971  -32.1297   17.3507 C   0  0  2  0  0  0  0  0  0  0  0  0
  -19.4599  -29.2495   21.1229 C   0  0  0  0  0  0  0  0  0  0  0  0
  -28.4983  -14.9993   20.6082 N   0  0  0  0  0  0  0  0  0  0  0  0
  -29.3997  -23.8885   16.3444 N   0  0  0  0  0  0  0  0  0  0  0  0
  -29.8342  -15.1458   20.6022 N   0  0  0  0  0  0  0  0  0  0  0  0
  -22.9073  -30.2140   21.3456 N   0  0  0  0  0  0  0  0  0  0  0  0
  -30.1339  -18.9519   20.5168 N   0  0  0  0  0  0  0  0  0  0  0  0
  -29.1533  -19.9654   13.5051 N   0  0  0  0  0  0  0  0  0  0  0  0
  -31.8640  -13.9529   20.3424 N   0  0  0  0  0  0  0  0  0  0  0  0
  -28.7087  -10.7589   19.8542 N   0  0  0  0  0  0  0  0  0  0  0  0
  -30.2379  -19.4912   18.2232 N   0  0  0  0  0  0  0  0  0  0  0  0
  -24.0007  -30.1379   24.7411 N   0  0  0  0  0  0  0  0  0  0  0  0
  -20.2108  -30.9993   19.4561 N   0  0  0  0  0  0  0  0  0  0  0  0
  -20.9330  -32.5321   16.2629 N   0  3  0  0  0  0  0  0  0  0  0  0
  -30.9671  -11.1556   19.8870 O   0  0  0  0  0  0  0  0  0  0  0  0
  -23.6966  -28.4549   23.1607 O   0  0  0  0  0  0  0  0  0  0  0  0
  -21.1442  -31.5333   22.1117 O   0  0  0  0  0  0  0  0  0  0  0  0
  -21.2431  -30.0744   17.5970 O   0  0  0  0  0  0  0  0  0  0  0  0
  -30.9986  -20.9825   19.8291 O   0  0  0  0  0  0  0  0  0  0  0  0
  -30.0687  -24.4623   14.1584 O   0  0  0  0  0  0  0  0  0  0  0  0
  -28.6943  -23.8466   18.5910 O   0  0  0  0  0  0  0  0  0  0  0  0
  -23.1948  -11.5094   20.1164 O   0  0  0  0  0  0  0  0  0  0  0  0
  -27.2775  -27.0221   18.3848 O   0  0  0  0  0  0  0  0  0  1  0  0
  -22.2747   -6.7826   22.8025 F   0  0  0  0  0  0  0  0  0  0  0  0
  -21.2930  -11.3621   22.1175 F   0  0  0  0  0  0  0  0  0  0  0  0
  1  2  1  0  0  0  0
  1  5  2  0  0  0  0
  2  6  2  0  0  0  0
  3  8  2  0  0  0  0
  3 19  1  0  0  0  0
  4  9  1  0  0  0  0
  4 19  2  0  0  0  0
  5 21  1  0  0  0  0
  6 23  1  0  0  0  0
  7 10  2  0  0  0  0
  7 22  1  0  0  0  0
  8 29  1  0  0  0  0
  9 29  2  0  0  0  0
 10 30  1  0  0  0  0
 11 12  2  0  0  0  0
 11 31  1  0  0  0  0
 12 32  1  0  0  0  0
 13 24  1  0  0  0  0
 13 30  2  0  0  0  0
 14 25  1  0  0  0  0
 14 36  2  0  0  0  0
 15 26  1  0  0  0  0
 15 27  2  0  0  0  0
 16 26  2  0  0  0  0
 16 28  1  0  0  0  0
 17 27  1  0  0  0  0
 17 28  2  0  0  0  0
 18 32  2  0  0  0  0
 18 33  1  0  0  0  0
 19 34  1  0  0  0  0
 20 34  1  0  0  0  0
 20 35  2  0  0  0  0
 20 38  1  0  0  0  0
 21 23  2  0  0  0  0
 21 43  1  0  0  0  0
 22 24  2  0  0  0  0
 22 44  1  0  0  0  0
 23 52  1  0  0  0  0
 24 45  1  0  0  0  0
 25 37  2  0  0  0  0
 25 60  1  0  0  0  0
 26 65  1  0  0  0  0
 27 69  1  0  0  0  0
 28 72  1  0  0  0  0
 29 83  1  0  0  0  0
 30 84  1  0  0  0  0
 31 33  2  0  0  0  0
 31 83  1  0  0  0  0
 32 85  1  0  0  0  0
 33 86  1  0  0  0  0
 34 64  2  0  0  0  0
 35 66  1  0  0  0  0
 35 70  1  0  0  0  0
 36 65  1  0  0  0  0
 36 81  1  0  0  0  0
 37 65  1  0  0  0  0
 37 82  1  0  0  0  0
 38 71  1  0  0  0  0
 38 76  2  0  0  0  0
 39 53  1  0  0  0  0
 39 73  1  0  0  0  0
 39 77  2  0  0  0  0
 40 61  1  0  0  0  0
 40 67  1  0  0  0  0
 40 78  2  0  0  0  0
 41 62  1  0  0  0  0
 41 74  1  0  0  0  0
 41 79  2  0  0  0  0
 42 68  1  0  0  0  0
 42 72  1  0  0  0  0
 42 80  2  0  0  0  0
 43 46  1  0  0  0  0
 44 53  1  0  0  0  0
 45 67  1  0  0  0  0
 46 48  1  0  0  0  0
 47 49  1  0  0  0  0
 47 50  1  0  0  0  0
 48 52  1  0  0  0  0
 49 54  1  0  0  0  0
 50 68  1  0  0  0  0
 51 54  1  0  0  0  0
 51 68  1  0  0  0  0
 52 73  1  0  0  0  0
 53 67  1  0  0  0  0
 54 66  1  0  0  0  0
 55 62  1  0  0  0  0
 56 63  1  0  0  0  0
 57 63  1  0  0  0  0
 58 63  1  0  0  0  0
 59 75  1  0  0  0  0
 60 84  1  0  0  0  0
 61 63  1  0  0  0  0
 61 74  1  0  0  0  0
 62 75  1  0  0  0  0
 64 66  1  0  0  0  0
M  CHG  1  75   1
M  ISO  4  42 100  60 101  72 100  84 101
M  END
> <Batch ID>
0068

> <Smiles>
CNC(C)C(=O)NC(C(=O)N1Cc2cc([101O:1][101CH2:1]C3CC(=O)N(c4cc(N)cc([100NH:0][100C:0](=O)N5CCCC(n6nc(-c7ccc(Oc8ccc(F)cc8F)cc7)c(C(N)=O)c6N)C5)c4)C3=O)ccc2CC1C(=O)NC1CCCc2ccccc21)C(C)(C)C

> <Shape>
0.268

> <Color>
0.083

> <Negative vol penalty>
0.000

$$$$

  -OEChem-04042323273D

 83 91  0     1  0  0  0  0  0999 V2000
  -26.4116   -3.0934   29.5230 C   0  0  0  0  0  0  0  0  0  0  0  0
  -27.2811   -4.1780   29.4691 C   0  0  0  0  0  0  0  0  0  0  0  0
  -23.1902   -9.8195   19.9318 C   0  0  0  0  0  0  0  0  0  0  0  0
  -23.5704   -9.9990   22.3109 C   0  0  0  0  0  0  0  0  0  0  0  0
  -33.3883  -11.7948   25.1071 C   0  0  0  0  0  0  0  0  0  0  0  0
  -25.0428   -3.2892   29.3448 C   0  0  0  0  0  0  0  0  0  0  0  0
  -26.7823   -5.4591   29.2357 C   0  0  0  0  0  0  0  0  0  0  0  0
  -28.8095   -8.9252   32.3214 C   0  0  0  0  0  0  0  0  0  0  0  0
  -32.6604  -12.1060   23.9587 C   0  0  0  0  0  0  0  0  0  0  0  0
  -22.4244   -8.6726   20.1406 C   0  0  0  0  0  0  0  0  0  0  0  0
  -22.8045   -8.8520   22.5198 C   0  0  0  0  0  0  0  0  0  0  0  0
  -30.0926   -9.3770   32.0160 C   0  0  0  0  0  0  0  0  0  0  0  0
  -23.2063   -5.5055   22.2539 C   0  0  0  0  0  0  0  0  0  0  0  0
  -23.7056   -4.5440   23.1323 C   0  0  0  0  0  0  0  0  0  0  0  0
  -29.1498  -11.3586   31.0141 C   0  0  0  0  0  0  0  0  0  0  0  0
  -30.7007  -12.5145   25.3115 C   0  0  0  0  0  0  0  0  0  0  0  0
  -21.7501   -4.8028   24.5274 C   0  0  0  0  0  0  0  0  0  0  0  0
  -23.7633  -10.4827   21.0169 C   0  0  0  0  0  0  0  0  0  0  0  0
  -32.7724  -11.8433   26.3577 C   0  0  0  0  0  0  0  0  0  0  0  0
  -24.1011  -12.9995   20.7740 C   0  0  0  0  0  0  0  0  0  0  0  0
  -24.5259   -4.5746   29.1187 C   0  0  0  0  0  0  0  0  0  0  0  0
  -27.6845   -9.6828   31.9652 C   0  0  0  0  0  0  0  0  0  0  0  0
  -25.4054   -5.6721   29.0529 C   0  0  0  0  0  0  0  0  0  0  0  0
  -27.8536  -10.9154   31.3185 C   0  0  0  0  0  0  0  0  0  0  0  0
  -31.3166  -12.4659   24.0608 C   0  0  0  0  0  0  0  0  0  0  0  0
  -22.2315   -8.1888   21.4346 C   0  0  0  0  0  0  0  0  0  0  0  0
  -30.2628  -10.5924   31.3596 C   0  0  0  0  0  0  0  0  0  0  0  0
  -21.9789   -6.1159   22.5123 C   0  0  0  0  0  0  0  0  0  0  0  0
  -22.9776   -4.1926   24.2690 C   0  0  0  0  0  0  0  0  0  0  0  0
  -31.4286  -12.2032   26.4599 C   0  0  0  0  0  0  0  0  0  0  0  0
  -21.2508   -5.7645   23.6490 C   0  0  0  0  0  0  0  0  0  0  0  0
  -24.5549  -11.6672   20.8017 C   0  0  0  0  0  0  0  0  0  0  0  0
  -25.2319  -13.7426   20.5381 C   0  0  0  0  0  0  0  0  0  0  0  0
  -33.5456  -11.5127   27.5716 C   0  0  0  0  0  0  0  0  0  0  0  0
  -22.7759  -13.5190   20.9461 C   0  0  0  0  0  0  0  0  0  0  0  0
  -25.1718   -9.2151   30.0755 C   0  0  0  0  0  0  0  0  0  0  0  0
  -24.2011  -12.0501   31.3176 C   0  0  0  0  0  0  0  0  0  0  0  0
  -25.0472  -15.0052   32.8002 C   0  0  0  0  0  0  0  0  0  0  0  0
  -31.0374  -12.7831   21.5773 C   0  0  0  0  0  0  0  0  0  0  0  0
  -23.0441   -4.7304   28.8848 C   0  0  0  0  0  0  0  0  0  0  0  0
  -26.3084   -9.1942   32.3257 C   0  0  0  0  0  0  0  0  0  0  0  0
  -26.6794  -11.7761   30.9326 C   0  0  0  0  0  0  0  0  0  0  0  0
  -22.5550   -6.1706   29.0150 C   0  0  0  0  0  0  0  0  0  0  0  0
  -29.5223  -13.4656   18.4284 C   0  0  0  0  0  0  0  0  0  0  0  0
  -23.4773   -7.1183   28.2549 C   0  0  0  0  0  0  0  0  0  0  0  0
  -28.0344  -13.2090   18.6788 C   0  0  0  0  0  0  0  0  0  0  0  0
  -30.4043  -12.4805   19.1935 C   0  0  0  0  0  0  0  0  0  0  0  0
  -28.6459  -12.1379   20.8846 C   0  0  0  0  0  0  0  0  0  0  0  0
  -24.8998   -7.0804   28.8265 C   0  0  1  0  0  0  0  0  0  0  0  0
  -25.2117   -9.8032   31.4576 C   0  0  1  0  0  0  0  0  0  0  0  0
  -27.7192  -13.1464   20.1862 C   0  0  2  0  0  0  0  0  0  0  0  0
  -24.0403  -17.1361   33.6621 C   0  0  0  0  0  0  0  0  0  0  0  0
  -23.8676  -13.0481   28.4535 C   0  0  0  0  0  0  0  0  0  0  0  0
  -23.7961  -15.3847   29.3500 C   0  0  0  0  0  0  0  0  0  0  0  0
  -22.0436  -13.7400   30.0184 C   0  0  0  0  0  0  0  0  0  0  0  0
  -26.0082  -14.4831   35.5503 C   0  0  0  0  0  0  0  0  0  0  0  0
  -33.5531  -10.6088   29.8693 C   0  0  0  0  0  0  0  0  0  0  0  0
  -32.5124  -10.0455   30.8156 C   0  0  0  0  0  0  0  0  0  1  0  0
  -24.3849  -13.5007   30.9422 C   0  0  1  0  0  0  0  0  0  0  0  0
  -24.4803  -15.7229   34.0118 C   0  0  2  0  0  0  0  0  0  0  0  0
  -23.5453  -13.9015   29.6964 C   0  0  0  0  0  0  0  0  0  0  0  0
  -25.8713  -11.5666   20.5995 N   0  0  0  0  0  0  0  0  0  0  0  0
  -26.2544  -12.8451   20.4423 N   0  0  0  0  0  0  0  0  0  0  0  0
  -25.3539  -11.2522   31.3011 N   0  0  0  0  0  0  0  0  0  0  0  0
  -30.0517  -12.4783   20.6150 N   0  0  0  0  0  0  0  0  0  0  0  0
  -25.4414  -15.0696   20.4052 N   0  0  0  0  0  0  0  0  0  0  0  0
  -34.8546  -11.7646   27.5705 N   0  0  0  0  0  0  0  0  0  0  0  0
  -21.7296  -12.6164   21.1806 N   0  0  0  0  0  0  0  0  0  0  0  0
  -30.5777  -12.7821   22.8938 N   0  0  0  0  0  0  0  0  0  0  0  0
  -24.9729   -7.8479   30.0513 N   0  0  0  0  0  0  0  0  0  0  0  0
  -24.0814  -14.2743   32.1413 N   0  0  0  0  0  0  0  0  0  0  0  0
  -32.8971  -10.9751   28.6116 N   0  3  0  0  0  0  0  0  0  0  0  0
  -25.5037  -15.8032   35.0922 N   0  3  0  0  0  0  0  0  0  0  0  0
  -22.5243  -14.7460   20.8772 O   0  0  0  0  0  0  0  0  0  0  0  0
  -25.3098   -9.9478   29.1029 O   0  0  0  0  0  0  0  0  0  0  0  0
  -23.0775  -11.6417   31.6213 O   0  0  0  0  0  0  0  0  0  0  0  0
  -26.2279  -15.0879   32.4691 O   0  0  0  0  0  0  0  0  0  0  0  0
  -32.1972  -13.0536   21.2551 O   0  0  0  0  0  0  0  0  0  0  0  0
  -21.4841   -7.0698   21.6388 O   0  0  0  0  0  0  0  0  0  0  0  0
  -31.5140  -11.0355   31.0597 O   0  0  0  0  0  0  0  0  0  1  0  0
  -23.4565   -3.2680   25.1116 F   0  0  0  0  0  0  0  0  0  0  0  0
  -30.8276  -12.2508   27.6571 F   0  0  0  0  0  0  0  0  0  0  0  0
  -20.0705   -6.3465   23.9018 F   0  0  0  0  0  0  0  0  0  0  0  0
  1  2  1  0  0  0  0
  1  6  2  0  0  0  0
  2  7  2  0  0  0  0
  3 10  2  0  0  0  0
  3 18  1  0  0  0  0
  4 11  1  0  0  0  0
  4 18  2  0  0  0  0
  5  9  2  0  0  0  0
  5 19  1  0  0  0  0
  6 21  1  0  0  0  0
  7 23  1  0  0  0  0
  8 12  2  0  0  0  0
  8 22  1  0  0  0  0
  9 25  1  0  0  0  0
 10 26  1  0  0  0  0
 11 26  2  0  0  0  0
 12 27  1  0  0  0  0
 13 14  2  0  0  0  0
 13 28  1  0  0  0  0
 14 29  1  0  0  0  0
 15 24  1  0  0  0  0
 15 27  2  0  0  0  0
 16 25  2  0  0  0  0
 16 30  1  0  0  0  0
 17 29  2  0  0  0  0
 17 31  1  0  0  0  0
 18 32  1  0  0  0  0
 19 30  2  0  0  0  0
 19 34  1  0  0  0  0
 20 32  1  0  0  0  0
 20 33  2  0  0  0  0
 20 35  1  0  0  0  0
 21 23  2  0  0  0  0
 21 40  1  0  0  0  0
 22 24  2  0  0  0  0
 22 41  1  0  0  0  0
 23 49  1  0  0  0  0
 24 42  1  0  0  0  0
 25 69  1  0  0  0  0
 26 79  1  0  0  0  0
 27 80  1  0  0  0  0
 28 31  2  0  0  0  0
 28 79  1  0  0  0  0
 29 81  1  0  0  0  0
 30 82  1  0  0  0  0
 31 83  1  0  0  0  0
 32 62  2  0  0  0  0
 33 63  1  0  0  0  0
 33 66  1  0  0  0  0
 34 67  1  0  0  0  0
 34 72  2  0  0  0  0
 35 68  1  0  0  0  0
 35 74  2  0  0  0  0
 36 50  1  0  0  0  0
 36 70  1  0  0  0  0
 36 75  2  0  0  0  0
 37 59  1  0  0  0  0
 37 64  1  0  0  0  0
 37 76  2  0  0  0  0
 38 60  1  0  0  0  0
 38 71  1  0  0  0  0
 38 77  2  0  0  0  0
 39 65  1  0  0  0  0
 39 69  1  0  0  0  0
 39 78  2  0  0  0  0
 40 43  1  0  0  0  0
 41 50  1  0  0  0  0
 42 64  1  0  0  0  0
 43 45  1  0  0  0  0
 44 46  1  0  0  0  0
 44 47  1  0  0  0  0
 45 49  1  0  0  0  0
 46 51  1  0  0  0  0
 47 65  1  0  0  0  0
 48 51  1  0  0  0  0
 48 65  1  0  0  0  0
 49 70  1  0  0  0  0
 50 64  1  0  0  0  0
 51 63  1  0  0  0  0
 52 60  1  0  0  0  0
 53 61  1  0  0  0  0
 54 61  1  0  0  0  0
 55 61  1  0  0  0  0
 56 73  1  0  0  0  0
 57 58  1  0  0  0  0
 57 72  1  0  0  0  0
 58 80  1  0  0  0  0
 59 61  1  0  0  0  0
 59 71  1  0  0  0  0
 60 73  1  0  0  0  0
 62 63  1  0  0  0  0
M  CHG  2  72   1  73   1
M  ISO  4  39 100  58 101  69 100  80 101
M  END
> <Batch ID>
0068

> <Smiles>
CNC(C)C(=O)NC(C(=O)N1Cc2cc([101O:1][101CH2:1]CNC(=N)c3ccc([100NH:0][100C:0](=O)N4CCCC(n5nc(-c6ccc(Oc7ccc(F)cc7F)cc6)c(C(N)=O)c5N)C4)cc3F)ccc2CC1C(=O)NC1CCCc2ccccc21)C(C)(C)C

> <Shape>
0.140

> <Color>
0.178

> <Negative vol penalty>
0.000

$$$$

  -OEChem-04042323273D

 85 93  0     1  0  0  0  0  0999 V2000
  -20.6621  -31.6874   22.1478 C   0  0  0  0  0  0  0  0  0  0  0  0
  -21.4763  -30.6423   22.5723 C   0  0  0  0  0  0  0  0  0  0  0  0
  -23.2173   -9.7353   21.0906 C   0  0  0  0  0  0  0  0  0  0  0  0
  -23.8918  -10.5001   23.2808 C   0  0  0  0  0  0  0  0  0  0  0  0
  -19.2789  -31.5977   22.2989 C   0  0  0  0  0  0  0  0  0  0  0  0
  -20.9078  -29.5072   23.1493 C   0  0  0  0  0  0  0  0  0  0  0  0
  -22.9043  -25.2112   21.3597 C   0  0  0  0  0  0  0  0  0  0  0  0
  -22.5241   -8.6749   21.6743 C   0  0  0  0  0  0  0  0  0  0  0  0
  -23.1986   -9.4398   23.8645 C   0  0  0  0  0  0  0  0  0  0  0  0
  -24.1499  -24.8319   21.8581 C   0  0  0  0  0  0  0  0  0  0  0  0
  -23.2528   -5.6516   22.9984 C   0  0  0  0  0  0  0  0  0  0  0  0
  -23.4058   -4.3871   22.4299 C   0  0  0  0  0  0  0  0  0  0  0  0
  -23.0714  -23.2743   23.3514 C   0  0  0  0  0  0  0  0  0  0  0  0
  -31.7511  -17.4726   21.6289 C   0  0  0  0  0  0  0  0  0  0  0  0
  -21.0303   -4.2932   21.9992 C   0  0  0  0  0  0  0  0  0  0  0  0
  -23.9012  -10.6479   21.8938 C   0  0  0  0  0  0  0  0  0  0  0  0
  -24.1189  -13.0262   20.9971 C   0  0  0  0  0  0  0  0  0  0  0  0
  -18.6926  -30.4568   22.8692 C   0  0  0  0  0  0  0  0  0  0  0  0
  -21.7302  -24.6317   21.8620 C   0  0  0  0  0  0  0  0  0  0  0  0
  -19.5157  -29.4027   23.3094 C   0  0  0  0  0  0  0  0  0  0  0  0
  -21.8123  -23.6461   22.8559 C   0  0  0  0  0  0  0  0  0  0  0  0
  -30.3742  -17.3270   21.4599 C   0  0  0  0  0  0  0  0  0  0  0  0
  -30.0206  -19.4889   22.4790 C   0  0  0  0  0  0  0  0  0  0  0  0
  -22.5148   -8.5272   23.0613 C   0  0  0  0  0  0  0  0  0  0  0  0
  -24.2334  -23.8654   22.8561 C   0  0  0  0  0  0  0  0  0  0  0  0
  -21.9885   -6.2369   23.0673 C   0  0  0  0  0  0  0  0  0  0  0  0
  -22.2946   -3.7079   21.9303 C   0  0  0  0  0  0  0  0  0  0  0  0
  -32.2628  -18.6262   22.2230 C   0  0  0  0  0  0  0  0  0  0  0  0
  -20.8773   -5.5577   22.5677 C   0  0  0  0  0  0  0  0  0  0  0  0
  -29.5090  -18.3352   21.8849 C   0  0  0  0  0  0  0  0  0  0  0  0
  -31.3976  -19.6344   22.6480 C   0  0  0  0  0  0  0  0  0  0  0  0
  -24.6179  -11.7431   21.2913 C   0  0  0  0  0  0  0  0  0  0  0  0
  -25.1842  -13.6891   20.4384 C   0  0  0  0  0  0  0  0  0  0  0  0
  -27.2916  -21.9872   23.1084 C   0  0  0  0  0  0  0  0  0  0  0  0
  -26.0967  -22.4567   22.7355 C   0  0  0  0  0  0  0  0  0  1  0  0
  -22.8095  -13.5702   21.2099 C   0  0  0  0  0  0  0  0  0  0  0  0
  -27.9083  -20.8475   22.3687 C   0  0  0  0  0  0  0  0  0  0  0  0
  -19.1611  -25.7255   23.3808 C   0  0  0  0  0  0  0  0  0  0  0  0
  -18.1139  -22.6803   22.9899 C   0  0  0  0  0  0  0  0  0  0  0  0
  -18.8848  -19.3909   22.5082 C   0  0  0  0  0  0  0  0  0  0  0  0
  -30.5805  -15.0602   20.3804 C   0  0  0  0  0  0  0  0  0  0  0  0
  -17.1962  -30.4256   23.0550 C   0  0  0  0  0  0  0  0  0  0  0  0
  -20.3960  -25.0325   21.2950 C   0  0  0  0  0  0  0  0  0  0  0  0
  -20.5829  -22.9789   23.4145 C   0  0  0  0  0  0  0  0  0  0  0  0
  -16.6461  -29.0292   23.3337 C   0  0  0  0  0  0  0  0  0  0  0  0
  -29.6767  -11.9679   18.8645 C   0  0  0  0  0  0  0  0  0  0  0  0
  -17.4882  -28.3253   24.3931 C   0  0  0  0  0  0  0  0  0  0  0  0
  -28.2389  -11.7393   19.3365 C   0  0  0  0  0  0  0  0  0  0  0  0
  -30.5347  -12.6130   19.9514 C   0  0  0  0  0  0  0  0  0  0  0  0
  -28.5444  -13.6163   21.0010 C   0  0  0  0  0  0  0  0  0  0  0  0
  -18.9348  -28.1445   23.9174 C   0  0  1  0  0  0  0  0  0  0  0  0
  -19.2344  -24.7479   22.2421 C   0  0  1  0  0  0  0  0  0  0  0  0
  -27.6252  -13.0279   19.9183 C   0  0  2  0  0  0  0  0  0  0  0  0
  -17.8178  -17.1324   22.2670 C   0  0  0  0  0  0  0  0  0  0  0  0
  -17.6072  -22.6012   25.9977 C   0  0  0  0  0  0  0  0  0  0  0  0
  -17.4656  -20.1067   25.8379 C   0  0  0  0  0  0  0  0  0  0  0  0
  -15.8238  -21.5286   24.6108 C   0  0  0  0  0  0  0  0  0  0  0  0
  -19.9902  -19.0308   19.7865 C   0  0  0  0  0  0  0  0  0  0  0  0
  -18.2124  -21.4048   23.7913 C   0  0  1  0  0  0  0  0  0  0  0  0
  -18.3390  -18.3602   21.5365 C   0  0  2  0  0  0  0  0  0  0  0  0
  -17.3005  -21.4241   25.0505 C   0  0  0  0  0  0  0  0  0  0  0  0
  -25.9004  -11.5973   20.9478 N   0  0  0  0  0  0  0  0  0  0  0  0
  -26.2162  -12.7974   20.4319 N   0  0  0  0  0  0  0  0  0  0  0  0
  -19.3011  -23.4094   22.8321 N   0  0  0  0  0  0  0  0  0  0  0  0
  -29.8926  -13.8304   20.4521 N   0  0  0  0  0  0  0  0  0  0  0  0
  -25.3295  -14.9419   19.9570 N   0  0  0  0  0  0  0  0  0  0  0  0
  -21.8333  -12.7524   21.7953 N   0  0  0  0  0  0  0  0  0  0  0  0
  -29.1423  -20.5132   22.9103 N   0  0  0  0  0  0  0  0  0  0  0  0
  -29.8577  -16.1537   20.8564 N   0  0  0  0  0  0  0  0  0  0  0  0
  -19.0259  -27.0422   22.9841 N   0  0  0  0  0  0  0  0  0  0  0  0
  -17.9262  -20.3163   22.8630 N   0  0  0  0  0  0  0  0  0  0  0  0
  -19.4043  -17.9264   20.5889 N   0  3  0  0  0  0  0  0  0  0  0  0
  -22.5093  -14.7413   20.8754 O   0  0  0  0  0  0  0  0  0  0  0  0
  -27.3392  -20.3258   21.4171 O   0  0  0  0  0  0  0  0  0  0  0  0
  -19.2211  -25.3154   24.5340 O   0  0  0  0  0  0  0  0  0  0  0  0
  -17.0253  -23.0137   22.5152 O   0  0  0  0  0  0  0  0  0  0  0  0
  -20.0445  -19.3743   22.9149 O   0  0  0  0  0  0  0  0  0  0  0  0
  -31.7159  -15.1420   19.9048 O   0  0  0  0  0  0  0  0  0  0  0  0
  -21.8383   -7.4928   23.6313 O   0  0  0  0  0  0  0  0  0  0  0  0
  -25.4479  -23.4938   23.3448 O   0  0  0  0  0  0  0  0  0  1  0  0
  -22.4419   -2.4942   21.3831 F   0  0  0  0  0  0  0  0  0  0  0  0
  -33.5849  -18.7664   22.3848 F   0  0  0  0  0  0  0  0  0  0  0  0
  -19.6604   -6.1155   22.6301 F   0  0  0  0  0  0  0  0  0  0  0  0
  -28.1844  -18.1955   21.7215 F   0  0  0  0  0  0  0  0  0  0  0  0
  -31.9006  -20.7383   23.2186 F   0  0  0  0  0  0  0  0  0  0  0  0
  1  2  1  0  0  0  0
  1  5  2  0  0  0  0
  2  6  2  0  0  0  0
  3  8  2  0  0  0  0
  3 16  1  0  0  0  0
  4  9  1  0  0  0  0
  4 16  2  0  0  0  0
  5 18  1  0  0  0  0
  6 20  1  0  0  0  0
  7 10  2  0  0  0  0
  7 19  1  0  0  0  0
  8 24  1  0  0  0  0
  9 24  2  0  0  0  0
 10 25  1  0  0  0  0
 11 12  2  0  0  0  0
 11 26  1  0  0  0  0
 12 27  1  0  0  0  0
 13 21  1  0  0  0  0
 13 25  2  0  0  0  0
 14 22  2  0  0  0  0
 14 28  1  0  0  0  0
 15 27  2  0  0  0  0
 15 29  1  0  0  0  0
 16 32  1  0  0  0  0
 17 32  1  0  0  0  0
 17 33  2  0  0  0  0
 17 36  1  0  0  0  0
 18 20  2  0  0  0  0
 18 42  1  0  0  0  0
 19 21  2  0  0  0  0
 19 43  1  0  0  0  0
 20 51  1  0  0  0  0
 21 44  1  0  0  0  0
 22 30  1  0  0  0  0
 22 69  1  0  0  0  0
 23 30  2  0  0  0  0
 23 31  1  0  0  0  0
 23 68  1  0  0  0  0
 24 79  1  0  0  0  0
 25 80  1  0  0  0  0
 26 29  2  0  0  0  0
 26 79  1  0  0  0  0
 27 81  1  0  0  0  0
 28 31  2  0  0  0  0
 28 82  1  0  0  0  0
 29 83  1  0  0  0  0
 30 84  1  0  0  0  0
 31 85  1  0  0  0  0
 32 62  2  0  0  0  0
 33 63  1  0  0  0  0
 33 66  1  0  0  0  0
 34 35  2  0  0  0  0
 34 37  1  0  0  0  0
 35 80  1  0  0  0  0
 36 67  1  0  0  0  0
 36 73  2  0  0  0  0
 37 68  1  0  0  0  0
 37 74  2  0  0  0  0
 38 52  1  0  0  0  0
 38 70  1  0  0  0  0
 38 75  2  0  0  0  0
 39 59  1  0  0  0  0
 39 64  1  0  0  0  0
 39 76  2  0  0  0  0
 40 60  1  0  0  0  0
 40 71  1  0  0  0  0
 40 77  2  0  0  0  0
 41 65  1  0  0  0  0
 41 69  1  0  0  0  0
 41 78  2  0  0  0  0
 42 45  1  0  0  0  0
 43 52  1  0  0  0  0
 44 64  1  0  0  0  0
 45 47  1  0  0  0  0
 46 48  1  0  0  0  0
 46 49  1  0  0  0  0
 47 51  1  0  0  0  0
 48 53  1  0  0  0  0
 49 65  1  0  0  0  0
 50 53  1  0  0  0  0
 50 65  1  0  0  0  0
 51 70  1  0  0  0  0
 52 64  1  0  0  0  0
 53 63  1  0  0  0  0
 54 60  1  0  0  0  0
 55 61  1  0  0  0  0
 56 61  1  0  0  0  0
 57 61  1  0  0  0  0
 58 72  1  0  0  0  0
 59 61  1  0  0  0  0
 59 71  1  0  0  0  0
 60 72  1  0  0  0  0
 62 63  1  0  0  0  0
M  CHG  1  72   1
M  ISO  4  35 101  41 100  69 100  80 101
M  END
> <Batch ID>
0068

> <Smiles>
CNC(C)C(=O)NC(C(=O)N1Cc2cc([101O:1][101CH:1]=CC(=O)Nc3c(F)c(F)cc([100NH:0][100C:0](=O)N4CCCC(n5nc(-c6ccc(Oc7ccc(F)cc7F)cc6)c(C(N)=O)c5N)C4)c3F)ccc2CC1C(=O)NC1CCCc2ccccc21)C(C)(C)C

> <Shape>
0.233

> <Color>
0.171

> <Negative vol penalty>
0.000

$$$$

  -OEChem-04042323273D

 81 89  0     1  0  0  0  0  0999 V2000
  -23.5053  -30.7947   20.3260 C   0  0  0  0  0  0  0  0  0  0  0  0
  -23.6850  -29.4221   20.4640 C   0  0  0  0  0  0  0  0  0  0  0  0
  -32.6863  -17.5766   23.1954 C   0  0  0  0  0  0  0  0  0  0  0  0
  -23.0533   -9.8426   20.1037 C   0  0  0  0  0  0  0  0  0  0  0  0
  -23.7432  -10.0509   22.4098 C   0  0  0  0  0  0  0  0  0  0  0  0
  -24.2616  -31.6766   21.0967 C   0  0  0  0  0  0  0  0  0  0  0  0
  -24.6221  -28.9306   21.3721 C   0  0  0  0  0  0  0  0  0  0  0  0
  -24.1922  -23.8036   24.6939 C   0  0  0  0  0  0  0  0  0  0  0  0
  -31.8858  -18.5251   23.8318 C   0  0  0  0  0  0  0  0  0  0  0  0
  -32.1064  -16.6228   22.3589 C   0  0  0  0  0  0  0  0  0  0  0  0
  -22.2765   -8.7329   20.4363 C   0  0  0  0  0  0  0  0  0  0  0  0
  -22.9663   -8.9412   22.7424 C   0  0  0  0  0  0  0  0  0  0  0  0
  -24.7159  -22.5238   24.5157 C   0  0  0  0  0  0  0  0  0  0  0  0
  -19.7042   -8.2669   23.3122 C   0  0  0  0  0  0  0  0  0  0  0  0
  -18.9114   -8.3523   24.4566 C   0  0  0  0  0  0  0  0  0  0  0  0
  -26.5659  -23.0867   25.9579 C   0  0  0  0  0  0  0  0  0  0  0  0
  -29.9254  -17.5661   22.7954 C   0  0  0  0  0  0  0  0  0  0  0  0
  -20.0860   -6.4690   25.4109 C   0  0  0  0  0  0  0  0  0  0  0  0
  -23.7867  -10.5016   21.0905 C   0  0  0  0  0  0  0  0  0  0  0  0
  -24.1887  -12.9970   20.7457 C   0  0  0  0  0  0  0  0  0  0  0  0
  -25.2016  -31.1955   22.0217 C   0  0  0  0  0  0  0  0  0  0  0  0
  -24.8582  -24.7396   25.4980 C   0  0  0  0  0  0  0  0  0  0  0  0
  -25.3927  -29.8070   22.1550 C   0  0  0  0  0  0  0  0  0  0  0  0
  -26.0472  -24.3768   26.1467 C   0  0  0  0  0  0  0  0  0  0  0  0
  -30.5054  -18.5199   23.6318 C   0  0  0  0  0  0  0  0  0  0  0  0
  -30.7260  -16.6175   22.1590 C   0  0  0  0  0  0  0  0  0  0  0  0
  -22.2329   -8.2822   21.7557 C   0  0  0  0  0  0  0  0  0  0  0  0
  -25.9044  -22.1661   25.1455 C   0  0  0  0  0  0  0  0  0  0  0  0
  -20.6879   -7.2825   23.2171 C   0  0  0  0  0  0  0  0  0  0  0  0
  -19.1022   -7.4534   25.5060 C   0  0  0  0  0  0  0  0  0  0  0  0
  -20.8788   -6.3836   24.2665 C   0  0  0  0  0  0  0  0  0  0  0  0
  -24.5898  -11.6476   20.7474 C   0  0  0  0  0  0  0  0  0  0  0  0
  -25.3080  -13.6874   20.3494 C   0  0  0  0  0  0  0  0  0  0  0  0
  -22.9180  -13.5747   21.0732 C   0  0  0  0  0  0  0  0  0  0  0  0
  -26.1843  -27.5850   24.9992 C   0  0  0  0  0  0  0  0  0  0  0  0
  -26.5401  -27.5507   28.2232 C   0  0  0  0  0  0  0  0  0  0  0  0
  -28.3128  -19.6212   24.1917 C   0  0  0  0  0  0  0  0  0  0  0  0
  -26.7937  -25.7176   31.0907 C   0  0  0  0  0  0  0  0  0  0  0  0
  -30.7885  -14.6379   20.6022 C   0  0  0  0  0  0  0  0  0  0  0  0
  -26.0293  -32.1884   22.7986 C   0  0  0  0  0  0  0  0  0  0  0  0
  -24.2662  -26.1073   25.7015 C   0  0  0  0  0  0  0  0  0  0  0  0
  -26.7902  -25.3383   27.0366 C   0  0  0  0  0  0  0  0  0  0  0  0
  -26.7354  -31.5793   24.0073 C   0  0  0  0  0  0  0  0  0  0  0  0
  -29.6925  -12.0338   18.4354 C   0  0  0  0  0  0  0  0  0  0  0  0
  -27.4111  -30.2662   23.6251 C   0  0  0  0  0  0  0  0  0  0  0  0
  -28.2343  -11.8122   18.8436 C   0  0  0  0  0  0  0  0  0  0  0  0
  -30.5756  -12.3570   19.6393 C   0  0  0  0  0  0  0  0  0  0  0  0
  -28.6444  -13.2455   20.8843 C   0  0  0  0  0  0  0  0  0  0  0  0
  -26.3819  -29.2348   23.1471 C   0  0  1  0  0  0  0  0  0  0  0  0
  -25.2972  -27.1469   26.1300 C   0  0  1  0  0  0  0  0  0  0  0  0
  -27.7041  -12.9810   19.6971 C   0  0  2  0  0  0  0  0  0  0  0  0
  -27.1161  -25.9680   33.5667 C   0  0  0  0  0  0  0  0  0  0  0  0
  -29.5035  -28.1240   27.7769 C   0  0  0  0  0  0  0  0  0  0  0  0
  -29.9236  -27.4271   30.1446 C   0  0  0  0  0  0  0  0  0  0  0  0
  -28.4679  -29.3953   29.6652 C   0  0  0  0  0  0  0  0  0  0  0  0
  -24.1860  -24.4463   31.6760 C   0  0  0  0  0  0  0  0  0  0  0  0
  -27.8372  -20.7841   25.0426 C   0  0  0  0  0  0  0  0  0  1  0  0
  -27.6074  -27.0689   29.1759 C   0  0  1  0  0  0  0  0  0  0  0  0
  -26.1049  -25.8527   32.4367 C   0  0  2  0  0  0  0  0  0  0  0  0
  -28.8629  -27.9861   29.1724 C   0  0  0  0  0  0  0  0  0  0  0  0
  -25.8643  -11.4881   20.3810 N   0  0  0  0  0  0  0  0  0  0  0  0
  -26.2737  -12.7463   20.1454 N   0  0  0  0  0  0  0  0  0  0  0  0
  -26.1745  -26.6657   27.1991 N   0  0  0  0  0  0  0  0  0  0  0  0
  -30.0136  -13.4766   20.3979 N   0  0  0  0  0  0  0  0  0  0  0  0
  -25.5504  -15.0017   20.1590 N   0  0  0  0  0  0  0  0  0  0  0  0
  -21.8761  -12.7213   21.4612 N   0  0  0  0  0  0  0  0  0  0  0  0
  -29.6939  -19.4828   24.2774 N   0  0  0  0  0  0  0  0  0  0  0  0
  -30.1375  -15.6484   21.3091 N   0  0  0  0  0  0  0  0  0  0  0  0
  -25.6880  -28.6528   24.2759 N   0  0  0  0  0  0  0  0  0  0  0  0
  -26.9641  -26.9417   30.4791 N   0  0  0  0  0  0  0  0  0  0  0  0
  -25.2414  -24.6664   32.6981 N   0  3  0  0  0  0  0  0  0  0  0  0
  -22.7079  -14.8096   21.0075 O   0  0  0  0  0  0  0  0  0  0  0  0
  -27.2415  -26.9987   24.7986 O   0  0  0  0  0  0  0  0  0  0  0  0
  -26.0438  -28.6682   28.3861 O   0  0  0  0  0  0  0  0  0  0  0  0
  -27.5286  -18.9380   23.5414 O   0  0  0  0  0  0  0  0  0  0  0  0
  -27.1486  -24.6351   30.6297 O   0  0  0  0  0  0  0  0  0  0  0  0
  -31.9347  -14.7397   20.1576 O   0  0  0  0  0  0  0  0  0  0  0  0
  -21.4748   -7.1995   22.0806 O   0  0  0  0  0  0  0  0  0  0  0  0
  -26.4182  -20.9179   24.9728 O   0  0  0  0  0  0  0  0  0  1  0  0
  -18.3418   -7.5365   26.6056 F   0  0  0  0  0  0  0  0  0  0  0  0
  -21.8230   -5.4365   24.1814 F   0  0  0  0  0  0  0  0  0  0  0  0
  1  2  1  0  0  0  0
  1  6  2  0  0  0  0
  2  7  2  0  0  0  0
  3  9  2  0  0  0  0
  3 10  1  0  0  0  0
  4 11  2  0  0  0  0
  4 19  1  0  0  0  0
  5 12  1  0  0  0  0
  5 19  2  0  0  0  0
  6 21  1  0  0  0  0
  7 23  1  0  0  0  0
  8 13  2  0  0  0  0
  8 22  1  0  0  0  0
  9 25  1  0  0  0  0
 10 26  2  0  0  0  0
 11 27  1  0  0  0  0
 12 27  2  0  0  0  0
 13 28  1  0  0  0  0
 14 15  2  0  0  0  0
 14 29  1  0  0  0  0
 15 30  1  0  0  0  0
 16 24  1  0  0  0  0
 16 28  2  0  0  0  0
 17 25  2  0  0  0  0
 17 26  1  0  0  0  0
 18 30  2  0  0  0  0
 18 31  1  0  0  0  0
 19 32  1  0  0  0  0
 20 32  1  0  0  0  0
 20 33  2  0  0  0  0
 20 34  1  0  0  0  0
 21 23  2  0  0  0  0
 21 40  1  0  0  0  0
 22 24  2  0  0  0  0
 22 41  1  0  0  0  0
 23 49  1  0  0  0  0
 24 42  1  0  0  0  0
 25 67  1  0  0  0  0
 26 68  1  0  0  0  0
 27 78  1  0  0  0  0
 28 79  1  0  0  0  0
 29 31  2  0  0  0  0
 29 78  1  0  0  0  0
 30 80  1  0  0  0  0
 31 81  1  0  0  0  0
 32 61  2  0  0  0  0
 33 62  1  0  0  0  0
 33 65  1  0  0  0  0
 34 66  1  0  0  0  0
 34 72  2  0  0  0  0
 35 50  1  0  0  0  0
 35 69  1  0  0  0  0
 35 73  2  0  0  0  0
 36 58  1  0  0  0  0
 36 63  1  0  0  0  0
 36 74  2  0  0  0  0
 37 57  1  0  0  0  0
 37 67  1  0  0  0  0
 37 75  2  0  0  0  0
 38 59  1  0  0  0  0
 38 70  1  0  0  0  0
 38 76  2  0  0  0  0
 39 64  1  0  0  0  0
 39 68  1  0  0  0  0
 39 77  2  0  0  0  0
 40 43  1  0  0  0  0
 41 50  1  0  0  0  0
 42 63  1  0  0  0  0
 43 45  1  0  0  0  0
 44 46  1  0  0  0  0
 44 47  1  0  0  0  0
 45 49  1  0  0  0  0
 46 51  1  0  0  0  0
 47 64  1  0  0  0  0
 48 51  1  0  0  0  0
 48 64  1  0  0  0  0
 49 69  1  0  0  0  0
 50 63  1  0  0  0  0
 51 62  1  0  0  0  0
 52 59  1  0  0  0  0
 53 60  1  0  0  0  0
 54 60  1  0  0  0  0
 55 60  1  0  0  0  0
 56 71  1  0  0  0  0
 57 79  1  0  0  0  0
 58 60  1  0  0  0  0
 58 70  1  0  0  0  0
 59 71  1  0  0  0  0
 61 62  1  0  0  0  0
M  CHG  1  71   1
M  ISO  4  39 100  57 101  68 100  79 101
M  END
> <Batch ID>
0068

> <Smiles>
CNC(C)C(=O)NC(C(=O)N1Cc2cc([101O:1][101CH2:1]C(=O)Nc3cccc([100NH:0][100C:0](=O)N4CCCC(n5nc(-c6ccc(Oc7ccc(F)cc7F)cc6)c(C(N)=O)c5N)C4)c3)ccc2CC1C(=O)NC1CCCc2ccccc21)C(C)(C)C

> <Shape>
0.230

> <Color>
0.202

> <Negative vol penalty>
0.000

$$$$

  -OEChem-04042323273D

 88 97  0     1  0  0  0  0  0999 V2000
  -20.0629  -17.3150   20.8569 C   0  0  0  0  0  0  0  0  0  0  0  0
  -21.0388  -18.2096   20.4294 C   0  0  0  0  0  0  0  0  0  0  0  0
  -26.4449  -12.7009   21.6388 C   0  0  0  0  0  0  0  0  0  0  0  0
  -26.0588  -13.7025   19.4744 C   0  0  0  0  0  0  0  0  0  0  0  0
  -18.8007  -17.7831   21.2197 C   0  0  0  0  0  0  0  0  0  0  0  0
  -20.7527  -19.5727   20.3635 C   0  0  0  0  0  0  0  0  0  0  0  0
  -24.4627  -22.4319   22.2886 C   0  0  0  0  0  0  0  0  0  0  0  0
  -31.2097  -25.0896   20.9682 C   0  0  0  0  0  0  0  0  0  0  0  0
  -30.4695  -25.3490   19.8147 C   0  0  0  0  0  0  0  0  0  0  0  0
  -25.1600  -12.1586   21.6171 C   0  0  0  0  0  0  0  0  0  0  0  0
  -24.7739  -13.1601   19.4526 C   0  0  0  0  0  0  0  0  0  0  0  0
  -25.5878  -22.6368   21.4910 C   0  0  0  0  0  0  0  0  0  0  0  0
  -21.8513  -10.8091   22.2917 C   0  0  0  0  0  0  0  0  0  0  0  0
  -21.0828  -10.9116   23.4512 C   0  0  0  0  0  0  0  0  0  0  0  0
  -24.7418  -24.8078   20.8661 C   0  0  0  0  0  0  0  0  0  0  0  0
  -29.7766  -23.0357   19.7392 C   0  0  0  0  0  0  0  0  0  0  0  0
  -21.2283  -13.3205   23.3347 C   0  0  0  0  0  0  0  0  0  0  0  0
  -26.8943  -13.4730   20.5675 C   0  0  0  0  0  0  0  0  0  0  0  0
  -29.4028  -13.4418   20.1046 C   0  0  0  0  0  0  0  0  0  0  0  0
  -18.5020  -19.1537   21.1674 C   0  0  0  0  0  0  0  0  0  0  0  0
  -23.4619  -23.4105   22.3725 C   0  0  0  0  0  0  0  0  0  0  0  0
  -19.4849  -20.0594   20.7247 C   0  0  0  0  0  0  0  0  0  0  0  0
  -23.6063  -24.6139   21.6674 C   0  0  0  0  0  0  0  0  0  0  0  0
  -31.2334  -23.8033   21.5071 C   0  0  0  0  0  0  0  0  0  0  0  0
  -29.7529  -24.3221   19.2003 C   0  0  0  0  0  0  0  0  0  0  0  0
  -30.5168  -22.7764   20.8927 C   0  0  0  0  0  0  0  0  0  0  0  0
  -24.3245  -12.3882   20.5240 C   0  0  0  0  0  0  0  0  0  0  0  0
  -25.7260  -23.8237   20.7773 C   0  0  0  0  0  0  0  0  0  0  0  0
  -22.3085  -11.9623   21.6538 C   0  0  0  0  0  0  0  0  0  0  0  0
  -20.7712  -12.1673   23.9727 C   0  0  0  0  0  0  0  0  0  0  0  0
  -21.9969  -13.2179   22.1752 C   0  0  0  0  0  0  0  0  0  0  0  0
  -28.2213  -14.0340   20.5896 C   0  0  0  0  0  0  0  0  0  0  0  0
  -30.3819  -14.3708   20.3589 C   0  0  0  0  0  0  0  0  0  0  0  0
  -27.6397  -24.4439   17.7979 C   0  0  0  0  0  0  0  0  0  0  0  0
  -28.8316  -25.0484   15.9550 C   0  0  0  0  0  0  0  0  0  0  0  0
  -30.2084  -26.2922   14.4210 C   0  0  0  0  0  0  0  0  0  0  0  0
  -26.6321  -24.2339   18.6604 C   0  0  0  0  0  0  0  0  0  1  0  0
  -29.2036  -25.4373   14.5864 C   0  0  0  0  0  0  0  0  0  0  0  0
  -29.5977  -12.1661   19.4800 C   0  0  0  0  0  0  0  0  0  0  0  0
  -20.3735  -23.5298   21.6302 C   0  0  0  0  0  0  0  0  0  0  0  0
  -20.5441  -26.4412   23.0504 C   0  0  0  0  0  0  0  0  0  0  0  0
  -22.4669  -29.1034   23.9792 C   0  0  0  0  0  0  0  0  0  0  0  0
  -29.8685  -20.3345   20.9311 C   0  0  0  0  0  0  0  0  0  0  0  0
  -17.1086  -19.6071   21.5245 C   0  0  0  0  0  0  0  0  0  0  0  0
  -22.2673  -23.1853   23.2583 C   0  0  0  0  0  0  0  0  0  0  0  0
  -22.5700  -25.7045   21.7395 C   0  0  0  0  0  0  0  0  0  0  0  0
  -17.0041  -21.1079   21.7836 C   0  0  0  0  0  0  0  0  0  0  0  0
  -30.7101  -17.8367   23.7197 C   0  0  0  0  0  0  0  0  0  0  0  0
  -17.7258  -21.8898   20.6907 C   0  0  0  0  0  0  0  0  0  0  0  0
  -30.9277  -16.5812   22.8784 C   0  0  0  0  0  0  0  0  0  0  0  0
  -30.9085  -19.1139   22.9133 C   0  0  0  0  0  0  0  0  0  0  0  0
  -29.4315  -17.9125   21.2911 C   0  0  0  0  0  0  0  0  0  0  0  0
  -19.2205  -21.5482   20.6633 C   0  0  1  0  0  0  0  0  0  0  0  0
  -21.0633  -24.0358   22.8654 C   0  0  1  0  0  0  0  0  0  0  0  0
  -30.3821  -16.7148   21.4428 C   0  0  2  0  0  0  0  0  0  0  0  0
  -27.3948  -24.6733   16.3082 C   0  0  0  0  0  0  0  0  0  0  0  0
  -32.0350  -23.5545   22.7434 C   0  0  0  0  0  0  0  0  0  0  0  0
  -26.4396  -25.8349   16.0236 C   0  0  0  0  0  0  0  0  0  0  0  0
  -26.9755  -23.3903   15.5897 C   0  0  0  0  0  0  0  0  0  0  0  0
  -22.3177  -31.3492   25.0889 C   0  0  0  0  0  0  0  0  0  0  0  0
  -19.3274  -27.6131   20.5096 C   0  0  0  0  0  0  0  0  0  0  0  0
  -20.0740  -29.8756   21.2789 C   0  0  0  0  0  0  0  0  0  0  0  0
  -18.4320  -28.5778   22.6361 C   0  0  0  0  0  0  0  0  0  0  0  0
  -24.2979  -28.2798   26.1536 C   0  0  0  0  0  0  0  0  0  0  0  0
  -20.8505  -27.8431   22.5816 C   0  0  1  0  0  0  0  0  0  0  0  0
  -22.5700  -29.8630   25.2895 C   0  0  2  0  0  0  0  0  0  0  0  0
  -19.6897  -28.4562   21.7484 C   0  0  0  0  0  0  0  0  0  0  0  0
  -28.4287  -15.2454   21.1126 N   0  0  0  0  0  0  0  0  0  0  0  0
  -29.6935  -24.9920   16.9232 N   0  0  0  0  0  0  0  0  0  0  0  0
  -29.7520  -15.4219   20.9578 N   0  0  0  0  0  0  0  0  0  0  0  0
  -28.9992  -24.5867   18.0254 N   0  0  0  0  0  0  0  0  0  0  0  0
  -21.4171  -25.4344   22.6143 N   0  0  0  0  0  0  0  0  0  0  0  0
  -30.0838  -19.1628   21.6972 N   0  0  0  0  0  0  0  0  0  0  0  0
  -31.7117  -14.3830   20.1266 N   0  0  0  0  0  0  0  0  0  0  0  0
  -28.4840  -11.3355   19.2951 N   0  0  0  0  0  0  0  0  0  0  0  0
  -30.5284  -21.4629   21.4251 N   0  0  0  0  0  0  0  0  0  0  0  0
  -19.9146  -22.2305   21.7343 N   0  0  0  0  0  0  0  0  0  0  0  0
  -21.1969  -28.6063   23.7757 N   0  0  0  0  0  0  0  0  0  0  0  0
  -23.9270  -29.6924   25.8817 N   0  3  0  0  0  0  0  0  0  0  0  0
  -30.7287  -11.7674   19.1120 O   0  0  0  0  0  0  0  0  0  0  0  0
  -20.2642  -24.2643   20.6553 O   0  0  0  0  0  0  0  0  0  0  0  0
  -19.5705  -26.2476   23.7827 O   0  0  0  0  0  0  0  0  0  0  0  0
  -23.4168  -28.9679   23.2112 O   0  0  0  0  0  0  0  0  0  0  0  0
  -29.1676  -20.3257   19.9170 O   0  0  0  0  0  0  0  0  0  0  0  0
  -23.0707  -11.8589   20.5023 O   0  0  0  0  0  0  0  0  0  0  0  0
  -26.8228  -24.0260   19.9976 O   0  0  0  0  0  0  0  0  0  1  0  0
  -20.0318  -12.2656   25.0853 F   0  0  0  0  0  0  0  0  0  0  0  0
  -22.4322  -14.3294   21.5661 F   0  0  0  0  0  0  0  0  0  0  0  0
  1  2  1  0  0  0  0
  1  5  2  0  0  0  0
  2  6  2  0  0  0  0
  3 10  2  0  0  0  0
  3 18  1  0  0  0  0
  4 11  1  0  0  0  0
  4 18  2  0  0  0  0
  5 20  1  0  0  0  0
  6 22  1  0  0  0  0
  7 12  2  0  0  0  0
  7 21  1  0  0  0  0
  8  9  2  0  0  0  0
  8 24  1  0  0  0  0
  9 25  1  0  0  0  0
 10 27  1  0  0  0  0
 11 27  2  0  0  0  0
 12 28  1  0  0  0  0
 13 14  2  0  0  0  0
 13 29  1  0  0  0  0
 14 30  1  0  0  0  0
 15 23  1  0  0  0  0
 15 28  2  0  0  0  0
 16 25  2  0  0  0  0
 16 26  1  0  0  0  0
 17 30  2  0  0  0  0
 17 31  1  0  0  0  0
 18 32  1  0  0  0  0
 19 32  1  0  0  0  0
 19 33  2  0  0  0  0
 19 39  1  0  0  0  0
 20 22  2  0  0  0  0
 20 44  1  0  0  0  0
 21 23  2  0  0  0  0
 21 45  1  0  0  0  0
 22 53  1  0  0  0  0
 23 46  1  0  0  0  0
 24 26  2  0  0  0  0
 24 57  1  0  0  0  0
 25 71  1  0  0  0  0
 26 76  1  0  0  0  0
 27 85  1  0  0  0  0
 28 86  1  0  0  0  0
 29 31  2  0  0  0  0
 29 85  1  0  0  0  0
 30 87  1  0  0  0  0
 31 88  1  0  0  0  0
 32 68  2  0  0  0  0
 33 70  1  0  0  0  0
 33 74  1  0  0  0  0
 34 37  2  0  0  0  0
 34 56  1  0  0  0  0
 34 71  1  0  0  0  0
 35 38  1  0  0  0  0
 35 56  1  0  0  0  0
 35 69  2  0  0  0  0
 36 38  2  0  0  0  0
 37 86  1  0  0  0  0
 39 75  1  0  0  0  0
 39 80  2  0  0  0  0
 40 54  1  0  0  0  0
 40 77  1  0  0  0  0
 40 81  2  0  0  0  0
 41 65  1  0  0  0  0
 41 72  1  0  0  0  0
 41 82  2  0  0  0  0
 42 66  1  0  0  0  0
 42 78  1  0  0  0  0
 42 83  2  0  0  0  0
 43 73  1  0  0  0  0
 43 76  1  0  0  0  0
 43 84  2  0  0  0  0
 44 47  1  0  0  0  0
 45 54  1  0  0  0  0
 46 72  1  0  0  0  0
 47 49  1  0  0  0  0
 48 50  1  0  0  0  0
 48 51  1  0  0  0  0
 49 53  1  0  0  0  0
 50 55  1  0  0  0  0
 51 73  1  0  0  0  0
 52 55  1  0  0  0  0
 52 73  1  0  0  0  0
 53 77  1  0  0  0  0
 54 72  1  0  0  0  0
 55 70  1  0  0  0  0
 56 58  1  0  0  0  0
 56 59  1  0  0  0  0
 60 66  1  0  0  0  0
 61 67  1  0  0  0  0
 62 67  1  0  0  0  0
 63 67  1  0  0  0  0
 64 79  1  0  0  0  0
 65 67  1  0  0  0  0
 65 78  1  0  0  0  0
 66 79  1  0  0  0  0
 68 70  1  0  0  0  0
 69 71  1  0  0  0  0
M  CHG  1  79   1
M  ISO  4  37 101  43 100  76 100  86 101
M  END
> <Batch ID>
0068

> <Smiles>
C=CC1=NN(c2ccc(C)c([100NH:0][100C:0](=O)N3CCCC(n4nc(-c5ccc(Oc6ccc(F)cc6F)cc5)c(C(N)=O)c4N)C3)c2)C(=[101CH:1][101O:1]c2ccc3c(c2)CN(C(=O)C(NC(=O)C(C)NC)C(C)(C)C)C(C(=O)NC2CCCc4ccccc42)C3)C1(C)C

> <Shape>
0.224

> <Color>
0.069

> <Negative vol penalty>
0.000

$$$$

  -OEChem-04042323273D

 83 91  0     1  0  0  0  0  0999 V2000
  -18.4675  -31.6214   22.9236 C   0  0  0  0  0  0  0  0  0  0  0  0
  -19.8558  -31.5414   22.8813 C   0  0  0  0  0  0  0  0  0  0  0  0
  -28.0184  -12.7004   22.4147 C   0  0  0  0  0  0  0  0  0  0  0  0
  -26.8059  -12.9691   20.3424 C   0  0  0  0  0  0  0  0  0  0  0  0
  -17.7008  -30.4595   22.8469 C   0  0  0  0  0  0  0  0  0  0  0  0
  -20.4781  -30.2991   22.7634 C   0  0  0  0  0  0  0  0  0  0  0  0
  -25.6579  -29.0481   19.7450 C   0  0  0  0  0  0  0  0  0  0  0  0
  -27.4924  -11.4163   22.5560 C   0  0  0  0  0  0  0  0  0  0  0  0
  -26.2799  -11.6850   20.4836 C   0  0  0  0  0  0  0  0  0  0  0  0
  -26.9776  -28.8979   20.1688 C   0  0  0  0  0  0  0  0  0  0  0  0
  -23.8200  -10.1807   22.2491 C   0  0  0  0  0  0  0  0  0  0  0  0
  -22.4571  -10.0084   22.0073 C   0  0  0  0  0  0  0  0  0  0  0  0
  -26.6690  -26.5073   20.2627 C   0  0  0  0  0  0  0  0  0  0  0  0
  -29.0662  -23.5314   19.4922 C   0  0  0  0  0  0  0  0  0  0  0  0
  -30.7036  -24.1242   17.8176 C   0  0  0  0  0  0  0  0  0  0  0  0
  -29.5256  -22.0204   17.6639 C   0  0  0  0  0  0  0  0  0  0  0  0
  -22.9685   -8.4426   20.2399 C   0  0  0  0  0  0  0  0  0  0  0  0
  -27.6751  -13.4768   21.3079 C   0  0  0  0  0  0  0  0  0  0  0  0
  -29.4116  -15.1668   20.5101 C   0  0  0  0  0  0  0  0  0  0  0  0
  -18.3138  -29.2032   22.7183 C   0  0  0  0  0  0  0  0  0  0  0  0
  -24.8292  -27.9280   19.5871 C   0  0  0  0  0  0  0  0  0  0  0  0
  -19.7189  -29.1192   22.6863 C   0  0  0  0  0  0  0  0  0  0  0  0
  -25.3400  -26.6457   19.8343 C   0  0  0  0  0  0  0  0  0  0  0  0
  -30.0047  -24.4302   18.9853 C   0  0  0  0  0  0  0  0  0  0  0  0
  -28.8267  -22.3265   18.8315 C   0  0  0  0  0  0  0  0  0  0  0  0
  -26.6232  -10.9086   21.5904 C   0  0  0  0  0  0  0  0  0  0  0  0
  -27.4825  -27.6276   20.4305 C   0  0  0  0  0  0  0  0  0  0  0  0
  -24.7572   -9.4840   21.4861 C   0  0  0  0  0  0  0  0  0  0  0  0
  -22.0313   -9.1394   21.0028 C   0  0  0  0  0  0  0  0  0  0  0  0
  -30.4641  -22.9192   17.1569 C   0  0  0  0  0  0  0  0  0  0  0  0
  -24.3314   -8.6149   20.4816 C   0  0  0  0  0  0  0  0  0  0  0  0
  -28.2177  -14.8036   21.1618 C   0  0  0  0  0  0  0  0  0  0  0  0
  -29.4766  -16.5318   20.6481 C   0  0  0  0  0  0  0  0  0  0  0  0
  -30.3756  -14.3438   19.8399 C   0  0  0  0  0  0  0  0  0  0  0  0
  -22.1214  -26.9347   20.9231 C   0  0  0  0  0  0  0  0  0  0  0  0
  -22.3192  -24.6086   18.6709 C   0  0  0  0  0  0  0  0  0  0  0  0
  -31.1423  -26.6564   19.2921 C   0  0  0  0  0  0  0  0  0  0  0  0
  -24.2797  -22.7782   16.5607 C   0  0  0  0  0  0  0  0  0  0  0  0
  -27.0943  -21.5620   20.4931 C   0  0  0  0  0  0  0  0  0  0  0  0
  -17.4445  -27.9711   22.6867 C   0  0  0  0  0  0  0  0  0  0  0  0
  -23.4160  -28.1048   19.1035 C   0  0  0  0  0  0  0  0  0  0  0  0
  -24.4975  -25.4094   19.6605 C   0  0  0  0  0  0  0  0  0  0  0  0
  -18.1713  -26.7256   22.1859 C   0  0  0  0  0  0  0  0  0  0  0  0
  -26.7329  -19.6886   23.4992 C   0  0  0  0  0  0  0  0  0  0  0  0
  -19.5321  -26.5933   22.8624 C   0  0  0  0  0  0  0  0  0  0  0  0
  -27.1852  -18.2806   23.1054 C   0  0  0  0  0  0  0  0  0  0  0  0
  -25.9724  -20.3773   22.3673 C   0  0  0  0  0  0  0  0  0  0  0  0
  -27.1242  -18.9972   20.6827 C   0  0  0  0  0  0  0  0  0  0  0  0
  -20.4302  -27.7921   22.5341 C   0  0  1  0  0  0  0  0  0  0  0  0
  -22.5079  -26.9353   19.4711 C   0  0  1  0  0  0  0  0  0  0  0  0
  -27.9508  -18.2880   21.7678 C   0  0  2  0  0  0  0  0  0  0  0  0
  -24.1618  -20.9250   14.8728 C   0  0  0  0  0  0  0  0  0  0  0  0
  -22.0432  -22.5738   20.9278 C   0  0  0  0  0  0  0  0  0  0  0  0
  -22.8726  -20.8156   19.3502 C   0  0  0  0  0  0  0  0  0  0  0  0
  -20.7451  -22.0232   18.8623 C   0  0  0  0  0  0  0  0  0  0  0  0
  -25.2922  -24.5269   14.3982 C   0  0  0  0  0  0  0  0  0  0  0  0
  -31.0897  -27.8054   20.2925 C   0  0  0  0  0  0  0  0  0  0  0  0
  -29.7145  -28.4478   20.3930 C   0  0  0  0  0  0  0  0  0  1  0  0
  -22.9474  -23.2376   18.6023 C   0  0  1  0  0  0  0  0  0  0  0  0
  -24.1260  -22.4296   15.0912 C   0  0  2  0  0  0  0  0  0  0  0  0
  -22.1676  -22.1858   19.4409 C   0  0  0  0  0  0  0  0  0  0  0  0
  -27.5710  -15.8532   21.6757 N   0  0  0  0  0  0  0  0  0  0  0  0
  -28.3613  -16.8893   21.3471 N   0  0  0  0  0  0  0  0  0  0  0  0
  -23.1201  -25.6348   19.1917 N   0  0  0  0  0  0  0  0  0  0  0  0
  -26.7605  -20.3498   21.1332 N   0  0  0  0  0  0  0  0  0  0  0  0
  -30.3784  -17.4491   20.2386 N   0  0  0  0  0  0  0  0  0  0  0  0
  -30.1544  -12.9607   19.7908 N   0  0  0  0  0  0  0  0  0  0  0  0
  -30.2483  -25.6527   19.6553 N   0  0  0  0  0  0  0  0  0  0  0  0
  -27.8736  -21.4130   19.3463 N   0  0  0  0  0  0  0  0  0  0  0  0
  -20.9799  -27.6619   21.2017 N   0  0  0  0  0  0  0  0  0  0  0  0
  -23.0573  -22.9094   17.1851 N   0  0  0  0  0  0  0  0  0  0  0  0
  -25.2243  -23.0464   14.2949 N   0  3  0  0  0  0  0  0  0  0  0  0
  -31.4109  -14.8190   19.3148 O   0  0  0  0  0  0  0  0  0  0  0  0
  -22.8072  -26.3188   21.7306 O   0  0  0  0  0  0  0  0  0  0  0  0
  -21.1630  -24.7647   18.2704 O   0  0  0  0  0  0  0  0  0  0  0  0
  -31.8903  -26.6707   18.3202 O   0  0  0  0  0  0  0  0  0  0  0  0
  -25.3747  -22.9165   17.1015 O   0  0  0  0  0  0  0  0  0  0  0  0
  -26.7395  -22.6537   20.9451 O   0  0  0  0  0  0  0  0  0  0  0  0
  -26.1099   -9.6555   21.7278 O   0  0  0  0  0  0  0  0  0  0  0  0
  -28.7701  -27.4782   20.8449 O   0  0  0  0  0  0  0  0  0  1  0  0
  -20.7225   -8.9729   20.7718 F   0  0  0  0  0  0  0  0  0  0  0  0
  -31.1358  -22.6248   16.0360 F   0  0  0  0  0  0  0  0  0  0  0  0
  -25.2270   -7.9419   19.7462 F   0  0  0  0  0  0  0  0  0  0  0  0
  1  2  1  0  0  0  0
  1  5  2  0  0  0  0
  2  6  2  0  0  0  0
  3  8  2  0  0  0  0
  3 18  1  0  0  0  0
  4  9  1  0  0  0  0
  4 18  2  0  0  0  0
  5 20  1  0  0  0  0
  6 22  1  0  0  0  0
  7 10  2  0  0  0  0
  7 21  1  0  0  0  0
  8 26  1  0  0  0  0
  9 26  2  0  0  0  0
 10 27  1  0  0  0  0
 11 12  2  0  0  0  0
 11 28  1  0  0  0  0
 12 29  1  0  0  0  0
 13 23  1  0  0  0  0
 13 27  2  0  0  0  0
 14 24  2  0  0  0  0
 14 25  1  0  0  0  0
 15 24  1  0  0  0  0
 15 30  2  0  0  0  0
 16 25  2  0  0  0  0
 16 30  1  0  0  0  0
 17 29  2  0  0  0  0
 17 31  1  0  0  0  0
 18 32  1  0  0  0  0
 19 32  1  0  0  0  0
 19 33  2  0  0  0  0
 19 34  1  0  0  0  0
 20 22  2  0  0  0  0
 20 40  1  0  0  0  0
 21 23  2  0  0  0  0
 21 41  1  0  0  0  0
 22 49  1  0  0  0  0
 23 42  1  0  0  0  0
 24 68  1  0  0  0  0
 25 69  1  0  0  0  0
 26 79  1  0  0  0  0
 27 80  1  0  0  0  0
 28 31  2  0  0  0  0
 28 79  1  0  0  0  0
 29 81  1  0  0  0  0
 30 82  1  0  0  0  0
 31 83  1  0  0  0  0
 32 62  2  0  0  0  0
 33 63  1  0  0  0  0
 33 66  1  0  0  0  0
 34 67  1  0  0  0  0
 34 73  2  0  0  0  0
 35 50  1  0  0  0  0
 35 70  1  0  0  0  0
 35 74  2  0  0  0  0
 36 59  1  0  0  0  0
 36 64  1  0  0  0  0
 36 75  2  0  0  0  0
 37 57  1  0  0  0  0
 37 68  1  0  0  0  0
 37 76  2  0  0  0  0
 38 60  1  0  0  0  0
 38 71  1  0  0  0  0
 38 77  2  0  0  0  0
 39 65  1  0  0  0  0
 39 69  1  0  0  0  0
 39 78  2  0  0  0  0
 40 43  1  0  0  0  0
 41 50  1  0  0  0  0
 42 64  1  0  0  0  0
 43 45  1  0  0  0  0
 44 46  1  0  0  0  0
 44 47  1  0  0  0  0
 45 49  1  0  0  0  0
 46 51  1  0  0  0  0
 47 65  1  0  0  0  0
 48 51  1  0  0  0  0
 48 65  1  0  0  0  0
 49 70  1  0  0  0  0
 50 64  1  0  0  0  0
 51 63  1  0  0  0  0
 52 60  1  0  0  0  0
 53 61  1  0  0  0  0
 54 61  1  0  0  0  0
 55 61  1  0  0  0  0
 56 72  1  0  0  0  0
 57 58  1  0  0  0  0
 58 80  1  0  0  0  0
 59 61  1  0  0  0  0
 59 71  1  0  0  0  0
 60 72  1  0  0  0  0
 62 63  1  0  0  0  0
M  CHG  1  72   1
M  ISO  4  39 100  58 101  69 100  80 101
M  END
> <Batch ID>
0068

> <Smiles>
CNC(C)C(=O)NC(C(=O)N1Cc2cc([101O:1][101CH2:1]CC(=O)Nc3cc(F)cc([100NH:0][100C:0](=O)N4CCCC(n5nc(-c6ccc(Oc7ccc(F)cc7F)cc6)c(C(N)=O)c5N)C4)c3)ccc2CC1C(=O)NC1CCCc2ccccc21)C(C)(C)C

> <Shape>
0.268

> <Color>
0.082

> <Negative vol penalty>
0.000

$$$$

  -OEChem-04042323273D

 83 91  0     1  0  0  0  0  0999 V2000
  -31.3331  -34.8478   24.2147 C   0  0  0  0  0  0  0  0  0  0  0  0
  -31.3200  -33.6957   23.4349 C   0  0  0  0  0  0  0  0  0  0  0  0
  -22.3907  -10.1416   20.4736 C   0  0  0  0  0  0  0  0  0  0  0  0
  -24.2808   -9.3725   21.7671 C   0  0  0  0  0  0  0  0  0  0  0  0
  -30.3733  -35.0252   25.2103 C   0  0  0  0  0  0  0  0  0  0  0  0
  -30.3477  -32.7199   23.6511 C   0  0  0  0  0  0  0  0  0  0  0  0
  -27.6914  -29.1701   19.4263 C   0  0  0  0  0  0  0  0  0  0  0  0
  -28.6474  -18.8817   21.9569 C   0  0  0  0  0  0  0  0  0  0  0  0
  -28.0297  -20.1289   21.8649 C   0  0  0  0  0  0  0  0  0  0  0  0
  -21.8428   -8.8595   20.5118 C   0  0  0  0  0  0  0  0  0  0  0  0
  -23.7328   -8.0903   21.8054 C   0  0  0  0  0  0  0  0  0  0  0  0
  -27.9312  -27.8590   19.0175 C   0  0  0  0  0  0  0  0  0  0  0  0
  -21.3226   -6.4639   23.5276 C   0  0  0  0  0  0  0  0  0  0  0  0
  -21.3290   -5.7943   24.7512 C   0  0  0  0  0  0  0  0  0  0  0  0
  -26.1914  -27.0854   20.4987 C   0  0  0  0  0  0  0  0  0  0  0  0
  -29.4286  -20.6822   19.9744 C   0  0  0  0  0  0  0  0  0  0  0  0
  -22.6621   -4.0297   23.7786 C   0  0  0  0  0  0  0  0  0  0  0  0
  -23.6098  -10.3981   21.1011 C   0  0  0  0  0  0  0  0  0  0  0  0
  -23.9686  -12.7640   21.9852 C   0  0  0  0  0  0  0  0  0  0  0  0
  -29.3829  -34.0555   25.4323 C   0  0  0  0  0  0  0  0  0  0  0  0
  -26.7056  -29.4481   20.3840 C   0  0  0  0  0  0  0  0  0  0  0  0
  -29.3746  -32.8839   24.6515 C   0  0  0  0  0  0  0  0  0  0  0  0
  -25.9394  -28.4012   20.9161 C   0  0  0  0  0  0  0  0  0  0  0  0
  -29.6558  -18.5348   21.0578 C   0  0  0  0  0  0  0  0  0  0  0  0
  -28.4202  -21.0292   20.8736 C   0  0  0  0  0  0  0  0  0  0  0  0
  -22.5138   -7.8338   21.1778 C   0  0  0  0  0  0  0  0  0  0  0  0
  -27.1831  -26.8160   19.5559 C   0  0  0  0  0  0  0  0  0  0  0  0
  -21.9859   -5.9163   22.4294 C   0  0  0  0  0  0  0  0  0  0  0  0
  -21.9988   -4.5772   24.8767 C   0  0  0  0  0  0  0  0  0  0  0  0
  -30.0464  -19.4350   20.0665 C   0  0  0  0  0  0  0  0  0  0  0  0
  -22.6556   -4.6992   22.5549 C   0  0  0  0  0  0  0  0  0  0  0  0
  -24.1766  -11.7222   21.0614 C   0  0  0  0  0  0  0  0  0  0  0  0
  -24.7232  -13.8057   21.5035 C   0  0  0  0  0  0  0  0  0  0  0  0
  -23.1653  -12.7879   23.1725 C   0  0  0  0  0  0  0  0  0  0  0  0
  -26.7037  -30.7192   23.2975 C   0  0  0  0  0  0  0  0  0  0  0  0
  -23.4843  -30.4951   22.9696 C   0  0  0  0  0  0  0  0  0  0  0  0
  -28.0582  -23.3051   19.8622 C   0  0  0  0  0  0  0  0  0  0  0  0
  -20.8241  -28.9770   21.4643 C   0  0  0  0  0  0  0  0  0  0  0  0
  -29.4622  -15.7762   19.3116 C   0  0  0  0  0  0  0  0  0  0  0  0
  -28.3950  -34.2699   26.5516 C   0  0  0  0  0  0  0  0  0  0  0  0
  -26.4410  -30.8707   20.7947 C   0  0  0  0  0  0  0  0  0  0  0  0
  -24.8555  -28.6487   21.9322 C   0  0  0  0  0  0  0  0  0  0  0  0
  -27.1720  -33.3603   26.4672 C   0  0  0  0  0  0  0  0  0  0  0  0
  -27.0746  -14.3902   17.0633 C   0  0  0  0  0  0  0  0  0  0  0  0
  -27.5949  -31.9220   26.1856 C   0  0  0  0  0  0  0  0  0  0  0  0
  -26.0949  -13.6537   17.9785 C   0  0  0  0  0  0  0  0  0  0  0  0
  -28.5099  -14.2886   17.5748 C   0  0  0  0  0  0  0  0  0  0  0  0
  -27.7208  -13.9788   19.8889 C   0  0  0  0  0  0  0  0  0  0  0  0
  -28.3209  -31.8140   24.8392 C   0  0  1  0  0  0  0  0  0  0  0  0
  -25.7625  -30.9832   22.1564 C   0  0  1  0  0  0  0  0  0  0  0  0
  -26.2531  -14.1002   19.4444 C   0  0  2  0  0  0  0  0  0  0  0  0
  -18.3149  -28.9814   21.4282 C   0  0  0  0  0  0  0  0  0  0  0  0
  -23.4459  -28.9780   25.6167 C   0  0  0  0  0  0  0  0  0  0  0  0
  -21.1318  -28.2025   25.0586 C   0  0  0  0  0  0  0  0  0  0  0  0
  -21.5957  -30.6375   25.3384 C   0  0  0  0  0  0  0  0  0  0  0  0
  -20.7510  -29.7355   18.6046 C   0  0  0  0  0  0  0  0  0  0  0  0
  -30.3125  -17.1993   21.1585 C   0  0  0  0  0  0  0  0  0  0  0  0
  -27.1621  -24.5039   20.1122 C   0  0  0  0  0  0  0  0  0  1  0  0
  -22.4488  -29.4416   23.2807 C   0  0  1  0  0  0  0  0  0  0  0  0
  -19.5814  -29.5456   20.8033 C   0  0  2  0  0  0  0  0  0  0  0  0
  -22.1772  -29.3097   24.8059 C   0  0  0  0  0  0  0  0  0  0  0  0
  -24.9988  -12.0704   20.0680 N   0  0  0  0  0  0  0  0  0  0  0  0
  -25.3140  -13.3426   20.3647 N   0  0  0  0  0  0  0  0  0  0  0  0
  -24.6390  -30.0561   22.3064 N   0  0  0  0  0  0  0  0  0  0  0  0
  -28.5916  -14.7283   18.9698 N   0  0  0  0  0  0  0  0  0  0  0  0
  -24.9323  -15.0634   21.9472 N   0  0  0  0  0  0  0  0  0  0  0  0
  -22.4547  -11.6315   23.5218 N   0  0  0  0  0  0  0  0  0  0  0  0
  -27.7949  -22.2952   20.7814 N   0  0  0  0  0  0  0  0  0  0  0  0
  -27.3701  -31.8426   23.7485 N   0  0  0  0  0  0  0  0  0  0  0  0
  -21.2701  -29.7820   22.4911 N   0  0  0  0  0  0  0  0  0  0  0  0
  -29.4738  -16.1350   20.6540 N   0  0  0  0  0  0  0  0  0  0  0  0
  -19.5733  -29.2202   19.3491 N   0  3  0  0  0  0  0  0  0  0  0  0
  -23.0671  -13.8099   23.8931 O   0  0  0  0  0  0  0  0  0  0  0  0
  -26.8159  -29.5809   23.7371 O   0  0  0  0  0  0  0  0  0  0  0  0
  -23.2732  -31.6656   23.2964 O   0  0  0  0  0  0  0  0  0  0  0  0
  -28.8820  -23.2971   18.9534 O   0  0  0  0  0  0  0  0  0  0  0  0
  -21.3447  -27.9223   21.1080 O   0  0  0  0  0  0  0  0  0  0  0  0
  -30.1723  -16.3533   18.4811 O   0  0  0  0  0  0  0  0  0  0  0  0
  -21.9792   -6.5827   21.2155 O   0  0  0  0  0  0  0  0  0  0  0  0
  -27.4156  -25.5353   19.1591 O   0  0  0  0  0  0  0  0  0  1  0  0
  -22.0061   -3.9351   26.0522 F   0  0  0  0  0  0  0  0  0  0  0  0
  -31.0143  -19.1107   19.1980 F   0  0  0  0  0  0  0  0  0  0  0  0
  -23.2956   -4.1688   21.5038 F   0  0  0  0  0  0  0  0  0  0  0  0
  1  2  1  0  0  0  0
  1  5  2  0  0  0  0
  2  6  2  0  0  0  0
  3 10  2  0  0  0  0
  3 18  1  0  0  0  0
  4 11  1  0  0  0  0
  4 18  2  0  0  0  0
  5 20  1  0  0  0  0
  6 22  1  0  0  0  0
  7 12  2  0  0  0  0
  7 21  1  0  0  0  0
  8  9  2  0  0  0  0
  8 24  1  0  0  0  0
  9 25  1  0  0  0  0
 10 26  1  0  0  0  0
 11 26  2  0  0  0  0
 12 27  1  0  0  0  0
 13 14  2  0  0  0  0
 13 28  1  0  0  0  0
 14 29  1  0  0  0  0
 15 23  1  0  0  0  0
 15 27  2  0  0  0  0
 16 25  2  0  0  0  0
 16 30  1  0  0  0  0
 17 29  2  0  0  0  0
 17 31  1  0  0  0  0
 18 32  1  0  0  0  0
 19 32  1  0  0  0  0
 19 33  2  0  0  0  0
 19 34  1  0  0  0  0
 20 22  2  0  0  0  0
 20 40  1  0  0  0  0
 21 23  2  0  0  0  0
 21 41  1  0  0  0  0
 22 49  1  0  0  0  0
 23 42  1  0  0  0  0
 24 30  2  0  0  0  0
 24 57  1  0  0  0  0
 25 68  1  0  0  0  0
 26 79  1  0  0  0  0
 27 80  1  0  0  0  0
 28 31  2  0  0  0  0
 28 79  1  0  0  0  0
 29 81  1  0  0  0  0
 30 82  1  0  0  0  0
 31 83  1  0  0  0  0
 32 62  2  0  0  0  0
 33 63  1  0  0  0  0
 33 66  1  0  0  0  0
 34 67  1  0  0  0  0
 34 73  2  0  0  0  0
 35 50  1  0  0  0  0
 35 69  1  0  0  0  0
 35 74  2  0  0  0  0
 36 59  1  0  0  0  0
 36 64  1  0  0  0  0
 36 75  2  0  0  0  0
 37 58  1  0  0  0  0
 37 68  1  0  0  0  0
 37 76  2  0  0  0  0
 38 60  1  0  0  0  0
 38 70  1  0  0  0  0
 38 77  2  0  0  0  0
 39 65  1  0  0  0  0
 39 71  1  0  0  0  0
 39 78  2  0  0  0  0
 40 43  1  0  0  0  0
 41 50  1  0  0  0  0
 42 64  1  0  0  0  0
 43 45  1  0  0  0  0
 44 46  1  0  0  0  0
 44 47  1  0  0  0  0
 45 49  1  0  0  0  0
 46 51  1  0  0  0  0
 47 65  1  0  0  0  0
 48 51  1  0  0  0  0
 48 65  1  0  0  0  0
 49 69  1  0  0  0  0
 50 64  1  0  0  0  0
 51 63  1  0  0  0  0
 52 60  1  0  0  0  0
 53 61  1  0  0  0  0
 54 61  1  0  0  0  0
 55 61  1  0  0  0  0
 56 72  1  0  0  0  0
 57 71  1  0  0  0  0
 58 80  1  0  0  0  0
 59 61  1  0  0  0  0
 59 70  1  0  0  0  0
 60 72  1  0  0  0  0
 62 63  1  0  0  0  0
M  CHG  1  72   1
M  ISO  4  39 100  58 101  71 100  80 101
M  END
> <Batch ID>
0068

> <Smiles>
CNC(C)C(=O)NC(C(=O)N1Cc2cc([101O:1][101CH2:1]C(=O)Nc3ccc(C[100NH:0][100C:0](=O)N4CCCC(n5nc(-c6ccc(Oc7ccc(F)cc7F)cc6)c(C(N)=O)c5N)C4)c(F)c3)ccc2CC1C(=O)NC1CCCc2ccccc21)C(C)(C)C

> <Shape>
0.328

> <Color>
0.137

> <Negative vol penalty>
0.000

$$$$

  -OEChem-04042323273D

 86 94  0     1  0  0  0  0  0999 V2000
  -22.2600  -11.5613   18.7827 C   0  0  0  0  0  0  0  0  0  0  0  0
  -21.8887  -12.7715   19.3597 C   0  0  0  0  0  0  0  0  0  0  0  0
  -30.7093  -30.4807   22.0192 C   0  0  0  0  0  0  0  0  0  0  0  0
  -29.8764  -29.3383   23.9784 C   0  0  0  0  0  0  0  0  0  0  0  0
  -23.5509  -11.0685   18.9690 C   0  0  0  0  0  0  0  0  0  0  0  0
  -22.8078  -13.4892   20.1243 C   0  0  0  0  0  0  0  0  0  0  0  0
  -22.8031  -18.4340   19.0318 C   0  0  0  0  0  0  0  0  0  0  0  0
  -31.9559  -30.6184   22.6294 C   0  0  0  0  0  0  0  0  0  0  0  0
  -31.1232  -29.4760   24.5886 C   0  0  0  0  0  0  0  0  0  0  0  0
  -21.7697  -19.2030   19.5653 C   0  0  0  0  0  0  0  0  0  0  0  0
  -34.1448  -27.9695   24.4451 C   0  0  0  0  0  0  0  0  0  0  0  0
  -34.6726  -26.8547   25.0963 C   0  0  0  0  0  0  0  0  0  0  0  0
  -23.2482  -19.9675   21.3114 C   0  0  0  0  0  0  0  0  0  0  0  0
  -18.2886  -27.0589   23.1649 C   0  0  0  0  0  0  0  0  0  0  0  0
  -20.5085  -27.3173   22.2472 C   0  0  0  0  0  0  0  0  0  0  0  0
  -19.2840  -29.2549   23.0107 C   0  0  0  0  0  0  0  0  0  0  0  0
  -34.7189  -28.0893   27.1725 C   0  0  0  0  0  0  0  0  0  0  0  0
  -29.6695  -29.8407   22.6937 C   0  0  0  0  0  0  0  0  0  0  0  0
  -27.9429  -28.6323   21.2562 C   0  0  0  0  0  0  0  0  0  0  0  0
  -24.4892  -11.7852   19.7283 C   0  0  0  0  0  0  0  0  0  0  0  0
  -24.0658  -18.4175   19.6414 C   0  0  0  0  0  0  0  0  0  0  0  0
  -24.1120  -13.0049   20.3221 C   0  0  0  0  0  0  0  0  0  0  0  0
  -24.2967  -19.1994   20.7822 C   0  0  0  0  0  0  0  0  0  0  0  0
  -19.4367  -26.4991   22.6045 C   0  0  0  0  0  0  0  0  0  0  0  0
  -18.2122  -28.4368   23.3680 C   0  0  0  0  0  0  0  0  0  0  0  0
  -20.4321  -28.6952   22.4503 C   0  0  0  0  0  0  0  0  0  0  0  0
  -32.1629  -30.1161   23.9141 C   0  0  0  0  0  0  0  0  0  0  0  0
  -21.9914  -19.9676   20.7070 C   0  0  0  0  0  0  0  0  0  0  0  0
  -33.9041  -29.1444   25.1576 C   0  0  0  0  0  0  0  0  0  0  0  0
  -34.9596  -26.9145   26.4600 C   0  0  0  0  0  0  0  0  0  0  0  0
  -34.1912  -29.2042   26.5213 C   0  0  0  0  0  0  0  0  0  0  0  0
  -28.3813  -29.6986   22.0641 C   0  0  0  0  0  0  0  0  0  0  0  0
  -26.6580  -28.9707   20.9084 C   0  0  0  0  0  0  0  0  0  0  0  0
  -20.2670  -22.9265   21.8093 C   0  0  0  0  0  0  0  0  0  0  0  0
  -21.1684  -22.0699   21.3183 C   0  0  0  0  0  0  0  0  0  1  0  0
  -28.6352  -27.4422   20.8561 C   0  0  0  0  0  0  0  0  0  0  0  0
  -20.5749  -24.3857   21.8574 C   0  0  0  0  0  0  0  0  0  0  0  0
  -25.8709  -16.1825   21.0018 C   0  0  0  0  0  0  0  0  0  0  0  0
  -28.0542  -18.5779   21.1331 C   0  0  0  0  0  0  0  0  0  0  0  0
  -16.8066  -30.3462   24.2063 C   0  0  0  0  0  0  0  0  0  0  0  0
  -28.6739  -21.9336   21.1853 C   0  0  0  0  0  0  0  0  0  0  0  0
  -21.6071  -30.9118   22.2214 C   0  0  0  0  0  0  0  0  0  0  0  0
  -25.8583  -11.1893   19.9410 C   0  0  0  0  0  0  0  0  0  0  0  0
  -25.1776  -17.6035   19.0381 C   0  0  0  0  0  0  0  0  0  0  0  0
  -25.6399  -19.2322   21.4627 C   0  0  0  0  0  0  0  0  0  0  0  0
  -26.8868  -12.1938   20.4541 C   0  0  0  0  0  0  0  0  0  0  0  0
  -24.1265  -33.3164   21.4814 C   0  0  0  0  0  0  0  0  0  0  0  0
  -26.3053  -13.0148   21.6008 C   0  0  0  0  0  0  0  0  0  0  0  0
  -25.4220  -32.5019   21.5006 C   0  0  0  0  0  0  0  0  0  0  0  0
  -23.1409  -32.8396   22.5468 C   0  0  0  0  0  0  0  0  0  0  0  0
  -24.1390  -30.5873   22.5376 C   0  0  0  0  0  0  0  0  0  0  0  0
  -25.0883  -13.8246   21.1377 C   0  0  1  0  0  0  0  0  0  0  0  0
  -26.2777  -17.2610   20.0379 C   0  0  1  0  0  0  0  0  0  0  0  0
  -25.1370  -30.9884   21.4390 C   0  0  2  0  0  0  0  0  0  0  0  0
  -15.4409  -30.5410   24.8156 C   0  0  0  0  0  0  0  0  0  0  0  0
  -30.5555  -23.5872   21.3354 C   0  0  0  0  0  0  0  0  0  0  0  0
  -28.3082  -18.0139   24.1209 C   0  0  0  0  0  0  0  0  0  0  0  0
  -29.4274  -20.2390   24.3750 C   0  0  0  0  0  0  0  0  0  0  0  0
  -30.4742  -18.4728   22.9581 C   0  0  0  0  0  0  0  0  0  0  0  0
  -28.0200  -23.0930   18.5420 C   0  0  0  0  0  0  0  0  0  0  0  0
  -28.3989  -19.6567   22.1313 C   0  0  1  0  0  0  0  0  0  0  0  0
  -29.6558  -22.7888   20.4049 C   0  0  2  0  0  0  0  0  0  0  0  0
  -29.1262  -19.0937   23.3848 C   0  0  0  0  0  0  0  0  0  0  0  0
  -27.4505  -30.6438   22.2201 N   0  0  0  0  0  0  0  0  0  0  0  0
  -26.4145  -30.1726   21.5055 N   0  0  0  0  0  0  0  0  0  0  0  0
  -26.6932  -18.4146   20.8385 N   0  0  0  0  0  0  0  0  0  0  0  0
  -22.9161  -31.3976   22.4244 N   0  0  0  0  0  0  0  0  0  0  0  0
  -25.7240  -28.3546   20.1530 N   0  0  0  0  0  0  0  0  0  0  0  0
  -29.9499  -27.2518   21.3030 N   0  0  0  0  0  0  0  0  0  0  0  0
  -19.5143  -25.0997   22.3989 N   0  0  0  0  0  0  0  0  0  0  0  0
  -17.0642  -28.9971   23.9292 N   0  0  0  0  0  0  0  0  0  0  0  0
  -21.5206  -29.5265   22.0871 N   0  0  0  0  0  0  0  0  0  0  0  0
  -25.5112  -14.9935   20.3966 N   0  0  0  0  0  0  0  0  0  0  0  0
  -29.1619  -20.6618   21.3989 N   0  0  0  0  0  0  0  0  0  0  0  0
  -28.9251  -23.7435   19.5242 N   0  3  0  0  0  0  0  0  0  0  0  0
  -28.1095  -26.5813   20.1105 O   0  0  0  0  0  0  0  0  0  0  0  0
  -21.6460  -24.8225   21.4531 O   0  0  0  0  0  0  0  0  0  0  0  0
  -25.8838  -16.4117   22.2055 O   0  0  0  0  0  0  0  0  0  0  0  0
  -28.9597  -17.9098   20.6278 O   0  0  0  0  0  0  0  0  0  0  0  0
  -17.5465  -31.3036   24.0040 O   0  0  0  0  0  0  0  0  0  0  0  0
  -27.5847  -22.3530   21.5702 O   0  0  0  0  0  0  0  0  0  0  0  0
  -20.6379  -31.6711   22.1433 O   0  0  0  0  0  0  0  0  0  0  0  0
  -33.3794  -30.2501   24.5098 O   0  0  0  0  0  0  0  0  0  0  0  0
  -20.9843  -20.7186   21.2302 O   0  0  0  0  0  0  0  0  0  1  0  0
  -35.4650  -25.8433   27.0855 F   0  0  0  0  0  0  0  0  0  0  0  0
  -33.9610  -30.3297   27.2113 F   0  0  0  0  0  0  0  0  0  0  0  0
  1  2  1  0  0  0  0
  1  5  2  0  0  0  0
  2  6  2  0  0  0  0
  3  8  2  0  0  0  0
  3 18  1  0  0  0  0
  4  9  1  0  0  0  0
  4 18  2  0  0  0  0
  5 20  1  0  0  0  0
  6 22  1  0  0  0  0
  7 10  2  0  0  0  0
  7 21  1  0  0  0  0
  8 27  1  0  0  0  0
  9 27  2  0  0  0  0
 10 28  1  0  0  0  0
 11 12  2  0  0  0  0
 11 29  1  0  0  0  0
 12 30  1  0  0  0  0
 13 23  1  0  0  0  0
 13 28  2  0  0  0  0
 14 24  1  0  0  0  0
 14 25  2  0  0  0  0
 15 24  2  0  0  0  0
 15 26  1  0  0  0  0
 16 25  1  0  0  0  0
 16 26  2  0  0  0  0
 17 30  2  0  0  0  0
 17 31  1  0  0  0  0
 18 32  1  0  0  0  0
 19 32  1  0  0  0  0
 19 33  2  0  0  0  0
 19 36  1  0  0  0  0
 20 22  2  0  0  0  0
 20 43  1  0  0  0  0
 21 23  2  0  0  0  0
 21 44  1  0  0  0  0
 22 52  1  0  0  0  0
 23 45  1  0  0  0  0
 24 70  1  0  0  0  0
 25 71  1  0  0  0  0
 26 72  1  0  0  0  0
 27 83  1  0  0  0  0
 28 84  1  0  0  0  0
 29 31  2  0  0  0  0
 29 83  1  0  0  0  0
 30 85  1  0  0  0  0
 31 86  1  0  0  0  0
 32 64  2  0  0  0  0
 33 65  1  0  0  0  0
 33 68  1  0  0  0  0
 34 35  2  0  0  0  0
 34 37  1  0  0  0  0
 35 84  1  0  0  0  0
 36 69  1  0  0  0  0
 36 76  2  0  0  0  0
 37 70  1  0  0  0  0
 37 77  2  0  0  0  0
 38 53  1  0  0  0  0
 38 73  1  0  0  0  0
 38 78  2  0  0  0  0
 39 61  1  0  0  0  0
 39 66  1  0  0  0  0
 39 79  2  0  0  0  0
 40 55  1  0  0  0  0
 40 71  1  0  0  0  0
 40 80  2  0  0  0  0
 41 62  1  0  0  0  0
 41 74  1  0  0  0  0
 41 81  2  0  0  0  0
 42 67  1  0  0  0  0
 42 72  1  0  0  0  0
 42 82  2  0  0  0  0
 43 46  1  0  0  0  0
 44 53  1  0  0  0  0
 45 66  1  0  0  0  0
 46 48  1  0  0  0  0
 47 49  1  0  0  0  0
 47 50  1  0  0  0  0
 48 52  1  0  0  0  0
 49 54  1  0  0  0  0
 50 67  1  0  0  0  0
 51 54  1  0  0  0  0
 51 67  1  0  0  0  0
 52 73  1  0  0  0  0
 53 66  1  0  0  0  0
 54 65  1  0  0  0  0
 56 62  1  0  0  0  0
 57 63  1  0  0  0  0
 58 63  1  0  0  0  0
 59 63  1  0  0  0  0
 60 75  1  0  0  0  0
 61 63  1  0  0  0  0
 61 74  1  0  0  0  0
 62 75  1  0  0  0  0
 64 65  1  0  0  0  0
M  CHG  1  75   1
M  ISO  4  35 101  42 100  72 100  84 101
M  END
> <Batch ID>
0068

> <Smiles>
CNC(C)C(=O)NC(C(=O)N1Cc2cc([101O:1][101CH:1]=CC(=O)Nc3cc(NC(C)=O)cc([100NH:0][100C:0](=O)N4CCCC(n5nc(-c6ccc(Oc7ccc(F)cc7F)cc6)c(C(N)=O)c5N)C4)c3)ccc2CC1C(=O)NC1CCCc2ccccc21)C(C)(C)C

> <Shape>
0.235

> <Color>
0.087

> <Negative vol penalty>
0.000

$$$$

  -OEChem-04042323273D

 87 96  0     1  0  0  0  0  0999 V2000
  -21.5833  -13.3435   19.1872 C   0  0  0  0  0  0  0  0  0  0  0  0
  -21.6381  -14.5424   19.8907 C   0  0  0  0  0  0  0  0  0  0  0  0
  -23.2023  -24.6929   16.4724 C   0  0  0  0  0  0  0  0  0  0  0  0
  -25.2751  -25.5109   15.5390 C   0  0  0  0  0  0  0  0  0  0  0  0
  -22.7098  -12.5249   19.1181 C   0  0  0  0  0  0  0  0  0  0  0  0
  -22.8194  -14.9230   20.5265 C   0  0  0  0  0  0  0  0  0  0  0  0
  -23.9623  -19.7946   19.7478 C   0  0  0  0  0  0  0  0  0  0  0  0
  -17.5490  -27.4094   22.9162 C   0  0  0  0  0  0  0  0  0  0  0  0
  -18.0174  -26.1067   23.0869 C   0  0  0  0  0  0  0  0  0  0  0  0
  -22.7731  -24.3252   15.1972 C   0  0  0  0  0  0  0  0  0  0  0  0
  -24.8460  -25.1431   14.2638 C   0  0  0  0  0  0  0  0  0  0  0  0
  -23.2631  -20.7402   20.4966 C   0  0  0  0  0  0  0  0  0  0  0  0
  -23.3135  -21.7949   13.0204 C   0  0  0  0  0  0  0  0  0  0  0  0
  -22.7260  -20.5387   12.8713 C   0  0  0  0  0  0  0  0  0  0  0  0
  -20.2654  -26.9501   23.3556 C   0  0  0  0  0  0  0  0  0  0  0  0
  -25.1378  -20.9242   22.0035 C   0  0  0  0  0  0  0  0  0  0  0  0
  -20.6948  -21.5823   12.0826 C   0  0  0  0  0  0  0  0  0  0  0  0
  -24.4533  -25.2858   16.6433 C   0  0  0  0  0  0  0  0  0  0  0  0
  -19.7970  -28.2529   23.1848 C   0  0  0  0  0  0  0  0  0  0  0  0
  -25.6202  -24.8775   18.8747 C   0  0  0  0  0  0  0  0  0  0  0  0
  -23.9083  -12.9003   19.7453 C   0  0  0  0  0  0  0  0  0  0  0  0
  -25.2525  -19.3980   20.1281 C   0  0  0  0  0  0  0  0  0  0  0  0
  -23.9626  -14.1081   20.4669 C   0  0  0  0  0  0  0  0  0  0  0  0
  -25.8523  -19.9753   21.2564 C   0  0  0  0  0  0  0  0  0  0  0  0
  -18.4388  -28.4825   22.9651 C   0  0  0  0  0  0  0  0  0  0  0  0
  -19.3755  -25.8770   23.3067 C   0  0  0  0  0  0  0  0  0  0  0  0
  -23.5950  -24.5503   14.0929 C   0  0  0  0  0  0  0  0  0  0  0  0
  -23.8497  -21.3030   21.6263 C   0  0  0  0  0  0  0  0  0  0  0  0
  -22.5917  -22.9449   12.7006 C   0  0  0  0  0  0  0  0  0  0  0  0
  -21.4167  -20.4323   12.4024 C   0  0  0  0  0  0  0  0  0  0  0  0
  -21.2823  -22.8385   12.2317 C   0  0  0  0  0  0  0  0  0  0  0  0
  -24.8969  -25.6665   17.9603 C   0  0  0  0  0  0  0  0  0  0  0  0
  -25.7928  -25.6905   19.9682 C   0  0  0  0  0  0  0  0  0  0  0  0
  -21.1884  -24.1537   23.7076 C   0  0  0  0  0  0  0  0  0  0  0  0
  -20.7662  -29.3772   23.2423 C   0  0  0  0  0  0  0  0  0  0  0  0
  -26.0939  -23.5303   18.7471 C   0  0  0  0  0  0  0  0  0  0  0  0
  -26.5836  -16.6530   21.0207 C   0  0  0  0  0  0  0  0  0  0  0  0
  -29.3183  -18.3945   20.9155 C   0  0  0  0  0  0  0  0  0  0  0  0
  -30.8069  -21.4620   21.0597 C   0  0  0  0  0  0  0  0  0  0  0  0
  -22.7729  -30.3238   22.1464 C   0  0  0  0  0  0  0  0  0  0  0  0
  -25.0859  -11.9601   19.6825 C   0  0  0  0  0  0  0  0  0  0  0  0
  -26.0038  -18.3965   19.2945 C   0  0  0  0  0  0  0  0  0  0  0  0
  -27.2429  -19.5986   21.6954 C   0  0  0  0  0  0  0  0  0  0  0  0
  -26.4095  -12.6149   20.0692 C   0  0  0  0  0  0  0  0  0  0  0  0
  -26.1723  -30.3138   21.1762 C   0  0  0  0  0  0  0  0  0  0  0  0
  -26.2470  -13.4338   21.3458 C   0  0  0  0  0  0  0  0  0  0  0  0
  -26.3044  -29.0403   20.3365 C   0  0  0  0  0  0  0  0  0  0  0  0
  -19.7761  -22.2528   23.9711 C   0  0  0  0  0  0  0  0  0  0  0  0
  -24.8310  -31.0087   20.9460 C   0  0  0  0  0  0  0  0  0  0  0  0
  -18.9808  -23.3920   23.3655 C   0  0  0  0  0  0  0  0  0  0  0  0
  -23.7832  -28.8855   20.2733 C   0  0  0  0  0  0  0  0  0  0  0  0
  -25.2331  -14.5672   21.1490 C   0  0  1  0  0  0  0  0  0  0  0  0
  -21.2280  -22.6358   23.7138 C   0  0  1  0  0  0  0  0  0  0  0  0
  -27.1116  -17.6871   20.0671 C   0  0  1  0  0  0  0  0  0  0  0  0
  -25.0878  -28.1114   20.5223 C   0  0  1  0  0  0  0  0  0  0  0  0
  -17.9106  -29.8676   22.7790 C   0  0  0  0  0  0  0  0  0  0  0  0
  -33.0602  -22.5638   20.9810 C   0  0  0  0  0  0  0  0  0  0  0  0
  -29.8621  -17.4812   23.7756 C   0  0  0  0  0  0  0  0  0  0  0  0
  -31.5568  -19.3144   23.9647 C   0  0  0  0  0  0  0  0  0  0  0  0
  -31.8706  -17.4964   22.2856 C   0  0  0  0  0  0  0  0  0  0  0  0
  -30.0926  -23.0137   18.6429 C   0  0  0  0  0  0  0  0  0  0  0  0
  -21.7463  -22.1191   22.3784 C   0  0  0  0  0  0  0  0  0  1  0  0
  -30.0838  -19.2433   21.9016 C   0  0  1  0  0  0  0  0  0  0  0  0
  -31.8509  -22.1177   20.1739 C   0  0  2  0  0  0  0  0  0  0  0  0
  -30.8163  -18.3897   22.9750 C   0  0  0  0  0  0  0  0  0  0  0  0
  -24.6283  -26.8869   18.4319 N   0  0  0  0  0  0  0  0  0  0  0  0
  -25.1857  -26.8709   19.6547 N   0  0  0  0  0  0  0  0  0  0  0  0
  -19.8547  -24.5435   23.4793 N   0  0  0  0  0  0  0  0  0  0  0  0
  -27.9344  -18.6104   20.8511 N   0  0  0  0  0  0  0  0  0  0  0  0
  -23.7310  -30.0646   21.1508 N   0  0  0  0  0  0  0  0  0  0  0  0
  -26.4031  -25.5036   21.1578 N   0  0  0  0  0  0  0  0  0  0  0  0
  -25.8297  -22.8391   17.5567 N   0  0  0  0  0  0  0  0  0  0  0  0
  -21.7873  -29.3412   22.2922 N   0  0  0  0  0  0  0  0  0  0  0  0
  -25.8340  -15.6615   20.4170 N   0  0  0  0  0  0  0  0  0  0  0  0
  -30.9663  -20.0933   21.1098 N   0  0  0  0  0  0  0  0  0  0  0  0
  -31.2755  -23.3108   19.4911 N   0  3  0  0  0  0  0  0  0  0  0  0
  -22.1960  -24.8367   23.8263 O   0  0  0  0  0  0  0  0  0  0  0  0
  -20.5992  -30.2691   24.0696 O   0  0  0  0  0  0  0  0  0  0  0  0
  -26.7182  -22.9507   19.6678 O   0  0  0  0  0  0  0  0  0  0  0  0
  -26.8387  -16.7468   22.2157 O   0  0  0  0  0  0  0  0  0  0  0  0
  -29.9268  -17.5752   20.2226 O   0  0  0  0  0  0  0  0  0  0  0  0
  -29.9393  -22.1006   21.6513 O   0  0  0  0  0  0  0  0  0  0  0  0
  -22.8129  -31.3245   22.8690 O   0  0  0  0  0  0  0  0  0  0  0  0
  -23.1766  -24.1913   12.8484 O   0  0  0  0  0  0  0  0  0  0  0  0
  -23.1692  -22.2258   22.3594 O   0  0  0  0  0  0  0  0  0  1  0  0
  -20.8531  -19.2258   12.2578 F   0  0  0  0  0  0  0  0  0  0  0  0
  -20.5842  -23.9397   11.9217 F   0  0  0  0  0  0  0  0  0  0  0  0
  1  2  1  0  0  0  0
  1  5  2  0  0  0  0
  2  6  2  0  0  0  0
  3 10  2  0  0  0  0
  3 18  1  0  0  0  0
  4 11  1  0  0  0  0
  4 18  2  0  0  0  0
  5 21  1  0  0  0  0
  6 23  1  0  0  0  0
  7 12  2  0  0  0  0
  7 22  1  0  0  0  0
  8  9  2  0  0  0  0
  8 25  1  0  0  0  0
  9 26  1  0  0  0  0
 10 27  1  0  0  0  0
 11 27  2  0  0  0  0
 12 28  1  0  0  0  0
 13 14  2  0  0  0  0
 13 29  1  0  0  0  0
 14 30  1  0  0  0  0
 15 19  1  0  0  0  0
 15 26  2  0  0  0  0
 16 24  1  0  0  0  0
 16 28  2  0  0  0  0
 17 30  2  0  0  0  0
 17 31  1  0  0  0  0
 18 32  1  0  0  0  0
 19 25  2  0  0  0  0
 19 35  1  0  0  0  0
 20 32  1  0  0  0  0
 20 33  2  0  0  0  0
 20 36  1  0  0  0  0
 21 23  2  0  0  0  0
 21 41  1  0  0  0  0
 22 24  2  0  0  0  0
 22 42  1  0  0  0  0
 23 52  1  0  0  0  0
 24 43  1  0  0  0  0
 25 56  1  0  0  0  0
 26 68  1  0  0  0  0
 27 84  1  0  0  0  0
 28 85  1  0  0  0  0
 29 31  2  0  0  0  0
 29 84  1  0  0  0  0
 30 86  1  0  0  0  0
 31 87  1  0  0  0  0
 32 66  2  0  0  0  0
 33 67  1  0  0  0  0
 33 71  1  0  0  0  0
 34 53  1  0  0  0  0
 34 68  1  0  0  0  0
 34 77  2  0  0  0  0
 35 73  1  0  0  0  0
 35 78  2  0  0  0  0
 36 72  1  0  0  0  0
 36 79  2  0  0  0  0
 37 54  1  0  0  0  0
 37 74  1  0  0  0  0
 37 80  2  0  0  0  0
 38 63  1  0  0  0  0
 38 69  1  0  0  0  0
 38 81  2  0  0  0  0
 39 64  1  0  0  0  0
 39 75  1  0  0  0  0
 39 82  2  0  0  0  0
 40 70  1  0  0  0  0
 40 73  1  0  0  0  0
 40 83  2  0  0  0  0
 41 44  1  0  0  0  0
 42 54  1  0  0  0  0
 43 69  1  0  0  0  0
 44 46  1  0  0  0  0
 45 47  1  0  0  0  0
 45 49  1  0  0  0  0
 46 52  1  0  0  0  0
 47 55  1  0  0  0  0
 48 50  1  0  0  0  0
 48 53  1  0  0  0  0
 49 70  1  0  0  0  0
 50 68  1  0  0  0  0
 51 55  1  0  0  0  0
 51 70  1  0  0  0  0
 52 74  1  0  0  0  0
 53 62  1  0  0  0  0
 54 69  1  0  0  0  0
 55 67  1  0  0  0  0
 57 64  1  0  0  0  0
 58 65  1  0  0  0  0
 59 65  1  0  0  0  0
 60 65  1  0  0  0  0
 61 76  1  0  0  0  0
 62 85  1  0  0  0  0
 63 65  1  0  0  0  0
 63 75  1  0  0  0  0
 64 76  1  0  0  0  0
 66 67  1  0  0  0  0
M  CHG  1  76   1
M  ISO  4  40 100  62 101  73 100  85 101
M  END
> <Batch ID>
0068

> <Smiles>
CNC(C)C(=O)NC(C(=O)N1Cc2cc([101O:1][101CH2:1]C3CCN(c4ccc(C)c(C(=O)[100NH:0][100C:0](=O)N5CCCC(n6nc(-c7ccc(Oc8ccc(F)cc8F)cc7)c(C(N)=O)c6N)C5)c4)C3=O)ccc2CC1C(=O)NC1CCCc2ccccc21)C(C)(C)C

> <Shape>
0.201

> <Color>
0.080

> <Negative vol penalty>
0.000

$$$$

  -OEChem-04042323273D

 85 94  0     1  0  0  0  0  0999 V2000
  -18.5867  -28.3267   22.0888 C   0  0  0  0  0  0  0  0  0  0  0  0
  -18.2907  -27.0675   21.5768 C   0  0  0  0  0  0  0  0  0  0  0  0
  -27.9197  -22.3959   17.6861 C   0  0  0  0  0  0  0  0  0  0  0  0
  -30.1705  -22.9833   18.3389 C   0  0  0  0  0  0  0  0  0  0  0  0
  -19.7085  -28.5031   22.8976 C   0  0  0  0  0  0  0  0  0  0  0  0
  -19.1171  -25.9840   21.8726 C   0  0  0  0  0  0  0  0  0  0  0  0
  -25.7521  -12.8321   18.9266 C   0  0  0  0  0  0  0  0  0  0  0  0
  -18.8680  -18.9103   22.9759 C   0  0  0  0  0  0  0  0  0  0  0  0
  -24.9169  -13.5890   19.7456 C   0  0  0  0  0  0  0  0  0  0  0  0
  -28.0669  -23.1358   16.5129 C   0  0  0  0  0  0  0  0  0  0  0  0
  -30.3177  -23.7232   17.1657 C   0  0  0  0  0  0  0  0  0  0  0  0
  -19.4669  -17.7301   22.5375 C   0  0  0  0  0  0  0  0  0  0  0  0
  -27.9661  -26.3855   15.5890 C   0  0  0  0  0  0  0  0  0  0  0  0
  -26.9171  -27.2268   15.2184 C   0  0  0  0  0  0  0  0  0  0  0  0
  -26.8504  -14.4656   20.8913 C   0  0  0  0  0  0  0  0  0  0  0  0
  -21.3335  -18.1373   24.0103 C   0  0  0  0  0  0  0  0  0  0  0  0
  -26.6731  -26.0093   13.1459 C   0  0  0  0  0  0  0  0  0  0  0  0
  -28.9715  -22.3197   18.5992 C   0  0  0  0  0  0  0  0  0  0  0  0
  -27.8699  -21.7583   20.8305 C   0  0  0  0  0  0  0  0  0  0  0  0
  -20.5437  -27.4192   23.2113 C   0  0  0  0  0  0  0  0  0  0  0  0
  -27.1469  -12.8786   19.0851 C   0  0  0  0  0  0  0  0  0  0  0  0
  -19.5035  -19.7198   23.9284 C   0  0  0  0  0  0  0  0  0  0  0  0
  -20.2520  -26.1462   22.6853 C   0  0  0  0  0  0  0  0  0  0  0  0
  -27.7112  -13.7278   20.0587 C   0  0  0  0  0  0  0  0  0  0  0  0
  -20.7394  -19.3260   24.4610 C   0  0  0  0  0  0  0  0  0  0  0  0
  -25.4657  -14.4009   20.7317 C   0  0  0  0  0  0  0  0  0  0  0  0
  -29.2658  -23.7994   16.2527 C   0  0  0  0  0  0  0  0  0  0  0  0
  -20.7012  -17.3449   23.0526 C   0  0  0  0  0  0  0  0  0  0  0  0
  -28.3687  -25.3562   14.7381 C   0  0  0  0  0  0  0  0  0  0  0  0
  -26.2705  -27.0386   13.9968 C   0  0  0  0  0  0  0  0  0  0  0  0
  -27.7222  -25.1680   13.5165 C   0  0  0  0  0  0  0  0  0  0  0  0
  -28.8199  -21.5559   19.8116 C   0  0  0  0  0  0  0  0  0  0  0  0
  -28.1424  -20.7784   21.7536 C   0  0  0  0  0  0  0  0  0  0  0  0
  -26.8337  -22.7439   20.9335 C   0  0  0  0  0  0  0  0  0  0  0  0
  -20.6182  -22.6964   23.9571 C   0  0  0  0  0  0  0  0  0  0  0  0
  -21.1075  -22.0682   27.1017 C   0  0  0  0  0  0  0  0  0  0  0  0
  -23.2303  -15.2123   21.5554 C   0  0  0  0  0  0  0  0  0  0  0  0
  -21.5983  -19.7409   29.5490 C   0  0  0  0  0  0  0  0  0  0  0  0
  -30.7568  -15.4071   21.3468 C   0  0  0  0  0  0  0  0  0  0  0  0
  -21.7716  -27.6682   24.0511 C   0  0  0  0  0  0  0  0  0  0  0  0
  -28.0045  -12.0443   18.1666 C   0  0  0  0  0  0  0  0  0  0  0  0
  -18.8318  -20.9763   24.4106 C   0  0  0  0  0  0  0  0  0  0  0  0
  -21.4535  -20.1495   25.5004 C   0  0  0  0  0  0  0  0  0  0  0  0
  -22.3868  -26.3938   24.6233 C   0  0  0  0  0  0  0  0  0  0  0  0
  -29.4211  -11.8426   18.6949 C   0  0  0  0  0  0  0  0  0  0  0  0
  -31.7444  -18.1161   23.4355 C   0  0  0  0  0  0  0  0  0  0  0  0
  -22.4944  -25.3215   23.5437 C   0  0  0  0  0  0  0  0  0  0  0  0
  -30.0158  -13.1800   19.1144 C   0  0  0  0  0  0  0  0  0  0  0  0
  -31.0211  -19.3231   22.8356 C   0  0  0  0  0  0  0  0  0  0  0  0
  -32.2092  -17.1423   22.3550 C   0  0  0  0  0  0  0  0  0  0  0  0
  -30.4291  -17.9013   20.8289 C   0  0  0  0  0  0  0  0  0  0  0  0
  -21.1104  -24.9414   23.0038 C   0  0  1  0  0  0  0  0  0  0  0  0
  -29.2129  -13.7891   20.2708 C   0  0  1  0  0  0  0  0  0  0  0  0
  -19.8090  -21.9859   25.0049 C   0  0  1  0  0  0  0  0  0  0  0  0
  -29.8923  -18.8842   21.8835 C   0  0  2  0  0  0  0  0  0  0  0  0
  -22.0049  -19.5328   32.0166 C   0  0  0  0  0  0  0  0  0  0  0  0
  -24.0061  -22.9297   26.6943 C   0  0  0  0  0  0  0  0  0  0  0  0
  -24.5677  -21.8225   28.8684 C   0  0  0  0  0  0  0  0  0  0  0  0
  -22.9675  -23.7355   28.8218 C   0  0  0  0  0  0  0  0  0  0  0  0
  -19.1060  -18.1953   29.9470 C   0  0  0  0  0  0  0  0  0  0  0  0
  -22.7147  -16.1522   22.6293 C   0  0  0  0  0  0  0  0  0  1  0  0
  -22.2423  -21.4906   27.9126 C   0  0  1  0  0  0  0  0  0  0  0  0
  -20.9579  -19.5641   30.9140 C   0  0  2  0  0  0  0  0  0  0  0  0
  -23.4336  -22.4798   28.0533 C   0  0  0  0  0  0  0  0  0  0  0  0
  -29.6351  -20.5283   20.0633 N   0  0  0  0  0  0  0  0  0  0  0  0
  -29.1982  -20.0762   21.2511 N   0  0  0  0  0  0  0  0  0  0  0  0
  -20.7591  -21.3727   25.9352 N   0  0  0  0  0  0  0  0  0  0  0  0
  -31.0911  -16.7642   21.4872 N   0  0  0  0  0  0  0  0  0  0  0  0
  -27.5796  -20.4576   22.9380 N   0  0  0  0  0  0  0  0  0  0  0  0
  -27.1308  -23.9631   21.5577 N   0  0  0  0  0  0  0  0  0  0  0  0
  -24.6200  -15.1603   21.5745 N   0  0  0  0  0  0  0  0  0  0  0  0
  -20.4290  -24.0650   23.9323 N   0  0  0  0  0  0  0  0  0  0  0  0
  -21.6627  -21.0688   29.1832 N   0  0  0  0  0  0  0  0  0  0  0  0
  -29.6804  -15.1362   20.5108 N   0  0  0  0  0  0  0  0  0  0  0  0
  -20.1857  -18.2905   30.9629 N   0  3  0  0  0  0  0  0  0  0  0  0
  -25.6739  -22.5428   20.4998 O   0  0  0  0  0  0  0  0  0  0  0  0
  -21.3606  -22.0510   23.2264 O   0  0  0  0  0  0  0  0  0  0  0  0
  -20.5460  -23.0946   27.4927 O   0  0  0  0  0  0  0  0  0  0  0  0
  -22.4668  -14.6120   20.8063 O   0  0  0  0  0  0  0  0  0  0  0  0
  -22.0044  -18.7958   28.8764 O   0  0  0  0  0  0  0  0  0  0  0  0
  -31.3687  -14.5043   21.9277 O   0  0  0  0  0  0  0  0  0  0  0  0
  -29.4099  -24.5214   15.1078 O   0  0  0  0  0  0  0  0  0  0  0  0
  -21.2883  -16.1937   22.6259 O   0  0  0  0  0  0  0  0  0  1  0  0
  -25.2621  -27.8456   13.6417 F   0  0  0  0  0  0  0  0  0  0  0  0
  -28.1037  -24.1801   12.6954 F   0  0  0  0  0  0  0  0  0  0  0  0
  1  2  1  0  0  0  0
  1  5  2  0  0  0  0
  2  6  2  0  0  0  0
  3 10  2  0  0  0  0
  3 18  1  0  0  0  0
  4 11  1  0  0  0  0
  4 18  2  0  0  0  0
  5 20  1  0  0  0  0
  6 23  1  0  0  0  0
  7  9  2  0  0  0  0
  7 21  1  0  0  0  0
  8 12  2  0  0  0  0
  8 22  1  0  0  0  0
  9 26  1  0  0  0  0
 10 27  1  0  0  0  0
 11 27  2  0  0  0  0
 12 28  1  0  0  0  0
 13 14  2  0  0  0  0
 13 29  1  0  0  0  0
 14 30  1  0  0  0  0
 15 24  1  0  0  0  0
 15 26  2  0  0  0  0
 16 25  1  0  0  0  0
 16 28  2  0  0  0  0
 17 30  2  0  0  0  0
 17 31  1  0  0  0  0
 18 32  1  0  0  0  0
 19 32  1  0  0  0  0
 19 33  2  0  0  0  0
 19 34  1  0  0  0  0
 20 23  2  0  0  0  0
 20 40  1  0  0  0  0
 21 24  2  0  0  0  0
 21 41  1  0  0  0  0
 22 25  2  0  0  0  0
 22 42  1  0  0  0  0
 23 52  1  0  0  0  0
 24 53  1  0  0  0  0
 25 43  1  0  0  0  0
 26 71  1  0  0  0  0
 27 82  1  0  0  0  0
 28 83  1  0  0  0  0
 29 31  2  0  0  0  0
 29 82  1  0  0  0  0
 30 84  1  0  0  0  0
 31 85  1  0  0  0  0
 32 65  2  0  0  0  0
 33 66  1  0  0  0  0
 33 69  1  0  0  0  0
 34 70  1  0  0  0  0
 34 76  2  0  0  0  0
 35 54  1  0  0  0  0
 35 72  1  0  0  0  0
 35 77  2  0  0  0  0
 36 62  1  0  0  0  0
 36 67  1  0  0  0  0
 36 78  2  0  0  0  0
 37 61  1  0  0  0  0
 37 71  1  0  0  0  0
 37 79  2  0  0  0  0
 38 63  1  0  0  0  0
 38 73  1  0  0  0  0
 38 80  2  0  0  0  0
 39 68  1  0  0  0  0
 39 74  1  0  0  0  0
 39 81  2  0  0  0  0
 40 44  1  0  0  0  0
 41 45  1  0  0  0  0
 42 54  1  0  0  0  0
 43 67  1  0  0  0  0
 44 47  1  0  0  0  0
 45 48  1  0  0  0  0
 46 49  1  0  0  0  0
 46 50  1  0  0  0  0
 47 52  1  0  0  0  0
 48 53  1  0  0  0  0
 49 55  1  0  0  0  0
 50 68  1  0  0  0  0
 51 55  1  0  0  0  0
 51 68  1  0  0  0  0
 52 72  1  0  0  0  0
 53 74  1  0  0  0  0
 54 67  1  0  0  0  0
 55 66  1  0  0  0  0
 56 63  1  0  0  0  0
 57 64  1  0  0  0  0
 58 64  1  0  0  0  0
 59 64  1  0  0  0  0
 60 75  1  0  0  0  0
 61 83  1  0  0  0  0
 62 64  1  0  0  0  0
 62 73  1  0  0  0  0
 63 75  1  0  0  0  0
 65 66  1  0  0  0  0
M  CHG  1  75   1
M  ISO  4  39 100  61 101  74 100  83 101
M  END
> <Batch ID>
0068

> <Smiles>
CNC(C)C(=O)NC(C(=O)N1Cc2cc([101O:1][101CH2:1]C(=O)Nc3ccc4c(c3)C([100NH:0][100C:0](=O)N3CCCC(n5nc(-c6ccc(Oc7ccc(F)cc7F)cc6)c(C(N)=O)c5N)C3)CCC4)ccc2CC1C(=O)NC1CCCc2ccccc21)C(C)(C)C

> <Shape>
0.182

> <Color>
0.068

> <Negative vol penalty>
0.000

$$$$

  -OEChem-04042323273D

 91100  0     1  0  0  0  0  0999 V2000
  -26.1602  -30.8509   27.8651 C   0  0  0  0  0  0  0  0  0  0  0  0
  -26.1279  -29.8853   26.8641 C   0  0  0  0  0  0  0  0  0  0  0  0
  -24.5566   -8.5420   21.3609 C   0  0  0  0  0  0  0  0  0  0  0  0
  -22.8475  -10.2424   21.5179 C   0  0  0  0  0  0  0  0  0  0  0  0
  -25.2474  -31.9046   27.8453 C   0  0  0  0  0  0  0  0  0  0  0  0
  -25.1819  -29.9722   25.8433 C   0  0  0  0  0  0  0  0  0  0  0  0
  -27.1736  -29.1002   21.2697 C   0  0  0  0  0  0  0  0  0  0  0  0
  -23.9086   -7.7995   22.3479 C   0  0  0  0  0  0  0  0  0  0  0  0
  -22.1994   -9.4998   22.5049 C   0  0  0  0  0  0  0  0  0  0  0  0
  -27.4149  -27.7716   20.9231 C   0  0  0  0  0  0  0  0  0  0  0  0
  -21.2400   -5.7340   22.5620 C   0  0  0  0  0  0  0  0  0  0  0  0
  -21.0896   -4.3638   22.3484 C   0  0  0  0  0  0  0  0  0  0  0  0
  -25.3768  -27.7443   19.6329 C   0  0  0  0  0  0  0  0  0  0  0  0
  -25.0140  -20.6563   20.3097 C   0  0  0  0  0  0  0  0  0  0  0  0
  -24.6393  -18.2698   20.3349 C   0  0  0  0  0  0  0  0  0  0  0  0
  -26.8920  -19.1379   20.2427 C   0  0  0  0  0  0  0  0  0  0  0  0
  -22.3577   -3.9120   24.3547 C   0  0  0  0  0  0  0  0  0  0  0  0
  -24.0261   -9.7635   20.9459 C   0  0  0  0  0  0  0  0  0  0  0  0
  -24.4931  -10.4566   18.5357 C   0  0  0  0  0  0  0  0  0  0  0  0
  -24.2961  -32.0099   26.8184 C   0  0  0  0  0  0  0  0  0  0  0  0
  -26.0246  -29.7587   20.8086 C   0  0  0  0  0  0  0  0  0  0  0  0
  -24.2547  -31.0276   25.8105 C   0  0  0  0  0  0  0  0  0  0  0  0
  -25.1245  -29.0822   19.9729 C   0  0  0  0  0  0  0  0  0  0  0  0
  -24.1382  -19.5715   20.3488 C   0  0  0  0  0  0  0  0  0  0  0  0
  -26.3910  -20.4395   20.2566 C   0  0  0  0  0  0  0  0  0  0  0  0
  -26.0162  -18.0529   20.2819 C   0  0  0  0  0  0  0  0  0  0  0  0
  -22.7299   -8.2783   22.9199 C   0  0  0  0  0  0  0  0  0  0  0  0
  -26.5150  -27.0925   20.1069 C   0  0  0  0  0  0  0  0  0  0  0  0
  -21.9493   -6.1932   23.6718 C   0  0  0  0  0  0  0  0  0  0  0  0
  -21.6484   -3.4528   23.2448 C   0  0  0  0  0  0  0  0  0  0  0  0
  -22.5081   -5.2822   24.5682 C   0  0  0  0  0  0  0  0  0  0  0  0
  -24.6955  -10.5314   19.9268 C   0  0  0  0  0  0  0  0  0  0  0  0
  -25.3635  -11.3811   18.0120 C   0  0  0  0  0  0  0  0  0  0  0  0
  -28.6954  -21.4943   20.1614 C   0  0  0  0  0  0  0  0  0  0  0  0
  -23.5983   -9.6259   17.7841 C   0  0  0  0  0  0  0  0  0  0  0  0
  -23.4922  -31.0881   22.1956 C   0  0  0  0  0  0  0  0  0  0  0  0
  -22.8045  -32.0131   19.1635 C   0  0  0  0  0  0  0  0  0  0  0  0
  -23.1789  -31.4737   15.8145 C   0  0  0  0  0  0  0  0  0  0  0  0
  -27.8632  -16.3410   20.2155 C   0  0  0  0  0  0  0  0  0  0  0  0
  -23.2994  -33.1408   26.8653 C   0  0  0  0  0  0  0  0  0  0  0  0
  -25.7924  -31.2003   21.1697 C   0  0  0  0  0  0  0  0  0  0  0  0
  -23.8865  -29.7502   19.4350 C   0  0  0  0  0  0  0  0  0  0  0  0
  -22.5711  -33.3661   25.5428 C   0  0  0  0  0  0  0  0  0  0  0  0
  -29.5640  -13.4986   18.9098 C   0  0  0  0  0  0  0  0  0  0  0  0
  -22.0835  -32.0395   24.9691 C   0  0  0  0  0  0  0  0  0  0  0  0
  -28.4885  -12.4099   18.8902 C   0  0  0  0  0  0  0  0  0  0  0  0
  -29.4255  -14.4107   20.1275 C   0  0  0  0  0  0  0  0  0  0  0  0
  -26.8140  -22.9210   20.2800 C   0  0  0  0  0  0  0  0  0  0  0  0
  -27.0184  -13.9129   20.2927 C   0  0  0  0  0  0  0  0  0  0  0  0
  -23.2596  -31.1011   24.6728 C   0  0  1  0  0  0  0  0  0  0  0  0
  -24.3280  -31.6145   21.0633 C   0  0  1  0  0  0  0  0  0  0  0  0
  -28.0028  -23.7480   19.8063 C   0  0  2  0  0  0  0  0  0  0  0  0
  -27.0774  -13.0089   19.0505 C   0  0  2  0  0  0  0  0  0  0  0  0
  -29.2180  -22.9284   20.2846 C   0  0  1  0  0  0  0  0  0  0  0  0
  -29.6018  -23.1697   21.7514 C   0  0  0  0  0  0  0  0  0  0  0  0
  -30.1073  -22.9071   17.9481 C   0  0  0  0  0  0  0  0  0  0  0  0
  -22.4659  -32.3725   13.5826 C   0  0  0  0  0  0  0  0  0  0  0  0
  -20.0554  -30.7419   19.5325 C   0  0  0  0  0  0  0  0  0  0  0  0
  -19.7636  -30.8179   17.0471 C   0  0  0  0  0  0  0  0  0  0  0  0
  -20.0373  -32.9370   18.3344 C   0  0  0  0  0  0  0  0  0  0  0  0
  -25.9707  -32.0668   15.0314 C   0  0  0  0  0  0  0  0  0  0  0  0
  -27.9336  -25.1919   20.2832 C   0  0  0  0  0  0  0  0  0  1  0  0
  -30.4355  -23.1460   19.3846 C   0  0  0  0  0  0  0  0  0  0  0  0
  -22.0309  -31.4158   18.0129 C   0  0  1  0  0  0  0  0  0  0  0  0
  -23.5232  -32.4155   14.6748 C   0  0  2  0  0  0  0  0  0  0  0  0
  -22.6658  -19.8038   20.4042 C   0  0  0  0  0  0  0  0  0  0  0  0
  -20.4940  -31.4647   18.2433 C   0  0  0  0  0  0  0  0  0  0  0  0
  -25.6219  -11.4320   20.2655 N   0  0  0  0  0  0  0  0  0  0  0  0
  -26.0094  -11.9316   19.0796 N   0  0  0  0  0  0  0  0  0  0  0  0
  -27.2871  -21.5505   20.2164 N   0  0  0  0  0  0  0  0  0  0  0  0
  -23.7004  -31.1586   19.8214 N   0  0  0  0  0  0  0  0  0  0  0  0
  -28.0644  -14.9445   20.2122 N   0  0  0  0  0  0  0  0  0  0  0  0
  -25.6318  -11.7685   16.7469 N   0  0  0  0  0  0  0  0  0  0  0  0
  -22.7735   -8.7316   18.4800 N   0  0  0  0  0  0  0  0  0  0  0  0
  -26.5252  -16.7307   20.2664 N   0  0  0  0  0  0  0  0  0  0  0  0
  -23.9207  -31.4912   23.4459 N   0  0  0  0  0  0  0  0  0  0  0  0
  -22.4779  -32.1156   16.8134 N   0  0  0  0  0  0  0  0  0  0  0  0
  -24.8352  -32.0434   14.0738 N   0  3  0  0  0  0  0  0  0  0  0  0
  -29.4322  -20.5198   20.0955 O   0  0  0  0  0  0  0  0  0  0  0  0
  -23.5438   -9.6636   16.5315 O   0  0  0  0  0  0  0  0  0  0  0  0
  -22.5289  -30.3706   21.9527 O   0  0  0  0  0  0  0  0  0  0  0  0
  -22.6258  -33.1964   19.4627 O   0  0  0  0  0  0  0  0  0  0  0  0
  -23.4965  -30.2864   15.8165 O   0  0  0  0  0  0  0  0  0  0  0  0
  -28.8069  -17.1328   20.1485 O   0  0  0  0  0  0  0  0  0  0  0  0
  -22.0971   -7.5539   23.8828 O   0  0  0  0  0  0  0  0  0  0  0  0
  -26.7477  -25.7954   19.7676 O   0  0  0  0  0  0  0  0  0  1  0  0
  -21.5026   -2.1371   23.0405 F   0  0  0  0  0  0  0  0  0  0  0  0
  -23.1896   -5.7174   25.6368 F   0  0  0  0  0  0  0  0  0  0  0  0
  -22.3202  -21.1252   20.4108 F   0  0  0  0  0  0  0  0  0  0  0  0
  -21.9872  -19.2635   19.3492 F   0  0  0  0  0  0  0  0  0  0  0  0
  -22.0918  -19.2696   21.5212 F   0  0  0  0  0  0  0  0  0  0  0  0
  1  2  1  0  0  0  0
  1  5  2  0  0  0  0
  2  6  2  0  0  0  0
  3  8  2  0  0  0  0
  3 18  1  0  0  0  0
  4  9  1  0  0  0  0
  4 18  2  0  0  0  0
  5 20  1  0  0  0  0
  6 22  1  0  0  0  0
  7 10  2  0  0  0  0
  7 21  1  0  0  0  0
  8 27  1  0  0  0  0
  9 27  2  0  0  0  0
 10 28  1  0  0  0  0
 11 12  2  0  0  0  0
 11 29  1  0  0  0  0
 12 30  1  0  0  0  0
 13 23  1  0  0  0  0
 13 28  2  0  0  0  0
 14 24  1  0  0  0  0
 14 25  2  0  0  0  0
 15 24  2  0  0  0  0
 15 26  1  0  0  0  0
 16 25  1  0  0  0  0
 16 26  2  0  0  0  0
 17 30  2  0  0  0  0
 17 31  1  0  0  0  0
 18 32  1  0  0  0  0
 19 32  1  0  0  0  0
 19 33  2  0  0  0  0
 19 35  1  0  0  0  0
 20 22  2  0  0  0  0
 20 40  1  0  0  0  0
 21 23  2  0  0  0  0
 21 41  1  0  0  0  0
 22 50  1  0  0  0  0
 23 42  1  0  0  0  0
 24 66  1  0  0  0  0
 25 70  1  0  0  0  0
 26 75  1  0  0  0  0
 27 85  1  0  0  0  0
 28 86  1  0  0  0  0
 29 31  2  0  0  0  0
 29 85  1  0  0  0  0
 30 87  1  0  0  0  0
 31 88  1  0  0  0  0
 32 68  2  0  0  0  0
 33 69  1  0  0  0  0
 33 73  1  0  0  0  0
 34 54  1  0  0  0  0
 34 70  1  0  0  0  0
 34 79  2  0  0  0  0
 35 74  1  0  0  0  0
 35 80  2  0  0  0  0
 36 51  1  0  0  0  0
 36 76  1  0  0  0  0
 36 81  2  0  0  0  0
 37 64  1  0  0  0  0
 37 71  1  0  0  0  0
 37 82  2  0  0  0  0
 38 65  1  0  0  0  0
 38 77  1  0  0  0  0
 38 83  2  0  0  0  0
 39 72  1  0  0  0  0
 39 75  1  0  0  0  0
 39 84  2  0  0  0  0
 40 43  1  0  0  0  0
 41 51  1  0  0  0  0
 42 71  1  0  0  0  0
 43 45  1  0  0  0  0
 44 46  1  0  0  0  0
 44 47  1  0  0  0  0
 45 50  1  0  0  0  0
 46 53  1  0  0  0  0
 47 72  1  0  0  0  0
 48 52  1  0  0  0  0
 48 70  1  0  0  0  0
 49 53  1  0  0  0  0
 49 72  1  0  0  0  0
 50 76  1  0  0  0  0
 51 71  1  0  0  0  0
 52 54  1  0  0  0  0
 52 62  1  0  0  0  0
 53 69  1  0  0  0  0
 54 55  1  0  0  0  0
 54 63  1  0  0  0  0
 56 63  1  0  0  0  0
 57 65  1  0  0  0  0
 58 67  1  0  0  0  0
 59 67  1  0  0  0  0
 60 67  1  0  0  0  0
 61 78  1  0  0  0  0
 62 86  1  0  0  0  0
 64 67  1  0  0  0  0
 64 77  1  0  0  0  0
 65 78  1  0  0  0  0
 66 89  1  0  0  0  0
 66 90  1  0  0  0  0
 66 91  1  0  0  0  0
 68 69  1  0  0  0  0
M  CHG  1  78   1
M  ISO  4  39 100  62 101  75 100  86 101
M  END
> <Batch ID>
0068

> <Smiles>
CCC1(C)C(=O)N(c2cc([100NH:0][100C:0](=O)N3CCCC(n4nc(-c5ccc(Oc6ccc(F)cc6F)cc5)c(C(N)=O)c4N)C3)cc(C(F)(F)F)c2)CC1[101CH2:1][101O:1]c1ccc2c(c1)CN(C(=O)C(NC(=O)C(C)NC)C(C)(C)C)C(C(=O)NC1CCCc3ccccc31)C2

> <Shape>
0.266

> <Color>
0.094

> <Negative vol penalty>
0.000

$$$$

  -OEChem-04042323273D

 83 91  0     1  0  0  0  0  0999 V2000
  -27.3435  -37.8727   21.9973 C   0  0  0  0  0  0  0  0  0  0  0  0
  -27.8349  -36.8322   21.2155 C   0  0  0  0  0  0  0  0  0  0  0  0
  -24.7951   -8.6813   21.6279 C   0  0  0  0  0  0  0  0  0  0  0  0
  -23.2435  -10.0033   20.3309 C   0  0  0  0  0  0  0  0  0  0  0  0
  -26.6707  -37.5923   23.1859 C   0  0  0  0  0  0  0  0  0  0  0  0
  -27.6548  -35.5107   21.6224 C   0  0  0  0  0  0  0  0  0  0  0  0
  -26.6318  -28.9395   18.9596 C   0  0  0  0  0  0  0  0  0  0  0  0
  -24.5589  -18.5486   17.2451 C   0  0  0  0  0  0  0  0  0  0  0  0
  -25.0490  -19.7483   17.7608 C   0  0  0  0  0  0  0  0  0  0  0  0
  -23.7439   -8.2312   22.4266 C   0  0  0  0  0  0  0  0  0  0  0  0
  -22.1923   -9.5531   21.1296 C   0  0  0  0  0  0  0  0  0  0  0  0
  -27.1550  -27.6499   19.0435 C   0  0  0  0  0  0  0  0  0  0  0  0
  -21.2649   -5.9408   22.2231 C   0  0  0  0  0  0  0  0  0  0  0  0
  -21.2137   -4.5789   22.5202 C   0  0  0  0  0  0  0  0  0  0  0  0
  -25.9078  -27.2826   21.0754 C   0  0  0  0  0  0  0  0  0  0  0  0
  -26.9369  -18.5719   18.7036 C   0  0  0  0  0  0  0  0  0  0  0  0
  -21.3657   -5.0874   24.8772 C   0  0  0  0  0  0  0  0  0  0  0  0
  -24.5449   -9.5675   20.5801 C   0  0  0  0  0  0  0  0  0  0  0  0
  -26.1142   -9.4416   18.5728 C   0  0  0  0  0  0  0  0  0  0  0  0
  -26.4738  -36.2664   23.6027 C   0  0  0  0  0  0  0  0  0  0  0  0
  -25.7497  -29.4150   19.9406 C   0  0  0  0  0  0  0  0  0  0  0  0
  -26.9799  -35.2124   22.8183 C   0  0  0  0  0  0  0  0  0  0  0  0
  -25.3729  -28.5777   21.0003 C   0  0  0  0  0  0  0  0  0  0  0  0
  -25.2577  -17.3604   17.4587 C   0  0  0  0  0  0  0  0  0  0  0  0
  -26.2379  -19.7600   18.4900 C   0  0  0  0  0  0  0  0  0  0  0  0
  -26.4467  -17.3721   18.1879 C   0  0  0  0  0  0  0  0  0  0  0  0
  -22.4425   -8.6670   22.1775 C   0  0  0  0  0  0  0  0  0  0  0  0
  -26.7953  -26.8223   20.1030 C   0  0  0  0  0  0  0  0  0  0  0  0
  -21.3666   -6.8760   23.2530 C   0  0  0  0  0  0  0  0  0  0  0  0
  -21.2641   -4.1522   23.8472 C   0  0  0  0  0  0  0  0  0  0  0  0
  -21.4170   -6.4493   24.5801 C   0  0  0  0  0  0  0  0  0  0  0  0
  -25.6305  -10.0333   19.7550 C   0  0  0  0  0  0  0  0  0  0  0  0
  -27.1429  -10.2602   18.1751 C   0  0  0  0  0  0  0  0  0  0  0  0
  -26.9988  -23.2675   19.5872 C   0  0  0  0  0  0  0  0  0  0  0  0
  -26.6165  -24.5486   19.5843 C   0  0  0  0  0  0  0  0  0  1  0  0
  -25.6731   -8.2578   17.8947 C   0  0  0  0  0  0  0  0  0  0  0  0
  -26.1677  -22.2403   18.8941 C   0  0  0  0  0  0  0  0  0  0  0  0
  -25.8102  -31.7929   22.0491 C   0  0  0  0  0  0  0  0  0  0  0  0
  -22.7551  -30.8565   22.6074 C   0  0  0  0  0  0  0  0  0  0  0  0
  -20.4169  -28.3738   22.4817 C   0  0  0  0  0  0  0  0  0  0  0  0
  -28.3654  -16.0323   19.1206 C   0  0  0  0  0  0  0  0  0  0  0  0
  -25.7818  -36.0143   24.9189 C   0  0  0  0  0  0  0  0  0  0  0  0
  -25.1733  -30.7991   19.8213 C   0  0  0  0  0  0  0  0  0  0  0  0
  -24.4135  -29.0333   22.0684 C   0  0  0  0  0  0  0  0  0  0  0  0
  -25.3048  -34.5744   25.0903 C   0  0  0  0  0  0  0  0  0  0  0  0
  -30.4396  -13.2552   19.9345 C   0  0  0  0  0  0  0  0  0  0  0  0
  -26.4049  -33.5964   24.6902 C   0  0  0  0  0  0  0  0  0  0  0  0
  -29.4871  -12.0592   19.8673 C   0  0  0  0  0  0  0  0  0  0  0  0
  -29.7516  -14.4973   20.4981 C   0  0  0  0  0  0  0  0  0  0  0  0
  -27.5493  -13.6778   19.7580 C   0  0  0  0  0  0  0  0  0  0  0  0
  -26.7826  -33.7649   23.2135 C   0  0  1  0  0  0  0  0  0  0  0  0
  -24.6843  -31.3596   21.1533 C   0  0  1  0  0  0  0  0  0  0  0  0
  -28.1793  -12.4208   19.1362 C   0  0  2  0  0  0  0  0  0  0  0  0
  -24.7091  -16.0901   16.8945 C   0  0  0  0  0  0  0  0  0  0  0  0
  -18.0181  -27.8967   23.0435 C   0  0  0  0  0  0  0  0  0  0  0  0
  -23.4904  -30.6507   25.5615 C   0  0  0  0  0  0  0  0  0  0  0  0
  -21.4142  -29.2961   25.9122 C   0  0  0  0  0  0  0  0  0  0  0  0
  -21.2434  -31.6530   25.1131 C   0  0  0  0  0  0  0  0  0  0  0  0
  -19.7490  -27.7974   19.6567 C   0  0  0  0  0  0  0  0  0  0  0  0
  -22.0927  -29.8682   23.5366 C   0  0  1  0  0  0  0  0  0  0  0  0
  -18.9884  -28.3605   21.9682 C   0  0  2  0  0  0  0  0  0  0  0  0
  -22.0798  -30.3588   25.0120 C   0  0  0  0  0  0  0  0  0  0  0  0
  -26.2971  -11.1421   20.0868 N   0  0  0  0  0  0  0  0  0  0  0  0
  -27.2103  -11.2536   19.1072 N   0  0  0  0  0  0  0  0  0  0  0  0
  -23.8820  -30.3972   21.9111 N   0  0  0  0  0  0  0  0  0  0  0  0
  -28.5227  -14.7811   19.7536 N   0  0  0  0  0  0  0  0  0  0  0  0
  -27.9873  -10.2200   17.1226 N   0  0  0  0  0  0  0  0  0  0  0  0
  -24.6030   -7.5352   18.4397 N   0  0  0  0  0  0  0  0  0  0  0  0
  -26.7352  -20.9787   19.0136 N   0  0  0  0  0  0  0  0  0  0  0  0
  -27.1708  -16.1756   18.4156 N   0  0  0  0  0  0  0  0  0  0  0  0
  -25.7928  -33.1382   22.3640 N   0  0  0  0  0  0  0  0  0  0  0  0
  -20.7686  -29.6100   22.9812 N   0  0  0  0  0  0  0  0  0  0  0  0
  -18.8668  -27.4448   20.7988 N   0  3  0  0  0  0  0  0  0  0  0  0
  -26.2226   -7.8438   16.8458 O   0  0  0  0  0  0  0  0  0  0  0  0
  -25.1315  -22.5463   18.3160 O   0  0  0  0  0  0  0  0  0  0  0  0
  -26.6329  -30.9674   22.4277 O   0  0  0  0  0  0  0  0  0  0  0  0
  -22.2855  -31.9919   22.4978 O   0  0  0  0  0  0  0  0  0  0  0  0
  -21.1464  -27.3854   22.4468 O   0  0  0  0  0  0  0  0  0  0  0  0
  -29.2388  -16.9018   19.1756 O   0  0  0  0  0  0  0  0  0  0  0  0
  -21.4165   -8.2277   22.9565 O   0  0  0  0  0  0  0  0  0  0  0  0
  -27.3050  -25.5633   20.1876 O   0  0  0  0  0  0  0  0  0  1  0  0
  -21.2134   -2.8444   24.1324 F   0  0  0  0  0  0  0  0  0  0  0  0
  -21.5135   -7.3431   25.5739 F   0  0  0  0  0  0  0  0  0  0  0  0
  1  2  1  0  0  0  0
  1  5  2  0  0  0  0
  2  6  2  0  0  0  0
  3 10  2  0  0  0  0
  3 18  1  0  0  0  0
  4 11  1  0  0  0  0
  4 18  2  0  0  0  0
  5 20  1  0  0  0  0
  6 22  1  0  0  0  0
  7 12  2  0  0  0  0
  7 21  1  0  0  0  0
  8  9  2  0  0  0  0
  8 24  1  0  0  0  0
  9 25  1  0  0  0  0
 10 27  1  0  0  0  0
 11 27  2  0  0  0  0
 12 28  1  0  0  0  0
 13 14  2  0  0  0  0
 13 29  1  0  0  0  0
 14 30  1  0  0  0  0
 15 23  1  0  0  0  0
 15 28  2  0  0  0  0
 16 25  2  0  0  0  0
 16 26  1  0  0  0  0
 17 30  2  0  0  0  0
 17 31  1  0  0  0  0
 18 32  1  0  0  0  0
 19 32  1  0  0  0  0
 19 33  2  0  0  0  0
 19 36  1  0  0  0  0
 20 22  2  0  0  0  0
 20 42  1  0  0  0  0
 21 23  2  0  0  0  0
 21 43  1  0  0  0  0
 22 51  1  0  0  0  0
 23 44  1  0  0  0  0
 24 26  2  0  0  0  0
 24 54  1  0  0  0  0
 25 69  1  0  0  0  0
 26 70  1  0  0  0  0
 27 80  1  0  0  0  0
 28 81  1  0  0  0  0
 29 31  2  0  0  0  0
 29 80  1  0  0  0  0
 30 82  1  0  0  0  0
 31 83  1  0  0  0  0
 32 63  2  0  0  0  0
 33 64  1  0  0  0  0
 33 67  1  0  0  0  0
 34 35  2  0  0  0  0
 34 37  1  0  0  0  0
 35 81  1  0  0  0  0
 36 68  1  0  0  0  0
 36 74  2  0  0  0  0
 37 69  1  0  0  0  0
 37 75  2  0  0  0  0
 38 52  1  0  0  0  0
 38 71  1  0  0  0  0
 38 76  2  0  0  0  0
 39 60  1  0  0  0  0
 39 65  1  0  0  0  0
 39 77  2  0  0  0  0
 40 61  1  0  0  0  0
 40 72  1  0  0  0  0
 40 78  2  0  0  0  0
 41 66  1  0  0  0  0
 41 70  1  0  0  0  0
 41 79  2  0  0  0  0
 42 45  1  0  0  0  0
 43 52  1  0  0  0  0
 44 65  1  0  0  0  0
 45 47  1  0  0  0  0
 46 48  1  0  0  0  0
 46 49  1  0  0  0  0
 47 51  1  0  0  0  0
 48 53  1  0  0  0  0
 49 66  1  0  0  0  0
 50 53  1  0  0  0  0
 50 66  1  0  0  0  0
 51 71  1  0  0  0  0
 52 65  1  0  0  0  0
 53 64  1  0  0  0  0
 55 61  1  0  0  0  0
 56 62  1  0  0  0  0
 57 62  1  0  0  0  0
 58 62  1  0  0  0  0
 59 73  1  0  0  0  0
 60 62  1  0  0  0  0
 60 72  1  0  0  0  0
 61 73  1  0  0  0  0
 63 64  1  0  0  0  0
M  CHG  1  73   1
M  ISO  4  35 101  41 100  70 100  81 101
M  END
> <Batch ID>
0068

> <Smiles>
CNC(C)C(=O)NC(C(=O)N1Cc2cc([101O:1][101CH:1]=CC(=O)Nc3ccc(C)c([100NH:0][100C:0](=O)N4CCCC(n5nc(-c6ccc(Oc7ccc(F)cc7F)cc6)c(C(N)=O)c5N)C4)c3)ccc2CC1C(=O)NC1CCCc2ccccc21)C(C)(C)C

> <Shape>
0.297

> <Color>
0.105

> <Negative vol penalty>
0.000

$$$$

  -OEChem-04042323273D

 90 99  0     1  0  0  0  0  0999 V2000
  -26.0457  -34.7897   24.8164 C   0  0  0  0  0  0  0  0  0  0  0  0
  -26.5957  -33.6052   24.3371 C   0  0  0  0  0  0  0  0  0  0  0  0
  -26.3891  -11.4379   21.2810 C   0  0  0  0  0  0  0  0  0  0  0  0
  -25.1441  -12.7537   19.6823 C   0  0  0  0  0  0  0  0  0  0  0  0
  -24.7166  -34.8200   25.2364 C   0  0  0  0  0  0  0  0  0  0  0  0
  -25.8171  -32.4499   24.2785 C   0  0  0  0  0  0  0  0  0  0  0  0
  -26.3697  -29.9542   19.9069 C   0  0  0  0  0  0  0  0  0  0  0  0
  -25.2053  -10.8362   21.7077 C   0  0  0  0  0  0  0  0  0  0  0  0
  -23.9602  -12.1520   20.1090 C   0  0  0  0  0  0  0  0  0  0  0  0
  -27.5186  -29.1788   19.7572 C   0  0  0  0  0  0  0  0  0  0  0  0
  -23.1267   -8.3930   20.6386 C   0  0  0  0  0  0  0  0  0  0  0  0
  -23.1297   -7.0094   20.8149 C   0  0  0  0  0  0  0  0  0  0  0  0
  -26.2473  -27.2014   20.2986 C   0  0  0  0  0  0  0  0  0  0  0  0
  -27.8936  -22.8276   17.2188 C   0  0  0  0  0  0  0  0  0  0  0  0
  -29.1796  -21.7062   18.9292 C   0  0  0  0  0  0  0  0  0  0  0  0
  -22.5570   -7.3049   23.1434 C   0  0  0  0  0  0  0  0  0  0  0  0
  -26.3585  -12.3967   20.2683 C   0  0  0  0  0  0  0  0  0  0  0  0
  -28.4360  -12.5791   18.7992 C   0  0  0  0  0  0  0  0  0  0  0  0
  -23.9185  -33.6669   25.1739 C   0  0  0  0  0  0  0  0  0  0  0  0
  -25.1512  -29.3594   20.2648 C   0  0  0  0  0  0  0  0  0  0  0  0
  -24.4764  -32.4644   24.6994 C   0  0  0  0  0  0  0  0  0  0  0  0
  -25.0838  -27.9711   20.4497 C   0  0  0  0  0  0  0  0  0  0  0  0
  -27.2091  -21.6411   16.9554 C   0  0  0  0  0  0  0  0  0  0  0  0
  -27.5099  -20.4871   17.6790 C   0  0  0  0  0  0  0  0  0  0  0  0
  -28.8789  -22.8601   18.2056 C   0  0  0  0  0  0  0  0  0  0  0  0
  -28.4951  -20.5196   18.6659 C   0  0  0  0  0  0  0  0  0  0  0  0
  -23.9908  -11.1932   21.1217 C   0  0  0  0  0  0  0  0  0  0  0  0
  -27.4582  -27.8025   19.9559 C   0  0  0  0  0  0  0  0  0  0  0  0
  -22.8389   -9.2327   21.7146 C   0  0  0  0  0  0  0  0  0  0  0  0
  -22.8449   -6.4653   22.0673 C   0  0  0  0  0  0  0  0  0  0  0  0
  -22.5540   -8.6886   22.9670 C   0  0  0  0  0  0  0  0  0  0  0  0
  -27.5810  -13.0190   19.8274 C   0  0  0  0  0  0  0  0  0  0  0  0
  -29.4481  -13.5073   18.7737 C   0  0  0  0  0  0  0  0  0  0  0  0
  -30.5429  -24.2382   19.3932 C   0  0  0  0  0  0  0  0  0  0  0  0
  -31.0134  -25.4905   19.3718 C   0  0  0  0  0  0  0  0  0  0  0  0
  -32.1698  -25.6538   21.4770 C   0  0  0  0  0  0  0  0  0  0  0  0
  -32.0708  -26.0111   20.1786 C   0  0  0  0  0  0  0  0  0  0  0  0
  -28.3253  -11.4340   17.9436 C   0  0  0  0  0  0  0  0  0  0  0  0
  -23.1645  -29.6253   22.7318 C   0  0  0  0  0  0  0  0  0  0  0  0
  -21.3044  -27.6576   20.9456 C   0  0  0  0  0  0  0  0  0  0  0  0
  -21.1074  -25.3033   18.4829 C   0  0  0  0  0  0  0  0  0  0  0  0
  -29.7706  -19.2416   20.4226 C   0  0  0  0  0  0  0  0  0  0  0  0
  -22.5007  -33.7368   25.6835 C   0  0  0  0  0  0  0  0  0  0  0  0
  -23.9151  -30.2063   20.3962 C   0  0  0  0  0  0  0  0  0  0  0  0
  -23.7957  -27.2814   20.8150 C   0  0  0  0  0  0  0  0  0  0  0  0
  -21.6348  -32.5611   25.2383 C   0  0  0  0  0  0  0  0  0  0  0  0
  -31.7962  -16.5664   21.6132 C   0  0  0  0  0  0  0  0  0  0  0  0
  -22.3773  -31.2442   25.4413 C   0  0  0  0  0  0  0  0  0  0  0  0
  -31.0260  -15.3130   21.1915 C   0  0  0  0  0  0  0  0  0  0  0  0
  -30.8564  -17.6943   22.0357 C   0  0  0  0  0  0  0  0  0  0  0  0
  -29.3029  -25.2631   17.7027 C   0  0  0  0  0  0  0  0  0  0  0  0
  -29.0468  -16.7826   20.6344 C   0  0  0  0  0  0  0  0  0  0  0  0
  -23.6567  -31.1965   24.5973 C   0  0  1  0  0  0  0  0  0  0  0  0
  -30.2914  -26.2976   18.3183 C   0  0  1  0  0  0  0  0  0  0  0  0
  -22.8397  -29.5628   21.2661 C   0  0  1  0  0  0  0  0  0  0  0  0
  -29.9492  -15.6409   20.1385 C   0  0  2  0  0  0  0  0  0  0  0  0
  -26.1592  -21.6332   15.8928 C   0  0  0  0  0  0  0  0  0  0  0  0
  -19.4558  -23.8543   17.2704 C   0  0  0  0  0  0  0  0  0  0  0  0
  -21.1529  -25.8079   23.3675 C   0  0  0  0  0  0  0  0  0  0  0  0
  -20.3331  -23.9969   21.8455 C   0  0  0  0  0  0  0  0  0  0  0  0
  -18.9975  -26.0845   22.1297 C   0  0  0  0  0  0  0  0  0  0  0  0
  -21.7480  -26.5529   15.8777 C   0  0  0  0  0  0  0  0  0  0  0  0
  -29.5563  -27.5002   18.8777 C   0  0  0  0  0  0  0  0  0  1  0  0
  -21.1526  -26.1618   20.8100 C   0  0  1  0  0  0  0  0  0  0  0  0
  -20.1958  -25.1829   17.2750 C   0  0  2  0  0  0  0  0  0  0  0  0
  -26.7732  -19.2163   17.3918 C   0  0  0  0  0  0  0  0  0  0  0  0
  -20.4339  -25.5257   22.0332 C   0  0  0  0  0  0  0  0  0  0  0  0
  -28.0123  -14.1394   20.4129 N   0  0  0  0  0  0  0  0  0  0  0  0
  -29.1496  -14.4113   19.7504 N   0  0  0  0  0  0  0  0  0  0  0  0
  -29.5514  -24.0277   18.4645 N   0  0  0  0  0  0  0  0  0  0  0  0
  -22.6159  -28.1534   20.9381 N   0  0  0  0  0  0  0  0  0  0  0  0
  -29.8665  -17.9523   20.9877 N   0  0  0  0  0  0  0  0  0  0  0  0
  -30.5555  -13.6302   18.0114 N   0  0  0  0  0  0  0  0  0  0  0  0
  -27.2225  -10.5842   18.1042 N   0  0  0  0  0  0  0  0  0  0  0  0
  -25.5689  -19.0918   18.2120 N   0  0  0  0  0  0  0  0  0  0  0  0
  -28.8163  -19.3591   19.4127 N   0  0  0  0  0  0  0  0  0  0  0  0
  -23.3398  -30.9080   23.2150 N   0  0  0  0  0  0  0  0  0  0  0  0
  -20.4792  -25.9337   19.5361 N   0  0  0  0  0  0  0  0  0  0  0  0
  -20.9874  -25.2843   16.0165 N   0  3  0  0  0  0  0  0  0  0  0  0
  -29.1876  -11.1631   17.0738 O   0  0  0  0  0  0  0  0  0  0  0  0
  -23.2484  -28.5868   23.3769 O   0  0  0  0  0  0  0  0  0  0  0  0
  -20.2961  -28.3610   21.0471 O   0  0  0  0  0  0  0  0  0  0  0  0
  -22.2601  -24.8771   18.4925 O   0  0  0  0  0  0  0  0  0  0  0  0
  -30.5015  -20.1661   20.7876 O   0  0  0  0  0  0  0  0  0  0  0  0
  -22.8355  -10.6061   21.5377 O   0  0  0  0  0  0  0  0  0  0  0  0
  -28.5783  -27.0434   19.8111 O   0  0  0  0  0  0  0  0  0  1  0  0
  -22.8463   -5.1365   22.2361 F   0  0  0  0  0  0  0  0  0  0  0  0
  -22.2757   -9.4901   24.0043 F   0  0  0  0  0  0  0  0  0  0  0  0
  -26.3893  -19.1183   16.0811 F   0  0  0  0  0  0  0  0  0  0  0  0
  -27.5361  -18.1003   17.6076 F   0  0  0  0  0  0  0  0  0  0  0  0
  1  2  1  0  0  0  0
  1  5  2  0  0  0  0
  2  6  2  0  0  0  0
  3  8  2  0  0  0  0
  3 17  1  0  0  0  0
  4  9  1  0  0  0  0
  4 17  2  0  0  0  0
  5 19  1  0  0  0  0
  6 21  1  0  0  0  0
  7 10  2  0  0  0  0
  7 20  1  0  0  0  0
  8 27  1  0  0  0  0
  9 27  2  0  0  0  0
 10 28  1  0  0  0  0
 11 12  2  0  0  0  0
 11 29  1  0  0  0  0
 12 30  1  0  0  0  0
 13 22  1  0  0  0  0
 13 28  2  0  0  0  0
 14 23  2  0  0  0  0
 14 25  1  0  0  0  0
 15 25  2  0  0  0  0
 15 26  1  0  0  0  0
 16 30  2  0  0  0  0
 16 31  1  0  0  0  0
 17 32  1  0  0  0  0
 18 32  1  0  0  0  0
 18 33  2  0  0  0  0
 18 38  1  0  0  0  0
 19 21  2  0  0  0  0
 19 43  1  0  0  0  0
 20 22  2  0  0  0  0
 20 44  1  0  0  0  0
 21 53  1  0  0  0  0
 22 45  1  0  0  0  0
 23 24  1  0  0  0  0
 23 57  1  0  0  0  0
 24 26  2  0  0  0  0
 24 66  1  0  0  0  0
 25 70  1  0  0  0  0
 26 76  1  0  0  0  0
 27 85  1  0  0  0  0
 28 86  1  0  0  0  0
 29 31  2  0  0  0  0
 29 85  1  0  0  0  0
 30 87  1  0  0  0  0
 31 88  1  0  0  0  0
 32 68  2  0  0  0  0
 33 69  1  0  0  0  0
 33 73  1  0  0  0  0
 34 35  2  0  0  0  0
 34 70  1  0  0  0  0
 35 37  1  0  0  0  0
 35 54  1  0  0  0  0
 36 37  2  0  0  0  0
 38 74  1  0  0  0  0
 38 80  2  0  0  0  0
 39 55  1  0  0  0  0
 39 77  1  0  0  0  0
 39 81  2  0  0  0  0
 40 64  1  0  0  0  0
 40 71  1  0  0  0  0
 40 82  2  0  0  0  0
 41 65  1  0  0  0  0
 41 78  1  0  0  0  0
 41 83  2  0  0  0  0
 42 72  1  0  0  0  0
 42 76  1  0  0  0  0
 42 84  2  0  0  0  0
 43 46  1  0  0  0  0
 44 55  1  0  0  0  0
 45 71  1  0  0  0  0
 46 48  1  0  0  0  0
 47 49  1  0  0  0  0
 47 50  1  0  0  0  0
 48 53  1  0  0  0  0
 49 56  1  0  0  0  0
 50 72  1  0  0  0  0
 51 54  1  0  0  0  0
 51 70  1  0  0  0  0
 52 56  1  0  0  0  0
 52 72  1  0  0  0  0
 53 77  1  0  0  0  0
 54 63  1  0  0  0  0
 55 71  1  0  0  0  0
 56 69  1  0  0  0  0
 58 65  1  0  0  0  0
 59 67  1  0  0  0  0
 60 67  1  0  0  0  0
 61 67  1  0  0  0  0
 62 79  1  0  0  0  0
 63 86  1  0  0  0  0
 64 67  1  0  0  0  0
 64 78  1  0  0  0  0
 65 79  1  0  0  0  0
 66 75  1  0  0  0  0
 66 89  1  0  0  0  0
 66 90  1  0  0  0  0
 68 69  1  0  0  0  0
M  CHG  1  79   1
M  ISO  4  42 100  63 101  76 100  86 101
M  END
> <Batch ID>
0068

> <Smiles>
C=CC1=CN(c2cc(C)c(C(N)(F)F)c([100NH:0][100C:0](=O)N3CCCC(n4nc(-c5ccc(Oc6ccc(F)cc6F)cc5)c(C(N)=O)c4N)C3)c2)CC1[101CH2:1][101O:1]c1ccc2c(c1)CN(C(=O)C(NC(=O)C(C)NC)C(C)(C)C)C(C(=O)NC1CCCc3ccccc31)C2

> <Shape>
0.350

> <Color>
0.070

> <Negative vol penalty>
0.000

$$$$

  -OEChem-04042323273D

 82 90  0     1  0  0  0  0  0999 V2000
  -29.4672  -33.9674   26.0575 C   0  0  0  0  0  0  0  0  0  0  0  0
  -29.6188  -32.8719   25.2135 C   0  0  0  0  0  0  0  0  0  0  0  0
  -24.6252   -9.0147   21.3673 C   0  0  0  0  0  0  0  0  0  0  0  0
  -23.3766  -10.8879   22.2444 C   0  0  0  0  0  0  0  0  0  0  0  0
  -28.2412  -34.2032   26.6783 C   0  0  0  0  0  0  0  0  0  0  0  0
  -28.5449  -32.0108   24.9908 C   0  0  0  0  0  0  0  0  0  0  0  0
  -27.2104  -29.0574   19.7944 C   0  0  0  0  0  0  0  0  0  0  0  0
  -27.8372  -20.4031   20.0854 C   0  0  0  0  0  0  0  0  0  0  0  0
  -28.2619  -19.0861   20.2607 C   0  0  0  0  0  0  0  0  0  0  0  0
  -24.0847   -8.1918   22.3553 C   0  0  0  0  0  0  0  0  0  0  0  0
  -22.8361  -10.0649   23.2324 C   0  0  0  0  0  0  0  0  0  0  0  0
  -27.4532  -27.7523   19.3684 C   0  0  0  0  0  0  0  0  0  0  0  0
  -21.1762   -6.5642   22.9251 C   0  0  0  0  0  0  0  0  0  0  0  0
  -20.7078   -5.3086   22.5382 C   0  0  0  0  0  0  0  0  0  0  0  0
  -25.2408  -27.1127   20.0866 C   0  0  0  0  0  0  0  0  0  0  0  0
  -25.8207  -19.9178   21.3245 C   0  0  0  0  0  0  0  0  0  0  0  0
  -22.2843   -4.2583   24.0377 C   0  0  0  0  0  0  0  0  0  0  0  0
  -24.2712  -10.3628   21.3118 C   0  0  0  0  0  0  0  0  0  0  0  0
  -24.3028  -11.4627   19.0103 C   0  0  0  0  0  0  0  0  0  0  0  0
  -27.1489  -33.3500   26.4555 C   0  0  0  0  0  0  0  0  0  0  0  0
  -25.9829  -29.3980   20.3807 C   0  0  0  0  0  0  0  0  0  0  0  0
  -27.3036  -32.2346   25.6103 C   0  0  0  0  0  0  0  0  0  0  0  0
  -24.9840  -28.4234   20.5169 C   0  0  0  0  0  0  0  0  0  0  0  0
  -26.6166  -20.8190   20.6174 C   0  0  0  0  0  0  0  0  0  0  0  0
  -27.4660  -18.1849   20.9679 C   0  0  0  0  0  0  0  0  0  0  0  0
  -23.1901   -8.7168   23.2878 C   0  0  0  0  0  0  0  0  0  0  0  0
  -26.4694  -26.7790   19.5171 C   0  0  0  0  0  0  0  0  0  0  0  0
  -22.1988   -6.6668   23.8683 C   0  0  0  0  0  0  0  0  0  0  0  0
  -21.2617   -4.1557   23.0945 C   0  0  0  0  0  0  0  0  0  0  0  0
  -26.2454  -18.6007   21.4998 C   0  0  0  0  0  0  0  0  0  0  0  0
  -22.7528   -5.5139   24.4246 C   0  0  0  0  0  0  0  0  0  0  0  0
  -24.8296  -11.2135   20.2918 C   0  0  0  0  0  0  0  0  0  0  0  0
  -25.1979  -12.3304   18.4338 C   0  0  0  0  0  0  0  0  0  0  0  0
  -23.1108  -10.9552   18.3960 C   0  0  0  0  0  0  0  0  0  0  0  0
  -25.0829  -30.4916   23.2264 C   0  0  0  0  0  0  0  0  0  0  0  0
  -22.1752  -30.6797   21.8008 C   0  0  0  0  0  0  0  0  0  0  0  0
  -26.8471  -23.1760   19.7659 C   0  0  0  0  0  0  0  0  0  0  0  0
  -20.0783  -29.5848   19.3409 C   0  0  0  0  0  0  0  0  0  0  0  0
  -29.0837  -16.2754   20.6792 C   0  0  0  0  0  0  0  0  0  0  0  0
  -25.8571  -33.6187   27.1860 C   0  0  0  0  0  0  0  0  0  0  0  0
  -25.7269  -30.8165   20.8106 C   0  0  0  0  0  0  0  0  0  0  0  0
  -23.6420  -28.7425   21.1214 C   0  0  0  0  0  0  0  0  0  0  0  0
  -24.6608  -32.8708   26.6031 C   0  0  0  0  0  0  0  0  0  0  0  0
  -29.8307  -13.5400   18.5259 C   0  0  0  0  0  0  0  0  0  0  0  0
  -25.0179  -31.4102   26.3463 C   0  0  0  0  0  0  0  0  0  0  0  0
  -28.5825  -12.6587   18.6130 C   0  0  0  0  0  0  0  0  0  0  0  0
  -30.1620  -14.1884   19.8688 C   0  0  0  0  0  0  0  0  0  0  0  0
  -27.8074  -14.0446   20.5791 C   0  0  0  0  0  0  0  0  0  0  0  0
  -26.1549  -31.2918   25.3243 C   0  0  1  0  0  0  0  0  0  0  0  0
  -24.6291  -30.9327   21.8636 C   0  0  1  0  0  0  0  0  0  0  0  0
  -27.3964  -13.4214   19.2351 C   0  0  2  0  0  0  0  0  0  0  0  0
  -17.7523  -29.8963   18.4521 C   0  0  0  0  0  0  0  0  0  0  0  0
  -21.0714  -29.0300   24.1181 C   0  0  0  0  0  0  0  0  0  0  0  0
  -19.0360  -28.5747   22.7331 C   0  0  0  0  0  0  0  0  0  0  0  0
  -19.6003  -30.9152   23.3859 C   0  0  0  0  0  0  0  0  0  0  0  0
  -21.0811  -30.5085   16.7141 C   0  0  0  0  0  0  0  0  0  0  0  0
  -26.0374  -24.4587   19.8089 C   0  0  0  0  0  0  0  0  0  1  0  0
  -21.0019  -29.7439   21.6379 C   0  0  1  0  0  0  0  0  0  0  0  0
  -19.2045  -30.3371   18.3535 C   0  0  2  0  0  0  0  0  0  0  0  0
  -20.2033  -29.5592   22.9591 C   0  0  0  0  0  0  0  0  0  0  0  0
  -25.9711  -11.8698   20.5165 N   0  0  0  0  0  0  0  0  0  0  0  0
  -26.1688  -12.5398   19.3684 N   0  0  0  0  0  0  0  0  0  0  0  0
  -23.4420  -30.1421   21.5322 N   0  0  0  0  0  0  0  0  0  0  0  0
  -28.9930  -14.8963   20.3953 N   0  0  0  0  0  0  0  0  0  0  0  0
  -25.2413  -12.9269   17.2236 N   0  0  0  0  0  0  0  0  0  0  0  0
  -22.3047  -10.0736   19.1291 N   0  0  0  0  0  0  0  0  0  0  0  0
  -26.1853  -22.1549   20.4391 N   0  0  0  0  0  0  0  0  0  0  0  0
  -27.8999  -16.8475   21.1438 N   0  0  0  0  0  0  0  0  0  0  0  0
  -25.6524  -31.4980   23.9829 N   0  0  0  0  0  0  0  0  0  0  0  0
  -20.2112  -30.2696   20.5303 N   0  0  0  0  0  0  0  0  0  0  0  0
  -19.6744  -30.0985   16.9595 N   0  3  0  0  0  0  0  0  0  0  0  0
  -22.7792  -11.2612   17.2256 O   0  0  0  0  0  0  0  0  0  0  0  0
  -24.9266  -29.3248   23.5669 O   0  0  0  0  0  0  0  0  0  0  0  0
  -21.9746  -31.8467   22.1465 O   0  0  0  0  0  0  0  0  0  0  0  0
  -27.9319  -23.1198   19.1960 O   0  0  0  0  0  0  0  0  0  0  0  0
  -20.5887  -28.4966   19.0842 O   0  0  0  0  0  0  0  0  0  0  0  0
  -30.1266  -16.9085   20.4960 O   0  0  0  0  0  0  0  0  0  0  0  0
  -22.6623   -7.9141   24.2519 O   0  0  0  0  0  0  0  0  0  0  0  0
  -26.7040  -25.5042   19.1027 O   0  0  0  0  0  0  0  0  0  1  0  0
  -20.8107   -2.9501   22.7240 F   0  0  0  0  0  0  0  0  0  0  0  0
  -25.4715  -17.7428   22.1800 F   0  0  0  0  0  0  0  0  0  0  0  0
  -23.7346   -5.6062   25.3320 F   0  0  0  0  0  0  0  0  0  0  0  0
  1  2  1  0  0  0  0
  1  5  2  0  0  0  0
  2  6  2  0  0  0  0
  3 10  2  0  0  0  0
  3 18  1  0  0  0  0
  4 11  1  0  0  0  0
  4 18  2  0  0  0  0
  5 20  1  0  0  0  0
  6 22  1  0  0  0  0
  7 12  2  0  0  0  0
  7 21  1  0  0  0  0
  8  9  2  0  0  0  0
  8 24  1  0  0  0  0
  9 25  1  0  0  0  0
 10 26  1  0  0  0  0
 11 26  2  0  0  0  0
 12 27  1  0  0  0  0
 13 14  2  0  0  0  0
 13 28  1  0  0  0  0
 14 29  1  0  0  0  0
 15 23  1  0  0  0  0
 15 27  2  0  0  0  0
 16 24  2  0  0  0  0
 16 30  1  0  0  0  0
 17 29  2  0  0  0  0
 17 31  1  0  0  0  0
 18 32  1  0  0  0  0
 19 32  1  0  0  0  0
 19 33  2  0  0  0  0
 19 34  1  0  0  0  0
 20 22  2  0  0  0  0
 20 40  1  0  0  0  0
 21 23  2  0  0  0  0
 21 41  1  0  0  0  0
 22 49  1  0  0  0  0
 23 42  1  0  0  0  0
 24 67  1  0  0  0  0
 25 30  2  0  0  0  0
 25 68  1  0  0  0  0
 26 78  1  0  0  0  0
 27 79  1  0  0  0  0
 28 31  2  0  0  0  0
 28 78  1  0  0  0  0
 29 80  1  0  0  0  0
 30 81  1  0  0  0  0
 31 82  1  0  0  0  0
 32 61  2  0  0  0  0
 33 62  1  0  0  0  0
 33 65  1  0  0  0  0
 34 66  1  0  0  0  0
 34 72  2  0  0  0  0
 35 50  1  0  0  0  0
 35 69  1  0  0  0  0
 35 73  2  0  0  0  0
 36 58  1  0  0  0  0
 36 63  1  0  0  0  0
 36 74  2  0  0  0  0
 37 57  1  0  0  0  0
 37 67  1  0  0  0  0
 37 75  2  0  0  0  0
 38 59  1  0  0  0  0
 38 70  1  0  0  0  0
 38 76  2  0  0  0  0
 39 64  1  0  0  0  0
 39 68  1  0  0  0  0
 39 77  2  0  0  0  0
 40 43  1  0  0  0  0
 41 50  1  0  0  0  0
 42 63  1  0  0  0  0
 43 45  1  0  0  0  0
 44 46  1  0  0  0  0
 44 47  1  0  0  0  0
 45 49  1  0  0  0  0
 46 51  1  0  0  0  0
 47 64  1  0  0  0  0
 48 51  1  0  0  0  0
 48 64  1  0  0  0  0
 49 69  1  0  0  0  0
 50 63  1  0  0  0  0
 51 62  1  0  0  0  0
 52 59  1  0  0  0  0
 53 60  1  0  0  0  0
 54 60  1  0  0  0  0
 55 60  1  0  0  0  0
 56 71  1  0  0  0  0
 57 79  1  0  0  0  0
 58 60  1  0  0  0  0
 58 70  1  0  0  0  0
 59 71  1  0  0  0  0
 61 62  1  0  0  0  0
M  CHG  1  71   1
M  ISO  4  39 100  57 101  68 100  79 101
M  END
> <Batch ID>
0068

> <Smiles>
CNC(C)C(=O)NC(C(=O)N1Cc2cc([101O:1][101CH2:1]C(=O)Nc3ccc([100NH:0][100C:0](=O)N4CCCC(n5nc(-c6ccc(Oc7ccc(F)cc7F)cc6)c(C(N)=O)c5N)C4)c(F)c3)ccc2CC1C(=O)NC1CCCc2ccccc21)C(C)(C)C

> <Shape>
0.309

> <Color>
0.101

> <Negative vol penalty>
0.000

$$$$

  -OEChem-04042323273D

 91100  0     1  0  0  0  0  0999 V2000
  -29.1085  -36.7183   21.4725 C   0  0  0  0  0  0  0  0  0  0  0  0
  -29.3652  -35.4288   21.0178 C   0  0  0  0  0  0  0  0  0  0  0  0
  -23.4130   -9.6416   20.7123 C   0  0  0  0  0  0  0  0  0  0  0  0
  -23.0692  -11.5217   22.1902 C   0  0  0  0  0  0  0  0  0  0  0  0
  -28.2404  -36.9181   22.5450 C   0  0  0  0  0  0  0  0  0  0  0  0
  -28.7546  -34.3382   21.6361 C   0  0  0  0  0  0  0  0  0  0  0  0
  -26.8858  -29.1580   18.9568 C   0  0  0  0  0  0  0  0  0  0  0  0
  -30.9550  -19.8609   19.8527 C   0  0  0  0  0  0  0  0  0  0  0  0
  -30.7490  -18.4814   19.8473 C   0  0  0  0  0  0  0  0  0  0  0  0
  -22.5573   -8.8684   21.4968 C   0  0  0  0  0  0  0  0  0  0  0  0
  -22.2134  -10.7485   22.9747 C   0  0  0  0  0  0  0  0  0  0  0  0
  -27.4659  -27.8947   18.8508 C   0  0  0  0  0  0  0  0  0  0  0  0
  -19.0084   -9.6837   22.8549 C   0  0  0  0  0  0  0  0  0  0  0  0
  -17.8081  -10.2631   23.2662 C   0  0  0  0  0  0  0  0  0  0  0  0
  -26.1885  -27.1546   20.7586 C   0  0  0  0  0  0  0  0  0  0  0  0
  -18.4524   -9.9591   25.5748 C   0  0  0  0  0  0  0  0  0  0  0  0
  -23.6690  -10.9683   21.0590 C   0  0  0  0  0  0  0  0  0  0  0  0
  -24.2037  -12.5702   19.1470 C   0  0  0  0  0  0  0  0  0  0  0  0
  -27.6114  -35.8302   23.1706 C   0  0  0  0  0  0  0  0  0  0  0  0
  -25.9593  -29.4328   19.9730 C   0  0  0  0  0  0  0  0  0  0  0  0
  -27.8783  -34.5236   22.7189 C   0  0  0  0  0  0  0  0  0  0  0  0
  -25.5962  -28.4215   20.8738 C   0  0  0  0  0  0  0  0  0  0  0  0
  -29.9849  -20.7131   19.3251 C   0  0  0  0  0  0  0  0  0  0  0  0
  -29.5729  -17.9540   19.3142 C   0  0  0  0  0  0  0  0  0  0  0  0
  -28.6027  -18.8061   18.7865 C   0  0  0  0  0  0  0  0  0  0  0  0
  -21.9575   -9.4218   22.6280 C   0  0  0  0  0  0  0  0  0  0  0  0
  -27.1194  -26.8936   19.7535 C   0  0  0  0  0  0  0  0  0  0  0  0
  -19.9307   -9.2420   23.8036 C   0  0  0  0  0  0  0  0  0  0  0  0
  -17.5301  -10.4008   24.6261 C   0  0  0  0  0  0  0  0  0  0  0  0
  -19.6527   -9.3797   25.1635 C   0  0  0  0  0  0  0  0  0  0  0  0
  -28.8088  -20.1857   18.7920 C   0  0  0  0  0  0  0  0  0  0  0  0
  -24.5533  -11.7674   20.2493 C   0  0  0  0  0  0  0  0  0  0  0  0
  -25.3926  -13.1168   18.7296 C   0  0  0  0  0  0  0  0  0  0  0  0
  -31.4403  -22.7821   19.2575 C   0  0  0  0  0  0  0  0  0  0  0  0
  -23.8788  -18.4443   17.4157 C   0  0  0  0  0  0  0  0  0  0  0  0
  -25.1449  -18.0367   17.5483 C   0  0  0  0  0  0  0  0  0  0  0  0
  -22.9192  -12.8012   18.5535 C   0  0  0  0  0  0  0  0  0  0  0  0
  -26.1573  -18.9086   18.2117 C   0  0  0  0  0  0  0  0  0  0  0  0
  -25.8590  -31.4424   22.4336 C   0  0  0  0  0  0  0  0  0  0  0  0
  -22.8378  -30.3018   22.7405 C   0  0  0  0  0  0  0  0  0  0  0  0
  -20.6207  -27.7758   22.1488 C   0  0  0  0  0  0  0  0  0  0  0  0
  -30.2656  -15.5836   19.8119 C   0  0  0  0  0  0  0  0  0  0  0  0
  -26.7176  -36.0924   24.3568 C   0  0  0  0  0  0  0  0  0  0  0  0
  -25.3225  -30.7929   20.0575 C   0  0  0  0  0  0  0  0  0  0  0  0
  -24.5914  -28.6595   21.9703 C   0  0  0  0  0  0  0  0  0  0  0  0
  -31.1629  -24.2682   19.2022 C   0  0  0  0  0  0  0  0  0  0  0  0
  -25.8202  -34.9109   24.7162 C   0  0  0  0  0  0  0  0  0  0  0  0
  -30.1586  -12.0324   20.0452 C   0  0  0  0  0  0  0  0  0  0  0  0
  -26.6245  -33.6148   24.7308 C   0  0  0  0  0  0  0  0  0  0  0  0
  -28.6620  -11.7129   20.0284 C   0  0  0  0  0  0  0  0  0  0  0  0
  -30.4555  -13.3180   20.8150 C   0  0  0  0  0  0  0  0  0  0  0  0
  -28.1885  -14.1721   20.3674 C   0  0  0  0  0  0  0  0  0  0  0  0
  -29.0999  -23.0725   19.3381 C   0  0  0  0  0  0  0  0  0  0  0  0
  -27.2160  -33.3170   23.3477 C   0  0  1  0  0  0  0  0  0  0  0  0
  -24.7762  -31.1116   21.4458 C   0  0  1  0  0  0  0  0  0  0  0  0
  -27.8333  -12.9205   19.5483 C   0  0  2  0  0  0  0  0  0  0  0  0
  -29.7369  -24.4040   19.7440 C   0  0  1  0  0  0  0  0  0  0  0  0
  -29.7521  -24.5590   21.2743 C   0  0  0  0  0  0  0  0  0  0  0  0
  -18.2337  -27.1149   22.5525 C   0  0  0  0  0  0  0  0  0  0  0  0
  -23.5106  -29.6561   25.6457 C   0  0  0  0  0  0  0  0  0  0  0  0
  -21.4915  -28.1772   25.7117 C   0  0  0  0  0  0  0  0  0  0  0  0
  -21.2311  -30.6225   25.2927 C   0  0  0  0  0  0  0  0  0  0  0  0
  -20.0484  -27.6322   19.2486 C   0  0  0  0  0  0  0  0  0  0  0  0
  -29.0059  -25.5924   19.1177 C   0  0  0  0  0  0  0  0  0  1  0  0
  -22.1997  -29.1505   23.4796 C   0  0  1  0  0  0  0  0  0  0  0  0
  -19.2071  -27.7852   21.5955 C   0  0  2  0  0  0  0  0  0  0  0  0
  -22.1286  -29.3973   25.0131 C   0  0  0  0  0  0  0  0  0  0  0  0
  -25.8619  -11.7982   20.5153 N   0  0  0  0  0  0  0  0  0  0  0  0
  -26.3450  -12.6270   19.5741 N   0  0  0  0  0  0  0  0  0  0  0  0
  -30.1995  -22.1240   19.3318 N   0  0  0  0  0  0  0  0  0  0  0  0
  -24.0012  -30.0075   22.0154 N   0  0  0  0  0  0  0  0  0  0  0  0
  -29.6374  -14.4194   20.3026 N   0  0  0  0  0  0  0  0  0  0  0  0
  -25.7058  -13.9638   17.7261 N   0  0  0  0  0  0  0  0  0  0  0  0
  -21.8023  -12.1607   19.1074 N   0  0  0  0  0  0  0  0  0  0  0  0
  -27.4166  -18.2981   18.2482 N   0  0  0  0  0  0  0  0  0  0  0  0
  -29.3876  -16.5492   19.3207 N   0  0  0  0  0  0  0  0  0  0  0  0
  -26.1994  -32.7813   22.4680 N   0  0  0  0  0  0  0  0  0  0  0  0
  -20.9027  -28.9295   22.8492 N   0  0  0  0  0  0  0  0  0  0  0  0
  -19.1562  -27.0645   20.2921 N   0  3  0  0  0  0  0  0  0  0  0  0
  -32.5715  -22.3239   19.1847 O   0  0  0  0  0  0  0  0  0  0  0  0
  -22.7686  -13.5405   17.5514 O   0  0  0  0  0  0  0  0  0  0  0  0
  -25.8559  -20.0127   18.6494 O   0  0  0  0  0  0  0  0  0  0  0  0
  -26.3482  -30.5494   23.1154 O   0  0  0  0  0  0  0  0  0  0  0  0
  -22.3191  -31.4195   22.7983 O   0  0  0  0  0  0  0  0  0  0  0  0
  -21.3958  -26.8371   21.9799 O   0  0  0  0  0  0  0  0  0  0  0  0
  -31.4935  -15.7030   19.8013 O   0  0  0  0  0  0  0  0  0  0  0  0
  -21.1222   -8.6677   23.3936 O   0  0  0  0  0  0  0  0  0  0  0  0
  -27.6847  -25.6598   19.6526 O   0  0  0  0  0  0  0  0  0  1  0  0
  -16.3781  -10.9586   25.0210 F   0  0  0  0  0  0  0  0  0  0  0  0
  -20.5354   -8.9583   26.0795 F   0  0  0  0  0  0  0  0  0  0  0  0
  -27.8755  -21.0062   18.2857 F   0  0  0  0  0  0  0  0  0  0  0  0
  1  2  1  0  0  0  0
  1  5  2  0  0  0  0
  2  6  2  0  0  0  0
  3 10  2  0  0  0  0
  3 17  1  0  0  0  0
  4 11  1  0  0  0  0
  4 17  2  0  0  0  0
  5 19  1  0  0  0  0
  6 21  1  0  0  0  0
  7 12  2  0  0  0  0
  7 20  1  0  0  0  0
  8  9  1  0  0  0  0
  8 23  2  0  0  0  0
  9 24  2  0  0  0  0
 10 26  1  0  0  0  0
 11 26  2  0  0  0  0
 12 27  1  0  0  0  0
 13 14  2  0  0  0  0
 13 28  1  0  0  0  0
 14 29  1  0  0  0  0
 15 22  1  0  0  0  0
 15 27  2  0  0  0  0
 16 29  2  0  0  0  0
 16 30  1  0  0  0  0
 17 32  1  0  0  0  0
 18 32  1  0  0  0  0
 18 33  2  0  0  0  0
 18 37  1  0  0  0  0
 19 21  2  0  0  0  0
 19 43  1  0  0  0  0
 20 22  2  0  0  0  0
 20 44  1  0  0  0  0
 21 54  1  0  0  0  0
 22 45  1  0  0  0  0
 23 31  1  0  0  0  0
 23 70  1  0  0  0  0
 24 25  1  0  0  0  0
 24 76  1  0  0  0  0
 25 31  2  0  0  0  0
 25 75  1  0  0  0  0
 26 87  1  0  0  0  0
 27 88  1  0  0  0  0
 28 30  2  0  0  0  0
 28 87  1  0  0  0  0
 29 89  1  0  0  0  0
 30 90  1  0  0  0  0
 31 91  1  0  0  0  0
 32 68  2  0  0  0  0
 33 69  1  0  0  0  0
 33 73  1  0  0  0  0
 34 46  1  0  0  0  0
 34 70  1  0  0  0  0
 34 80  2  0  0  0  0
 35 36  2  0  0  0  0
 36 38  1  0  0  0  0
 37 74  1  0  0  0  0
 37 81  2  0  0  0  0
 38 75  1  0  0  0  0
 38 82  2  0  0  0  0
 39 55  1  0  0  0  0
 39 77  1  0  0  0  0
 39 83  2  0  0  0  0
 40 65  1  0  0  0  0
 40 71  1  0  0  0  0
 40 84  2  0  0  0  0
 41 66  1  0  0  0  0
 41 78  1  0  0  0  0
 41 85  2  0  0  0  0
 42 72  1  0  0  0  0
 42 76  1  0  0  0  0
 42 86  2  0  0  0  0
 43 47  1  0  0  0  0
 44 55  1  0  0  0  0
 45 71  1  0  0  0  0
 46 57  1  0  0  0  0
 47 49  1  0  0  0  0
 48 50  1  0  0  0  0
 48 51  1  0  0  0  0
 49 54  1  0  0  0  0
 50 56  1  0  0  0  0
 51 72  1  0  0  0  0
 52 56  1  0  0  0  0
 52 72  1  0  0  0  0
 53 57  1  0  0  0  0
 53 70  1  0  0  0  0
 54 77  1  0  0  0  0
 55 71  1  0  0  0  0
 56 69  1  0  0  0  0
 57 58  1  0  0  0  0
 57 64  1  0  0  0  0
 59 66  1  0  0  0  0
 60 67  1  0  0  0  0
 61 67  1  0  0  0  0
 62 67  1  0  0  0  0
 63 79  1  0  0  0  0
 64 88  1  0  0  0  0
 65 67  1  0  0  0  0
 65 78  1  0  0  0  0
 66 79  1  0  0  0  0
 68 69  1  0  0  0  0
M  CHG  1  79   1
M  ISO  4  42 100  64 101  76 100  88 101
M  END
> <Batch ID>
0068

> <Smiles>
C=CC(=O)Nc1c([100NH:0][100C:0](=O)N2CCCC(n3nc(-c4ccc(Oc5ccc(F)cc5F)cc4)c(C(N)=O)c3N)C2)ccc(N2CC(C)([101CH2:1][101O:1]c3ccc4c(c3)CN(C(=O)C(NC(=O)C(C)NC)C(C)(C)C)C(C(=O)NC3CCCc5ccccc53)C4)CC2=O)c1F

> <Shape>
0.309

> <Color>
0.087

> <Negative vol penalty>
0.000

$$$$
