
  -OEChem-04042323303D

 76 83  0     1  0  0  0  0  0999 V2000
  -27.4667  -27.2774   26.3633 C   0  0  0  0  0  0  0  0  0  0  0  0
  -27.7370  -25.9990   26.8410 C   0  0  0  0  0  0  0  0  0  0  0  0
  -23.2658   -9.8121   19.9029 C   0  0  0  0  0  0  0  0  0  0  0  0
  -23.5554  -10.0037   22.2938 C   0  0  0  0  0  0  0  0  0  0  0  0
  -26.9061  -27.4433   25.0976 C   0  0  0  0  0  0  0  0  0  0  0  0
  -27.4459  -24.8857   26.0534 C   0  0  0  0  0  0  0  0  0  0  0  0
  -30.6042  -19.6462   25.7744 C   0  0  0  0  0  0  0  0  0  0  0  0
  -22.5147   -8.6512   20.0869 C   0  0  0  0  0  0  0  0  0  0  0  0
  -22.8043   -8.8429   22.4778 C   0  0  0  0  0  0  0  0  0  0  0  0
  -30.4177  -18.4050   26.3815 C   0  0  0  0  0  0  0  0  0  0  0  0
  -21.2671   -5.7315   23.5578 C   0  0  0  0  0  0  0  0  0  0  0  0
  -21.7501   -4.7829   24.4592 C   0  0  0  0  0  0  0  0  0  0  0  0
  -29.2837  -17.6150   24.4044 C   0  0  0  0  0  0  0  0  0  0  0  0
  -23.7617   -4.5544   23.1409 C   0  0  0  0  0  0  0  0  0  0  0  0
  -23.7862  -10.4883   21.0063 C   0  0  0  0  0  0  0  0  0  0  0  0
  -24.0850  -13.0106   20.7688 C   0  0  0  0  0  0  0  0  0  0  0  0
  -26.6169  -26.3319   24.2903 C   0  0  0  0  0  0  0  0  0  0  0  0
  -30.1215  -19.8849   24.4797 C   0  0  0  0  0  0  0  0  0  0  0  0
  -26.8797  -25.0368   24.7762 C   0  0  0  0  0  0  0  0  0  0  0  0
  -29.4676  -18.8592   23.7821 C   0  0  0  0  0  0  0  0  0  0  0  0
  -22.2840   -8.1666   21.3744 C   0  0  0  0  0  0  0  0  0  0  0  0
  -29.7548  -17.3902   25.6976 C   0  0  0  0  0  0  0  0  0  0  0  0
  -22.0314   -6.0915   22.4479 C   0  0  0  0  0  0  0  0  0  0  0  0
  -22.9974   -4.1944   24.2508 C   0  0  0  0  0  0  0  0  0  0  0  0
  -23.2787   -5.5030   22.2395 C   0  0  0  0  0  0  0  0  0  0  0  0
  -24.5626  -11.6872   20.8169 C   0  0  0  0  0  0  0  0  0  0  0  0
  -25.2094  -13.7745   20.5722 C   0  0  0  0  0  0  0  0  0  0  0  0
  -30.0049  -13.8317   26.1502 C   0  0  0  0  0  0  0  0  0  0  0  0
  -30.1090  -15.0782   25.6810 C   0  0  0  0  0  0  0  0  0  1  0  0
  -22.7448  -13.5052   20.8911 C   0  0  0  0  0  0  0  0  0  0  0  0
  -30.5909  -12.6435   25.4745 C   0  0  0  0  0  0  0  0  0  0  0  0
  -28.0024  -21.8846   23.2091 C   0  0  0  0  0  0  0  0  0  0  0  0
  -29.0790  -20.6340   20.4164 C   0  0  0  0  0  0  0  0  0  0  0  0
  -30.5727  -18.0299   18.7932 C   0  0  0  0  0  0  0  0  0  0  0  0
  -30.9967  -12.7208   21.8276 C   0  0  0  0  0  0  0  0  0  0  0  0
  -25.9676  -26.5589   22.9480 C   0  0  0  0  0  0  0  0  0  0  0  0
  -30.3543  -21.2207   23.8286 C   0  0  0  0  0  0  0  0  0  0  0  0
  -28.9481  -19.0582   22.3824 C   0  0  0  0  0  0  0  0  0  0  0  0
  -26.0357  -25.3448   22.0253 C   0  0  0  0  0  0  0  0  0  0  0  0
  -29.5723  -13.6074   18.6363 C   0  0  0  0  0  0  0  0  0  0  0  0
  -25.6397  -24.0789   22.7786 C   0  0  0  0  0  0  0  0  0  0  0  0
  -28.0874  -13.2964   18.8203 C   0  0  0  0  0  0  0  0  0  0  0  0
  -30.4487  -12.6271   19.4093 C   0  0  0  0  0  0  0  0  0  0  0  0
  -28.6351  -12.2388   21.0576 C   0  0  0  0  0  0  0  0  0  0  0  0
  -26.6009  -23.8056   23.9417 C   0  0  1  0  0  0  0  0  0  0  0  0
  -29.3683  -21.5165   22.7026 C   0  0  1  0  0  0  0  0  0  0  0  0
  -27.7191  -13.2251   20.3129 C   0  0  2  0  0  0  0  0  0  0  0  0
  -31.2831  -17.2817   16.5056 C   0  0  0  0  0  0  0  0  0  0  0  0
  -26.1747  -20.0074   19.7221 C   0  0  0  0  0  0  0  0  0  0  0  0
  -27.0077  -18.4557   17.9426 C   0  0  0  0  0  0  0  0  0  0  0  0
  -27.5351  -20.8907   17.8186 C   0  0  0  0  0  0  0  0  0  0  0  0
  -33.4154  -17.8714   19.6010 C   0  0  0  0  0  0  0  0  0  0  0  0
  -31.3620  -12.7824   24.1774 C   0  0  0  0  0  0  0  0  0  0  0  0
  -28.6918  -19.4587   19.5516 C   0  0  1  0  0  0  0  0  0  0  0  0
  -31.7058  -17.9890   17.7838 C   0  0  2  0  0  0  0  0  0  0  0  0
  -27.3603  -19.6997   18.7858 C   0  0  0  0  0  0  0  0  0  0  0  0
  -25.8872  -11.6112   20.6630 N   0  0  0  0  0  0  0  0  0  0  0  0
  -30.4214  -11.4691   25.9992 N   0  0  0  0  0  0  0  0  0  0  0  0
  -26.2515  -12.8965   20.5163 N   0  0  0  0  0  0  0  0  0  0  0  0
  -29.1948  -20.3838   21.7911 N   0  0  0  0  0  0  0  0  0  0  0  0
  -30.0482  -12.5538   20.8139 N   0  0  0  0  0  0  0  0  0  0  0  0
  -25.3984  -15.1050   20.4434 N   0  0  0  0  0  0  0  0  0  0  0  0
  -21.7079  -12.5833   21.0898 N   0  0  0  0  0  0  0  0  0  0  0  0
  -27.8375  -23.2349   23.4521 N   0  0  0  0  0  0  0  0  0  0  0  0
  -29.8375  -19.1918   18.6888 N   0  0  0  0  0  0  0  0  0  0  0  0
  -32.8804  -17.2694   18.3527 N   0  3  0  0  0  0  0  0  0  0  0  0
  -22.4727  -14.7270   20.8096 O   0  0  0  0  0  0  0  0  0  0  0  0
  -27.1600  -21.0087   23.3662 O   0  0  0  0  0  0  0  0  0  0  0  0
  -29.2787  -21.7318   19.8906 O   0  0  0  0  0  0  0  0  0  0  0  0
  -30.3587  -17.1205   19.5917 O   0  0  0  0  0  0  0  0  0  0  0  0
  -32.1917  -12.9335   21.6301 O   0  0  0  0  0  0  0  0  0  0  0  0
  -21.5509   -7.0340   21.5543 O   0  0  0  0  0  0  0  0  0  0  0  0
  -29.5708  -16.1780   26.2881 O   0  0  0  0  0  0  0  0  0  1  0  0
  -30.4539  -12.6226   23.0813 O   0  0  0  0  0  0  0  0  0  0  0  0
  -23.4617   -3.2846   25.1173 F   0  0  0  0  0  0  0  0  0  0  0  0
  -24.0181   -5.8456   21.1756 F   0  0  0  0  0  0  0  0  0  0  0  0
  1  2  1  0  0  0  0
  1  5  2  0  0  0  0
  2  6  2  0  0  0  0
  3  8  2  0  0  0  0
  3 15  1  0  0  0  0
  4  9  1  0  0  0  0
  4 15  2  0  0  0  0
  5 17  1  0  0  0  0
  6 19  1  0  0  0  0
  7 10  2  0  0  0  0
  7 18  1  0  0  0  0
  8 21  1  0  0  0  0
  9 21  2  0  0  0  0
 10 22  1  0  0  0  0
 11 12  2  0  0  0  0
 11 23  1  0  0  0  0
 12 24  1  0  0  0  0
 13 20  1  0  0  0  0
 13 22  2  0  0  0  0
 14 24  2  0  0  0  0
 14 25  1  0  0  0  0
 15 26  1  0  0  0  0
 16 26  1  0  0  0  0
 16 27  2  0  0  0  0
 16 30  1  0  0  0  0
 17 19  2  0  0  0  0
 17 36  1  0  0  0  0
 18 20  2  0  0  0  0
 18 37  1  0  0  0  0
 19 45  1  0  0  0  0
 20 38  1  0  0  0  0
 21 72  1  0  0  0  0
 22 73  1  0  0  0  0
 23 25  2  0  0  0  0
 23 72  1  0  0  0  0
 24 75  1  0  0  0  0
 25 76  1  0  0  0  0
 26 57  2  0  0  0  0
 27 59  1  0  0  0  0
 27 62  1  0  0  0  0
 28 29  2  0  0  0  0
 28 31  1  0  0  0  0
 29 73  1  0  0  0  0
 30 63  1  0  0  0  0
 30 67  2  0  0  0  0
 31 53  1  0  0  0  0
 31 58  2  0  0  0  0
 32 46  1  0  0  0  0
 32 64  1  0  0  0  0
 32 68  2  0  0  0  0
 33 54  1  0  0  0  0
 33 60  1  0  0  0  0
 33 69  2  0  0  0  0
 34 55  1  0  0  0  0
 34 65  1  0  0  0  0
 34 70  2  0  0  0  0
 35 61  1  0  0  0  0
 35 71  2  0  0  0  0
 35 74  1  0  0  0  0
 36 39  1  0  0  0  0
 37 46  1  0  0  0  0
 38 60  1  0  0  0  0
 39 41  1  0  0  0  0
 40 42  1  0  0  0  0
 40 43  1  0  0  0  0
 41 45  1  0  0  0  0
 42 47  1  0  0  0  0
 43 61  1  0  0  0  0
 44 47  1  0  0  0  0
 44 61  1  0  0  0  0
 45 64  1  0  0  0  0
 46 60  1  0  0  0  0
 47 59  1  0  0  0  0
 48 55  1  0  0  0  0
 49 56  1  0  0  0  0
 50 56  1  0  0  0  0
 51 56  1  0  0  0  0
 52 66  1  0  0  0  0
 53 74  1  0  0  0  0
 54 56  1  0  0  0  0
 54 65  1  0  0  0  0
 55 66  1  0  0  0  0
 57 59  1  0  0  0  0
M  CHG  1  66   1
M  ISO  4  29 101  35 100  73 101  74 100
M  END
> <Batch ID>
0069

> <Smiles>
CNC(C)C(=O)NC(C(=O)N1Cc2cc([101O:1][101CH:1]=CC(=N)C[100O:0][100C:0](=O)N3CCCC(n4nc(-c5ccc(Oc6ccc(F)cc6F)cc5)c(C(N)=O)c4N)C3)ccc2CC1C(=O)NC1CCCc2ccccc21)C(C)(C)C

> <Shape>
0.198

> <Color>
0.212

> <Negative vol penalty>
0.000

$$$$

  -OEChem-04042323303D

 84 92  0     1  0  0  0  0  0999 V2000
  -20.0584  -32.8823   15.3069 C   0  0  0  0  0  0  0  0  0  0  0  0
  -21.0164  -31.8826   15.4416 C   0  0  0  0  0  0  0  0  0  0  0  0
  -23.9697   -9.6134   21.8848 C   0  0  0  0  0  0  0  0  0  0  0  0
  -24.6592  -11.0072   23.7338 C   0  0  0  0  0  0  0  0  0  0  0  0
  -31.0472  -19.9826   19.7504 C   0  0  0  0  0  0  0  0  0  0  0  0
  -20.1773  -34.0632   16.0386 C   0  0  0  0  0  0  0  0  0  0  0  0
  -22.0945  -32.0636   16.3072 C   0  0  0  0  0  0  0  0  0  0  0  0
  -24.8819  -27.7664   19.6644 C   0  0  0  0  0  0  0  0  0  0  0  0
  -30.7381  -18.6444   19.5075 C   0  0  0  0  0  0  0  0  0  0  0  0
  -23.5633   -8.6251   22.7813 C   0  0  0  0  0  0  0  0  0  0  0  0
  -24.2527  -10.0190   24.6303 C   0  0  0  0  0  0  0  0  0  0  0  0
  -26.0519  -27.0343   19.4670 C   0  0  0  0  0  0  0  0  0  0  0  0
  -20.9181   -8.0301   24.8016 C   0  0  0  0  0  0  0  0  0  0  0  0
  -19.6816   -7.4234   24.5808 C   0  0  0  0  0  0  0  0  0  0  0  0
  -27.2654  -28.6204   20.8200 C   0  0  0  0  0  0  0  0  0  0  0  0
  -28.3957  -19.1219   19.8572 C   0  0  0  0  0  0  0  0  0  0  0  0
  -20.7715   -5.2770   24.3751 C   0  0  0  0  0  0  0  0  0  0  0  0
  -24.5177  -10.8044   22.3610 C   0  0  0  0  0  0  0  0  0  0  0  0
  -30.0306  -20.8906   20.0467 C   0  0  0  0  0  0  0  0  0  0  0  0
  -24.1620  -12.8841   20.9271 C   0  0  0  0  0  0  0  0  0  0  0  0
  -21.2522  -34.2548   16.9209 C   0  0  0  0  0  0  0  0  0  0  0  0
  -24.8971  -28.9389   20.4334 C   0  0  0  0  0  0  0  0  0  0  0  0
  -22.2285  -33.2486   17.0504 C   0  0  0  0  0  0  0  0  0  0  0  0
  -26.0938  -29.3642   21.0278 C   0  0  0  0  0  0  0  0  0  0  0  0
  -29.4124  -18.2140   19.5608 C   0  0  0  0  0  0  0  0  0  0  0  0
  -23.7047   -8.8279   24.1540 C   0  0  0  0  0  0  0  0  0  0  0  0
  -27.2445  -27.4629   20.0424 C   0  0  0  0  0  0  0  0  0  0  0  0
  -22.0813   -7.2602   24.8091 C   0  0  0  0  0  0  0  0  0  0  0  0
  -19.6083   -6.0469   24.3676 C   0  0  0  0  0  0  0  0  0  0  0  0
  -28.7049  -20.4602   20.1001 C   0  0  0  0  0  0  0  0  0  0  0  0
  -22.0080   -5.8837   24.5959 C   0  0  0  0  0  0  0  0  0  0  0  0
  -24.9383  -11.8255   21.4354 C   0  0  0  0  0  0  0  0  0  0  0  0
  -25.0153  -13.5670   20.0952 C   0  0  0  0  0  0  0  0  0  0  0  0
  -30.3648  -22.3140   20.3074 C   0  0  0  0  0  0  0  0  0  0  0  0
  -22.7920  -13.2202   21.1840 C   0  0  0  0  0  0  0  0  0  0  0  0
  -24.2758  -32.0037   19.8632 C   0  0  0  0  0  0  0  0  0  0  0  0
  -24.6968  -32.2825   23.0674 C   0  0  0  0  0  0  0  0  0  0  0  0
  -29.4887  -24.6169   20.1511 C   0  0  0  0  0  0  0  0  0  0  0  0
  -26.0814  -31.0363   25.9269 C   0  0  0  0  0  0  0  0  0  0  0  0
  -29.9872  -15.8247   19.0064 C   0  0  0  0  0  0  0  0  0  0  0  0
  -21.3636  -35.5675   17.6550 C   0  0  0  0  0  0  0  0  0  0  0  0
  -23.6211  -29.7027   20.6589 C   0  0  0  0  0  0  0  0  0  0  0  0
  -26.1593  -30.6051   21.8788 C   0  0  0  0  0  0  0  0  0  0  0  0
  -22.3349  -35.5266   18.8320 C   0  0  0  0  0  0  0  0  0  0  0  0
  -29.6125  -12.3422   18.3668 C   0  0  0  0  0  0  0  0  0  0  0  0
  -23.6401  -34.8508   18.4238 C   0  0  0  0  0  0  0  0  0  0  0  0
  -28.2992  -11.9844   19.0663 C   0  0  0  0  0  0  0  0  0  0  0  0
  -30.4099  -13.3804   19.1542 C   0  0  0  0  0  0  0  0  0  0  0  0
  -28.3542  -14.2399   20.2051 C   0  0  0  0  0  0  0  0  0  0  0  0
  -23.3991  -33.3975   17.9979 C   0  0  1  0  0  0  0  0  0  0  0  0
  -23.8570  -31.1622   21.0354 C   0  0  1  0  0  0  0  0  0  0  0  0
  -27.4857  -13.2457   19.4171 C   0  0  2  0  0  0  0  0  0  0  0  0
  -26.2816  -31.5031   28.3844 C   0  0  0  0  0  0  0  0  0  0  0  0
  -26.7371  -34.4745   22.4824 C   0  0  0  0  0  0  0  0  0  0  0  0
  -27.5698  -34.2296   24.8308 C   0  0  0  0  0  0  0  0  0  0  0  0
  -25.2188  -34.9505   24.4118 C   0  0  0  0  0  0  0  0  0  0  0  0
  -24.7442  -28.4933   26.6369 C   0  0  0  0  0  0  0  0  0  0  0  0
  -28.2524  -25.3424   19.6632 C   0  0  0  0  0  0  0  0  0  1  0  0
  -25.8759  -32.5492   23.9716 C   0  0  1  0  0  0  0  0  0  0  0  0
  -25.4930  -30.7813   27.3028 C   0  0  2  0  0  0  0  0  0  0  0  0
  -26.3499  -34.0286   23.9066 C   0  0  0  0  0  0  0  0  0  0  0  0
  -26.1886  -11.8311   20.9656 N   0  0  0  0  0  0  0  0  0  0  0  0
  -26.2044  -12.9016   20.1533 N   0  0  0  0  0  0  0  0  0  0  0  0
  -24.8864  -31.3211   22.0646 N   0  0  0  0  0  0  0  0  0  0  0  0
  -29.5765  -14.5487   19.4467 N   0  0  0  0  0  0  0  0  0  0  0  0
  -24.8569  -14.6657   19.3270 N   0  0  0  0  0  0  0  0  0  0  0  0
  -22.0598  -12.4126   22.0649 N   0  0  0  0  0  0  0  0  0  0  0  0
  -29.0986  -16.8544   19.3141 N   0  0  0  0  0  0  0  0  0  0  0  0
  -29.3818  -23.2385   19.9587 N   0  0  0  0  0  0  0  0  0  0  0  0
  -23.2210  -32.5532   19.1597 N   0  0  0  0  0  0  0  0  0  0  0  0
  -25.4771  -32.1075   25.3036 N   0  0  0  0  0  0  0  0  0  0  0  0
  -25.5030  -29.3226   27.6082 N   0  3  0  0  0  0  0  0  0  0  0  0
  -31.4438  -22.5897   20.8250 O   0  0  0  0  0  0  0  0  0  0  0  0
  -22.2291  -14.1979   20.6356 O   0  0  0  0  0  0  0  0  0  0  0  0
  -25.4677  -32.1451   19.6161 O   0  0  0  0  0  0  0  0  0  0  0  0
  -23.6439  -32.8991   23.2489 O   0  0  0  0  0  0  0  0  0  0  0  0
  -30.4489  -25.1997   20.6470 O   0  0  0  0  0  0  0  0  0  0  0  0
  -26.9891  -30.3559   25.4540 O   0  0  0  0  0  0  0  0  0  0  0  0
  -31.0358  -15.9877   18.3772 O   0  0  0  0  0  0  0  0  0  0  0  0
  -23.3080   -7.8639   25.0291 O   0  0  0  0  0  0  0  0  0  0  0  0
  -28.3880  -26.7505   19.8508 O   0  0  0  0  0  0  0  0  0  1  0  0
  -18.4207   -5.4642   24.1572 F   0  0  0  0  0  0  0  0  0  0  0  0
  -27.7196  -21.3239   20.3844 F   0  0  0  0  0  0  0  0  0  0  0  0
  -23.1219   -5.1388   24.6031 F   0  0  0  0  0  0  0  0  0  0  0  0
  1  2  1  0  0  0  0
  1  6  2  0  0  0  0
  2  7  2  0  0  0  0
  3 10  2  0  0  0  0
  3 18  1  0  0  0  0
  4 11  1  0  0  0  0
  4 18  2  0  0  0  0
  5  9  2  0  0  0  0
  5 19  1  0  0  0  0
  6 21  1  0  0  0  0
  7 23  1  0  0  0  0
  8 12  2  0  0  0  0
  8 22  1  0  0  0  0
  9 25  1  0  0  0  0
 10 26  1  0  0  0  0
 11 26  2  0  0  0  0
 12 27  1  0  0  0  0
 13 14  2  0  0  0  0
 13 28  1  0  0  0  0
 14 29  1  0  0  0  0
 15 24  1  0  0  0  0
 15 27  2  0  0  0  0
 16 25  2  0  0  0  0
 16 30  1  0  0  0  0
 17 29  2  0  0  0  0
 17 31  1  0  0  0  0
 18 32  1  0  0  0  0
 19 30  2  0  0  0  0
 19 34  1  0  0  0  0
 20 32  1  0  0  0  0
 20 33  2  0  0  0  0
 20 35  1  0  0  0  0
 21 23  2  0  0  0  0
 21 41  1  0  0  0  0
 22 24  2  0  0  0  0
 22 42  1  0  0  0  0
 23 50  1  0  0  0  0
 24 43  1  0  0  0  0
 25 68  1  0  0  0  0
 26 80  1  0  0  0  0
 27 81  1  0  0  0  0
 28 31  2  0  0  0  0
 28 80  1  0  0  0  0
 29 82  1  0  0  0  0
 30 83  1  0  0  0  0
 31 84  1  0  0  0  0
 32 62  2  0  0  0  0
 33 63  1  0  0  0  0
 33 66  1  0  0  0  0
 34 69  1  0  0  0  0
 34 73  2  0  0  0  0
 35 67  1  0  0  0  0
 35 74  2  0  0  0  0
 36 51  1  0  0  0  0
 36 70  1  0  0  0  0
 36 75  2  0  0  0  0
 37 59  1  0  0  0  0
 37 64  1  0  0  0  0
 37 76  2  0  0  0  0
 38 58  1  0  0  0  0
 38 69  1  0  0  0  0
 38 77  2  0  0  0  0
 39 60  1  0  0  0  0
 39 71  1  0  0  0  0
 39 78  2  0  0  0  0
 40 65  1  0  0  0  0
 40 68  1  0  0  0  0
 40 79  2  0  0  0  0
 41 44  1  0  0  0  0
 42 51  1  0  0  0  0
 43 64  1  0  0  0  0
 44 46  1  0  0  0  0
 45 47  1  0  0  0  0
 45 48  1  0  0  0  0
 46 50  1  0  0  0  0
 47 52  1  0  0  0  0
 48 65  1  0  0  0  0
 49 52  1  0  0  0  0
 49 65  1  0  0  0  0
 50 70  1  0  0  0  0
 51 64  1  0  0  0  0
 52 63  1  0  0  0  0
 53 60  1  0  0  0  0
 54 61  1  0  0  0  0
 55 61  1  0  0  0  0
 56 61  1  0  0  0  0
 57 72  1  0  0  0  0
 58 81  1  0  0  0  0
 59 61  1  0  0  0  0
 59 71  1  0  0  0  0
 60 72  1  0  0  0  0
 62 63  1  0  0  0  0
M  CHG  1  72   1
M  ISO  4  40 100  58 101  68 100  81 101
M  END
> <Batch ID>
0069

> <Smiles>
CNC(C)C(=O)NC(C(=O)N1Cc2cc([101O:1][101CH2:1]C(=O)NC(=O)c3ccc([100NH:0][100C:0](=O)N4CCCC(n5nc(-c6ccc(Oc7ccc(F)cc7F)cc6)c(C(N)=O)c5N)C4)cc3F)ccc2CC1C(=O)NC1CCCc2ccccc21)C(C)(C)C

> <Shape>
0.338

> <Color>
0.165

> <Negative vol penalty>
0.000

$$$$

  -OEChem-04042323303D

 86 94  0     1  0  0  0  0  0999 V2000
  -18.9215  -33.3561   21.2414 C   0  0  0  0  0  0  0  0  0  0  0  0
  -20.2014  -33.0706   20.7768 C   0  0  0  0  0  0  0  0  0  0  0  0
  -25.1201  -14.6753   20.5681 C   0  0  0  0  0  0  0  0  0  0  0  0
  -26.3353  -13.0534   21.8833 C   0  0  0  0  0  0  0  0  0  0  0  0
  -29.8090  -21.4921   16.0236 C   0  0  0  0  0  0  0  0  0  0  0  0
  -18.4346  -32.7133   22.3788 C   0  0  0  0  0  0  0  0  0  0  0  0
  -20.9955  -32.1429   21.4500 C   0  0  0  0  0  0  0  0  0  0  0  0
  -25.0232  -28.2549   18.9668 C   0  0  0  0  0  0  0  0  0  0  0  0
  -29.9065  -22.8806   16.1135 C   0  0  0  0  0  0  0  0  0  0  0  0
  -24.4627  -13.6417   19.9008 C   0  0  0  0  0  0  0  0  0  0  0  0
  -25.6779  -12.0198   21.2161 C   0  0  0  0  0  0  0  0  0  0  0  0
  -26.4091  -28.3046   18.8235 C   0  0  0  0  0  0  0  0  0  0  0  0
  -24.0559   -8.9596   20.1103 C   0  0  0  0  0  0  0  0  0  0  0  0
  -23.5576   -7.9059   20.8764 C   0  0  0  0  0  0  0  0  0  0  0  0
  -26.6579  -26.9936   20.8330 C   0  0  0  0  0  0  0  0  0  0  0  0
  -30.2274  -22.7035   18.5015 C   0  0  0  0  0  0  0  0  0  0  0  0
  -22.1573   -9.4532   22.0939 C   0  0  0  0  0  0  0  0  0  0  0  0
  -26.0565  -14.3811   21.5592 C   0  0  0  0  0  0  0  0  0  0  0  0
  -29.9206  -20.7093   17.1728 C   0  0  0  0  0  0  0  0  0  0  0  0
  -26.3245  -16.0964   23.4284 C   0  0  0  0  0  0  0  0  0  0  0  0
  -19.2195  -31.7702   23.0608 C   0  0  0  0  0  0  0  0  0  0  0  0
  -24.4435  -27.5822   20.0521 C   0  0  0  0  0  0  0  0  0  0  0  0
  -20.5191  -31.4879   22.5984 C   0  0  0  0  0  0  0  0  0  0  0  0
  -25.2643  -26.9346   20.9864 C   0  0  0  0  0  0  0  0  0  0  0  0
  -30.1157  -23.4863   17.3524 C   0  0  0  0  0  0  0  0  0  0  0  0
  -30.1298  -21.3150   18.4117 C   0  0  0  0  0  0  0  0  0  0  0  0
  -24.7416  -12.3140   20.2249 C   0  0  0  0  0  0  0  0  0  0  0  0
  -27.2268  -27.6764   19.7582 C   0  0  0  0  0  0  0  0  0  0  0  0
  -23.6050  -10.2602   20.3361 C   0  0  0  0  0  0  0  0  0  0  0  0
  -22.6083   -8.1526   21.8681 C   0  0  0  0  0  0  0  0  0  0  0  0
  -22.6557  -10.5069   21.3278 C   0  0  0  0  0  0  0  0  0  0  0  0
  -26.7363  -15.4483   22.2484 C   0  0  0  0  0  0  0  0  0  0  0  0
  -27.3061  -17.0263   23.6698 C   0  0  0  0  0  0  0  0  0  0  0  0
  -29.8136  -19.2612   17.0440 C   0  0  0  0  0  0  0  0  0  0  0  0
  -25.1591  -15.8772   24.2342 C   0  0  0  0  0  0  0  0  0  0  0  0
  -22.6035  -28.4386   22.4984 C   0  0  0  0  0  0  0  0  0  0  0  0
  -22.5275  -25.2439   23.0553 C   0  0  0  0  0  0  0  0  0  0  0  0
  -30.4201  -25.6601   18.5877 C   0  0  0  0  0  0  0  0  0  0  0  0
  -24.0161  -22.1982   22.6618 C   0  0  0  0  0  0  0  0  0  0  0  0
  -31.2650  -19.5571   19.7594 C   0  0  0  0  0  0  0  0  0  0  0  0
  -18.6679  -31.1359   24.3130 C   0  0  0  0  0  0  0  0  0  0  0  0
  -22.9462  -27.5150   20.1778 C   0  0  0  0  0  0  0  0  0  0  0  0
  -24.6911  -26.1819   22.1584 C   0  0  0  0  0  0  0  0  0  0  0  0
  -19.4319  -29.8894   24.7518 C   0  0  0  0  0  0  0  0  0  0  0  0
  -31.9585  -17.8489   22.9549 C   0  0  0  0  0  0  0  0  0  0  0  0
  -20.9355  -30.1428   24.7110 C   0  0  0  0  0  0  0  0  0  0  0  0
  -30.6812  -17.0461   23.1960 C   0  0  0  0  0  0  0  0  0  0  0  0
  -32.2322  -18.0451   21.4667 C   0  0  0  0  0  0  0  0  0  0  0  0
  -29.8157  -17.8531   20.9633 C   0  0  0  0  0  0  0  0  0  0  0  0
  -21.4015  -30.4694   23.2870 C   0  0  1  0  0  0  0  0  0  0  0  0
  -22.4780  -27.2385   21.6031 C   0  0  1  0  0  0  0  0  0  0  0  0
  -29.4894  -17.6752   22.4539 C   0  0  1  0  0  0  0  0  0  0  0  0
  -30.7957  -18.4843   16.1707 C   0  0  0  0  0  0  0  0  0  0  0  0
  -23.7373  -19.7773   23.2608 C   0  0  0  0  0  0  0  0  0  0  0  0
  -23.4481  -25.8447   25.9016 C   0  0  0  0  0  0  0  0  0  0  0  0
  -24.0575  -23.4281   26.1402 C   0  0  0  0  0  0  0  0  0  0  0  0
  -21.6853  -24.0794   25.7260 C   0  0  0  0  0  0  0  0  0  0  0  0
  -29.4495  -20.9076   20.7840 C   0  0  0  0  0  0  0  0  0  0  0  0
  -23.8643  -21.3923   19.8181 C   0  0  0  0  0  0  0  0  0  0  0  0
  -30.4621  -27.1433   18.2380 C   0  0  0  0  0  0  0  0  0  0  0  0
  -29.0955  -27.8092   18.2932 C   0  0  0  0  0  0  0  0  0  1  0  0
  -23.3703  -24.2771   23.8515 C   0  0  1  0  0  0  0  0  0  0  0  0
  -23.4611  -20.8548   22.2238 C   0  0  2  0  0  0  0  0  0  0  0  0
  -23.1515  -24.4230   25.3839 C   0  0  0  0  0  0  0  0  0  0  0  0
  -27.8895  -15.9263   21.7732 N   0  0  0  0  0  0  0  0  0  0  0  0
  -28.8718  -18.5830   17.6542 N   0  0  0  0  0  0  0  0  0  0  0  0
  -28.2106  -16.8845   22.6590 N   0  0  0  0  0  0  0  0  0  0  0  0
  -23.2215  -26.1502   22.2412 N   0  0  0  0  0  0  0  0  0  0  0  0
  -31.0680  -18.6019   20.7767 N   0  0  0  0  0  0  0  0  0  0  0  0
  -27.4749  -17.9434   24.6460 N   0  0  0  0  0  0  0  0  0  0  0  0
  -24.2533  -14.8820   23.8424 N   0  0  0  0  0  0  0  0  0  0  0  0
  -30.2143  -24.8952   17.4427 N   0  0  0  0  0  0  0  0  0  0  0  0
  -21.4932  -29.2612   22.4957 N   0  0  0  0  0  0  0  0  0  0  0  0
  -23.0709  -22.9483   23.3290 N   0  0  0  0  0  0  0  0  0  0  0  0
  -30.2477  -20.5252   19.6146 N   0  0  0  0  0  0  0  0  0  0  0  0
  -24.0782  -20.4351   20.9339 N   0  3  0  0  0  0  0  0  0  0  0  0
  -24.9194  -16.5553   25.2620 O   0  0  0  0  0  0  0  0  0  0  0  0
  -23.6311  -28.6053   23.1450 O   0  0  0  0  0  0  0  0  0  0  0  0
  -21.2985  -25.1919   23.1466 O   0  0  0  0  0  0  0  0  0  0  0  0
  -30.5548  -25.2566   19.7380 O   0  0  0  0  0  0  0  0  0  0  0  0
  -25.1735  -22.5457   22.4379 O   0  0  0  0  0  0  0  0  0  0  0  0
  -32.2831  -19.5618   19.0571 O   0  0  0  0  0  0  0  0  0  0  0  0
  -24.1001  -11.3052   19.5742 O   0  0  0  0  0  0  0  0  0  0  0  0
  -28.5798  -27.7240   19.6211 O   0  0  0  0  0  0  0  0  0  1  0  0
  -22.1287   -7.1404   22.6026 F   0  0  0  0  0  0  0  0  0  0  0  0
  -22.2178  -11.7541   21.5485 F   0  0  0  0  0  0  0  0  0  0  0  0
  1  2  1  0  0  0  0
  1  6  2  0  0  0  0
  2  7  2  0  0  0  0
  3 10  2  0  0  0  0
  3 18  1  0  0  0  0
  4 11  1  0  0  0  0
  4 18  2  0  0  0  0
  5  9  2  0  0  0  0
  5 19  1  0  0  0  0
  6 21  1  0  0  0  0
  7 23  1  0  0  0  0
  8 12  2  0  0  0  0
  8 22  1  0  0  0  0
  9 25  1  0  0  0  0
 10 27  1  0  0  0  0
 11 27  2  0  0  0  0
 12 28  1  0  0  0  0
 13 14  2  0  0  0  0
 13 29  1  0  0  0  0
 14 30  1  0  0  0  0
 15 24  1  0  0  0  0
 15 28  2  0  0  0  0
 16 25  2  0  0  0  0
 16 26  1  0  0  0  0
 17 30  2  0  0  0  0
 17 31  1  0  0  0  0
 18 32  1  0  0  0  0
 19 26  2  0  0  0  0
 19 34  1  0  0  0  0
 20 32  1  0  0  0  0
 20 33  2  0  0  0  0
 20 35  1  0  0  0  0
 21 23  2  0  0  0  0
 21 41  1  0  0  0  0
 22 24  2  0  0  0  0
 22 42  1  0  0  0  0
 23 50  1  0  0  0  0
 24 43  1  0  0  0  0
 25 72  1  0  0  0  0
 26 75  1  0  0  0  0
 27 83  1  0  0  0  0
 28 84  1  0  0  0  0
 29 31  2  0  0  0  0
 29 83  1  0  0  0  0
 30 85  1  0  0  0  0
 31 86  1  0  0  0  0
 32 65  2  0  0  0  0
 33 67  1  0  0  0  0
 33 70  1  0  0  0  0
 34 53  1  0  0  0  0
 34 66  2  0  0  0  0
 35 71  1  0  0  0  0
 35 77  2  0  0  0  0
 36 51  1  0  0  0  0
 36 73  1  0  0  0  0
 36 78  2  0  0  0  0
 37 62  1  0  0  0  0
 37 68  1  0  0  0  0
 37 79  2  0  0  0  0
 38 60  1  0  0  0  0
 38 72  1  0  0  0  0
 38 80  2  0  0  0  0
 39 63  1  0  0  0  0
 39 74  1  0  0  0  0
 39 81  2  0  0  0  0
 40 69  1  0  0  0  0
 40 75  1  0  0  0  0
 40 82  2  0  0  0  0
 41 44  1  0  0  0  0
 42 51  1  0  0  0  0
 43 68  1  0  0  0  0
 44 46  1  0  0  0  0
 45 47  1  0  0  0  0
 45 48  1  0  0  0  0
 46 50  1  0  0  0  0
 47 52  1  0  0  0  0
 48 69  1  0  0  0  0
 49 52  1  0  0  0  0
 49 69  1  0  0  0  0
 50 73  1  0  0  0  0
 51 68  1  0  0  0  0
 52 67  1  0  0  0  0
 54 63  1  0  0  0  0
 55 64  1  0  0  0  0
 56 64  1  0  0  0  0
 57 64  1  0  0  0  0
 58 75  1  0  0  0  0
 59 76  1  0  0  0  0
 60 61  1  0  0  0  0
 61 84  1  0  0  0  0
 62 64  1  0  0  0  0
 62 74  1  0  0  0  0
 63 76  1  0  0  0  0
 65 67  1  0  0  0  0
M  CHG  1  76   1
M  ISO  4  40 100  61 101  75 100  84 101
M  END
> <Batch ID>
0069

> <Smiles>
CNC(C)C(=O)NC(C(=O)N1Cc2cc([101O:1][101CH2:1]CC(=O)Nc3ccc(C(C)=N)c([100N:0](C)[100C:0](=O)N4CCCC(n5nc(-c6ccc(Oc7ccc(F)cc7F)cc6)c(C(N)=O)c5N)C4)c3)ccc2CC1C(=O)NC1CCCc2ccccc21)C(C)(C)C

> <Shape>
0.212

> <Color>
0.101

> <Negative vol penalty>
0.000

$$$$

  -OEChem-04042323303D

 84 92  0     1  0  0  0  0  0999 V2000
  -24.3133  -32.6612   23.3635 C   0  0  0  0  0  0  0  0  0  0  0  0
  -23.9631  -31.3635   23.0045 C   0  0  0  0  0  0  0  0  0  0  0  0
  -23.0000   -9.8940   19.9830 C   0  0  0  0  0  0  0  0  0  0  0  0
  -23.7234   -9.9485   22.2875 C   0  0  0  0  0  0  0  0  0  0  0  0
  -32.6449  -17.4500   23.4538 C   0  0  0  0  0  0  0  0  0  0  0  0
  -25.4223  -32.8824   24.1791 C   0  0  0  0  0  0  0  0  0  0  0  0
  -24.7224  -30.2863   23.4602 C   0  0  0  0  0  0  0  0  0  0  0  0
  -24.0657  -23.4316   25.4344 C   0  0  0  0  0  0  0  0  0  0  0  0
  -32.0572  -16.5527   22.5622 C   0  0  0  0  0  0  0  0  0  0  0  0
  -22.2329   -8.7602   20.2505 C   0  0  0  0  0  0  0  0  0  0  0  0
  -22.9563   -8.8147   22.5551 C   0  0  0  0  0  0  0  0  0  0  0  0
  -24.6112  -22.1767   25.1670 C   0  0  0  0  0  0  0  0  0  0  0  0
  -23.1999   -5.4749   22.0888 C   0  0  0  0  0  0  0  0  0  0  0  0
  -23.7865   -4.4587   22.8431 C   0  0  0  0  0  0  0  0  0  0  0  0
  -26.4592  -22.6738   26.6357 C   0  0  0  0  0  0  0  0  0  0  0  0
  -29.8784  -17.4514   23.0938 C   0  0  0  0  0  0  0  0  0  0  0  0
  -22.0614   -4.7050   24.5165 C   0  0  0  0  0  0  0  0  0  0  0  0
  -23.7453  -10.4881   21.0014 C   0  0  0  0  0  0  0  0  0  0  0  0
  -31.8494  -18.3480   24.1655 C   0  0  0  0  0  0  0  0  0  0  0  0
  -24.1316  -13.0033   20.8216 C   0  0  0  0  0  0  0  0  0  0  0  0
  -26.1898  -31.8067   24.6529 C   0  0  0  0  0  0  0  0  0  0  0  0
  -24.7195  -24.3227   26.2975 C   0  0  0  0  0  0  0  0  0  0  0  0
  -25.8434  -30.4935   24.2818 C   0  0  0  0  0  0  0  0  0  0  0  0
  -25.9186  -23.9383   26.9144 C   0  0  0  0  0  0  0  0  0  0  0  0
  -30.6740  -16.5534   22.3822 C   0  0  0  0  0  0  0  0  0  0  0  0
  -30.4662  -18.3487   23.9855 C   0  0  0  0  0  0  0  0  0  0  0  0
  -22.2110   -8.2205   21.5366 C   0  0  0  0  0  0  0  0  0  0  0  0
  -25.8096  -21.7987   25.7654 C   0  0  0  0  0  0  0  0  0  0  0  0
  -22.0441   -6.1062   22.5485 C   0  0  0  0  0  0  0  0  0  0  0  0
  -23.2173   -4.0737   24.0569 C   0  0  0  0  0  0  0  0  0  0  0  0
  -21.4748   -5.7212   23.7623 C   0  0  0  0  0  0  0  0  0  0  0  0
  -24.5384  -11.6590   20.7255 C   0  0  0  0  0  0  0  0  0  0  0  0
  -25.2419  -13.7249   20.4568 C   0  0  0  0  0  0  0  0  0  0  0  0
  -32.4836  -19.2696   25.0857 C   0  0  0  0  0  0  0  0  0  0  0  0
  -22.8635  -13.5507   21.2062 C   0  0  0  0  0  0  0  0  0  0  0  0
  -25.9915  -27.2192   25.9878 C   0  0  0  0  0  0  0  0  0  0  0  0
  -26.3666  -26.9719   29.2003 C   0  0  0  0  0  0  0  0  0  0  0  0
  -28.2575  -19.3691   24.6293 C   0  0  0  0  0  0  0  0  0  0  0  0
  -26.6697  -24.9527   31.9349 C   0  0  0  0  0  0  0  0  0  0  0  0
  -30.7215  -14.6846   20.6935 C   0  0  0  0  0  0  0  0  0  0  0  0
  -27.4076  -32.0985   25.4934 C   0  0  0  0  0  0  0  0  0  0  0  0
  -24.1043  -25.6623   26.5964 C   0  0  0  0  0  0  0  0  0  0  0  0
  -26.6494  -24.8503   27.8645 C   0  0  0  0  0  0  0  0  0  0  0  0
  -27.9388  -30.8779   26.2405 C   0  0  0  0  0  0  0  0  0  0  0  0
  -29.6042  -12.2283   18.3707 C   0  0  0  0  0  0  0  0  0  0  0  0
  -28.0159  -29.6732   25.3080 C   0  0  0  0  0  0  0  0  0  0  0  0
  -28.1532  -11.9718   18.7841 C   0  0  0  0  0  0  0  0  0  0  0  0
  -30.5039  -12.4734   19.5808 C   0  0  0  0  0  0  0  0  0  0  0  0
  -28.5877  -13.2650   20.9115 C   0  0  0  0  0  0  0  0  0  0  0  0
  -26.6276  -29.2973   24.7763 C   0  0  1  0  0  0  0  0  0  0  0  0
  -25.1190  -26.6890   27.0901 C   0  0  1  0  0  0  0  0  0  0  0  0
  -27.6309  -13.0770   19.7229 C   0  0  2  0  0  0  0  0  0  0  0  0
  -27.0020  -25.0397   34.4207 C   0  0  0  0  0  0  0  0  0  0  0  0
  -29.3167  -27.6283   28.7805 C   0  0  0  0  0  0  0  0  0  0  0  0
  -29.7629  -26.7795   31.0932 C   0  0  0  0  0  0  0  0  0  0  0  0
  -28.2695  -28.7489   30.7558 C   0  0  0  0  0  0  0  0  0  0  0  0
  -24.0886  -23.5971   32.4441 C   0  0  0  0  0  0  0  0  0  0  0  0
  -27.7661  -20.4625   25.5597 C   0  0  0  0  0  0  0  0  0  1  0  0
  -27.4479  -26.4459   30.1130 C   0  0  1  0  0  0  0  0  0  0  0  0
  -25.9864  -24.9831   33.2901 C   0  0  2  0  0  0  0  0  0  0  0  0
  -28.6867  -27.3840   30.1663 C   0  0  0  0  0  0  0  0  0  0  0  0
  -25.8079  -11.5314   20.3305 N   0  0  0  0  0  0  0  0  0  0  0  0
  -26.2084  -12.8048   20.1751 N   0  0  0  0  0  0  0  0  0  0  0  0
  -26.0110  -26.1521   28.1199 N   0  0  0  0  0  0  0  0  0  0  0  0
  -29.9485  -13.5359   20.4219 N   0  0  0  0  0  0  0  0  0  0  0  0
  -25.4759  -15.0504   20.3528 N   0  0  0  0  0  0  0  0  0  0  0  0
  -32.6693  -18.9261   26.3700 N   0  0  0  0  0  0  0  0  0  0  0  0
  -21.8312  -12.6675   21.5504 N   0  0  0  0  0  0  0  0  0  0  0  0
  -29.6414  -19.2504   24.6990 N   0  0  0  0  0  0  0  0  0  0  0  0
  -30.0769  -15.6413   21.4770 N   0  0  0  0  0  0  0  0  0  0  0  0
  -25.8767  -28.5813   25.7852 N   0  0  0  0  0  0  0  0  0  0  0  0
  -26.8146  -26.2184   31.4075 N   0  0  0  0  0  0  0  0  0  0  0  0
  -32.8938  -20.4758   24.6630 N   0  3  0  0  0  0  0  0  0  0  0  0
  -25.1459  -23.7663   33.4739 N   0  3  0  0  0  0  0  0  0  0  0  0
  -22.6472  -14.7862   21.2278 O   0  0  0  0  0  0  0  0  0  0  0  0
  -26.7164  -26.4498   25.3679 O   0  0  0  0  0  0  0  0  0  0  0  0
  -25.8514  -28.0665   29.4413 O   0  0  0  0  0  0  0  0  0  0  0  0
  -27.4819  -18.7176   23.9375 O   0  0  0  0  0  0  0  0  0  0  0  0
  -27.0412  -23.9107   31.3995 O   0  0  0  0  0  0  0  0  0  0  0  0
  -31.8605  -14.8224   20.2401 O   0  0  0  0  0  0  0  0  0  0  0  0
  -21.4624   -7.1143   21.7982 O   0  0  0  0  0  0  0  0  0  0  0  0
  -26.3446  -20.5747   25.5056 O   0  0  0  0  0  0  0  0  0  1  0  0
  -23.7799   -3.0968   24.7803 F   0  0  0  0  0  0  0  0  0  0  0  0
  -20.3638   -6.3231   24.2085 F   0  0  0  0  0  0  0  0  0  0  0  0
  1  2  1  0  0  0  0
  1  6  2  0  0  0  0
  2  7  2  0  0  0  0
  3 10  2  0  0  0  0
  3 18  1  0  0  0  0
  4 11  1  0  0  0  0
  4 18  2  0  0  0  0
  5  9  2  0  0  0  0
  5 19  1  0  0  0  0
  6 21  1  0  0  0  0
  7 23  1  0  0  0  0
  8 12  2  0  0  0  0
  8 22  1  0  0  0  0
  9 25  1  0  0  0  0
 10 27  1  0  0  0  0
 11 27  2  0  0  0  0
 12 28  1  0  0  0  0
 13 14  2  0  0  0  0
 13 29  1  0  0  0  0
 14 30  1  0  0  0  0
 15 24  1  0  0  0  0
 15 28  2  0  0  0  0
 16 25  2  0  0  0  0
 16 26  1  0  0  0  0
 17 30  2  0  0  0  0
 17 31  1  0  0  0  0
 18 32  1  0  0  0  0
 19 26  2  0  0  0  0
 19 34  1  0  0  0  0
 20 32  1  0  0  0  0
 20 33  2  0  0  0  0
 20 35  1  0  0  0  0
 21 23  2  0  0  0  0
 21 41  1  0  0  0  0
 22 24  2  0  0  0  0
 22 42  1  0  0  0  0
 23 50  1  0  0  0  0
 24 43  1  0  0  0  0
 25 70  1  0  0  0  0
 26 69  1  0  0  0  0
 27 81  1  0  0  0  0
 28 82  1  0  0  0  0
 29 31  2  0  0  0  0
 29 81  1  0  0  0  0
 30 83  1  0  0  0  0
 31 84  1  0  0  0  0
 32 62  2  0  0  0  0
 33 63  1  0  0  0  0
 33 66  1  0  0  0  0
 34 67  1  0  0  0  0
 34 73  2  0  0  0  0
 35 68  1  0  0  0  0
 35 75  2  0  0  0  0
 36 51  1  0  0  0  0
 36 71  1  0  0  0  0
 36 76  2  0  0  0  0
 37 59  1  0  0  0  0
 37 64  1  0  0  0  0
 37 77  2  0  0  0  0
 38 58  1  0  0  0  0
 38 69  1  0  0  0  0
 38 78  2  0  0  0  0
 39 60  1  0  0  0  0
 39 72  1  0  0  0  0
 39 79  2  0  0  0  0
 40 65  1  0  0  0  0
 40 70  1  0  0  0  0
 40 80  2  0  0  0  0
 41 44  1  0  0  0  0
 42 51  1  0  0  0  0
 43 64  1  0  0  0  0
 44 46  1  0  0  0  0
 45 47  1  0  0  0  0
 45 48  1  0  0  0  0
 46 50  1  0  0  0  0
 47 52  1  0  0  0  0
 48 65  1  0  0  0  0
 49 52  1  0  0  0  0
 49 65  1  0  0  0  0
 50 71  1  0  0  0  0
 51 64  1  0  0  0  0
 52 63  1  0  0  0  0
 53 60  1  0  0  0  0
 54 61  1  0  0  0  0
 55 61  1  0  0  0  0
 56 61  1  0  0  0  0
 57 74  1  0  0  0  0
 58 82  1  0  0  0  0
 59 61  1  0  0  0  0
 59 72  1  0  0  0  0
 60 74  1  0  0  0  0
 62 63  1  0  0  0  0
M  CHG  2  73   1  74   1
M  ISO  4  40 100  58 101  70 100  82 101
M  END
> <Batch ID>
0069

> <Smiles>
CNC(C)C(=O)NC(C(=O)N1Cc2cc([101O:1][101CH2:1]C(=O)Nc3cc([100NH:0][100C:0](=O)N4CCCC(n5nc(-c6ccc(Oc7ccc(F)cc7F)cc6)c(C(N)=O)c5N)C4)ccc3C(=N)N)ccc2CC1C(=O)NC1CCCc2ccccc21)C(C)(C)C

> <Shape>
0.236

> <Color>
0.186

> <Negative vol penalty>
0.000

$$$$

  -OEChem-04042323303D

 88 97  0     1  0  0  0  0  0999 V2000
  -35.5286  -34.3691   27.2276 C   0  0  0  0  0  0  0  0  0  0  0  0
  -35.4332  -33.0018   27.4657 C   0  0  0  0  0  0  0  0  0  0  0  0
  -23.0758   -9.8068   19.9596 C   0  0  0  0  0  0  0  0  0  0  0  0
  -23.8209   -9.8542   22.2573 C   0  0  0  0  0  0  0  0  0  0  0  0
  -34.6112  -34.9944   26.3843 C   0  0  0  0  0  0  0  0  0  0  0  0
  -34.4195  -32.2591   26.8614 C   0  0  0  0  0  0  0  0  0  0  0  0
  -34.7674  -26.4677   24.9004 C   0  0  0  0  0  0  0  0  0  0  0  0
  -22.3385   -8.6523   20.2224 C   0  0  0  0  0  0  0  0  0  0  0  0
  -23.0835   -8.6997   22.5202 C   0  0  0  0  0  0  0  0  0  0  0  0
  -34.3685  -25.2591   25.4697 C   0  0  0  0  0  0  0  0  0  0  0  0
  -19.3867   -7.8568   21.6671 C   0  0  0  0  0  0  0  0  0  0  0  0
  -18.0834   -7.7937   21.1743 C   0  0  0  0  0  0  0  0  0  0  0  0
  -32.3024  -25.3636   24.2290 C   0  0  0  0  0  0  0  0  0  0  0  0
  -31.9982  -16.6504   22.5204 C   0  0  0  0  0  0  0  0  0  0  0  0
  -30.3827  -18.3958   23.9787 C   0  0  0  0  0  0  0  0  0  0  0  0
  -18.6653   -5.8348   19.8855 C   0  0  0  0  0  0  0  0  0  0  0  0
  -23.8170  -10.4078   20.9770 C   0  0  0  0  0  0  0  0  0  0  0  0
  -24.1417  -12.9332   20.8206 C   0  0  0  0  0  0  0  0  0  0  0  0
  -33.5915  -34.2572   25.7617 C   0  0  0  0  0  0  0  0  0  0  0  0
  -33.9306  -27.1399   23.9980 C   0  0  0  0  0  0  0  0  0  0  0  0
  -33.4867  -32.8753   26.0101 C   0  0  0  0  0  0  0  0  0  0  0  0
  -32.6940  -26.5793   23.6478 C   0  0  0  0  0  0  0  0  0  0  0  0
  -32.5752  -17.5520   23.4146 C   0  0  0  0  0  0  0  0  0  0  0  0
  -31.7675  -18.4247   24.1437 C   0  0  0  0  0  0  0  0  0  0  0  0
  -30.6134  -16.6215   22.3552 C   0  0  0  0  0  0  0  0  0  0  0  0
  -22.3424   -8.0988   21.5027 C   0  0  0  0  0  0  0  0  0  0  0  0
  -33.1347  -24.7083   25.1362 C   0  0  0  0  0  0  0  0  0  0  0  0
  -20.3295   -6.9089   21.2690 C   0  0  0  0  0  0  0  0  0  0  0  0
  -17.7226   -6.7828   20.2836 C   0  0  0  0  0  0  0  0  0  0  0  0
  -29.8057  -17.4941   23.0844 C   0  0  0  0  0  0  0  0  0  0  0  0
  -19.9688   -5.8979   20.3782 C   0  0  0  0  0  0  0  0  0  0  0  0
  -24.5793  -11.6001   20.7060 C   0  0  0  0  0  0  0  0  0  0  0  0
  -25.2308  -13.6849   20.4528 C   0  0  0  0  0  0  0  0  0  0  0  0
  -33.1553  -20.3048   26.9370 C   0  0  0  0  0  0  0  0  0  0  0  0
  -33.2447  -21.2146   25.9690 C   0  0  0  0  0  0  0  0  0  0  0  0
  -32.5588  -19.0841   26.3764 C   0  0  0  0  0  0  0  0  0  0  0  0
  -32.7240  -20.6155   24.7247 C   0  0  0  0  0  0  0  0  0  0  0  0
  -22.8649  -13.4462   21.2235 C   0  0  0  0  0  0  0  0  0  0  0  0
  -32.4794  -29.9678   23.9644 C   0  0  0  0  0  0  0  0  0  0  0  0
  -31.6896  -29.0902   20.9431 C   0  0  0  0  0  0  0  0  0  0  0  0
  -31.1819  -26.5716   18.6969 C   0  0  0  0  0  0  0  0  0  0  0  0
  -30.6882  -14.7723   20.6461 C   0  0  0  0  0  0  0  0  0  0  0  0
  -32.5945  -34.9855   24.8956 C   0  0  0  0  0  0  0  0  0  0  0  0
  -34.3869  -28.4294   23.3723 C   0  0  0  0  0  0  0  0  0  0  0  0
  -31.7676  -27.2511   22.6686 C   0  0  0  0  0  0  0  0  0  0  0  0
  -31.7766  -34.0600   23.9984 C   0  0  0  0  0  0  0  0  0  0  0  0
  -29.6062  -12.3147   18.3080 C   0  0  0  0  0  0  0  0  0  0  0  0
  -31.2580  -32.8664   24.7940 C   0  0  0  0  0  0  0  0  0  0  0  0
  -28.1659  -12.0194   18.7328 C   0  0  0  0  0  0  0  0  0  0  0  0
  -30.5119  -12.5684   19.5117 C   0  0  0  0  0  0  0  0  0  0  0  0
  -28.5911  -13.3001   20.8697 C   0  0  0  0  0  0  0  0  0  0  0  0
  -32.4160  -32.0312   25.3534 C   0  0  1  0  0  0  0  0  0  0  0  0
  -33.2334  -29.2852   22.8584 C   0  0  1  0  0  0  0  0  0  0  0  0
  -27.6271  -13.1019   19.6885 C   0  0  2  0  0  0  0  0  0  0  0  0
  -30.5064  -26.1629   16.3148 C   0  0  0  0  0  0  0  0  0  0  0  0
  -28.7809  -29.6515   21.6743 C   0  0  0  0  0  0  0  0  0  0  0  0
  -28.0936  -28.3526   19.6472 C   0  0  0  0  0  0  0  0  0  0  0  0
  -29.4522  -30.4293   19.3942 C   0  0  0  0  0  0  0  0  0  0  0  0
  -33.7715  -25.2876   18.0609 C   0  0  0  0  0  0  0  0  0  0  0  0
  -34.0614  -17.5613   23.5712 C   0  0  0  0  0  0  0  0  0  0  0  0
  -33.7700  -22.6020   26.0393 C   0  0  0  0  0  0  0  0  0  1  0  0
  -30.5404  -28.3406   20.3135 C   0  0  1  0  0  0  0  0  0  0  0  0
  -31.6684  -26.3797   17.2717 C   0  0  2  0  0  0  0  0  0  0  0  0
  -29.2332  -29.1816   20.2773 C   0  0  0  0  0  0  0  0  0  0  0  0
  -25.8475  -11.5070   20.2972 N   0  0  0  0  0  0  0  0  0  0  0  0
  -26.2161  -12.7911   20.1517 N   0  0  0  0  0  0  0  0  0  0  0  0
  -32.3236  -19.3313   25.0392 N   0  0  0  0  0  0  0  0  0  0  0  0
  -32.2559  -28.5131   22.0886 N   0  0  0  0  0  0  0  0  0  0  0  0
  -29.9400  -13.6084   20.3697 N   0  0  0  0  0  0  0  0  0  0  0  0
  -25.4323  -15.0166   20.3608 N   0  0  0  0  0  0  0  0  0  0  0  0
  -21.8573  -12.5350   21.5682 N   0  0  0  0  0  0  0  0  0  0  0  0
  -30.0291  -15.7050   21.4461 N   0  0  0  0  0  0  0  0  0  0  0  0
  -32.9900  -31.2032   24.3144 N   0  0  0  0  0  0  0  0  0  0  0  0
  -31.0071  -27.9049   19.0017 N   0  0  0  0  0  0  0  0  0  0  0  0
  -34.7456  -18.4922   22.6337 N   0  3  0  0  0  0  0  0  0  0  0  0
  -32.5729  -25.1983   17.1878 N   0  3  0  0  0  0  0  0  0  0  0  0
  -32.3410  -18.0756   27.0280 O   0  0  0  0  0  0  0  0  0  0  0  0
  -32.6778  -21.1933   23.6505 O   0  0  0  0  0  0  0  0  0  0  0  0
  -22.6196  -14.6758   21.2605 O   0  0  0  0  0  0  0  0  0  0  0  0
  -31.5056  -29.4151   24.4624 O   0  0  0  0  0  0  0  0  0  0  0  0
  -32.0753  -30.1451   20.4332 O   0  0  0  0  0  0  0  0  0  0  0  0
  -30.9740  -25.6324   19.4619 O   0  0  0  0  0  0  0  0  0  0  0  0
  -31.8191  -14.9420   20.1831 O   0  0  0  0  0  0  0  0  0  0  0  0
  -21.6229   -6.9723   21.7597 O   0  0  0  0  0  0  0  0  0  0  0  0
  -32.7427  -23.5291   25.6908 O   0  0  0  0  0  0  0  0  0  1  0  0
  -16.4706   -6.7214   19.8117 F   0  0  0  0  0  0  0  0  0  0  0  0
  -28.4737  -17.4739   22.9337 F   0  0  0  0  0  0  0  0  0  0  0  0
  -20.8697   -4.9837   19.9931 F   0  0  0  0  0  0  0  0  0  0  0  0
  1  2  1  0  0  0  0
  1  5  2  0  0  0  0
  2  6  2  0  0  0  0
  3  8  2  0  0  0  0
  3 17  1  0  0  0  0
  4  9  1  0  0  0  0
  4 17  2  0  0  0  0
  5 19  1  0  0  0  0
  6 21  1  0  0  0  0
  7 10  2  0  0  0  0
  7 20  1  0  0  0  0
  8 26  1  0  0  0  0
  9 26  2  0  0  0  0
 10 27  1  0  0  0  0
 11 12  2  0  0  0  0
 11 28  1  0  0  0  0
 12 29  1  0  0  0  0
 13 22  1  0  0  0  0
 13 27  2  0  0  0  0
 14 23  1  0  0  0  0
 14 25  2  0  0  0  0
 15 24  1  0  0  0  0
 15 30  2  0  0  0  0
 16 29  2  0  0  0  0
 16 31  1  0  0  0  0
 17 32  1  0  0  0  0
 18 32  1  0  0  0  0
 18 33  2  0  0  0  0
 18 38  1  0  0  0  0
 19 21  2  0  0  0  0
 19 43  1  0  0  0  0
 20 22  2  0  0  0  0
 20 44  1  0  0  0  0
 21 52  1  0  0  0  0
 22 45  1  0  0  0  0
 23 24  2  0  0  0  0
 23 60  1  0  0  0  0
 24 67  1  0  0  0  0
 25 30  1  0  0  0  0
 25 72  1  0  0  0  0
 26 84  1  0  0  0  0
 27 85  1  0  0  0  0
 28 31  2  0  0  0  0
 28 84  1  0  0  0  0
 29 86  1  0  0  0  0
 30 87  1  0  0  0  0
 31 88  1  0  0  0  0
 32 65  2  0  0  0  0
 33 66  1  0  0  0  0
 33 70  1  0  0  0  0
 34 35  2  0  0  0  0
 34 36  1  0  0  0  0
 35 37  1  0  0  0  0
 35 61  1  0  0  0  0
 36 67  1  0  0  0  0
 36 77  2  0  0  0  0
 37 67  1  0  0  0  0
 37 78  2  0  0  0  0
 38 71  1  0  0  0  0
 38 79  2  0  0  0  0
 39 53  1  0  0  0  0
 39 73  1  0  0  0  0
 39 80  2  0  0  0  0
 40 62  1  0  0  0  0
 40 68  1  0  0  0  0
 40 81  2  0  0  0  0
 41 63  1  0  0  0  0
 41 74  1  0  0  0  0
 41 82  2  0  0  0  0
 42 69  1  0  0  0  0
 42 72  1  0  0  0  0
 42 83  2  0  0  0  0
 43 46  1  0  0  0  0
 44 53  1  0  0  0  0
 45 68  1  0  0  0  0
 46 48  1  0  0  0  0
 47 49  1  0  0  0  0
 47 50  1  0  0  0  0
 48 52  1  0  0  0  0
 49 54  1  0  0  0  0
 50 69  1  0  0  0  0
 51 54  1  0  0  0  0
 51 69  1  0  0  0  0
 52 73  1  0  0  0  0
 53 68  1  0  0  0  0
 54 66  1  0  0  0  0
 55 63  1  0  0  0  0
 56 64  1  0  0  0  0
 57 64  1  0  0  0  0
 58 64  1  0  0  0  0
 59 76  1  0  0  0  0
 60 75  1  0  0  0  0
 61 85  1  0  0  0  0
 62 64  1  0  0  0  0
 62 74  1  0  0  0  0
 63 76  1  0  0  0  0
 65 66  1  0  0  0  0
M  CHG  2  75   1  76   1
M  ISO  4  42 100  61 101  72 100  85 101
M  END
> <Batch ID>
0069

> <Smiles>
CNC(C)C(=O)NC(C(=O)N1Cc2cc([101O:1][101CH2:1]C3=CC(=O)N(c4cc(F)c([100NH:0][100C:0](=O)N5CCCC(n6nc(-c7ccc(Oc8ccc(F)cc8F)cc7)c(C(N)=O)c6N)C5)cc4CN)C3=O)ccc2CC1C(=O)NC1CCCc2ccccc21)C(C)(C)C

> <Shape>
0.182

> <Color>
0.200

> <Negative vol penalty>
0.000

$$$$

  -OEChem-04042323303D

 85 93  0     1  0  0  0  0  0999 V2000
  -23.9281   -8.0505   22.0586 C   0  0  0  0  0  0  0  0  0  0  0  0
  -24.6155   -9.0738   21.4139 C   0  0  0  0  0  0  0  0  0  0  0  0
  -21.9925  -28.3396   21.3566 C   0  0  0  0  0  0  0  0  0  0  0  0
  -22.9621  -27.3650   23.3433 C   0  0  0  0  0  0  0  0  0  0  0  0
  -22.5691   -8.1920   22.3360 C   0  0  0  0  0  0  0  0  0  0  0  0
  -23.9439  -10.2389   21.0452 C   0  0  0  0  0  0  0  0  0  0  0  0
  -26.5574  -14.4274   22.1729 C   0  0  0  0  0  0  0  0  0  0  0  0
  -20.7222  -28.2278   21.9216 C   0  0  0  0  0  0  0  0  0  0  0  0
  -21.6917  -27.2532   23.9084 C   0  0  0  0  0  0  0  0  0  0  0  0
  -27.6068  -14.7715   21.3219 C   0  0  0  0  0  0  0  0  0  0  0  0
  -18.8519  -29.8910   24.1951 C   0  0  0  0  0  0  0  0  0  0  0  0
  -17.9970  -30.9882   24.0904 C   0  0  0  0  0  0  0  0  0  0  0  0
  -30.0250  -19.9858   23.0496 C   0  0  0  0  0  0  0  0  0  0  0  0
  -29.3065  -22.2899   22.9422 C   0  0  0  0  0  0  0  0  0  0  0  0
  -26.1880  -16.3940   20.2384 C   0  0  0  0  0  0  0  0  0  0  0  0
  -29.5500  -21.0046   20.9110 C   0  0  0  0  0  0  0  0  0  0  0  0
  -16.4036  -29.6313   22.8832 C   0  0  0  0  0  0  0  0  0  0  0  0
  -23.1125  -27.9082   22.0674 C   0  0  0  0  0  0  0  0  0  0  0  0
  -29.7043  -21.1822   23.6908 C   0  0  0  0  0  0  0  0  0  0  0  0
  -25.3090  -29.1135   21.5879 C   0  0  0  0  0  0  0  0  0  0  0  0
  -21.8827   -9.3634   21.9792 C   0  0  0  0  0  0  0  0  0  0  0  0
  -25.3101  -15.0573   22.0557 C   0  0  0  0  0  0  0  0  0  0  0  0
  -22.5741  -10.3957   21.3169 C   0  0  0  0  0  0  0  0  0  0  0  0
  -25.1252  -16.0578   21.0908 C   0  0  0  0  0  0  0  0  0  0  0  0
  -29.9479  -19.8969   21.6597 C   0  0  0  0  0  0  0  0  0  0  0  0
  -29.2293  -22.2011   21.5523 C   0  0  0  0  0  0  0  0  0  0  0  0
  -20.5717  -27.6846   23.1976 C   0  0  0  0  0  0  0  0  0  0  0  0
  -27.4213  -15.7529   20.3526 C   0  0  0  0  0  0  0  0  0  0  0  0
  -18.4828  -28.6640   23.6438 C   0  0  0  0  0  0  0  0  0  0  0  0
  -16.7728  -30.8583   23.4345 C   0  0  0  0  0  0  0  0  0  0  0  0
  -17.2586  -28.5342   22.9879 C   0  0  0  0  0  0  0  0  0  0  0  0
  -24.4250  -28.0229   21.4841 C   0  0  0  0  0  0  0  0  0  0  0  0
  -26.4118  -28.7318   20.8635 C   0  0  0  0  0  0  0  0  0  0  0  0
  -30.6258  -22.1848   25.6513 C   0  0  0  0  0  0  0  0  0  0  0  0
  -29.7849  -21.2742   25.1404 C   0  0  0  0  0  0  0  0  0  0  0  0
  -25.1479  -30.3602   22.2776 C   0  0  0  0  0  0  0  0  0  0  0  0
  -22.3600  -14.0839   21.3826 C   0  0  0  0  0  0  0  0  0  0  0  0
  -21.6020  -17.1564   22.0949 C   0  0  0  0  0  0  0  0  0  0  0  0
  -30.2509  -18.4213   19.6411 C   0  0  0  0  0  0  0  0  0  0  0  0
  -22.6119  -20.4069   22.3425 C   0  0  0  0  0  0  0  0  0  0  0  0
  -28.6947  -23.4057   19.4053 C   0  0  0  0  0  0  0  0  0  0  0  0
  -20.4030   -9.4511   22.2576 C   0  0  0  0  0  0  0  0  0  0  0  0
  -24.1963  -14.6935   22.9988 C   0  0  0  0  0  0  0  0  0  0  0  0
  -23.8116  -16.7785   20.9373 C   0  0  0  0  0  0  0  0  0  0  0  0
  -19.8498  -10.8711   22.1692 C   0  0  0  0  0  0  0  0  0  0  0  0
  -27.6896  -25.9789   17.1591 C   0  0  0  0  0  0  0  0  0  0  0  0
  -20.3575  -11.5644   20.9089 C   0  0  0  0  0  0  0  0  0  0  0  0
  -26.8238  -26.8976   18.0242 C   0  0  0  0  0  0  0  0  0  0  0  0
  -27.4990  -24.5084   17.5266 C   0  0  0  0  0  0  0  0  0  0  0  0
  -26.8161  -25.1142   19.8148 C   0  0  0  0  0  0  0  0  0  0  0  0
  -21.8862  -11.6848   20.9233 C   0  0  1  0  0  0  0  0  0  0  0  0
  -22.8141  -15.0368   22.4519 C   0  0  1  0  0  0  0  0  0  0  0  0
  -27.0224  -26.6099   19.5254 C   0  0  2  0  0  0  0  0  0  0  0  0
  -28.9827  -20.3930   26.0572 C   0  0  0  0  0  0  0  0  0  0  0  0
  -21.7585  -22.6968   22.9127 C   0  0  0  0  0  0  0  0  0  0  0  0
  -20.2093  -17.3096   19.3844 C   0  0  0  0  0  0  0  0  0  0  0  0
  -20.2214  -19.8042   19.5973 C   0  0  0  0  0  0  0  0  0  0  0  0
  -18.9751  -18.4186   21.2556 C   0  0  0  0  0  0  0  0  0  0  0  0
  -24.5049  -20.6766   24.6014 C   0  0  0  0  0  0  0  0  0  0  0  0
  -30.6737  -16.9826   19.3667 C   0  0  0  0  0  0  0  0  0  0  0  0
  -29.7690  -15.9566   20.0322 C   0  0  0  0  0  0  0  0  0  1  0  0
  -21.5026  -18.4424   21.3106 C   0  0  1  0  0  0  0  0  0  0  0  0
  -22.4280  -21.4379   23.4414 C   0  0  2  0  0  0  0  0  0  0  0  0
  -20.2514  -18.4790   20.3883 C   0  0  0  0  0  0  0  0  0  0  0  0
  -24.9230  -27.0234   20.7513 N   0  0  0  0  0  0  0  0  0  0  0  0
  -26.1319  -27.4845   20.3880 N   0  0  0  0  0  0  0  0  0  0  0  0
  -22.7513  -16.3829   21.8790 N   0  0  0  0  0  0  0  0  0  0  0  0
  -27.7070  -24.3110   18.9628 N   0  0  0  0  0  0  0  0  0  0  0  0
  -27.5838  -29.3448   20.5932 N   0  0  0  0  0  0  0  0  0  0  0  0
  -23.9526  -30.5896   22.9725 N   0  0  0  0  0  0  0  0  0  0  0  0
  -30.2730  -18.6833   21.0083 N   0  0  0  0  0  0  0  0  0  0  0  0
  -28.8239  -23.3256   20.7915 N   0  0  0  0  0  0  0  0  0  0  0  0
  -22.2998  -12.7656   21.7924 N   0  0  0  0  0  0  0  0  0  0  0  0
  -21.5551  -19.5228   22.2896 N   0  0  0  0  0  0  0  0  0  0  0  0
  -23.7470  -21.8159   24.0231 N   0  3  0  0  0  0  0  0  0  0  0  0
  -26.0308  -31.2511   22.2639 O   0  0  0  0  0  0  0  0  0  0  0  0
  -22.0831  -14.5131   20.2687 O   0  0  0  0  0  0  0  0  0  0  0  0
  -20.6967  -16.8529   22.8760 O   0  0  0  0  0  0  0  0  0  0  0  0
  -29.9441  -19.1947   18.7400 O   0  0  0  0  0  0  0  0  0  0  0  0
  -23.5930  -20.3899   21.6024 O   0  0  0  0  0  0  0  0  0  0  0  0
  -29.3944  -22.7701   18.6126 O   0  0  0  0  0  0  0  0  0  0  0  0
  -19.3323  -27.5755   23.7493 O   0  0  0  0  0  0  0  0  0  0  0  0
  -28.4437  -16.0903   19.5203 O   0  0  0  0  0  0  0  0  0  1  0  0
  -15.9513  -31.9116   23.3354 F   0  0  0  0  0  0  0  0  0  0  0  0
  -16.8980  -27.3576   22.4574 F   0  0  0  0  0  0  0  0  0  0  0  0
  1  2  1  0  0  0  0
  1  5  2  0  0  0  0
  2  6  2  0  0  0  0
  3  8  2  0  0  0  0
  3 18  1  0  0  0  0
  4  9  1  0  0  0  0
  4 18  2  0  0  0  0
  5 21  1  0  0  0  0
  6 23  1  0  0  0  0
  7 10  2  0  0  0  0
  7 22  1  0  0  0  0
  8 27  1  0  0  0  0
  9 27  2  0  0  0  0
 10 28  1  0  0  0  0
 11 12  2  0  0  0  0
 11 29  1  0  0  0  0
 12 30  1  0  0  0  0
 13 19  1  0  0  0  0
 13 25  2  0  0  0  0
 14 19  2  0  0  0  0
 14 26  1  0  0  0  0
 15 24  1  0  0  0  0
 15 28  2  0  0  0  0
 16 25  1  0  0  0  0
 16 26  2  0  0  0  0
 17 30  2  0  0  0  0
 17 31  1  0  0  0  0
 18 32  1  0  0  0  0
 19 35  1  0  0  0  0
 20 32  1  0  0  0  0
 20 33  2  0  0  0  0
 20 36  1  0  0  0  0
 21 23  2  0  0  0  0
 21 42  1  0  0  0  0
 22 24  2  0  0  0  0
 22 43  1  0  0  0  0
 23 51  1  0  0  0  0
 24 44  1  0  0  0  0
 25 71  1  0  0  0  0
 26 72  1  0  0  0  0
 27 82  1  0  0  0  0
 28 83  1  0  0  0  0
 29 31  2  0  0  0  0
 29 82  1  0  0  0  0
 30 84  1  0  0  0  0
 31 85  1  0  0  0  0
 32 65  2  0  0  0  0
 33 66  1  0  0  0  0
 33 69  1  0  0  0  0
 34 35  2  0  0  0  0
 35 54  1  0  0  0  0
 36 70  1  0  0  0  0
 36 76  2  0  0  0  0
 37 52  1  0  0  0  0
 37 73  1  0  0  0  0
 37 77  2  0  0  0  0
 38 62  1  0  0  0  0
 38 67  1  0  0  0  0
 38 78  2  0  0  0  0
 39 60  1  0  0  0  0
 39 71  1  0  0  0  0
 39 79  2  0  0  0  0
 40 63  1  0  0  0  0
 40 74  1  0  0  0  0
 40 80  2  0  0  0  0
 41 68  1  0  0  0  0
 41 72  1  0  0  0  0
 41 81  2  0  0  0  0
 42 45  1  0  0  0  0
 43 52  1  0  0  0  0
 44 67  1  0  0  0  0
 45 47  1  0  0  0  0
 46 48  1  0  0  0  0
 46 49  1  0  0  0  0
 47 51  1  0  0  0  0
 48 53  1  0  0  0  0
 49 68  1  0  0  0  0
 50 53  1  0  0  0  0
 50 68  1  0  0  0  0
 51 73  1  0  0  0  0
 52 67  1  0  0  0  0
 53 66  1  0  0  0  0
 55 63  1  0  0  0  0
 56 64  1  0  0  0  0
 57 64  1  0  0  0  0
 58 64  1  0  0  0  0
 59 75  1  0  0  0  0
 60 61  1  0  0  0  0
 61 83  1  0  0  0  0
 62 64  1  0  0  0  0
 62 74  1  0  0  0  0
 63 75  1  0  0  0  0
 65 66  1  0  0  0  0
M  CHG  1  75   1
M  ISO  4  41 100  61 101  72 100  83 101
M  END
> <Batch ID>
0069

> <Smiles>
C=C(C)c1cc(NC(=O)C[101CH2:1][101O:1]c2ccc3c(c2)CN(C(=O)C(NC(=O)C(C)NC)C(C)(C)C)C(C(=O)NC2CCCc4ccccc42)C3)cc([100NH:0][100C:0](=O)N2CCCC(n3nc(-c4ccc(Oc5ccc(F)cc5F)cc4)c(C(N)=O)c3N)C2)c1

> <Shape>
0.246

> <Color>
0.086

> <Negative vol penalty>
0.000

$$$$

  -OEChem-04042323303D

 86 95  0     1  0  0  0  0  0999 V2000
  -27.6520  -34.0235   25.6623 C   0  0  0  0  0  0  0  0  0  0  0  0
  -27.8817  -32.7719   25.1001 C   0  0  0  0  0  0  0  0  0  0  0  0
  -23.9010  -10.9156   22.5389 C   0  0  0  0  0  0  0  0  0  0  0  0
  -22.8440  -12.1983   20.7855 C   0  0  0  0  0  0  0  0  0  0  0  0
  -26.1038  -19.7648   16.7969 C   0  0  0  0  0  0  0  0  0  0  0  0
  -26.3521  -34.4167   25.9780 C   0  0  0  0  0  0  0  0  0  0  0  0
  -26.8116  -31.9123   24.8541 C   0  0  0  0  0  0  0  0  0  0  0  0
  -27.0798  -29.7323   20.2911 C   0  0  0  0  0  0  0  0  0  0  0  0
  -26.5545  -18.5553   17.3255 C   0  0  0  0  0  0  0  0  0  0  0  0
  -22.6678  -10.7666   23.1734 C   0  0  0  0  0  0  0  0  0  0  0  0
  -21.6107  -12.0493   21.4199 C   0  0  0  0  0  0  0  0  0  0  0  0
  -27.9626  -28.6629   20.1473 C   0  0  0  0  0  0  0  0  0  0  0  0
  -19.9018   -8.8535   22.8239 C   0  0  0  0  0  0  0  0  0  0  0  0
  -19.5666   -7.5859   23.2999 C   0  0  0  0  0  0  0  0  0  0  0  0
  -26.1207  -27.1207   20.3669 C   0  0  0  0  0  0  0  0  0  0  0  0
  -28.1698  -19.7454   18.6715 C   0  0  0  0  0  0  0  0  0  0  0  0
  -19.4017   -8.4715   25.5418 C   0  0  0  0  0  0  0  0  0  0  0  0
  -23.9891  -11.6315   21.3450 C   0  0  0  0  0  0  0  0  0  0  0  0
  -26.6862  -20.9647   17.2054 C   0  0  0  0  0  0  0  0  0  0  0  0
  -25.8308  -10.9342   19.7235 C   0  0  0  0  0  0  0  0  0  0  0  0
  -25.2646  -33.5653   25.7269 C   0  0  0  0  0  0  0  0  0  0  0  0
  -25.7100  -29.5034   20.4852 C   0  0  0  0  0  0  0  0  0  0  0  0
  -25.4961  -32.2939   25.1680 C   0  0  0  0  0  0  0  0  0  0  0  0
  -25.2222  -28.1890   20.5103 C   0  0  0  0  0  0  0  0  0  0  0  0
  -27.7191  -20.9550   18.1428 C   0  0  0  0  0  0  0  0  0  0  0  0
  -27.5874  -18.5456   18.2629 C   0  0  0  0  0  0  0  0  0  0  0  0
  -21.5226  -11.3334   22.6139 C   0  0  0  0  0  0  0  0  0  0  0  0
  -27.4835  -27.3568   20.1881 C   0  0  0  0  0  0  0  0  0  0  0  0
  -19.9869   -9.9300   23.7068 C   0  0  0  0  0  0  0  0  0  0  0  0
  -19.3166   -7.3949   24.6588 C   0  0  0  0  0  0  0  0  0  0  0  0
  -19.7369   -9.7390   25.0657 C   0  0  0  0  0  0  0  0  0  0  0  0
  -25.2628  -11.7863   20.6895 C   0  0  0  0  0  0  0  0  0  0  0  0
  -27.0377  -11.5155   19.4200 C   0  0  0  0  0  0  0  0  0  0  0  0
  -28.9966  -23.1048   17.7913 C   0  0  0  0  0  0  0  0  0  0  0  0
  -26.1920  -22.2109   16.6331 C   0  0  0  0  0  0  0  0  0  0  0  0
  -25.3137   -9.7254   19.1515 C   0  0  0  0  0  0  0  0  0  0  0  0
  -23.6340  -30.1503   22.8036 C   0  0  0  0  0  0  0  0  0  0  0  0
  -21.4847  -28.9846   20.6720 C   0  0  0  0  0  0  0  0  0  0  0  0
  -20.8766  -27.0076   17.9574 C   0  0  0  0  0  0  0  0  0  0  0  0
  -29.0594  -17.1295   19.7374 C   0  0  0  0  0  0  0  0  0  0  0  0
  -23.8824  -34.0155   26.1287 C   0  0  0  0  0  0  0  0  0  0  0  0
  -24.7671  -30.6684   20.6119 C   0  0  0  0  0  0  0  0  0  0  0  0
  -23.7578  -27.8901   20.6959 C   0  0  0  0  0  0  0  0  0  0  0  0
  -22.7648  -33.1944   25.4906 C   0  0  0  0  0  0  0  0  0  0  0  0
  -30.4545  -14.2703   21.3361 C   0  0  0  0  0  0  0  0  0  0  0  0
  -23.0659  -31.7034   25.6049 C   0  0  0  0  0  0  0  0  0  0  0  0
  -29.3353  -13.2293   21.2583 C   0  0  0  0  0  0  0  0  0  0  0  0
  -29.9055  -15.6770   21.5675 C   0  0  0  0  0  0  0  0  0  0  0  0
  -27.7531  -15.0636   20.5381 C   0  0  0  0  0  0  0  0  0  0  0  0
  -28.4080  -22.5466   19.9598 C   0  0  0  0  0  0  0  0  0  0  0  0
  -24.3588  -31.3432   24.8633 C   0  0  1  0  0  0  0  0  0  0  0  0
  -23.4642  -30.3083   21.3190 C   0  0  1  0  0  0  0  0  0  0  0  0
  -28.2530  -13.6404   20.2409 C   0  0  2  0  0  0  0  0  0  0  0  0
  -28.8959  -23.9787   19.9106 C   0  0  2  0  0  0  0  0  0  0  0  0
  -19.0149  -26.2254   16.4676 C   0  0  0  0  0  0  0  0  0  0  0  0
  -20.5427  -27.0738   22.8564 C   0  0  0  0  0  0  0  0  0  0  0  0
  -19.3997  -25.7231   21.0851 C   0  0  0  0  0  0  0  0  0  0  0  0
  -18.7068  -28.0847   21.4919 C   0  0  0  0  0  0  0  0  0  0  0  0
  -22.1286  -28.2162   15.5635 C   0  0  0  0  0  0  0  0  0  0  0  0
  -27.7839  -24.9992   20.1004 C   0  0  0  0  0  0  0  0  0  1  0  0
  -20.9198  -27.6195   20.3612 C   0  0  1  0  0  0  0  0  0  0  0  0
  -20.1045  -27.2656   16.6761 C   0  0  2  0  0  0  0  0  0  0  0  0
  -19.9202  -27.1306   21.4471 C   0  0  0  0  0  0  0  0  0  0  0  0
  -26.0447  -12.8294   20.9805 N   0  0  0  0  0  0  0  0  0  0  0  0
  -25.6931  -22.2981   15.4378 N   0  0  0  0  0  0  0  0  0  0  0  0
  -27.1163  -12.6365   20.1928 N   0  0  0  0  0  0  0  0  0  0  0  0
  -28.3292  -22.1682   18.5744 N   0  0  0  0  0  0  0  0  0  0  0  0
  -22.8765  -29.0628   20.8215 N   0  0  0  0  0  0  0  0  0  0  0  0
  -28.8886  -15.9988   20.5639 N   0  0  0  0  0  0  0  0  0  0  0  0
  -28.0288  -11.1719   18.5702 N   0  0  0  0  0  0  0  0  0  0  0  0
  -24.0582   -9.2693   19.5758 N   0  0  0  0  0  0  0  0  0  0  0  0
  -28.0448  -17.3164   18.7992 N   0  0  0  0  0  0  0  0  0  0  0  0
  -24.1219  -31.2773   23.4372 N   0  0  0  0  0  0  0  0  0  0  0  0
  -20.3498  -27.7091   19.0212 N   0  0  0  0  0  0  0  0  0  0  0  0
  -21.0216  -27.2275   15.5021 N   0  3  0  0  0  0  0  0  0  0  0  0
  -29.2223  -23.0934   16.5894 O   0  0  0  0  0  0  0  0  0  0  0  0
  -25.9535   -9.0604   18.3019 O   0  0  0  0  0  0  0  0  0  0  0  0
  -23.3424  -29.0854   23.3351 O   0  0  0  0  0  0  0  0  0  0  0  0
  -20.7199  -29.9473   20.7711 O   0  0  0  0  0  0  0  0  0  0  0  0
  -21.8475  -26.2559   18.0101 O   0  0  0  0  0  0  0  0  0  0  0  0
  -30.0476  -17.8615   19.8353 O   0  0  0  0  0  0  0  0  0  0  0  0
  -29.4430  -24.1302   18.5922 O   0  0  0  0  0  0  0  0  0  0  0  0
  -20.3190  -11.1880   23.2326 O   0  0  0  0  0  0  0  0  0  0  0  0
  -28.3431  -26.3111   20.0486 O   0  0  0  0  0  0  0  0  0  1  0  0
  -18.9932   -6.1779   25.1156 F   0  0  0  0  0  0  0  0  0  0  0  0
  -19.8160  -10.7696   25.9186 F   0  0  0  0  0  0  0  0  0  0  0  0
  1  2  1  0  0  0  0
  1  6  2  0  0  0  0
  2  7  2  0  0  0  0
  3 10  2  0  0  0  0
  3 18  1  0  0  0  0
  4 11  1  0  0  0  0
  4 18  2  0  0  0  0
  5  9  2  0  0  0  0
  5 19  1  0  0  0  0
  6 21  1  0  0  0  0
  7 23  1  0  0  0  0
  8 12  2  0  0  0  0
  8 22  1  0  0  0  0
  9 26  1  0  0  0  0
 10 27  1  0  0  0  0
 11 27  2  0  0  0  0
 12 28  1  0  0  0  0
 13 14  2  0  0  0  0
 13 29  1  0  0  0  0
 14 30  1  0  0  0  0
 15 24  1  0  0  0  0
 15 28  2  0  0  0  0
 16 25  1  0  0  0  0
 16 26  2  0  0  0  0
 17 30  2  0  0  0  0
 17 31  1  0  0  0  0
 18 32  1  0  0  0  0
 19 25  2  0  0  0  0
 19 35  1  0  0  0  0
 20 32  1  0  0  0  0
 20 33  2  0  0  0  0
 20 36  1  0  0  0  0
 21 23  2  0  0  0  0
 21 41  1  0  0  0  0
 22 24  2  0  0  0  0
 22 42  1  0  0  0  0
 23 51  1  0  0  0  0
 24 43  1  0  0  0  0
 25 67  1  0  0  0  0
 26 72  1  0  0  0  0
 27 83  1  0  0  0  0
 28 84  1  0  0  0  0
 29 31  2  0  0  0  0
 29 83  1  0  0  0  0
 30 85  1  0  0  0  0
 31 86  1  0  0  0  0
 32 64  2  0  0  0  0
 33 66  1  0  0  0  0
 33 70  1  0  0  0  0
 34 67  1  0  0  0  0
 34 76  2  0  0  0  0
 34 82  1  0  0  0  0
 35 65  2  0  0  0  0
 36 71  1  0  0  0  0
 36 77  2  0  0  0  0
 37 52  1  0  0  0  0
 37 73  1  0  0  0  0
 37 78  2  0  0  0  0
 38 61  1  0  0  0  0
 38 68  1  0  0  0  0
 38 79  2  0  0  0  0
 39 62  1  0  0  0  0
 39 74  1  0  0  0  0
 39 80  2  0  0  0  0
 40 69  1  0  0  0  0
 40 72  1  0  0  0  0
 40 81  2  0  0  0  0
 41 44  1  0  0  0  0
 42 52  1  0  0  0  0
 43 68  1  0  0  0  0
 44 46  1  0  0  0  0
 45 47  1  0  0  0  0
 45 48  1  0  0  0  0
 46 51  1  0  0  0  0
 47 53  1  0  0  0  0
 48 69  1  0  0  0  0
 49 53  1  0  0  0  0
 49 69  1  0  0  0  0
 50 54  1  0  0  0  0
 50 67  1  0  0  0  0
 51 73  1  0  0  0  0
 52 68  1  0  0  0  0
 53 66  1  0  0  0  0
 54 60  1  0  0  0  0
 54 82  1  0  0  0  0
 55 62  1  0  0  0  0
 56 63  1  0  0  0  0
 57 63  1  0  0  0  0
 58 63  1  0  0  0  0
 59 75  1  0  0  0  0
 60 84  1  0  0  0  0
 61 63  1  0  0  0  0
 61 74  1  0  0  0  0
 62 75  1  0  0  0  0
 64 66  1  0  0  0  0
M  CHG  1  75   1
M  ISO  4  40 100  60 101  72 100  84 101
M  END
> <Batch ID>
0069

> <Smiles>
CNC(C)C(=O)NC(C(=O)N1Cc2cc([101O:1][101CH2:1]C3CN(c4cc([100NH:0][100C:0](=O)N5CCCC(n6nc(-c7ccc(Oc8ccc(F)cc8F)cc7)c(C(N)=O)c6N)C5)ccc4C=N)C(=O)O3)ccc2CC1C(=O)NC1CCCc2ccccc21)C(C)(C)C

> <Shape>
0.293

> <Color>
0.076

> <Negative vol penalty>
0.000

$$$$

  -OEChem-04042323303D

 84 92  0     1  0  0  0  0  0999 V2000
  -16.9958  -26.6595   25.4944 C   0  0  0  0  0  0  0  0  0  0  0  0
  -18.2645  -26.1443   25.2490 C   0  0  0  0  0  0  0  0  0  0  0  0
  -23.7021   -8.9657   19.6667 C   0  0  0  0  0  0  0  0  0  0  0  0
  -23.2905  -10.0880   21.7662 C   0  0  0  0  0  0  0  0  0  0  0  0
  -27.7870  -20.2805   20.6220 C   0  0  0  0  0  0  0  0  0  0  0  0
  -16.6498  -27.9190   25.0069 C   0  0  0  0  0  0  0  0  0  0  0  0
  -19.1877  -26.8880   24.5148 C   0  0  0  0  0  0  0  0  0  0  0  0
  -25.2567  -27.0511   25.3194 C   0  0  0  0  0  0  0  0  0  0  0  0
  -27.6607  -18.8921   20.6637 C   0  0  0  0  0  0  0  0  0  0  0  0
  -23.0230   -7.8409   20.1348 C   0  0  0  0  0  0  0  0  0  0  0  0
  -22.6114   -8.9632   22.2343 C   0  0  0  0  0  0  0  0  0  0  0  0
  -26.3063  -26.3990   24.6738 C   0  0  0  0  0  0  0  0  0  0  0  0
  -19.8131   -6.8606   20.5451 C   0  0  0  0  0  0  0  0  0  0  0  0
  -18.8966   -6.2529   19.6870 C   0  0  0  0  0  0  0  0  0  0  0  0
  -26.6250  -28.3261   23.2582 C   0  0  0  0  0  0  0  0  0  0  0  0
  -30.0666  -18.6743   20.7001 C   0  0  0  0  0  0  0  0  0  0  0  0
  -20.1659   -4.1996   19.7853 C   0  0  0  0  0  0  0  0  0  0  0  0
  -23.8359  -10.0893   20.4824 C   0  0  0  0  0  0  0  0  0  0  0  0
  -29.0531  -20.8660   20.6193 C   0  0  0  0  0  0  0  0  0  0  0  0
  -23.9908  -12.3478   19.3064 C   0  0  0  0  0  0  0  0  0  0  0  0
  -17.5725  -28.6827   24.2746 C   0  0  0  0  0  0  0  0  0  0  0  0
  -24.8756  -28.3436   24.9312 C   0  0  0  0  0  0  0  0  0  0  0  0
  -18.8533  -28.1584   24.0159 C   0  0  0  0  0  0  0  0  0  0  0  0
  -25.5718  -28.9934   23.9021 C   0  0  0  0  0  0  0  0  0  0  0  0
  -28.8005  -18.0890   20.7028 C   0  0  0  0  0  0  0  0  0  0  0  0
  -22.4776   -7.8396   21.4186 C   0  0  0  0  0  0  0  0  0  0  0  0
  -26.9888  -27.0353   23.6411 C   0  0  0  0  0  0  0  0  0  0  0  0
  -20.9061   -6.1378   21.0233 C   0  0  0  0  0  0  0  0  0  0  0  0
  -19.0729   -4.9224   19.3072 C   0  0  0  0  0  0  0  0  0  0  0  0
  -30.1929  -20.0628   20.6583 C   0  0  0  0  0  0  0  0  0  0  0  0
  -21.0825   -4.8073   20.6434 C   0  0  0  0  0  0  0  0  0  0  0  0
  -24.5377  -11.2513   19.9995 C   0  0  0  0  0  0  0  0  0  0  0  0
  -25.0615  -13.1762   19.0745 C   0  0  0  0  0  0  0  0  0  0  0  0
  -29.1835  -22.3369   20.5744 C   0  0  0  0  0  0  0  0  0  0  0  0
  -22.6359  -12.5954   18.9079 C   0  0  0  0  0  0  0  0  0  0  0  0
  -22.2274  -29.6397   23.7434 C   0  0  0  0  0  0  0  0  0  0  0  0
  -23.8680  -32.4089   24.1465 C   0  0  0  0  0  0  0  0  0  0  0  0
  -28.6504  -24.4885   21.6955 C   0  0  0  0  0  0  0  0  0  0  0  0
  -26.8885  -33.9719   24.4303 C   0  0  0  0  0  0  0  0  0  0  0  0
  -29.6994  -15.7371   20.7874 C   0  0  0  0  0  0  0  0  0  0  0  0
  -17.1369  -30.0190   23.7276 C   0  0  0  0  0  0  0  0  0  0  0  0
  -23.7586  -29.0438   25.6555 C   0  0  0  0  0  0  0  0  0  0  0  0
  -25.2150  -30.3887   23.4612 C   0  0  0  0  0  0  0  0  0  0  0  0
  -18.2988  -30.9014   23.2786 C   0  0  0  0  0  0  0  0  0  0  0  0
  -30.0272  -12.3798   19.6482 C   0  0  0  0  0  0  0  0  0  0  0  0
  -19.2843  -30.0983   22.4357 C   0  0  0  0  0  0  0  0  0  0  0  0
  -28.5833  -11.8771   19.5810 C   0  0  0  0  0  0  0  0  0  0  0  0
  -30.2478  -13.3139   20.8366 C   0  0  0  0  0  0  0  0  0  0  0  0
  -27.8643  -13.9363   20.8576 C   0  0  0  0  0  0  0  0  0  0  0  0
  -19.8907  -28.9454   23.2447 C   0  0  1  0  0  0  0  0  0  0  0  0
  -23.1208  -30.1598   24.8339 C   0  0  1  0  0  0  0  0  0  0  0  0
  -27.5773  -13.0433   19.6394 C   0  0  2  0  0  0  0  0  0  0  0  0
  -27.9108  -36.2462   24.7130 C   0  0  0  0  0  0  0  0  0  0  0  0
  -23.3018  -33.0254   21.2123 C   0  0  0  0  0  0  0  0  0  0  0  0
  -25.0978  -34.7673   21.3039 C   0  0  0  0  0  0  0  0  0  0  0  0
  -23.0780  -34.9836   22.7518 C   0  0  0  0  0  0  0  0  0  0  0  0
  -28.1474  -33.2143   26.9994 C   0  0  0  0  0  0  0  0  0  0  0  0
  -27.9482  -24.9772   22.9343 C   0  0  0  0  0  0  0  0  0  1  0  0
  -24.8115  -33.2259   23.2972 C   0  0  1  0  0  0  0  0  0  0  0  0
  -27.4009  -35.0010   25.4217 C   0  0  2  0  0  0  0  0  0  0  0  0
  -24.0780  -33.9735   22.1481 C   0  0  0  0  0  0  0  0  0  0  0  0
  -25.8537  -11.3694   20.1950 N   0  0  0  0  0  0  0  0  0  0  0  0
  -26.1427  -12.5498   19.6212 N   0  0  0  0  0  0  0  0  0  0  0  0
  -24.1116  -31.0290   24.1960 N   0  0  0  0  0  0  0  0  0  0  0  0
  -29.2614  -14.3964   20.8241 N   0  0  0  0  0  0  0  0  0  0  0  0
  -25.1742  -14.3719   18.4581 N   0  0  0  0  0  0  0  0  0  0  0  0
  -21.6607  -11.6404   19.2263 N   0  0  0  0  0  0  0  0  0  0  0  0
  -28.6715  -16.6785   20.7454 N   0  0  0  0  0  0  0  0  0  0  0  0
  -28.6380  -23.0502   21.5693 N   0  0  0  0  0  0  0  0  0  0  0  0
  -20.9179  -29.4393   24.1366 N   0  0  0  0  0  0  0  0  0  0  0  0
  -25.5327  -34.1012   24.2148 N   0  0  0  0  0  0  0  0  0  0  0  0
  -29.8406  -22.8701   19.5449 N   0  3  0  0  0  0  0  0  0  0  0  0
  -28.5153  -34.4311   26.2305 N   0  3  0  0  0  0  0  0  0  0  0  0
  -22.3029  -13.6249   18.2734 O   0  0  0  0  0  0  0  0  0  0  0  0
  -22.6914  -29.4369   22.6275 O   0  0  0  0  0  0  0  0  0  0  0  0
  -22.9530  -32.9752   24.7496 O   0  0  0  0  0  0  0  0  0  0  0  0
  -29.1869  -25.2044   20.8622 O   0  0  0  0  0  0  0  0  0  0  0  0
  -27.6186  -33.1392   23.8974 O   0  0  0  0  0  0  0  0  0  0  0  0
  -30.8981  -16.0279   20.7655 O   0  0  0  0  0  0  0  0  0  0  0  0
  -21.8147   -6.7422   21.8757 O   0  0  0  0  0  0  0  0  0  0  0  0
  -28.0132  -26.4008   23.0089 O   0  0  0  0  0  0  0  0  0  1  0  0
  -18.1919   -4.3386   18.4844 F   0  0  0  0  0  0  0  0  0  0  0  0
  -31.4138  -20.6161   20.6542 F   0  0  0  0  0  0  0  0  0  0  0  0
  -22.1299   -4.1074   21.1005 F   0  0  0  0  0  0  0  0  0  0  0  0
  1  2  1  0  0  0  0
  1  6  2  0  0  0  0
  2  7  2  0  0  0  0
  3 10  2  0  0  0  0
  3 18  1  0  0  0  0
  4 11  1  0  0  0  0
  4 18  2  0  0  0  0
  5  9  2  0  0  0  0
  5 19  1  0  0  0  0
  6 21  1  0  0  0  0
  7 23  1  0  0  0  0
  8 12  2  0  0  0  0
  8 22  1  0  0  0  0
  9 25  1  0  0  0  0
 10 26  1  0  0  0  0
 11 26  2  0  0  0  0
 12 27  1  0  0  0  0
 13 14  2  0  0  0  0
 13 28  1  0  0  0  0
 14 29  1  0  0  0  0
 15 24  1  0  0  0  0
 15 27  2  0  0  0  0
 16 25  2  0  0  0  0
 16 30  1  0  0  0  0
 17 29  2  0  0  0  0
 17 31  1  0  0  0  0
 18 32  1  0  0  0  0
 19 30  2  0  0  0  0
 19 34  1  0  0  0  0
 20 32  1  0  0  0  0
 20 33  2  0  0  0  0
 20 35  1  0  0  0  0
 21 23  2  0  0  0  0
 21 41  1  0  0  0  0
 22 24  2  0  0  0  0
 22 42  1  0  0  0  0
 23 50  1  0  0  0  0
 24 43  1  0  0  0  0
 25 68  1  0  0  0  0
 26 80  1  0  0  0  0
 27 81  1  0  0  0  0
 28 31  2  0  0  0  0
 28 80  1  0  0  0  0
 29 82  1  0  0  0  0
 30 83  1  0  0  0  0
 31 84  1  0  0  0  0
 32 62  2  0  0  0  0
 33 63  1  0  0  0  0
 33 66  1  0  0  0  0
 34 69  1  0  0  0  0
 34 72  2  0  0  0  0
 35 67  1  0  0  0  0
 35 74  2  0  0  0  0
 36 51  1  0  0  0  0
 36 70  1  0  0  0  0
 36 75  2  0  0  0  0
 37 59  1  0  0  0  0
 37 64  1  0  0  0  0
 37 76  2  0  0  0  0
 38 58  1  0  0  0  0
 38 69  1  0  0  0  0
 38 77  2  0  0  0  0
 39 60  1  0  0  0  0
 39 71  1  0  0  0  0
 39 78  2  0  0  0  0
 40 65  1  0  0  0  0
 40 68  1  0  0  0  0
 40 79  2  0  0  0  0
 41 44  1  0  0  0  0
 42 51  1  0  0  0  0
 43 64  1  0  0  0  0
 44 46  1  0  0  0  0
 45 47  1  0  0  0  0
 45 48  1  0  0  0  0
 46 50  1  0  0  0  0
 47 52  1  0  0  0  0
 48 65  1  0  0  0  0
 49 52  1  0  0  0  0
 49 65  1  0  0  0  0
 50 70  1  0  0  0  0
 51 64  1  0  0  0  0
 52 63  1  0  0  0  0
 53 60  1  0  0  0  0
 54 61  1  0  0  0  0
 55 61  1  0  0  0  0
 56 61  1  0  0  0  0
 57 73  1  0  0  0  0
 58 81  1  0  0  0  0
 59 61  1  0  0  0  0
 59 71  1  0  0  0  0
 60 73  1  0  0  0  0
 62 63  1  0  0  0  0
M  CHG  2  72   1  73   1
M  ISO  4  40 100  58 101  68 100  81 101
M  END
> <Batch ID>
0069

> <Smiles>
CNC(C)C(=O)NC(C(=O)N1Cc2cc([101O:1][101CH2:1]C(=O)NC(=N)c3ccc([100NH:0][100C:0](=O)N4CCCC(n5nc(-c6ccc(Oc7ccc(F)cc7F)cc6)c(C(N)=O)c5N)C4)cc3F)ccc2CC1C(=O)NC1CCCc2ccccc21)C(C)(C)C

> <Shape>
0.277

> <Color>
0.105

> <Negative vol penalty>
0.000

$$$$

  -OEChem-04042323303D

 86 95  0     1  0  0  0  0  0999 V2000
  -32.0846  -25.6863   15.1287 C   0  0  0  0  0  0  0  0  0  0  0  0
  -31.5082  -25.1129   16.2576 C   0  0  0  0  0  0  0  0  0  0  0  0
  -23.0775   -9.7781   20.1306 C   0  0  0  0  0  0  0  0  0  0  0  0
  -23.6124  -10.1993   22.4487 C   0  0  0  0  0  0  0  0  0  0  0  0
  -32.2608  -27.0678   15.0627 C   0  0  0  0  0  0  0  0  0  0  0  0
  -31.1087  -25.9207   17.3217 C   0  0  0  0  0  0  0  0  0  0  0  0
  -26.5324  -24.6736   19.0958 C   0  0  0  0  0  0  0  0  0  0  0  0
  -22.3048   -8.6800   20.5085 C   0  0  0  0  0  0  0  0  0  0  0  0
  -22.8396   -9.1013   22.8266 C   0  0  0  0  0  0  0  0  0  0  0  0
  -26.4539  -23.5553   19.9247 C   0  0  0  0  0  0  0  0  0  0  0  0
  -23.1592   -5.7363   22.8983 C   0  0  0  0  0  0  0  0  0  0  0  0
  -23.6952   -4.8608   23.8428 C   0  0  0  0  0  0  0  0  0  0  0  0
  -26.4019  -24.9985   21.8569 C   0  0  0  0  0  0  0  0  0  0  0  0
  -29.5940  -17.8832   22.5704 C   0  0  0  0  0  0  0  0  0  0  0  0
  -31.8187  -16.9661   22.3546 C   0  0  0  0  0  0  0  0  0  0  0  0
  -21.8382   -5.3171   25.3195 C   0  0  0  0  0  0  0  0  0  0  0  0
  -23.7314  -10.5377   21.1007 C   0  0  0  0  0  0  0  0  0  0  0  0
  -24.1013  -13.0049   20.5679 C   0  0  0  0  0  0  0  0  0  0  0  0
  -31.8543  -27.8938   16.1225 C   0  0  0  0  0  0  0  0  0  0  0  0
  -26.5573  -25.9646   19.6427 C   0  0  0  0  0  0  0  0  0  0  0  0
  -31.2808  -27.3144   17.2704 C   0  0  0  0  0  0  0  0  0  0  0  0
  -26.4782  -26.1317   21.0327 C   0  0  0  0  0  0  0  0  0  0  0  0
  -31.4616  -18.9795   23.6414 C   0  0  0  0  0  0  0  0  0  0  0  0
  -30.0975  -18.9197   23.3564 C   0  0  0  0  0  0  0  0  0  0  0  0
  -30.4546  -16.9064   22.0696 C   0  0  0  0  0  0  0  0  0  0  0  0
  -22.1858   -8.3417   21.8564 C   0  0  0  0  0  0  0  0  0  0  0  0
  -26.3916  -23.7175   21.3056 C   0  0  0  0  0  0  0  0  0  0  0  0
  -21.9628   -6.4022   23.1645 C   0  0  0  0  0  0  0  0  0  0  0  0
  -23.0346   -4.6512   25.0533 C   0  0  0  0  0  0  0  0  0  0  0  0
  -32.3223  -18.0027   23.1405 C   0  0  0  0  0  0  0  0  0  0  0  0
  -21.3023   -6.1926   24.3750 C   0  0  0  0  0  0  0  0  0  0  0  0
  -24.5303  -11.6717   20.7110 C   0  0  0  0  0  0  0  0  0  0  0  0
  -25.2288  -13.6891   20.1843 C   0  0  0  0  0  0  0  0  0  0  0  0
  -28.9614  -20.2142   25.2125 C   0  0  0  0  0  0  0  0  0  0  0  0
  -22.8000  -13.5739   20.7643 C   0  0  0  0  0  0  0  0  0  0  0  0
  -28.6401  -28.3657   19.6314 C   0  0  0  0  0  0  0  0  0  0  0  0
  -26.2323  -29.9474   21.1223 C   0  0  0  0  0  0  0  0  0  0  0  0
  -23.3960  -29.7887   23.0136 C   0  0  0  0  0  0  0  0  0  0  0  0
  -30.6599  -14.8044   20.6963 C   0  0  0  0  0  0  0  0  0  0  0  0
  -32.1085  -29.3773   16.0253 C   0  0  0  0  0  0  0  0  0  0  0  0
  -26.6153  -27.1615   18.7337 C   0  0  0  0  0  0  0  0  0  0  0  0
  -26.4812  -27.4969   21.6687 C   0  0  0  0  0  0  0  0  0  0  0  0
  -28.0155  -21.3927   25.2492 C   0  0  0  0  0  0  0  0  0  0  0  0
  -31.3156  -30.1988   17.0384 C   0  0  0  0  0  0  0  0  0  0  0  0
  -29.7622  -11.9977   18.6979 C   0  0  0  0  0  0  0  0  0  0  0  0
  -31.4104  -29.5715   18.4256 C   0  0  0  0  0  0  0  0  0  0  0  0
  -28.2857  -11.7723   19.0317 C   0  0  0  0  0  0  0  0  0  0  0  0
  -30.5586  -12.4452   19.9223 C   0  0  0  0  0  0  0  0  0  0  0  0
  -28.4633  -20.7996   22.9831 C   0  0  0  0  0  0  0  0  0  0  0  0
  -28.5324  -13.3838   20.9629 C   0  0  0  0  0  0  0  0  0  0  0  0
  -30.8118  -28.1597   18.4347 C   0  0  1  0  0  0  0  0  0  0  0  0
  -27.1526  -28.4111   19.4246 C   0  0  1  0  0  0  0  0  0  0  0  0
  -27.3708  -21.3761   23.8705 C   0  0  2  0  0  0  0  0  0  0  0  0
  -27.6766  -12.9946   19.7464 C   0  0  2  0  0  0  0  0  0  0  0  0
  -32.0257  -20.0807   24.4797 C   0  0  0  0  0  0  0  0  0  0  0  0
  -21.6724  -31.2493   24.1060 C   0  0  0  0  0  0  0  0  0  0  0  0
  -28.2220  -30.6406   23.3292 C   0  0  0  0  0  0  0  0  0  0  0  0
  -26.2822  -31.2443   24.7925 C   0  0  0  0  0  0  0  0  0  0  0  0
  -26.6904  -32.5084   22.6811 C   0  0  0  0  0  0  0  0  0  0  0  0
  -21.2092  -28.6097   21.4053 C   0  0  0  0  0  0  0  0  0  0  0  0
  -26.8921  -22.7444   23.4170 C   0  0  0  0  0  0  0  0  0  1  0  0
  -25.8089  -30.1420   22.5582 C   0  0  1  0  0  0  0  0  0  0  0  0
  -22.0437  -30.4609   22.8596 C   0  0  2  0  0  0  0  0  0  0  0  0
  -26.7528  -31.1079   23.3287 C   0  0  0  0  0  0  0  0  0  0  0  0
  -25.8289  -11.5160   20.4402 N   0  0  0  0  0  0  0  0  0  0  0  0
  -26.2256  -12.7603   20.1230 N   0  0  0  0  0  0  0  0  0  0  0  0
  -29.2011  -19.9095   23.8595 N   0  0  0  0  0  0  0  0  0  0  0  0
  -26.5455  -28.6359   20.7380 N   0  0  0  0  0  0  0  0  0  0  0  0
  -29.9249  -13.6096   20.5448 N   0  0  0  0  0  0  0  0  0  0  0  0
  -25.4548  -14.9885   19.8967 N   0  0  0  0  0  0  0  0  0  0  0  0
  -21.7538  -12.7287   21.1586 N   0  0  0  0  0  0  0  0  0  0  0  0
  -29.9431  -15.8533   21.2713 N   0  0  0  0  0  0  0  0  0  0  0  0
  -29.3663  -28.2237   18.4644 N   0  0  0  0  0  0  0  0  0  0  0  0
  -24.4158  -30.5734   22.5182 N   0  0  0  0  0  0  0  0  0  0  0  0
  -20.9837  -29.4424   22.6147 N   0  3  0  0  0  0  0  0  0  0  0  0
  -29.4308  -19.7181   26.2266 O   0  0  0  0  0  0  0  0  0  0  0  0
  -22.5682  -14.7927   20.5793 O   0  0  0  0  0  0  0  0  0  0  0  0
  -29.0954  -28.4545   20.7657 O   0  0  0  0  0  0  0  0  0  0  0  0
  -26.2763  -30.9220   20.3674 O   0  0  0  0  0  0  0  0  0  0  0  0
  -23.5343  -28.6800   23.5258 O   0  0  0  0  0  0  0  0  0  0  0  0
  -31.8300  -14.8990   20.3171 O   0  0  0  0  0  0  0  0  0  0  0  0
  -21.4316   -7.2704   22.2255 O   0  0  0  0  0  0  0  0  0  0  0  0
  -26.3155  -22.6277   22.1169 O   0  0  0  0  0  0  0  0  0  1  0  0
  -23.5486   -3.8093   25.9595 F   0  0  0  0  0  0  0  0  0  0  0  0
  -33.6350  -18.0518   23.4071 F   0  0  0  0  0  0  0  0  0  0  0  0
  -20.1519   -6.8286   24.6359 F   0  0  0  0  0  0  0  0  0  0  0  0
  1  2  1  0  0  0  0
  1  5  2  0  0  0  0
  2  6  2  0  0  0  0
  3  8  2  0  0  0  0
  3 17  1  0  0  0  0
  4  9  1  0  0  0  0
  4 17  2  0  0  0  0
  5 19  1  0  0  0  0
  6 21  1  0  0  0  0
  7 10  2  0  0  0  0
  7 20  1  0  0  0  0
  8 26  1  0  0  0  0
  9 26  2  0  0  0  0
 10 27  1  0  0  0  0
 11 12  2  0  0  0  0
 11 28  1  0  0  0  0
 12 29  1  0  0  0  0
 13 22  1  0  0  0  0
 13 27  2  0  0  0  0
 14 24  1  0  0  0  0
 14 25  2  0  0  0  0
 15 25  1  0  0  0  0
 15 30  2  0  0  0  0
 16 29  2  0  0  0  0
 16 31  1  0  0  0  0
 17 32  1  0  0  0  0
 18 32  1  0  0  0  0
 18 33  2  0  0  0  0
 18 35  1  0  0  0  0
 19 21  2  0  0  0  0
 19 40  1  0  0  0  0
 20 22  2  0  0  0  0
 20 41  1  0  0  0  0
 21 51  1  0  0  0  0
 22 42  1  0  0  0  0
 23 24  2  0  0  0  0
 23 30  1  0  0  0  0
 23 55  1  0  0  0  0
 24 67  1  0  0  0  0
 25 72  1  0  0  0  0
 26 82  1  0  0  0  0
 27 83  1  0  0  0  0
 28 31  2  0  0  0  0
 28 82  1  0  0  0  0
 29 84  1  0  0  0  0
 30 85  1  0  0  0  0
 31 86  1  0  0  0  0
 32 65  2  0  0  0  0
 33 66  1  0  0  0  0
 33 70  1  0  0  0  0
 34 43  1  0  0  0  0
 34 67  1  0  0  0  0
 34 76  2  0  0  0  0
 35 71  1  0  0  0  0
 35 77  2  0  0  0  0
 36 52  1  0  0  0  0
 36 73  1  0  0  0  0
 36 78  2  0  0  0  0
 37 62  1  0  0  0  0
 37 68  1  0  0  0  0
 37 79  2  0  0  0  0
 38 63  1  0  0  0  0
 38 74  1  0  0  0  0
 38 80  2  0  0  0  0
 39 69  1  0  0  0  0
 39 72  1  0  0  0  0
 39 81  2  0  0  0  0
 40 44  1  0  0  0  0
 41 52  1  0  0  0  0
 42 68  1  0  0  0  0
 43 53  1  0  0  0  0
 44 46  1  0  0  0  0
 45 47  1  0  0  0  0
 45 48  1  0  0  0  0
 46 51  1  0  0  0  0
 47 54  1  0  0  0  0
 48 69  1  0  0  0  0
 49 53  1  0  0  0  0
 49 67  1  0  0  0  0
 50 54  1  0  0  0  0
 50 69  1  0  0  0  0
 51 73  1  0  0  0  0
 52 68  1  0  0  0  0
 53 61  1  0  0  0  0
 54 66  1  0  0  0  0
 56 63  1  0  0  0  0
 57 64  1  0  0  0  0
 58 64  1  0  0  0  0
 59 64  1  0  0  0  0
 60 75  1  0  0  0  0
 61 83  1  0  0  0  0
 62 64  1  0  0  0  0
 62 74  1  0  0  0  0
 63 75  1  0  0  0  0
 65 66  1  0  0  0  0
M  CHG  1  75   1
M  ISO  4  39 100  61 101  72 100  83 101
M  END
> <Batch ID>
0069

> <Smiles>
CNC(C)C(=O)NC(C(=O)N1Cc2cc([101O:1][101CH2:1]C3CC(=O)N(c4cc([100NH:0][100C:0](=O)N5CCCC(n6nc(-c7ccc(Oc8ccc(F)cc8F)cc7)c(C(N)=O)c6N)C5)cc(F)c4C)C3)ccc2CC1C(=O)NC1CCCc2ccccc21)C(C)(C)C

> <Shape>
0.301

> <Color>
0.222

> <Negative vol penalty>
0.000

$$$$

  -OEChem-04042323302D

  0  0  0     0  0  0  0  0  0999 V2000
M  END
$$$$

  -OEChem-04042323303D

 87 96  0     1  0  0  0  0  0999 V2000
  -25.8844  -37.3991   20.5418 C   0  0  0  0  0  0  0  0  0  0  0  0
  -26.1297  -36.0633   20.2403 C   0  0  0  0  0  0  0  0  0  0  0  0
  -26.5481  -12.5002   21.0002 C   0  0  0  0  0  0  0  0  0  0  0  0
  -25.7879  -14.5234   19.9204 C   0  0  0  0  0  0  0  0  0  0  0  0
  -25.9409  -37.8357   21.8647 C   0  0  0  0  0  0  0  0  0  0  0  0
  -26.4327  -35.1635   21.2616 C   0  0  0  0  0  0  0  0  0  0  0  0
  -23.9139  -30.7934   20.8114 C   0  0  0  0  0  0  0  0  0  0  0  0
  -31.4930  -25.1367   22.0801 C   0  0  0  0  0  0  0  0  0  0  0  0
  -31.4872  -23.7915   22.4486 C   0  0  0  0  0  0  0  0  0  0  0  0
  -25.2484  -11.9948   20.9682 C   0  0  0  0  0  0  0  0  0  0  0  0
  -24.4882  -14.0180   19.8884 C   0  0  0  0  0  0  0  0  0  0  0  0
  -24.3896  -29.8780   19.8736 C   0  0  0  0  0  0  0  0  0  0  0  0
  -22.7152  -11.8255   18.0256 C   0  0  0  0  0  0  0  0  0  0  0  0
  -21.9964  -11.9646   16.8384 C   0  0  0  0  0  0  0  0  0  0  0  0
  -25.4756  -28.6433   21.6386 C   0  0  0  0  0  0  0  0  0  0  0  0
  -29.9434  -23.3069   20.6544 C   0  0  0  0  0  0  0  0  0  0  0  0
  -20.3173  -13.2512   18.0057 C   0  0  0  0  0  0  0  0  0  0  0  0
  -26.8178  -13.7645   20.4763 C   0  0  0  0  0  0  0  0  0  0  0  0
  -29.3052  -13.7285   19.9111 C   0  0  0  0  0  0  0  0  0  0  0  0
  -26.2353  -36.9389   22.9037 C   0  0  0  0  0  0  0  0  0  0  0  0
  -24.2250  -30.6465   22.1708 C   0  0  0  0  0  0  0  0  0  0  0  0
  -26.4945  -35.5888   22.5995 C   0  0  0  0  0  0  0  0  0  0  0  0
  -25.0004  -29.5567   22.5920 C   0  0  0  0  0  0  0  0  0  0  0  0
  -30.7240  -25.5671   20.9989 C   0  0  0  0  0  0  0  0  0  0  0  0
  -29.9493  -24.6522   20.2860 C   0  0  0  0  0  0  0  0  0  0  0  0
  -30.7124  -22.8765   21.7357 C   0  0  0  0  0  0  0  0  0  0  0  0
  -24.2185  -12.7537   20.4123 C   0  0  0  0  0  0  0  0  0  0  0  0
  -25.1730  -28.8044   20.2867 C   0  0  0  0  0  0  0  0  0  0  0  0
  -22.2350  -12.3991   19.2030 C   0  0  0  0  0  0  0  0  0  0  0  0
  -20.7975  -12.6775   16.8284 C   0  0  0  0  0  0  0  0  0  0  0  0
  -21.0361  -13.1120   19.1930 C   0  0  0  0  0  0  0  0  0  0  0  0
  -28.1601  -14.2874   20.5095 C   0  0  0  0  0  0  0  0  0  0  0  0
  -30.3192  -14.5976   20.2318 C   0  0  0  0  0  0  0  0  0  0  0  0
  -29.7237  -25.6806   18.0299 C   0  0  0  0  0  0  0  0  0  0  0  0
  -29.4402  -12.5307   19.1346 C   0  0  0  0  0  0  0  0  0  0  0  0
  -25.7971  -32.3905   24.3134 C   0  0  0  0  0  0  0  0  0  0  0  0
  -24.7398  -30.1130   26.3670 C   0  0  0  0  0  0  0  0  0  0  0  0
  -23.6399  -26.9160   26.8314 C   0  0  0  0  0  0  0  0  0  0  0  0
  -29.9970  -20.4631   21.5156 C   0  0  0  0  0  0  0  0  0  0  0  0
  -26.3317  -37.4671   24.3131 C   0  0  0  0  0  0  0  0  0  0  0  0
  -23.6819  -31.6276   23.1732 C   0  0  0  0  0  0  0  0  0  0  0  0
  -25.3459  -29.3427   24.0422 C   0  0  0  0  0  0  0  0  0  0  0  0
  -26.2909  -36.3737   25.3775 C   0  0  0  0  0  0  0  0  0  0  0  0
  -30.8721  -17.6354   23.9575 C   0  0  0  0  0  0  0  0  0  0  0  0
  -27.2277  -35.2294   25.0035 C   0  0  0  0  0  0  0  0  0  0  0  0
  -31.0220  -16.4828   22.9673 C   0  0  0  0  0  0  0  0  0  0  0  0
  -31.0760  -18.9936   23.2979 C   0  0  0  0  0  0  0  0  0  0  0  0
  -29.5054  -18.0267   21.6084 C   0  0  0  0  0  0  0  0  0  0  0  0
  -27.7166  -24.7593   19.1408 C   0  0  0  0  0  0  0  0  0  0  0  0
  -26.8021  -34.5774   23.6824 C   0  0  1  0  0  0  0  0  0  0  0  0
  -28.6880  -26.0995   16.9935 C   0  0  2  0  0  0  0  0  0  0  0  0
  -24.4887  -31.6680   24.4674 C   0  0  1  0  0  0  0  0  0  0  0  0
  -30.4267  -16.7972   21.5806 C   0  0  2  0  0  0  0  0  0  0  0  0
  -26.8434  -25.9420   18.6990 C   0  0  1  0  0  0  0  0  0  0  0  0
  -30.7497  -27.0141   20.6268 C   0  0  0  0  0  0  0  0  0  0  0  0
  -29.2556  -27.0528   15.9513 C   0  0  0  0  0  0  0  0  0  0  0  0
  -22.8881  -25.3327   28.6274 C   0  0  0  0  0  0  0  0  0  0  0  0
  -27.6375  -29.7378   27.2458 C   0  0  0  0  0  0  0  0  0  0  0  0
  -26.9660  -27.5642   28.2910 C   0  0  0  0  0  0  0  0  0  0  0  0
  -25.9692  -29.6998   29.1085 C   0  0  0  0  0  0  0  0  0  0  0  0
  -20.9641  -26.6112   25.6042 C   0  0  0  0  0  0  0  0  0  0  0  0
  -26.4361  -26.8336   19.8664 C   0  0  0  0  0  0  0  0  0  1  0  0
  -25.2688  -28.7869   26.8573 C   0  0  1  0  0  0  0  0  0  0  0  0
  -22.4513  -26.3606   27.5952 C   0  0  2  0  0  0  0  0  0  0  0  0
  -26.4557  -28.9520   27.8480 C   0  0  0  0  0  0  0  0  0  0  0  0
  -28.4214  -15.4236   21.1613 N   0  0  0  0  0  0  0  0  0  0  0  0
  -29.7423  -15.5857   20.9743 N   0  0  0  0  0  0  0  0  0  0  0  0
  -29.1496  -25.0763   19.1684 N   0  0  0  0  0  0  0  0  0  0  0  0
  -24.7966  -30.3326   24.9834 N   0  0  0  0  0  0  0  0  0  0  0  0
  -30.2077  -19.2047   22.1305 N   0  0  0  0  0  0  0  0  0  0  0  0
  -31.6390  -14.6055   19.9484 N   0  0  0  0  0  0  0  0  0  0  0  0
  -29.2788  -12.6137   17.7448 N   0  0  0  0  0  0  0  0  0  0  0  0
  -30.7068  -21.5096   22.1105 N   0  0  0  0  0  0  0  0  0  0  0  0
  -25.6701  -33.7008   23.8930 N   0  0  0  0  0  0  0  0  0  0  0  0
  -24.1246  -28.0700   27.4098 N   0  0  0  0  0  0  0  0  0  0  0  0
  -27.5636  -26.7926   17.6949 N   0  3  0  0  0  0  0  0  0  0  0  0
  -21.4928  -25.7083   26.6588 N   0  3  0  0  0  0  0  0  0  0  0  0
  -30.9265  -25.8183   17.8109 O   0  0  0  0  0  0  0  0  0  0  0  0
  -29.6801  -11.4169   19.6593 O   0  0  0  0  0  0  0  0  0  0  0  0
  -26.8442  -31.8033   24.5592 O   0  0  0  0  0  0  0  0  0  0  0  0
  -24.2861  -30.9214   27.1809 O   0  0  0  0  0  0  0  0  0  0  0  0
  -24.0953  -26.3777   25.8247 O   0  0  0  0  0  0  0  0  0  0  0  0
  -29.2584  -20.5903   20.5368 O   0  0  0  0  0  0  0  0  0  0  0  0
  -22.9502  -12.2608   20.3807 O   0  0  0  0  0  0  0  0  0  0  0  0
  -25.6391  -27.9098   19.3733 O   0  0  0  0  0  0  0  0  0  1  0  0
  -20.1082  -12.8123   15.6879 F   0  0  0  0  0  0  0  0  0  0  0  0
  -20.5704  -13.6663   20.3206 F   0  0  0  0  0  0  0  0  0  0  0  0
  1  2  1  0  0  0  0
  1  5  2  0  0  0  0
  2  6  2  0  0  0  0
  3 10  2  0  0  0  0
  3 18  1  0  0  0  0
  4 11  1  0  0  0  0
  4 18  2  0  0  0  0
  5 20  1  0  0  0  0
  6 22  1  0  0  0  0
  7 12  2  0  0  0  0
  7 21  1  0  0  0  0
  8  9  2  0  0  0  0
  8 24  1  0  0  0  0
  9 26  1  0  0  0  0
 10 27  1  0  0  0  0
 11 27  2  0  0  0  0
 12 28  1  0  0  0  0
 13 14  2  0  0  0  0
 13 29  1  0  0  0  0
 14 30  1  0  0  0  0
 15 23  1  0  0  0  0
 15 28  2  0  0  0  0
 16 25  1  0  0  0  0
 16 26  2  0  0  0  0
 17 30  2  0  0  0  0
 17 31  1  0  0  0  0
 18 32  1  0  0  0  0
 19 32  1  0  0  0  0
 19 33  2  0  0  0  0
 19 35  1  0  0  0  0
 20 22  2  0  0  0  0
 20 40  1  0  0  0  0
 21 23  2  0  0  0  0
 21 41  1  0  0  0  0
 22 50  1  0  0  0  0
 23 42  1  0  0  0  0
 24 25  2  0  0  0  0
 24 55  1  0  0  0  0
 25 68  1  0  0  0  0
 26 73  1  0  0  0  0
 27 84  1  0  0  0  0
 28 85  1  0  0  0  0
 29 31  2  0  0  0  0
 29 84  1  0  0  0  0
 30 86  1  0  0  0  0
 31 87  1  0  0  0  0
 32 66  2  0  0  0  0
 33 67  1  0  0  0  0
 33 71  1  0  0  0  0
 34 51  1  0  0  0  0
 34 68  1  0  0  0  0
 34 78  2  0  0  0  0
 35 72  1  0  0  0  0
 35 79  2  0  0  0  0
 36 52  1  0  0  0  0
 36 74  1  0  0  0  0
 36 80  2  0  0  0  0
 37 63  1  0  0  0  0
 37 69  1  0  0  0  0
 37 81  2  0  0  0  0
 38 64  1  0  0  0  0
 38 75  1  0  0  0  0
 38 82  2  0  0  0  0
 39 70  1  0  0  0  0
 39 73  1  0  0  0  0
 39 83  2  0  0  0  0
 40 43  1  0  0  0  0
 41 52  1  0  0  0  0
 42 69  1  0  0  0  0
 43 45  1  0  0  0  0
 44 46  1  0  0  0  0
 44 47  1  0  0  0  0
 45 50  1  0  0  0  0
 46 53  1  0  0  0  0
 47 70  1  0  0  0  0
 48 53  1  0  0  0  0
 48 70  1  0  0  0  0
 49 54  1  0  0  0  0
 49 68  1  0  0  0  0
 50 74  1  0  0  0  0
 51 56  1  0  0  0  0
 51 76  1  0  0  0  0
 52 69  1  0  0  0  0
 53 67  1  0  0  0  0
 54 62  1  0  0  0  0
 54 76  1  0  0  0  0
 57 64  1  0  0  0  0
 58 65  1  0  0  0  0
 59 65  1  0  0  0  0
 60 65  1  0  0  0  0
 61 77  1  0  0  0  0
 62 85  1  0  0  0  0
 63 65  1  0  0  0  0
 63 75  1  0  0  0  0
 64 77  1  0  0  0  0
 66 67  1  0  0  0  0
M  CHG  2  76   1  77   1
M  ISO  4  39 100  62 101  73 100  85 101
M  END
> <Batch ID>
0069

> <Smiles>
CNC(C)C(=O)NC(C(=O)N1Cc2cc([101O:1][101CH2:1]C3CN(c4cc([100NH:0][100C:0](=O)N5CCCC(n6nc(-c7ccc(Oc8ccc(F)cc8F)cc7)c(C(N)=O)c6N)C5)ccc4C)C(=O)C(C)N3)ccc2CC1C(=O)NC1CCCc2ccccc21)C(C)(C)C

> <Shape>
0.295

> <Color>
0.074

> <Negative vol penalty>
0.000

$$$$

  -OEChem-04042323303D

 85 93  0     1  0  0  0  0  0999 V2000
  -26.9693  -34.4931   24.6051 C   0  0  0  0  0  0  0  0  0  0  0  0
  -27.3667  -33.2686   24.0778 C   0  0  0  0  0  0  0  0  0  0  0  0
  -23.4060  -11.7985   18.6071 C   0  0  0  0  0  0  0  0  0  0  0  0
  -23.8692  -10.0728   20.2332 C   0  0  0  0  0  0  0  0  0  0  0  0
  -25.7141  -34.6210   25.1984 C   0  0  0  0  0  0  0  0  0  0  0  0
  -26.5094  -32.1709   24.1444 C   0  0  0  0  0  0  0  0  0  0  0  0
  -26.2950  -29.6057   19.7834 C   0  0  0  0  0  0  0  0  0  0  0  0
  -22.7367  -10.8689   17.8112 C   0  0  0  0  0  0  0  0  0  0  0  0
  -23.1999   -9.1431   19.4373 C   0  0  0  0  0  0  0  0  0  0  0  0
  -27.3570  -28.7497   19.4953 C   0  0  0  0  0  0  0  0  0  0  0  0
  -20.0007   -8.2813   18.7719 C   0  0  0  0  0  0  0  0  0  0  0  0
  -19.1091   -7.4134   19.4022 C   0  0  0  0  0  0  0  0  0  0  0  0
  -26.0367  -26.8719   20.2369 C   0  0  0  0  0  0  0  0  0  0  0  0
  -28.5360  -21.3404   20.3438 C   0  0  0  0  0  0  0  0  0  0  0  0
  -29.4624  -20.0853   22.6567 C   0  0  0  0  0  0  0  0  0  0  0  0
  -20.4076   -5.5246   18.6383 C   0  0  0  0  0  0  0  0  0  0  0  0
  -23.9723  -11.4004   19.8181 C   0  0  0  0  0  0  0  0  0  0  0  0
  -24.1120  -13.1664   21.6537 C   0  0  0  0  0  0  0  0  0  0  0  0
  -24.8372  -33.5268   25.2637 C   0  0  0  0  0  0  0  0  0  0  0  0
  -25.0977  -29.1018   20.3115 C   0  0  0  0  0  0  0  0  0  0  0  0
  -25.2418  -32.2839   24.7403 C   0  0  0  0  0  0  0  0  0  0  0  0
  -24.9600  -27.7233   20.5284 C   0  0  0  0  0  0  0  0  0  0  0  0
  -28.5173  -19.9488   20.4374 C   0  0  0  0  0  0  0  0  0  0  0  0
  -29.0181  -22.1044   21.4067 C   0  0  0  0  0  0  0  0  0  0  0  0
  -28.9804  -19.3212   21.5938 C   0  0  0  0  0  0  0  0  0  0  0  0
  -22.6337   -9.5412   18.2263 C   0  0  0  0  0  0  0  0  0  0  0  0
  -27.2290  -27.3829   19.7248 C   0  0  0  0  0  0  0  0  0  0  0  0
  -21.0957   -7.7709   18.0746 C   0  0  0  0  0  0  0  0  0  0  0  0
  -19.3126   -6.0351   19.3355 C   0  0  0  0  0  0  0  0  0  0  0  0
  -29.4812  -21.4769   22.5631 C   0  0  0  0  0  0  0  0  0  0  0  0
  -21.2992   -6.3926   18.0079 C   0  0  0  0  0  0  0  0  0  0  0  0
  -24.6643  -12.3601   20.6404 C   0  0  0  0  0  0  0  0  0  0  0  0
  -25.1738  -13.8972   22.1280 C   0  0  0  0  0  0  0  0  0  0  0  0
  -22.7601  -13.2475   22.1242 C   0  0  0  0  0  0  0  0  0  0  0  0
  -23.4842  -29.5284   23.0167 C   0  0  0  0  0  0  0  0  0  0  0  0
  -21.2692  -27.6825   21.5305 C   0  0  0  0  0  0  0  0  0  0  0  0
  -20.5805  -25.3274   19.1586 C   0  0  0  0  0  0  0  0  0  0  0  0
  -28.6092  -24.2989   20.2422 C   0  0  0  0  0  0  0  0  0  0  0  0
  -29.6903  -17.0684   20.8090 C   0  0  0  0  0  0  0  0  0  0  0  0
  -23.5091  -33.7012   25.9569 C   0  0  0  0  0  0  0  0  0  0  0  0
  -23.9519  -30.0351   20.5917 C   0  0  0  0  0  0  0  0  0  0  0  0
  -23.6883  -27.1296   21.0749 C   0  0  0  0  0  0  0  0  0  0  0  0
  -22.5120  -32.5861   25.6525 C   0  0  0  0  0  0  0  0  0  0  0  0
  -30.1351  -13.4404   21.3088 C   0  0  0  0  0  0  0  0  0  0  0  0
  -23.1824  -31.2217   25.7778 C   0  0  0  0  0  0  0  0  0  0  0  0
  -28.7093  -12.9037   21.1952 C   0  0  0  0  0  0  0  0  0  0  0  0
  -30.3349  -14.7004   20.4718 C   0  0  0  0  0  0  0  0  0  0  0  0
  -27.9270  -15.2458   20.6584 C   0  0  0  0  0  0  0  0  0  0  0  0
  -24.3302  -31.0763   24.7714 C   0  0  1  0  0  0  0  0  0  0  0  0
  -22.9615  -29.4768   21.6089 C   0  0  1  0  0  0  0  0  0  0  0  0
  -27.6822  -14.0008   21.5244 C   0  0  1  0  0  0  0  0  0  0  0  0
  -27.9958  -19.1553   19.2834 C   0  0  0  0  0  0  0  0  0  0  0  0
  -18.6846  -23.9889   18.2038 C   0  0  0  0  0  0  0  0  0  0  0  0
  -30.2645  -26.1406   20.7190 C   0  0  0  0  0  0  0  0  0  0  0  0
  -21.3176  -25.8685   23.9835 C   0  0  0  0  0  0  0  0  0  0  0  0
  -20.1774  -24.1074   22.6173 C   0  0  0  0  0  0  0  0  0  0  0  0
  -19.0396  -26.2867   23.0401 C   0  0  0  0  0  0  0  0  0  0  0  0
  -28.4022  -17.2821   22.9220 C   0  0  0  0  0  0  0  0  0  0  0  0
  -20.9494  -26.5065   16.4693 C   0  0  0  0  0  0  0  0  0  0  0  0
  -20.9976  -26.2000   21.4431 C   0  0  1  0  0  0  0  0  0  0  0  0
  -19.5085  -25.2617   18.0858 C   0  0  2  0  0  0  0  0  0  0  0  0
  -28.7970  -25.7862   20.5299 C   0  0  1  0  0  0  0  0  0  1  0  0
  -20.4078  -25.6267   22.7625 C   0  0  0  0  0  0  0  0  0  0  0  0
  -25.9751  -12.5598   20.4797 N   0  0  0  0  0  0  0  0  0  0  0  0
  -26.2554  -13.4999   21.3982 N   0  0  0  0  0  0  0  0  0  0  0  0
  -22.5988  -28.0840   21.3390 N   0  0  0  0  0  0  0  0  0  0  0  0
  -29.3184  -15.7095   20.7718 N   0  0  0  0  0  0  0  0  0  0  0  0
  -25.2785  -14.8345   23.0939 N   0  0  0  0  0  0  0  0  0  0  0  0
  -21.7943  -12.4262   21.5266 N   0  0  0  0  0  0  0  0  0  0  0  0
  -29.0366  -23.5162   21.3097 N   0  0  0  0  0  0  0  0  0  0  0  0
  -23.8110  -30.7995   23.4492 N   0  0  0  0  0  0  0  0  0  0  0  0
  -20.1447  -26.0095   20.2749 N   0  0  0  0  0  0  0  0  0  0  0  0
  -28.9704  -17.8821   21.7104 N   0  0  0  0  0  0  0  0  0  0  0  0
  -20.1286  -25.2963   16.7311 N   0  3  0  0  0  0  0  0  0  0  0  0
  -22.4154  -14.0370   23.0360 O   0  0  0  0  0  0  0  0  0  0  0  0
  -23.5822  -28.4920   23.6632 O   0  0  0  0  0  0  0  0  0  0  0  0
  -20.3348  -28.4563   21.7533 O   0  0  0  0  0  0  0  0  0  0  0  0
  -21.6918  -24.8208   19.0217 O   0  0  0  0  0  0  0  0  0  0  0  0
  -28.1195  -23.9121   19.1849 O   0  0  0  0  0  0  0  0  0  0  0  0
  -30.6121  -17.5118   20.1138 O   0  0  0  0  0  0  0  0  0  0  0  0
  -21.9805   -8.6339   17.4500 O   0  0  0  0  0  0  0  0  0  0  0  0
  -28.2644  -26.5452   19.4451 O   0  0  0  0  0  0  0  0  0  1  0  0
  -18.4571   -5.2018   19.9422 F   0  0  0  0  0  0  0  0  0  0  0  0
  -29.9457  -22.2020   23.5906 F   0  0  0  0  0  0  0  0  0  0  0  0
  -22.3500   -5.8963   17.3406 F   0  0  0  0  0  0  0  0  0  0  0  0
  1  2  1  0  0  0  0
  1  5  2  0  0  0  0
  2  6  2  0  0  0  0
  3  8  2  0  0  0  0
  3 17  1  0  0  0  0
  4  9  1  0  0  0  0
  4 17  2  0  0  0  0
  5 19  1  0  0  0  0
  6 21  1  0  0  0  0
  7 10  2  0  0  0  0
  7 20  1  0  0  0  0
  8 26  1  0  0  0  0
  9 26  2  0  0  0  0
 10 27  1  0  0  0  0
 11 12  2  0  0  0  0
 11 28  1  0  0  0  0
 12 29  1  0  0  0  0
 13 22  1  0  0  0  0
 13 27  2  0  0  0  0
 14 23  2  0  0  0  0
 14 24  1  0  0  0  0
 15 25  2  0  0  0  0
 15 30  1  0  0  0  0
 16 29  2  0  0  0  0
 16 31  1  0  0  0  0
 17 32  1  0  0  0  0
 18 32  1  0  0  0  0
 18 33  2  0  0  0  0
 18 34  1  0  0  0  0
 19 21  2  0  0  0  0
 19 40  1  0  0  0  0
 20 22  2  0  0  0  0
 20 41  1  0  0  0  0
 21 49  1  0  0  0  0
 22 42  1  0  0  0  0
 23 25  1  0  0  0  0
 23 52  1  0  0  0  0
 24 30  2  0  0  0  0
 24 70  1  0  0  0  0
 25 73  1  0  0  0  0
 26 81  1  0  0  0  0
 27 82  1  0  0  0  0
 28 31  2  0  0  0  0
 28 81  1  0  0  0  0
 29 83  1  0  0  0  0
 30 84  1  0  0  0  0
 31 85  1  0  0  0  0
 32 64  2  0  0  0  0
 33 65  1  0  0  0  0
 33 68  1  0  0  0  0
 34 69  1  0  0  0  0
 34 75  2  0  0  0  0
 35 50  1  0  0  0  0
 35 71  1  0  0  0  0
 35 76  2  0  0  0  0
 36 60  1  0  0  0  0
 36 66  1  0  0  0  0
 36 77  2  0  0  0  0
 37 61  1  0  0  0  0
 37 72  1  0  0  0  0
 37 78  2  0  0  0  0
 38 62  1  0  0  0  0
 38 70  1  0  0  0  0
 38 79  2  0  0  0  0
 39 67  1  0  0  0  0
 39 73  1  0  0  0  0
 39 80  2  0  0  0  0
 40 43  1  0  0  0  0
 41 50  1  0  0  0  0
 42 66  1  0  0  0  0
 43 45  1  0  0  0  0
 44 46  1  0  0  0  0
 44 47  1  0  0  0  0
 45 49  1  0  0  0  0
 46 51  1  0  0  0  0
 47 67  1  0  0  0  0
 48 51  1  0  0  0  0
 48 67  1  0  0  0  0
 49 71  1  0  0  0  0
 50 66  1  0  0  0  0
 51 65  1  0  0  0  0
 53 61  1  0  0  0  0
 54 62  1  0  0  0  0
 55 63  1  0  0  0  0
 56 63  1  0  0  0  0
 57 63  1  0  0  0  0
 58 73  1  0  0  0  0
 59 74  1  0  0  0  0
 60 63  1  0  0  0  0
 60 72  1  0  0  0  0
 61 74  1  0  0  0  0
 62 82  1  0  0  0  0
 64 65  1  0  0  0  0
M  CHG  1  74   1
M  ISO  4  39 100  62 101  73 100  82 101
M  END
> <Batch ID>
0069

> <Smiles>
CNC(C)C(=O)NC(C(=O)N1Cc2cc([101O:1][101CH:1](C)C(=O)Nc3cc(C)c([100N:0](C)[100C:0](=O)N4CCCC(n5nc(-c6ccc(Oc7ccc(F)cc7F)cc6)c(C(N)=O)c5N)C4)cc3F)ccc2CC1C(=O)NC1CCCc2ccccc21)C(C)(C)C

> <Shape>
0.291

> <Color>
0.105

> <Negative vol penalty>
0.000

$$$$

  -OEChem-04042323303D

 85 93  0     1  0  0  0  0  0999 V2000
  -19.1104  -24.1446   23.1808 C   0  0  0  0  0  0  0  0  0  0  0  0
  -20.4317  -24.2637   22.7619 C   0  0  0  0  0  0  0  0  0  0  0  0
  -24.0575  -11.1325   23.4647 C   0  0  0  0  0  0  0  0  0  0  0  0
  -23.3344  -13.3922   23.0089 C   0  0  0  0  0  0  0  0  0  0  0  0
  -18.2827  -25.2664   23.2004 C   0  0  0  0  0  0  0  0  0  0  0  0
  -20.9257  -25.5046   22.3613 C   0  0  0  0  0  0  0  0  0  0  0  0
  -25.5026  -26.4889   24.2922 C   0  0  0  0  0  0  0  0  0  0  0  0
  -23.3907  -11.1661   24.6894 C   0  0  0  0  0  0  0  0  0  0  0  0
  -22.6676  -13.4259   24.2336 C   0  0  0  0  0  0  0  0  0  0  0  0
  -26.5951  -25.8674   23.6891 C   0  0  0  0  0  0  0  0  0  0  0  0
  -20.2144  -10.8539   25.8057 C   0  0  0  0  0  0  0  0  0  0  0  0
  -19.4430   -9.7454   26.1545 C   0  0  0  0  0  0  0  0  0  0  0  0
  -28.3230  -20.0995   19.2712 C   0  0  0  0  0  0  0  0  0  0  0  0
  -27.0759  -27.8988   22.4802 C   0  0  0  0  0  0  0  0  0  0  0  0
  -30.5298  -18.3987   19.4120 C   0  0  0  0  0  0  0  0  0  0  0  0
  -20.8036   -9.4183   28.1240 C   0  0  0  0  0  0  0  0  0  0  0  0
  -24.0294  -12.2455   22.6245 C   0  0  0  0  0  0  0  0  0  0  0  0
  -29.6030  -20.6298   19.4325 C   0  0  0  0  0  0  0  0  0  0  0  0
  -24.1986  -11.7953   20.1192 C   0  0  0  0  0  0  0  0  0  0  0  0
  -18.7696  -26.5235   22.8090 C   0  0  0  0  0  0  0  0  0  0  0  0
  -25.1814  -27.8190   23.9850 C   0  0  0  0  0  0  0  0  0  0  0  0
  -20.1033  -26.6441   22.3744 C   0  0  0  0  0  0  0  0  0  0  0  0
  -25.9803  -28.5357   23.0826 C   0  0  0  0  0  0  0  0  0  0  0  0
  -30.7064  -19.7794   19.5028 C   0  0  0  0  0  0  0  0  0  0  0  0
  -29.2497  -17.8684   19.2507 C   0  0  0  0  0  0  0  0  0  0  0  0
  -22.6958  -12.3128   25.0739 C   0  0  0  0  0  0  0  0  0  0  0  0
  -27.3803  -26.5713   22.7808 C   0  0  0  0  0  0  0  0  0  0  0  0
  -21.2804  -11.2446   26.6160 C   0  0  0  0  0  0  0  0  0  0  0  0
  -19.7376   -9.0275   27.3136 C   0  0  0  0  0  0  0  0  0  0  0  0
  -28.1464  -18.7189   19.1804 C   0  0  0  0  0  0  0  0  0  0  0  0
  -21.5750  -10.5268   27.7751 C   0  0  0  0  0  0  0  0  0  0  0  0
  -24.7184  -12.2116   21.3595 C   0  0  0  0  0  0  0  0  0  0  0  0
  -25.2417  -11.9525   19.2396 C   0  0  0  0  0  0  0  0  0  0  0  0
  -29.7630  -22.0954   19.5272 C   0  0  0  0  0  0  0  0  0  0  0  0
  -22.8899  -11.3099   19.7915 C   0  0  0  0  0  0  0  0  0  0  0  0
  -22.6763  -29.2781   22.6816 C   0  0  0  0  0  0  0  0  0  0  0  0
  -24.3219  -31.9605   23.4686 C   0  0  0  0  0  0  0  0  0  0  0  0
  -29.1677  -24.1571   20.7784 C   0  0  0  0  0  0  0  0  0  0  0  0
  -27.3309  -33.4164   24.1564 C   0  0  0  0  0  0  0  0  0  0  0  0
  -30.0617  -15.4840   19.2123 C   0  0  0  0  0  0  0  0  0  0  0  0
  -17.8238  -27.6983   22.8022 C   0  0  0  0  0  0  0  0  0  0  0  0
  -24.0155  -28.4834   24.6643 C   0  0  0  0  0  0  0  0  0  0  0  0
  -25.6900  -29.9720   22.7342 C   0  0  0  0  0  0  0  0  0  0  0  0
  -18.5305  -29.0488   22.7182 C   0  0  0  0  0  0  0  0  0  0  0  0
  -30.0273  -11.9268   19.0625 C   0  0  0  0  0  0  0  0  0  0  0  0
  -19.6062  -29.0221   21.6371 C   0  0  0  0  0  0  0  0  0  0  0  0
  -28.6127  -11.5585   19.5159 C   0  0  0  0  0  0  0  0  0  0  0  0
  -30.5726  -13.1313   19.8278 C   0  0  0  0  0  0  0  0  0  0  0  0
  -28.2913  -13.9485   20.2722 C   0  0  0  0  0  0  0  0  0  0  0  0
  -20.6830  -27.9778   21.9558 C   0  0  1  0  0  0  0  0  0  0  0  0
  -23.4753  -29.6809   23.8887 C   0  0  1  0  0  0  0  0  0  0  0  0
  -27.6747  -12.7811   19.4844 C   0  0  2  0  0  0  0  0  0  0  0  0
  -28.3630  -35.6318   24.7257 C   0  0  0  0  0  0  0  0  0  0  0  0
  -24.0373  -32.8377   20.5601 C   0  0  0  0  0  0  0  0  0  0  0  0
  -25.8480  -34.5192   20.9629 C   0  0  0  0  0  0  0  0  0  0  0  0
  -23.7084  -34.6634   22.2373 C   0  0  0  0  0  0  0  0  0  0  0  0
  -28.3360  -32.4119   26.7525 C   0  0  0  0  0  0  0  0  0  0  0  0
  -28.3639  -24.5568   21.9870 C   0  0  0  0  0  0  0  0  0  1  0  0
  -25.3534  -32.8222   22.7813 C   0  0  1  0  0  0  0  0  0  0  0  0
  -27.7686  -34.3444   25.2752 C   0  0  2  0  0  0  0  0  0  0  0  0
  -24.7413  -33.6830   21.6403 C   0  0  0  0  0  0  0  0  0  0  0  0
  -25.9927  -12.6036   21.2791 N   0  0  0  0  0  0  0  0  0  0  0  0
  -26.2824  -12.4343   19.9777 N   0  0  0  0  0  0  0  0  0  0  0  0
  -24.5355  -30.5756   23.4199 N   0  0  0  0  0  0  0  0  0  0  0  0
  -29.6331  -14.2522   19.7505 N   0  0  0  0  0  0  0  0  0  0  0  0
  -32.0101  -20.2983   19.6659 N   0  0  0  0  0  0  0  0  0  0  0  0
  -25.3610  -11.7241   17.9144 N   0  0  0  0  0  0  0  0  0  0  0  0
  -21.9381  -11.2112   20.8156 N   0  0  0  0  0  0  0  0  0  0  0  0
  -29.0726  -16.4656   19.1597 N   0  0  0  0  0  0  0  0  0  0  0  0
  -29.1415  -22.7355   20.5273 N   0  0  0  0  0  0  0  0  0  0  0  0
  -21.5874  -28.4775   22.9692 N   0  0  0  0  0  0  0  0  0  0  0  0
  -26.0030  -33.5980   23.8323 N   0  0  0  0  0  0  0  0  0  0  0  0
  -30.5208  -22.6970   18.6108 N   0  3  0  0  0  0  0  0  0  0  0  0
  -28.7941  -33.6797   26.1281 N   0  3  0  0  0  0  0  0  0  0  0  0
  -22.5788  -10.9583   18.6283 O   0  0  0  0  0  0  0  0  0  0  0  0
  -23.0214  -29.6662   21.5716 O   0  0  0  0  0  0  0  0  0  0  0  0
  -23.3657  -32.4967   24.0342 O   0  0  0  0  0  0  0  0  0  0  0  0
  -29.7907  -24.9272   20.0617 O   0  0  0  0  0  0  0  0  0  0  0  0
  -28.0918  -32.6135   23.6208 O   0  0  0  0  0  0  0  0  0  0  0  0
  -31.2135  -15.6470   18.8014 O   0  0  0  0  0  0  0  0  0  0  0  0
  -22.0448  -12.3459   26.2687 O   0  0  0  0  0  0  0  0  0  0  0  0
  -28.4469  -25.9668   22.1903 O   0  0  0  0  0  0  0  0  0  1  0  0
  -18.9958   -7.9640   27.6493 F   0  0  0  0  0  0  0  0  0  0  0  0
  -26.9115  -18.2197   19.0275 F   0  0  0  0  0  0  0  0  0  0  0  0
  -22.5972  -10.8981   28.5581 F   0  0  0  0  0  0  0  0  0  0  0  0
  1  2  1  0  0  0  0
  1  5  2  0  0  0  0
  2  6  2  0  0  0  0
  3  8  2  0  0  0  0
  3 17  1  0  0  0  0
  4  9  1  0  0  0  0
  4 17  2  0  0  0  0
  5 20  1  0  0  0  0
  6 22  1  0  0  0  0
  7 10  2  0  0  0  0
  7 21  1  0  0  0  0
  8 26  1  0  0  0  0
  9 26  2  0  0  0  0
 10 27  1  0  0  0  0
 11 12  2  0  0  0  0
 11 28  1  0  0  0  0
 12 29  1  0  0  0  0
 13 18  1  0  0  0  0
 13 30  2  0  0  0  0
 14 23  1  0  0  0  0
 14 27  2  0  0  0  0
 15 24  1  0  0  0  0
 15 25  2  0  0  0  0
 16 29  2  0  0  0  0
 16 31  1  0  0  0  0
 17 32  1  0  0  0  0
 18 24  2  0  0  0  0
 18 34  1  0  0  0  0
 19 32  1  0  0  0  0
 19 33  2  0  0  0  0
 19 35  1  0  0  0  0
 20 22  2  0  0  0  0
 20 41  1  0  0  0  0
 21 23  2  0  0  0  0
 21 42  1  0  0  0  0
 22 50  1  0  0  0  0
 23 43  1  0  0  0  0
 24 66  1  0  0  0  0
 25 30  1  0  0  0  0
 25 69  1  0  0  0  0
 26 81  1  0  0  0  0
 27 82  1  0  0  0  0
 28 31  2  0  0  0  0
 28 81  1  0  0  0  0
 29 83  1  0  0  0  0
 30 84  1  0  0  0  0
 31 85  1  0  0  0  0
 32 62  2  0  0  0  0
 33 63  1  0  0  0  0
 33 67  1  0  0  0  0
 34 70  1  0  0  0  0
 34 73  2  0  0  0  0
 35 68  1  0  0  0  0
 35 75  2  0  0  0  0
 36 51  1  0  0  0  0
 36 71  1  0  0  0  0
 36 76  2  0  0  0  0
 37 59  1  0  0  0  0
 37 64  1  0  0  0  0
 37 77  2  0  0  0  0
 38 58  1  0  0  0  0
 38 70  1  0  0  0  0
 38 78  2  0  0  0  0
 39 60  1  0  0  0  0
 39 72  1  0  0  0  0
 39 79  2  0  0  0  0
 40 65  1  0  0  0  0
 40 69  1  0  0  0  0
 40 80  2  0  0  0  0
 41 44  1  0  0  0  0
 42 51  1  0  0  0  0
 43 64  1  0  0  0  0
 44 46  1  0  0  0  0
 45 47  1  0  0  0  0
 45 48  1  0  0  0  0
 46 50  1  0  0  0  0
 47 52  1  0  0  0  0
 48 65  1  0  0  0  0
 49 52  1  0  0  0  0
 49 65  1  0  0  0  0
 50 71  1  0  0  0  0
 51 64  1  0  0  0  0
 52 63  1  0  0  0  0
 53 60  1  0  0  0  0
 54 61  1  0  0  0  0
 55 61  1  0  0  0  0
 56 61  1  0  0  0  0
 57 74  1  0  0  0  0
 58 82  1  0  0  0  0
 59 61  1  0  0  0  0
 59 72  1  0  0  0  0
 60 74  1  0  0  0  0
 62 63  1  0  0  0  0
M  CHG  2  73   1  74   1
M  ISO  4  40 100  58 101  69 100  82 101
M  END
> <Batch ID>
0069

> <Smiles>
CNC(C)C(=O)NC(C(=O)N1Cc2cc([101O:1][101CH2:1]C(=O)NC(=N)c3cc(F)c([100NH:0][100C:0](=O)N4CCCC(n5nc(-c6ccc(Oc7ccc(F)cc7F)cc6)c(C(N)=O)c5N)C4)cc3N)ccc2CC1C(=O)NC1CCCc2ccccc21)C(C)(C)C

> <Shape>
0.271

> <Color>
0.093

> <Negative vol penalty>
0.000

$$$$

  -OEChem-04042323303D

 86 94  0     1  0  0  0  0  0999 V2000
  -17.6717  -32.4186   23.6668 C   0  0  0  0  0  0  0  0  0  0  0  0
  -18.8441  -32.6868   22.9675 C   0  0  0  0  0  0  0  0  0  0  0  0
  -26.3370  -12.7743   20.3287 C   0  0  0  0  0  0  0  0  0  0  0  0
  -24.6528  -14.5061   20.3642 C   0  0  0  0  0  0  0  0  0  0  0  0
  -17.5930  -31.2950   24.4886 C   0  0  0  0  0  0  0  0  0  0  0  0
  -19.9389  -31.8321   23.0905 C   0  0  0  0  0  0  0  0  0  0  0  0
  -25.4605  -29.2554   19.3236 C   0  0  0  0  0  0  0  0  0  0  0  0
  -25.4807  -11.9271   21.0320 C   0  0  0  0  0  0  0  0  0  0  0  0
  -23.7965  -13.6589   21.0674 C   0  0  0  0  0  0  0  0  0  0  0  0
  -26.8457  -29.1174   19.4002 C   0  0  0  0  0  0  0  0  0  0  0  0
  -22.8088   -9.9675   20.3584 C   0  0  0  0  0  0  0  0  0  0  0  0
  -22.6947   -8.6493   19.9170 C   0  0  0  0  0  0  0  0  0  0  0  0
  -28.2445  -23.4471   15.2532 C   0  0  0  0  0  0  0  0  0  0  0  0
  -26.5681  -27.1631   20.7869 C   0  0  0  0  0  0  0  0  0  0  0  0
  -29.6639  -23.4877   17.6545 C   0  0  0  0  0  0  0  0  0  0  0  0
  -23.4876   -7.8632   22.0596 C   0  0  0  0  0  0  0  0  0  0  0  0
  -25.9231  -14.0639   19.9949 C   0  0  0  0  0  0  0  0  0  0  0  0
  -28.6665  -24.6618   15.7934 C   0  0  0  0  0  0  0  0  0  0  0  0
  -26.9140  -15.0723   17.8715 C   0  0  0  0  0  0  0  0  0  0  0  0
  -18.6842  -30.4208   24.6141 C   0  0  0  0  0  0  0  0  0  0  0  0
  -24.6174  -28.3532   19.9881 C   0  0  0  0  0  0  0  0  0  0  0  0
  -19.8752  -30.6964   23.9157 C   0  0  0  0  0  0  0  0  0  0  0  0
  -25.1725  -27.2904   20.7150 C   0  0  0  0  0  0  0  0  0  0  0  0
  -29.3763  -24.6822   16.9940 C   0  0  0  0  0  0  0  0  0  0  0  0
  -29.2418  -22.2729   17.1143 C   0  0  0  0  0  0  0  0  0  0  0  0
  -24.2105  -12.3694   21.4013 C   0  0  0  0  0  0  0  0  0  0  0  0
  -27.3998  -28.0728   20.1344 C   0  0  0  0  0  0  0  0  0  0  0  0
  -23.2625  -10.2336   21.6504 C   0  0  0  0  0  0  0  0  0  0  0  0
  -23.0340   -7.5971   20.7676 C   0  0  0  0  0  0  0  0  0  0  0  0
  -28.5320  -22.2526   15.9137 C   0  0  0  0  0  0  0  0  0  0  0  0
  -23.6018   -9.1814   22.5009 C   0  0  0  0  0  0  0  0  0  0  0  0
  -26.8074  -14.9397   19.2689 C   0  0  0  0  0  0  0  0  0  0  0  0
  -27.8876  -16.0240   17.6901 C   0  0  0  0  0  0  0  0  0  0  0  0
  -28.3547  -25.8889   15.0887 C   0  0  0  0  0  0  0  0  0  0  0  0
  -26.1970  -14.3957   16.8304 C   0  0  0  0  0  0  0  0  0  0  0  0
  -22.4503  -28.5954   22.3008 C   0  0  0  0  0  0  0  0  0  0  0  0
  -21.9288  -25.4701   21.6058 C   0  0  0  0  0  0  0  0  0  0  0  0
  -30.5224  -26.0863   18.7429 C   0  0  0  0  0  0  0  0  0  0  0  0
  -23.1302  -22.5510   20.3088 C   0  0  0  0  0  0  0  0  0  0  0  0
  -30.2275  -20.9070   18.9876 C   0  0  0  0  0  0  0  0  0  0  0  0
  -18.5681  -29.2447   25.5511 C   0  0  0  0  0  0  0  0  0  0  0  0
  -23.1249  -28.5003   19.8735 C   0  0  0  0  0  0  0  0  0  0  0  0
  -24.3108  -26.2831   21.4300 C   0  0  0  0  0  0  0  0  0  0  0  0
  -19.6451  -28.1848   25.3347 C   0  0  0  0  0  0  0  0  0  0  0  0
  -31.1200  -18.0991   20.9866 C   0  0  0  0  0  0  0  0  0  0  0  0
  -21.0187  -28.8368   25.2119 C   0  0  0  0  0  0  0  0  0  0  0  0
  -30.0864  -17.0377   20.6030 C   0  0  0  0  0  0  0  0  0  0  0  0
  -30.5107  -19.4997   21.0159 C   0  0  0  0  0  0  0  0  0  0  0  0
  -28.7670  -18.8322   19.4087 C   0  0  0  0  0  0  0  0  0  0  0  0
  -21.0759  -29.7794   24.0037 C   0  0  1  0  0  0  0  0  0  0  0  0
  -22.3687  -27.8249   21.0134 C   0  0  1  0  0  0  0  0  0  0  0  0
  -29.3491  -17.4132   19.3026 C   0  0  2  0  0  0  0  0  0  0  0  0
  -22.4857  -20.1580   19.9143 C   0  0  0  0  0  0  0  0  0  0  0  0
  -22.3533  -24.8701   24.5672 C   0  0  0  0  0  0  0  0  0  0  0  0
  -22.6443  -22.4574   23.9652 C   0  0  0  0  0  0  0  0  0  0  0  0
  -20.4769  -23.6034   23.5046 C   0  0  0  0  0  0  0  0  0  0  0  0
  -23.4337  -22.8312   17.3782 C   0  0  0  0  0  0  0  0  0  0  0  0
  -30.7883  -27.5681   18.9829 C   0  0  0  0  0  0  0  0  0  0  0  0
  -29.5152  -28.3930   19.0958 C   0  0  0  0  0  0  0  0  0  1  0  0
  -22.4974  -24.1580   22.0897 C   0  0  1  0  0  0  0  0  0  0  0  0
  -22.5275  -21.5609   19.3286 C   0  0  2  0  0  0  0  0  0  0  0  0
  -22.0095  -23.7922   23.5199 C   0  0  0  0  0  0  0  0  0  0  0  0
  -27.6464  -15.7428   19.9285 N   0  0  0  0  0  0  0  0  0  0  0  0
  -28.2895  -16.3891   18.9412 N   0  0  0  0  0  0  0  0  0  0  0  0
  -22.8573  -26.4732   21.2931 N   0  0  0  0  0  0  0  0  0  0  0  0
  -29.8329  -19.7873   19.7499 N   0  0  0  0  0  0  0  0  0  0  0  0
  -28.4305  -16.5757   16.5841 N   0  0  0  0  0  0  0  0  0  0  0  0
  -29.2039  -26.3790   14.1721 N   0  0  0  0  0  0  0  0  0  0  0  0
  -25.2305  -13.4474   17.1921 N   0  0  0  0  0  0  0  0  0  0  0  0
  -29.8116  -25.9042   17.5597 N   0  0  0  0  0  0  0  0  0  0  0  0
  -29.5342  -21.0608   17.7875 N   0  0  0  0  0  0  0  0  0  0  0  0
  -21.2264  -29.0230   22.7792 N   0  0  0  0  0  0  0  0  0  0  0  0
  -22.1617  -23.1677   21.0723 N   0  0  0  0  0  0  0  0  0  0  0  0
  -27.2129  -26.5464   15.3443 N   0  3  0  0  0  0  0  0  0  0  0  0
  -23.3290  -21.5221   18.0728 N   0  3  0  0  0  0  0  0  0  0  0  0
  -26.4187  -14.6135   15.6151 O   0  0  0  0  0  0  0  0  0  0  0  0
  -23.5426  -28.7865   22.8224 O   0  0  0  0  0  0  0  0  0  0  0  0
  -20.7063  -25.5979   21.5021 O   0  0  0  0  0  0  0  0  0  0  0  0
  -30.9063  -25.2197   19.5214 O   0  0  0  0  0  0  0  0  0  0  0  0
  -24.3395  -22.7541   20.3917 O   0  0  0  0  0  0  0  0  0  0  0  0
  -31.1338  -21.6576   19.3581 O   0  0  0  0  0  0  0  0  0  0  0  0
  -23.3745  -11.5428   22.0873 O   0  0  0  0  0  0  0  0  0  0  0  0
  -28.7515  -27.9361   20.2114 O   0  0  0  0  0  0  0  0  0  1  0  0
  -22.9228   -6.3312   20.3441 F   0  0  0  0  0  0  0  0  0  0  0  0
  -28.1212  -21.0911   15.3853 F   0  0  0  0  0  0  0  0  0  0  0  0
  -24.0370   -9.4308   23.7436 F   0  0  0  0  0  0  0  0  0  0  0  0
  1  2  1  0  0  0  0
  1  5  2  0  0  0  0
  2  6  2  0  0  0  0
  3  8  2  0  0  0  0
  3 17  1  0  0  0  0
  4  9  1  0  0  0  0
  4 17  2  0  0  0  0
  5 20  1  0  0  0  0
  6 22  1  0  0  0  0
  7 10  2  0  0  0  0
  7 21  1  0  0  0  0
  8 26  1  0  0  0  0
  9 26  2  0  0  0  0
 10 27  1  0  0  0  0
 11 12  2  0  0  0  0
 11 28  1  0  0  0  0
 12 29  1  0  0  0  0
 13 18  1  0  0  0  0
 13 30  2  0  0  0  0
 14 23  1  0  0  0  0
 14 27  2  0  0  0  0
 15 24  1  0  0  0  0
 15 25  2  0  0  0  0
 16 29  2  0  0  0  0
 16 31  1  0  0  0  0
 17 32  1  0  0  0  0
 18 24  2  0  0  0  0
 18 34  1  0  0  0  0
 19 32  1  0  0  0  0
 19 33  2  0  0  0  0
 19 35  1  0  0  0  0
 20 22  2  0  0  0  0
 20 41  1  0  0  0  0
 21 23  2  0  0  0  0
 21 42  1  0  0  0  0
 22 50  1  0  0  0  0
 23 43  1  0  0  0  0
 24 70  1  0  0  0  0
 25 30  1  0  0  0  0
 25 71  1  0  0  0  0
 26 82  1  0  0  0  0
 27 83  1  0  0  0  0
 28 31  2  0  0  0  0
 28 82  1  0  0  0  0
 29 84  1  0  0  0  0
 30 85  1  0  0  0  0
 31 86  1  0  0  0  0
 32 63  2  0  0  0  0
 33 64  1  0  0  0  0
 33 67  1  0  0  0  0
 34 68  1  0  0  0  0
 34 74  2  0  0  0  0
 35 69  1  0  0  0  0
 35 76  2  0  0  0  0
 36 51  1  0  0  0  0
 36 72  1  0  0  0  0
 36 77  2  0  0  0  0
 37 60  1  0  0  0  0
 37 65  1  0  0  0  0
 37 78  2  0  0  0  0
 38 58  1  0  0  0  0
 38 70  1  0  0  0  0
 38 79  2  0  0  0  0
 39 61  1  0  0  0  0
 39 73  1  0  0  0  0
 39 80  2  0  0  0  0
 40 66  1  0  0  0  0
 40 71  1  0  0  0  0
 40 81  2  0  0  0  0
 41 44  1  0  0  0  0
 42 51  1  0  0  0  0
 43 65  1  0  0  0  0
 44 46  1  0  0  0  0
 45 47  1  0  0  0  0
 45 48  1  0  0  0  0
 46 50  1  0  0  0  0
 47 52  1  0  0  0  0
 48 66  1  0  0  0  0
 49 52  1  0  0  0  0
 49 66  1  0  0  0  0
 50 72  1  0  0  0  0
 51 65  1  0  0  0  0
 52 64  1  0  0  0  0
 53 61  1  0  0  0  0
 54 62  1  0  0  0  0
 55 62  1  0  0  0  0
 56 62  1  0  0  0  0
 57 75  1  0  0  0  0
 58 59  1  0  0  0  0
 59 83  1  0  0  0  0
 60 62  1  0  0  0  0
 60 73  1  0  0  0  0
 61 75  1  0  0  0  0
 63 64  1  0  0  0  0
M  CHG  2  74   1  75   1
M  ISO  4  40 100  59 101  71 100  83 101
M  END
> <Batch ID>
0069

> <Smiles>
CNC(C)C(=O)NC(C(=O)N1Cc2cc([101O:1][101CH2:1]CC(=O)Nc3cc([100NH:0][100C:0](=O)N4CCCC(n5nc(-c6ccc(Oc7ccc(F)cc7F)cc6)c(C(N)=O)c5N)C4)c(F)cc3C(=N)N)ccc2CC1C(=O)NC1CCCc2ccccc21)C(C)(C)C

> <Shape>
0.241

> <Color>
0.099

> <Negative vol penalty>
0.000

$$$$

  -OEChem-04042323303D

 86 95  0     1  0  0  0  0  0999 V2000
  -36.9345  -28.4556   18.6570 C   0  0  0  0  0  0  0  0  0  0  0  0
  -36.8982  -27.2940   19.4217 C   0  0  0  0  0  0  0  0  0  0  0  0
  -23.0004   -9.8901   19.9869 C   0  0  0  0  0  0  0  0  0  0  0  0
  -23.7206   -9.9547   22.2921 C   0  0  0  0  0  0  0  0  0  0  0  0
  -35.8365  -29.3147   18.6439 C   0  0  0  0  0  0  0  0  0  0  0  0
  -35.7642  -26.9914   20.1747 C   0  0  0  0  0  0  0  0  0  0  0  0
  -34.3824  -22.1388   19.7415 C   0  0  0  0  0  0  0  0  0  0  0  0
  -22.2333   -8.7571   20.2582 C   0  0  0  0  0  0  0  0  0  0  0  0
  -22.9535   -8.8218   22.5635 C   0  0  0  0  0  0  0  0  0  0  0  0
  -35.1100  -21.2018   20.4740 C   0  0  0  0  0  0  0  0  0  0  0  0
  -21.4697   -5.7357   23.7819 C   0  0  0  0  0  0  0  0  0  0  0  0
  -22.0541   -4.7244   24.5443 C   0  0  0  0  0  0  0  0  0  0  0  0
  -33.3690  -21.1640   22.1434 C   0  0  0  0  0  0  0  0  0  0  0  0
  -31.8417  -18.3684   24.1419 C   0  0  0  0  0  0  0  0  0  0  0  0
  -32.0513  -16.5632   22.5501 C   0  0  0  0  0  0  0  0  0  0  0  0
  -29.8720  -17.4653   23.0735 C   0  0  0  0  0  0  0  0  0  0  0  0
  -23.7841   -4.4676   22.8775 C   0  0  0  0  0  0  0  0  0  0  0  0
  -23.7440  -10.4889   21.0038 C   0  0  0  0  0  0  0  0  0  0  0  0
  -24.1295  -13.0034   20.8138 C   0  0  0  0  0  0  0  0  0  0  0  0
  -34.6847  -29.0177   19.3895 C   0  0  0  0  0  0  0  0  0  0  0  0
  -33.1457  -22.6044   20.2107 C   0  0  0  0  0  0  0  0  0  0  0  0
  -34.6503  -27.8481   20.1726 C   0  0  0  0  0  0  0  0  0  0  0  0
  -32.6266  -22.1050   21.4137 C   0  0  0  0  0  0  0  0  0  0  0  0
  -32.6380  -17.4660   23.4368 C   0  0  0  0  0  0  0  0  0  0  0  0
  -30.4587  -18.3681   23.9602 C   0  0  0  0  0  0  0  0  0  0  0  0
  -30.6682  -16.5628   22.3684 C   0  0  0  0  0  0  0  0  0  0  0  0
  -22.2099   -8.2230   21.5465 C   0  0  0  0  0  0  0  0  0  0  0  0
  -34.6046  -20.7164   21.6765 C   0  0  0  0  0  0  0  0  0  0  0  0
  -22.0424   -6.1129   22.5672 C   0  0  0  0  0  0  0  0  0  0  0  0
  -23.2114   -4.0904   24.0921 C   0  0  0  0  0  0  0  0  0  0  0  0
  -23.1996   -5.4788   22.1150 C   0  0  0  0  0  0  0  0  0  0  0  0
  -24.5370  -11.6589   20.7240 C   0  0  0  0  0  0  0  0  0  0  0  0
  -25.2400  -13.7240   20.4476 C   0  0  0  0  0  0  0  0  0  0  0  0
  -36.1316  -17.8989   24.8875 C   0  0  0  0  0  0  0  0  0  0  0  0
  -36.8664  -17.8201   23.7754 C   0  0  0  0  0  0  0  0  0  0  0  0
  -34.6443  -17.8454   24.8469 C   0  0  0  0  0  0  0  0  0  0  0  0
  -22.8607  -13.5520   21.1944 C   0  0  0  0  0  0  0  0  0  0  0  0
  -31.9978  -25.4395   21.0757 C   0  0  0  0  0  0  0  0  0  0  0  0
  -29.2034  -23.8065   21.2926 C   0  0  0  0  0  0  0  0  0  0  0  0
  -27.6233  -20.8115   21.7172 C   0  0  0  0  0  0  0  0  0  0  0  0
  -30.7189  -14.6869   20.6877 C   0  0  0  0  0  0  0  0  0  0  0  0
  -33.5409  -30.0006   19.3810 C   0  0  0  0  0  0  0  0  0  0  0  0
  -32.3608  -23.5953   19.3955 C   0  0  0  0  0  0  0  0  0  0  0  0
  -31.2943  -22.5575   21.9510 C   0  0  0  0  0  0  0  0  0  0  0  0
  -32.2335  -29.4184   19.9120 C   0  0  0  0  0  0  0  0  0  0  0  0
  -29.6058  -12.2202   18.3738 C   0  0  0  0  0  0  0  0  0  0  0  0
  -32.4775  -28.6541   21.2094 C   0  0  0  0  0  0  0  0  0  0  0  0
  -28.1544  -11.9649   18.7864 C   0  0  0  0  0  0  0  0  0  0  0  0
  -30.5037  -12.4709   19.5841 C   0  0  0  0  0  0  0  0  0  0  0  0
  -34.9112  -16.8908   22.5634 C   0  0  0  0  0  0  0  0  0  0  0  0
  -28.5854  -13.2674   20.9088 C   0  0  0  0  0  0  0  0  0  0  0  0
  -33.4287  -27.4728   20.9832 C   0  0  1  0  0  0  0  0  0  0  0  0
  -36.2666  -17.5921   22.4255 C   0  0  1  0  0  0  0  0  0  0  0  0
  -31.3513  -24.3840   20.2238 C   0  0  1  0  0  0  0  0  0  0  0  0
  -27.6303  -13.0739   19.7197 C   0  0  2  0  0  0  0  0  0  0  0  0
  -25.3335  -19.7990   21.8871 C   0  0  0  0  0  0  0  0  0  0  0  0
  -28.9455  -24.8735   24.1395 C   0  0  0  0  0  0  0  0  0  0  0  0
  -27.2088  -23.1210   24.5647 C   0  0  0  0  0  0  0  0  0  0  0  0
  -26.8149  -24.8697   22.8299 C   0  0  0  0  0  0  0  0  0  0  0  0
  -28.0668  -19.1212   19.3287 C   0  0  0  0  0  0  0  0  0  0  0  0
  -36.1529  -18.9112   21.6609 C   0  0  0  0  0  0  0  0  0  1  0  0
  -28.4970  -23.0362   22.3820 C   0  0  1  0  0  0  0  0  0  0  0  0
  -26.4828  -20.1578   20.9581 C   0  0  2  0  0  0  0  0  0  0  0  0
  -27.8926  -23.9678   23.4701 C   0  0  0  0  0  0  0  0  0  0  0  0
  -25.8071  -11.5302   20.3313 N   0  0  0  0  0  0  0  0  0  0  0  0
  -26.2073  -12.8031   20.1711 N   0  0  0  0  0  0  0  0  0  0  0  0
  -34.0683  -17.4666   23.6232 N   0  0  0  0  0  0  0  0  0  0  0  0
  -30.5676  -23.5323   21.1207 N   0  0  0  0  0  0  0  0  0  0  0  0
  -29.9468  -13.5367   20.4199 N   0  0  0  0  0  0  0  0  0  0  0  0
  -29.6531  -19.2804   24.6729 N   0  0  0  0  0  0  0  0  0  0  0  0
  -25.4736  -15.0491   20.3382 N   0  0  0  0  0  0  0  0  0  0  0  0
  -21.8282  -12.6698   21.5409 N   0  0  0  0  0  0  0  0  0  0  0  0
  -30.0728  -15.6466   21.4662 N   0  0  0  0  0  0  0  0  0  0  0  0
  -32.7269  -26.3707   20.3611 N   0  0  0  0  0  0  0  0  0  0  0  0
  -27.5184  -22.1864   21.7122 N   0  0  0  0  0  0  0  0  0  0  0  0
  -26.9528  -18.9119   20.2889 N   0  3  0  0  0  0  0  0  0  0  0  0
  -34.0452  -18.1091   25.8894 O   0  0  0  0  0  0  0  0  0  0  0  0
  -22.6438  -14.7874   21.2104 O   0  0  0  0  0  0  0  0  0  0  0  0
  -31.8451  -25.4119   22.2913 O   0  0  0  0  0  0  0  0  0  0  0  0
  -28.5665  -24.6164   20.6143 O   0  0  0  0  0  0  0  0  0  0  0  0
  -28.5158  -20.1668   22.2634 O   0  0  0  0  0  0  0  0  0  0  0  0
  -31.8585  -14.8232   20.2353 O   0  0  0  0  0  0  0  0  0  0  0  0
  -21.4613   -7.1176   21.8117 O   0  0  0  0  0  0  0  0  0  0  0  0
  -35.3130  -19.8023   22.3938 O   0  0  0  0  0  0  0  0  0  1  0  0
  -23.7734   -3.1204   24.8252 F   0  0  0  0  0  0  0  0  0  0  0  0
  -23.7550   -5.8377   20.9494 F   0  0  0  0  0  0  0  0  0  0  0  0
  1  2  1  0  0  0  0
  1  5  2  0  0  0  0
  2  6  2  0  0  0  0
  3  8  2  0  0  0  0
  3 18  1  0  0  0  0
  4  9  1  0  0  0  0
  4 18  2  0  0  0  0
  5 20  1  0  0  0  0
  6 22  1  0  0  0  0
  7 10  2  0  0  0  0
  7 21  1  0  0  0  0
  8 27  1  0  0  0  0
  9 27  2  0  0  0  0
 10 28  1  0  0  0  0
 11 12  2  0  0  0  0
 11 29  1  0  0  0  0
 12 30  1  0  0  0  0
 13 23  1  0  0  0  0
 13 28  2  0  0  0  0
 14 24  1  0  0  0  0
 14 25  2  0  0  0  0
 15 24  2  0  0  0  0
 15 26  1  0  0  0  0
 16 25  1  0  0  0  0
 16 26  2  0  0  0  0
 17 30  2  0  0  0  0
 17 31  1  0  0  0  0
 18 32  1  0  0  0  0
 19 32  1  0  0  0  0
 19 33  2  0  0  0  0
 19 37  1  0  0  0  0
 20 22  2  0  0  0  0
 20 42  1  0  0  0  0
 21 23  2  0  0  0  0
 21 43  1  0  0  0  0
 22 52  1  0  0  0  0
 23 44  1  0  0  0  0
 24 67  1  0  0  0  0
 25 70  1  0  0  0  0
 26 73  1  0  0  0  0
 27 83  1  0  0  0  0
 28 84  1  0  0  0  0
 29 31  2  0  0  0  0
 29 83  1  0  0  0  0
 30 85  1  0  0  0  0
 31 86  1  0  0  0  0
 32 65  2  0  0  0  0
 33 66  1  0  0  0  0
 33 71  1  0  0  0  0
 34 35  2  0  0  0  0
 34 36  1  0  0  0  0
 35 53  1  0  0  0  0
 36 67  1  0  0  0  0
 36 77  2  0  0  0  0
 37 72  1  0  0  0  0
 37 78  2  0  0  0  0
 38 54  1  0  0  0  0
 38 74  1  0  0  0  0
 38 79  2  0  0  0  0
 39 62  1  0  0  0  0
 39 68  1  0  0  0  0
 39 80  2  0  0  0  0
 40 63  1  0  0  0  0
 40 75  1  0  0  0  0
 40 81  2  0  0  0  0
 41 69  1  0  0  0  0
 41 73  1  0  0  0  0
 41 82  2  0  0  0  0
 42 45  1  0  0  0  0
 43 54  1  0  0  0  0
 44 68  1  0  0  0  0
 45 47  1  0  0  0  0
 46 48  1  0  0  0  0
 46 49  1  0  0  0  0
 47 52  1  0  0  0  0
 48 55  1  0  0  0  0
 49 69  1  0  0  0  0
 50 53  1  0  0  0  0
 50 67  1  0  0  0  0
 51 55  1  0  0  0  0
 51 69  1  0  0  0  0
 52 74  1  0  0  0  0
 53 61  1  0  0  0  0
 54 68  1  0  0  0  0
 55 66  1  0  0  0  0
 56 63  1  0  0  0  0
 57 64  1  0  0  0  0
 58 64  1  0  0  0  0
 59 64  1  0  0  0  0
 60 76  1  0  0  0  0
 61 84  1  0  0  0  0
 62 64  1  0  0  0  0
 62 75  1  0  0  0  0
 63 76  1  0  0  0  0
 65 66  1  0  0  0  0
M  CHG  1  76   1
M  ISO  4  41 100  61 101  73 100  84 101
M  END
> <Batch ID>
0069

> <Smiles>
CNC(C)C(=O)NC(C(=O)N1Cc2cc([101O:1][101CH2:1]C3=CCC(=O)N(c4cc(N)cc([100NH:0][100C:0](=O)N5CCCC(n6nc(-c7ccc(Oc8ccc(F)cc8F)cc7)c(C(N)=O)c6N)C5)c4)C3)ccc2CC1C(=O)NC1CCCc2ccccc21)C(C)(C)C

> <Shape>
0.211

> <Color>
0.190

> <Negative vol penalty>
0.000

$$$$

  -OEChem-04042323303D

 84 92  0     1  0  0  0  0  0999 V2000
  -19.0375  -24.3640   23.2752 C   0  0  0  0  0  0  0  0  0  0  0  0
  -20.3531  -24.4757   22.8370 C   0  0  0  0  0  0  0  0  0  0  0  0
  -23.9396   -9.3300   21.7467 C   0  0  0  0  0  0  0  0  0  0  0  0
  -24.1256  -11.0322   23.4511 C   0  0  0  0  0  0  0  0  0  0  0  0
  -30.5716  -19.9528   19.4388 C   0  0  0  0  0  0  0  0  0  0  0  0
  -18.2159  -25.4901   23.3048 C   0  0  0  0  0  0  0  0  0  0  0  0
  -20.8476  -25.7133   22.4270 C   0  0  0  0  0  0  0  0  0  0  0  0
  -25.4570  -26.6775   24.2895 C   0  0  0  0  0  0  0  0  0  0  0  0
  -30.4114  -18.5698   19.3541 C   0  0  0  0  0  0  0  0  0  0  0  0
  -23.4235   -8.4417   22.6901 C   0  0  0  0  0  0  0  0  0  0  0  0
  -23.6094  -10.1439   24.3945 C   0  0  0  0  0  0  0  0  0  0  0  0
  -26.5375  -26.0493   23.6719 C   0  0  0  0  0  0  0  0  0  0  0  0
  -20.4604   -7.8730   24.2165 C   0  0  0  0  0  0  0  0  0  0  0  0
  -19.3435   -7.1199   23.8548 C   0  0  0  0  0  0  0  0  0  0  0  0
  -28.1813  -20.2420   19.2395 C   0  0  0  0  0  0  0  0  0  0  0  0
  -27.0111  -28.0761   22.4524 C   0  0  0  0  0  0  0  0  0  0  0  0
  -20.5993   -5.0867   24.2107 C   0  0  0  0  0  0  0  0  0  0  0  0
  -24.2907  -10.6253   22.1271 C   0  0  0  0  0  0  0  0  0  0  0  0
  -29.4566  -20.7889   19.3816 C   0  0  0  0  0  0  0  0  0  0  0  0
  -24.1005  -12.4363   20.3405 C   0  0  0  0  0  0  0  0  0  0  0  0
  -18.7034  -26.7440   22.9041 C   0  0  0  0  0  0  0  0  0  0  0  0
  -25.1382  -28.0086   23.9846 C   0  0  0  0  0  0  0  0  0  0  0  0
  -20.0314  -26.8570   22.4499 C   0  0  0  0  0  0  0  0  0  0  0  0
  -25.9275  -28.7197   23.0695 C   0  0  0  0  0  0  0  0  0  0  0  0
  -29.1361  -18.0229   19.2121 C   0  0  0  0  0  0  0  0  0  0  0  0
  -23.2584   -8.8487   24.0140 C   0  0  0  0  0  0  0  0  0  0  0  0
  -27.3130  -26.7476   22.7510 C   0  0  0  0  0  0  0  0  0  0  0  0
  -21.6468   -7.2330   24.5753 C   0  0  0  0  0  0  0  0  0  0  0  0
  -19.4129   -5.7267   23.8519 C   0  0  0  0  0  0  0  0  0  0  0  0
  -28.0210  -18.8590   19.1548 C   0  0  0  0  0  0  0  0  0  0  0  0
  -21.7162   -5.8399   24.5724 C   0  0  0  0  0  0  0  0  0  0  0  0
  -24.8244  -11.5432   21.1531 C   0  0  0  0  0  0  0  0  0  0  0  0
  -25.0600  -13.0779   19.5962 C   0  0  0  0  0  0  0  0  0  0  0  0
  -29.6254  -22.2539   19.4713 C   0  0  0  0  0  0  0  0  0  0  0  0
  -22.6871  -12.6653   20.2653 C   0  0  0  0  0  0  0  0  0  0  0  0
  -22.6219  -29.4783   22.7150 C   0  0  0  0  0  0  0  0  0  0  0  0
  -24.2924  -32.1536   23.4733 C   0  0  0  0  0  0  0  0  0  0  0  0
  -29.0588  -24.3208   20.7272 C   0  0  0  0  0  0  0  0  0  0  0  0
  -27.3184  -33.5952   24.1147 C   0  0  0  0  0  0  0  0  0  0  0  0
  -29.9799  -15.6496   19.1673 C   0  0  0  0  0  0  0  0  0  0  0  0
  -17.7636  -27.9236   22.9088 C   0  0  0  0  0  0  0  0  0  0  0  0
  -23.9856  -28.6802   24.6795 C   0  0  0  0  0  0  0  0  0  0  0  0
  -25.6395  -30.1568   22.7227 C   0  0  0  0  0  0  0  0  0  0  0  0
  -18.4760  -29.2703   22.8122 C   0  0  0  0  0  0  0  0  0  0  0  0
  -29.9920  -12.0920   19.0256 C   0  0  0  0  0  0  0  0  0  0  0  0
  -19.5357  -29.2362   21.7156 C   0  0  0  0  0  0  0  0  0  0  0  0
  -28.5891  -11.7055   19.4997 C   0  0  0  0  0  0  0  0  0  0  0  0
  -30.5314  -13.3056   19.7806 C   0  0  0  0  0  0  0  0  0  0  0  0
  -28.2457  -14.0926   20.2553 C   0  0  0  0  0  0  0  0  0  0  0  0
  -20.6117  -28.1870   22.0206 C   0  0  1  0  0  0  0  0  0  0  0  0
  -23.4403  -29.8791   23.9097 C   0  0  1  0  0  0  0  0  0  0  0  0
  -27.6340  -12.9151   19.4788 C   0  0  2  0  0  0  0  0  0  0  0  0
  -28.3700  -35.8063   24.6650 C   0  0  0  0  0  0  0  0  0  0  0  0
  -23.9702  -33.0272   20.5676 C   0  0  0  0  0  0  0  0  0  0  0  0
  -25.7950  -34.7001   20.9411 C   0  0  0  0  0  0  0  0  0  0  0  0
  -23.6749  -34.8575   22.2460 C   0  0  0  0  0  0  0  0  0  0  0  0
  -28.3559  -32.5902   26.6978 C   0  0  0  0  0  0  0  0  0  0  0  0
  -28.2746  -24.7267   21.9466 C   0  0  0  0  0  0  0  0  0  1  0  0
  -25.3182  -33.0088   22.7695 C   0  0  1  0  0  0  0  0  0  0  0  0
  -27.7770  -34.5229   25.2254 C   0  0  2  0  0  0  0  0  0  0  0  0
  -24.6941  -33.8707   21.6359 C   0  0  0  0  0  0  0  0  0  0  0  0
  -26.1420  -11.6087   20.9446 N   0  0  0  0  0  0  0  0  0  0  0  0
  -26.2537  -12.5505   19.9925 N   0  0  0  0  0  0  0  0  0  0  0  0
  -24.4982  -30.7676   23.4239 N   0  0  0  0  0  0  0  0  0  0  0  0
  -29.5758  -14.4133   19.7141 N   0  0  0  0  0  0  0  0  0  0  0  0
  -24.9906  -14.0361   18.6478 N   0  0  0  0  0  0  0  0  0  0  0  0
  -21.8441  -11.9199   21.1008 N   0  0  0  0  0  0  0  0  0  0  0  0
  -28.9768  -16.6175   19.1265 N   0  0  0  0  0  0  0  0  0  0  0  0
  -29.0217  -22.8989   20.4791 N   0  0  0  0  0  0  0  0  0  0  0  0
  -21.5332  -28.6838   23.0198 N   0  0  0  0  0  0  0  0  0  0  0  0
  -25.9869  -33.7831   23.8096 N   0  0  0  0  0  0  0  0  0  0  0  0
  -30.3729  -22.8500   18.5429 N   0  3  0  0  0  0  0  0  0  0  0  0
  -28.8114  -33.8545   26.0646 N   0  3  0  0  0  0  0  0  0  0  0  0
  -22.1854  -13.4945   19.4689 O   0  0  0  0  0  0  0  0  0  0  0  0
  -22.9528  -29.8627   21.5995 O   0  0  0  0  0  0  0  0  0  0  0  0
  -23.3473  -32.6957   24.0517 O   0  0  0  0  0  0  0  0  0  0  0  0
  -29.6752  -25.0865   20.0002 O   0  0  0  0  0  0  0  0  0  0  0  0
  -28.0674  -32.7875   23.5697 O   0  0  0  0  0  0  0  0  0  0  0  0
  -31.1234  -15.8274   18.7398 O   0  0  0  0  0  0  0  0  0  0  0  0
  -22.7546   -7.9822   24.9349 O   0  0  0  0  0  0  0  0  0  0  0  0
  -28.3678  -26.1366   22.1462 O   0  0  0  0  0  0  0  0  0  1  0  0
  -18.3398   -5.0036   23.5060 F   0  0  0  0  0  0  0  0  0  0  0  0
  -26.7907  -18.3443   19.0171 F   0  0  0  0  0  0  0  0  0  0  0  0
  -22.8528   -5.2194   24.9172 F   0  0  0  0  0  0  0  0  0  0  0  0
  1  2  1  0  0  0  0
  1  6  2  0  0  0  0
  2  7  2  0  0  0  0
  3 10  2  0  0  0  0
  3 18  1  0  0  0  0
  4 11  1  0  0  0  0
  4 18  2  0  0  0  0
  5  9  2  0  0  0  0
  5 19  1  0  0  0  0
  6 21  1  0  0  0  0
  7 23  1  0  0  0  0
  8 12  2  0  0  0  0
  8 22  1  0  0  0  0
  9 25  1  0  0  0  0
 10 26  1  0  0  0  0
 11 26  2  0  0  0  0
 12 27  1  0  0  0  0
 13 14  2  0  0  0  0
 13 28  1  0  0  0  0
 14 29  1  0  0  0  0
 15 19  2  0  0  0  0
 15 30  1  0  0  0  0
 16 24  1  0  0  0  0
 16 27  2  0  0  0  0
 17 29  2  0  0  0  0
 17 31  1  0  0  0  0
 18 32  1  0  0  0  0
 19 34  1  0  0  0  0
 20 32  1  0  0  0  0
 20 33  2  0  0  0  0
 20 35  1  0  0  0  0
 21 23  2  0  0  0  0
 21 41  1  0  0  0  0
 22 24  2  0  0  0  0
 22 42  1  0  0  0  0
 23 50  1  0  0  0  0
 24 43  1  0  0  0  0
 25 30  2  0  0  0  0
 25 68  1  0  0  0  0
 26 80  1  0  0  0  0
 27 81  1  0  0  0  0
 28 31  2  0  0  0  0
 28 80  1  0  0  0  0
 29 82  1  0  0  0  0
 30 83  1  0  0  0  0
 31 84  1  0  0  0  0
 32 62  2  0  0  0  0
 33 63  1  0  0  0  0
 33 66  1  0  0  0  0
 34 69  1  0  0  0  0
 34 72  2  0  0  0  0
 35 67  1  0  0  0  0
 35 74  2  0  0  0  0
 36 51  1  0  0  0  0
 36 70  1  0  0  0  0
 36 75  2  0  0  0  0
 37 59  1  0  0  0  0
 37 64  1  0  0  0  0
 37 76  2  0  0  0  0
 38 58  1  0  0  0  0
 38 69  1  0  0  0  0
 38 77  2  0  0  0  0
 39 60  1  0  0  0  0
 39 71  1  0  0  0  0
 39 78  2  0  0  0  0
 40 65  1  0  0  0  0
 40 68  1  0  0  0  0
 40 79  2  0  0  0  0
 41 44  1  0  0  0  0
 42 51  1  0  0  0  0
 43 64  1  0  0  0  0
 44 46  1  0  0  0  0
 45 47  1  0  0  0  0
 45 48  1  0  0  0  0
 46 50  1  0  0  0  0
 47 52  1  0  0  0  0
 48 65  1  0  0  0  0
 49 52  1  0  0  0  0
 49 65  1  0  0  0  0
 50 70  1  0  0  0  0
 51 64  1  0  0  0  0
 52 63  1  0  0  0  0
 53 60  1  0  0  0  0
 54 61  1  0  0  0  0
 55 61  1  0  0  0  0
 56 61  1  0  0  0  0
 57 73  1  0  0  0  0
 58 81  1  0  0  0  0
 59 61  1  0  0  0  0
 59 71  1  0  0  0  0
 60 73  1  0  0  0  0
 62 63  1  0  0  0  0
M  CHG  2  72   1  73   1
M  ISO  4  40 100  58 101  68 100  81 101
M  END
> <Batch ID>
0069

> <Smiles>
CNC(C)C(=O)NC(C(=O)N1Cc2cc([101O:1][101CH2:1]C(=O)NC(=N)c3ccc([100NH:0][100C:0](=O)N4CCCC(n5nc(-c6ccc(Oc7ccc(F)cc7F)cc6)c(C(N)=O)c5N)C4)c(F)c3)ccc2CC1C(=O)NC1CCCc2ccccc21)C(C)(C)C

> <Shape>
0.322

> <Color>
0.113

> <Negative vol penalty>
0.000

$$$$

  -OEChem-04042323303D

 88 97  0     1  0  0  0  0  0999 V2000
  -28.4530  -37.4845   22.8280 C   0  0  0  0  0  0  0  0  0  0  0  0
  -28.9635  -36.2853   22.3414 C   0  0  0  0  0  0  0  0  0  0  0  0
  -24.7804   -8.5977   21.5284 C   0  0  0  0  0  0  0  0  0  0  0  0
  -23.1274  -10.1143   20.6313 C   0  0  0  0  0  0  0  0  0  0  0  0
  -27.2871  -37.4852   23.5925 C   0  0  0  0  0  0  0  0  0  0  0  0
  -28.3089  -35.0860   22.6200 C   0  0  0  0  0  0  0  0  0  0  0  0
  -26.9676  -28.6604   19.7514 C   0  0  0  0  0  0  0  0  0  0  0  0
  -23.8291   -8.0810   22.4079 C   0  0  0  0  0  0  0  0  0  0  0  0
  -22.1761   -9.5975   21.5109 C   0  0  0  0  0  0  0  0  0  0  0  0
  -27.0710  -27.3033   20.0533 C   0  0  0  0  0  0  0  0  0  0  0  0
  -21.2446   -5.9044   22.2841 C   0  0  0  0  0  0  0  0  0  0  0  0
  -21.1730   -4.5181   22.4203 C   0  0  0  0  0  0  0  0  0  0  0  0
  -25.0209  -27.4345   21.3178 C   0  0  0  0  0  0  0  0  0  0  0  0
  -24.9710  -20.0321   18.9978 C   0  0  0  0  0  0  0  0  0  0  0  0
  -26.9303  -18.7233   19.5314 C   0  0  0  0  0  0  0  0  0  0  0  0
  -25.0609  -17.6930   18.3996 C   0  0  0  0  0  0  0  0  0  0  0  0
  -21.6688   -4.7239   24.7759 C   0  0  0  0  0  0  0  0  0  0  0  0
  -24.4296   -9.6144   20.6401 C   0  0  0  0  0  0  0  0  0  0  0  0
  -25.7023   -9.6961   18.4308 C   0  0  0  0  0  0  0  0  0  0  0  0
  -26.6125  -36.2864   23.8726 C   0  0  0  0  0  0  0  0  0  0  0  0
  -25.8940  -29.4186   20.2402 C   0  0  0  0  0  0  0  0  0  0  0  0
  -27.1336  -35.0706   23.3902 C   0  0  0  0  0  0  0  0  0  0  0  0
  -24.9048  -28.8005   21.0185 C   0  0  0  0  0  0  0  0  0  0  0  0
  -26.2472  -19.9392   19.5529 C   0  0  0  0  0  0  0  0  0  0  0  0
  -24.3777  -18.9090   18.4212 C   0  0  0  0  0  0  0  0  0  0  0  0
  -26.3372  -17.6002   18.9547 C   0  0  0  0  0  0  0  0  0  0  0  0
  -22.5269   -8.5809   22.3992 C   0  0  0  0  0  0  0  0  0  0  0  0
  -26.0992  -26.6907   20.8391 C   0  0  0  0  0  0  0  0  0  0  0  0
  -21.5284   -6.7005   23.3938 C   0  0  0  0  0  0  0  0  0  0  0  0
  -21.3851   -3.9278   23.6661 C   0  0  0  0  0  0  0  0  0  0  0  0
  -21.7405   -6.1102   24.6397 C   0  0  0  0  0  0  0  0  0  0  0  0
  -25.4120  -10.1490   19.7317 C   0  0  0  0  0  0  0  0  0  0  0  0
  -26.7028  -10.5288   17.9926 C   0  0  0  0  0  0  0  0  0  0  0  0
  -26.2949  -22.3795   20.2398 C   0  0  0  0  0  0  0  0  0  0  0  0
  -25.1195   -8.6191   17.6850 C   0  0  0  0  0  0  0  0  0  0  0  0
  -25.6160  -31.9318   22.1664 C   0  0  0  0  0  0  0  0  0  0  0  0
  -22.4936  -31.7557   21.3048 C   0  0  0  0  0  0  0  0  0  0  0  0
  -22.2689  -20.1265   17.7929 C   0  0  0  0  0  0  0  0  0  0  0  0
  -19.9120  -29.8503   20.1423 C   0  0  0  0  0  0  0  0  0  0  0  0
  -28.3028  -16.1011   19.4399 C   0  0  0  0  0  0  0  0  0  0  0  0
  -25.3818  -36.3322   24.7431 C   0  0  0  0  0  0  0  0  0  0  0  0
  -25.7827  -30.8755   19.8833 C   0  0  0  0  0  0  0  0  0  0  0  0
  -23.7217  -29.5655   21.5510 C   0  0  0  0  0  0  0  0  0  0  0  0
  -24.5423  -35.0589   24.6784 C   0  0  0  0  0  0  0  0  0  0  0  0
  -30.3412  -13.1871   19.6142 C   0  0  0  0  0  0  0  0  0  0  0  0
  -25.4317  -33.8261   24.8045 C   0  0  0  0  0  0  0  0  0  0  0  0
  -29.3354  -12.0360   19.5396 C   0  0  0  0  0  0  0  0  0  0  0  0
  -28.5810  -22.4810   20.8938 C   0  0  0  0  0  0  0  0  0  0  0  0
  -29.7936  -14.3679   20.4139 C   0  0  0  0  0  0  0  0  0  0  0  0
  -28.1551  -21.0307   20.7823 C   0  0  0  0  0  0  0  0  0  0  0  0
  -27.4760  -13.7093   19.8997 C   0  0  0  0  0  0  0  0  0  0  0  0
  -26.4385  -33.7518   23.6503 C   0  0  1  0  0  0  0  0  0  0  0  0
  -27.2604  -23.2183   21.0615 C   0  0  1  0  0  0  0  0  0  0  0  0
  -24.9196  -31.6661   20.8617 C   0  0  1  0  0  0  0  0  0  0  0  0
  -27.9576  -12.5226   19.0492 C   0  0  2  0  0  0  0  0  0  0  0  0
  -20.9611  -19.8111   17.1113 C   0  0  0  0  0  0  0  0  0  0  0  0
  -17.4701  -29.9752   19.5775 C   0  0  0  0  0  0  0  0  0  0  0  0
  -21.8060  -31.7030   24.2771 C   0  0  0  0  0  0  0  0  0  0  0  0
  -19.5213  -30.8837   23.6627 C   0  0  0  0  0  0  0  0  0  0  0  0
  -20.2931  -33.1235   22.8813 C   0  0  0  0  0  0  0  0  0  0  0  0
  -20.4116  -29.1430   17.3123 C   0  0  0  0  0  0  0  0  0  0  0  0
  -27.3237  -24.6650   20.6091 C   0  0  0  0  0  0  0  0  0  1  0  0
  -21.2760  -31.0405   21.8386 C   0  0  1  0  0  0  0  0  0  0  0  0
  -18.8902  -30.0986   19.0475 C   0  0  2  0  0  0  0  0  0  0  0  0
  -20.7473  -31.6734   23.1566 C   0  0  0  0  0  0  0  0  0  0  0  0
  -26.1672  -11.1886   20.0963 N   0  0  0  0  0  0  0  0  0  0  0  0
  -26.9420  -11.3958   19.0179 N   0  0  0  0  0  0  0  0  0  0  0  0
  -26.8541  -21.0886   20.1423 N   0  0  0  0  0  0  0  0  0  0  0  0
  -23.6608  -30.9889   21.1798 N   0  0  0  0  0  0  0  0  0  0  0  0
  -28.4885  -14.7768   19.8900 N   0  0  0  0  0  0  0  0  0  0  0  0
  -27.3926  -10.5966   16.8342 N   0  0  0  0  0  0  0  0  0  0  0  0
  -24.1025   -7.8644   18.2852 N   0  0  0  0  0  0  0  0  0  0  0  0
  -23.1014  -19.0017   17.8652 N   0  0  0  0  0  0  0  0  0  0  0  0
  -27.0308  -16.3648   18.9330 N   0  0  0  0  0  0  0  0  0  0  0  0
  -25.7930  -33.2733   22.4466 N   0  0  0  0  0  0  0  0  0  0  0  0
  -20.3032  -31.0238   20.7515 N   0  0  0  0  0  0  0  0  0  0  0  0
  -19.0663  -29.1150   17.9418 N   0  3  0  0  0  0  0  0  0  0  0  0
  -25.2228  -22.8011   19.8306 O   0  0  0  0  0  0  0  0  0  0  0  0
  -25.5011   -8.3240   16.5271 O   0  0  0  0  0  0  0  0  0  0  0  0
  -25.9654  -30.9895   22.8676 O   0  0  0  0  0  0  0  0  0  0  0  0
  -22.4103  -32.9488   21.0030 O   0  0  0  0  0  0  0  0  0  0  0  0
  -22.5055  -21.2572   18.2056 O   0  0  0  0  0  0  0  0  0  0  0  0
  -20.3194  -28.7273   20.4310 O   0  0  0  0  0  0  0  0  0  0  0  0
  -29.2140  -16.9321   19.4746 O   0  0  0  0  0  0  0  0  0  0  0  0
  -21.5983   -8.0768   23.2571 O   0  0  0  0  0  0  0  0  0  0  0  0
  -26.1980  -25.3664   21.1358 O   0  0  0  0  0  0  0  0  0  1  0  0
  -21.3148   -2.5966   23.7971 F   0  0  0  0  0  0  0  0  0  0  0  0
  -22.0123   -6.8699   25.7096 F   0  0  0  0  0  0  0  0  0  0  0  0
  1  2  1  0  0  0  0
  1  5  2  0  0  0  0
  2  6  2  0  0  0  0
  3  8  2  0  0  0  0
  3 18  1  0  0  0  0
  4  9  1  0  0  0  0
  4 18  2  0  0  0  0
  5 20  1  0  0  0  0
  6 22  1  0  0  0  0
  7 10  2  0  0  0  0
  7 21  1  0  0  0  0
  8 27  1  0  0  0  0
  9 27  2  0  0  0  0
 10 28  1  0  0  0  0
 11 12  2  0  0  0  0
 11 29  1  0  0  0  0
 12 30  1  0  0  0  0
 13 23  1  0  0  0  0
 13 28  2  0  0  0  0
 14 24  1  0  0  0  0
 14 25  2  0  0  0  0
 15 24  2  0  0  0  0
 15 26  1  0  0  0  0
 16 25  1  0  0  0  0
 16 26  2  0  0  0  0
 17 30  2  0  0  0  0
 17 31  1  0  0  0  0
 18 32  1  0  0  0  0
 19 32  1  0  0  0  0
 19 33  2  0  0  0  0
 19 35  1  0  0  0  0
 20 22  2  0  0  0  0
 20 41  1  0  0  0  0
 21 23  2  0  0  0  0
 21 42  1  0  0  0  0
 22 52  1  0  0  0  0
 23 43  1  0  0  0  0
 24 68  1  0  0  0  0
 25 73  1  0  0  0  0
 26 74  1  0  0  0  0
 27 85  1  0  0  0  0
 28 86  1  0  0  0  0
 29 31  2  0  0  0  0
 29 85  1  0  0  0  0
 30 87  1  0  0  0  0
 31 88  1  0  0  0  0
 32 66  2  0  0  0  0
 33 67  1  0  0  0  0
 33 71  1  0  0  0  0
 34 53  1  0  0  0  0
 34 68  1  0  0  0  0
 34 78  2  0  0  0  0
 35 72  1  0  0  0  0
 35 79  2  0  0  0  0
 36 54  1  0  0  0  0
 36 75  1  0  0  0  0
 36 80  2  0  0  0  0
 37 63  1  0  0  0  0
 37 69  1  0  0  0  0
 37 81  2  0  0  0  0
 38 56  1  0  0  0  0
 38 73  1  0  0  0  0
 38 82  2  0  0  0  0
 39 64  1  0  0  0  0
 39 76  1  0  0  0  0
 39 83  2  0  0  0  0
 40 70  1  0  0  0  0
 40 74  1  0  0  0  0
 40 84  2  0  0  0  0
 41 44  1  0  0  0  0
 42 54  1  0  0  0  0
 43 69  1  0  0  0  0
 44 46  1  0  0  0  0
 45 47  1  0  0  0  0
 45 49  1  0  0  0  0
 46 52  1  0  0  0  0
 47 55  1  0  0  0  0
 48 50  1  0  0  0  0
 48 53  1  0  0  0  0
 49 70  1  0  0  0  0
 50 68  1  0  0  0  0
 51 55  1  0  0  0  0
 51 70  1  0  0  0  0
 52 75  1  0  0  0  0
 53 62  1  0  0  0  0
 54 69  1  0  0  0  0
 55 67  1  0  0  0  0
 57 64  1  0  0  0  0
 58 65  1  0  0  0  0
 59 65  1  0  0  0  0
 60 65  1  0  0  0  0
 61 77  1  0  0  0  0
 62 86  1  0  0  0  0
 63 65  1  0  0  0  0
 63 76  1  0  0  0  0
 64 77  1  0  0  0  0
 66 67  1  0  0  0  0
M  CHG  1  77   1
M  ISO  4  40 100  62 101  74 100  86 101
M  END
> <Batch ID>
0069

> <Smiles>
CNC(C)C(=O)NC(C(=O)N1Cc2cc([101O:1][101CH2:1]C3CCN(c4cc(NC(C)=O)cc([100NH:0][100C:0](=O)N5CCCC(n6nc(-c7ccc(Oc8ccc(F)cc8F)cc7)c(C(N)=O)c6N)C5)c4)C3=O)ccc2CC1C(=O)NC1CCCc2ccccc21)C(C)(C)C

> <Shape>
0.273

> <Color>
0.092

> <Negative vol penalty>
0.000

$$$$

  -OEChem-04042323303D

 88 97  0     1  0  0  0  0  0999 V2000
  -28.9210  -35.3658   15.7758 C   0  0  0  0  0  0  0  0  0  0  0  0
  -28.6355  -34.0045   15.7452 C   0  0  0  0  0  0  0  0  0  0  0  0
  -24.8565   -8.6284   21.5441 C   0  0  0  0  0  0  0  0  0  0  0  0
  -23.2345  -10.0355   20.4368 C   0  0  0  0  0  0  0  0  0  0  0  0
  -29.1658  -35.9984   16.9939 C   0  0  0  0  0  0  0  0  0  0  0  0
  -28.5958  -33.2748   16.9328 C   0  0  0  0  0  0  0  0  0  0  0  0
  -24.8991  -28.5709   18.2416 C   0  0  0  0  0  0  0  0  0  0  0  0
  -24.4615  -18.7075   17.6862 C   0  0  0  0  0  0  0  0  0  0  0  0
  -25.0101  -19.8728   18.2217 C   0  0  0  0  0  0  0  0  0  0  0  0
  -23.8611   -8.1527   22.3976 C   0  0  0  0  0  0  0  0  0  0  0  0
  -22.2391   -9.5598   21.2903 C   0  0  0  0  0  0  0  0  0  0  0  0
  -25.0895  -27.1902   18.2062 C   0  0  0  0  0  0  0  0  0  0  0  0
  -21.3341   -5.9097   22.2713 C   0  0  0  0  0  0  0  0  0  0  0  0
  -21.2818   -4.5353   22.5036 C   0  0  0  0  0  0  0  0  0  0  0  0
  -25.6028  -27.2067   20.5632 C   0  0  0  0  0  0  0  0  0  0  0  0
  -26.9432  -18.6243   18.9578 C   0  0  0  0  0  0  0  0  0  0  0  0
  -21.6209   -4.9215   24.8644 C   0  0  0  0  0  0  0  0  0  0  0  0
  -24.5432   -9.5699   20.5637 C   0  0  0  0  0  0  0  0  0  0  0  0
  -25.9534   -9.5245   18.4384 C   0  0  0  0  0  0  0  0  0  0  0  0
  -29.1196  -35.2780   18.1979 C   0  0  0  0  0  0  0  0  0  0  0  0
  -25.0700  -29.2826   19.4377 C   0  0  0  0  0  0  0  0  0  0  0  0
  -28.8416  -33.8981   18.1681 C   0  0  0  0  0  0  0  0  0  0  0  0
  -25.4115  -28.5960   20.6117 C   0  0  0  0  0  0  0  0  0  0  0  0
  -25.1536  -17.5006   17.7866 C   0  0  0  0  0  0  0  0  0  0  0  0
  -26.2510  -19.8312   18.8575 C   0  0  0  0  0  0  0  0  0  0  0  0
  -26.3944  -17.4591   18.4224 C   0  0  0  0  0  0  0  0  0  0  0  0
  -22.5524   -8.6184   22.2708 C   0  0  0  0  0  0  0  0  0  0  0  0
  -25.4443  -26.5083   19.3665 C   0  0  0  0  0  0  0  0  0  0  0  0
  -21.5299   -6.7900   23.3355 C   0  0  0  0  0  0  0  0  0  0  0  0
  -21.4252   -4.0412   23.8002 C   0  0  0  0  0  0  0  0  0  0  0  0
  -21.6733   -6.2959   24.6320 C   0  0  0  0  0  0  0  0  0  0  0  0
  -25.5711  -10.0621   19.6820 C   0  0  0  0  0  0  0  0  0  0  0  0
  -26.9632  -10.3482   18.0042 C   0  0  0  0  0  0  0  0  0  0  0  0
  -28.0490  -21.1414   20.0732 C   0  0  0  0  0  0  0  0  0  0  0  0
  -25.4416   -8.3828   17.7383 C   0  0  0  0  0  0  0  0  0  0  0  0
  -27.0194  -31.5965   20.4120 C   0  0  0  0  0  0  0  0  0  0  0  0
  -25.1517  -31.5203   23.0631 C   0  0  0  0  0  0  0  0  0  0  0  0
  -23.0202  -29.7500   25.0555 C   0  0  0  0  0  0  0  0  0  0  0  0
  -28.3545  -16.0476   19.1380 C   0  0  0  0  0  0  0  0  0  0  0  0
  -29.4378  -35.9955   19.4858 C   0  0  0  0  0  0  0  0  0  0  0  0
  -24.8348  -30.7679   19.4649 C   0  0  0  0  0  0  0  0  0  0  0  0
  -25.5874  -29.3108   21.9257 C   0  0  0  0  0  0  0  0  0  0  0  0
  -29.0075  -35.2278   20.7331 C   0  0  0  0  0  0  0  0  0  0  0  0
  -30.4356  -13.2047   19.6522 C   0  0  0  0  0  0  0  0  0  0  0  0
  -29.4329  -33.7663   20.6336 C   0  0  0  0  0  0  0  0  0  0  0  0
  -29.4600  -12.0268   19.5990 C   0  0  0  0  0  0  0  0  0  0  0  0
  -29.8141  -14.4259   20.3276 C   0  0  0  0  0  0  0  0  0  0  0  0
  -27.5481  -13.6752   19.7186 C   0  0  0  0  0  0  0  0  0  0  0  0
  -26.1064  -22.2942   19.3683 C   0  0  0  0  0  0  0  0  0  0  0  0
  -28.7651  -33.0775   19.4373 C   0  0  1  0  0  0  0  0  0  0  0  0
  -25.5382  -31.4631   20.6266 C   0  0  1  0  0  0  0  0  0  0  0  0
  -28.1071  -12.4428   18.9889 C   0  0  2  0  0  0  0  0  0  0  0  0
  -28.1473  -22.5740   20.6115 C   0  0  0  0  0  0  0  0  0  0  0  0
  -27.1896  -23.3472   19.6511 C   0  0  1  0  0  0  0  0  0  0  0  0
  -24.5417  -16.2682   17.2039 C   0  0  0  0  0  0  0  0  0  0  0  0
  -29.5989  -23.0653   20.5960 C   0  0  0  0  0  0  0  0  0  0  0  0
  -27.6593  -22.5333   22.0738 C   0  0  0  0  0  0  0  0  0  0  0  0
  -27.8685  -23.7414   18.3186 C   0  0  0  0  0  0  0  0  0  0  0  0
  -21.6864  -29.9411   27.1726 C   0  0  0  0  0  0  0  0  0  0  0  0
  -27.7046  -31.1802   24.6993 C   0  0  0  0  0  0  0  0  0  0  0  0
  -26.2883  -30.4358   26.6250 C   0  0  0  0  0  0  0  0  0  0  0  0
  -26.0234  -32.7376   25.7007 C   0  0  0  0  0  0  0  0  0  0  0  0
  -20.4666  -29.3208   23.6225 C   0  0  0  0  0  0  0  0  0  0  0  0
  -26.5715  -24.6136   20.2583 C   0  0  0  0  0  0  0  0  0  1  0  0
  -25.1784  -30.7620   24.3682 C   0  0  1  0  0  0  0  0  0  0  0  0
  -21.6753  -30.1091   25.6611 C   0  0  2  0  0  0  0  0  0  0  0  0
  -26.2973  -31.2654   25.3233 C   0  0  0  0  0  0  0  0  0  0  0  0
  -26.2802  -11.1435   20.0163 N   0  0  0  0  0  0  0  0  0  0  0  0
  -27.1184  -11.2920   18.9764 N   0  0  0  0  0  0  0  0  0  0  0  0
  -26.8122  -21.0245   19.4055 N   0  0  0  0  0  0  0  0  0  0  0  0
  -25.3525  -30.7640   21.8997 N   0  0  0  0  0  0  0  0  0  0  0  0
  -28.5375  -14.7639   19.6944 N   0  0  0  0  0  0  0  0  0  0  0  0
  -27.7245  -10.3498   16.8894 N   0  0  0  0  0  0  0  0  0  0  0  0
  -24.4034   -7.6481   18.3271 N   0  0  0  0  0  0  0  0  0  0  0  0
  -27.1127  -16.2428   18.5345 N   0  0  0  0  0  0  0  0  0  0  0  0
  -27.3898  -32.7493   19.7462 N   0  0  0  0  0  0  0  0  0  0  0  0
  -23.8323  -30.8564   24.9228 N   0  0  0  0  0  0  0  0  0  0  0  0
  -20.6049  -29.2376   25.0993 N   0  3  0  0  0  0  0  0  0  0  0  0
  -28.9011  -20.2892   20.2842 O   0  0  0  0  0  0  0  0  0  0  0  0
  -25.9027   -8.0151   16.6312 O   0  0  0  0  0  0  0  0  0  0  0  0
  -27.7707  -30.7193   20.8216 O   0  0  0  0  0  0  0  0  0  0  0  0
  -24.9527  -32.7376   23.0749 O   0  0  0  0  0  0  0  0  0  0  0  0
  -23.3217  -28.6022   24.7359 O   0  0  0  0  0  0  0  0  0  0  0  0
  -29.2447  -16.9012   19.1690 O   0  0  0  0  0  0  0  0  0  0  0  0
  -21.5809   -8.1542   23.1033 O   0  0  0  0  0  0  0  0  0  0  0  0
  -25.6314  -25.1608   19.3347 O   0  0  0  0  0  0  0  0  0  1  0  0
  -21.3733   -2.7215   24.0233 F   0  0  0  0  0  0  0  0  0  0  0  0
  -21.8604   -7.1367   25.6586 F   0  0  0  0  0  0  0  0  0  0  0  0
  1  2  1  0  0  0  0
  1  5  2  0  0  0  0
  2  6  2  0  0  0  0
  3 10  2  0  0  0  0
  3 18  1  0  0  0  0
  4 11  1  0  0  0  0
  4 18  2  0  0  0  0
  5 20  1  0  0  0  0
  6 22  1  0  0  0  0
  7 12  2  0  0  0  0
  7 21  1  0  0  0  0
  8  9  2  0  0  0  0
  8 24  1  0  0  0  0
  9 25  1  0  0  0  0
 10 27  1  0  0  0  0
 11 27  2  0  0  0  0
 12 28  1  0  0  0  0
 13 14  2  0  0  0  0
 13 29  1  0  0  0  0
 14 30  1  0  0  0  0
 15 23  1  0  0  0  0
 15 28  2  0  0  0  0
 16 25  2  0  0  0  0
 16 26  1  0  0  0  0
 17 30  2  0  0  0  0
 17 31  1  0  0  0  0
 18 32  1  0  0  0  0
 19 32  1  0  0  0  0
 19 33  2  0  0  0  0
 19 35  1  0  0  0  0
 20 22  2  0  0  0  0
 20 40  1  0  0  0  0
 21 23  2  0  0  0  0
 21 41  1  0  0  0  0
 22 50  1  0  0  0  0
 23 42  1  0  0  0  0
 24 26  2  0  0  0  0
 24 55  1  0  0  0  0
 25 70  1  0  0  0  0
 26 75  1  0  0  0  0
 27 85  1  0  0  0  0
 28 86  1  0  0  0  0
 29 31  2  0  0  0  0
 29 85  1  0  0  0  0
 30 87  1  0  0  0  0
 31 88  1  0  0  0  0
 32 68  2  0  0  0  0
 33 69  1  0  0  0  0
 33 73  1  0  0  0  0
 34 53  1  0  0  0  0
 34 70  1  0  0  0  0
 34 79  2  0  0  0  0
 35 74  1  0  0  0  0
 35 80  2  0  0  0  0
 36 51  1  0  0  0  0
 36 76  1  0  0  0  0
 36 81  2  0  0  0  0
 37 65  1  0  0  0  0
 37 71  1  0  0  0  0
 37 82  2  0  0  0  0
 38 66  1  0  0  0  0
 38 77  1  0  0  0  0
 38 83  2  0  0  0  0
 39 72  1  0  0  0  0
 39 75  1  0  0  0  0
 39 84  2  0  0  0  0
 40 43  1  0  0  0  0
 41 51  1  0  0  0  0
 42 71  1  0  0  0  0
 43 45  1  0  0  0  0
 44 46  1  0  0  0  0
 44 47  1  0  0  0  0
 45 50  1  0  0  0  0
 46 52  1  0  0  0  0
 47 72  1  0  0  0  0
 48 52  1  0  0  0  0
 48 72  1  0  0  0  0
 49 54  1  0  0  0  0
 49 70  1  0  0  0  0
 50 76  1  0  0  0  0
 51 71  1  0  0  0  0
 52 69  1  0  0  0  0
 53 54  1  0  0  0  0
 53 56  1  0  0  0  0
 53 57  1  0  0  0  0
 54 58  1  0  0  0  0
 54 64  1  0  0  0  0
 59 66  1  0  0  0  0
 60 67  1  0  0  0  0
 61 67  1  0  0  0  0
 62 67  1  0  0  0  0
 63 78  1  0  0  0  0
 64 86  1  0  0  0  0
 65 67  1  0  0  0  0
 65 77  1  0  0  0  0
 66 78  1  0  0  0  0
 68 69  1  0  0  0  0
M  CHG  1  78   1
M  ISO  4  39 100  64 101  75 100  86 101
M  END
> <Batch ID>
0069

> <Smiles>
CNC(C)C(=O)NC(C(=O)N1Cc2cc([101O:1][101CH2:1]C3(C)CN(c4ccc(C)c([100NH:0][100C:0](=O)N5CCCC(n6nc(-c7ccc(Oc8ccc(F)cc8F)cc7)c(C(N)=O)c6N)C5)c4)C(=O)C3(C)C)ccc2CC1C(=O)NC1CCCc2ccccc21)C(C)(C)C

> <Shape>
0.268

> <Color>
0.112

> <Negative vol penalty>
0.000

$$$$

  -OEChem-04042323303D

 84 92  0     1  0  0  0  0  0999 V2000
  -23.9383   -8.0469   22.0156 C   0  0  0  0  0  0  0  0  0  0  0  0
  -24.6214   -9.0760   21.3755 C   0  0  0  0  0  0  0  0  0  0  0  0
  -21.9880  -28.3362   21.3524 C   0  0  0  0  0  0  0  0  0  0  0  0
  -22.9613  -27.3711   23.3420 C   0  0  0  0  0  0  0  0  0  0  0  0
  -22.5809   -8.1854   22.3022 C   0  0  0  0  0  0  0  0  0  0  0  0
  -23.9471  -10.2439   21.0206 C   0  0  0  0  0  0  0  0  0  0  0  0
  -26.5653  -14.4239   22.1682 C   0  0  0  0  0  0  0  0  0  0  0  0
  -20.7186  -28.2264   21.9201 C   0  0  0  0  0  0  0  0  0  0  0  0
  -21.6919  -27.2613   23.9097 C   0  0  0  0  0  0  0  0  0  0  0  0
  -27.6094  -14.7758   21.3140 C   0  0  0  0  0  0  0  0  0  0  0  0
  -18.8514  -29.8991   24.1891 C   0  0  0  0  0  0  0  0  0  0  0  0
  -17.9958  -30.9954   24.0808 C   0  0  0  0  0  0  0  0  0  0  0  0
  -26.1835  -16.4067   20.2527 C   0  0  0  0  0  0  0  0  0  0  0  0
  -29.5494  -21.0029   20.9280 C   0  0  0  0  0  0  0  0  0  0  0  0
  -29.3072  -22.2975   22.9533 C   0  0  0  0  0  0  0  0  0  0  0  0
  -16.4011  -29.6323   22.8825 C   0  0  0  0  0  0  0  0  0  0  0  0
  -23.1093  -27.9085   22.0633 C   0  0  0  0  0  0  0  0  0  0  0  0
  -25.3045  -29.1127   21.5746 C   0  0  0  0  0  0  0  0  0  0  0  0
  -21.8918   -9.3594   21.9593 C   0  0  0  0  0  0  0  0  0  0  0  0
  -25.3170  -15.0542   22.0637 C   0  0  0  0  0  0  0  0  0  0  0  0
  -22.5788  -10.3977   21.3017 C   0  0  0  0  0  0  0  0  0  0  0  0
  -25.1260  -16.0628   21.1085 C   0  0  0  0  0  0  0  0  0  0  0  0
  -30.0295  -19.9950   23.0706 C   0  0  0  0  0  0  0  0  0  0  0  0
  -29.2279  -22.2019   21.5640 C   0  0  0  0  0  0  0  0  0  0  0  0
  -29.9501  -19.8994   21.6813 C   0  0  0  0  0  0  0  0  0  0  0  0
  -20.5706  -27.6889   23.1987 C   0  0  0  0  0  0  0  0  0  0  0  0
  -27.4178  -15.7653   20.3542 C   0  0  0  0  0  0  0  0  0  0  0  0
  -18.4819  -28.6694   23.6441 C   0  0  0  0  0  0  0  0  0  0  0  0
  -16.7706  -30.8620   23.4275 C   0  0  0  0  0  0  0  0  0  0  0  0
  -29.7080  -21.1941   23.7066 C   0  0  0  0  0  0  0  0  0  0  0  0
  -17.2567  -28.5360   22.9908 C   0  0  0  0  0  0  0  0  0  0  0  0
  -24.4208  -28.0212   21.4772 C   0  0  0  0  0  0  0  0  0  0  0  0
  -26.4062  -28.7281   20.8501 C   0  0  0  0  0  0  0  0  0  0  0  0
  -25.1439  -30.3624   22.2588 C   0  0  0  0  0  0  0  0  0  0  0  0
  -22.3634  -14.0850   21.3999 C   0  0  0  0  0  0  0  0  0  0  0  0
  -21.6082  -17.1510   22.1427 C   0  0  0  0  0  0  0  0  0  0  0  0
  -30.2419  -18.4410   19.6485 C   0  0  0  0  0  0  0  0  0  0  0  0
  -22.6181  -20.3998   22.4118 C   0  0  0  0  0  0  0  0  0  0  0  0
  -28.6891  -23.3965   19.4125 C   0  0  0  0  0  0  0  0  0  0  0  0
  -20.4138   -9.4440   22.2472 C   0  0  0  0  0  0  0  0  0  0  0  0
  -24.2090  -14.6819   23.0104 C   0  0  0  0  0  0  0  0  0  0  0  0
  -23.8111  -16.7840   20.9689 C   0  0  0  0  0  0  0  0  0  0  0  0
  -19.8593  -10.8644   22.1741 C   0  0  0  0  0  0  0  0  0  0  0  0
  -27.6791  -25.9589   17.1561 C   0  0  0  0  0  0  0  0  0  0  0  0
  -20.3593  -11.5686   20.9168 C   0  0  0  0  0  0  0  0  0  0  0  0
  -26.8143  -26.8811   18.0185 C   0  0  0  0  0  0  0  0  0  0  0  0
  -27.4898  -24.4900   17.5308 C   0  0  0  0  0  0  0  0  0  0  0  0
  -26.8104  -25.1059   19.8173 C   0  0  0  0  0  0  0  0  0  0  0  0
  -21.8880  -11.6897   20.9231 C   0  0  1  0  0  0  0  0  0  0  0  0
  -22.8234  -15.0291   22.4745 C   0  0  1  0  0  0  0  0  0  0  0  0
  -27.0156  -26.6004   19.5206 C   0  0  2  0  0  0  0  0  0  0  0  0
  -30.4575  -18.8275   23.8996 C   0  0  0  0  0  0  0  0  0  0  0  0
  -21.7670  -22.6844   23.0064 C   0  0  0  0  0  0  0  0  0  0  0  0
  -20.1994  -17.3265   19.4419 C   0  0  0  0  0  0  0  0  0  0  0  0
  -20.2117  -19.8191   19.6758 C   0  0  0  0  0  0  0  0  0  0  0  0
  -18.9758  -18.4190   21.3296 C   0  0  0  0  0  0  0  0  0  0  0  0
  -24.5243  -20.6513   24.6617 C   0  0  0  0  0  0  0  0  0  0  0  0
  -30.6638  -17.0049   19.3595 C   0  0  0  0  0  0  0  0  0  0  0  0
  -29.7635  -15.9729   20.0216 C   0  0  0  0  0  0  0  0  0  1  0  0
  -21.5037  -18.4436   21.3698 C   0  0  1  0  0  0  0  0  0  0  0  0
  -22.4402  -21.4214   23.5205 C   0  0  2  0  0  0  0  0  0  0  0  0
  -20.2470  -18.4873   20.4554 C   0  0  0  0  0  0  0  0  0  0  0  0
  -24.9180  -27.0185   20.7482 N   0  0  0  0  0  0  0  0  0  0  0  0
  -26.1262  -27.4785   20.3808 N   0  0  0  0  0  0  0  0  0  0  0  0
  -22.7566  -16.3800   21.9134 N   0  0  0  0  0  0  0  0  0  0  0  0
  -27.7003  -24.2992   18.9675 N   0  0  0  0  0  0  0  0  0  0  0  0
  -27.5774  -29.3404   20.5750 N   0  0  0  0  0  0  0  0  0  0  0  0
  -23.9497  -30.5944   22.9547 N   0  0  0  0  0  0  0  0  0  0  0  0
  -30.2719  -18.6915   21.0178 N   0  0  0  0  0  0  0  0  0  0  0  0
  -28.8207  -23.3228   20.7988 N   0  0  0  0  0  0  0  0  0  0  0  0
  -22.3062  -12.7633   21.7989 N   0  0  0  0  0  0  0  0  0  0  0  0
  -21.5614  -19.5157   22.3577 N   0  0  0  0  0  0  0  0  0  0  0  0
  -23.7625  -21.7951   24.0975 N   0  3  0  0  0  0  0  0  0  0  0  0
  -26.0264  -31.2536   22.2396 O   0  0  0  0  0  0  0  0  0  0  0  0
  -22.0797  -14.5235   20.2913 O   0  0  0  0  0  0  0  0  0  0  0  0
  -20.7077  -16.8405   22.9265 O   0  0  0  0  0  0  0  0  0  0  0  0
  -29.9295  -19.2219   18.7558 O   0  0  0  0  0  0  0  0  0  0  0  0
  -23.5948  -20.3896   21.6658 O   0  0  0  0  0  0  0  0  0  0  0  0
  -29.3878  -22.7576   18.6215 O   0  0  0  0  0  0  0  0  0  0  0  0
  -19.3321  -27.5818   23.7531 O   0  0  0  0  0  0  0  0  0  0  0  0
  -28.4351  -16.1102   19.5187 O   0  0  0  0  0  0  0  0  0  1  0  0
  -15.9484  -31.9144   23.3250 F   0  0  0  0  0  0  0  0  0  0  0  0
  -29.7825  -21.2969   25.0411 F   0  0  0  0  0  0  0  0  0  0  0  0
  -16.8957  -27.3569   22.4663 F   0  0  0  0  0  0  0  0  0  0  0  0
  1  2  1  0  0  0  0
  1  5  2  0  0  0  0
  2  6  2  0  0  0  0
  3  8  2  0  0  0  0
  3 17  1  0  0  0  0
  4  9  1  0  0  0  0
  4 17  2  0  0  0  0
  5 19  1  0  0  0  0
  6 21  1  0  0  0  0
  7 10  2  0  0  0  0
  7 20  1  0  0  0  0
  8 26  1  0  0  0  0
  9 26  2  0  0  0  0
 10 27  1  0  0  0  0
 11 12  2  0  0  0  0
 11 28  1  0  0  0  0
 12 29  1  0  0  0  0
 13 22  1  0  0  0  0
 13 27  2  0  0  0  0
 14 24  2  0  0  0  0
 14 25  1  0  0  0  0
 15 24  1  0  0  0  0
 15 30  2  0  0  0  0
 16 29  2  0  0  0  0
 16 31  1  0  0  0  0
 17 32  1  0  0  0  0
 18 32  1  0  0  0  0
 18 33  2  0  0  0  0
 18 34  1  0  0  0  0
 19 21  2  0  0  0  0
 19 40  1  0  0  0  0
 20 22  2  0  0  0  0
 20 41  1  0  0  0  0
 21 49  1  0  0  0  0
 22 42  1  0  0  0  0
 23 25  2  0  0  0  0
 23 30  1  0  0  0  0
 23 52  1  0  0  0  0
 24 70  1  0  0  0  0
 25 69  1  0  0  0  0
 26 80  1  0  0  0  0
 27 81  1  0  0  0  0
 28 31  2  0  0  0  0
 28 80  1  0  0  0  0
 29 82  1  0  0  0  0
 30 83  1  0  0  0  0
 31 84  1  0  0  0  0
 32 63  2  0  0  0  0
 33 64  1  0  0  0  0
 33 67  1  0  0  0  0
 34 68  1  0  0  0  0
 34 74  2  0  0  0  0
 35 50  1  0  0  0  0
 35 71  1  0  0  0  0
 35 75  2  0  0  0  0
 36 60  1  0  0  0  0
 36 65  1  0  0  0  0
 36 76  2  0  0  0  0
 37 58  1  0  0  0  0
 37 69  1  0  0  0  0
 37 77  2  0  0  0  0
 38 61  1  0  0  0  0
 38 72  1  0  0  0  0
 38 78  2  0  0  0  0
 39 66  1  0  0  0  0
 39 70  1  0  0  0  0
 39 79  2  0  0  0  0
 40 43  1  0  0  0  0
 41 50  1  0  0  0  0
 42 65  1  0  0  0  0
 43 45  1  0  0  0  0
 44 46  1  0  0  0  0
 44 47  1  0  0  0  0
 45 49  1  0  0  0  0
 46 51  1  0  0  0  0
 47 66  1  0  0  0  0
 48 51  1  0  0  0  0
 48 66  1  0  0  0  0
 49 71  1  0  0  0  0
 50 65  1  0  0  0  0
 51 64  1  0  0  0  0
 53 61  1  0  0  0  0
 54 62  1  0  0  0  0
 55 62  1  0  0  0  0
 56 62  1  0  0  0  0
 57 73  1  0  0  0  0
 58 59  1  0  0  0  0
 59 81  1  0  0  0  0
 60 62  1  0  0  0  0
 60 72  1  0  0  0  0
 61 73  1  0  0  0  0
 63 64  1  0  0  0  0
M  CHG  1  73   1
M  ISO  4  39 100  59 101  70 100  81 101
M  END
> <Batch ID>
0069

> <Smiles>
CNC(C)C(=O)NC(C(=O)N1Cc2cc([101O:1][101CH2:1]CC(=O)Nc3cc([100NH:0][100C:0](=O)N4CCCC(n5nc(-c6ccc(Oc7ccc(F)cc7F)cc6)c(C(N)=O)c5N)C4)cc(F)c3C)ccc2CC1C(=O)NC1CCCc2ccccc21)C(C)(C)C

> <Shape>
0.247

> <Color>
0.087

> <Negative vol penalty>
0.000

$$$$

  -OEChem-04042323303D

 89 97  0     1  0  0  0  0  0999 V2000
  -21.9589  -11.2507   21.0189 C   0  0  0  0  0  0  0  0  0  0  0  0
  -21.8353  -12.5353   21.5384 C   0  0  0  0  0  0  0  0  0  0  0  0
  -30.4689  -31.2192   21.0613 C   0  0  0  0  0  0  0  0  0  0  0  0
  -29.7985  -30.5075   23.2706 C   0  0  0  0  0  0  0  0  0  0  0  0
  -23.1975  -10.7999   20.5646 C   0  0  0  0  0  0  0  0  0  0  0  0
  -22.9507  -13.3696   21.6049 C   0  0  0  0  0  0  0  0  0  0  0  0
  -21.9513  -18.0784   20.0324 C   0  0  0  0  0  0  0  0  0  0  0  0
  -31.7104  -31.6090   21.5635 C   0  0  0  0  0  0  0  0  0  0  0  0
  -31.0400  -30.8973   23.7729 C   0  0  0  0  0  0  0  0  0  0  0  0
  -21.2799  -18.9173   20.9208 C   0  0  0  0  0  0  0  0  0  0  0  0
  -34.1899  -29.6753   23.8477 C   0  0  0  0  0  0  0  0  0  0  0  0
  -34.8393  -28.7995   24.7176 C   0  0  0  0  0  0  0  0  0  0  0  0
  -23.3748  -19.9562   21.5137 C   0  0  0  0  0  0  0  0  0  0  0  0
  -18.4739  -27.0770   23.5567 C   0  0  0  0  0  0  0  0  0  0  0  0
  -19.2446  -29.2523   22.8420 C   0  0  0  0  0  0  0  0  0  0  0  0
  -20.6346  -27.3060   22.5003 C   0  0  0  0  0  0  0  0  0  0  0  0
  -34.8146  -30.4927   26.4409 C   0  0  0  0  0  0  0  0  0  0  0  0
  -29.5129  -30.6685   21.9148 C   0  0  0  0  0  0  0  0  0  0  0  0
  -27.8786  -29.0033   20.8834 C   0  0  0  0  0  0  0  0  0  0  0  0
  -24.3266  -11.6324   20.6166 C   0  0  0  0  0  0  0  0  0  0  0  0
  -23.3433  -18.1648   19.8858 C   0  0  0  0  0  0  0  0  0  0  0  0
  -24.2059  -12.9290   21.1521 C   0  0  0  0  0  0  0  0  0  0  0  0
  -24.0612  -19.1189   20.6209 C   0  0  0  0  0  0  0  0  0  0  0  0
  -18.2675  -28.4508   23.4324 C   0  0  0  0  0  0  0  0  0  0  0  0
  -19.6575  -26.5045   23.0907 C   0  0  0  0  0  0  0  0  0  0  0  0
  -20.4282  -28.6799   22.3760 C   0  0  0  0  0  0  0  0  0  0  0  0
  -31.9960  -31.4480   22.9193 C   0  0  0  0  0  0  0  0  0  0  0  0
  -21.9920  -19.8544   21.6637 C   0  0  0  0  0  0  0  0  0  0  0  0
  -33.8529  -30.9599   24.2743 C   0  0  0  0  0  0  0  0  0  0  0  0
  -35.1516  -29.2081   26.0142 C   0  0  0  0  0  0  0  0  0  0  0  0
  -34.1652  -31.3685   25.5709 C   0  0  0  0  0  0  0  0  0  0  0  0
  -28.2300  -30.2662   21.3966 C   0  0  0  0  0  0  0  0  0  0  0  0
  -26.5589  -29.1332   20.5257 C   0  0  0  0  0  0  0  0  0  0  0  0
  -21.4237  -22.0231   22.3304 C   0  0  0  0  0  0  0  0  0  1  0  0
  -28.6739  -27.8187   20.7426 C   0  0  0  0  0  0  0  0  0  0  0  0
  -20.8224  -22.9200   23.1215 C   0  0  0  0  0  0  0  0  0  0  0  0
  -20.9759  -24.3795   22.8142 C   0  0  0  0  0  0  0  0  0  0  0  0
  -25.7783  -16.1826   20.3809 C   0  0  0  0  0  0  0  0  0  0  0  0
  -16.4370  -30.4289   25.8097 C   0  0  0  0  0  0  0  0  0  0  0  0
  -27.4970  -18.5789   19.0296 C   0  0  0  0  0  0  0  0  0  0  0  0
  -27.7594  -21.9032   18.3038 C   0  0  0  0  0  0  0  0  0  0  0  0
  -21.3756  -30.8735   21.5781 C   0  0  0  0  0  0  0  0  0  0  0  0
  -25.6545  -11.0843   20.1573 C   0  0  0  0  0  0  0  0  0  0  0  0
  -24.0493  -17.2708   18.9036 C   0  0  0  0  0  0  0  0  0  0  0  0
  -25.5540  -19.2656   20.4852 C   0  0  0  0  0  0  0  0  0  0  0  0
  -26.7081  -12.1624   19.9168 C   0  0  0  0  0  0  0  0  0  0  0  0
  -23.6300  -33.2469   20.1775 C   0  0  0  0  0  0  0  0  0  0  0  0
  -26.7338  -13.1521   21.0773 C   0  0  0  0  0  0  0  0  0  0  0  0
  -24.9988  -32.5791   20.3276 C   0  0  0  0  0  0  0  0  0  0  0  0
  -22.7214  -32.9521   21.3696 C   0  0  0  0  0  0  0  0  0  0  0  0
  -23.9338  -30.8607   21.8440 C   0  0  0  0  0  0  0  0  0  0  0  0
  -25.3874  -13.8723   21.2180 C   0  0  1  0  0  0  0  0  0  0  0  0
  -25.5328  -17.0964   19.2138 C   0  0  1  0  0  0  0  0  0  0  0  0
  -24.8614  -31.0755   20.6369 C   0  0  2  0  0  0  0  0  0  0  0  0
  -16.4699  -30.9100   27.2388 C   0  0  0  0  0  0  0  0  0  0  0  0
  -15.5103  -31.1507   24.8640 C   0  0  0  0  0  0  0  0  0  0  0  0
  -29.2954  -23.5687   17.2249 C   0  0  0  0  0  0  0  0  0  0  0  0
  -29.3064  -18.4971   21.4851 C   0  0  0  0  0  0  0  0  0  0  0  0
  -30.1970  -20.7397   20.8173 C   0  0  0  0  0  0  0  0  0  0  0  0
  -30.5103  -18.7762   19.3109 C   0  0  0  0  0  0  0  0  0  0  0  0
  -25.7356  -22.6256   16.2687 C   0  0  0  0  0  0  0  0  0  0  0  0
  -17.0022  -29.0627   23.9321 C   0  0  2  0  0  0  0  0  0  0  0  0
  -28.2124  -19.8040   19.5457 C   0  0  1  0  0  0  0  0  0  0  0  0
  -28.1179  -22.6286   17.0193 C   0  0  2  0  0  0  0  0  0  0  0  0
  -29.5286  -19.4504   20.2940 C   0  0  0  0  0  0  0  0  0  0  0  0
  -27.2155  -31.1345   21.3690 N   0  0  0  0  0  0  0  0  0  0  0  0
  -17.1187  -29.4377   25.3466 N   0  0  0  0  0  0  0  0  0  0  0  0
  -26.2136  -30.4162   20.8341 N   0  0  0  0  0  0  0  0  0  0  0  0
  -26.1998  -18.3644   19.5166 N   0  0  0  0  0  0  0  0  0  0  0  0
  -22.6354  -31.5084   21.6002 N   0  0  0  0  0  0  0  0  0  0  0  0
  -25.6717  -28.2741   19.9805 N   0  0  0  0  0  0  0  0  0  0  0  0
  -30.0112  -27.8582   21.1604 N   0  0  0  0  0  0  0  0  0  0  0  0
  -19.8665  -25.1100   23.2173 N   0  0  0  0  0  0  0  0  0  0  0  0
  -21.4214  -29.4942   21.7775 N   0  0  0  0  0  0  0  0  0  0  0  0
  -25.2628  -14.9109   20.2179 N   0  0  0  0  0  0  0  0  0  0  0  0
  -28.3962  -20.6838   18.3965 N   0  0  0  0  0  0  0  0  0  0  0  0
  -26.9573  -23.4280   16.5346 N   0  3  0  0  0  0  0  0  0  0  0  0
  -28.2170  -26.7615   20.2456 O   0  0  0  0  0  0  0  0  0  0  0  0
  -21.9889  -24.8057   22.2702 O   0  0  0  0  0  0  0  0  0  0  0  0
  -26.3913  -16.5999   21.3565 O   0  0  0  0  0  0  0  0  0  0  0  0
  -28.0653  -17.8434   18.2187 O   0  0  0  0  0  0  0  0  0  0  0  0
  -26.9940  -22.3732   19.1428 O   0  0  0  0  0  0  0  0  0  0  0  0
  -20.3353  -31.5029   21.3687 O   0  0  0  0  0  0  0  0  0  0  0  0
  -20.0617  -22.5545   24.2134 O   0  0  0  0  0  0  0  0  0  0  0  0
  -33.2075  -31.8280   23.4098 O   0  0  0  0  0  0  0  0  0  0  0  0
  -21.3392  -20.6740   22.5320 O   0  0  0  0  0  0  0  0  0  1  0  0
  -35.7739  -28.3664   26.8500 F   0  0  0  0  0  0  0  0  0  0  0  0
  -33.8429  -32.6010   25.9869 F   0  0  0  0  0  0  0  0  0  0  0  0
  -15.9221  -28.2253   23.8018 F   0  0  0  0  0  0  0  0  0  0  0  0
  1  2  1  0  0  0  0
  1  5  2  0  0  0  0
  2  6  2  0  0  0  0
  3  8  2  0  0  0  0
  3 18  1  0  0  0  0
  4  9  1  0  0  0  0
  4 18  2  0  0  0  0
  5 20  1  0  0  0  0
  6 22  1  0  0  0  0
  7 10  2  0  0  0  0
  7 21  1  0  0  0  0
  8 27  1  0  0  0  0
  9 27  2  0  0  0  0
 10 28  1  0  0  0  0
 11 12  2  0  0  0  0
 11 29  1  0  0  0  0
 12 30  1  0  0  0  0
 13 23  1  0  0  0  0
 13 28  2  0  0  0  0
 14 24  1  0  0  0  0
 14 25  2  0  0  0  0
 15 24  2  0  0  0  0
 15 26  1  0  0  0  0
 16 25  1  0  0  0  0
 16 26  2  0  0  0  0
 17 30  2  0  0  0  0
 17 31  1  0  0  0  0
 18 32  1  0  0  0  0
 19 32  1  0  0  0  0
 19 33  2  0  0  0  0
 19 35  1  0  0  0  0
 20 22  2  0  0  0  0
 20 43  1  0  0  0  0
 21 23  2  0  0  0  0
 21 44  1  0  0  0  0
 22 52  1  0  0  0  0
 23 45  1  0  0  0  0
 24 62  1  0  0  0  0
 25 73  1  0  0  0  0
 26 74  1  0  0  0  0
 27 85  1  0  0  0  0
 28 86  1  0  0  0  0
 29 31  2  0  0  0  0
 29 85  1  0  0  0  0
 30 87  1  0  0  0  0
 31 88  1  0  0  0  0
 32 66  2  0  0  0  0
 33 68  1  0  0  0  0
 33 71  1  0  0  0  0
 34 36  2  0  0  0  0
 34 86  1  0  0  0  0
 35 72  1  0  0  0  0
 35 78  2  0  0  0  0
 36 37  1  0  0  0  0
 36 84  1  0  0  0  0
 37 73  1  0  0  0  0
 37 79  2  0  0  0  0
 38 53  1  0  0  0  0
 38 75  1  0  0  0  0
 38 80  2  0  0  0  0
 39 55  1  0  0  0  0
 39 56  1  0  0  0  0
 39 67  2  0  0  0  0
 40 63  1  0  0  0  0
 40 69  1  0  0  0  0
 40 81  2  0  0  0  0
 41 64  1  0  0  0  0
 41 76  1  0  0  0  0
 41 82  2  0  0  0  0
 42 70  1  0  0  0  0
 42 74  1  0  0  0  0
 42 83  2  0  0  0  0
 43 46  1  0  0  0  0
 44 53  1  0  0  0  0
 45 69  1  0  0  0  0
 46 48  1  0  0  0  0
 47 49  1  0  0  0  0
 47 50  1  0  0  0  0
 48 52  1  0  0  0  0
 49 54  1  0  0  0  0
 50 70  1  0  0  0  0
 51 54  1  0  0  0  0
 51 70  1  0  0  0  0
 52 75  1  0  0  0  0
 53 69  1  0  0  0  0
 54 68  1  0  0  0  0
 57 64  1  0  0  0  0
 58 65  1  0  0  0  0
 59 65  1  0  0  0  0
 60 65  1  0  0  0  0
 61 77  1  0  0  0  0
 62 67  1  0  0  0  0
 62 89  1  0  0  0  0
 63 65  1  0  0  0  0
 63 76  1  0  0  0  0
 64 77  1  0  0  0  0
 66 68  1  0  0  0  0
M  CHG  1  77   1
M  ISO  4  34 101  42 100  74 100  86 101
M  END
> <Batch ID>
0069

> <Smiles>
CNC(C)C(=O)NC(C(=O)N1Cc2cc([101O:1][101CH2:1]C(=O)C(=O)Nc3cc([100NH:0][100C:0](=O)N4CCCC(n5nc(-c6ccc(Oc7ccc(F)cc7F)cc6)c(C(N)=O)c5N)C4)cc(C(F)N=C(C)C)c3)ccc2CC1C(=O)NC1CCCc2ccccc21)C(C)(C)C

> <Shape>
0.233

> <Color>
0.079

> <Negative vol penalty>
0.000

$$$$

  -OEChem-04042323303D

 84 92  0     1  0  0  0  0  0999 V2000
  -26.0278  -29.4985   27.9494 C   0  0  0  0  0  0  0  0  0  0  0  0
  -25.6299  -28.6201   26.9466 C   0  0  0  0  0  0  0  0  0  0  0  0
  -25.6696  -18.9882   16.3110 C   0  0  0  0  0  0  0  0  0  0  0  0
  -23.0621  -10.1939   19.8825 C   0  0  0  0  0  0  0  0  0  0  0  0
  -23.8730   -9.7722   22.1189 C   0  0  0  0  0  0  0  0  0  0  0  0
  -26.7885  -18.1588   16.3865 C   0  0  0  0  0  0  0  0  0  0  0  0
  -25.6239  -30.8323   27.9069 C   0  0  0  0  0  0  0  0  0  0  0  0
  -24.8269  -29.0748   25.9012 C   0  0  0  0  0  0  0  0  0  0  0  0
  -26.4034  -27.4243   21.3807 C   0  0  0  0  0  0  0  0  0  0  0  0
  -25.5931  -20.1305   17.1079 C   0  0  0  0  0  0  0  0  0  0  0  0
  -22.2685   -9.0491   19.9543 C   0  0  0  0  0  0  0  0  0  0  0  0
  -23.0793   -8.6274   22.1908 C   0  0  0  0  0  0  0  0  0  0  0  0
  -26.0913  -26.1092   21.0388 C   0  0  0  0  0  0  0  0  0  0  0  0
  -19.8304   -7.8819   22.7467 C   0  0  0  0  0  0  0  0  0  0  0  0
  -19.0990   -7.6746   23.9162 C   0  0  0  0  0  0  0  0  0  0  0  0
  -24.2513  -26.9016   19.6950 C   0  0  0  0  0  0  0  0  0  0  0  0
  -20.2602   -5.5861   24.2723 C   0  0  0  0  0  0  0  0  0  0  0  0
  -23.8644  -10.5554   20.9647 C   0  0  0  0  0  0  0  0  0  0  0  0
  -27.8310  -18.4717   17.2589 C   0  0  0  0  0  0  0  0  0  0  0  0
  -24.3268  -13.0458   21.2676 C   0  0  0  0  0  0  0  0  0  0  0  0
  -24.8234  -31.3058   26.8554 C   0  0  0  0  0  0  0  0  0  0  0  0
  -25.6337  -28.4890   20.8903 C   0  0  0  0  0  0  0  0  0  0  0  0
  -24.4107  -30.4159   25.8454 C   0  0  0  0  0  0  0  0  0  0  0  0
  -24.5572  -28.2294   20.0302 C   0  0  0  0  0  0  0  0  0  0  0  0
  -27.7545  -19.6140   18.0558 C   0  0  0  0  0  0  0  0  0  0  0  0
  -26.6355  -20.4433   17.9803 C   0  0  0  0  0  0  0  0  0  0  0  0
  -22.2770   -8.2659   21.1085 C   0  0  0  0  0  0  0  0  0  0  0  0
  -25.0134  -25.8475   20.1981 C   0  0  0  0  0  0  0  0  0  0  0  0
  -20.7767   -6.9412   22.3400 C   0  0  0  0  0  0  0  0  0  0  0  0
  -19.3139   -6.5268   24.6790 C   0  0  0  0  0  0  0  0  0  0  0  0
  -20.9916   -5.7934   23.1028 C   0  0  0  0  0  0  0  0  0  0  0  0
  -24.6849  -11.7375   20.8909 C   0  0  0  0  0  0  0  0  0  0  0  0
  -25.4459  -13.7974   21.0045 C   0  0  0  0  0  0  0  0  0  0  0  0
  -29.0095  -17.5690   17.3154 C   0  0  0  0  0  0  0  0  0  0  0  0
  -23.0929  -13.5377   21.8073 C   0  0  0  0  0  0  0  0  0  0  0  0
  -23.8285  -30.7471   22.2116 C   0  0  0  0  0  0  0  0  0  0  0  0
  -23.6520  -31.8430   19.1637 C   0  0  0  0  0  0  0  0  0  0  0  0
  -25.4923  -22.5247   18.8139 C   0  0  0  0  0  0  0  0  0  0  0  0
  -23.8570  -31.1661   15.8250 C   0  0  0  0  0  0  0  0  0  0  0  0
  -29.7001  -15.2345   17.7589 C   0  0  0  0  0  0  0  0  0  0  0  0
  -24.3727  -32.7449   26.8775 C   0  0  0  0  0  0  0  0  0  0  0  0
  -25.9997  -29.9037   21.2471 C   0  0  0  0  0  0  0  0  0  0  0  0
  -23.7120  -29.3383   19.4606 C   0  0  0  0  0  0  0  0  0  0  0  0
  -23.8321  -33.2345   25.5364 C   0  0  0  0  0  0  0  0  0  0  0  0
  -30.1582  -12.3844   19.7995 C   0  0  0  0  0  0  0  0  0  0  0  0
  -22.8610  -32.2157   24.9483 C   0  0  0  0  0  0  0  0  0  0  0  0
  -28.7471  -12.0716   20.3049 C   0  0  0  0  0  0  0  0  0  0  0  0
  -30.1475  -12.8690   18.3504 C   0  0  0  0  0  0  0  0  0  0  0  0
  -27.8323  -13.6730   18.5778 C   0  0  0  0  0  0  0  0  0  0  0  0
  -23.5601  -30.8772   24.6818 C   0  0  1  0  0  0  0  0  0  0  0  0
  -24.8339  -30.8770   21.1026 C   0  0  1  0  0  0  0  0  0  0  0  0
  -27.7827  -13.2483   20.0544 C   0  0  1  0  0  0  0  0  0  0  0  0
  -28.8740  -19.9484   18.9920 C   0  0  0  0  0  0  0  0  0  0  0  0
  -23.6270  -32.2560   13.5763 C   0  0  0  0  0  0  0  0  0  0  0  0
  -20.6153  -31.8043   19.4582 C   0  0  0  0  0  0  0  0  0  0  0  0
  -20.4413  -31.9688   16.9660 C   0  0  0  0  0  0  0  0  0  0  0  0
  -21.5220  -33.8052   18.2630 C   0  0  0  0  0  0  0  0  0  0  0  0
  -26.6669  -30.5642   15.1169 C   0  0  0  0  0  0  0  0  0  0  0  0
  -25.7845  -23.6314   19.8101 C   0  0  0  0  0  0  0  0  0  1  0  0
  -22.7310  -31.6013   17.9923 C   0  0  1  0  0  0  0  0  0  0  0  0
  -24.5830  -31.8754   14.6961 C   0  0  2  0  0  0  0  0  0  0  0  0
  -21.3419  -32.2737   18.1820 C   0  0  0  0  0  0  0  0  0  0  0  0
  -25.9338  -11.6591   20.4238 N   0  0  0  0  0  0  0  0  0  0  0  0
  -26.3702  -12.9276   20.5053 N   0  0  0  0  0  0  0  0  0  0  0  0
  -24.1059  -30.7041   19.8439 N   0  0  0  0  0  0  0  0  0  0  0  0
  -29.2177  -13.9896   18.1992 N   0  0  0  0  0  0  0  0  0  0  0  0
  -25.7196  -15.1109   21.1537 N   0  0  0  0  0  0  0  0  0  0  0  0
  -22.0455  -12.6299   22.0150 N   0  0  0  0  0  0  0  0  0  0  0  0
  -26.5370  -21.6074   18.7788 N   0  0  0  0  0  0  0  0  0  0  0  0
  -28.7416  -16.2516   17.6882 N   0  0  0  0  0  0  0  0  0  0  0  0
  -24.3529  -30.9527   23.4734 N   0  0  0  0  0  0  0  0  0  0  0  0
  -23.4536  -32.0472   16.8060 N   0  0  0  0  0  0  0  0  0  0  0  0
  -25.6443  -30.9959   14.1295 N   0  3  0  0  0  0  0  0  0  0  0  0
  -30.1134  -18.0065   17.0026 O   0  0  0  0  0  0  0  0  0  0  0  0
  -22.9186  -14.7493   22.0813 O   0  0  0  0  0  0  0  0  0  0  0  0
  -22.6629  -30.4814   21.9424 O   0  0  0  0  0  0  0  0  0  0  0  0
  -23.9632  -32.9994   19.4597 O   0  0  0  0  0  0  0  0  0  0  0  0
  -24.4539  -22.5054   18.1613 O   0  0  0  0  0  0  0  0  0  0  0  0
  -23.6636  -29.9524   15.8338 O   0  0  0  0  0  0  0  0  0  0  0  0
  -30.8886  -15.4339   17.4888 O   0  0  0  0  0  0  0  0  0  0  0  0
  -21.5025   -7.1488   21.1791 O   0  0  0  0  0  0  0  0  0  0  0  0
  -24.7063  -24.5647   19.8633 O   0  0  0  0  0  0  0  0  0  1  0  0
  -18.6126   -6.3286   25.8029 F   0  0  0  0  0  0  0  0  0  0  0  0
  -21.9002   -4.8868   22.7177 F   0  0  0  0  0  0  0  0  0  0  0  0
  1  2  1  0  0  0  0
  1  7  2  0  0  0  0
  2  8  2  0  0  0  0
  3  6  1  0  0  0  0
  3 10  2  0  0  0  0
  4 11  2  0  0  0  0
  4 18  1  0  0  0  0
  5 12  1  0  0  0  0
  5 18  2  0  0  0  0
  6 19  2  0  0  0  0
  7 21  1  0  0  0  0
  8 23  1  0  0  0  0
  9 13  2  0  0  0  0
  9 22  1  0  0  0  0
 10 26  1  0  0  0  0
 11 27  1  0  0  0  0
 12 27  2  0  0  0  0
 13 28  1  0  0  0  0
 14 15  2  0  0  0  0
 14 29  1  0  0  0  0
 15 30  1  0  0  0  0
 16 24  1  0  0  0  0
 16 28  2  0  0  0  0
 17 30  2  0  0  0  0
 17 31  1  0  0  0  0
 18 32  1  0  0  0  0
 19 25  1  0  0  0  0
 19 34  1  0  0  0  0
 20 32  1  0  0  0  0
 20 33  2  0  0  0  0
 20 35  1  0  0  0  0
 21 23  2  0  0  0  0
 21 41  1  0  0  0  0
 22 24  2  0  0  0  0
 22 42  1  0  0  0  0
 23 50  1  0  0  0  0
 24 43  1  0  0  0  0
 25 26  2  0  0  0  0
 25 53  1  0  0  0  0
 26 69  1  0  0  0  0
 27 81  1  0  0  0  0
 28 82  1  0  0  0  0
 29 31  2  0  0  0  0
 29 81  1  0  0  0  0
 30 83  1  0  0  0  0
 31 84  1  0  0  0  0
 32 63  2  0  0  0  0
 33 64  1  0  0  0  0
 33 67  1  0  0  0  0
 34 70  1  0  0  0  0
 34 74  2  0  0  0  0
 35 68  1  0  0  0  0
 35 75  2  0  0  0  0
 36 51  1  0  0  0  0
 36 71  1  0  0  0  0
 36 76  2  0  0  0  0
 37 60  1  0  0  0  0
 37 65  1  0  0  0  0
 37 77  2  0  0  0  0
 38 59  1  0  0  0  0
 38 69  1  0  0  0  0
 38 78  2  0  0  0  0
 39 61  1  0  0  0  0
 39 72  1  0  0  0  0
 39 79  2  0  0  0  0
 40 66  1  0  0  0  0
 40 70  1  0  0  0  0
 40 80  2  0  0  0  0
 41 44  1  0  0  0  0
 42 51  1  0  0  0  0
 43 65  1  0  0  0  0
 44 46  1  0  0  0  0
 45 47  1  0  0  0  0
 45 48  1  0  0  0  0
 46 50  1  0  0  0  0
 47 52  1  0  0  0  0
 48 66  1  0  0  0  0
 49 52  1  0  0  0  0
 49 66  1  0  0  0  0
 50 71  1  0  0  0  0
 51 65  1  0  0  0  0
 52 64  1  0  0  0  0
 54 61  1  0  0  0  0
 55 62  1  0  0  0  0
 56 62  1  0  0  0  0
 57 62  1  0  0  0  0
 58 73  1  0  0  0  0
 59 82  1  0  0  0  0
 60 62  1  0  0  0  0
 60 72  1  0  0  0  0
 61 73  1  0  0  0  0
 63 64  1  0  0  0  0
M  CHG  1  73   1
M  ISO  4  40 100  59 101  70 100  82 101
M  END
> <Batch ID>
0069

> <Smiles>
CNC(C)C(=O)NC(C(=O)N1Cc2cc([101O:1][101CH2:1]C(=O)Nc3cccc(C(=O)[100NH:0][100C:0](=O)N4CCCC(n5nc(-c6ccc(Oc7ccc(F)cc7F)cc6)c(C(N)=O)c5N)C4)c3C)ccc2CC1C(=O)NC1CCCc2ccccc21)C(C)(C)C

> <Shape>
0.246

> <Color>
0.149

> <Negative vol penalty>
0.000

$$$$

  -OEChem-04042323303D

 83 91  0     1  0  0  0  0  0999 V2000
  -25.8712  -38.2367   21.7916 C   0  0  0  0  0  0  0  0  0  0  0  0
  -26.2287  -37.3184   20.8096 C   0  0  0  0  0  0  0  0  0  0  0  0
  -27.7782  -10.5210   21.5360 C   0  0  0  0  0  0  0  0  0  0  0  0
  -25.8232  -11.4880   20.4969 C   0  0  0  0  0  0  0  0  0  0  0  0
  -25.8272  -37.8442   23.1287 C   0  0  0  0  0  0  0  0  0  0  0  0
  -26.5435  -36.0071   21.1644 C   0  0  0  0  0  0  0  0  0  0  0  0
  -26.0861  -29.2948   18.7042 C   0  0  0  0  0  0  0  0  0  0  0  0
  -28.2901  -21.7912   15.1808 C   0  0  0  0  0  0  0  0  0  0  0  0
  -28.5105  -20.4545   14.8487 C   0  0  0  0  0  0  0  0  0  0  0  0
  -26.9879   -9.5092   22.0813 C   0  0  0  0  0  0  0  0  0  0  0  0
  -25.0329  -10.4762   21.0422 C   0  0  0  0  0  0  0  0  0  0  0  0
  -26.8827  -28.1723   18.4825 C   0  0  0  0  0  0  0  0  0  0  0  0
  -24.3319   -7.2368   20.3825 C   0  0  0  0  0  0  0  0  0  0  0  0
  -23.3949   -6.6275   19.5479 C   0  0  0  0  0  0  0  0  0  0  0  0
  -26.6958  -27.5865   20.8151 C   0  0  0  0  0  0  0  0  0  0  0  0
  -28.6809  -21.2773   17.5089 C   0  0  0  0  0  0  0  0  0  0  0  0
  -21.6191   -7.3338   21.0260 C   0  0  0  0  0  0  0  0  0  0  0  0
  -27.1958  -11.5104   20.7439 C   0  0  0  0  0  0  0  0  0  0  0  0
  -28.6678  -12.5451   18.9354 C   0  0  0  0  0  0  0  0  0  0  0  0
  -26.1323  -36.5249   23.4990 C   0  0  0  0  0  0  0  0  0  0  0  0
  -25.5965  -29.5780   19.9874 C   0  0  0  0  0  0  0  0  0  0  0  0
  -26.5049  -35.5969   22.5079 C   0  0  0  0  0  0  0  0  0  0  0  0
  -25.8911  -28.7118   21.0500 C   0  0  0  0  0  0  0  0  0  0  0  0
  -28.3753  -22.2026   16.5109 C   0  0  0  0  0  0  0  0  0  0  0  0
  -28.8160  -19.5292   15.8468 C   0  0  0  0  0  0  0  0  0  0  0  0
  -28.9012  -19.9406   17.1769 C   0  0  0  0  0  0  0  0  0  0  0  0
  -25.6153   -9.4867   21.8343 C   0  0  0  0  0  0  0  0  0  0  0  0
  -27.1901  -27.3195   19.5386 C   0  0  0  0  0  0  0  0  0  0  0  0
  -23.9125   -7.8944   21.5389 C   0  0  0  0  0  0  0  0  0  0  0  0
  -22.0385   -6.6761   19.8696 C   0  0  0  0  0  0  0  0  0  0  0  0
  -22.5561   -7.9429   21.8606 C   0  0  0  0  0  0  0  0  0  0  0  0
  -28.0115  -12.5562   20.1808 C   0  0  0  0  0  0  0  0  0  0  0  0
  -29.3026  -13.7613   18.8709 C   0  0  0  0  0  0  0  0  0  0  0  0
  -28.7004  -11.5264   17.9270 C   0  0  0  0  0  0  0  0  0  0  0  0
  -25.9555  -31.9721   22.0473 C   0  0  0  0  0  0  0  0  0  0  0  0
  -23.7042  -30.3493   23.7266 C   0  0  0  0  0  0  0  0  0  0  0  0
  -28.2004  -24.1371   18.1113 C   0  0  0  0  0  0  0  0  0  0  0  0
  -22.1672  -27.3749   24.3881 C   0  0  0  0  0  0  0  0  0  0  0  0
  -29.3294  -19.2851   19.5713 C   0  0  0  0  0  0  0  0  0  0  0  0
  -26.1168  -36.1596   24.9622 C   0  0  0  0  0  0  0  0  0  0  0  0
  -24.7164  -30.7783   20.2046 C   0  0  0  0  0  0  0  0  0  0  0  0
  -25.3735  -28.9602   22.4424 C   0  0  0  0  0  0  0  0  0  0  0  0
  -26.1012  -34.6541   25.2140 C   0  0  0  0  0  0  0  0  0  0  0  0
  -30.0406  -17.2846   22.4295 C   0  0  0  0  0  0  0  0  0  0  0  0
  -27.1372  -33.9557   24.3389 C   0  0  0  0  0  0  0  0  0  0  0  0
  -29.6301  -15.8752   21.9969 C   0  0  0  0  0  0  0  0  0  0  0  0
  -29.1024  -18.3480   21.8616 C   0  0  0  0  0  0  0  0  0  0  0  0
  -28.4997  -16.8840   19.9741 C   0  0  0  0  0  0  0  0  0  0  0  0
  -26.8292  -34.1590   22.8504 C   0  0  1  0  0  0  0  0  0  0  0  0
  -24.6973  -31.2505   21.6552 C   0  0  1  0  0  0  0  0  0  0  0  0
  -29.4532  -15.7840   20.4685 C   0  0  2  0  0  0  0  0  0  0  0  0
  -20.3897  -26.3553   25.8367 C   0  0  0  0  0  0  0  0  0  0  0  0
  -25.6058  -30.4280   26.1114 C   0  0  0  0  0  0  0  0  0  0  0  0
  -24.2316  -28.6274   27.1779 C   0  0  0  0  0  0  0  0  0  0  0  0
  -23.2057  -30.8453   26.6768 C   0  0  0  0  0  0  0  0  0  0  0  0
  -28.3942  -17.5641   14.3683 C   0  0  0  0  0  0  0  0  0  0  0  0
  -20.5600  -26.5579   22.0411 C   0  0  0  0  0  0  0  0  0  0  0  0
  -27.9032  -25.6230   18.0323 C   0  0  0  0  0  0  0  0  0  1  0  0
  -23.7286  -29.2635   24.7752 C   0  0  1  0  0  0  0  0  0  0  0  0
  -20.6998  -27.0012   24.4952 C   0  0  2  0  0  0  0  0  0  0  0  0
  -24.2044  -29.7872   26.1596 C   0  0  0  0  0  0  0  0  0  0  0  0
  -28.2113  -13.6896   20.8588 N   0  0  0  0  0  0  0  0  0  0  0  0
  -29.0002  -14.4019   20.0364 N   0  0  0  0  0  0  0  0  0  0  0  0
  -24.5222  -30.1503   22.6054 N   0  0  0  0  0  0  0  0  0  0  0  0
  -28.9869  -18.2025   20.4089 N   0  0  0  0  0  0  0  0  0  0  0  0
  -30.0846  -14.3346   17.9316 N   0  0  0  0  0  0  0  0  0  0  0  0
  -27.9927  -10.3382   18.1543 N   0  0  0  0  0  0  0  0  0  0  0  0
  -28.1548  -23.5594   16.8470 N   0  0  0  0  0  0  0  0  0  0  0  0
  -29.2109  -19.0189   18.2076 N   0  0  0  0  0  0  0  0  0  0  0  0
  -29.0333  -18.1799   15.4880 N   0  0  0  0  0  0  0  0  0  0  0  0
  -25.7550  -33.2839   22.4325 N   0  0  0  0  0  0  0  0  0  0  0  0
  -22.3933  -28.6758   24.7854 N   0  0  0  0  0  0  0  0  0  0  0  0
  -20.3290  -26.0433   23.4155 N   0  3  0  0  0  0  0  0  0  0  0  0
  -29.3517  -11.6591   16.8631 O   0  0  0  0  0  0  0  0  0  0  0  0
  -27.0286  -31.3820   22.0051 O   0  0  0  0  0  0  0  0  0  0  0  0
  -22.9803  -31.3342   23.8928 O   0  0  0  0  0  0  0  0  0  0  0  0
  -28.4399  -23.5857   19.1805 O   0  0  0  0  0  0  0  0  0  0  0  0
  -23.0275  -26.5900   23.9951 O   0  0  0  0  0  0  0  0  0  0  0  0
  -29.7266  -20.3595   20.0293 O   0  0  0  0  0  0  0  0  0  0  0  0
  -24.8439   -8.4994   22.3660 O   0  0  0  0  0  0  0  0  0  0  0  0
  -27.9680  -26.2236   19.3251 O   0  0  0  0  0  0  0  0  0  1  0  0
  -21.1387   -6.0923   19.0673 F   0  0  0  0  0  0  0  0  0  0  0  0
  -22.1471   -8.5743   22.9696 F   0  0  0  0  0  0  0  0  0  0  0  0
  1  2  1  0  0  0  0
  1  5  2  0  0  0  0
  2  6  2  0  0  0  0
  3 10  2  0  0  0  0
  3 18  1  0  0  0  0
  4 11  1  0  0  0  0
  4 18  2  0  0  0  0
  5 20  1  0  0  0  0
  6 22  1  0  0  0  0
  7 12  2  0  0  0  0
  7 21  1  0  0  0  0
  8  9  2  0  0  0  0
  8 24  1  0  0  0  0
  9 25  1  0  0  0  0
 10 27  1  0  0  0  0
 11 27  2  0  0  0  0
 12 28  1  0  0  0  0
 13 14  2  0  0  0  0
 13 29  1  0  0  0  0
 14 30  1  0  0  0  0
 15 23  1  0  0  0  0
 15 28  2  0  0  0  0
 16 24  2  0  0  0  0
 16 26  1  0  0  0  0
 17 30  2  0  0  0  0
 17 31  1  0  0  0  0
 18 32  1  0  0  0  0
 19 32  1  0  0  0  0
 19 33  2  0  0  0  0
 19 34  1  0  0  0  0
 20 22  2  0  0  0  0
 20 40  1  0  0  0  0
 21 23  2  0  0  0  0
 21 41  1  0  0  0  0
 22 49  1  0  0  0  0
 23 42  1  0  0  0  0
 24 68  1  0  0  0  0
 25 26  2  0  0  0  0
 25 70  1  0  0  0  0
 26 69  1  0  0  0  0
 27 80  1  0  0  0  0
 28 81  1  0  0  0  0
 29 31  2  0  0  0  0
 29 80  1  0  0  0  0
 30 82  1  0  0  0  0
 31 83  1  0  0  0  0
 32 62  2  0  0  0  0
 33 63  1  0  0  0  0
 33 66  1  0  0  0  0
 34 67  1  0  0  0  0
 34 74  2  0  0  0  0
 35 50  1  0  0  0  0
 35 71  1  0  0  0  0
 35 75  2  0  0  0  0
 36 59  1  0  0  0  0
 36 64  1  0  0  0  0
 36 76  2  0  0  0  0
 37 58  1  0  0  0  0
 37 68  1  0  0  0  0
 37 77  2  0  0  0  0
 38 60  1  0  0  0  0
 38 72  1  0  0  0  0
 38 78  2  0  0  0  0
 39 65  1  0  0  0  0
 39 69  1  0  0  0  0
 39 79  2  0  0  0  0
 40 43  1  0  0  0  0
 41 50  1  0  0  0  0
 42 64  1  0  0  0  0
 43 45  1  0  0  0  0
 44 46  1  0  0  0  0
 44 47  1  0  0  0  0
 45 49  1  0  0  0  0
 46 51  1  0  0  0  0
 47 65  1  0  0  0  0
 48 51  1  0  0  0  0
 48 65  1  0  0  0  0
 49 71  1  0  0  0  0
 50 64  1  0  0  0  0
 51 63  1  0  0  0  0
 52 60  1  0  0  0  0
 53 61  1  0  0  0  0
 54 61  1  0  0  0  0
 55 61  1  0  0  0  0
 56 70  1  0  0  0  0
 57 73  1  0  0  0  0
 58 81  1  0  0  0  0
 59 61  1  0  0  0  0
 59 72  1  0  0  0  0
 60 73  1  0  0  0  0
 62 63  1  0  0  0  0
M  CHG  1  73   1
M  ISO  4  39 100  58 101  69 100  81 101
M  END
> <Batch ID>
0069

> <Smiles>
CNc1ccc(NC(=O)[101CH2:1][101O:1]c2ccc3c(c2)CN(C(=O)C(NC(=O)C(C)NC)C(C)(C)C)C(C(=O)NC2CCCc4ccccc42)C3)cc1[100NH:0][100C:0](=O)N1CCCC(n2nc(-c3ccc(Oc4ccc(F)cc4F)cc3)c(C(N)=O)c2N)C1

> <Shape>
0.290

> <Color>
0.080

> <Negative vol penalty>
0.000

$$$$

  -OEChem-04042323303D

 87 96  0     1  0  0  0  0  0999 V2000
  -27.7456  -22.7989   12.4557 C   0  0  0  0  0  0  0  0  0  0  0  0
  -27.3408  -22.2257   13.6569 C   0  0  0  0  0  0  0  0  0  0  0  0
  -23.3829   -9.6524   19.7905 C   0  0  0  0  0  0  0  0  0  0  0  0
  -24.1725   -9.5559   22.0718 C   0  0  0  0  0  0  0  0  0  0  0  0
  -28.3451  -24.0576   12.4523 C   0  0  0  0  0  0  0  0  0  0  0  0
  -27.5363  -22.9106   14.8557 C   0  0  0  0  0  0  0  0  0  0  0  0
  -23.8822  -22.8476   19.7699 C   0  0  0  0  0  0  0  0  0  0  0  0
  -22.7948   -8.3966   19.9409 C   0  0  0  0  0  0  0  0  0  0  0  0
  -23.5844   -8.3001   22.2223 C   0  0  0  0  0  0  0  0  0  0  0  0
  -23.9330  -22.1356   20.9675 C   0  0  0  0  0  0  0  0  0  0  0  0
  -20.4931   -7.0483   22.7674 C   0  0  0  0  0  0  0  0  0  0  0  0
  -19.7661   -6.8104   23.9338 C   0  0  0  0  0  0  0  0  0  0  0  0
  -25.0229  -24.0084   22.0277 C   0  0  0  0  0  0  0  0  0  0  0  0
  -28.7998  -18.1831   22.8889 C   0  0  0  0  0  0  0  0  0  0  0  0
  -30.4130  -18.3593   21.0990 C   0  0  0  0  0  0  0  0  0  0  0  0
  -21.2541   -4.9899   24.4897 C   0  0  0  0  0  0  0  0  0  0  0  0
  -24.0718  -10.2321   20.8559 C   0  0  0  0  0  0  0  0  0  0  0  0
  -24.0898  -12.7809   20.9584 C   0  0  0  0  0  0  0  0  0  0  0  0
  -28.5393  -24.7625   13.6507 C   0  0  0  0  0  0  0  0  0  0  0  0
  -24.4120  -24.1434   19.6892 C   0  0  0  0  0  0  0  0  0  0  0  0
  -28.1402  -24.1794   14.8685 C   0  0  0  0  0  0  0  0  0  0  0  0
  -24.9752  -24.7357   20.8286 C   0  0  0  0  0  0  0  0  0  0  0  0
  -29.5941  -20.3544   22.1880 C   0  0  0  0  0  0  0  0  0  0  0  0
  -28.7917  -19.5719   23.0183 C   0  0  0  0  0  0  0  0  0  0  0  0
  -29.6106  -17.5768   21.9293 C   0  0  0  0  0  0  0  0  0  0  0  0
  -22.8955   -7.7204   21.1568 C   0  0  0  0  0  0  0  0  0  0  0  0
  -24.5060  -22.7148   22.0959 C   0  0  0  0  0  0  0  0  0  0  0  0
  -21.6005   -6.2570   22.4621 C   0  0  0  0  0  0  0  0  0  0  0  0
  -20.1467   -5.7812   24.7950 C   0  0  0  0  0  0  0  0  0  0  0  0
  -30.4048  -19.7481   21.2283 C   0  0  0  0  0  0  0  0  0  0  0  0
  -21.9810   -5.2279   23.3232 C   0  0  0  0  0  0  0  0  0  0  0  0
  -24.6800  -11.5291   20.7009 C   0  0  0  0  0  0  0  0  0  0  0  0
  -25.0725  -13.6922   20.6576 C   0  0  0  0  0  0  0  0  0  0  0  0
  -28.3750  -20.9814   25.0781 C   0  0  0  0  0  0  0  0  0  0  0  0
  -22.7712  -13.0923   21.4275 C   0  0  0  0  0  0  0  0  0  0  0  0
  -26.7433  -25.5135   18.0184 C   0  0  0  0  0  0  0  0  0  0  0  0
  -25.6047  -28.2234   19.3905 C   0  0  0  0  0  0  0  0  0  0  0  0
  -23.8941  -29.6688   21.9656 C   0  0  0  0  0  0  0  0  0  0  0  0
  -30.3649  -15.4058   20.8977 C   0  0  0  0  0  0  0  0  0  0  0  0
  -29.2347  -26.0999   13.6017 C   0  0  0  0  0  0  0  0  0  0  0  0
  -24.3254  -24.9083   18.3970 C   0  0  0  0  0  0  0  0  0  0  0  0
  -25.5399  -26.1317   20.7998 C   0  0  0  0  0  0  0  0  0  0  0  0
  -27.1514  -21.3085   25.9054 C   0  0  0  0  0  0  0  0  0  0  0  0
  -29.0655  -26.9214   14.8772 C   0  0  0  0  0  0  0  0  0  0  0  0
  -29.5265  -13.0857   18.3304 C   0  0  0  0  0  0  0  0  0  0  0  0
  -29.3193  -26.0558   16.1073 C   0  0  0  0  0  0  0  0  0  0  0  0
  -28.1423  -12.5768   18.7394 C   0  0  0  0  0  0  0  0  0  0  0  0
  -30.4245  -13.3234   19.5431 C   0  0  0  0  0  0  0  0  0  0  0  0
  -28.4638  -13.6759   20.9924 C   0  0  0  0  0  0  0  0  0  0  0  0
  -26.5231  -19.9389   24.0525 C   0  0  0  0  0  0  0  0  0  0  0  0
  -28.3127  -24.9018   16.1871 C   0  0  1  0  0  0  0  0  0  0  0  0
  -25.3582  -26.0264   18.2941 C   0  0  1  0  0  0  0  0  0  0  0  0
  -27.5018  -13.4836   19.8086 C   0  0  2  0  0  0  0  0  0  0  0  0
  -25.9769  -21.0454   24.9584 C   0  0  1  0  0  0  0  0  0  0  0  0
  -29.6019  -21.8443   22.3058 C   0  0  0  0  0  0  0  0  0  0  0  0
  -24.7306  -20.5880   25.7179 C   0  0  0  0  0  0  0  0  0  0  0  0
  -23.1594  -31.9064   22.8322 C   0  0  0  0  0  0  0  0  0  0  0  0
  -28.4464  -28.7816   20.3515 C   0  0  0  0  0  0  0  0  0  0  0  0
  -27.5000  -30.4504   21.9601 C   0  0  0  0  0  0  0  0  0  0  0  0
  -27.2183  -30.7888   19.5047 C   0  0  0  0  0  0  0  0  0  0  0  0
  -21.0339  -28.9314   21.7796 C   0  0  0  0  0  0  0  0  0  0  0  0
  -25.6469  -22.3070   24.1423 C   0  0  0  0  0  0  0  0  0  1  0  0
  -25.8913  -28.9774   20.6665 C   0  0  1  0  0  0  0  0  0  0  0  0
  -22.7830  -30.7030   21.9819 C   0  0  2  0  0  0  0  0  0  0  0  0
  -27.2552  -29.7225   20.6211 C   0  0  0  0  0  0  0  0  0  0  0  0
  -25.9399  -11.6319   20.2697 N   0  0  0  0  0  0  0  0  0  0  0  0
  -26.1495  -12.9592   20.2537 N   0  0  0  0  0  0  0  0  0  0  0  0
  -27.9554  -20.1736   24.0060 N   0  0  0  0  0  0  0  0  0  0  0  0
  -25.4373  -26.8366   19.5113 N   0  0  0  0  0  0  0  0  0  0  0  0
  -29.7540  -14.1941   20.5111 N   0  0  0  0  0  0  0  0  0  0  0  0
  -25.1118  -15.0408   20.7018 N   0  0  0  0  0  0  0  0  0  0  0  0
  -21.8879  -12.0358   21.6878 N   0  0  0  0  0  0  0  0  0  0  0  0
  -29.6190  -16.1659   21.7980 N   0  0  0  0  0  0  0  0  0  0  0  0
  -27.0359  -25.3776   16.6748 N   0  0  0  0  0  0  0  0  0  0  0  0
  -24.7424  -29.8475   20.8933 N   0  0  0  0  0  0  0  0  0  0  0  0
  -21.5319  -30.1105   22.5338 N   0  3  0  0  0  0  0  0  0  0  0  0
  -29.4973  -21.3483   25.3952 O   0  0  0  0  0  0  0  0  0  0  0  0
  -22.3823  -14.2731   21.5948 O   0  0  0  0  0  0  0  0  0  0  0  0
  -27.4918  -25.2612   18.9553 O   0  0  0  0  0  0  0  0  0  0  0  0
  -25.5251  -28.8430   18.3268 O   0  0  0  0  0  0  0  0  0  0  0  0
  -24.0011  -28.7926   22.8208 O   0  0  0  0  0  0  0  0  0  0  0  0
  -31.4559  -15.7570   20.4414 O   0  0  0  0  0  0  0  0  0  0  0  0
  -22.3216   -6.4951   21.3041 O   0  0  0  0  0  0  0  0  0  0  0  0
  -24.5574  -22.0218   23.2659 O   0  0  0  0  0  0  0  0  0  1  0  0
  -19.4494   -5.5538   25.9159 F   0  0  0  0  0  0  0  0  0  0  0  0
  -31.1784  -20.4910   20.4244 F   0  0  0  0  0  0  0  0  0  0  0  0
  -23.0447   -4.4651   23.0359 F   0  0  0  0  0  0  0  0  0  0  0  0
  1  2  1  0  0  0  0
  1  5  2  0  0  0  0
  2  6  2  0  0  0  0
  3  8  2  0  0  0  0
  3 17  1  0  0  0  0
  4  9  1  0  0  0  0
  4 17  2  0  0  0  0
  5 19  1  0  0  0  0
  6 21  1  0  0  0  0
  7 10  2  0  0  0  0
  7 20  1  0  0  0  0
  8 26  1  0  0  0  0
  9 26  2  0  0  0  0
 10 27  1  0  0  0  0
 11 12  2  0  0  0  0
 11 28  1  0  0  0  0
 12 29  1  0  0  0  0
 13 22  1  0  0  0  0
 13 27  2  0  0  0  0
 14 24  1  0  0  0  0
 14 25  2  0  0  0  0
 15 25  1  0  0  0  0
 15 30  2  0  0  0  0
 16 29  2  0  0  0  0
 16 31  1  0  0  0  0
 17 32  1  0  0  0  0
 18 32  1  0  0  0  0
 18 33  2  0  0  0  0
 18 35  1  0  0  0  0
 19 21  2  0  0  0  0
 19 40  1  0  0  0  0
 20 22  2  0  0  0  0
 20 41  1  0  0  0  0
 21 51  1  0  0  0  0
 22 42  1  0  0  0  0
 23 24  2  0  0  0  0
 23 30  1  0  0  0  0
 23 55  1  0  0  0  0
 24 68  1  0  0  0  0
 25 73  1  0  0  0  0
 26 83  1  0  0  0  0
 27 84  1  0  0  0  0
 28 31  2  0  0  0  0
 28 83  1  0  0  0  0
 29 85  1  0  0  0  0
 30 86  1  0  0  0  0
 31 87  1  0  0  0  0
 32 66  2  0  0  0  0
 33 67  1  0  0  0  0
 33 71  1  0  0  0  0
 34 43  1  0  0  0  0
 34 68  1  0  0  0  0
 34 77  2  0  0  0  0
 35 72  1  0  0  0  0
 35 78  2  0  0  0  0
 36 52  1  0  0  0  0
 36 74  1  0  0  0  0
 36 79  2  0  0  0  0
 37 63  1  0  0  0  0
 37 69  1  0  0  0  0
 37 80  2  0  0  0  0
 38 64  1  0  0  0  0
 38 75  1  0  0  0  0
 38 81  2  0  0  0  0
 39 70  1  0  0  0  0
 39 73  1  0  0  0  0
 39 82  2  0  0  0  0
 40 44  1  0  0  0  0
 41 52  1  0  0  0  0
 42 69  1  0  0  0  0
 43 54  1  0  0  0  0
 44 46  1  0  0  0  0
 45 47  1  0  0  0  0
 45 48  1  0  0  0  0
 46 51  1  0  0  0  0
 47 53  1  0  0  0  0
 48 70  1  0  0  0  0
 49 53  1  0  0  0  0
 49 70  1  0  0  0  0
 50 54  1  0  0  0  0
 50 68  1  0  0  0  0
 51 74  1  0  0  0  0
 52 69  1  0  0  0  0
 53 67  1  0  0  0  0
 54 56  1  0  0  0  0
 54 62  1  0  0  0  0
 57 64  1  0  0  0  0
 58 65  1  0  0  0  0
 59 65  1  0  0  0  0
 60 65  1  0  0  0  0
 61 76  1  0  0  0  0
 62 84  1  0  0  0  0
 63 65  1  0  0  0  0
 63 75  1  0  0  0  0
 64 76  1  0  0  0  0
 66 67  1  0  0  0  0
M  CHG  1  76   1
M  ISO  4  39 100  62 101  73 100  84 101
M  END
> <Batch ID>
0069

> <Smiles>
CNC(C)C(=O)NC(C(=O)N1Cc2cc([101O:1][101CH2:1]C3(C)CC(=O)N(c4cc([100NH:0][100C:0](=O)N5CCCC(n6nc(-c7ccc(Oc8ccc(F)cc8F)cc7)c(C(N)=O)c6N)C5)cc(F)c4C)C3)ccc2CC1C(=O)NC1CCCc2ccccc21)C(C)(C)C

> <Shape>
0.270

> <Color>
0.169

> <Negative vol penalty>
0.000

$$$$

  -OEChem-04042323303D

 82 90  0     1  0  0  0  0  0999 V2000
  -29.3340  -36.7535   22.3452 C   0  0  0  0  0  0  0  0  0  0  0  0
  -29.5532  -35.5033   21.7759 C   0  0  0  0  0  0  0  0  0  0  0  0
  -23.8852  -13.1637   20.1794 C   0  0  0  0  0  0  0  0  0  0  0  0
  -25.8724  -13.7519   21.4212 C   0  0  0  0  0  0  0  0  0  0  0  0
  -28.4368  -36.8885   23.4039 C   0  0  0  0  0  0  0  0  0  0  0  0
  -28.8762  -34.3869   22.2657 C   0  0  0  0  0  0  0  0  0  0  0  0
  -26.8923  -29.5753   19.0379 C   0  0  0  0  0  0  0  0  0  0  0  0
  -24.3475  -11.8532   20.0602 C   0  0  0  0  0  0  0  0  0  0  0  0
  -26.3347  -12.4413   21.3021 C   0  0  0  0  0  0  0  0  0  0  0  0
  -27.4231  -28.3033   18.8282 C   0  0  0  0  0  0  0  0  0  0  0  0
  -24.5055   -9.0822   21.9915 C   0  0  0  0  0  0  0  0  0  0  0  0
  -23.5990   -8.0504   22.2348 C   0  0  0  0  0  0  0  0  0  0  0  0
  -29.5694  -22.3788   21.9342 C   0  0  0  0  0  0  0  0  0  0  0  0
  -26.0483  -27.4419   20.6135 C   0  0  0  0  0  0  0  0  0  0  0  0
  -27.7580  -23.2062   19.9805 C   0  0  0  0  0  0  0  0  0  0  0  0
  -23.9281   -7.2312   19.9858 C   0  0  0  0  0  0  0  0  0  0  0  0
  -24.6476  -14.1131   20.8599 C   0  0  0  0  0  0  0  0  0  0  0  0
  -29.3275  -23.7385   21.7385 C   0  0  0  0  0  0  0  0  0  0  0  0
  -23.3706  -15.9965   22.0130 C   0  0  0  0  0  0  0  0  0  0  0  0
  -27.7412  -35.7749   23.9006 C   0  0  0  0  0  0  0  0  0  0  0  0
  -25.9420  -29.7927   20.0459 C   0  0  0  0  0  0  0  0  0  0  0  0
  -27.9699  -34.5069   23.3329 C   0  0  0  0  0  0  0  0  0  0  0  0
  -25.5052  -28.7172   20.8323 C   0  0  0  0  0  0  0  0  0  0  0  0
  -28.4218  -24.1522   20.7617 C   0  0  0  0  0  0  0  0  0  0  0  0
  -28.0000  -21.8465   20.1762 C   0  0  0  0  0  0  0  0  0  0  0  0
  -25.5723  -11.4919   20.6216 C   0  0  0  0  0  0  0  0  0  0  0  0
  -27.0033  -27.2369   19.6180 C   0  0  0  0  0  0  0  0  0  0  0  0
  -25.1233   -9.1886   20.7454 C   0  0  0  0  0  0  0  0  0  0  0  0
  -23.3103   -7.1249   21.2319 C   0  0  0  0  0  0  0  0  0  0  0  0
  -28.9057  -21.4328   21.1530 C   0  0  0  0  0  0  0  0  0  0  0  0
  -24.8346   -8.2630   19.7426 C   0  0  0  0  0  0  0  0  0  0  0  0
  -24.1708  -15.4673   20.9828 C   0  0  0  0  0  0  0  0  0  0  0  0
  -23.1962  -17.3149   21.6694 C   0  0  0  0  0  0  0  0  0  0  0  0
  -30.0302  -24.7012   22.5619 C   0  0  0  0  0  0  0  0  0  0  0  0
  -22.8331  -15.3540   23.1766 C   0  0  0  0  0  0  0  0  0  0  0  0
  -25.8364  -31.5604   22.6856 C   0  0  0  0  0  0  0  0  0  0  0  0
  -22.7616  -30.5317   22.7839 C   0  0  0  0  0  0  0  0  0  0  0  0
  -20.4645  -28.1753   21.8794 C   0  0  0  0  0  0  0  0  0  0  0  0
  -26.3974  -21.1312   18.3689 C   0  0  0  0  0  0  0  0  0  0  0  0
  -26.8168  -35.9621   25.0775 C   0  0  0  0  0  0  0  0  0  0  0  0
  -25.3594  -31.1656   20.2417 C   0  0  0  0  0  0  0  0  0  0  0  0
  -24.4722  -28.8938   21.9141 C   0  0  0  0  0  0  0  0  0  0  0  0
  -25.8590  -34.7929   25.2917 C   0  0  0  0  0  0  0  0  0  0  0  0
  -23.0020  -20.1946   17.8479 C   0  0  0  0  0  0  0  0  0  0  0  0
  -26.6079  -33.4667   25.2060 C   0  0  0  0  0  0  0  0  0  0  0  0
  -22.8419  -18.9276   18.6912 C   0  0  0  0  0  0  0  0  0  0  0  0
  -24.3818  -20.2719   17.1967 C   0  0  0  0  0  0  0  0  0  0  0  0
  -25.3534  -18.8571   18.9641 C   0  0  0  0  0  0  0  0  0  0  0  0
  -27.2360  -33.2764   23.8201 C   0  0  1  0  0  0  0  0  0  0  0  0
  -24.7772  -31.3742   21.6363 C   0  0  1  0  0  0  0  0  0  0  0  0
  -24.0026  -18.7668   19.6926 C   0  0  2  0  0  0  0  0  0  0  0  0
  -18.0393  -27.5862   22.1408 C   0  0  0  0  0  0  0  0  0  0  0  0
  -23.3019  -29.5817   25.6326 C   0  0  0  0  0  0  0  0  0  0  0  0
  -21.2223  -28.1950   25.4903 C   0  0  0  0  0  0  0  0  0  0  0  0
  -21.0786  -30.6783   25.3027 C   0  0  0  0  0  0  0  0  0  0  0  0
  -19.9916  -28.3354   18.9622 C   0  0  0  0  0  0  0  0  0  0  0  0
  -22.0501  -29.3447   23.3870 C   0  0  1  0  0  0  0  0  0  0  0  0
  -19.0734  -28.3008   21.2848 C   0  0  2  0  0  0  0  0  0  0  0  0
  -21.9341  -29.4466   24.9341 C   0  0  0  0  0  0  0  0  0  0  0  0
  -24.4830  -16.3752   20.0542 N   0  0  0  0  0  0  0  0  0  0  0  0
  -23.8757  -17.4882   20.4996 N   0  0  0  0  0  0  0  0  0  0  0  0
  -23.9372  -30.2564   22.0711 N   0  0  0  0  0  0  0  0  0  0  0  0
  -25.4313  -20.1158   18.2062 N   0  0  0  0  0  0  0  0  0  0  0  0
  -22.5293  -18.3311   22.2567 N   0  0  0  0  0  0  0  0  0  0  0  0
  -29.5022  -25.1124   23.7255 N   0  0  0  0  0  0  0  0  0  0  0  0
  -23.1095  -13.9946   23.3768 N   0  0  0  0  0  0  0  0  0  0  0  0
  -27.3254  -20.8873   19.3808 N   0  0  0  0  0  0  0  0  0  0  0  0
  -28.1662  -25.5135   20.5511 N   0  0  0  0  0  0  0  0  0  1  0  0
  -26.2304  -32.8732   22.8606 N   0  0  0  0  0  0  0  0  0  0  0  0
  -20.7687  -29.2430   22.6972 N   0  0  0  0  0  0  0  0  0  0  0  0
  -31.2174  -25.1903   22.1705 N   0  3  0  0  0  0  0  0  0  0  0  0
  -19.0397  -27.7109   19.9167 N   0  3  0  0  0  0  0  0  0  0  0  0
  -22.1151  -15.9631   24.0054 O   0  0  0  0  0  0  0  0  0  0  0  0
  -26.2634  -30.5853   23.2927 O   0  0  0  0  0  0  0  0  0  0  0  0
  -22.2877  -31.6607   22.9334 O   0  0  0  0  0  0  0  0  0  0  0  0
  -21.2058  -27.2234   21.6449 O   0  0  0  0  0  0  0  0  0  0  0  0
  -26.3849  -22.1551   17.6808 O   0  0  0  0  0  0  0  0  0  0  0  0
  -26.0236  -10.2131   20.5058 O   0  0  0  0  0  0  0  0  0  0  0  0
  -27.5202  -25.9944   19.4159 O   0  0  0  0  0  0  0  0  0  1  0  0
  -22.4409   -6.1331   21.4661 F   0  0  0  0  0  0  0  0  0  0  0  0
  -29.1471  -20.1285   21.3481 F   0  0  0  0  0  0  0  0  0  0  0  0
  -25.4258   -8.3594   18.5439 F   0  0  0  0  0  0  0  0  0  0  0  0
  1  2  1  0  0  0  0
  1  5  2  0  0  0  0
  2  6  2  0  0  0  0
  3  8  2  0  0  0  0
  3 17  1  0  0  0  0
  4  9  1  0  0  0  0
  4 17  2  0  0  0  0
  5 20  1  0  0  0  0
  6 22  1  0  0  0  0
  7 10  2  0  0  0  0
  7 21  1  0  0  0  0
  8 26  1  0  0  0  0
  9 26  2  0  0  0  0
 10 27  1  0  0  0  0
 11 12  2  0  0  0  0
 11 28  1  0  0  0  0
 12 29  1  0  0  0  0
 13 18  1  0  0  0  0
 13 30  2  0  0  0  0
 14 23  1  0  0  0  0
 14 27  2  0  0  0  0
 15 24  1  0  0  0  0
 15 25  2  0  0  0  0
 16 29  2  0  0  0  0
 16 31  1  0  0  0  0
 17 32  1  0  0  0  0
 18 24  2  0  0  0  0
 18 34  1  0  0  0  0
 19 32  1  0  0  0  0
 19 33  2  0  0  0  0
 19 35  1  0  0  0  0
 20 22  2  0  0  0  0
 20 40  1  0  0  0  0
 21 23  2  0  0  0  0
 21 41  1  0  0  0  0
 22 49  1  0  0  0  0
 23 42  1  0  0  0  0
 24 68  1  0  0  0  0
 25 30  1  0  0  0  0
 25 67  1  0  0  0  0
 26 78  1  0  0  0  0
 27 79  1  0  0  0  0
 28 31  2  0  0  0  0
 28 78  1  0  0  0  0
 29 80  1  0  0  0  0
 30 81  1  0  0  0  0
 31 82  1  0  0  0  0
 32 60  2  0  0  0  0
 33 61  1  0  0  0  0
 33 64  1  0  0  0  0
 34 65  1  0  0  0  0
 34 71  2  0  0  0  0
 35 66  1  0  0  0  0
 35 73  2  0  0  0  0
 36 50  1  0  0  0  0
 36 69  1  0  0  0  0
 36 74  2  0  0  0  0
 37 57  1  0  0  0  0
 37 62  1  0  0  0  0
 37 75  2  0  0  0  0
 38 58  1  0  0  0  0
 38 70  1  0  0  0  0
 38 76  2  0  0  0  0
 39 63  1  0  0  0  0
 39 67  1  0  0  0  0
 39 77  2  0  0  0  0
 40 43  1  0  0  0  0
 41 50  1  0  0  0  0
 42 62  1  0  0  0  0
 43 45  1  0  0  0  0
 44 46  1  0  0  0  0
 44 47  1  0  0  0  0
 45 49  1  0  0  0  0
 46 51  1  0  0  0  0
 47 63  1  0  0  0  0
 48 51  1  0  0  0  0
 48 63  1  0  0  0  0
 49 69  1  0  0  0  0
 50 62  1  0  0  0  0
 51 61  1  0  0  0  0
 52 58  1  0  0  0  0
 53 59  1  0  0  0  0
 54 59  1  0  0  0  0
 55 59  1  0  0  0  0
 56 72  1  0  0  0  0
 57 59  1  0  0  0  0
 57 70  1  0  0  0  0
 58 72  1  0  0  0  0
 60 61  1  0  0  0  0
 68 79  1  0  0  0  0
M  CHG  2  71   1  72   1
M  ISO  4  39 100  67 100  68 101  79 101
M  END
> <Batch ID>
0069

> <Smiles>
CNC(C)C(=O)NC(C(=O)N1Cc2cc([101O:1][101NH:1]c3cc([100NH:0][100C:0](=O)N4CCCC(n5nc(-c6ccc(Oc7ccc(F)cc7F)cc6)c(C(N)=O)c5N)C4)c(F)cc3C(=N)N)ccc2CC1C(=O)NC1CCCc2ccccc21)C(C)(C)C

> <Shape>
0.242

> <Color>
0.068

> <Negative vol penalty>
0.000

$$$$

  -OEChem-04042323303D

 88 97  0     1  0  0  0  0  0999 V2000
  -26.7422  -35.0940   13.4714 C   0  0  0  0  0  0  0  0  0  0  0  0
  -26.7411  -33.7730   13.9078 C   0  0  0  0  0  0  0  0  0  0  0  0
  -24.8692  -19.1117   18.0402 C   0  0  0  0  0  0  0  0  0  0  0  0
  -23.3395   -9.5349   19.8676 C   0  0  0  0  0  0  0  0  0  0  0  0
  -24.4786   -9.1112   21.9556 C   0  0  0  0  0  0  0  0  0  0  0  0
  -27.2633  -36.0965   14.2883 C   0  0  0  0  0  0  0  0  0  0  0  0
  -27.2623  -33.4536   15.1611 C   0  0  0  0  0  0  0  0  0  0  0  0
  -25.2657  -29.1002   18.9778 C   0  0  0  0  0  0  0  0  0  0  0  0
  -25.5444  -20.2995   18.3208 C   0  0  0  0  0  0  0  0  0  0  0  0
  -25.2679  -17.9220   18.6496 C   0  0  0  0  0  0  0  0  0  0  0  0
  -22.2093   -8.8752   20.3503 C   0  0  0  0  0  0  0  0  0  0  0  0
  -23.3484   -8.4516   22.4384 C   0  0  0  0  0  0  0  0  0  0  0  0
  -25.7030  -27.8004   19.2291 C   0  0  0  0  0  0  0  0  0  0  0  0
  -21.8990   -5.4163   22.0960 C   0  0  0  0  0  0  0  0  0  0  0  0
  -22.0895   -4.2017   22.7547 C   0  0  0  0  0  0  0  0  0  0  0  0
  -26.9881  -28.6022   21.1065 C   0  0  0  0  0  0  0  0  0  0  0  0
  -27.0173  -19.1079   19.8201 C   0  0  0  0  0  0  0  0  0  0  0  0
  -21.0819   -5.1245   24.7474 C   0  0  0  0  0  0  0  0  0  0  0  0
  -24.4742   -9.6528   20.6702 C   0  0  0  0  0  0  0  0  0  0  0  0
  -26.4051   -9.9944   19.0384 C   0  0  0  0  0  0  0  0  0  0  0  0
  -27.7822  -35.7905   15.5563 C   0  0  0  0  0  0  0  0  0  0  0  0
  -25.6957  -30.1641   19.7837 C   0  0  0  0  0  0  0  0  0  0  0  0
  -27.7920  -34.4528   15.9953 C   0  0  0  0  0  0  0  0  0  0  0  0
  -26.5528  -29.9141   20.8649 C   0  0  0  0  0  0  0  0  0  0  0  0
  -26.6185  -20.2976   19.2107 C   0  0  0  0  0  0  0  0  0  0  0  0
  -26.3420  -17.9201   19.5395 C   0  0  0  0  0  0  0  0  0  0  0  0
  -22.2137   -8.3336   21.6357 C   0  0  0  0  0  0  0  0  0  0  0  0
  -26.5666  -27.5517   20.2918 C   0  0  0  0  0  0  0  0  0  0  0  0
  -21.3000   -6.4851   22.7629 C   0  0  0  0  0  0  0  0  0  0  0  0
  -21.6809   -4.0558   24.0804 C   0  0  0  0  0  0  0  0  0  0  0  0
  -20.8915   -6.3391   24.0885 C   0  0  0  0  0  0  0  0  0  0  0  0
  -25.6422  -10.3336   20.1719 C   0  0  0  0  0  0  0  0  0  0  0  0
  -27.3976  -10.9428   18.9961 C   0  0  0  0  0  0  0  0  0  0  0  0
  -28.6809  -21.5296   19.8380 C   0  0  0  0  0  0  0  0  0  0  0  0
  -26.2319   -8.9182   18.1070 C   0  0  0  0  0  0  0  0  0  0  0  0
  -27.3593  -32.8263   19.2847 C   0  0  0  0  0  0  0  0  0  0  0  0
  -26.5829  -33.4274   22.3763 C   0  0  0  0  0  0  0  0  0  0  0  0
  -25.6736  -32.1973   25.4270 C   0  0  0  0  0  0  0  0  0  0  0  0
  -27.7912  -16.5348   21.0649 C   0  0  0  0  0  0  0  0  0  0  0  0
  -28.3778  -36.9015   16.3843 C   0  0  0  0  0  0  0  0  0  0  0  0
  -25.1936  -31.5564   19.5158 C   0  0  0  0  0  0  0  0  0  0  0  0
  -27.0276  -31.0185   21.7723 C   0  0  0  0  0  0  0  0  0  0  0  0
  -28.5693  -36.5313   17.8528 C   0  0  0  0  0  0  0  0  0  0  0  0
  -29.9545  -13.8174   21.8480 C   0  0  0  0  0  0  0  0  0  0  0  0
  -29.2158  -35.1552   17.9765 C   0  0  0  0  0  0  0  0  0  0  0  0
  -29.1661  -12.5852   21.3983 C   0  0  0  0  0  0  0  0  0  0  0  0
  -29.0420  -14.8883   22.4432 C   0  0  0  0  0  0  0  0  0  0  0  0
  -27.1240  -14.0520   21.1429 C   0  0  0  0  0  0  0  0  0  0  0  0
  -26.6387  -22.7939   19.2096 C   0  0  0  0  0  0  0  0  0  0  0  0
  -28.3258  -34.0700   17.3586 C   0  0  1  0  0  0  0  0  0  0  0  0
  -26.1029  -32.6398   20.0874 C   0  0  1  0  0  0  0  0  0  0  0  0
  -27.9926  -12.9723   20.4771 C   0  0  2  0  0  0  0  0  0  0  0  0
  -27.1229  -23.9251   20.0998 C   0  0  2  0  0  0  0  0  0  0  0  0
  -29.2279  -22.8637   20.3899 C   0  0  2  0  0  0  0  0  0  0  0  0
  -30.6698  -23.0556   19.8989 C   0  0  0  0  0  0  0  0  0  0  0  0
  -29.7574  -24.0373   22.5327 C   0  0  0  0  0  0  0  0  0  0  0  0
  -25.1479  -32.9291   27.7691 C   0  0  0  0  0  0  0  0  0  0  0  0
  -29.5581  -33.8413   22.9122 C   0  0  0  0  0  0  0  0  0  0  0  0
  -29.0767  -33.6214   25.3593 C   0  0  0  0  0  0  0  0  0  0  0  0
  -28.0546  -35.4834   24.0512 C   0  0  0  0  0  0  0  0  0  0  0  0
  -22.9215  -31.1201   25.2697 C   0  0  0  0  0  0  0  0  0  0  0  0
  -26.5210  -25.2568   19.6694 C   0  0  0  0  0  0  0  0  0  1  0  0
  -29.2391  -22.7797   21.9239 C   0  0  0  0  0  0  0  0  0  0  0  0
  -27.2114  -33.1238   23.7149 C   0  0  1  0  0  0  0  0  0  0  0  0
  -24.5797  -32.6113   26.3947 C   0  0  2  0  0  0  0  0  0  0  0  0
  -28.4679  -33.9967   23.9913 C   0  0  0  0  0  0  0  0  0  0  0  0
  -26.1101  -11.4132   20.8041 N   0  0  0  0  0  0  0  0  0  0  0  0
  -27.1777  -11.7605   20.0653 N   0  0  0  0  0  0  0  0  0  0  0  0
  -27.3163  -21.5270   19.5010 N   0  0  0  0  0  0  0  0  0  0  0  0
  -26.5138  -32.3637   21.4655 N   0  0  0  0  0  0  0  0  0  0  0  0
  -27.9564  -15.2072   21.5134 N   0  0  0  0  0  0  0  0  0  0  0  0
  -28.4283  -11.1488   18.1489 N   0  0  0  0  0  0  0  0  0  0  0  0
  -26.8681   -7.6975   18.3707 N   0  0  0  0  0  0  0  0  0  0  0  0
  -26.7465  -16.7113   20.1583 N   0  0  0  0  0  0  0  0  0  0  0  0
  -27.2381  -33.7383   18.2537 N   0  0  0  0  0  0  0  0  0  0  0  0
  -26.1514  -33.2714   24.7064 N   0  0  0  0  0  0  0  0  0  0  0  0
  -23.5774  -31.5183   26.5418 N   0  3  0  0  0  0  0  0  0  0  0  0
  -29.4285  -20.5507   19.7664 O   0  0  0  0  0  0  0  0  0  0  0  0
  -25.5471   -9.0407   17.0632 O   0  0  0  0  0  0  0  0  0  0  0  0
  -28.3647  -32.1908   19.5797 O   0  0  0  0  0  0  0  0  0  0  0  0
  -26.1621  -34.5647   22.1498 O   0  0  0  0  0  0  0  0  0  0  0  0
  -26.0676  -31.0377   25.3235 O   0  0  0  0  0  0  0  0  0  0  0  0
  -28.5398  -17.4428   21.4354 O   0  0  0  0  0  0  0  0  0  0  0  0
  -28.5330  -24.0249   19.9678 O   0  0  0  0  0  0  0  0  0  0  0  0
  -21.1109   -7.6901   22.1072 O   0  0  0  0  0  0  0  0  0  0  0  0
  -26.9955  -26.2840   20.5388 O   0  0  0  0  0  0  0  0  0  1  0  0
  -21.8625   -2.8889   24.7125 F   0  0  0  0  0  0  0  0  0  0  0  0
  -20.3144   -7.3619   24.7341 F   0  0  0  0  0  0  0  0  0  0  0  0
  1  2  1  0  0  0  0
  1  6  2  0  0  0  0
  2  7  2  0  0  0  0
  3  9  2  0  0  0  0
  3 10  1  0  0  0  0
  4 11  2  0  0  0  0
  4 19  1  0  0  0  0
  5 12  1  0  0  0  0
  5 19  2  0  0  0  0
  6 21  1  0  0  0  0
  7 23  1  0  0  0  0
  8 13  2  0  0  0  0
  8 22  1  0  0  0  0
  9 25  1  0  0  0  0
 10 26  2  0  0  0  0
 11 27  1  0  0  0  0
 12 27  2  0  0  0  0
 13 28  1  0  0  0  0
 14 15  2  0  0  0  0
 14 29  1  0  0  0  0
 15 30  1  0  0  0  0
 16 24  1  0  0  0  0
 16 28  2  0  0  0  0
 17 25  2  0  0  0  0
 17 26  1  0  0  0  0
 18 30  2  0  0  0  0
 18 31  1  0  0  0  0
 19 32  1  0  0  0  0
 20 32  1  0  0  0  0
 20 33  2  0  0  0  0
 20 35  1  0  0  0  0
 21 23  2  0  0  0  0
 21 40  1  0  0  0  0
 22 24  2  0  0  0  0
 22 41  1  0  0  0  0
 23 50  1  0  0  0  0
 24 42  1  0  0  0  0
 25 69  1  0  0  0  0
 26 74  1  0  0  0  0
 27 85  1  0  0  0  0
 28 86  1  0  0  0  0
 29 31  2  0  0  0  0
 29 85  1  0  0  0  0
 30 87  1  0  0  0  0
 31 88  1  0  0  0  0
 32 67  2  0  0  0  0
 33 68  1  0  0  0  0
 33 72  1  0  0  0  0
 34 54  1  0  0  0  0
 34 69  1  0  0  0  0
 34 78  2  0  0  0  0
 35 73  1  0  0  0  0
 35 79  2  0  0  0  0
 36 51  1  0  0  0  0
 36 75  1  0  0  0  0
 36 80  2  0  0  0  0
 37 64  1  0  0  0  0
 37 70  1  0  0  0  0
 37 81  2  0  0  0  0
 38 65  1  0  0  0  0
 38 76  1  0  0  0  0
 38 82  2  0  0  0  0
 39 71  1  0  0  0  0
 39 74  1  0  0  0  0
 39 83  2  0  0  0  0
 40 43  1  0  0  0  0
 41 51  1  0  0  0  0
 42 70  1  0  0  0  0
 43 45  1  0  0  0  0
 44 46  1  0  0  0  0
 44 47  1  0  0  0  0
 45 50  1  0  0  0  0
 46 52  1  0  0  0  0
 47 71  1  0  0  0  0
 48 52  1  0  0  0  0
 48 71  1  0  0  0  0
 49 53  1  0  0  0  0
 49 69  1  0  0  0  0
 50 75  1  0  0  0  0
 51 70  1  0  0  0  0
 52 68  1  0  0  0  0
 53 62  1  0  0  0  0
 53 84  1  0  0  0  0
 54 55  1  0  0  0  0
 54 63  1  0  0  0  0
 54 84  1  0  0  0  0
 56 63  1  0  0  0  0
 57 65  1  0  0  0  0
 58 66  1  0  0  0  0
 59 66  1  0  0  0  0
 60 66  1  0  0  0  0
 61 77  1  0  0  0  0
 62 86  1  0  0  0  0
 64 66  1  0  0  0  0
 64 76  1  0  0  0  0
 65 77  1  0  0  0  0
 67 68  1  0  0  0  0
M  CHG  1  77   1
M  ISO  4  39 100  62 101  74 100  86 101
M  END
> <Batch ID>
0069

> <Smiles>
CCC1(C)OC([101CH2:1][101O:1]c2ccc3c(c2)CN(C(=O)C(NC(=O)C(C)NC)C(C)(C)C)C(C(=O)NC2CCCc4ccccc42)C3)CN(c2cccc([100NH:0][100C:0](=O)N3CCCC(n4nc(-c5ccc(Oc6ccc(F)cc6F)cc5)c(C(N)=O)c4N)C3)c2)C1=O

> <Shape>
0.267

> <Color>
0.113

> <Negative vol penalty>
0.000

$$$$

  -OEChem-04042323303D

 84 92  0     1  0  0  0  0  0999 V2000
  -16.4853  -30.1542   23.3283 C   0  0  0  0  0  0  0  0  0  0  0  0
  -17.5580  -30.9202   23.7731 C   0  0  0  0  0  0  0  0  0  0  0  0
  -29.5964  -20.1665   18.5892 C   0  0  0  0  0  0  0  0  0  0  0  0
  -31.5622  -20.7334   19.8743 C   0  0  0  0  0  0  0  0  0  0  0  0
  -16.7000  -28.8541   22.8725 C   0  0  0  0  0  0  0  0  0  0  0  0
  -18.8461  -30.3862   23.7634 C   0  0  0  0  0  0  0  0  0  0  0  0
  -25.6846  -32.3199   22.8624 C   0  0  0  0  0  0  0  0  0  0  0  0
  -29.8781  -18.8106   18.7563 C   0  0  0  0  0  0  0  0  0  0  0  0
  -31.8439  -19.3775   20.0414 C   0  0  0  0  0  0  0  0  0  0  0  0
  -26.9242  -32.2197   23.4926 C   0  0  0  0  0  0  0  0  0  0  0  0
  -29.5235  -16.4721   21.1726 C   0  0  0  0  0  0  0  0  0  0  0  0
  -28.4682  -15.6288   21.5199 C   0  0  0  0  0  0  0  0  0  0  0  0
  -27.1865  -29.9904   22.6091 C   0  0  0  0  0  0  0  0  0  0  0  0
  -31.6327  -30.6253   19.8918 C   0  0  0  0  0  0  0  0  0  0  0  0
  -32.2169  -31.4878   17.7120 C   0  0  0  0  0  0  0  0  0  0  0  0
  -28.8238  -14.3520   19.4999 C   0  0  0  0  0  0  0  0  0  0  0  0
  -30.4385  -21.1279   19.1481 C   0  0  0  0  0  0  0  0  0  0  0  0
  -29.3651  -23.3442   19.8139 C   0  0  0  0  0  0  0  0  0  0  0  0
  -17.9927  -28.3073   22.8482 C   0  0  0  0  0  0  0  0  0  0  0  0
  -25.1809  -31.2501   22.1085 C   0  0  0  0  0  0  0  0  0  0  0  0
  -19.0782  -29.0772   23.3081 C   0  0  0  0  0  0  0  0  0  0  0  0
  -25.9414  -30.0805   21.9682 C   0  0  0  0  0  0  0  0  0  0  0  0
  -31.9202  -30.4085   18.5443 C   0  0  0  0  0  0  0  0  0  0  0  0
  -31.6418  -31.9215   20.4072 C   0  0  0  0  0  0  0  0  0  0  0  0
  -31.9385  -33.0008   19.5749 C   0  0  0  0  0  0  0  0  0  0  0  0
  -31.0018  -18.4161   19.4824 C   0  0  0  0  0  0  0  0  0  0  0  0
  -27.6741  -31.0538   23.3684 C   0  0  0  0  0  0  0  0  0  0  0  0
  -30.2290  -16.2555   19.9889 C   0  0  0  0  0  0  0  0  0  0  0  0
  -28.1184  -14.5687   20.6836 C   0  0  0  0  0  0  0  0  0  0  0  0
  -32.2261  -32.7840   18.2273 C   0  0  0  0  0  0  0  0  0  0  0  0
  -29.8791  -15.1954   19.1526 C   0  0  0  0  0  0  0  0  0  0  0  0
  -30.1483  -22.5286   18.9754 C   0  0  0  0  0  0  0  0  0  0  0  0
  -29.3987  -24.5814   19.2184 C   0  0  0  0  0  0  0  0  0  0  0  0
  -28.6695  -23.0131   21.0231 C   0  0  0  0  0  0  0  0  0  0  0  0
  -22.6226  -29.3741   22.3074 C   0  0  0  0  0  0  0  0  0  0  0  0
  -23.7025  -28.2575   19.4597 C   0  0  0  0  0  0  0  0  0  0  0  0
  -31.5869  -31.2400   22.8313 C   0  0  0  0  0  0  0  0  0  0  0  0
  -26.3342  -27.8069   17.3341 C   0  0  0  0  0  0  0  0  0  0  0  0
  -32.1726  -28.7043   16.7063 C   0  0  0  0  0  0  0  0  0  0  0  0
  -18.1690  -26.8809   22.3911 C   0  0  0  0  0  0  0  0  0  0  0  0
  -23.8540  -31.3840   21.4129 C   0  0  0  0  0  0  0  0  0  0  0  0
  -25.4546  -28.9111   21.1534 C   0  0  0  0  0  0  0  0  0  0  0  0
  -19.6156  -26.5212   22.0619 C   0  0  0  0  0  0  0  0  0  0  0  0
  -31.0870  -25.9989   14.6618 C   0  0  0  0  0  0  0  0  0  0  0  0
  -20.5517  -27.0150   23.1604 C   0  0  0  0  0  0  0  0  0  0  0  0
  -30.6816  -24.9220   15.6708 C   0  0  0  0  0  0  0  0  0  0  0  0
  -32.3088  -26.7860   15.1325 C   0  0  0  0  0  0  0  0  0  0  0  0
  -31.7905  -26.2839   17.4881 C   0  0  0  0  0  0  0  0  0  0  0  0
  -20.4935  -28.5419   23.2897 C   0  0  1  0  0  0  0  0  0  0  0  0
  -23.2082  -30.0392   21.0939 C   0  0  1  0  0  0  0  0  0  0  0  0
  -30.5252  -25.5077   17.0878 C   0  0  2  0  0  0  0  0  0  0  0  0
  -26.9145  -26.8292   15.0970 C   0  0  0  0  0  0  0  0  0  0  0  0
  -23.5908  -25.4539   20.6587 C   0  0  0  0  0  0  0  0  0  0  0  0
  -25.0410  -24.6665   18.7759 C   0  0  0  0  0  0  0  0  0  0  0  0
  -22.7827  -25.6116   18.2972 C   0  0  0  0  0  0  0  0  0  0  0  0
  -27.2072  -30.4324   16.2835 C   0  0  0  0  0  0  0  0  0  0  0  0
  -31.1133  -31.8453   24.1479 C   0  0  0  0  0  0  0  0  0  0  0  0
  -29.6250  -32.1598   24.1599 C   0  0  0  0  0  0  0  0  0  1  0  0
  -24.6437  -27.1582   19.0299 C   0  0  1  0  0  0  0  0  0  0  0  0
  -26.4876  -28.0804   15.8488 C   0  0  2  0  0  0  0  0  0  0  0  0
  -24.0231  -25.7437   19.2074 C   0  0  0  0  0  0  0  0  0  0  0  0
  -30.6431  -23.1917   17.9269 N   0  0  0  0  0  0  0  0  0  0  0  0
  -30.1696  -24.4372   18.1025 N   0  0  0  0  0  0  0  0  0  0  0  0
  -24.1484  -29.0880   20.4976 N   0  0  0  0  0  0  0  0  0  0  0  0
  -32.0865  -27.3142   16.4803 N   0  0  0  0  0  0  0  0  0  0  0  0
  -31.9520  -34.3215   20.0778 N   0  0  0  0  0  0  0  0  0  0  0  0
  -28.8436  -25.7677   19.5455 N   0  0  0  0  0  0  0  0  0  0  0  0
  -28.7401  -21.6953   21.4951 N   0  0  0  0  0  0  0  0  0  0  0  0
  -31.3464  -32.1173   21.7773 N   0  0  0  0  0  0  0  0  0  0  0  0
  -31.9099  -29.0923   18.0197 N   0  0  0  0  0  0  0  0  0  0  0  0
  -21.2583  -29.1681   22.2327 N   0  0  0  0  0  0  0  0  0  0  0  0
  -25.0375  -27.4703   17.6602 N   0  0  0  0  0  0  0  0  0  0  0  0
  -27.5117  -29.1386   15.6200 N   0  3  0  0  0  0  0  0  0  0  0  0
  -27.9916  -23.8569   21.6572 O   0  0  0  0  0  0  0  0  0  0  0  0
  -23.3546  -29.0691   23.2416 O   0  0  0  0  0  0  0  0  0  0  0  0
  -22.6150  -28.3794   18.8905 O   0  0  0  0  0  0  0  0  0  0  0  0
  -32.1010  -30.1281   22.7716 O   0  0  0  0  0  0  0  0  0  0  0  0
  -27.2718  -27.8807   18.1253 O   0  0  0  0  0  0  0  0  0  0  0  0
  -32.4315  -29.4950   15.7954 O   0  0  0  0  0  0  0  0  0  0  0  0
  -31.2769  -17.0932   19.6459 O   0  0  0  0  0  0  0  0  0  0  0  0
  -28.8840  -30.9532   23.9830 O   0  0  0  0  0  0  0  0  0  1  0  0
  -27.1059  -13.7579   21.0180 F   0  0  0  0  0  0  0  0  0  0  0  0
  -32.5117  -33.8136   17.4175 F   0  0  0  0  0  0  0  0  0  0  0  0
  -30.5539  -14.9815   18.0147 F   0  0  0  0  0  0  0  0  0  0  0  0
  1  2  1  0  0  0  0
  1  5  2  0  0  0  0
  2  6  2  0  0  0  0
  3  8  2  0  0  0  0
  3 17  1  0  0  0  0
  4  9  1  0  0  0  0
  4 17  2  0  0  0  0
  5 19  1  0  0  0  0
  6 21  1  0  0  0  0
  7 10  2  0  0  0  0
  7 20  1  0  0  0  0
  8 26  1  0  0  0  0
  9 26  2  0  0  0  0
 10 27  1  0  0  0  0
 11 12  2  0  0  0  0
 11 28  1  0  0  0  0
 12 29  1  0  0  0  0
 13 22  1  0  0  0  0
 13 27  2  0  0  0  0
 14 23  2  0  0  0  0
 14 24  1  0  0  0  0
 15 23  1  0  0  0  0
 15 30  2  0  0  0  0
 16 29  2  0  0  0  0
 16 31  1  0  0  0  0
 17 32  1  0  0  0  0
 18 32  1  0  0  0  0
 18 33  2  0  0  0  0
 18 34  1  0  0  0  0
 19 21  2  0  0  0  0
 19 40  1  0  0  0  0
 20 22  2  0  0  0  0
 20 41  1  0  0  0  0
 21 49  1  0  0  0  0
 22 42  1  0  0  0  0
 23 70  1  0  0  0  0
 24 25  2  0  0  0  0
 24 69  1  0  0  0  0
 25 30  1  0  0  0  0
 25 66  1  0  0  0  0
 26 80  1  0  0  0  0
 27 81  1  0  0  0  0
 28 31  2  0  0  0  0
 28 80  1  0  0  0  0
 29 82  1  0  0  0  0
 30 83  1  0  0  0  0
 31 84  1  0  0  0  0
 32 62  2  0  0  0  0
 33 63  1  0  0  0  0
 33 67  1  0  0  0  0
 34 68  1  0  0  0  0
 34 74  2  0  0  0  0
 35 50  1  0  0  0  0
 35 71  1  0  0  0  0
 35 75  2  0  0  0  0
 36 59  1  0  0  0  0
 36 64  1  0  0  0  0
 36 76  2  0  0  0  0
 37 57  1  0  0  0  0
 37 69  1  0  0  0  0
 37 77  2  0  0  0  0
 38 60  1  0  0  0  0
 38 72  1  0  0  0  0
 38 78  2  0  0  0  0
 39 65  1  0  0  0  0
 39 70  1  0  0  0  0
 39 79  2  0  0  0  0
 40 43  1  0  0  0  0
 41 50  1  0  0  0  0
 42 64  1  0  0  0  0
 43 45  1  0  0  0  0
 44 46  1  0  0  0  0
 44 47  1  0  0  0  0
 45 49  1  0  0  0  0
 46 51  1  0  0  0  0
 47 65  1  0  0  0  0
 48 51  1  0  0  0  0
 48 65  1  0  0  0  0
 49 71  1  0  0  0  0
 50 64  1  0  0  0  0
 51 63  1  0  0  0  0
 52 60  1  0  0  0  0
 53 61  1  0  0  0  0
 54 61  1  0  0  0  0
 55 61  1  0  0  0  0
 56 73  1  0  0  0  0
 57 58  1  0  0  0  0
 58 81  1  0  0  0  0
 59 61  1  0  0  0  0
 59 72  1  0  0  0  0
 60 73  1  0  0  0  0
 62 63  1  0  0  0  0
M  CHG  1  73   1
M  ISO  4  39 100  58 101  70 100  81 101
M  END
> <Batch ID>
0069

> <Smiles>
CNC(C)C(=O)NC(C(=O)N1Cc2cc([101O:1][101CH2:1]CC(=O)Nc3cc([100NH:0][100C:0](=O)N4CCCC(n5nc(-c6ccc(Oc7ccc(F)cc7F)cc6)c(C(N)=O)c5N)C4)cc(F)c3N)ccc2CC1C(=O)NC1CCCc2ccccc21)C(C)(C)C

> <Shape>
0.260

> <Color>
0.098

> <Negative vol penalty>
0.000

$$$$

  -OEChem-04042323303D

 91100  0     1  0  0  0  0  0999 V2000
  -23.2910   -7.9020   24.3530 C   0  0  0  0  0  0  0  0  0  0  0  0
  -24.3958   -8.7086   24.6066 C   0  0  0  0  0  0  0  0  0  0  0  0
  -24.8160  -31.7509   23.8546 C   0  0  0  0  0  0  0  0  0  0  0  0
  -26.8675  -31.9449   22.5933 C   0  0  0  0  0  0  0  0  0  0  0  0
  -22.6608   -7.9555   23.1105 C   0  0  0  0  0  0  0  0  0  0  0  0
  -24.8717   -9.5684   23.6173 C   0  0  0  0  0  0  0  0  0  0  0  0
  -28.0111  -15.9567   22.8106 C   0  0  0  0  0  0  0  0  0  0  0  0
  -25.3089  -32.6550   24.7954 C   0  0  0  0  0  0  0  0  0  0  0  0
  -27.3604  -32.8491   23.5341 C   0  0  0  0  0  0  0  0  0  0  0  0
  -29.1121  -16.5450   22.1896 C   0  0  0  0  0  0  0  0  0  0  0  0
  -29.0161  -35.4845   25.4134 C   0  0  0  0  0  0  0  0  0  0  0  0
  -29.6451  -36.6358   24.9399 C   0  0  0  0  0  0  0  0  0  0  0  0
  -30.1681  -25.5448   18.8110 C   0  0  0  0  0  0  0  0  0  0  0  0
  -27.8951  -16.6108   20.1078 C   0  0  0  0  0  0  0  0  0  0  0  0
  -29.7105  -23.3660   19.7492 C   0  0  0  0  0  0  0  0  0  0  0  0
  -27.6128  -37.2783   23.8023 C   0  0  0  0  0  0  0  0  0  0  0  0
  -25.5953  -31.3958   22.7536 C   0  0  0  0  0  0  0  0  0  0  0  0
  -31.4802  -25.1543   18.5438 C   0  0  0  0  0  0  0  0  0  0  0  0
  -24.3462  -30.7594   20.6223 C   0  0  0  0  0  0  0  0  0  0  0  0
  -23.1233   -8.8235   22.1088 C   0  0  0  0  0  0  0  0  0  0  0  0
  -26.8458  -15.6805   22.0810 C   0  0  0  0  0  0  0  0  0  0  0  0
  -24.2479   -9.6326   22.3598 C   0  0  0  0  0  0  0  0  0  0  0  0
  -26.7798  -16.0212   20.7225 C   0  0  0  0  0  0  0  0  0  0  0  0
  -31.0227  -22.9753   19.4819 C   0  0  0  0  0  0  0  0  0  0  0  0
  -29.2833  -24.6507   19.4137 C   0  0  0  0  0  0  0  0  0  0  0  0
  -26.5810  -33.2042   24.6352 C   0  0  0  0  0  0  0  0  0  0  0  0
  -29.0552  -16.8695   20.8374 C   0  0  0  0  0  0  0  0  0  0  0  0
  -27.6855  -35.2299   25.0813 C   0  0  0  0  0  0  0  0  0  0  0  0
  -28.9435  -37.5328   24.1344 C   0  0  0  0  0  0  0  0  0  0  0  0
  -26.9838  -36.1268   24.2758 C   0  0  0  0  0  0  0  0  0  0  0  0
  -31.9075  -23.8695   18.8792 C   0  0  0  0  0  0  0  0  0  0  0  0
  -25.0870  -30.4613   21.7817 C   0  0  0  0  0  0  0  0  0  0  0  0
  -24.1072  -29.5368   20.0438 C   0  0  0  0  0  0  0  0  0  0  0  0
  -30.6635  -20.4967   19.8775 C   0  0  0  0  0  0  0  0  0  0  0  0
  -32.3958  -26.0837   17.9205 C   0  0  0  0  0  0  0  0  0  0  0  0
  -23.9130  -32.0280   20.1136 C   0  0  0  0  0  0  0  0  0  0  0  0
  -25.2392  -13.0413   21.3347 C   0  0  0  0  0  0  0  0  0  0  0  0
  -23.1056  -15.1546   20.1083 C   0  0  0  0  0  0  0  0  0  0  0  0
  -34.5525  -27.3500   18.1240 C   0  0  0  0  0  0  0  0  0  0  0  0
  -22.5133  -18.2658   18.8367 C   0  0  0  0  0  0  0  0  0  0  0  0
  -26.9461  -24.2842   20.2795 C   0  0  0  0  0  0  0  0  0  0  0  0
  -22.4383   -8.8119   20.7652 C   0  0  0  0  0  0  0  0  0  0  0  0
  -25.6574  -15.0700   22.7719 C   0  0  0  0  0  0  0  0  0  0  0  0
  -25.5449  -15.7640   19.8995 C   0  0  0  0  0  0  0  0  0  0  0  0
  -22.7757  -10.0227   19.8990 C   0  0  0  0  0  0  0  0  0  0  0  0
  -23.5527  -24.9119   21.1561 C   0  0  0  0  0  0  0  0  0  0  0  0
  -24.2790  -10.2814   19.9054 C   0  0  0  0  0  0  0  0  0  0  0  0
  -23.4922  -26.4339   21.3045 C   0  0  0  0  0  0  0  0  0  0  0  0
  -32.7954  -20.0129   20.8185 C   0  0  0  0  0  0  0  0  0  0  0  0
  -24.8796  -24.3454   21.6583 C   0  0  0  0  0  0  0  0  0  0  0  0
  -32.8450  -21.3629   20.1315 C   0  0  0  0  0  0  0  0  0  0  0  0
  -26.0178  -26.4875   21.2278 C   0  0  0  0  0  0  0  0  0  0  0  0
  -24.7786  -10.5962   21.3206 C   0  0  1  0  0  0  0  0  0  0  0  0
  -31.6006  -19.3345   20.1640 C   0  0  1  0  0  0  0  0  0  0  0  0
  -24.7062  -14.3628   21.8114 C   0  0  1  0  0  0  0  0  0  0  0  0
  -24.7256  -27.1110   20.6753 C   0  0  2  0  0  0  0  0  0  0  0  0
  -35.6774  -27.5130   19.0988 C   0  0  0  0  0  0  0  0  0  0  0  0
  -20.6780  -19.6882   17.8850 C   0  0  0  0  0  0  0  0  0  0  0  0
  -23.2689  -13.6057   17.4846 C   0  0  0  0  0  0  0  0  0  0  0  0
  -22.2055  -15.5638   16.3430 C   0  0  0  0  0  0  0  0  0  0  0  0
  -20.9637  -14.3350   18.1237 C   0  0  0  0  0  0  0  0  0  0  0  0
  -22.7964  -20.2759   20.9903 C   0  0  0  0  0  0  0  0  0  0  0  0
  -30.9708  -18.2648   21.0361 C   0  0  0  0  0  0  0  0  0  1  0  0
  -22.9081  -15.8176   18.7665 C   0  0  1  0  0  0  0  0  0  0  0  0
  -21.4356  -19.2904   19.1421 C   0  0  2  0  0  0  0  0  0  0  0  0
  -22.3607  -14.8337   17.6942 C   0  0  0  0  0  0  0  0  0  0  0  0
  -25.3041  -29.1521   21.9325 N   0  0  0  0  0  0  0  0  0  0  0  0
  -24.6961  -28.6166   20.8603 N   0  0  0  0  0  0  0  0  0  0  0  0
  -31.4575  -21.6611   19.8289 N   0  0  0  0  0  0  0  0  0  0  0  0
  -24.4114  -15.1597   20.6188 N   0  0  0  0  0  0  0  0  0  0  0  0
  -26.0026  -25.0316   21.0157 N   0  0  0  0  0  0  0  0  0  0  0  0
  -23.4527  -29.1699   18.9215 N   0  0  0  0  0  0  0  0  0  0  0  0
  -24.2446  -33.1846   20.8324 N   0  0  0  0  0  0  0  0  0  0  0  0
  -27.9508  -25.0481   19.6866 N   0  0  0  0  0  0  0  0  0  0  0  0
  -33.5299  -26.4366   18.5734 N   0  0  0  0  0  0  0  0  0  0  0  0
  -24.4520  -11.9595   21.6802 N   0  0  0  0  0  0  0  0  0  0  0  0
  -22.0546  -16.9764   19.0053 N   0  0  0  0  0  0  0  0  0  0  0  0
  -32.0974  -26.5742   16.7014 N   0  3  0  0  0  0  0  0  0  0  0  0
  -22.0401  -20.5170   19.7345 N   0  3  0  0  0  0  0  0  0  0  0  0
  -29.4660  -20.3569   19.6751 O   0  0  0  0  0  0  0  0  0  0  0  0
  -23.2373  -32.1314   19.0618 O   0  0  0  0  0  0  0  0  0  0  0  0
  -26.2863  -13.0060   20.6991 O   0  0  0  0  0  0  0  0  0  0  0  0
  -22.1356  -14.6572   20.6856 O   0  0  0  0  0  0  0  0  0  0  0  0
  -34.4832  -27.9235   17.0462 O   0  0  0  0  0  0  0  0  0  0  0  0
  -23.6473  -18.5779   18.4803 O   0  0  0  0  0  0  0  0  0  0  0  0
  -26.8531  -23.0599   20.1596 O   0  0  0  0  0  0  0  0  0  0  0  0
  -27.0622  -34.0867   25.5529 O   0  0  0  0  0  0  0  0  0  0  0  0
  -30.1286  -17.4432   20.2286 O   0  0  0  0  0  0  0  0  0  1  0  0
  -29.5472  -38.6392   23.6810 F   0  0  0  0  0  0  0  0  0  0  0  0
  -25.7049  -35.8882   23.9545 F   0  0  0  0  0  0  0  0  0  0  0  0
  -33.1696  -23.4949   18.6205 F   0  0  0  0  0  0  0  0  0  0  0  0
  1  2  1  0  0  0  0
  1  5  2  0  0  0  0
  2  6  2  0  0  0  0
  3  8  2  0  0  0  0
  3 17  1  0  0  0  0
  4  9  1  0  0  0  0
  4 17  2  0  0  0  0
  5 20  1  0  0  0  0
  6 22  1  0  0  0  0
  7 10  2  0  0  0  0
  7 21  1  0  0  0  0
  8 26  1  0  0  0  0
  9 26  2  0  0  0  0
 10 27  1  0  0  0  0
 11 12  2  0  0  0  0
 11 28  1  0  0  0  0
 12 29  1  0  0  0  0
 13 18  2  0  0  0  0
 13 25  1  0  0  0  0
 14 23  1  0  0  0  0
 14 27  2  0  0  0  0
 15 24  1  0  0  0  0
 15 25  2  0  0  0  0
 16 29  2  0  0  0  0
 16 30  1  0  0  0  0
 17 32  1  0  0  0  0
 18 31  1  0  0  0  0
 18 35  1  0  0  0  0
 19 32  1  0  0  0  0
 19 33  2  0  0  0  0
 19 36  1  0  0  0  0
 20 22  2  0  0  0  0
 20 42  1  0  0  0  0
 21 23  2  0  0  0  0
 21 43  1  0  0  0  0
 22 53  1  0  0  0  0
 23 44  1  0  0  0  0
 24 31  2  0  0  0  0
 24 69  1  0  0  0  0
 25 74  1  0  0  0  0
 26 87  1  0  0  0  0
 27 88  1  0  0  0  0
 28 30  2  0  0  0  0
 28 87  1  0  0  0  0
 29 89  1  0  0  0  0
 30 90  1  0  0  0  0
 31 91  1  0  0  0  0
 32 67  2  0  0  0  0
 33 68  1  0  0  0  0
 33 72  1  0  0  0  0
 34 54  1  0  0  0  0
 34 69  1  0  0  0  0
 34 80  2  0  0  0  0
 35 75  1  0  0  0  0
 35 78  2  0  0  0  0
 36 73  1  0  0  0  0
 36 81  2  0  0  0  0
 37 55  1  0  0  0  0
 37 76  1  0  0  0  0
 37 82  2  0  0  0  0
 38 64  1  0  0  0  0
 38 70  1  0  0  0  0
 38 83  2  0  0  0  0
 39 57  1  0  0  0  0
 39 75  1  0  0  0  0
 39 84  2  0  0  0  0
 40 65  1  0  0  0  0
 40 77  1  0  0  0  0
 40 85  2  0  0  0  0
 41 71  1  0  0  0  0
 41 74  1  0  0  0  0
 41 86  2  0  0  0  0
 42 45  1  0  0  0  0
 43 55  1  0  0  0  0
 44 70  1  0  0  0  0
 45 47  1  0  0  0  0
 46 48  1  0  0  0  0
 46 50  1  0  0  0  0
 47 53  1  0  0  0  0
 48 56  1  0  0  0  0
 49 51  1  0  0  0  0
 49 54  1  0  0  0  0
 50 71  1  0  0  0  0
 51 69  1  0  0  0  0
 52 56  1  0  0  0  0
 52 71  1  0  0  0  0
 53 76  1  0  0  0  0
 54 63  1  0  0  0  0
 55 70  1  0  0  0  0
 56 68  1  0  0  0  0
 58 65  1  0  0  0  0
 59 66  1  0  0  0  0
 60 66  1  0  0  0  0
 61 66  1  0  0  0  0
 62 79  1  0  0  0  0
 63 88  1  0  0  0  0
 64 66  1  0  0  0  0
 64 77  1  0  0  0  0
 65 79  1  0  0  0  0
 67 68  1  0  0  0  0
M  CHG  2  78   1  79   1
M  ISO  4  41 100  63 101  74 100  88 101
M  END
> <Batch ID>
0069

> <Smiles>
CNC(C)C(=O)NC(C(=O)N1Cc2cc([101O:1][101CH2:1]C3CCN(c4cc([100NH:0][100C:0](=O)N5CCCC(n6nc(-c7ccc(Oc8ccc(F)cc8F)cc7)c(C(N)=O)c6N)C5)cc(C(=N)NC(C)=O)c4F)C3=O)ccc2CC1C(=O)NC1CCCc2ccccc21)C(C)(C)C

> <Shape>
0.249

> <Color>
0.079

> <Negative vol penalty>
0.000

$$$$

  -OEChem-04042323303D

 89 98  0     1  0  0  0  0  0999 V2000
  -28.8357  -35.3738   15.7688 C   0  0  0  0  0  0  0  0  0  0  0  0
  -28.5567  -34.0111   15.7405 C   0  0  0  0  0  0  0  0  0  0  0  0
  -24.8542   -8.6195   21.5353 C   0  0  0  0  0  0  0  0  0  0  0  0
  -23.2304  -10.0406   20.4486 C   0  0  0  0  0  0  0  0  0  0  0  0
  -29.0847  -36.0081   16.9852 C   0  0  0  0  0  0  0  0  0  0  0  0
  -28.5277  -33.2817   16.9286 C   0  0  0  0  0  0  0  0  0  0  0  0
  -24.8621  -28.5602   18.2612 C   0  0  0  0  0  0  0  0  0  0  0  0
  -23.8637   -8.1455   22.3954 C   0  0  0  0  0  0  0  0  0  0  0  0
  -22.2399   -9.5665   21.3087 C   0  0  0  0  0  0  0  0  0  0  0  0
  -25.0591  -27.1805   18.2252 C   0  0  0  0  0  0  0  0  0  0  0  0
  -21.3233   -5.9170   22.2813 C   0  0  0  0  0  0  0  0  0  0  0  0
  -21.2654   -4.5419   22.5079 C   0  0  0  0  0  0  0  0  0  0  0  0
  -25.5864  -27.2005   20.5791 C   0  0  0  0  0  0  0  0  0  0  0  0
  -25.0158  -19.8618   18.2438 C   0  0  0  0  0  0  0  0  0  0  0  0
  -26.9596  -18.6245   18.9702 C   0  0  0  0  0  0  0  0  0  0  0  0
  -21.6272   -4.9156   24.8673 C   0  0  0  0  0  0  0  0  0  0  0  0
  -24.5376   -9.5671   20.5619 C   0  0  0  0  0  0  0  0  0  0  0  0
  -25.9289   -9.5236   18.4241 C   0  0  0  0  0  0  0  0  0  0  0  0
  -29.0492  -35.2880   18.1897 C   0  0  0  0  0  0  0  0  0  0  0  0
  -25.0367  -29.2732   19.4560 C   0  0  0  0  0  0  0  0  0  0  0  0
  -28.7778  -33.9067   18.1621 C   0  0  0  0  0  0  0  0  0  0  0  0
  -25.3885  -28.5889   20.6281 C   0  0  0  0  0  0  0  0  0  0  0  0
  -26.2605  -19.8276   18.8723 C   0  0  0  0  0  0  0  0  0  0  0  0
  -24.4700  -18.6929   17.7133 C   0  0  0  0  0  0  0  0  0  0  0  0
  -26.4138  -17.4556   18.4396 C   0  0  0  0  0  0  0  0  0  0  0  0
  -22.5566   -8.6189   22.2821 C   0  0  0  0  0  0  0  0  0  0  0  0
  -25.4241  -26.5008   19.3836 C   0  0  0  0  0  0  0  0  0  0  0  0
  -21.5333   -6.7914   23.3476 C   0  0  0  0  0  0  0  0  0  0  0  0
  -21.4173   -4.0412   23.8009 C   0  0  0  0  0  0  0  0  0  0  0  0
  -21.6852   -6.2907   24.6406 C   0  0  0  0  0  0  0  0  0  0  0  0
  -25.1690  -17.4898   17.8111 C   0  0  0  0  0  0  0  0  0  0  0  0
  -25.5604  -10.0576   19.6734 C   0  0  0  0  0  0  0  0  0  0  0  0
  -26.9393  -10.3436   17.9847 C   0  0  0  0  0  0  0  0  0  0  0  0
  -28.0593  -21.1471   20.0768 C   0  0  0  0  0  0  0  0  0  0  0  0
  -25.4046   -8.3879   17.7234 C   0  0  0  0  0  0  0  0  0  0  0  0
  -26.9804  -31.5971   20.4178 C   0  0  0  0  0  0  0  0  0  0  0  0
  -25.1290  -31.5128   23.0800 C   0  0  0  0  0  0  0  0  0  0  0  0
  -23.0182  -29.7329   25.0858 C   0  0  0  0  0  0  0  0  0  0  0  0
  -28.3722  -16.0301   19.1317 C   0  0  0  0  0  0  0  0  0  0  0  0
  -29.3715  -36.0076   19.4754 C   0  0  0  0  0  0  0  0  0  0  0  0
  -24.7943  -30.7574   19.4841 C   0  0  0  0  0  0  0  0  0  0  0  0
  -25.5687  -29.3050   21.9408 C   0  0  0  0  0  0  0  0  0  0  0  0
  -28.9525  -35.2383   20.7255 C   0  0  0  0  0  0  0  0  0  0  0  0
  -30.4419  -13.1735   19.6149 C   0  0  0  0  0  0  0  0  0  0  0  0
  -29.3845  -33.7789   20.6241 C   0  0  0  0  0  0  0  0  0  0  0  0
  -29.4593  -12.0013   19.5650 C   0  0  0  0  0  0  0  0  0  0  0  0
  -29.8330  -14.3950   20.3012 C   0  0  0  0  0  0  0  0  0  0  0  0
  -27.5577  -13.6596   19.7087 C   0  0  0  0  0  0  0  0  0  0  0  0
  -26.1069  -22.2901   19.3831 C   0  0  0  0  0  0  0  0  0  0  0  0
  -28.7129  -33.0863   19.4321 C   0  0  1  0  0  0  0  0  0  0  0  0
  -25.5012  -31.4565   20.6412 C   0  0  1  0  0  0  0  0  0  0  0  0
  -28.1034  -12.4275   18.9687 C   0  0  2  0  0  0  0  0  0  0  0  0
  -28.1538  -22.5804   20.6140 C   0  0  0  0  0  0  0  0  0  0  0  0
  -27.1866  -23.3485   19.6590 C   0  0  1  0  0  0  0  0  0  0  0  0
  -29.6028  -23.0788   20.5896 C   0  0  0  0  0  0  0  0  0  0  0  0
  -27.6748  -22.5379   22.0792 C   0  0  0  0  0  0  0  0  0  0  0  0
  -27.8555  -23.7454   18.3223 C   0  0  0  0  0  0  0  0  0  0  0  0
  -21.6961  -29.9183   27.2107 C   0  0  0  0  0  0  0  0  0  0  0  0
  -27.6932  -31.1860   24.7010 C   0  0  0  0  0  0  0  0  0  0  0  0
  -26.2922  -30.4354   26.6354 C   0  0  0  0  0  0  0  0  0  0  0  0
  -26.0104  -32.7355   25.7118 C   0  0  0  0  0  0  0  0  0  0  0  0
  -20.4582  -29.2906   23.6682 C   0  0  0  0  0  0  0  0  0  0  0  0
  -26.5659  -24.6120   20.2694 C   0  0  0  0  0  0  0  0  0  1  0  0
  -25.1672  -30.7553   24.3852 C   0  0  1  0  0  0  0  0  0  0  0  0
  -21.6752  -30.0856   25.6993 C   0  0  2  0  0  0  0  0  0  0  0  0
  -26.2893  -31.2645   25.3334 C   0  0  0  0  0  0  0  0  0  0  0  0
  -26.2784  -11.1336   20.0063 N   0  0  0  0  0  0  0  0  0  0  0  0
  -27.1083  -11.2822   18.9597 N   0  0  0  0  0  0  0  0  0  0  0  0
  -26.8192  -21.0238   19.4166 N   0  0  0  0  0  0  0  0  0  0  0  0
  -25.3265  -30.7570   21.9157 N   0  0  0  0  0  0  0  0  0  0  0  0
  -28.5529  -14.7429   19.6807 N   0  0  0  0  0  0  0  0  0  0  0  0
  -23.2117  -18.7308   17.0767 N   0  0  0  0  0  0  0  0  0  0  0  0
  -27.6909  -10.3461   16.8633 N   0  0  0  0  0  0  0  0  0  0  0  0
  -24.3675   -7.6563   18.3180 N   0  0  0  0  0  0  0  0  0  0  0  0
  -27.1262  -16.2348   18.5400 N   0  0  0  0  0  0  0  0  0  0  0  0
  -27.3412  -32.7515   19.7493 N   0  0  0  0  0  0  0  0  0  0  0  0
  -23.8240  -30.8432   24.9478 N   0  0  0  0  0  0  0  0  0  0  0  0
  -20.6057  -29.2087   25.1442 N   0  3  0  0  0  0  0  0  0  0  0  0
  -28.9169  -20.2992   20.2830 O   0  0  0  0  0  0  0  0  0  0  0  0
  -25.8539   -8.0226   16.6107 O   0  0  0  0  0  0  0  0  0  0  0  0
  -27.7384  -30.7238   20.8232 O   0  0  0  0  0  0  0  0  0  0  0  0
  -24.9241  -32.7292   23.0925 O   0  0  0  0  0  0  0  0  0  0  0  0
  -23.3234  -28.5865   24.7648 O   0  0  0  0  0  0  0  0  0  0  0  0
  -29.2674  -16.8786   19.1587 O   0  0  0  0  0  0  0  0  0  0  0  0
  -21.5898   -8.1564   23.1211 O   0  0  0  0  0  0  0  0  0  0  0  0
  -25.6176  -25.1542   19.3512 O   0  0  0  0  0  0  0  0  0  1  0  0
  -21.3601   -2.7208   24.0187 F   0  0  0  0  0  0  0  0  0  0  0  0
  -21.8860   -7.1259   25.6692 F   0  0  0  0  0  0  0  0  0  0  0  0
  -24.6437  -16.3657   17.3001 F   0  0  0  0  0  0  0  0  0  0  0  0
  1  2  1  0  0  0  0
  1  5  2  0  0  0  0
  2  6  2  0  0  0  0
  3  8  2  0  0  0  0
  3 17  1  0  0  0  0
  4  9  1  0  0  0  0
  4 17  2  0  0  0  0
  5 19  1  0  0  0  0
  6 21  1  0  0  0  0
  7 10  2  0  0  0  0
  7 20  1  0  0  0  0
  8 26  1  0  0  0  0
  9 26  2  0  0  0  0
 10 27  1  0  0  0  0
 11 12  2  0  0  0  0
 11 28  1  0  0  0  0
 12 29  1  0  0  0  0
 13 22  1  0  0  0  0
 13 27  2  0  0  0  0
 14 23  1  0  0  0  0
 14 24  2  0  0  0  0
 15 23  2  0  0  0  0
 15 25  1  0  0  0  0
 16 29  2  0  0  0  0
 16 30  1  0  0  0  0
 17 32  1  0  0  0  0
 18 32  1  0  0  0  0
 18 33  2  0  0  0  0
 18 35  1  0  0  0  0
 19 21  2  0  0  0  0
 19 40  1  0  0  0  0
 20 22  2  0  0  0  0
 20 41  1  0  0  0  0
 21 50  1  0  0  0  0
 22 42  1  0  0  0  0
 23 69  1  0  0  0  0
 24 31  1  0  0  0  0
 24 72  1  0  0  0  0
 25 31  2  0  0  0  0
 25 75  1  0  0  0  0
 26 85  1  0  0  0  0
 27 86  1  0  0  0  0
 28 30  2  0  0  0  0
 28 85  1  0  0  0  0
 29 87  1  0  0  0  0
 30 88  1  0  0  0  0
 31 89  1  0  0  0  0
 32 67  2  0  0  0  0
 33 68  1  0  0  0  0
 33 73  1  0  0  0  0
 34 53  1  0  0  0  0
 34 69  1  0  0  0  0
 34 79  2  0  0  0  0
 35 74  1  0  0  0  0
 35 80  2  0  0  0  0
 36 51  1  0  0  0  0
 36 76  1  0  0  0  0
 36 81  2  0  0  0  0
 37 64  1  0  0  0  0
 37 70  1  0  0  0  0
 37 82  2  0  0  0  0
 38 65  1  0  0  0  0
 38 77  1  0  0  0  0
 38 83  2  0  0  0  0
 39 71  1  0  0  0  0
 39 75  1  0  0  0  0
 39 84  2  0  0  0  0
 40 43  1  0  0  0  0
 41 51  1  0  0  0  0
 42 70  1  0  0  0  0
 43 45  1  0  0  0  0
 44 46  1  0  0  0  0
 44 47  1  0  0  0  0
 45 50  1  0  0  0  0
 46 52  1  0  0  0  0
 47 71  1  0  0  0  0
 48 52  1  0  0  0  0
 48 71  1  0  0  0  0
 49 54  1  0  0  0  0
 49 69  1  0  0  0  0
 50 76  1  0  0  0  0
 51 70  1  0  0  0  0
 52 68  1  0  0  0  0
 53 54  1  0  0  0  0
 53 55  1  0  0  0  0
 53 56  1  0  0  0  0
 54 57  1  0  0  0  0
 54 63  1  0  0  0  0
 58 65  1  0  0  0  0
 59 66  1  0  0  0  0
 60 66  1  0  0  0  0
 61 66  1  0  0  0  0
 62 78  1  0  0  0  0
 63 86  1  0  0  0  0
 64 66  1  0  0  0  0
 64 77  1  0  0  0  0
 65 78  1  0  0  0  0
 67 68  1  0  0  0  0
M  CHG  1  78   1
M  ISO  4  39 100  63 101  75 100  86 101
M  END
> <Batch ID>
0069

> <Smiles>
CNC(C)C(=O)NC(C(=O)N1Cc2cc([101O:1][101CH2:1]C3(C)CN(c4cc(N)c(F)c([100NH:0][100C:0](=O)N5CCCC(n6nc(-c7ccc(Oc8ccc(F)cc8F)cc7)c(C(N)=O)c6N)C5)c4)C(=O)C3(C)C)ccc2CC1C(=O)NC1CCCc2ccccc21)C(C)(C)C

> <Shape>
0.267

> <Color>
0.109

> <Negative vol penalty>
0.000

$$$$

  -OEChem-04042323303D

 86 95  0     1  0  0  0  0  0999 V2000
  -25.3046  -35.5104   22.6864 C   0  0  0  0  0  0  0  0  0  0  0  0
  -25.9764  -34.3036   22.5202 C   0  0  0  0  0  0  0  0  0  0  0  0
  -23.9566  -12.8402   18.0947 C   0  0  0  0  0  0  0  0  0  0  0  0
  -24.0422  -12.2239   20.4292 C   0  0  0  0  0  0  0  0  0  0  0  0
  -24.0179  -35.5226   23.2232 C   0  0  0  0  0  0  0  0  0  0  0  0
  -25.3621  -33.1081   22.8917 C   0  0  0  0  0  0  0  0  0  0  0  0
  -25.9353  -29.4680   19.4181 C   0  0  0  0  0  0  0  0  0  0  0  0
  -30.7072  -23.2156   18.3791 C   0  0  0  0  0  0  0  0  0  0  0  0
  -30.4536  -22.0487   17.6583 C   0  0  0  0  0  0  0  0  0  0  0  0
  -22.9446  -11.9037   17.8845 C   0  0  0  0  0  0  0  0  0  0  0  0
  -23.0301  -11.2874   20.2190 C   0  0  0  0  0  0  0  0  0  0  0  0
  -27.1662  -28.8146   19.3777 C   0  0  0  0  0  0  0  0  0  0  0  0
  -22.7471   -8.1691   18.9434 C   0  0  0  0  0  0  0  0  0  0  0  0
  -22.9088   -6.9030   19.5059 C   0  0  0  0  0  0  0  0  0  0  0  0
  -26.2220  -26.9720   20.6157 C   0  0  0  0  0  0  0  0  0  0  0  0
  -29.1907  -22.4770   20.1087 C   0  0  0  0  0  0  0  0  0  0  0  0
  -20.8826   -7.2123   20.7849 C   0  0  0  0  0  0  0  0  0  0  0  0
  -24.5055  -13.0003   19.3670 C   0  0  0  0  0  0  0  0  0  0  0  0
  -26.8164  -14.0045   18.9681 C   0  0  0  0  0  0  0  0  0  0  0  0
  -23.3839  -34.3258   23.5926 C   0  0  0  0  0  0  0  0  0  0  0  0
  -24.8395  -28.8822   20.0682 C   0  0  0  0  0  0  0  0  0  0  0  0
  -24.0663  -33.1044   23.4352 C   0  0  0  0  0  0  0  0  0  0  0  0
  -24.9776  -27.6189   20.6607 C   0  0  0  0  0  0  0  0  0  0  0  0
  -30.0758  -23.4298   19.6043 C   0  0  0  0  0  0  0  0  0  0  0  0
  -29.5686  -21.0959   18.1627 C   0  0  0  0  0  0  0  0  0  0  0  0
  -28.9371  -21.3100   19.3879 C   0  0  0  0  0  0  0  0  0  0  0  0
  -22.4813  -11.1272   18.9467 C   0  0  0  0  0  0  0  0  0  0  0  0
  -27.3105  -27.5677   19.9790 C   0  0  0  0  0  0  0  0  0  0  0  0
  -21.6531   -8.9569   19.3018 C   0  0  0  0  0  0  0  0  0  0  0  0
  -21.9765   -6.4246   20.4266 C   0  0  0  0  0  0  0  0  0  0  0  0
  -20.7209   -8.4785   20.2225 C   0  0  0  0  0  0  0  0  0  0  0  0
  -25.5513  -13.9672   19.5847 C   0  0  0  0  0  0  0  0  0  0  0  0
  -27.4305  -15.1066   19.5109 C   0  0  0  0  0  0  0  0  0  0  0  0
  -30.4449  -27.3411   21.2392 C   0  0  0  0  0  0  0  0  0  0  0  0
  -31.5814  -25.2934   20.2707 C   0  0  0  0  0  0  0  0  0  0  0  0
  -27.3853  -13.1218   17.9920 C   0  0  0  0  0  0  0  0  0  0  0  0
  -23.0190  -29.6730   22.5509 C   0  0  0  0  0  0  0  0  0  0  0  0
  -21.3233  -27.0613   21.6423 C   0  0  0  0  0  0  0  0  0  0  0  0
  -22.0492  -23.7214   20.4867 C   0  0  0  0  0  0  0  0  0  0  0  0
  -27.3359  -20.4348   21.1248 C   0  0  0  0  0  0  0  0  0  0  0  0
  -22.0106  -34.3932   24.2125 C   0  0  0  0  0  0  0  0  0  0  0  0
  -23.5113  -29.5880   20.0798 C   0  0  0  0  0  0  0  0  0  0  0  0
  -23.8266  -26.9379   21.3536 C   0  0  0  0  0  0  0  0  0  0  0  0
  -31.6966  -26.5204   21.1497 C   0  0  0  0  0  0  0  0  0  0  0  0
  -21.2849  -33.0503   24.2327 C   0  0  0  0  0  0  0  0  0  0  0  0
  -26.1045  -18.0193   23.4326 C   0  0  0  0  0  0  0  0  0  0  0  0
  -22.2145  -31.9487   24.7318 C   0  0  0  0  0  0  0  0  0  0  0  0
  -25.9548  -16.7528   22.5865 C   0  0  0  0  0  0  0  0  0  0  0  0
  -25.7449  -19.2757   22.6414 C   0  0  0  0  0  0  0  0  0  0  0  0
  -29.3239  -25.1205   21.2997 C   0  0  0  0  0  0  0  0  0  0  0  0
  -26.3005  -18.1604   20.5161 C   0  0  0  0  0  0  0  0  0  0  0  0
  -23.4238  -31.7845   23.8033 C   0  0  1  0  0  0  0  0  0  0  0  0
  -29.1215  -26.6281   21.1857 C   0  0  2  0  0  0  0  0  0  1  0  0
  -22.6006  -29.1288   21.2143 C   0  0  1  0  0  0  0  0  0  0  0  0
  -26.7139  -16.8746   21.2507 C   0  0  2  0  0  0  0  0  0  0  0  0
  -20.7113  -22.1693   19.0381 C   0  0  0  0  0  0  0  0  0  0  0  0
  -20.2891  -25.9493   24.2888 C   0  0  0  0  0  0  0  0  0  0  0  0
  -20.3638  -23.6607   23.2763 C   0  0  0  0  0  0  0  0  0  0  0  0
  -18.8698  -25.4052   22.3028 C   0  0  0  0  0  0  0  0  0  0  0  0
  -24.2798  -23.4026   18.5678 C   0  0  0  0  0  0  0  0  0  0  0  0
  -21.3696  -25.5888   21.9717 C   0  0  1  0  0  0  0  0  0  0  0  0
  -21.8457  -23.1812   19.0827 C   0  0  2  0  0  0  0  0  0  0  0  0
  -20.2464  -25.1672   22.9608 C   0  0  0  0  0  0  0  0  0  0  0  0
  -25.3712  -14.9662   20.4528 N   0  0  0  0  0  0  0  0  0  0  0  0
  -30.5180  -28.6240   21.3841 N   0  0  0  0  0  0  0  0  0  0  0  0
  -26.5312  -15.6414   20.3857 N   0  0  0  0  0  0  0  0  0  0  0  0
  -30.3403  -24.6331   20.3497 N   0  0  0  0  0  0  0  0  0  0  0  0
  -22.5499  -27.6711   21.3437 N   0  0  0  0  0  0  0  0  0  0  0  0
  -26.5055  -19.3255   21.3908 N   0  0  0  0  0  0  0  0  0  0  0  0
  -29.3248  -19.9221   17.4147 N   0  0  0  0  0  0  0  0  0  0  0  0
  -28.6468  -15.6606   19.3205 N   0  0  0  0  0  0  0  0  0  0  0  0
  -26.6176  -12.0389   17.5423 N   0  0  0  0  0  0  0  0  0  0  0  0
  -28.0348  -20.3562   19.9206 N   0  0  0  0  0  0  0  0  0  0  0  0
  -23.0504  -31.0532   22.6116 N   0  0  0  0  0  0  0  0  0  0  0  0
  -21.3371  -24.8836   20.6950 N   0  0  0  0  0  0  0  0  0  0  0  0
  -23.0882  -22.5159   18.5985 N   0  3  0  0  0  0  0  0  0  0  0  0
  -32.5693  -24.9182   19.6379 O   0  0  0  0  0  0  0  0  0  0  0  0
  -28.5465  -13.2791   17.5443 O   0  0  0  0  0  0  0  0  0  0  0  0
  -23.2916  -28.8982   23.4603 O   0  0  0  0  0  0  0  0  0  0  0  0
  -20.2377  -27.6472   21.6426 O   0  0  0  0  0  0  0  0  0  0  0  0
  -22.7651  -23.1657   21.3169 O   0  0  0  0  0  0  0  0  0  0  0  0
  -27.4417  -21.3718   21.9202 O   0  0  0  0  0  0  0  0  0  0  0  0
  -21.4936  -10.2134   18.7420 O   0  0  0  0  0  0  0  0  0  0  0  0
  -28.5111  -26.9281   19.9416 O   0  0  0  0  0  0  0  0  0  1  0  0
  -22.1311   -5.2080   20.9654 F   0  0  0  0  0  0  0  0  0  0  0  0
  -19.6673   -9.2303   20.5698 F   0  0  0  0  0  0  0  0  0  0  0  0
  1  2  1  0  0  0  0
  1  5  2  0  0  0  0
  2  6  2  0  0  0  0
  3 10  2  0  0  0  0
  3 18  1  0  0  0  0
  4 11  1  0  0  0  0
  4 18  2  0  0  0  0
  5 20  1  0  0  0  0
  6 22  1  0  0  0  0
  7 12  2  0  0  0  0
  7 21  1  0  0  0  0
  8  9  2  0  0  0  0
  8 24  1  0  0  0  0
  9 25  1  0  0  0  0
 10 27  1  0  0  0  0
 11 27  2  0  0  0  0
 12 28  1  0  0  0  0
 13 14  2  0  0  0  0
 13 29  1  0  0  0  0
 14 30  1  0  0  0  0
 15 23  1  0  0  0  0
 15 28  2  0  0  0  0
 16 24  2  0  0  0  0
 16 26  1  0  0  0  0
 17 30  2  0  0  0  0
 17 31  1  0  0  0  0
 18 32  1  0  0  0  0
 19 32  1  0  0  0  0
 19 33  2  0  0  0  0
 19 36  1  0  0  0  0
 20 22  2  0  0  0  0
 20 41  1  0  0  0  0
 21 23  2  0  0  0  0
 21 42  1  0  0  0  0
 22 52  1  0  0  0  0
 23 43  1  0  0  0  0
 24 67  1  0  0  0  0
 25 26  2  0  0  0  0
 25 70  1  0  0  0  0
 26 73  1  0  0  0  0
 27 83  1  0  0  0  0
 28 84  1  0  0  0  0
 29 31  2  0  0  0  0
 29 83  1  0  0  0  0
 30 85  1  0  0  0  0
 31 86  1  0  0  0  0
 32 64  2  0  0  0  0
 33 66  1  0  0  0  0
 33 71  1  0  0  0  0
 34 44  1  0  0  0  0
 34 53  1  0  0  0  0
 34 65  2  0  0  0  0
 35 44  1  0  0  0  0
 35 67  1  0  0  0  0
 35 77  2  0  0  0  0
 36 72  1  0  0  0  0
 36 78  2  0  0  0  0
 37 54  1  0  0  0  0
 37 74  1  0  0  0  0
 37 79  2  0  0  0  0
 38 61  1  0  0  0  0
 38 68  1  0  0  0  0
 38 80  2  0  0  0  0
 39 62  1  0  0  0  0
 39 75  1  0  0  0  0
 39 81  2  0  0  0  0
 40 69  1  0  0  0  0
 40 73  1  0  0  0  0
 40 82  2  0  0  0  0
 41 45  1  0  0  0  0
 42 54  1  0  0  0  0
 43 68  1  0  0  0  0
 45 47  1  0  0  0  0
 46 48  1  0  0  0  0
 46 49  1  0  0  0  0
 47 52  1  0  0  0  0
 48 55  1  0  0  0  0
 49 69  1  0  0  0  0
 50 53  1  0  0  0  0
 50 67  1  0  0  0  0
 51 55  1  0  0  0  0
 51 69  1  0  0  0  0
 52 74  1  0  0  0  0
 53 84  1  0  0  0  0
 54 68  1  0  0  0  0
 55 66  1  0  0  0  0
 56 62  1  0  0  0  0
 57 63  1  0  0  0  0
 58 63  1  0  0  0  0
 59 63  1  0  0  0  0
 60 76  1  0  0  0  0
 61 63  1  0  0  0  0
 61 75  1  0  0  0  0
 62 76  1  0  0  0  0
 64 66  1  0  0  0  0
M  CHG  1  76   1
M  ISO  4  40 100  53 101  73 100  84 101
M  END
> <Batch ID>
0069

> <Smiles>
CNC(C)C(=O)NC(C(=O)N1Cc2cc([101O:1][101CH:1]3CN(c4ccc(N)c([100NH:0][100C:0](=O)N5CCCC(n6nc(-c7ccc(Oc8ccc(F)cc8F)cc7)c(C(N)=O)c6N)C5)c4)C(=O)CC3=N)ccc2CC1C(=O)NC1CCCc2ccccc21)C(C)(C)C

> <Shape>
0.263

> <Color>
0.070

> <Negative vol penalty>
0.000

$$$$

  -OEChem-04042323303D

 88 97  0     1  0  0  0  0  0999 V2000
  -17.4584  -26.3688   22.5681 C   0  0  0  0  0  0  0  0  0  0  0  0
  -18.7607  -25.8803   22.5404 C   0  0  0  0  0  0  0  0  0  0  0  0
  -24.5129  -13.8340   21.5537 C   0  0  0  0  0  0  0  0  0  0  0  0
  -23.9167  -14.3881   19.2790 C   0  0  0  0  0  0  0  0  0  0  0  0
  -17.2007  -27.6853   22.1880 C   0  0  0  0  0  0  0  0  0  0  0  0
  -19.8060  -26.7077   22.1317 C   0  0  0  0  0  0  0  0  0  0  0  0
  -25.5482  -26.7094   24.2606 C   0  0  0  0  0  0  0  0  0  0  0  0
  -30.1525  -23.1207   16.6415 C   0  0  0  0  0  0  0  0  0  0  0  0
  -23.6950  -12.7058   21.4934 C   0  0  0  0  0  0  0  0  0  0  0  0
  -23.0987  -13.2598   19.2186 C   0  0  0  0  0  0  0  0  0  0  0  0
  -26.7270  -26.1407   23.7800 C   0  0  0  0  0  0  0  0  0  0  0  0
  -22.0452   -9.4826   21.8165 C   0  0  0  0  0  0  0  0  0  0  0  0
  -22.5535   -8.2854   22.3203 C   0  0  0  0  0  0  0  0  0  0  0  0
  -29.7374  -22.1556   15.7240 C   0  0  0  0  0  0  0  0  0  0  0  0
  -27.3062  -28.2373   22.7371 C   0  0  0  0  0  0  0  0  0  0  0  0
  -28.1691  -22.7190   17.9613 C   0  0  0  0  0  0  0  0  0  0  0  0
  -24.3621   -8.3804   20.7211 C   0  0  0  0  0  0  0  0  0  0  0  0
  -24.6238  -14.6752   20.4465 C   0  0  0  0  0  0  0  0  0  0  0  0
  -25.3548  -16.9265   21.3978 C   0  0  0  0  0  0  0  0  0  0  0  0
  -18.2446  -28.5322   21.7836 C   0  0  0  0  0  0  0  0  0  0  0  0
  -25.2339  -28.0455   23.9734 C   0  0  0  0  0  0  0  0  0  0  0  0
  -19.5619  -28.0364   21.7446 C   0  0  0  0  0  0  0  0  0  0  0  0
  -26.1241  -28.8213   23.2173 C   0  0  0  0  0  0  0  0  0  0  0  0
  -27.7540  -21.7539   17.0438 C   0  0  0  0  0  0  0  0  0  0  0  0
  -29.3683  -23.4024   17.7603 C   0  0  0  0  0  0  0  0  0  0  0  0
  -22.9879  -12.4187   20.3258 C   0  0  0  0  0  0  0  0  0  0  0  0
  -27.6048  -26.9038   23.0157 C   0  0  0  0  0  0  0  0  0  0  0  0
  -22.6953  -10.1287   20.7650 C   0  0  0  0  0  0  0  0  0  0  0  0
  -23.7120   -7.7342   21.7726 C   0  0  0  0  0  0  0  0  0  0  0  0
  -23.8538   -9.5776   20.2173 C   0  0  0  0  0  0  0  0  0  0  0  0
  -28.5381  -21.4722   15.9251 C   0  0  0  0  0  0  0  0  0  0  0  0
  -25.4681  -15.8411   20.5084 C   0  0  0  0  0  0  0  0  0  0  0  0
  -26.3860  -17.7644   21.0500 C   0  0  0  0  0  0  0  0  0  0  0  0
  -29.1162  -24.7852   19.8705 C   0  0  0  0  0  0  0  0  0  0  0  0
  -24.4026  -17.1566   22.4447 C   0  0  0  0  0  0  0  0  0  0  0  0
  -22.8821  -29.5118   22.4169 C   0  0  0  0  0  0  0  0  0  0  0  0
  -24.3365  -32.1878   23.5332 C   0  0  0  0  0  0  0  0  0  0  0  0
  -27.1886  -33.6726   24.6767 C   0  0  0  0  0  0  0  0  0  0  0  0
  -29.4146  -18.5302   15.9200 C   0  0  0  0  0  0  0  0  0  0  0  0
  -17.9109  -29.9334   21.3367 C   0  0  0  0  0  0  0  0  0  0  0  0
  -23.9713  -28.6518   24.5217 C   0  0  0  0  0  0  0  0  0  0  0  0
  -25.8428  -30.2661   22.8980 C   0  0  0  0  0  0  0  0  0  0  0  0
  -19.1239  -30.8581   21.2743 C   0  0  0  0  0  0  0  0  0  0  0  0
  -30.7700  -17.7299   19.1451 C   0  0  0  0  0  0  0  0  0  0  0  0
  -20.2864  -30.1667   20.5688 C   0  0  0  0  0  0  0  0  0  0  0  0
  -29.5582  -17.2350   19.9346 C   0  0  0  0  0  0  0  0  0  0  0  0
  -30.9278  -26.2807   19.4888 C   0  0  0  0  0  0  0  0  0  0  0  0
  -30.6930  -17.3102   17.6801 C   0  0  0  0  0  0  0  0  0  0  0  0
  -31.0588  -25.0877   18.5633 C   0  0  0  0  0  0  0  0  0  0  0  0
  -28.2212  -17.2310   17.7823 C   0  0  0  0  0  0  0  0  0  0  0  0
  -20.7257  -28.9106   21.3308 C   0  0  1  0  0  0  0  0  0  0  0  0
  -30.0261  -25.7610   20.5991 C   0  0  1  0  0  0  0  0  0  0  0  0
  -23.5048  -29.8733   23.7357 C   0  0  1  0  0  0  0  0  0  0  0  0
  -28.2431  -17.6630   19.2589 C   0  0  1  0  0  0  0  0  0  0  0  0
  -26.4645  -21.0404   17.2877 C   0  0  0  0  0  0  0  0  0  0  0  0
  -28.0765  -35.8796   25.4756 C   0  0  0  0  0  0  0  0  0  0  0  0
  -24.4114  -33.1968   20.6547 C   0  0  0  0  0  0  0  0  0  0  0  0
  -26.1071  -34.8952   21.3677 C   0  0  0  0  0  0  0  0  0  0  0  0
  -23.8159  -34.9328   22.3535 C   0  0  0  0  0  0  0  0  0  0  0  0
  -27.8722  -32.5667   27.3354 C   0  0  0  0  0  0  0  0  0  0  0  0
  -29.2655  -26.8619   21.3139 C   0  0  0  0  0  0  0  0  0  1  0  0
  -25.4252  -33.1031   23.0273 C   0  0  1  0  0  0  0  0  0  0  0  0
  -27.4505  -34.5551   25.8838 C   0  0  2  0  0  0  0  0  0  0  0  0
  -24.9446  -34.0042   21.8550 C   0  0  0  0  0  0  0  0  0  0  0  0
  -26.4905  -15.9747   19.6594 N   0  0  0  0  0  0  0  0  0  0  0  0
  -28.1892  -18.8402   15.4790 N   0  5  0  0  0  0  0  0  0  0  0  0
  -27.0290  -17.1539   20.0137 N   0  0  0  0  0  0  0  0  0  0  0  0
  -29.7936  -24.3901   18.6985 N   0  0  0  0  0  0  0  0  0  0  0  0
  -24.5924  -30.8117   23.4514 N   0  0  0  0  0  0  0  0  0  0  0  0
  -29.4213  -17.7260   17.0824 N   0  0  0  0  0  0  0  0  0  0  0  0
  -26.7964  -18.9565   21.5326 N   0  0  0  0  0  0  0  0  0  0  0  0
  -23.4089  -16.1937   22.6676 N   0  0  0  0  0  0  0  0  0  0  0  0
  -21.5229  -29.2717   22.4835 N   0  0  0  0  0  0  0  0  0  0  0  0
  -25.9102  -33.8413   24.1885 N   0  0  0  0  0  0  0  0  0  0  0  0
  -28.3733  -33.8723   26.8342 N   0  3  0  0  0  0  0  0  0  0  0  0
  -28.0402  -24.4132   20.3158 O   0  0  0  0  0  0  0  0  0  0  0  0
  -24.4221  -18.1934   23.1505 O   0  0  0  0  0  0  0  0  0  0  0  0
  -23.5826  -29.4563   21.4130 O   0  0  0  0  0  0  0  0  0  0  0  0
  -23.3003  -32.6759   23.9910 O   0  0  0  0  0  0  0  0  0  0  0  0
  -28.0348  -32.9126   24.2110 O   0  0  0  0  0  0  0  0  0  0  0  0
  -30.4743  -18.8897   15.3976 O   0  0  0  0  0  0  0  0  0  0  0  0
  -26.6582  -20.6229   14.4147 O   0  0  0  0  0  0  0  0  0  0  0  0
  -28.9758  -20.4543   13.6250 O   0  0  0  0  0  0  0  0  0  0  0  0
  -22.1898  -11.3177   20.2665 O   0  0  0  0  0  0  0  0  0  0  0  0
  -28.7557  -26.3509   22.5448 O   0  0  0  0  0  0  0  0  0  1  0  0
  -24.2009   -6.5853   22.2575 F   0  0  0  0  0  0  0  0  0  0  0  0
  -24.4833  -10.1944   19.2078 F   0  0  0  0  0  0  0  0  0  0  0  0
  -28.0329  -20.2323   14.7190 S   0  0  0  0  0  0  0  0  0  0  0  0
  1  2  1  0  0  0  0
  1  5  2  0  0  0  0
  2  6  2  0  0  0  0
  3  9  2  0  0  0  0
  3 18  1  0  0  0  0
  4 10  1  0  0  0  0
  4 18  2  0  0  0  0
  5 20  1  0  0  0  0
  6 22  1  0  0  0  0
  7 11  2  0  0  0  0
  7 21  1  0  0  0  0
  8 14  2  0  0  0  0
  8 25  1  0  0  0  0
  9 26  1  0  0  0  0
 10 26  2  0  0  0  0
 11 27  1  0  0  0  0
 12 13  2  0  0  0  0
 12 28  1  0  0  0  0
 13 29  1  0  0  0  0
 14 31  1  0  0  0  0
 15 23  1  0  0  0  0
 15 27  2  0  0  0  0
 16 24  1  0  0  0  0
 16 25  2  0  0  0  0
 17 29  2  0  0  0  0
 17 30  1  0  0  0  0
 18 32  1  0  0  0  0
 19 32  1  0  0  0  0
 19 33  2  0  0  0  0
 19 35  1  0  0  0  0
 20 22  2  0  0  0  0
 20 40  1  0  0  0  0
 21 23  2  0  0  0  0
 21 41  1  0  0  0  0
 22 51  1  0  0  0  0
 23 42  1  0  0  0  0
 24 31  2  0  0  0  0
 24 55  1  0  0  0  0
 25 68  1  0  0  0  0
 26 84  1  0  0  0  0
 27 85  1  0  0  0  0
 28 30  2  0  0  0  0
 28 84  1  0  0  0  0
 29 86  1  0  0  0  0
 30 87  1  0  0  0  0
 31 88  1  0  0  0  0
 32 65  2  0  0  0  0
 33 67  1  0  0  0  0
 33 71  1  0  0  0  0
 34 52  1  0  0  0  0
 34 68  1  0  0  0  0
 34 76  2  0  0  0  0
 35 72  1  0  0  0  0
 35 77  2  0  0  0  0
 36 53  1  0  0  0  0
 36 73  1  0  0  0  0
 36 78  2  0  0  0  0
 37 62  1  0  0  0  0
 37 69  1  0  0  0  0
 37 79  2  0  0  0  0
 38 63  1  0  0  0  0
 38 74  1  0  0  0  0
 38 80  2  0  0  0  0
 39 66  1  0  0  0  0
 39 70  1  0  0  0  0
 39 81  2  0  0  0  0
 40 43  1  0  0  0  0
 41 53  1  0  0  0  0
 42 69  1  0  0  0  0
 43 45  1  0  0  0  0
 44 46  1  0  0  0  0
 44 48  1  0  0  0  0
 45 51  1  0  0  0  0
 46 54  1  0  0  0  0
 47 49  1  0  0  0  0
 47 52  1  0  0  0  0
 48 70  1  0  0  0  0
 49 68  1  0  0  0  0
 50 54  1  0  0  0  0
 50 70  1  0  0  0  0
 51 73  1  0  0  0  0
 52 61  1  0  0  0  0
 53 69  1  0  0  0  0
 54 67  1  0  0  0  0
 56 63  1  0  0  0  0
 57 64  1  0  0  0  0
 58 64  1  0  0  0  0
 59 64  1  0  0  0  0
 60 75  1  0  0  0  0
 61 85  1  0  0  0  0
 62 64  1  0  0  0  0
 62 74  1  0  0  0  0
 63 75  1  0  0  0  0
 65 67  1  0  0  0  0
 66 88  1  0  0  0  0
 82 88  2  0  0  0  0
 83 88  2  0  0  0  0
M  CHG  2  66  -1  75   1
M  ISO  4  39 100  61 101  66 100  85 101
M  END
> <Batch ID>
0069

> <Smiles>
CNC(C)C(=O)NC(C(=O)N1Cc2cc([101O:1][101CH2:1]C3CCN(c4ccc(S(=O)(=O)[100NH:0][100C:0](=O)N5CCCC(n6nc(-c7ccc(Oc8ccc(F)cc8F)cc7)c(C(N)=O)c6N)C5)c(C)c4)C3=O)ccc2CC1C(=O)NC1CCCc2ccccc21)C(C)(C)C

> <Shape>
0.266

> <Color>
0.073

> <Negative vol penalty>
0.000

$$$$

  -OEChem-04042323303D

 88 97  0     1  0  0  0  0  0999 V2000
  -22.2396  -31.2396   14.3890 C   0  0  0  0  0  0  0  0  0  0  0  0
  -23.3768  -30.6944   14.9763 C   0  0  0  0  0  0  0  0  0  0  0  0
  -24.0183  -10.2413   22.3009 C   0  0  0  0  0  0  0  0  0  0  0  0
  -24.4641  -11.7015   24.1734 C   0  0  0  0  0  0  0  0  0  0  0  0
  -21.5540  -32.2725   15.0269 C   0  0  0  0  0  0  0  0  0  0  0  0
  -23.8298  -31.1826   16.2014 C   0  0  0  0  0  0  0  0  0  0  0  0
  -25.1058  -27.4830   19.4153 C   0  0  0  0  0  0  0  0  0  0  0  0
  -23.5229   -9.2729   23.1741 C   0  0  0  0  0  0  0  0  0  0  0  0
  -23.9686  -10.7331   25.0465 C   0  0  0  0  0  0  0  0  0  0  0  0
  -26.3382  -26.8625   19.2150 C   0  0  0  0  0  0  0  0  0  0  0  0
  -20.6660   -8.6906   24.8865 C   0  0  0  0  0  0  0  0  0  0  0  0
  -19.4732   -8.0555   24.5409 C   0  0  0  0  0  0  0  0  0  0  0  0
  -27.2962  -28.2128   20.9695 C   0  0  0  0  0  0  0  0  0  0  0  0
  -28.9709  -21.1967   20.1642 C   0  0  0  0  0  0  0  0  0  0  0  0
  -31.0093  -20.5691   21.2990 C   0  0  0  0  0  0  0  0  0  0  0  0
  -20.6105   -5.9239   24.5329 C   0  0  0  0  0  0  0  0  0  0  0  0
  -24.4890  -11.4556   22.8006 C   0  0  0  0  0  0  0  0  0  0  0  0
  -24.2755  -13.4851   21.2698 C   0  0  0  0  0  0  0  0  0  0  0  0
  -21.9933  -32.7671   16.2651 C   0  0  0  0  0  0  0  0  0  0  0  0
  -24.9618  -28.4823   20.3884 C   0  0  0  0  0  0  0  0  0  0  0  0
  -23.1502  -32.2241   16.8558 C   0  0  0  0  0  0  0  0  0  0  0  0
  -26.0603  -28.8425   21.1819 C   0  0  0  0  0  0  0  0  0  0  0  0
  -30.1289  -21.5553   20.8541 C   0  0  0  0  0  0  0  0  0  0  0  0
  -28.6932  -19.8518   19.9192 C   0  0  0  0  0  0  0  0  0  0  0  0
  -29.5737  -18.8656   20.3640 C   0  0  0  0  0  0  0  0  0  0  0  0
  -23.4980   -9.5188   24.5468 C   0  0  0  0  0  0  0  0  0  0  0  0
  -27.4343  -27.2295   19.9902 C   0  0  0  0  0  0  0  0  0  0  0  0
  -21.8311   -7.9423   25.0552 C   0  0  0  0  0  0  0  0  0  0  0  0
  -19.4454   -6.6721   24.3641 C   0  0  0  0  0  0  0  0  0  0  0  0
  -30.7317  -19.2242   21.0539 C   0  0  0  0  0  0  0  0  0  0  0  0
  -21.8033   -6.5590   24.8784 C   0  0  0  0  0  0  0  0  0  0  0  0
  -25.0014  -12.4561   21.8992 C   0  0  0  0  0  0  0  0  0  0  0  0
  -25.2114  -14.1583   20.5231 C   0  0  0  0  0  0  0  0  0  0  0  0
  -31.5364  -23.4485   21.7851 C   0  0  0  0  0  0  0  0  0  0  0  0
  -22.8801  -13.8040   21.3528 C   0  0  0  0  0  0  0  0  0  0  0  0
  -24.1866  -31.5646   20.3406 C   0  0  0  0  0  0  0  0  0  0  0  0
  -24.2651  -31.2339   23.5666 C   0  0  0  0  0  0  0  0  0  0  0  0
  -25.4415  -29.5246   26.2760 C   0  0  0  0  0  0  0  0  0  0  0  0
  -30.2443  -16.4717   19.9569 C   0  0  0  0  0  0  0  0  0  0  0  0
  -21.2465  -33.9168   16.8938 C   0  0  0  0  0  0  0  0  0  0  0  0
  -23.6192  -29.1230   20.6102 C   0  0  0  0  0  0  0  0  0  0  0  0
  -25.9532  -29.8954   22.2536 C   0  0  0  0  0  0  0  0  0  0  0  0
  -21.5766  -34.1231   18.3699 C   0  0  0  0  0  0  0  0  0  0  0  0
  -29.9979  -12.9656   19.3878 C   0  0  0  0  0  0  0  0  0  0  0  0
  -23.0852  -34.0762   18.5911 C   0  0  0  0  0  0  0  0  0  0  0  0
  -28.6163  -12.6052   19.9387 C   0  0  0  0  0  0  0  0  0  0  0  0
  -30.6815  -14.0409   20.2305 C   0  0  0  0  0  0  0  0  0  0  0  0
  -29.5029  -23.9891   20.7070 C   0  0  0  0  0  0  0  0  0  0  0  0
  -28.5038  -14.8940   21.0043 C   0  0  0  0  0  0  0  0  0  0  0  0
  -23.6585  -32.7100   18.1958 C   0  0  1  0  0  0  0  0  0  0  0  0
  -23.7131  -30.4910   21.2790 C   0  0  1  0  0  0  0  0  0  0  0  0
  -30.3461  -25.2559   20.7843 C   0  0  2  0  0  0  0  0  0  0  0  0
  -27.7490  -13.8614   20.1512 C   0  0  2  0  0  0  0  0  0  0  0  0
  -31.3285  -24.9583   21.9347 C   0  0  0  0  0  0  0  0  0  0  0  0
  -30.7568  -25.2227   23.3347 C   0  0  0  0  0  0  0  0  0  0  0  0
  -32.6481  -25.7120   21.7596 C   0  0  0  0  0  0  0  0  0  0  0  0
  -25.3622  -29.5126   28.7842 C   0  0  0  0  0  0  0  0  0  0  0  0
  -26.1945  -33.5967   23.6365 C   0  0  0  0  0  0  0  0  0  0  0  0
  -26.8038  -32.9403   25.9745 C   0  0  0  0  0  0  0  0  0  0  0  0
  -24.4615  -33.6112   25.4396 C   0  0  0  0  0  0  0  0  0  0  0  0
  -24.2222  -26.8287   26.3402 C   0  0  0  0  0  0  0  0  0  0  0  0
  -29.4975  -26.5112   20.9302 C   0  0  0  0  0  0  0  0  0  1  0  0
  -25.3264  -31.3776   24.6305 C   0  0  1  0  0  0  0  0  0  0  0  0
  -24.7382  -28.9772   27.5048 C   0  0  2  0  0  0  0  0  0  0  0  0
  -25.6994  -32.8629   24.8988 C   0  0  0  0  0  0  0  0  0  0  0  0
  -26.2983  -12.4703   21.5800 N   0  0  0  0  0  0  0  0  0  0  0  0
  -26.3947  -13.5163   20.7418 N   0  0  0  0  0  0  0  0  0  0  0  0
  -30.4136  -22.9318   21.1054 N   0  0  0  0  0  0  0  0  0  0  0  0
  -24.6209  -30.4972   22.4280 N   0  0  0  0  0  0  0  0  0  0  0  0
  -29.8027  -15.2021   20.3858 N   0  0  0  0  0  0  0  0  0  0  0  0
  -27.5143  -19.5110   19.2185 N   0  0  0  0  0  0  0  0  0  0  0  0
  -25.1292  -15.2307   19.7073 N   0  0  0  0  0  0  0  0  0  0  0  0
  -22.0605  -13.0098   22.1663 N   0  0  0  0  0  0  0  0  0  0  0  0
  -29.3108  -17.4939   20.1250 N   0  0  0  0  0  0  0  0  0  0  0  0
  -23.3868  -31.7306   19.2261 N   0  0  0  0  0  0  0  0  0  0  0  0
  -24.8287  -30.6654   25.8024 N   0  0  0  0  0  0  0  0  0  0  0  0
  -24.8201  -27.4894   27.5289 N   0  3  0  0  0  0  0  0  0  0  0  0
  -32.4996  -22.8585   22.2550 O   0  0  0  0  0  0  0  0  0  0  0  0
  -22.3720  -14.7547   20.7113 O   0  0  0  0  0  0  0  0  0  0  0  0
  -25.2017  -32.1967   20.6086 O   0  0  0  0  0  0  0  0  0  0  0  0
  -23.1587  -31.7502   23.7425 O   0  0  0  0  0  0  0  0  0  0  0  0
  -26.4374  -28.9954   25.7874 O   0  0  0  0  0  0  0  0  0  0  0  0
  -31.3575  -16.6348   19.4507 O   0  0  0  0  0  0  0  0  0  0  0  0
  -23.0144   -8.5742   25.3991 O   0  0  0  0  0  0  0  0  0  0  0  0
  -28.6385  -26.6259   19.7964 O   0  0  0  0  0  0  0  0  0  1  0  0
  -18.2996   -6.0622   24.0337 F   0  0  0  0  0  0  0  0  0  0  0  0
  -31.5857  -18.2854   21.4863 F   0  0  0  0  0  0  0  0  0  0  0  0
  -22.9191   -5.8347   25.0403 F   0  0  0  0  0  0  0  0  0  0  0  0
  1  2  1  0  0  0  0
  1  5  2  0  0  0  0
  2  6  2  0  0  0  0
  3  8  2  0  0  0  0
  3 17  1  0  0  0  0
  4  9  1  0  0  0  0
  4 17  2  0  0  0  0
  5 19  1  0  0  0  0
  6 21  1  0  0  0  0
  7 10  2  0  0  0  0
  7 20  1  0  0  0  0
  8 26  1  0  0  0  0
  9 26  2  0  0  0  0
 10 27  1  0  0  0  0
 11 12  2  0  0  0  0
 11 28  1  0  0  0  0
 12 29  1  0  0  0  0
 13 22  1  0  0  0  0
 13 27  2  0  0  0  0
 14 23  1  0  0  0  0
 14 24  2  0  0  0  0
 15 23  2  0  0  0  0
 15 30  1  0  0  0  0
 16 29  2  0  0  0  0
 16 31  1  0  0  0  0
 17 32  1  0  0  0  0
 18 32  1  0  0  0  0
 18 33  2  0  0  0  0
 18 35  1  0  0  0  0
 19 21  2  0  0  0  0
 19 40  1  0  0  0  0
 20 22  2  0  0  0  0
 20 41  1  0  0  0  0
 21 50  1  0  0  0  0
 22 42  1  0  0  0  0
 23 68  1  0  0  0  0
 24 25  1  0  0  0  0
 24 71  1  0  0  0  0
 25 30  2  0  0  0  0
 25 74  1  0  0  0  0
 26 84  1  0  0  0  0
 27 85  1  0  0  0  0
 28 31  2  0  0  0  0
 28 84  1  0  0  0  0
 29 86  1  0  0  0  0
 30 87  1  0  0  0  0
 31 88  1  0  0  0  0
 32 66  2  0  0  0  0
 33 67  1  0  0  0  0
 33 72  1  0  0  0  0
 34 54  1  0  0  0  0
 34 68  1  0  0  0  0
 34 78  2  0  0  0  0
 35 73  1  0  0  0  0
 35 79  2  0  0  0  0
 36 51  1  0  0  0  0
 36 75  1  0  0  0  0
 36 80  2  0  0  0  0
 37 63  1  0  0  0  0
 37 69  1  0  0  0  0
 37 81  2  0  0  0  0
 38 64  1  0  0  0  0
 38 76  1  0  0  0  0
 38 82  2  0  0  0  0
 39 70  1  0  0  0  0
 39 74  1  0  0  0  0
 39 83  2  0  0  0  0
 40 43  1  0  0  0  0
 41 51  1  0  0  0  0
 42 69  1  0  0  0  0
 43 45  1  0  0  0  0
 44 46  1  0  0  0  0
 44 47  1  0  0  0  0
 45 50  1  0  0  0  0
 46 53  1  0  0  0  0
 47 70  1  0  0  0  0
 48 52  1  0  0  0  0
 48 68  1  0  0  0  0
 49 53  1  0  0  0  0
 49 70  1  0  0  0  0
 50 75  1  0  0  0  0
 51 69  1  0  0  0  0
 52 54  1  0  0  0  0
 52 62  1  0  0  0  0
 53 67  1  0  0  0  0
 54 55  1  0  0  0  0
 54 56  1  0  0  0  0
 57 64  1  0  0  0  0
 58 65  1  0  0  0  0
 59 65  1  0  0  0  0
 60 65  1  0  0  0  0
 61 77  1  0  0  0  0
 62 85  1  0  0  0  0
 63 65  1  0  0  0  0
 63 76  1  0  0  0  0
 64 77  1  0  0  0  0
 66 67  1  0  0  0  0
M  CHG  1  77   1
M  ISO  4  39 100  62 101  74 100  85 101
M  END
> <Batch ID>
0069

> <Smiles>
CNC(C)C(=O)NC(C(=O)N1Cc2cc([101O:1][101CH2:1]C3CN(c4cc(N)c([100NH:0][100C:0](=O)N5CCCC(n6nc(-c7ccc(Oc8ccc(F)cc8F)cc7)c(C(N)=O)c6N)C5)c(F)c4)C(=O)C3(C)C)ccc2CC1C(=O)NC1CCCc2ccccc21)C(C)(C)C

> <Shape>
0.296

> <Color>
0.137

> <Negative vol penalty>
0.000

$$$$

  -OEChem-04042323303D

 85 93  0     1  0  0  0  0  0999 V2000
  -28.6289  -37.4767   21.7947 C   0  0  0  0  0  0  0  0  0  0  0  0
  -28.9880  -36.1924   21.3985 C   0  0  0  0  0  0  0  0  0  0  0  0
  -24.5473   -8.5359   21.4152 C   0  0  0  0  0  0  0  0  0  0  0  0
  -23.1584  -10.3455   20.6193 C   0  0  0  0  0  0  0  0  0  0  0  0
  -27.9948  -19.4294   19.3822 C   0  0  0  0  0  0  0  0  0  0  0  0
  -25.9039  -18.7829   18.3589 C   0  0  0  0  0  0  0  0  0  0  0  0
  -27.6471  -37.6556   22.7683 C   0  0  0  0  0  0  0  0  0  0  0  0
  -28.3663  -35.0862   21.9765 C   0  0  0  0  0  0  0  0  0  0  0  0
  -27.0153  -29.7758   19.2414 C   0  0  0  0  0  0  0  0  0  0  0  0
  -28.4350  -18.1074   19.3182 C   0  0  0  0  0  0  0  0  0  0  0  0
  -26.3441  -17.4608   18.2948 C   0  0  0  0  0  0  0  0  0  0  0  0
  -23.5678   -8.1942   22.3476 C   0  0  0  0  0  0  0  0  0  0  0  0
  -22.1789  -10.0038   21.5517 C   0  0  0  0  0  0  0  0  0  0  0  0
  -27.6588  -28.5392   19.2242 C   0  0  0  0  0  0  0  0  0  0  0  0
  -21.2800   -6.6211   24.6942 C   0  0  0  0  0  0  0  0  0  0  0  0
  -20.9610   -5.2705   24.8342 C   0  0  0  0  0  0  0  0  0  0  0  0
  -26.2263  -27.7757   21.0087 C   0  0  0  0  0  0  0  0  0  0  0  0
  -20.3009   -5.1857   22.5117 C   0  0  0  0  0  0  0  0  0  0  0  0
  -24.3426   -9.6116   20.5511 C   0  0  0  0  0  0  0  0  0  0  0  0
  -26.7293  -19.7671   18.9027 C   0  0  0  0  0  0  0  0  0  0  0  0
  -25.4804   -9.4834   18.2715 C   0  0  0  0  0  0  0  0  0  0  0  0
  -27.0061  -36.5513   23.3516 C   0  0  0  0  0  0  0  0  0  0  0  0
  -25.9779  -30.0258   20.1513 C   0  0  0  0  0  0  0  0  0  0  0  0
  -27.3759  -35.2504   22.9598 C   0  0  0  0  0  0  0  0  0  0  0  0
  -25.5695  -29.0155   21.0336 C   0  0  0  0  0  0  0  0  0  0  0  0
  -27.6096  -17.1231   18.7745 C   0  0  0  0  0  0  0  0  0  0  0  0
  -22.3836   -8.9281   22.4158 C   0  0  0  0  0  0  0  0  0  0  0  0
  -27.2663  -27.5399   20.1099 C   0  0  0  0  0  0  0  0  0  0  0  0
  -21.1095   -7.2541   23.4630 C   0  0  0  0  0  0  0  0  0  0  0  0
  -20.4715   -4.5528   23.7429 C   0  0  0  0  0  0  0  0  0  0  0  0
  -20.6199   -6.5364   22.3717 C   0  0  0  0  0  0  0  0  0  0  0  0
  -25.3544   -9.9655   19.5881 C   0  0  0  0  0  0  0  0  0  0  0  0
  -26.5923  -10.1206   17.7775 C   0  0  0  0  0  0  0  0  0  0  0  0
  -26.2561  -21.1878   18.9717 C   0  0  0  0  0  0  0  0  0  0  0  0
  -24.6652   -8.5436   17.5587 C   0  0  0  0  0  0  0  0  0  0  0  0
  -25.5358  -32.0737   22.5417 C   0  0  0  0  0  0  0  0  0  0  0  0
  -22.5529  -30.7992   22.5656 C   0  0  0  0  0  0  0  0  0  0  0  0
  -20.5230  -28.1620   21.8097 C   0  0  0  0  0  0  0  0  0  0  0  0
  -29.2850  -15.2777   19.1410 C   0  0  0  0  0  0  0  0  0  0  0  0
  -25.9843  -36.7933   24.4342 C   0  0  0  0  0  0  0  0  0  0  0  0
  -25.2759  -31.3560   20.1389 C   0  0  0  0  0  0  0  0  0  0  0  0
  -24.4477  -29.2265   22.0162 C   0  0  0  0  0  0  0  0  0  0  0  0
  -25.1083  -35.5781   24.7276 C   0  0  0  0  0  0  0  0  0  0  0  0
  -30.7496  -12.0328   19.1899 C   0  0  0  0  0  0  0  0  0  0  0  0
  -25.9636  -34.3214   24.8540 C   0  0  0  0  0  0  0  0  0  0  0  0
  -29.5439  -11.0905   19.1716 C   0  0  0  0  0  0  0  0  0  0  0  0
  -30.4786  -13.2845   20.0227 C   0  0  0  0  0  0  0  0  0  0  0  0
  -28.0534  -13.0762   19.6431 C   0  0  0  0  0  0  0  0  0  0  0  0
  -26.7068  -34.0260   23.5456 C   0  0  1  0  0  0  0  0  0  0  0  0
  -24.5761  -31.6745   21.4566 C   0  0  1  0  0  0  0  0  0  0  0  0
  -28.2556  -11.8316   18.7634 C   0  0  2  0  0  0  0  0  0  0  0  0
  -18.1389  -27.3981   21.9834 C   0  0  0  0  0  0  0  0  0  0  0  0
  -22.9514  -30.2394   25.5384 C   0  0  0  0  0  0  0  0  0  0  0  0
  -21.0041  -28.6694   25.4325 C   0  0  0  0  0  0  0  0  0  0  0  0
  -20.6796  -31.0917   24.9327 C   0  0  0  0  0  0  0  0  0  0  0  0
  -20.2588  -27.9383   18.8705 C   0  0  0  0  0  0  0  0  0  0  0  0
  -28.4242  -25.8906   18.8469 C   0  0  0  0  0  0  0  0  0  1  0  0
  -28.4467  -24.3757   18.8161 C   0  0  0  0  0  0  0  0  0  0  0  0
  -21.8940  -29.6333   23.2623 C   0  0  1  0  0  0  0  0  0  0  0  0
  -19.1748  -28.0953   21.1152 C   0  0  2  0  0  0  0  0  0  0  0  0
  -21.6547  -29.9048   24.7744 C   0  0  0  0  0  0  0  0  0  0  0  0
  -26.3100  -10.8412   19.9102 N   0  0  0  0  0  0  0  0  0  0  0  0
  -27.1788  -22.1058   18.8981 N   0  0  0  0  0  0  0  0  0  0  0  0
  -27.0472  -10.9145   18.7890 N   0  0  0  0  0  0  0  0  0  0  0  0
  -23.7966  -30.5462   21.9698 N   0  0  0  0  0  0  0  0  0  0  0  0
  -29.2453  -13.9363   19.5766 N   0  0  0  0  0  0  0  0  0  0  0  0
  -27.2157  -10.0737   16.5810 N   0  0  0  0  0  0  0  0  0  0  0  0
  -24.9011  -21.4050   19.1099 N   0  0  0  0  0  0  0  0  0  0  0  0
  -23.5609   -7.9840   18.2156 N   0  0  0  0  0  0  0  0  0  0  0  0
  -28.0578  -15.7804   18.7097 N   0  0  0  0  0  0  0  0  0  0  0  0
  -25.8109  -33.4273   22.5795 N   0  0  0  0  0  0  0  0  0  0  0  0
  -20.6798  -29.3404   22.5084 N   0  0  0  0  0  0  0  0  0  0  0  0
  -19.2903  -27.3490   19.8305 N   0  3  0  0  0  0  0  0  0  0  0  0
  -24.9185   -8.1977   16.3798 O   0  0  0  0  0  0  0  0  0  0  0  0
  -25.9916  -31.2172   23.2903 O   0  0  0  0  0  0  0  0  0  0  0  0
  -21.9817  -31.8923   22.5444 O   0  0  0  0  0  0  0  0  0  0  0  0
  -21.3524  -27.2575   21.7425 O   0  0  0  0  0  0  0  0  0  0  0  0
  -30.3358  -15.9238   19.1242 O   0  0  0  0  0  0  0  0  0  0  0  0
  -26.0840  -24.0910   17.7762 O   0  0  0  0  0  0  0  0  0  0  0  0
  -26.3317  -24.0437   20.2857 O   0  0  0  0  0  0  0  0  0  0  0  0
  -21.4274   -8.5948   23.3254 O   0  0  0  0  0  0  0  0  0  0  0  0
  -27.8933  -26.3321   20.0957 O   0  0  0  0  0  0  0  0  0  1  0  0
  -20.1666   -3.2554   23.8771 F   0  0  0  0  0  0  0  0  0  0  0  0
  -20.4551   -7.1387   21.1860 F   0  0  0  0  0  0  0  0  0  0  0  0
  -26.8234  -23.6944   18.9631 S   0  0  0  0  0  0  0  0  0  0  0  0
  1  2  1  0  0  0  0
  1  7  2  0  0  0  0
  2  8  2  0  0  0  0
  3 12  2  0  0  0  0
  3 19  1  0  0  0  0
  4 13  1  0  0  0  0
  4 19  2  0  0  0  0
  5 10  2  0  0  0  0
  5 20  1  0  0  0  0
  6 11  1  0  0  0  0
  6 20  2  0  0  0  0
  7 22  1  0  0  0  0
  8 24  1  0  0  0  0
  9 14  2  0  0  0  0
  9 23  1  0  0  0  0
 10 26  1  0  0  0  0
 11 26  2  0  0  0  0
 12 27  1  0  0  0  0
 13 27  2  0  0  0  0
 14 28  1  0  0  0  0
 15 16  2  0  0  0  0
 15 29  1  0  0  0  0
 16 30  1  0  0  0  0
 17 25  1  0  0  0  0
 17 28  2  0  0  0  0
 18 30  2  0  0  0  0
 18 31  1  0  0  0  0
 19 32  1  0  0  0  0
 20 34  1  0  0  0  0
 21 32  1  0  0  0  0
 21 33  2  0  0  0  0
 21 35  1  0  0  0  0
 22 24  2  0  0  0  0
 22 40  1  0  0  0  0
 23 25  2  0  0  0  0
 23 41  1  0  0  0  0
 24 49  1  0  0  0  0
 25 42  1  0  0  0  0
 26 70  1  0  0  0  0
 27 81  1  0  0  0  0
 28 82  1  0  0  0  0
 29 31  2  0  0  0  0
 29 81  1  0  0  0  0
 30 83  1  0  0  0  0
 31 84  1  0  0  0  0
 32 62  2  0  0  0  0
 33 64  1  0  0  0  0
 33 67  1  0  0  0  0
 34 63  2  0  0  0  0
 34 68  1  0  0  0  0
 35 69  1  0  0  0  0
 35 74  2  0  0  0  0
 36 50  1  0  0  0  0
 36 71  1  0  0  0  0
 36 75  2  0  0  0  0
 37 59  1  0  0  0  0
 37 65  1  0  0  0  0
 37 76  2  0  0  0  0
 38 60  1  0  0  0  0
 38 72  1  0  0  0  0
 38 77  2  0  0  0  0
 39 66  1  0  0  0  0
 39 70  1  0  0  0  0
 39 78  2  0  0  0  0
 40 43  1  0  0  0  0
 41 50  1  0  0  0  0
 42 65  1  0  0  0  0
 43 45  1  0  0  0  0
 44 46  1  0  0  0  0
 44 47  1  0  0  0  0
 45 49  1  0  0  0  0
 46 51  1  0  0  0  0
 47 66  1  0  0  0  0
 48 51  1  0  0  0  0
 48 66  1  0  0  0  0
 49 71  1  0  0  0  0
 50 65  1  0  0  0  0
 51 64  1  0  0  0  0
 52 60  1  0  0  0  0
 53 61  1  0  0  0  0
 54 61  1  0  0  0  0
 55 61  1  0  0  0  0
 56 73  1  0  0  0  0
 57 58  1  0  0  0  0
 57 82  1  0  0  0  0
 58 85  1  0  0  0  0
 59 61  1  0  0  0  0
 59 72  1  0  0  0  0
 60 73  1  0  0  0  0
 62 64  1  0  0  0  0
 63 85  1  0  0  0  0
 79 85  2  0  0  0  0
 80 85  2  0  0  0  0
M  CHG  1  73   1
M  ISO  4  39 100  57 101  70 100  82 101
M  END
> <Batch ID>
0069

> <Smiles>
CNC(C)C(=O)NC(C(=O)N1Cc2cc([101O:1][101CH2:1]CS(=O)(=O)NC(=N)c3ccc([100NH:0][100C:0](=O)N4CCCC(n5nc(-c6ccc(Oc7ccc(F)cc7F)cc6)c(C(N)=O)c5N)C4)cc3)ccc2CC1C(=O)NC1CCCc2ccccc21)C(C)(C)C

> <Shape>
0.295

> <Color>
0.095

> <Negative vol penalty>
0.000

$$$$

  -OEChem-04042323303D

 85 93  0     1  0  0  0  0  0999 V2000
  -19.2922  -28.5792   23.1945 C   0  0  0  0  0  0  0  0  0  0  0  0
  -20.5344  -28.0471   23.5248 C   0  0  0  0  0  0  0  0  0  0  0  0
  -20.1068  -15.9591   19.0727 C   0  0  0  0  0  0  0  0  0  0  0  0
  -20.2147  -16.5480   21.4134 C   0  0  0  0  0  0  0  0  0  0  0  0
  -18.4703  -27.9152   22.2848 C   0  0  0  0  0  0  0  0  0  0  0  0
  -20.9550  -26.8500   22.9465 C   0  0  0  0  0  0  0  0  0  0  0  0
  -26.8870  -23.5033   20.7268 C   0  0  0  0  0  0  0  0  0  0  0  0
  -18.7932  -16.4247   19.0161 C   0  0  0  0  0  0  0  0  0  0  0  0
  -18.9011  -17.0136   21.3568 C   0  0  0  0  0  0  0  0  0  0  0  0
  -27.5623  -22.2932   20.8799 C   0  0  0  0  0  0  0  0  0  0  0  0
  -17.2144  -19.4070   18.8010 C   0  0  0  0  0  0  0  0  0  0  0  0
  -16.8565  -20.2074   17.7163 C   0  0  0  0  0  0  0  0  0  0  0  0
  -26.0919  -21.2748   19.2612 C   0  0  0  0  0  0  0  0  0  0  0  0
  -15.1748  -18.5936   17.0802 C   0  0  0  0  0  0  0  0  0  0  0  0
  -29.0409  -13.0177   21.4066 C   0  0  0  0  0  0  0  0  0  0  0  0
  -20.8176  -16.0208   20.2714 C   0  0  0  0  0  0  0  0  0  0  0  0
  -23.3493  -16.2772   20.0911 C   0  0  0  0  0  0  0  0  0  0  0  0
  -18.8850  -26.7144   21.6877 C   0  0  0  0  0  0  0  0  0  0  0  0
  -25.8004  -23.6056   19.8463 C   0  0  0  0  0  0  0  0  0  0  0  0
  -20.1372  -26.1686   22.0290 C   0  0  0  0  0  0  0  0  0  0  0  0
  -25.4062  -22.4880   19.0968 C   0  0  0  0  0  0  0  0  0  0  0  0
  -29.1925  -13.7875   20.2743 C   0  0  0  0  0  0  0  0  0  0  0  0
  -28.6031  -13.1775   19.1295 C   0  0  0  0  0  0  0  0  0  0  0  0
  -18.1903  -16.9519   20.1581 C   0  0  0  0  0  0  0  0  0  0  0  0
  -27.1630  -21.1780   20.1492 C   0  0  0  0  0  0  0  0  0  0  0  0
  -16.5526  -18.1997   19.0253 C   0  0  0  0  0  0  0  0  0  0  0  0
  -15.8367  -19.8008   16.8558 C   0  0  0  0  0  0  0  0  0  0  0  0
  -15.5328  -17.7931   18.1649 C   0  0  0  0  0  0  0  0  0  0  0  0
  -22.1744  -15.5395   20.3306 C   0  0  0  0  0  0  0  0  0  0  0  0
  -24.3661  -15.3719   20.2728 C   0  0  0  0  0  0  0  0  0  0  0  0
  -28.0236  -11.9644   19.4304 C   0  0  0  0  0  0  0  0  0  0  0  0
  -23.5073  -17.6573   19.7361 C   0  0  0  0  0  0  0  0  0  0  0  0
  -22.7114  -24.2840   20.1649 C   0  0  0  0  0  0  0  0  0  0  0  0
  -22.7542  -24.1820   16.9230 C   0  0  0  0  0  0  0  0  0  0  0  0
  -29.2280  -17.4583   20.8093 C   0  0  0  0  0  0  0  0  0  0  0  0
  -24.2510  -23.0314   14.0800 C   0  0  0  0  0  0  0  0  0  0  0  0
  -26.3040  -10.1718   19.0827 C   0  0  0  0  0  0  0  0  0  0  0  0
  -17.9420  -26.0083   20.7460 C   0  0  0  0  0  0  0  0  0  0  0  0
  -25.0994  -24.9250   19.6727 C   0  0  0  0  0  0  0  0  0  0  0  0
  -24.2587  -22.5507   18.1233 C   0  0  0  0  0  0  0  0  0  0  0  0
  -18.6200  -24.9386   19.8937 C   0  0  0  0  0  0  0  0  0  0  0  0
  -24.3641  -10.7033   22.1887 C   0  0  0  0  0  0  0  0  0  0  0  0
  -19.5204  -24.0601   20.7563 C   0  0  0  0  0  0  0  0  0  0  0  0
  -23.6534  -12.0290   21.9222 C   0  0  0  0  0  0  0  0  0  0  0  0
  -24.6390   -9.9385   20.8975 C   0  0  0  0  0  0  0  0  0  0  0  0
  -24.6893  -12.0605   19.6184 C   0  0  0  0  0  0  0  0  0  0  0  0
  -20.6392  -24.8850   21.4041 C   0  0  1  0  0  0  0  0  0  0  0  0
  -23.6808  -24.7811   19.1302 C   0  0  1  0  0  0  0  0  0  0  0  0
  -24.4372  -12.8687   20.9000 C   0  0  1  0  0  0  0  0  0  0  0  0
  -28.6119  -13.7773   17.7717 C   0  0  0  0  0  0  0  0  0  0  0  0
  -31.3651  -15.0111   20.6924 C   0  0  0  0  0  0  0  0  0  0  0  0
  -24.0357  -23.0847   11.5804 C   0  0  0  0  0  0  0  0  0  0  0  0
  -20.4581  -22.1787   17.0804 C   0  0  0  0  0  0  0  0  0  0  0  0
  -20.9218  -21.5657   14.6977 C   0  0  0  0  0  0  0  0  0  0  0  0
  -20.2262  -23.8913   15.2727 C   0  0  0  0  0  0  0  0  0  0  0  0
  -27.8707  -10.7300   17.2755 C   0  0  0  0  0  0  0  0  0  0  0  0
  -26.8896  -24.3341   13.7645 C   0  0  0  0  0  0  0  0  0  0  0  0
  -28.4080  -18.2344   21.8280 C   0  0  0  0  0  0  0  0  0  0  0  0
  -28.4066  -19.7335   21.5714 C   0  0  0  0  0  0  0  0  0  1  0  0
  -29.9041  -15.1232   20.2616 C   0  0  2  0  0  0  0  0  0  0  0  0
  -22.5501  -23.1055   15.8844 C   0  0  1  0  0  0  0  0  0  0  0  0
  -24.6632  -23.7386   12.8016 C   0  0  2  0  0  0  0  0  0  0  0  0
  -21.0595  -22.6833   15.7535 C   0  0  0  0  0  0  0  0  0  0  0  0
  -22.4207  -14.2639   20.6407 N   0  0  0  0  0  0  0  0  0  0  0  0
  -23.7620  -14.1929   20.5972 N   0  0  0  0  0  0  0  0  0  0  0  0
  -23.6010  -23.8615   17.9935 N   0  0  0  0  0  0  0  0  0  0  0  0
  -25.3323  -10.7692   19.9116 N   0  0  0  0  0  0  0  0  0  0  0  0
  -25.7091  -15.4774   20.1851 N   0  0  0  0  0  0  0  0  0  0  0  0
  -22.3576  -18.4455   19.5900 N   0  0  0  0  0  0  0  0  0  0  0  0
  -21.6831  -25.1646   20.4415 N   0  0  0  0  0  0  0  0  0  0  0  0
  -29.2080  -16.0961   21.0724 N   0  0  0  0  0  0  0  0  0  0  0  0
  -23.1381  -23.6130   14.6495 N   0  0  0  0  0  0  0  0  0  0  0  0
  -27.3245  -11.0136   18.6008 N   0  0  0  0  0  0  0  0  0  0  0  0
  -26.1448  -23.7032   12.6446 N   0  3  0  0  0  0  0  0  0  0  0  0
  -24.6339  -18.1721   19.5378 O   0  0  0  0  0  0  0  0  0  0  0  0
  -22.8827  -23.1823   20.6735 O   0  0  0  0  0  0  0  0  0  0  0  0
  -22.1888  -25.2697   16.7856 O   0  0  0  0  0  0  0  0  0  0  0  0
  -29.8250  -17.9915   19.8780 O   0  0  0  0  0  0  0  0  0  0  0  0
  -24.8537  -22.0578   14.5267 O   0  0  0  0  0  0  0  0  0  0  0  0
  -26.2372   -8.9825   18.7483 O   0  0  0  0  0  0  0  0  0  0  0  0
  -16.9085  -17.4065   20.1032 O   0  0  0  0  0  0  0  0  0  0  0  0
  -27.8199  -19.9954   20.2973 O   0  0  0  0  0  0  0  0  0  1  0  0
  -15.4921  -20.5703   15.8151 F   0  0  0  0  0  0  0  0  0  0  0  0
  -14.8926  -16.6349   18.3760 F   0  0  0  0  0  0  0  0  0  0  0  0
  -28.1909  -11.5658   21.0873 S   0  0  0  0  0  0  0  0  0  0  0  0
  1  2  1  0  0  0  0
  1  5  2  0  0  0  0
  2  6  2  0  0  0  0
  3  8  2  0  0  0  0
  3 16  1  0  0  0  0
  4  9  1  0  0  0  0
  4 16  2  0  0  0  0
  5 18  1  0  0  0  0
  6 20  1  0  0  0  0
  7 10  2  0  0  0  0
  7 19  1  0  0  0  0
  8 24  1  0  0  0  0
  9 24  2  0  0  0  0
 10 25  1  0  0  0  0
 11 12  2  0  0  0  0
 11 26  1  0  0  0  0
 12 27  1  0  0  0  0
 13 21  1  0  0  0  0
 13 25  2  0  0  0  0
 14 27  2  0  0  0  0
 14 28  1  0  0  0  0
 15 22  2  0  0  0  0
 15 85  1  0  0  0  0
 16 29  1  0  0  0  0
 17 29  1  0  0  0  0
 17 30  2  0  0  0  0
 17 32  1  0  0  0  0
 18 20  2  0  0  0  0
 18 38  1  0  0  0  0
 19 21  2  0  0  0  0
 19 39  1  0  0  0  0
 20 47  1  0  0  0  0
 21 40  1  0  0  0  0
 22 23  1  0  0  0  0
 22 60  1  0  0  0  0
 23 31  2  0  0  0  0
 23 50  1  0  0  0  0
 24 81  1  0  0  0  0
 25 82  1  0  0  0  0
 26 28  2  0  0  0  0
 26 81  1  0  0  0  0
 27 83  1  0  0  0  0
 28 84  1  0  0  0  0
 29 64  2  0  0  0  0
 30 65  1  0  0  0  0
 30 68  1  0  0  0  0
 31 73  1  0  0  0  0
 31 85  1  0  0  0  0
 32 69  1  0  0  0  0
 32 75  2  0  0  0  0
 33 48  1  0  0  0  0
 33 70  1  0  0  0  0
 33 76  2  0  0  0  0
 34 61  1  0  0  0  0
 34 66  1  0  0  0  0
 34 77  2  0  0  0  0
 35 58  1  0  0  0  0
 35 71  1  0  0  0  0
 35 78  2  0  0  0  0
 36 62  1  0  0  0  0
 36 72  1  0  0  0  0
 36 79  2  0  0  0  0
 37 67  1  0  0  0  0
 37 73  1  0  0  0  0
 37 80  2  0  0  0  0
 38 41  1  0  0  0  0
 39 48  1  0  0  0  0
 40 66  1  0  0  0  0
 41 43  1  0  0  0  0
 42 44  1  0  0  0  0
 42 45  1  0  0  0  0
 43 47  1  0  0  0  0
 44 49  1  0  0  0  0
 45 67  1  0  0  0  0
 46 49  1  0  0  0  0
 46 67  1  0  0  0  0
 47 70  1  0  0  0  0
 48 66  1  0  0  0  0
 49 65  1  0  0  0  0
 51 60  1  0  0  0  0
 52 62  1  0  0  0  0
 53 63  1  0  0  0  0
 54 63  1  0  0  0  0
 55 63  1  0  0  0  0
 56 73  1  0  0  0  0
 57 74  1  0  0  0  0
 58 59  1  0  0  0  0
 59 82  1  0  0  0  0
 60 71  1  0  0  0  0
 61 63  1  0  0  0  0
 61 72  1  0  0  0  0
 62 74  1  0  0  0  0
 64 65  1  0  0  0  0
M  CHG  1  74   1
M  ISO  4  37 100  59 101  73 100  82 101
M  END
> <Batch ID>
0069

> <Smiles>
CNC(C)C(=O)NC(C(=O)N1Cc2cc([101O:1][101CH2:1]CC(=O)NC(C)c3csc([100N:0](C)[100C:0](=O)N4CCCC(n5nc(-c6ccc(Oc7ccc(F)cc7F)cc6)c(C(N)=O)c5N)C4)c3C)ccc2CC1C(=O)NC1CCCc2ccccc21)C(C)(C)C

> <Shape>
0.172

> <Color>
0.094

> <Negative vol penalty>
0.000

$$$$

  -OEChem-04042323303D

 88 97  0     1  0  0  0  0  0999 V2000
  -29.6014  -31.6500   26.1250 C   0  0  0  0  0  0  0  0  0  0  0  0
  -29.3215  -30.5817   25.2789 C   0  0  0  0  0  0  0  0  0  0  0  0
  -22.0939  -10.9773   20.1932 C   0  0  0  0  0  0  0  0  0  0  0  0
  -23.4866  -11.6122   22.0625 C   0  0  0  0  0  0  0  0  0  0  0  0
  -28.5587  -32.3506   26.7296 C   0  0  0  0  0  0  0  0  0  0  0  0
  -27.9986  -30.2127   25.0379 C   0  0  0  0  0  0  0  0  0  0  0  0
  -27.0933  -29.3187   20.1362 C   0  0  0  0  0  0  0  0  0  0  0  0
  -27.2240  -19.8300   23.5771 C   0  0  0  0  0  0  0  0  0  0  0  0
  -26.0610  -19.2635   23.0556 C   0  0  0  0  0  0  0  0  0  0  0  0
  -22.7606   -9.7549   20.1117 C   0  0  0  0  0  0  0  0  0  0  0  0
  -24.1533  -10.3897   21.9810 C   0  0  0  0  0  0  0  0  0  0  0  0
  -27.5206  -28.0950   19.6227 C   0  0  0  0  0  0  0  0  0  0  0  0
  -25.9807   -7.2890   22.4953 C   0  0  0  0  0  0  0  0  0  0  0  0
  -26.2167   -6.5977   23.6836 C   0  0  0  0  0  0  0  0  0  0  0  0
  -25.2740  -27.2373   19.8134 C   0  0  0  0  0  0  0  0  0  0  0  0
  -26.3028  -20.6041   21.0603 C   0  0  0  0  0  0  0  0  0  0  0  0
  -23.8382   -6.4929   24.0950 C   0  0  0  0  0  0  0  0  0  0  0  0
  -22.4570  -11.9061   21.1686 C   0  0  0  0  0  0  0  0  0  0  0  0
  -20.6192  -13.4622   22.0104 C   0  0  0  0  0  0  0  0  0  0  0  0
  -27.2220  -31.9961   26.4883 C   0  0  0  0  0  0  0  0  0  0  0  0
  -25.7531  -29.5077   20.5030 C   0  0  0  0  0  0  0  0  0  0  0  0
  -26.9370  -30.9084   25.6409 C   0  0  0  0  0  0  0  0  0  0  0  0
  -24.8317  -28.4652   20.3289 C   0  0  0  0  0  0  0  0  0  0  0  0
  -27.9264  -20.7836   22.8403 C   0  0  0  0  0  0  0  0  0  0  0  0
  -27.4658  -21.1706   21.5818 C   0  0  0  0  0  0  0  0  0  0  0  0
  -25.6004  -19.6505   21.7972 C   0  0  0  0  0  0  0  0  0  0  0  0
  -23.7902   -9.4610   21.0056 C   0  0  0  0  0  0  0  0  0  0  0  0
  -26.6115  -27.0531   19.4639 C   0  0  0  0  0  0  0  0  0  0  0  0
  -24.6735   -7.5823   22.1069 C   0  0  0  0  0  0  0  0  0  0  0  0
  -25.1455   -6.1996   24.4834 C   0  0  0  0  0  0  0  0  0  0  0  0
  -23.6023   -7.1843   22.9067 C   0  0  0  0  0  0  0  0  0  0  0  0
  -21.7691  -13.1693   21.2529 C   0  0  0  0  0  0  0  0  0  0  0  0
  -20.3653  -14.7868   21.7508 C   0  0  0  0  0  0  0  0  0  0  0  0
  -29.5029  -22.0541   20.3583 C   0  0  0  0  0  0  0  0  0  0  0  0
  -19.8495  -12.6129   22.8717 C   0  0  0  0  0  0  0  0  0  0  0  0
  -24.2438  -30.1763   23.2194 C   0  0  0  0  0  0  0  0  0  0  0  0
  -21.6521  -30.3673   21.2780 C   0  0  0  0  0  0  0  0  0  0  0  0
  -20.1564  -29.4676   18.3454 C   0  0  0  0  0  0  0  0  0  0  0  0
  -23.8251  -19.3468   20.0358 C   0  0  0  0  0  0  0  0  0  0  0  0
  -26.1300  -32.7532   27.2018 C   0  0  0  0  0  0  0  0  0  0  0  0
  -25.3026  -30.8424   21.0305 C   0  0  0  0  0  0  0  0  0  0  0  0
  -23.3777  -28.6237   20.6885 C   0  0  0  0  0  0  0  0  0  0  0  0
  -24.7443  -32.5358   26.5993 C   0  0  0  0  0  0  0  0  0  0  0  0
  -20.9387  -18.1142   18.3546 C   0  0  0  0  0  0  0  0  0  0  0  0
  -24.5010  -31.0522   26.3417 C   0  0  0  0  0  0  0  0  0  0  0  0
  -20.7159  -16.7354   18.9803 C   0  0  0  0  0  0  0  0  0  0  0  0
  -22.4246  -18.4324   18.1980 C   0  0  0  0  0  0  0  0  0  0  0  0
  -22.9997  -16.9108   20.0481 C   0  0  0  0  0  0  0  0  0  0  0  0
  -27.5685  -23.4146   20.4406 C   0  0  0  0  0  0  0  0  0  0  0  0
  -25.5141  -30.4936   25.3352 C   0  0  1  0  0  0  0  0  0  0  0  0
  -24.0200  -30.7581   21.8522 C   0  0  1  0  0  0  0  0  0  0  0  0
  -21.5189  -16.5725   20.2857 C   0  0  2  0  0  0  0  0  0  0  0  0
  -29.8619  -23.3983   19.7132 C   0  0  0  0  0  0  0  0  0  0  0  0
  -28.4582  -23.9473   19.3062 C   0  0  1  0  0  0  0  0  0  0  0  0
  -29.1691  -21.3736   23.4239 C   0  0  0  0  0  0  0  0  0  0  0  0
  -30.8330  -23.2015   18.5440 C   0  0  0  0  0  0  0  0  0  0  0  0
  -30.5656  -24.2378   20.7986 C   0  0  0  0  0  0  0  0  0  0  0  0
  -27.9573  -23.3716   17.9611 C   0  0  0  0  0  0  0  0  0  0  0  0
  -18.0221  -29.7480   17.0555 C   0  0  0  0  0  0  0  0  0  0  0  0
  -20.2729  -28.3742   23.1315 C   0  0  0  0  0  0  0  0  0  0  0  0
  -18.5809  -27.9756   21.3297 C   0  0  0  0  0  0  0  0  0  0  0  0
  -18.8138  -30.2446   22.3397 C   0  0  0  0  0  0  0  0  0  0  0  0
  -21.5559  -30.7749   16.0890 C   0  0  0  0  0  0  0  0  0  0  0  0
  -28.3766  -25.4774   19.2242 C   0  0  0  0  0  0  0  0  0  1  0  0
  -20.6132  -29.3905   20.7826 C   0  0  1  0  0  0  0  0  0  0  0  0
  -19.4247  -30.2845   17.2958 C   0  0  2  0  0  0  0  0  0  0  0  0
  -19.5979  -28.9923   21.8908 C   0  0  0  0  0  0  0  0  0  0  0  0
  -22.2148  -14.2231   20.5637 N   0  0  0  0  0  0  0  0  0  0  0  0
  -21.3403  -15.1910   20.8870 N   0  0  0  0  0  0  0  0  0  0  0  0
  -28.1707  -22.1453   20.8122 N   0  0  0  0  0  0  0  0  0  0  0  0
  -22.9873  -29.9454   21.2062 N   0  0  0  0  0  0  0  0  0  0  0  0
  -23.1200  -18.2607   19.4754 N   0  0  0  0  0  0  0  0  0  0  0  0
  -19.4052  -15.6336   22.1794 N   0  0  0  0  0  0  0  0  0  0  0  0
  -20.2497  -11.2786   23.0258 N   0  0  0  0  0  0  0  0  0  0  0  0
  -24.4188  -19.0747   21.2679 N   0  0  0  0  0  0  0  0  0  0  0  0
  -25.1527  -30.8786   23.9877 N   0  0  0  0  0  0  0  0  0  0  0  0
  -20.0045  -30.0033   19.6068 N   0  0  0  0  0  0  0  0  0  0  0  0
  -20.1676  -30.2530   16.0042 N   0  3  0  0  0  0  0  0  0  0  0  0
  -30.3040  -21.1376   20.4809 O   0  0  0  0  0  0  0  0  0  0  0  0
  -18.8273  -13.0207   23.4737 O   0  0  0  0  0  0  0  0  0  0  0  0
  -23.6358  -29.1661   23.5531 O   0  0  0  0  0  0  0  0  0  0  0  0
  -21.2928  -31.4669   21.7061 O   0  0  0  0  0  0  0  0  0  0  0  0
  -20.7954  -28.4534   18.0740 O   0  0  0  0  0  0  0  0  0  0  0  0
  -23.8740  -20.4460   19.4778 O   0  0  0  0  0  0  0  0  0  0  0  0
  -24.4408   -8.2681   20.9265 O   0  0  0  0  0  0  0  0  0  0  0  0
  -27.0261  -25.8575   18.9635 O   0  0  0  0  0  0  0  0  0  1  0  0
  -25.3722   -5.5344   25.6237 F   0  0  0  0  0  0  0  0  0  0  0  0
  -22.3442   -7.4622   22.5382 F   0  0  0  0  0  0  0  0  0  0  0  0
  1  2  1  0  0  0  0
  1  5  2  0  0  0  0
  2  6  2  0  0  0  0
  3 10  2  0  0  0  0
  3 18  1  0  0  0  0
  4 11  1  0  0  0  0
  4 18  2  0  0  0  0
  5 20  1  0  0  0  0
  6 22  1  0  0  0  0
  7 12  2  0  0  0  0
  7 21  1  0  0  0  0
  8  9  2  0  0  0  0
  8 24  1  0  0  0  0
  9 26  1  0  0  0  0
 10 27  1  0  0  0  0
 11 27  2  0  0  0  0
 12 28  1  0  0  0  0
 13 14  2  0  0  0  0
 13 29  1  0  0  0  0
 14 30  1  0  0  0  0
 15 23  1  0  0  0  0
 15 28  2  0  0  0  0
 16 25  1  0  0  0  0
 16 26  2  0  0  0  0
 17 30  2  0  0  0  0
 17 31  1  0  0  0  0
 18 32  1  0  0  0  0
 19 32  1  0  0  0  0
 19 33  2  0  0  0  0
 19 35  1  0  0  0  0
 20 22  2  0  0  0  0
 20 40  1  0  0  0  0
 21 23  2  0  0  0  0
 21 41  1  0  0  0  0
 22 50  1  0  0  0  0
 23 42  1  0  0  0  0
 24 25  2  0  0  0  0
 24 55  1  0  0  0  0
 25 70  1  0  0  0  0
 26 75  1  0  0  0  0
 27 85  1  0  0  0  0
 28 86  1  0  0  0  0
 29 31  2  0  0  0  0
 29 85  1  0  0  0  0
 30 87  1  0  0  0  0
 31 88  1  0  0  0  0
 32 68  2  0  0  0  0
 33 69  1  0  0  0  0
 33 73  1  0  0  0  0
 34 53  1  0  0  0  0
 34 70  1  0  0  0  0
 34 79  2  0  0  0  0
 35 74  1  0  0  0  0
 35 80  2  0  0  0  0
 36 51  1  0  0  0  0
 36 76  1  0  0  0  0
 36 81  2  0  0  0  0
 37 65  1  0  0  0  0
 37 71  1  0  0  0  0
 37 82  2  0  0  0  0
 38 66  1  0  0  0  0
 38 77  1  0  0  0  0
 38 83  2  0  0  0  0
 39 72  1  0  0  0  0
 39 75  1  0  0  0  0
 39 84  2  0  0  0  0
 40 43  1  0  0  0  0
 41 51  1  0  0  0  0
 42 71  1  0  0  0  0
 43 45  1  0  0  0  0
 44 46  1  0  0  0  0
 44 47  1  0  0  0  0
 45 50  1  0  0  0  0
 46 52  1  0  0  0  0
 47 72  1  0  0  0  0
 48 52  1  0  0  0  0
 48 72  1  0  0  0  0
 49 54  1  0  0  0  0
 49 70  1  0  0  0  0
 50 76  1  0  0  0  0
 51 71  1  0  0  0  0
 52 69  1  0  0  0  0
 53 54  1  0  0  0  0
 53 56  1  0  0  0  0
 53 57  1  0  0  0  0
 54 58  1  0  0  0  0
 54 64  1  0  0  0  0
 59 66  1  0  0  0  0
 60 67  1  0  0  0  0
 61 67  1  0  0  0  0
 62 67  1  0  0  0  0
 63 78  1  0  0  0  0
 64 86  1  0  0  0  0
 65 67  1  0  0  0  0
 65 77  1  0  0  0  0
 66 78  1  0  0  0  0
 68 69  1  0  0  0  0
M  CHG  1  78   1
M  ISO  4  39 100  64 101  75 100  86 101
M  END
> <Batch ID>
0069

> <Smiles>
CNC(C)C(=O)NC(C(=O)N1Cc2cc([101O:1][101CH2:1]C3(C)CN(c4cc([100NH:0][100C:0](=O)N5CCCC(n6nc(-c7ccc(Oc8ccc(F)cc8F)cc7)c(C(N)=O)c6N)C5)ccc4C)C(=O)C3(C)C)ccc2CC1C(=O)NC1CCCc2ccccc21)C(C)(C)C

> <Shape>
0.254

> <Color>
0.069

> <Negative vol penalty>
0.000

$$$$

  -OEChem-04042323303D

 83 91  0     1  0  0  0  0  0999 V2000
  -26.7084  -23.2849   17.8390 C   0  0  0  0  0  0  0  0  0  0  0  0
  -25.6291  -23.7185   18.6022 C   0  0  0  0  0  0  0  0  0  0  0  0
  -27.3406  -16.5716   19.0127 C   0  0  0  0  0  0  0  0  0  0  0  0
  -26.8118  -17.7279   21.0671 C   0  0  0  0  0  0  0  0  0  0  0  0
  -19.1640  -22.4036   22.9183 C   0  0  0  0  0  0  0  0  0  0  0  0
  -27.9949  -23.7335   18.1349 C   0  0  0  0  0  0  0  0  0  0  0  0
  -25.8358  -24.6003   19.6625 C   0  0  0  0  0  0  0  0  0  0  0  0
  -22.4471  -28.3624   19.7497 C   0  0  0  0  0  0  0  0  0  0  0  0
  -19.5807  -21.2653   22.2282 C   0  0  0  0  0  0  0  0  0  0  0  0
  -28.6508  -17.0448   19.0836 C   0  0  0  0  0  0  0  0  0  0  0  0
  -28.1221  -18.2010   21.1381 C   0  0  0  0  0  0  0  0  0  0  0  0
  -21.1805  -28.0669   20.2519 C   0  0  0  0  0  0  0  0  0  0  0  0
  -30.3004  -19.9184   18.4161 C   0  0  0  0  0  0  0  0  0  0  0  0
  -30.8686  -20.4283   17.2488 C   0  0  0  0  0  0  0  0  0  0  0  0
  -21.7911  -29.0640   22.3619 C   0  0  0  0  0  0  0  0  0  0  0  0
  -18.4082  -22.0300   20.2590 C   0  0  0  0  0  0  0  0  0  0  0  0
  -32.6074  -18.7549   17.3641 C   0  0  0  0  0  0  0  0  0  0  0  0
  -26.4210  -16.9132   20.0045 C   0  0  0  0  0  0  0  0  0  0  0  0
  -18.3693  -23.3550   22.2788 C   0  0  0  0  0  0  0  0  0  0  0  0
  -24.5646  -15.2283   20.4759 C   0  0  0  0  0  0  0  0  0  0  0  0
  -28.2163  -24.6287   19.1933 C   0  0  0  0  0  0  0  0  0  0  0  0
  -23.4005  -29.0022   20.5548 C   0  0  0  0  0  0  0  0  0  0  0  0
  -27.1267  -25.0602   19.9736 C   0  0  0  0  0  0  0  0  0  0  0  0
  -23.0682  -29.3688   21.8668 C   0  0  0  0  0  0  0  0  0  0  0  0
  -19.2029  -21.0786   20.8985 C   0  0  0  0  0  0  0  0  0  0  0  0
  -17.9914  -23.1683   20.9492 C   0  0  0  0  0  0  0  0  0  0  0  0
  -29.0416  -17.8594   20.1463 C   0  0  0  0  0  0  0  0  0  0  0  0
  -20.8533  -28.4151   21.5591 C   0  0  0  0  0  0  0  0  0  0  0  0
  -30.8858  -18.8267   19.0575 C   0  0  0  0  0  0  0  0  0  0  0  0
  -32.0221  -19.8466   16.7227 C   0  0  0  0  0  0  0  0  0  0  0  0
  -32.0393  -18.2450   18.5315 C   0  0  0  0  0  0  0  0  0  0  0  0
  -25.0673  -16.4253   19.9315 C   0  0  0  0  0  0  0  0  0  0  0  0
  -23.2342  -15.2280   20.1347 C   0  0  0  0  0  0  0  0  0  0  0  0
  -17.9417  -24.5512   23.0318 C   0  0  0  0  0  0  0  0  0  0  0  0
  -25.2398  -14.2080   21.2234 C   0  0  0  0  0  0  0  0  0  0  0  0
  -26.2772  -28.2328   21.6665 C   0  0  0  0  0  0  0  0  0  0  0  0
  -26.2562  -31.2969   22.7312 C   0  0  0  0  0  0  0  0  0  0  0  0
  -24.4340  -34.0285   23.6610 C   0  0  0  0  0  0  0  0  0  0  0  0
  -19.3418  -19.5835   18.8757 C   0  0  0  0  0  0  0  0  0  0  0  0
  -29.6309  -25.0489   19.5048 C   0  0  0  0  0  0  0  0  0  0  0  0
  -24.7533  -29.3379   19.9895 C   0  0  0  0  0  0  0  0  0  0  0  0
  -24.0491  -30.0752   22.7653 C   0  0  0  0  0  0  0  0  0  0  0  0
  -29.7167  -26.2753   20.4097 C   0  0  0  0  0  0  0  0  0  0  0  0
  -20.2293  -16.8483   16.7761 C   0  0  0  0  0  0  0  0  0  0  0  0
  -28.7621  -26.1348   21.5912 C   0  0  0  0  0  0  0  0  0  0  0  0
  -21.5217  -16.3167   17.4001 C   0  0  0  0  0  0  0  0  0  0  0  0
  -20.1436  -18.3712   16.8601 C   0  0  0  0  0  0  0  0  0  0  0  0
  -21.6244  -18.3988   18.8288 C   0  0  0  0  0  0  0  0  0  0  0  0
  -27.3074  -26.0358   21.1163 C   0  0  1  0  0  0  0  0  0  0  0  0
  -25.8188  -29.5308   21.0642 C   0  0  1  0  0  0  0  0  0  0  0  0
  -21.7259  -16.8648   18.8261 C   0  0  2  0  0  0  0  0  0  0  0  0
  -24.6957  -36.3718   24.5198 C   0  0  0  0  0  0  0  0  0  0  0  0
  -26.9023  -30.2051   25.5062 C   0  0  0  0  0  0  0  0  0  0  0  0
  -26.2193  -32.4172   26.4592 C   0  0  0  0  0  0  0  0  0  0  0  0
  -28.1501  -32.2817   24.8856 C   0  0  0  0  0  0  0  0  0  0  0  0
  -23.0992  -35.1737   21.2807 C   0  0  0  0  0  0  0  0  0  0  0  0
  -18.4094  -26.8796   23.7072 C   0  0  0  0  0  0  0  0  0  0  0  0
  -19.5195  -27.8793   23.4538 C   0  0  0  0  0  0  0  0  0  1  0  0
  -25.8024  -31.9864   23.9952 C   0  0  1  0  0  0  0  0  0  0  0  0
  -24.5538  -35.4945   23.2857 C   0  0  2  0  0  0  0  0  0  0  0  0
  -26.7505  -31.7076   25.1955 C   0  0  0  0  0  0  0  0  0  0  0  0
  -24.1324  -17.1338   19.2927 N   0  0  0  0  0  0  0  0  0  0  0  0
  -23.0289  -16.3798   19.4335 N   0  0  0  0  0  0  0  0  0  0  0  0
  -25.3610  -30.3760   22.1688 N   0  0  0  0  0  0  0  0  0  0  0  0
  -20.3423  -18.8175   18.2407 N   0  0  0  0  0  0  0  0  0  0  0  0
  -17.1881  -24.1214   20.2853 N   0  0  0  0  0  0  0  0  0  0  0  0
  -22.2316  -14.3549   20.3689 N   0  0  0  0  0  0  0  0  0  0  0  0
  -16.7937  -24.4914   23.7067 N   0  0  0  0  0  0  0  0  0  0  0  0
  -26.6075  -14.3663   21.4855 N   0  0  0  0  0  0  0  0  0  0  0  0
  -19.6273  -19.9224   20.1979 N   0  0  0  0  0  0  0  0  0  0  0  0
  -26.8051  -27.3429   20.7506 N   0  0  0  0  0  0  0  0  0  0  0  0
  -25.6610  -33.3995   23.6611 N   0  0  0  0  0  0  0  0  0  0  0  0
  -18.7242  -25.6365   22.9989 N   0  3  0  0  0  0  0  0  0  0  0  0
  -23.3468  -35.9364   22.5314 N   0  3  0  0  0  0  0  0  0  0  0  0
  -24.6515  -13.1784   21.6323 O   0  0  0  0  0  0  0  0  0  0  0  0
  -26.1620  -28.0527   22.8732 O   0  0  0  0  0  0  0  0  0  0  0  0
  -27.3613  -31.5707   22.2564 O   0  0  0  0  0  0  0  0  0  0  0  0
  -23.3599  -33.4956   23.9309 O   0  0  0  0  0  0  0  0  0  0  0  0
  -18.2959  -19.8913   18.2984 O   0  0  0  0  0  0  0  0  0  0  0  0
  -30.3201  -18.3211   20.2159 O   0  0  0  0  0  0  0  0  0  0  0  0
  -19.6179  -28.1273   22.0520 O   0  0  0  0  0  0  0  0  0  1  0  0
  -32.5667  -20.3355   15.6009 F   0  0  0  0  0  0  0  0  0  0  0  0
  -32.6055  -17.1953   19.1425 F   0  0  0  0  0  0  0  0  0  0  0  0
  1  2  1  0  0  0  0
  1  6  2  0  0  0  0
  2  7  2  0  0  0  0
  3 10  2  0  0  0  0
  3 18  1  0  0  0  0
  4 11  1  0  0  0  0
  4 18  2  0  0  0  0
  5  9  2  0  0  0  0
  5 19  1  0  0  0  0
  6 21  1  0  0  0  0
  7 23  1  0  0  0  0
  8 12  2  0  0  0  0
  8 22  1  0  0  0  0
  9 25  1  0  0  0  0
 10 27  1  0  0  0  0
 11 27  2  0  0  0  0
 12 28  1  0  0  0  0
 13 14  2  0  0  0  0
 13 29  1  0  0  0  0
 14 30  1  0  0  0  0
 15 24  1  0  0  0  0
 15 28  2  0  0  0  0
 16 25  2  0  0  0  0
 16 26  1  0  0  0  0
 17 30  2  0  0  0  0
 17 31  1  0  0  0  0
 18 32  1  0  0  0  0
 19 26  2  0  0  0  0
 19 34  1  0  0  0  0
 20 32  1  0  0  0  0
 20 33  2  0  0  0  0
 20 35  1  0  0  0  0
 21 23  2  0  0  0  0
 21 40  1  0  0  0  0
 22 24  2  0  0  0  0
 22 41  1  0  0  0  0
 23 49  1  0  0  0  0
 24 42  1  0  0  0  0
 25 70  1  0  0  0  0
 26 66  1  0  0  0  0
 27 80  1  0  0  0  0
 28 81  1  0  0  0  0
 29 31  2  0  0  0  0
 29 80  1  0  0  0  0
 30 82  1  0  0  0  0
 31 83  1  0  0  0  0
 32 62  2  0  0  0  0
 33 63  1  0  0  0  0
 33 67  1  0  0  0  0
 34 68  1  0  0  0  0
 34 73  2  0  0  0  0
 35 69  1  0  0  0  0
 35 75  2  0  0  0  0
 36 50  1  0  0  0  0
 36 71  1  0  0  0  0
 36 76  2  0  0  0  0
 37 59  1  0  0  0  0
 37 64  1  0  0  0  0
 37 77  2  0  0  0  0
 38 60  1  0  0  0  0
 38 72  1  0  0  0  0
 38 78  2  0  0  0  0
 39 65  1  0  0  0  0
 39 70  1  0  0  0  0
 39 79  2  0  0  0  0
 40 43  1  0  0  0  0
 41 50  1  0  0  0  0
 42 64  1  0  0  0  0
 43 45  1  0  0  0  0
 44 46  1  0  0  0  0
 44 47  1  0  0  0  0
 45 49  1  0  0  0  0
 46 51  1  0  0  0  0
 47 65  1  0  0  0  0
 48 51  1  0  0  0  0
 48 65  1  0  0  0  0
 49 71  1  0  0  0  0
 50 64  1  0  0  0  0
 51 63  1  0  0  0  0
 52 60  1  0  0  0  0
 53 61  1  0  0  0  0
 54 61  1  0  0  0  0
 55 61  1  0  0  0  0
 56 74  1  0  0  0  0
 57 58  1  0  0  0  0
 57 73  1  0  0  0  0
 58 81  1  0  0  0  0
 59 61  1  0  0  0  0
 59 72  1  0  0  0  0
 60 74  1  0  0  0  0
 62 63  1  0  0  0  0
M  CHG  2  73   1  74   1
M  ISO  4  39 100  58 101  70 100  81 101
M  END
> <Batch ID>
0069

> <Smiles>
CNC(C)C(=O)NC(C(=O)N1Cc2cc([101O:1][101CH2:1]CNC(=N)c3ccc([100NH:0][100C:0](=O)N4CCCC(n5nc(-c6ccc(Oc7ccc(F)cc7F)cc6)c(C(N)=O)c5N)C4)cc3N)ccc2CC1C(=O)NC1CCCc2ccccc21)C(C)(C)C

> <Shape>
0.234

> <Color>
0.066

> <Negative vol penalty>
0.000

$$$$

  -OEChem-04042323303D

 87 96  0     1  0  0  0  0  0999 V2000
  -26.4170  -37.3770   22.3365 C   0  0  0  0  0  0  0  0  0  0  0  0
  -27.0633  -36.2438   21.8531 C   0  0  0  0  0  0  0  0  0  0  0  0
  -23.6748  -10.4703   22.5530 C   0  0  0  0  0  0  0  0  0  0  0  0
  -22.7057  -12.5117   21.6983 C   0  0  0  0  0  0  0  0  0  0  0  0
  -25.4389  -37.2531   23.3224 C   0  0  0  0  0  0  0  0  0  0  0  0
  -26.7326  -34.9861   22.3563 C   0  0  0  0  0  0  0  0  0  0  0  0
  -26.6300  -29.6972   19.2704 C   0  0  0  0  0  0  0  0  0  0  0  0
  -29.4997  -19.9035   19.1224 C   0  0  0  0  0  0  0  0  0  0  0  0
  -29.5848  -18.5117   19.1566 C   0  0  0  0  0  0  0  0  0  0  0  0
  -22.7493  -10.4679   23.5966 C   0  0  0  0  0  0  0  0  0  0  0  0
  -21.7801  -12.5093   22.7419 C   0  0  0  0  0  0  0  0  0  0  0  0
  -27.5483  -28.6531   19.1678 C   0  0  0  0  0  0  0  0  0  0  0  0
  -19.5008   -9.6429   24.0431 C   0  0  0  0  0  0  0  0  0  0  0  0
  -18.8679   -8.4372   24.3454 C   0  0  0  0  0  0  0  0  0  0  0  0
  -27.2993  -18.3531   18.3896 C   0  0  0  0  0  0  0  0  0  0  0  0
  -26.3711  -27.4557   20.8998 C   0  0  0  0  0  0  0  0  0  0  0  0
  -19.7762   -8.5214   26.5826 C   0  0  0  0  0  0  0  0  0  0  0  0
  -23.6530  -11.4923   21.6039 C   0  0  0  0  0  0  0  0  0  0  0  0
  -27.2142  -19.7449   18.3554 C   0  0  0  0  0  0  0  0  0  0  0  0
  -24.4649  -10.8974   19.2599 C   0  0  0  0  0  0  0  0  0  0  0  0
  -25.0893  -35.9922   23.8309 C   0  0  0  0  0  0  0  0  0  0  0  0
  -25.5800  -29.6330   20.1976 C   0  0  0  0  0  0  0  0  0  0  0  0
  -25.7499  -34.8453   23.3508 C   0  0  0  0  0  0  0  0  0  0  0  0
  -25.4394  -28.4991   21.0104 C   0  0  0  0  0  0  0  0  0  0  0  0
  -28.3143  -20.5201   18.7219 C   0  0  0  0  0  0  0  0  0  0  0  0
  -28.4846  -17.7365   18.7901 C   0  0  0  0  0  0  0  0  0  0  0  0
  -21.8019  -11.4873   23.6910 C   0  0  0  0  0  0  0  0  0  0  0  0
  -27.4206  -27.5334   19.9845 C   0  0  0  0  0  0  0  0  0  0  0  0
  -20.2715  -10.2878   25.0105 C   0  0  0  0  0  0  0  0  0  0  0  0
  -19.0056   -7.8765   25.6152 C   0  0  0  0  0  0  0  0  0  0  0  0
  -20.4092   -9.7270   26.2803 C   0  0  0  0  0  0  0  0  0  0  0  0
  -24.6091  -11.4957   20.5260 C   0  0  0  0  0  0  0  0  0  0  0  0
  -25.6400  -11.1837   18.6090 C   0  0  0  0  0  0  0  0  0  0  0  0
  -28.0930  -24.0882   17.9645 C   0  0  0  0  0  0  0  0  0  0  0  0
  -27.9907  -22.6503   17.5549 C   0  0  0  0  0  0  0  0  0  0  0  0
  -25.9613  -20.3582   17.9323 C   0  0  0  0  0  0  0  0  0  0  0  0
  -23.3669  -10.1497   18.7204 C   0  0  0  0  0  0  0  0  0  0  0  0
  -24.7088  -31.3561   22.7226 C   0  0  0  0  0  0  0  0  0  0  0  0
  -22.1146  -29.4095   22.6672 C   0  0  0  0  0  0  0  0  0  0  0  0
  -20.7549  -26.4201   21.7390 C   0  0  0  0  0  0  0  0  0  0  0  0
  -29.6732  -15.5531   19.1982 C   0  0  0  0  0  0  0  0  0  0  0  0
  -24.0594  -35.9129   24.9299 C   0  0  0  0  0  0  0  0  0  0  0  0
  -24.5823  -30.7558   20.2773 C   0  0  0  0  0  0  0  0  0  0  0  0
  -24.3180  -28.3724   22.0078 C   0  0  0  0  0  0  0  0  0  0  0  0
  -23.5024  -34.5076   25.1423 C   0  0  0  0  0  0  0  0  0  0  0  0
  -30.2731  -12.0528   19.4536 C   0  0  0  0  0  0  0  0  0  0  0  0
  -24.6337  -33.4851   25.1811 C   0  0  0  0  0  0  0  0  0  0  0  0
  -28.8750  -11.4577   19.6362 C   0  0  0  0  0  0  0  0  0  0  0  0
  -30.4179  -13.3923   20.1737 C   0  0  0  0  0  0  0  0  0  0  0  0
  -28.4553  -22.7554   19.8643 C   0  0  0  0  0  0  0  0  0  0  0  0
  -27.9914  -13.7928   20.0282 C   0  0  0  0  0  0  0  0  0  0  0  0
  -25.4015  -33.4612   23.8538 C   0  0  1  0  0  0  0  0  0  0  0  0
  -28.6121  -24.1946   19.3660 C   0  0  2  0  0  0  0  0  0  0  0  0
  -23.8514  -30.8118   21.6153 C   0  0  1  0  0  0  0  0  0  0  0  0
  -27.7771  -12.4744   19.2668 C   0  0  2  0  0  0  0  0  0  0  0  0
  -18.6239  -25.1011   21.8663 C   0  0  0  0  0  0  0  0  0  0  0  0
  -22.6895  -28.7677   25.5942 C   0  0  0  0  0  0  0  0  0  0  0  0
  -21.1688  -26.7896   25.3868 C   0  0  0  0  0  0  0  0  0  0  0  0
  -20.2695  -29.0924   25.0533 C   0  0  0  0  0  0  0  0  0  0  0  0
  -20.4970  -26.3325   18.7921 C   0  0  0  0  0  0  0  0  0  0  0  0
  -27.8426  -25.2022   20.1931 C   0  0  0  0  0  0  0  0  0  1  0  0
  -21.7642  -28.0773   23.2848 C   0  0  1  0  0  0  0  0  0  0  0  0
  -19.4484  -26.0800   21.0449 C   0  0  2  0  0  0  0  0  0  0  0  0
  -21.4954  -28.1847   24.8124 C   0  0  0  0  0  0  0  0  0  0  0  0
  -25.7833  -12.1152   20.6728 N   0  0  0  0  0  0  0  0  0  0  0  0
  -25.1454  -19.8038   17.0884 N   0  0  0  0  0  0  0  0  0  0  0  0
  -26.3876  -11.9076   19.4906 N   0  0  0  0  0  0  0  0  0  0  0  0
  -28.2524  -21.9086   18.6954 N   0  0  0  0  0  0  0  0  0  0  0  0
  -23.3716  -29.4993   22.0526 N   0  0  0  0  0  0  0  0  0  0  0  0
  -29.3463  -14.3058   19.7711 N   0  0  0  0  0  0  0  0  0  0  0  0
  -26.0964  -10.8843   17.3743 N   0  0  0  0  0  0  0  0  0  0  0  0
  -22.2365   -9.9487   19.5241 N   0  0  0  0  0  0  0  0  0  0  0  0
  -28.5717  -16.3226   18.8251 N   0  0  0  0  0  0  0  0  0  0  0  0
  -24.6555  -32.7309   22.8515 N   0  0  0  0  0  0  0  0  0  0  0  0
  -20.6405  -27.5537   22.5157 N   0  0  0  0  0  0  0  0  0  0  0  0
  -19.7139  -25.4682   19.7122 N   0  3  0  0  0  0  0  0  0  0  0  0
  -27.8068  -24.9853   17.1975 O   0  0  0  0  0  0  0  0  0  0  0  0
  -27.7203  -22.3206   16.4189 O   0  0  0  0  0  0  0  0  0  0  0  0
  -23.3943   -9.6600   17.5658 O   0  0  0  0  0  0  0  0  0  0  0  0
  -25.3687  -30.5857   23.4102 O   0  0  0  0  0  0  0  0  0  0  0  0
  -21.3000  -30.3343   22.7216 O   0  0  0  0  0  0  0  0  0  0  0  0
  -21.7739  -25.7455   21.6085 O   0  0  0  0  0  0  0  0  0  0  0  0
  -30.8441  -15.9005   19.0247 O   0  0  0  0  0  0  0  0  0  0  0  0
  -20.8986  -11.4851   24.7091 O   0  0  0  0  0  0  0  0  0  0  0  0
  -28.3159  -26.5132   19.8869 O   0  0  0  0  0  0  0  0  0  1  0  0
  -18.3965   -6.7195   25.9058 F   0  0  0  0  0  0  0  0  0  0  0  0
  -21.1473  -10.3425   27.2142 F   0  0  0  0  0  0  0  0  0  0  0  0
  1  2  1  0  0  0  0
  1  5  2  0  0  0  0
  2  6  2  0  0  0  0
  3 10  2  0  0  0  0
  3 18  1  0  0  0  0
  4 11  1  0  0  0  0
  4 18  2  0  0  0  0
  5 21  1  0  0  0  0
  6 23  1  0  0  0  0
  7 12  2  0  0  0  0
  7 22  1  0  0  0  0
  8  9  2  0  0  0  0
  8 25  1  0  0  0  0
  9 26  1  0  0  0  0
 10 27  1  0  0  0  0
 11 27  2  0  0  0  0
 12 28  1  0  0  0  0
 13 14  2  0  0  0  0
 13 29  1  0  0  0  0
 14 30  1  0  0  0  0
 15 19  1  0  0  0  0
 15 26  2  0  0  0  0
 16 24  1  0  0  0  0
 16 28  2  0  0  0  0
 17 30  2  0  0  0  0
 17 31  1  0  0  0  0
 18 32  1  0  0  0  0
 19 25  2  0  0  0  0
 19 36  1  0  0  0  0
 20 32  1  0  0  0  0
 20 33  2  0  0  0  0
 20 37  1  0  0  0  0
 21 23  2  0  0  0  0
 21 42  1  0  0  0  0
 22 24  2  0  0  0  0
 22 43  1  0  0  0  0
 23 52  1  0  0  0  0
 24 44  1  0  0  0  0
 25 68  1  0  0  0  0
 26 73  1  0  0  0  0
 27 84  1  0  0  0  0
 28 85  1  0  0  0  0
 29 31  2  0  0  0  0
 29 84  1  0  0  0  0
 30 86  1  0  0  0  0
 31 87  1  0  0  0  0
 32 65  2  0  0  0  0
 33 67  1  0  0  0  0
 33 71  1  0  0  0  0
 34 35  1  0  0  0  0
 34 53  1  0  0  0  0
 34 77  2  0  0  0  0
 35 68  1  0  0  0  0
 35 78  2  0  0  0  0
 36 66  2  0  0  0  0
 37 72  1  0  0  0  0
 37 79  2  0  0  0  0
 38 54  1  0  0  0  0
 38 74  1  0  0  0  0
 38 80  2  0  0  0  0
 39 62  1  0  0  0  0
 39 69  1  0  0  0  0
 39 81  2  0  0  0  0
 40 63  1  0  0  0  0
 40 75  1  0  0  0  0
 40 82  2  0  0  0  0
 41 70  1  0  0  0  0
 41 73  1  0  0  0  0
 41 83  2  0  0  0  0
 42 45  1  0  0  0  0
 43 54  1  0  0  0  0
 44 69  1  0  0  0  0
 45 47  1  0  0  0  0
 46 48  1  0  0  0  0
 46 49  1  0  0  0  0
 47 52  1  0  0  0  0
 48 55  1  0  0  0  0
 49 70  1  0  0  0  0
 50 53  1  0  0  0  0
 50 68  1  0  0  0  0
 51 55  1  0  0  0  0
 51 70  1  0  0  0  0
 52 74  1  0  0  0  0
 53 61  1  0  0  0  0
 54 69  1  0  0  0  0
 55 67  1  0  0  0  0
 56 63  1  0  0  0  0
 57 64  1  0  0  0  0
 58 64  1  0  0  0  0
 59 64  1  0  0  0  0
 60 76  1  0  0  0  0
 61 85  1  0  0  0  0
 62 64  1  0  0  0  0
 62 75  1  0  0  0  0
 63 76  1  0  0  0  0
 65 67  1  0  0  0  0
M  CHG  1  76   1
M  ISO  4  41 100  61 101  73 100  85 101
M  END
> <Batch ID>
0069

> <Smiles>
CNC(C)C(=O)NC(C(=O)N1Cc2cc([101O:1][101CH2:1]C3CN(c4ccc([100NH:0][100C:0](=O)N5CCCC(n6nc(-c7ccc(Oc8ccc(F)cc8F)cc7)c(C(N)=O)c6N)C5)cc4C=N)C(=O)C3=O)ccc2CC1C(=O)NC1CCCc2ccccc21)C(C)(C)C

> <Shape>
0.305

> <Color>
0.079

> <Negative vol penalty>
0.000

$$$$

  -OEChem-04042323303D

 87 96  0     1  0  0  0  0  0999 V2000
  -21.7669  -11.6767   19.5219 C   0  0  0  0  0  0  0  0  0  0  0  0
  -21.5659  -13.0436   19.6848 C   0  0  0  0  0  0  0  0  0  0  0  0
  -29.5512  -27.2454   20.6014 C   0  0  0  0  0  0  0  0  0  0  0  0
  -27.9390  -25.4485   20.5068 C   0  0  0  0  0  0  0  0  0  0  0  0
  -22.9783  -11.1011   19.9029 C   0  0  0  0  0  0  0  0  0  0  0  0
  -22.5758  -13.8356   20.2300 C   0  0  0  0  0  0  0  0  0  0  0  0
  -23.9030  -19.6324   18.7666 C   0  0  0  0  0  0  0  0  0  0  0  0
  -30.5566  -26.3274   20.9047 C   0  0  0  0  0  0  0  0  0  0  0  0
  -28.9444  -24.5305   20.8101 C   0  0  0  0  0  0  0  0  0  0  0  0
  -23.5753  -20.8490   19.3633 C   0  0  0  0  0  0  0  0  0  0  0  0
  -33.6159  -24.4146   21.3484 C   0  0  0  0  0  0  0  0  0  0  0  0
  -34.8303  -24.5361   20.6732 C   0  0  0  0  0  0  0  0  0  0  0  0
  -25.6937  -20.8467   20.5172 C   0  0  0  0  0  0  0  0  0  0  0  0
  -18.6836  -26.4052   22.0519 C   0  0  0  0  0  0  0  0  0  0  0  0
  -19.1932  -29.0164   22.8913 C   0  0  0  0  0  0  0  0  0  0  0  0
  -33.6912  -24.2156   18.5668 C   0  0  0  0  0  0  0  0  0  0  0  0
  -28.2424  -26.8060   20.4025 C   0  0  0  0  0  0  0  0  0  0  0  0
  -26.8004  -28.1824   18.8107 C   0  0  0  0  0  0  0  0  0  0  0  0
  -24.0071  -11.8880   20.4441 C   0  0  0  0  0  0  0  0  0  0  0  0
  -25.1260  -19.0073   19.0495 C   0  0  0  0  0  0  0  0  0  0  0  0
  -23.8016  -13.2697   20.6199 C   0  0  0  0  0  0  0  0  0  0  0  0
  -26.0356  -19.6234   19.9208 C   0  0  0  0  0  0  0  0  0  0  0  0
  -19.9825  -26.7900   22.3841 C   0  0  0  0  0  0  0  0  0  0  0  0
  -17.6395  -27.3260   22.1393 C   0  0  0  0  0  0  0  0  0  0  0  0
  -20.2373  -28.0956   22.8038 C   0  0  0  0  0  0  0  0  0  0  0  0
  -30.2533  -24.9700   21.0091 C   0  0  0  0  0  0  0  0  0  0  0  0
  -24.4695  -21.4549   20.2411 C   0  0  0  0  0  0  0  0  0  0  0  0
  -32.4391  -24.1935   20.6330 C   0  0  0  0  0  0  0  0  0  0  0  0
  -34.8680  -24.4367   19.2824 C   0  0  0  0  0  0  0  0  0  0  0  0
  -17.8943  -28.6316   22.5591 C   0  0  0  0  0  0  0  0  0  0  0  0
  -32.4767  -24.0940   19.2422 C   0  0  0  0  0  0  0  0  0  0  0  0
  -27.2032  -27.7538   20.0897 C   0  0  0  0  0  0  0  0  0  0  0  0
  -25.7871  -29.0777   19.0519 C   0  0  0  0  0  0  0  0  0  0  0  0
  -21.8636  -25.3883   23.3330 C   0  0  0  0  0  0  0  0  0  0  0  0
  -27.2976  -27.8048   17.5200 C   0  0  0  0  0  0  0  0  0  0  0  0
  -25.9807  -16.2429   20.3654 C   0  0  0  0  0  0  0  0  0  0  0  0
  -28.9560  -17.1918   19.4882 C   0  0  0  0  0  0  0  0  0  0  0  0
  -31.0676  -19.7582   18.7129 C   0  0  0  0  0  0  0  0  0  0  0  0
  -21.9477  -29.7757   23.5770 C   0  0  0  0  0  0  0  0  0  0  0  0
  -25.2818  -11.2131   20.8851 C   0  0  0  0  0  0  0  0  0  0  0  0
  -25.4758  -17.7082   18.3769 C   0  0  0  0  0  0  0  0  0  0  0  0
  -27.3702  -19.0034   20.2420 C   0  0  0  0  0  0  0  0  0  0  0  0
  -22.7599  -24.3050   22.7748 C   0  0  0  0  0  0  0  0  0  0  0  0
  -26.4391  -12.1833   21.1077 C   0  0  0  0  0  0  0  0  0  0  0  0
  -24.2505  -32.1961   22.3456 C   0  0  0  0  0  0  0  0  0  0  0  0
  -25.9774  -13.3870   21.9229 C   0  0  0  0  0  0  0  0  0  0  0  0
  -25.2288  -31.3714   21.5060 C   0  0  0  0  0  0  0  0  0  0  0  0
  -23.7941  -31.4388   23.5914 C   0  0  0  0  0  0  0  0  0  0  0  0
  -24.2284  -29.2738   22.4990 C   0  0  0  0  0  0  0  0  0  0  0  0
  -21.3185  -25.1186   21.0529 C   0  0  0  0  0  0  0  0  0  0  0  0
  -24.8822  -14.1661   21.1846 C   0  0  1  0  0  0  0  0  0  0  0  0
  -26.5303  -16.9078   19.1351 C   0  0  1  0  0  0  0  0  0  0  0  0
  -24.6660  -29.9696   21.1997 C   0  0  2  0  0  0  0  0  0  0  0  0
  -22.7138  -24.5238   21.2596 C   0  0  1  0  0  0  0  0  0  0  0  0
  -23.8026  -25.5189   20.8233 C   0  0  0  0  0  0  0  0  0  0  0  0
  -33.4493  -20.2255   18.0751 C   0  0  0  0  0  0  0  0  0  0  0  0
  -29.8162  -16.7424   22.3809 C   0  0  0  0  0  0  0  0  0  0  0  0
  -31.8692  -18.0949   21.9073 C   0  0  0  0  0  0  0  0  0  0  0  0
  -31.4666  -15.9670   20.6694 C   0  0  0  0  0  0  0  0  0  0  0  0
  -30.2635  -20.9416   16.1221 C   0  0  0  0  0  0  0  0  0  0  0  0
  -22.8857  -23.2109   20.4943 C   0  0  0  0  0  0  0  0  0  1  0  0
  -30.0562  -17.9966   20.1369 C   0  0  1  0  0  0  0  0  0  0  0  0
  -32.0434  -19.9482   17.5657 C   0  0  2  0  0  0  0  0  0  0  0  0
  -30.7762  -17.2112   21.2693 C   0  0  0  0  0  0  0  0  0  0  0  0
  -26.5032  -28.3297   21.0706 N   0  0  0  0  0  0  0  0  0  0  0  0
  -25.6502  -29.1292   20.4079 N   0  0  0  0  0  0  0  0  0  0  0  0
  -21.0341  -25.8300   22.2865 N   0  0  0  0  0  0  0  0  0  0  0  0
  -27.6635  -17.7299   19.5642 N   0  0  0  0  0  0  0  0  0  0  0  0
  -23.2691  -30.1220   23.2236 N   0  0  0  0  0  0  0  0  0  0  0  0
  -16.3268  -26.9345   21.8033 N   0  0  0  0  0  0  0  0  0  0  0  0
  -25.0088  -29.8180   18.2342 N   0  0  0  0  0  0  0  0  0  0  0  0
  -28.3419  -26.8724   17.4528 N   0  0  0  0  0  0  0  0  0  0  0  0
  -21.5480  -28.5113   23.1457 N   0  0  0  0  0  0  0  0  0  0  0  0
  -25.4604  -14.9829   20.1391 N   0  0  0  0  0  0  0  0  0  0  0  0
  -30.9364  -18.4295   19.0570 N   0  0  0  0  0  0  0  0  0  0  0  0
  -31.6198  -21.0920   16.7093 N   0  3  0  0  0  0  0  0  0  0  0  0
  -21.8860  -25.7143   24.5111 O   0  0  0  0  0  0  0  0  0  0  0  0
  -26.8408  -28.2925   16.4584 O   0  0  0  0  0  0  0  0  0  0  0  0
  -26.0266  -16.8290   21.4406 O   0  0  0  0  0  0  0  0  0  0  0  0
  -29.2343  -16.1284   18.9282 O   0  0  0  0  0  0  0  0  0  0  0  0
  -30.4832  -20.6952   19.2524 O   0  0  0  0  0  0  0  0  0  0  0  0
  -21.2150  -30.5550   24.1916 O   0  0  0  0  0  0  0  0  0  0  0  0
  -31.2341  -24.0739   21.3048 O   0  0  0  0  0  0  0  0  0  0  0  0
  -24.1519  -22.6421   20.8255 O   0  0  0  0  0  0  0  0  0  1  0  0
  -36.0340  -24.5550   18.6339 F   0  0  0  0  0  0  0  0  0  0  0  0
  -16.8986  -29.5250   22.6458 F   0  0  0  0  0  0  0  0  0  0  0  0
  -31.3493  -23.8829   18.5493 F   0  0  0  0  0  0  0  0  0  0  0  0
  1  2  1  0  0  0  0
  1  5  2  0  0  0  0
  2  6  2  0  0  0  0
  3  8  2  0  0  0  0
  3 17  1  0  0  0  0
  4  9  1  0  0  0  0
  4 17  2  0  0  0  0
  5 19  1  0  0  0  0
  6 21  1  0  0  0  0
  7 10  2  0  0  0  0
  7 20  1  0  0  0  0
  8 26  1  0  0  0  0
  9 26  2  0  0  0  0
 10 27  1  0  0  0  0
 11 12  2  0  0  0  0
 11 28  1  0  0  0  0
 12 29  1  0  0  0  0
 13 22  1  0  0  0  0
 13 27  2  0  0  0  0
 14 23  1  0  0  0  0
 14 24  2  0  0  0  0
 15 25  1  0  0  0  0
 15 30  2  0  0  0  0
 16 29  2  0  0  0  0
 16 31  1  0  0  0  0
 17 32  1  0  0  0  0
 18 32  1  0  0  0  0
 18 33  2  0  0  0  0
 18 35  1  0  0  0  0
 19 21  2  0  0  0  0
 19 40  1  0  0  0  0
 20 22  2  0  0  0  0
 20 41  1  0  0  0  0
 21 51  1  0  0  0  0
 22 42  1  0  0  0  0
 23 25  2  0  0  0  0
 23 67  1  0  0  0  0
 24 30  1  0  0  0  0
 24 70  1  0  0  0  0
 25 73  1  0  0  0  0
 26 83  1  0  0  0  0
 27 84  1  0  0  0  0
 28 31  2  0  0  0  0
 28 83  1  0  0  0  0
 29 85  1  0  0  0  0
 30 86  1  0  0  0  0
 31 87  1  0  0  0  0
 32 65  2  0  0  0  0
 33 66  1  0  0  0  0
 33 71  1  0  0  0  0
 34 43  1  0  0  0  0
 34 67  1  0  0  0  0
 34 77  2  0  0  0  0
 35 72  1  0  0  0  0
 35 78  2  0  0  0  0
 36 52  1  0  0  0  0
 36 74  1  0  0  0  0
 36 79  2  0  0  0  0
 37 62  1  0  0  0  0
 37 68  1  0  0  0  0
 37 80  2  0  0  0  0
 38 63  1  0  0  0  0
 38 75  1  0  0  0  0
 38 81  2  0  0  0  0
 39 69  1  0  0  0  0
 39 73  1  0  0  0  0
 39 82  2  0  0  0  0
 40 44  1  0  0  0  0
 41 52  1  0  0  0  0
 42 68  1  0  0  0  0
 43 54  1  0  0  0  0
 44 46  1  0  0  0  0
 45 47  1  0  0  0  0
 45 48  1  0  0  0  0
 46 51  1  0  0  0  0
 47 53  1  0  0  0  0
 48 69  1  0  0  0  0
 49 53  1  0  0  0  0
 49 69  1  0  0  0  0
 50 54  1  0  0  0  0
 50 67  1  0  0  0  0
 51 74  1  0  0  0  0
 52 68  1  0  0  0  0
 53 66  1  0  0  0  0
 54 55  1  0  0  0  0
 54 61  1  0  0  0  0
 56 63  1  0  0  0  0
 57 64  1  0  0  0  0
 58 64  1  0  0  0  0
 59 64  1  0  0  0  0
 60 76  1  0  0  0  0
 61 84  1  0  0  0  0
 62 64  1  0  0  0  0
 62 75  1  0  0  0  0
 63 76  1  0  0  0  0
 65 66  1  0  0  0  0
M  CHG  1  76   1
M  ISO  4  39 100  61 101  73 100  84 101
M  END
> <Batch ID>
0069

> <Smiles>
CNC(C)C(=O)NC(C(=O)N1Cc2cc([101O:1][101CH2:1]C3(C)CC(=O)N(c4cc(N)c(F)cc4[100NH:0][100C:0](=O)N4CCCC(n5nc(-c6ccc(Oc7ccc(F)cc7F)cc6)c(C(N)=O)c5N)C4)C3)ccc2CC1C(=O)NC1CCCc2ccccc21)C(C)(C)C

> <Shape>
0.257

> <Color>
0.072

> <Negative vol penalty>
0.000

$$$$

  -OEChem-04042323303D

 84 92  0     1  0  0  0  0  0999 V2000
  -17.1848  -26.8171   21.7652 C   0  0  0  0  0  0  0  0  0  0  0  0
  -18.4282  -26.2027   21.8741 C   0  0  0  0  0  0  0  0  0  0  0  0
  -23.3767   -9.1685   20.5462 C   0  0  0  0  0  0  0  0  0  0  0  0
  -23.1866  -10.7875   22.3294 C   0  0  0  0  0  0  0  0  0  0  0  0
  -30.8299  -19.4941   20.5932 C   0  0  0  0  0  0  0  0  0  0  0  0
  -17.1007  -28.1547   21.3811 C   0  0  0  0  0  0  0  0  0  0  0  0
  -19.5883  -26.9253   21.5978 C   0  0  0  0  0  0  0  0  0  0  0  0
  -25.0284  -26.3484   24.3506 C   0  0  0  0  0  0  0  0  0  0  0  0
  -30.6398  -18.1261   20.3981 C   0  0  0  0  0  0  0  0  0  0  0  0
  -22.5953   -8.2728   21.2761 C   0  0  0  0  0  0  0  0  0  0  0  0
  -22.4051   -9.8918   23.0592 C   0  0  0  0  0  0  0  0  0  0  0  0
  -26.1926  -25.6690   23.9943 C   0  0  0  0  0  0  0  0  0  0  0  0
  -20.9492   -5.4247   22.8260 C   0  0  0  0  0  0  0  0  0  0  0  0
  -21.3727   -4.0974   22.8929 C   0  0  0  0  0  0  0  0  0  0  0  0
  -27.0865  -27.7042   23.0574 C   0  0  0  0  0  0  0  0  0  0  0  0
  -28.3979  -18.5510   19.6041 C   0  0  0  0  0  0  0  0  0  0  0  0
  -23.4355   -4.8079   23.9307 C   0  0  0  0  0  0  0  0  0  0  0  0
  -23.6725  -10.4258   21.0729 C   0  0  0  0  0  0  0  0  0  0  0  0
  -29.8040  -20.3905   20.2938 C   0  0  0  0  0  0  0  0  0  0  0  0
  -24.0316  -12.3152   19.3969 C   0  0  0  0  0  0  0  0  0  0  0  0
  -18.2609  -28.8968   21.1093 C   0  0  0  0  0  0  0  0  0  0  0  0
  -24.8798  -27.7106   24.0527 C   0  0  0  0  0  0  0  0  0  0  0  0
  -19.5196  -28.2738   21.2083 C   0  0  0  0  0  0  0  0  0  0  0  0
  -25.9205  -28.3992   23.4132 C   0  0  0  0  0  0  0  0  0  0  0  0
  -29.4238  -17.6545   19.9035 C   0  0  0  0  0  0  0  0  0  0  0  0
  -28.5880  -19.9190   19.7992 C   0  0  0  0  0  0  0  0  0  0  0  0
  -22.1095   -8.6345   22.5326 C   0  0  0  0  0  0  0  0  0  0  0  0
  -27.2206  -26.3462   23.3450 C   0  0  0  0  0  0  0  0  0  0  0  0
  -21.7689   -6.4436   23.3114 C   0  0  0  0  0  0  0  0  0  0  0  0
  -22.6158   -3.7889   23.4452 C   0  0  0  0  0  0  0  0  0  0  0  0
  -23.0120   -6.1352   23.8637 C   0  0  0  0  0  0  0  0  0  0  0  0
  -24.4801  -11.3512   20.3196 C   0  0  0  0  0  0  0  0  0  0  0  0
  -25.1784  -12.9321   18.9601 C   0  0  0  0  0  0  0  0  0  0  0  0
  -30.0311  -21.8343   20.5093 C   0  0  0  0  0  0  0  0  0  0  0  0
  -22.6976  -12.6252   18.9725 C   0  0  0  0  0  0  0  0  0  0  0  0
  -22.8713  -29.4107   22.2696 C   0  0  0  0  0  0  0  0  0  0  0  0
  -24.4450  -31.9237   23.5852 C   0  0  0  0  0  0  0  0  0  0  0  0
  -29.2830  -23.8838   21.6971 C   0  0  0  0  0  0  0  0  0  0  0  0
  -27.2819  -33.1134   25.0628 C   0  0  0  0  0  0  0  0  0  0  0  0
  -30.1470  -15.2418   19.9510 C   0  0  0  0  0  0  0  0  0  0  0  0
  -18.1173  -30.3267   20.6516 C   0  0  0  0  0  0  0  0  0  0  0  0
  -23.6288  -28.4353   24.4675 C   0  0  0  0  0  0  0  0  0  0  0  0
  -25.8188  -29.8665   23.0889 C   0  0  0  0  0  0  0  0  0  0  0  0
  -19.4140  -31.1276   20.7397 C   0  0  0  0  0  0  0  0  0  0  0  0
  -30.0418  -11.6976   19.6275 C   0  0  0  0  0  0  0  0  0  0  0  0
  -20.5753  -30.3291   20.1561 C   0  0  0  0  0  0  0  0  0  0  0  0
  -28.5486  -11.3708   19.7028 C   0  0  0  0  0  0  0  0  0  0  0  0
  -30.4184  -12.8479   20.5596 C   0  0  0  0  0  0  0  0  0  0  0  0
  -28.1240  -13.7408   20.4709 C   0  0  0  0  0  0  0  0  0  0  0  0
  -20.8021  -29.0314   20.9410 C   0  0  1  0  0  0  0  0  0  0  0  0
  -23.3745  -29.7014   23.6552 C   0  0  1  0  0  0  0  0  0  0  0  0
  -27.6850  -12.6315   19.5012 C   0  0  2  0  0  0  0  0  0  0  0  0
  -28.2852  -35.2174   25.9922 C   0  0  0  0  0  0  0  0  0  0  0  0
  -24.9400  -32.9370   20.7500 C   0  0  0  0  0  0  0  0  0  0  0  0
  -26.7023  -34.4557   21.6752 C   0  0  0  0  0  0  0  0  0  0  0  0
  -24.3297  -34.7135   22.4011 C   0  0  0  0  0  0  0  0  0  0  0  0
  -27.5522  -31.9301   27.7620 C   0  0  0  0  0  0  0  0  0  0  0  0
  -28.2353  -24.2953   22.6968 C   0  0  0  0  0  0  0  0  0  1  0  0
  -25.6675  -32.7300   23.2186 C   0  0  1  0  0  0  0  0  0  0  0  0
  -27.4915  -33.9588   26.3061 C   0  0  2  0  0  0  0  0  0  0  0  0
  -25.4113  -33.6810   22.0155 C   0  0  0  0  0  0  0  0  0  0  0  0
  -25.8082  -11.3518   20.4614 N   0  0  0  0  0  0  0  0  0  0  0  0
  -26.2042  -12.3237   19.6218 N   0  0  0  0  0  0  0  0  0  0  0  0
  -24.5733  -30.5295   23.5092 N   0  0  0  0  0  0  0  0  0  0  0  0
  -29.5616  -14.0088   20.3084 N   0  0  0  0  0  0  0  0  0  0  0  0
  -27.5386  -20.8119   19.4897 N   0  0  0  0  0  0  0  0  0  0  0  0
  -25.3994  -13.9302   18.0784 N   0  0  0  0  0  0  0  0  0  0  0  0
  -21.6351  -11.8946   19.5216 N   0  0  0  0  0  0  0  0  0  0  0  0
  -29.2317  -16.2648   19.7049 N   0  0  0  0  0  0  0  0  0  0  0  0
  -29.2265  -22.4797   21.3650 N   0  0  0  0  0  0  0  0  0  0  0  0
  -21.4964  -29.3054   22.1809 N   0  0  0  0  0  0  0  0  0  0  0  0
  -26.0888  -33.4101   24.4386 N   0  0  0  0  0  0  0  0  0  0  0  0
  -31.0281  -22.4120   19.8396 N   0  3  0  0  0  0  0  0  0  0  0  0
  -28.2311  -33.1828   27.3415 N   0  3  0  0  0  0  0  0  0  0  0  0
  -22.4565  -13.5124   18.1192 O   0  0  0  0  0  0  0  0  0  0  0  0
  -23.6712  -29.2922   21.3488 O   0  0  0  0  0  0  0  0  0  0  0  0
  -23.4165  -32.5090   23.9332 O   0  0  0  0  0  0  0  0  0  0  0  0
  -30.1115  -24.6316   21.1980 O   0  0  0  0  0  0  0  0  0  0  0  0
  -28.0969  -32.2763   24.6813 O   0  0  0  0  0  0  0  0  0  0  0  0
  -31.3689  -15.3729   19.8426 O   0  0  0  0  0  0  0  0  0  0  0  0
  -21.3467   -7.7608   23.2450 O   0  0  0  0  0  0  0  0  0  0  0  0
  -28.3577  -25.6853   22.9956 O   0  0  0  0  0  0  0  0  0  1  0  0
  -23.0217   -2.5141   23.5108 F   0  0  0  0  0  0  0  0  0  0  0  0
  -23.8034   -7.1097   24.3327 F   0  0  0  0  0  0  0  0  0  0  0  0
  1  2  1  0  0  0  0
  1  6  2  0  0  0  0
  2  7  2  0  0  0  0
  3 10  2  0  0  0  0
  3 18  1  0  0  0  0
  4 11  1  0  0  0  0
  4 18  2  0  0  0  0
  5  9  2  0  0  0  0
  5 19  1  0  0  0  0
  6 21  1  0  0  0  0
  7 23  1  0  0  0  0
  8 12  2  0  0  0  0
  8 22  1  0  0  0  0
  9 25  1  0  0  0  0
 10 27  1  0  0  0  0
 11 27  2  0  0  0  0
 12 28  1  0  0  0  0
 13 14  2  0  0  0  0
 13 29  1  0  0  0  0
 14 30  1  0  0  0  0
 15 24  1  0  0  0  0
 15 28  2  0  0  0  0
 16 25  2  0  0  0  0
 16 26  1  0  0  0  0
 17 30  2  0  0  0  0
 17 31  1  0  0  0  0
 18 32  1  0  0  0  0
 19 26  2  0  0  0  0
 19 34  1  0  0  0  0
 20 32  1  0  0  0  0
 20 33  2  0  0  0  0
 20 35  1  0  0  0  0
 21 23  2  0  0  0  0
 21 41  1  0  0  0  0
 22 24  2  0  0  0  0
 22 42  1  0  0  0  0
 23 50  1  0  0  0  0
 24 43  1  0  0  0  0
 25 69  1  0  0  0  0
 26 66  1  0  0  0  0
 27 81  1  0  0  0  0
 28 82  1  0  0  0  0
 29 31  2  0  0  0  0
 29 81  1  0  0  0  0
 30 83  1  0  0  0  0
 31 84  1  0  0  0  0
 32 62  2  0  0  0  0
 33 63  1  0  0  0  0
 33 67  1  0  0  0  0
 34 70  1  0  0  0  0
 34 73  2  0  0  0  0
 35 68  1  0  0  0  0
 35 75  2  0  0  0  0
 36 51  1  0  0  0  0
 36 71  1  0  0  0  0
 36 76  2  0  0  0  0
 37 59  1  0  0  0  0
 37 64  1  0  0  0  0
 37 77  2  0  0  0  0
 38 58  1  0  0  0  0
 38 70  1  0  0  0  0
 38 78  2  0  0  0  0
 39 60  1  0  0  0  0
 39 72  1  0  0  0  0
 39 79  2  0  0  0  0
 40 65  1  0  0  0  0
 40 69  1  0  0  0  0
 40 80  2  0  0  0  0
 41 44  1  0  0  0  0
 42 51  1  0  0  0  0
 43 64  1  0  0  0  0
 44 46  1  0  0  0  0
 45 47  1  0  0  0  0
 45 48  1  0  0  0  0
 46 50  1  0  0  0  0
 47 52  1  0  0  0  0
 48 65  1  0  0  0  0
 49 52  1  0  0  0  0
 49 65  1  0  0  0  0
 50 71  1  0  0  0  0
 51 64  1  0  0  0  0
 52 63  1  0  0  0  0
 53 60  1  0  0  0  0
 54 61  1  0  0  0  0
 55 61  1  0  0  0  0
 56 61  1  0  0  0  0
 57 74  1  0  0  0  0
 58 82  1  0  0  0  0
 59 61  1  0  0  0  0
 59 72  1  0  0  0  0
 60 74  1  0  0  0  0
 62 63  1  0  0  0  0
M  CHG  2  73   1  74   1
M  ISO  4  40 100  58 101  69 100  82 101
M  END
> <Batch ID>
0069

> <Smiles>
CNC(C)C(=O)NC(C(=O)N1Cc2cc([101O:1][101CH2:1]C(=O)NC(=N)c3ccc([100NH:0][100C:0](=O)N4CCCC(n5nc(-c6ccc(Oc7ccc(F)cc7F)cc6)c(C(N)=O)c5N)C4)cc3N)ccc2CC1C(=O)NC1CCCc2ccccc21)C(C)(C)C

> <Shape>
0.314

> <Color>
0.120

> <Negative vol penalty>
0.000

$$$$

  -OEChem-04042323303D

 86 95  0     1  0  0  0  0  0999 V2000
  -30.2240  -36.2108   23.4965 C   0  0  0  0  0  0  0  0  0  0  0  0
  -30.2779  -35.2691   22.4739 C   0  0  0  0  0  0  0  0  0  0  0  0
  -24.8632   -8.6808   21.5381 C   0  0  0  0  0  0  0  0  0  0  0  0
  -23.2776  -10.0896   20.3813 C   0  0  0  0  0  0  0  0  0  0  0  0
  -29.5857  -35.8995   24.6963 C   0  0  0  0  0  0  0  0  0  0  0  0
  -29.6945  -34.0151   22.6509 C   0  0  0  0  0  0  0  0  0  0  0  0
  -26.3285  -28.8570   18.9930 C   0  0  0  0  0  0  0  0  0  0  0  0
  -23.8474   -8.2290   22.3804 C   0  0  0  0  0  0  0  0  0  0  0  0
  -22.2617   -9.6377   21.2236 C   0  0  0  0  0  0  0  0  0  0  0  0
  -26.3923  -27.4836   18.7616 C   0  0  0  0  0  0  0  0  0  0  0  0
  -21.2974   -6.0129   22.2412 C   0  0  0  0  0  0  0  0  0  0  0  0
  -21.2251   -4.6428   22.4925 C   0  0  0  0  0  0  0  0  0  0  0  0
  -25.2477  -27.0851   20.8473 C   0  0  0  0  0  0  0  0  0  0  0  0
  -25.1784  -19.8544   18.0330 C   0  0  0  0  0  0  0  0  0  0  0  0
  -27.0951  -18.6236   18.8380 C   0  0  0  0  0  0  0  0  0  0  0  0
  -25.3316  -17.4734   17.6530 C   0  0  0  0  0  0  0  0  0  0  0  0
  -21.5264   -5.0599   24.8531 C   0  0  0  0  0  0  0  0  0  0  0  0
  -24.5784   -9.6111   20.5385 C   0  0  0  0  0  0  0  0  0  0  0  0
  -26.0257   -9.5185   18.4399 C   0  0  0  0  0  0  0  0  0  0  0  0
  -28.9858  -34.6444   24.8846 C   0  0  0  0  0  0  0  0  0  0  0  0
  -25.7325  -29.3551   20.1605 C   0  0  0  0  0  0  0  0  0  0  0  0
  -29.0487  -33.6862   23.8549 C   0  0  0  0  0  0  0  0  0  0  0  0
  -25.1753  -28.4653   21.0899 C   0  0  0  0  0  0  0  0  0  0  0  0
  -26.4051  -19.8275   18.6964 C   0  0  0  0  0  0  0  0  0  0  0  0
  -24.6416  -18.6774   17.5113 C   0  0  0  0  0  0  0  0  0  0  0  0
  -26.5583  -17.4465   18.3163 C   0  0  0  0  0  0  0  0  0  0  0  0
  -22.5466   -8.7074   22.2231 C   0  0  0  0  0  0  0  0  0  0  0  0
  -25.8545  -26.5973   19.6902 C   0  0  0  0  0  0  0  0  0  0  0  0
  -21.4843   -6.9065   23.2958 C   0  0  0  0  0  0  0  0  0  0  0  0
  -21.3395   -4.1663   23.7985 C   0  0  0  0  0  0  0  0  0  0  0  0
  -21.5987   -6.4301   24.6017 C   0  0  0  0  0  0  0  0  0  0  0  0
  -25.6274  -10.0787   19.6685 C   0  0  0  0  0  0  0  0  0  0  0  0
  -27.0525  -10.3242   18.0120 C   0  0  0  0  0  0  0  0  0  0  0  0
  -28.3410  -22.5283   20.2689 C   0  0  0  0  0  0  0  0  0  0  0  0
  -27.1708  -23.2631   19.7707 C   0  0  0  0  0  0  0  0  0  0  0  0
  -28.1548  -21.0841   19.8931 C   0  0  0  0  0  0  0  0  0  0  0  0
  -27.0063  -24.5760   19.9321 C   0  0  0  0  0  0  0  0  0  1  0  0
  -25.5134   -8.3724   17.7474 C   0  0  0  0  0  0  0  0  0  0  0  0
  -26.7442  -31.0651   22.6416 C   0  0  0  0  0  0  0  0  0  0  0  0
  -23.6021  -31.0339   23.4469 C   0  0  0  0  0  0  0  0  0  0  0  0
  -20.5628  -29.5016   23.1991 C   0  0  0  0  0  0  0  0  0  0  0  0
  -28.4890  -16.0238   19.0877 C   0  0  0  0  0  0  0  0  0  0  0  0
  -28.3484  -34.3369   26.2165 C   0  0  0  0  0  0  0  0  0  0  0  0
  -25.6479  -30.8404   20.3825 C   0  0  0  0  0  0  0  0  0  0  0  0
  -24.5065  -28.9500   22.3494 C   0  0  0  0  0  0  0  0  0  0  0  0
  -26.2644  -22.2925   19.0917 C   0  0  0  0  0  0  0  0  0  0  0  0
  -27.4291  -33.1186   26.1850 C   0  0  0  0  0  0  0  0  0  0  0  0
  -30.5276  -13.1656   19.6806 C   0  0  0  0  0  0  0  0  0  0  0  0
  -28.1037  -31.9594   25.4584 C   0  0  0  0  0  0  0  0  0  0  0  0
  -29.5396  -11.9981   19.6270 C   0  0  0  0  0  0  0  0  0  0  0  0
  -29.9082  -14.4035   20.3268 C   0  0  0  0  0  0  0  0  0  0  0  0
  -27.6449  -13.6695   19.6881 C   0  0  0  0  0  0  0  0  0  0  0  0
  -28.4061  -32.3238   23.9998 C   0  0  1  0  0  0  0  0  0  0  0  0
  -25.4754  -31.2161   21.8510 C   0  0  1  0  0  0  0  0  0  0  0  0
  -28.2027  -12.4202   18.9866 C   0  0  2  0  0  0  0  0  0  0  0  0
  -18.1916  -29.6881   23.9991 C   0  0  0  0  0  0  0  0  0  0  0  0
  -24.4410  -29.9592   26.1766 C   0  0  0  0  0  0  0  0  0  0  0  0
  -22.0622  -29.2811   26.5632 C   0  0  0  0  0  0  0  0  0  0  0  0
  -22.6353  -31.6881   26.2462 C   0  0  0  0  0  0  0  0  0  0  0  0
  -19.5337  -29.8042   20.4408 C   0  0  0  0  0  0  0  0  0  0  0  0
  -22.7164  -30.1230   24.2622 C   0  0  1  0  0  0  0  0  0  0  0  0
  -19.1793  -30.0505   22.9010 C   0  0  2  0  0  0  0  0  0  0  0  0
  -22.9780  -30.2533   25.7893 C   0  0  0  0  0  0  0  0  0  0  0  0
  -26.3429  -11.1568   19.9997 N   0  0  0  0  0  0  0  0  0  0  0  0
  -27.2012  -11.2805   18.9730 N   0  0  0  0  0  0  0  0  0  0  0  0
  -26.9416  -21.0012   19.2158 N   0  0  0  0  0  0  0  0  0  0  0  0
  -24.4544  -30.4109   22.5243 N   0  0  0  0  0  0  0  0  0  0  0  0
  -28.6471  -14.7465   19.6659 N   0  0  0  0  0  0  0  0  0  0  0  0
  -23.4013  -18.7040   16.8404 N   0  0  0  0  0  0  0  0  0  0  0  0
  -27.8336  -10.3009   16.9113 N   0  0  0  0  0  0  0  0  0  0  0  0
  -24.4564   -7.6582   18.3280 N   0  0  0  0  0  0  0  0  0  0  0  0
  -27.2604  -16.2240   18.4591 N   0  0  0  0  0  0  0  0  0  0  0  0
  -27.2033  -32.2433   23.1990 N   0  0  0  0  0  0  0  0  0  0  0  0
  -21.3454  -30.4223   23.8632 N   0  0  0  0  0  0  0  0  0  0  0  0
  -18.6710  -29.5020   21.6119 N   0  3  0  0  0  0  0  0  0  0  0  0
  -29.3050  -22.9383   20.8745 O   0  0  0  0  0  0  0  0  0  0  0  0
  -28.9766  -20.2375   20.1794 O   0  0  0  0  0  0  0  0  0  0  0  0
  -25.9899   -7.9832   16.6542 O   0  0  0  0  0  0  0  0  0  0  0  0
  -27.2670  -29.9612   22.7400 O   0  0  0  0  0  0  0  0  0  0  0  0
  -23.5349  -32.2538   23.6172 O   0  0  0  0  0  0  0  0  0  0  0  0
  -20.9129  -28.3679   22.8785 O   0  0  0  0  0  0  0  0  0  0  0  0
  -29.3882  -16.8676   19.1222 O   0  0  0  0  0  0  0  0  0  0  0  0
  -21.5550   -8.2665   23.0447 O   0  0  0  0  0  0  0  0  0  0  0  0
  -25.9160  -25.2563   19.4671 O   0  0  0  0  0  0  0  0  0  1  0  0
  -21.2685   -2.8507   24.0399 F   0  0  0  0  0  0  0  0  0  0  0  0
  -21.7772   -7.2838   25.6191 F   0  0  0  0  0  0  0  0  0  0  0  0
  1  2  1  0  0  0  0
  1  5  2  0  0  0  0
  2  6  2  0  0  0  0
  3  8  2  0  0  0  0
  3 18  1  0  0  0  0
  4  9  1  0  0  0  0
  4 18  2  0  0  0  0
  5 20  1  0  0  0  0
  6 22  1  0  0  0  0
  7 10  2  0  0  0  0
  7 21  1  0  0  0  0
  8 27  1  0  0  0  0
  9 27  2  0  0  0  0
 10 28  1  0  0  0  0
 11 12  2  0  0  0  0
 11 29  1  0  0  0  0
 12 30  1  0  0  0  0
 13 23  1  0  0  0  0
 13 28  2  0  0  0  0
 14 24  1  0  0  0  0
 14 25  2  0  0  0  0
 15 24  2  0  0  0  0
 15 26  1  0  0  0  0
 16 25  1  0  0  0  0
 16 26  2  0  0  0  0
 17 30  2  0  0  0  0
 17 31  1  0  0  0  0
 18 32  1  0  0  0  0
 19 32  1  0  0  0  0
 19 33  2  0  0  0  0
 19 38  1  0  0  0  0
 20 22  2  0  0  0  0
 20 43  1  0  0  0  0
 21 23  2  0  0  0  0
 21 44  1  0  0  0  0
 22 53  1  0  0  0  0
 23 45  1  0  0  0  0
 24 66  1  0  0  0  0
 25 69  1  0  0  0  0
 26 72  1  0  0  0  0
 27 83  1  0  0  0  0
 28 84  1  0  0  0  0
 29 31  2  0  0  0  0
 29 83  1  0  0  0  0
 30 85  1  0  0  0  0
 31 86  1  0  0  0  0
 32 64  2  0  0  0  0
 33 65  1  0  0  0  0
 33 70  1  0  0  0  0
 34 35  1  0  0  0  0
 34 36  1  0  0  0  0
 34 76  2  0  0  0  0
 35 37  2  0  0  0  0
 35 46  1  0  0  0  0
 36 66  1  0  0  0  0
 36 77  2  0  0  0  0
 37 84  1  0  0  0  0
 38 71  1  0  0  0  0
 38 78  2  0  0  0  0
 39 54  1  0  0  0  0
 39 73  1  0  0  0  0
 39 79  2  0  0  0  0
 40 61  1  0  0  0  0
 40 67  1  0  0  0  0
 40 80  2  0  0  0  0
 41 62  1  0  0  0  0
 41 74  1  0  0  0  0
 41 81  2  0  0  0  0
 42 68  1  0  0  0  0
 42 72  1  0  0  0  0
 42 82  2  0  0  0  0
 43 47  1  0  0  0  0
 44 54  1  0  0  0  0
 45 67  1  0  0  0  0
 46 66  1  0  0  0  0
 47 49  1  0  0  0  0
 48 50  1  0  0  0  0
 48 51  1  0  0  0  0
 49 53  1  0  0  0  0
 50 55  1  0  0  0  0
 51 68  1  0  0  0  0
 52 55  1  0  0  0  0
 52 68  1  0  0  0  0
 53 73  1  0  0  0  0
 54 67  1  0  0  0  0
 55 65  1  0  0  0  0
 56 62  1  0  0  0  0
 57 63  1  0  0  0  0
 58 63  1  0  0  0  0
 59 63  1  0  0  0  0
 60 75  1  0  0  0  0
 61 63  1  0  0  0  0
 61 74  1  0  0  0  0
 62 75  1  0  0  0  0
 64 65  1  0  0  0  0
M  CHG  1  75   1
M  ISO  4  37 101  42 100  72 100  84 101
M  END
> <Batch ID>
0069

> <Smiles>
CNC(C)C(=O)NC(C(=O)N1Cc2cc([101O:1][101CH:1]=C3CN(c4cc(N)cc([100NH:0][100C:0](=O)N5CCCC(n6nc(-c7ccc(Oc8ccc(F)cc8F)cc7)c(C(N)=O)c6N)C5)c4)C(=O)C3=O)ccc2CC1C(=O)NC1CCCc2ccccc21)C(C)(C)C

> <Shape>
0.291

> <Color>
0.118

> <Negative vol penalty>
0.000

$$$$

  -OEChem-04042323303D

 86 95  0     1  0  0  0  0  0999 V2000
  -26.6014  -31.1164   28.8924 C   0  0  0  0  0  0  0  0  0  0  0  0
  -27.1462  -30.5274   27.7559 C   0  0  0  0  0  0  0  0  0  0  0  0
  -26.3979  -12.6472   21.4697 C   0  0  0  0  0  0  0  0  0  0  0  0
  -26.3418  -13.0682   19.0914 C   0  0  0  0  0  0  0  0  0  0  0  0
  -25.2200  -31.1178   29.0814 C   0  0  0  0  0  0  0  0  0  0  0  0
  -26.3099  -29.9383   26.8083 C   0  0  0  0  0  0  0  0  0  0  0  0
  -27.1347  -29.8126   20.7412 C   0  0  0  0  0  0  0  0  0  0  0  0
  -25.1154  -12.1027   21.4036 C   0  0  0  0  0  0  0  0  0  0  0  0
  -25.0593  -12.5236   19.0252 C   0  0  0  0  0  0  0  0  0  0  0  0
  -27.6462  -28.8392   19.8840 C   0  0  0  0  0  0  0  0  0  0  0  0
  -23.6949   -9.1814   20.4649 C   0  0  0  0  0  0  0  0  0  0  0  0
  -23.4626   -7.9856   21.1443 C   0  0  0  0  0  0  0  0  0  0  0  0
  -25.4038  -28.0854   19.4120 C   0  0  0  0  0  0  0  0  0  0  0  0
  -29.4575  -26.0666   15.9145 C   0  0  0  0  0  0  0  0  0  0  0  0
  -29.2782  -21.9284   14.9315 C   0  0  0  0  0  0  0  0  0  0  0  0
  -29.8166  -21.6945   17.2750 C   0  0  0  0  0  0  0  0  0  0  0  0
  -29.6946  -19.7383   15.8625 C   0  0  0  0  0  0  0  0  0  0  0  0
  -21.7673   -9.0730   22.4786 C   0  0  0  0  0  0  0  0  0  0  0  0
  -27.0110  -13.1300   20.3136 C   0  0  0  0  0  0  0  0  0  0  0  0
  -29.5580  -13.0111   20.2316 C   0  0  0  0  0  0  0  0  0  0  0  0
  -24.3657  -30.5369   28.1309 C   0  0  0  0  0  0  0  0  0  0  0  0
  -25.7523  -29.9228   20.9489 C   0  0  0  0  0  0  0  0  0  0  0  0
  -24.9159  -29.9306   26.9854 C   0  0  0  0  0  0  0  0  0  0  0  0
  -24.8772  -29.0627   20.2702 C   0  0  0  0  0  0  0  0  0  0  0  0
  -29.0409  -25.8816   17.2559 C   0  0  0  0  0  0  0  0  0  0  0  0
  -29.4983  -22.5025   16.1835 C   0  0  0  0  0  0  0  0  0  0  0  0
  -29.3762  -20.5463   14.7710 C   0  0  0  0  0  0  0  0  0  0  0  0
  -29.9148  -20.3123   17.1146 C   0  0  0  0  0  0  0  0  0  0  0  0
  -24.4461  -12.0409   20.1814 C   0  0  0  0  0  0  0  0  0  0  0  0
  -26.7809  -27.9735   19.2215 C   0  0  0  0  0  0  0  0  0  0  0  0
  -22.9635  -10.3231   20.7924 C   0  0  0  0  0  0  0  0  0  0  0  0
  -22.4988   -7.9314   22.1512 C   0  0  0  0  0  0  0  0  0  0  0  0
  -21.9997  -10.2689   21.7992 C   0  0  0  0  0  0  0  0  0  0  0  0
  -28.3356  -13.6931   20.3814 C   0  0  0  0  0  0  0  0  0  0  0  0
  -30.5150  -13.9850   20.3806 C   0  0  0  0  0  0  0  0  0  0  0  0
  -29.6722  -24.8177   15.3746 C   0  0  0  0  0  0  0  0  0  0  0  0
  -29.0138  -24.5253   17.4949 C   0  0  0  0  0  0  0  0  0  0  0  0
  -29.8061  -11.6215   19.9803 C   0  0  0  0  0  0  0  0  0  0  0  0
  -23.8321  -29.6341   23.4655 C   0  0  0  0  0  0  0  0  0  0  0  0
  -21.5742  -30.6477   21.3685 C   0  0  0  0  0  0  0  0  0  0  0  0
  -20.5619  -30.9515   18.1236 C   0  0  0  0  0  0  0  0  0  0  0  0
  -30.4866  -19.8998   19.5331 C   0  0  0  0  0  0  0  0  0  0  0  0
  -22.8822  -30.5210   28.4019 C   0  0  0  0  0  0  0  0  0  0  0  0
  -25.2149  -30.9955   21.8560 C   0  0  0  0  0  0  0  0  0  0  0  0
  -23.3838  -29.1528   20.4432 C   0  0  0  0  0  0  0  0  0  0  0  0
  -22.0409  -30.2064   27.1676 C   0  0  0  0  0  0  0  0  0  0  0  0
  -31.2776  -18.1850   22.5515 C   0  0  0  0  0  0  0  0  0  0  0  0
  -22.6188  -29.0098   26.4185 C   0  0  0  0  0  0  0  0  0  0  0  0
  -30.7296  -16.7747   22.3215 C   0  0  0  0  0  0  0  0  0  0  0  0
  -30.3779  -19.2515   21.9295 C   0  0  0  0  0  0  0  0  0  0  0  0
  -29.5163  -17.6378   20.2794 C   0  0  0  0  0  0  0  0  0  0  0  0
  -24.0399  -29.3033   25.9227 C   0  0  1  0  0  0  0  0  0  0  0  0
  -23.8203  -30.6832   22.3899 C   0  0  1  0  0  0  0  0  0  0  0  0
  -30.4225  -16.5254   20.8318 C   0  0  2  0  0  0  0  0  0  0  0  0
  -18.6534  -31.7886   16.7256 C   0  0  0  0  0  0  0  0  0  0  0  0
  -19.9373  -28.1897   22.1358 C   0  0  0  0  0  0  0  0  0  0  0  0
  -18.5507  -28.5588   20.0841 C   0  0  0  0  0  0  0  0  0  0  0  0
  -18.6058  -30.2910   21.8783 C   0  0  0  0  0  0  0  0  0  0  0  0
  -22.2870  -32.9169   16.7378 C   0  0  0  0  0  0  0  0  0  0  0  0
  -28.6953  -26.9672   18.2324 C   0  0  0  0  0  0  0  0  0  1  0  0
  -20.6328  -29.9713   20.4014 C   0  0  1  0  0  0  0  0  0  0  0  0
  -19.9971  -32.1297   17.3507 C   0  0  2  0  0  0  0  0  0  0  0  0
  -19.4599  -29.2495   21.1229 C   0  0  0  0  0  0  0  0  0  0  0  0
  -28.4983  -14.9993   20.6082 N   0  0  0  0  0  0  0  0  0  0  0  0
  -29.3997  -23.8885   16.3444 N   0  0  0  0  0  0  0  0  0  0  0  0
  -29.8342  -15.1458   20.6022 N   0  0  0  0  0  0  0  0  0  0  0  0
  -22.9073  -30.2140   21.3456 N   0  0  0  0  0  0  0  0  0  0  0  0
  -30.1339  -18.9519   20.5168 N   0  0  0  0  0  0  0  0  0  0  0  0
  -29.1533  -19.9654   13.5051 N   0  0  0  0  0  0  0  0  0  0  0  0
  -31.8640  -13.9529   20.3424 N   0  0  0  0  0  0  0  0  0  0  0  0
  -28.7087  -10.7589   19.8542 N   0  0  0  0  0  0  0  0  0  0  0  0
  -30.2379  -19.4912   18.2232 N   0  0  0  0  0  0  0  0  0  0  0  0
  -24.0007  -30.1379   24.7411 N   0  0  0  0  0  0  0  0  0  0  0  0
  -20.2108  -30.9993   19.4561 N   0  0  0  0  0  0  0  0  0  0  0  0
  -20.9330  -32.5321   16.2629 N   0  3  0  0  0  0  0  0  0  0  0  0
  -30.9671  -11.1556   19.8870 O   0  0  0  0  0  0  0  0  0  0  0  0
  -23.6966  -28.4549   23.1607 O   0  0  0  0  0  0  0  0  0  0  0  0
  -21.1442  -31.5333   22.1117 O   0  0  0  0  0  0  0  0  0  0  0  0
  -21.2431  -30.0744   17.5970 O   0  0  0  0  0  0  0  0  0  0  0  0
  -30.9986  -20.9825   19.8291 O   0  0  0  0  0  0  0  0  0  0  0  0
  -30.0687  -24.4623   14.1584 O   0  0  0  0  0  0  0  0  0  0  0  0
  -28.6943  -23.8466   18.5910 O   0  0  0  0  0  0  0  0  0  0  0  0
  -23.1948  -11.5094   20.1164 O   0  0  0  0  0  0  0  0  0  0  0  0
  -27.2775  -27.0221   18.3848 O   0  0  0  0  0  0  0  0  0  1  0  0
  -22.2747   -6.7826   22.8025 F   0  0  0  0  0  0  0  0  0  0  0  0
  -21.2930  -11.3621   22.1175 F   0  0  0  0  0  0  0  0  0  0  0  0
  1  2  1  0  0  0  0
  1  5  2  0  0  0  0
  2  6  2  0  0  0  0
  3  8  2  0  0  0  0
  3 19  1  0  0  0  0
  4  9  1  0  0  0  0
  4 19  2  0  0  0  0
  5 21  1  0  0  0  0
  6 23  1  0  0  0  0
  7 10  2  0  0  0  0
  7 22  1  0  0  0  0
  8 29  1  0  0  0  0
  9 29  2  0  0  0  0
 10 30  1  0  0  0  0
 11 12  2  0  0  0  0
 11 31  1  0  0  0  0
 12 32  1  0  0  0  0
 13 24  1  0  0  0  0
 13 30  2  0  0  0  0
 14 25  1  0  0  0  0
 14 36  2  0  0  0  0
 15 26  1  0  0  0  0
 15 27  2  0  0  0  0
 16 26  2  0  0  0  0
 16 28  1  0  0  0  0
 17 27  1  0  0  0  0
 17 28  2  0  0  0  0
 18 32  2  0  0  0  0
 18 33  1  0  0  0  0
 19 34  1  0  0  0  0
 20 34  1  0  0  0  0
 20 35  2  0  0  0  0
 20 38  1  0  0  0  0
 21 23  2  0  0  0  0
 21 43  1  0  0  0  0
 22 24  2  0  0  0  0
 22 44  1  0  0  0  0
 23 52  1  0  0  0  0
 24 45  1  0  0  0  0
 25 37  2  0  0  0  0
 25 60  1  0  0  0  0
 26 65  1  0  0  0  0
 27 69  1  0  0  0  0
 28 72  1  0  0  0  0
 29 83  1  0  0  0  0
 30 84  1  0  0  0  0
 31 33  2  0  0  0  0
 31 83  1  0  0  0  0
 32 85  1  0  0  0  0
 33 86  1  0  0  0  0
 34 64  2  0  0  0  0
 35 66  1  0  0  0  0
 35 70  1  0  0  0  0
 36 65  1  0  0  0  0
 36 81  1  0  0  0  0
 37 65  1  0  0  0  0
 37 82  1  0  0  0  0
 38 71  1  0  0  0  0
 38 76  2  0  0  0  0
 39 53  1  0  0  0  0
 39 73  1  0  0  0  0
 39 77  2  0  0  0  0
 40 61  1  0  0  0  0
 40 67  1  0  0  0  0
 40 78  2  0  0  0  0
 41 62  1  0  0  0  0
 41 74  1  0  0  0  0
 41 79  2  0  0  0  0
 42 68  1  0  0  0  0
 42 72  1  0  0  0  0
 42 80  2  0  0  0  0
 43 46  1  0  0  0  0
 44 53  1  0  0  0  0
 45 67  1  0  0  0  0
 46 48  1  0  0  0  0
 47 49  1  0  0  0  0
 47 50  1  0  0  0  0
 48 52  1  0  0  0  0
 49 54  1  0  0  0  0
 50 68  1  0  0  0  0
 51 54  1  0  0  0  0
 51 68  1  0  0  0  0
 52 73  1  0  0  0  0
 53 67  1  0  0  0  0
 54 66  1  0  0  0  0
 55 62  1  0  0  0  0
 56 63  1  0  0  0  0
 57 63  1  0  0  0  0
 58 63  1  0  0  0  0
 59 75  1  0  0  0  0
 60 84  1  0  0  0  0
 61 63  1  0  0  0  0
 61 74  1  0  0  0  0
 62 75  1  0  0  0  0
 64 66  1  0  0  0  0
M  CHG  1  75   1
M  ISO  4  42 100  60 101  72 100  84 101
M  END
> <Batch ID>
0069

> <Smiles>
CNC(C)C(=O)NC(C(=O)N1Cc2cc([101O:1][101CH2:1]C3CC(=O)N(c4cc(N)cc([100NH:0][100C:0](=O)N5CCCC(n6nc(-c7ccc(Oc8ccc(F)cc8F)cc7)c(C(N)=O)c6N)C5)c4)C3=O)ccc2CC1C(=O)NC1CCCc2ccccc21)C(C)(C)C

> <Shape>
0.268

> <Color>
0.083

> <Negative vol penalty>
0.000

$$$$

  -OEChem-04042323303D

 87 96  0     1  0  0  0  0  0999 V2000
  -28.2877  -23.6085   17.3557 C   0  0  0  0  0  0  0  0  0  0  0  0
  -27.1165  -23.8224   18.0754 C   0  0  0  0  0  0  0  0  0  0  0  0
  -27.6170  -12.8113   19.8701 C   0  0  0  0  0  0  0  0  0  0  0  0
  -27.7697  -13.8010   22.0688 C   0  0  0  0  0  0  0  0  0  0  0  0
  -29.4727  -24.2249   17.7556 C   0  0  0  0  0  0  0  0  0  0  0  0
  -27.1298  -24.6521   19.1960 C   0  0  0  0  0  0  0  0  0  0  0  0
  -23.2015  -27.8464   19.2950 C   0  0  0  0  0  0  0  0  0  0  0  0
  -28.8701  -12.2248   20.0470 C   0  0  0  0  0  0  0  0  0  0  0  0
  -29.0229  -13.2145   22.2458 C   0  0  0  0  0  0  0  0  0  0  0  0
  -21.9714  -27.3305   19.7005 C   0  0  0  0  0  0  0  0  0  0  0  0
  -30.1618   -9.5458   21.6556 C   0  0  0  0  0  0  0  0  0  0  0  0
  -30.3088   -8.2079   21.2896 C   0  0  0  0  0  0  0  0  0  0  0  0
  -18.6634  -21.0272   24.2985 C   0  0  0  0  0  0  0  0  0  0  0  0
  -19.6708  -19.0618   23.3190 C   0  0  0  0  0  0  0  0  0  0  0  0
  -22.3112  -28.2643   21.8986 C   0  0  0  0  0  0  0  0  0  0  0  0
  -20.1865  -21.2509   22.4364 C   0  0  0  0  0  0  0  0  0  0  0  0
  -32.0170   -8.8307   19.6986 C   0  0  0  0  0  0  0  0  0  0  0  0
  -27.0668  -13.5995   20.8810 C   0  0  0  0  0  0  0  0  0  0  0  0
  -18.8273  -19.6424   24.2662 C   0  0  0  0  0  0  0  0  0  0  0  0
  -24.5210  -13.6557   21.0335 C   0  0  0  0  0  0  0  0  0  0  0  0
  -29.4984  -25.0702   18.8761 C   0  0  0  0  0  0  0  0  0  0  0  0
  -24.0020  -28.5671   20.1929 C   0  0  0  0  0  0  0  0  0  0  0  0
  -28.3165  -25.2793   19.6120 C   0  0  0  0  0  0  0  0  0  0  0  0
  -23.5498  -28.7905   21.5013 C   0  0  0  0  0  0  0  0  0  0  0  0
  -19.3430  -21.8314   23.3835 C   0  0  0  0  0  0  0  0  0  0  0  0
  -20.3504  -19.8660   22.4041 C   0  0  0  0  0  0  0  0  0  0  0  0
  -29.5730  -12.4264   21.2349 C   0  0  0  0  0  0  0  0  0  0  0  0
  -21.5273  -27.5369   21.0033 C   0  0  0  0  0  0  0  0  0  0  0  0
  -30.9423  -10.5262   21.0430 C   0  0  0  0  0  0  0  0  0  0  0  0
  -31.2364   -7.8503   20.3112 C   0  0  0  0  0  0  0  0  0  0  0  0
  -31.8699  -10.1687   20.0646 C   0  0  0  0  0  0  0  0  0  0  0  0
  -25.7727  -14.2061   20.6986 C   0  0  0  0  0  0  0  0  0  0  0  0
  -23.6130  -14.6178   20.6645 C   0  0  0  0  0  0  0  0  0  0  0  0
  -19.7895  -24.1890   22.5642 C   0  0  0  0  0  0  0  0  0  0  0  0
  -18.1189  -18.8039   25.2202 C   0  0  0  0  0  0  0  0  0  0  0  0
  -24.2072  -12.3880   21.6255 C   0  0  0  0  0  0  0  0  0  0  0  0
  -26.9017  -28.1670   21.4321 C   0  0  0  0  0  0  0  0  0  0  0  0
  -26.3534  -31.1145   22.6706 C   0  0  0  0  0  0  0  0  0  0  0  0
  -24.0862  -33.4719   23.6449 C   0  0  0  0  0  0  0  0  0  0  0  0
  -21.9553  -19.9296   20.4633 C   0  0  0  0  0  0  0  0  0  0  0  0
  -30.8133  -25.6768   19.2977 C   0  0  0  0  0  0  0  0  0  0  0  0
  -25.3142  -29.1399   19.7322 C   0  0  0  0  0  0  0  0  0  0  0  0
  -24.3623  -29.5748   22.4980 C   0  0  0  0  0  0  0  0  0  0  0  0
  -30.6621  -26.8387   20.2762 C   0  0  0  0  0  0  0  0  0  0  0  0
  -24.2119  -18.8382   17.9347 C   0  0  0  0  0  0  0  0  0  0  0  0
  -29.6809  -26.4771   21.3867 C   0  0  0  0  0  0  0  0  0  0  0  0
  -24.7161  -17.4905   18.4559 C   0  0  0  0  0  0  0  0  0  0  0  0
  -18.6890  -25.3514   24.3255 C   0  0  0  0  0  0  0  0  0  0  0  0
  -24.0087  -19.8439   19.0665 C   0  0  0  0  0  0  0  0  0  0  0  0
  -18.2672  -23.8958   24.3448 C   0  0  0  0  0  0  0  0  0  0  0  0
  -23.6686  -18.0250   20.6929 C   0  0  0  0  0  0  0  0  0  0  0  0
  -28.2853  -26.1922   20.8186 C   0  0  1  0  0  0  0  0  0  0  0  0
  -19.1959  -25.5467   22.9039 C   0  0  1  0  0  0  0  0  0  0  0  0
  -26.2803  -29.4185   20.8796 C   0  0  1  0  0  0  0  0  0  0  0  0
  -23.8264  -16.9588   19.5966 C   0  0  2  0  0  0  0  0  0  0  0  0
  -23.9387  -35.7650   24.6535 C   0  0  0  0  0  0  0  0  0  0  0  0
  -27.0160  -29.9489   25.4115 C   0  0  0  0  0  0  0  0  0  0  0  0
  -25.9517  -31.9639   26.4484 C   0  0  0  0  0  0  0  0  0  0  0  0
  -27.9590  -32.2267   24.9909 C   0  0  0  0  0  0  0  0  0  0  0  0
  -22.7155  -34.5600   21.2583 C   0  0  0  0  0  0  0  0  0  0  0  0
  -20.1961  -26.6804   22.7782 C   0  0  0  0  0  0  0  0  0  1  0  0
  -25.7340  -31.6414   23.9425 C   0  0  1  0  0  0  0  0  0  0  0  0
  -23.9976  -34.9611   23.3639 C   0  0  2  0  0  0  0  0  0  0  0  0
  -26.6505  -31.4288   25.1803 C   0  0  0  0  0  0  0  0  0  0  0  0
  -25.6726  -15.4234   20.1581 N   0  0  0  0  0  0  0  0  0  0  0  0
  -24.3473  -15.6458   20.1506 N   0  0  0  0  0  0  0  0  0  0  0  0
  -19.1754  -23.2483   23.4165 N   0  0  0  0  0  0  0  0  0  0  0  0
  -25.6411  -30.1091   22.0015 N   0  0  0  0  0  0  0  0  0  0  0  0
  -23.1525  -19.2727   20.1084 N   0  0  0  0  0  0  0  0  0  0  0  0
  -22.2660  -14.6762   20.7325 N   0  0  0  0  0  0  0  0  0  0  0  0
  -17.2899  -19.4328   26.1446 N   0  0  0  0  0  0  0  0  0  0  0  0
  -25.2606  -11.5196   21.9424 N   0  0  0  0  0  0  0  0  0  0  0  0
  -21.2075  -19.2761   21.4423 N   0  0  0  0  0  0  0  0  0  0  0  0
  -27.6070  -27.4302   20.4999 N   0  0  0  0  0  0  0  0  0  0  0  0
  -25.3939  -33.0363   23.6834 N   0  0  0  0  0  0  0  0  0  0  0  0
  -22.7776  -35.2657   22.5641 N   0  3  0  0  0  0  0  0  0  0  0  0
  -20.5968  -24.0181   21.6623 O   0  0  0  0  0  0  0  0  0  0  0  0
  -18.2582  -17.5682   25.2258 O   0  0  0  0  0  0  0  0  0  0  0  0
  -23.0266  -12.0292   21.8511 O   0  0  0  0  0  0  0  0  0  0  0  0
  -26.7534  -27.8911   22.6168 O   0  0  0  0  0  0  0  0  0  0  0  0
  -27.4261  -31.5829   22.2812 O   0  0  0  0  0  0  0  0  0  0  0  0
  -23.0946  -32.7664   23.8169 O   0  0  0  0  0  0  0  0  0  0  0  0
  -21.6048  -20.9793   19.9182 O   0  0  0  0  0  0  0  0  0  0  0  0
  -30.7957  -11.8540   21.4079 O   0  0  0  0  0  0  0  0  0  0  0  0
  -20.3274  -27.0339   21.4019 O   0  0  0  0  0  0  0  0  0  1  0  0
  -31.3786   -6.5653   19.9610 F   0  0  0  0  0  0  0  0  0  0  0  0
  -32.6235  -11.1060   19.4734 F   0  0  0  0  0  0  0  0  0  0  0  0
  1  2  1  0  0  0  0
  1  5  2  0  0  0  0
  2  6  2  0  0  0  0
  3  8  2  0  0  0  0
  3 18  1  0  0  0  0
  4  9  1  0  0  0  0
  4 18  2  0  0  0  0
  5 21  1  0  0  0  0
  6 23  1  0  0  0  0
  7 10  2  0  0  0  0
  7 22  1  0  0  0  0
  8 27  1  0  0  0  0
  9 27  2  0  0  0  0
 10 28  1  0  0  0  0
 11 12  2  0  0  0  0
 11 29  1  0  0  0  0
 12 30  1  0  0  0  0
 13 19  1  0  0  0  0
 13 25  2  0  0  0  0
 14 19  2  0  0  0  0
 14 26  1  0  0  0  0
 15 24  1  0  0  0  0
 15 28  2  0  0  0  0
 16 25  1  0  0  0  0
 16 26  2  0  0  0  0
 17 30  2  0  0  0  0
 17 31  1  0  0  0  0
 18 32  1  0  0  0  0
 19 35  1  0  0  0  0
 20 32  1  0  0  0  0
 20 33  2  0  0  0  0
 20 36  1  0  0  0  0
 21 23  2  0  0  0  0
 21 41  1  0  0  0  0
 22 24  2  0  0  0  0
 22 42  1  0  0  0  0
 23 52  1  0  0  0  0
 24 43  1  0  0  0  0
 25 67  1  0  0  0  0
 26 73  1  0  0  0  0
 27 84  1  0  0  0  0
 28 85  1  0  0  0  0
 29 31  2  0  0  0  0
 29 84  1  0  0  0  0
 30 86  1  0  0  0  0
 31 87  1  0  0  0  0
 32 65  2  0  0  0  0
 33 66  1  0  0  0  0
 33 70  1  0  0  0  0
 34 53  1  0  0  0  0
 34 67  1  0  0  0  0
 34 77  2  0  0  0  0
 35 71  1  0  0  0  0
 35 78  2  0  0  0  0
 36 72  1  0  0  0  0
 36 79  2  0  0  0  0
 37 54  1  0  0  0  0
 37 74  1  0  0  0  0
 37 80  2  0  0  0  0
 38 62  1  0  0  0  0
 38 68  1  0  0  0  0
 38 81  2  0  0  0  0
 39 63  1  0  0  0  0
 39 75  1  0  0  0  0
 39 82  2  0  0  0  0
 40 69  1  0  0  0  0
 40 73  1  0  0  0  0
 40 83  2  0  0  0  0
 41 44  1  0  0  0  0
 42 54  1  0  0  0  0
 43 68  1  0  0  0  0
 44 46  1  0  0  0  0
 45 47  1  0  0  0  0
 45 49  1  0  0  0  0
 46 52  1  0  0  0  0
 47 55  1  0  0  0  0
 48 50  1  0  0  0  0
 48 53  1  0  0  0  0
 49 69  1  0  0  0  0
 50 67  1  0  0  0  0
 51 55  1  0  0  0  0
 51 69  1  0  0  0  0
 52 74  1  0  0  0  0
 53 61  1  0  0  0  0
 54 68  1  0  0  0  0
 55 66  1  0  0  0  0
 56 63  1  0  0  0  0
 57 64  1  0  0  0  0
 58 64  1  0  0  0  0
 59 64  1  0  0  0  0
 60 76  1  0  0  0  0
 61 85  1  0  0  0  0
 62 64  1  0  0  0  0
 62 75  1  0  0  0  0
 63 76  1  0  0  0  0
 65 66  1  0  0  0  0
M  CHG  1  76   1
M  ISO  4  40 100  61 101  73 100  85 101
M  END
> <Batch ID>
0069

> <Smiles>
CNC(C)C(=O)NC(C(=O)N1Cc2cc([101O:1][101CH2:1]C3CCN(c4cc([100NH:0][100C:0](=O)N5CCCC(n6nc(-c7ccc(Oc8ccc(F)cc8F)cc7)c(C(N)=O)c6N)C5)cc(C(N)=O)c4)C3=O)ccc2CC1C(=O)NC1CCCc2ccccc21)C(C)(C)C

> <Shape>
0.259

> <Color>
0.078

> <Negative vol penalty>
0.000

$$$$

  -OEChem-04042323303D

 88 97  0     1  0  0  0  0  0999 V2000
  -25.4895  -38.1231   23.7444 C   0  0  0  0  0  0  0  0  0  0  0  0
  -26.2601  -37.3705   22.8639 C   0  0  0  0  0  0  0  0  0  0  0  0
  -26.3649   -9.3335   18.3132 C   0  0  0  0  0  0  0  0  0  0  0  0
  -24.2574   -9.5479   19.4749 C   0  0  0  0  0  0  0  0  0  0  0  0
  -24.8042  -37.4933   24.7825 C   0  0  0  0  0  0  0  0  0  0  0  0
  -26.3469  -35.9878   23.0218 C   0  0  0  0  0  0  0  0  0  0  0  0
  -27.0245  -29.9644   19.2039 C   0  0  0  0  0  0  0  0  0  0  0  0
  -25.7449   -8.5613   17.3309 C   0  0  0  0  0  0  0  0  0  0  0  0
  -23.6374   -8.7757   18.4926 C   0  0  0  0  0  0  0  0  0  0  0  0
  -27.8131  -28.8169   19.1334 C   0  0  0  0  0  0  0  0  0  0  0  0
  -23.3766   -5.5008   17.6939 C   0  0  0  0  0  0  0  0  0  0  0  0
  -22.5059   -4.4953   18.1137 C   0  0  0  0  0  0  0  0  0  0  0  0
  -26.5225  -27.8279   20.9154 C   0  0  0  0  0  0  0  0  0  0  0  0
  -29.9429  -19.8374   18.3234 C   0  0  0  0  0  0  0  0  0  0  0  0
  -29.1700  -17.5575   18.5276 C   0  0  0  0  0  0  0  0  0  0  0  0
  -28.2767  -19.2705   19.9785 C   0  0  0  0  0  0  0  0  0  0  0  0
  -20.7018   -5.5519   16.9029 C   0  0  0  0  0  0  0  0  0  0  0  0
  -25.6212   -9.8267   19.3852 C   0  0  0  0  0  0  0  0  0  0  0  0
  -27.3259  -10.2397   21.2375 C   0  0  0  0  0  0  0  0  0  0  0  0
  -24.8749  -36.1010   24.9474 C   0  0  0  0  0  0  0  0  0  0  0  0
  -25.9841  -30.0568   20.1396 C   0  0  0  0  0  0  0  0  0  0  0  0
  -25.6630  -35.3389   24.0639 C   0  0  0  0  0  0  0  0  0  0  0  0
  -25.7205  -28.9767   20.9940 C   0  0  0  0  0  0  0  0  0  0  0  0
  -29.9831  -18.5064   17.9079 C   0  0  0  0  0  0  0  0  0  0  0  0
  -29.0898  -20.2194   19.3587 C   0  0  0  0  0  0  0  0  0  0  0  0
  -28.3168  -17.9395   19.5630 C   0  0  0  0  0  0  0  0  0  0  0  0
  -24.3811   -8.2825   17.4205 C   0  0  0  0  0  0  0  0  0  0  0  0
  -27.5640  -27.7495   19.9912 C   0  0  0  0  0  0  0  0  0  0  0  0
  -22.9099   -6.5320   16.8786 C   0  0  0  0  0  0  0  0  0  0  0  0
  -21.1685   -4.5207   17.7182 C   0  0  0  0  0  0  0  0  0  0  0  0
  -21.5725   -6.5575   16.4831 C   0  0  0  0  0  0  0  0  0  0  0  0
  -26.2612  -10.6240   20.4006 C   0  0  0  0  0  0  0  0  0  0  0  0
  -27.5648  -11.3442   22.0182 C   0  0  0  0  0  0  0  0  0  0  0  0
  -28.7551  -21.9640   21.0805 C   0  0  0  0  0  0  0  0  0  0  0  0
  -28.7210  -23.2294   21.5389 C   0  0  0  0  0  0  0  0  0  0  0  0
  -28.0357   -8.9957   21.3032 C   0  0  0  0  0  0  0  0  0  0  0  0
  -25.3476  -31.9585   22.6058 C   0  0  0  0  0  0  0  0  0  0  0  0
  -22.5430  -30.3290   22.6380 C   0  0  0  0  0  0  0  0  0  0  0  0
  -20.8329  -27.4888   21.8282 C   0  0  0  0  0  0  0  0  0  0  0  0
  -26.5880  -17.1867   21.2335 C   0  0  0  0  0  0  0  0  0  0  0  0
  -24.1546  -35.4705   26.1129 C   0  0  0  0  0  0  0  0  0  0  0  0
  -25.1256  -31.2910   20.1848 C   0  0  0  0  0  0  0  0  0  0  0  0
  -24.6027  -29.0178   22.0026 C   0  0  0  0  0  0  0  0  0  0  0  0
  -23.9978  -33.9574   25.9857 C   0  0  0  0  0  0  0  0  0  0  0  0
  -25.3528  -15.1587   23.8866 C   0  0  0  0  0  0  0  0  0  0  0  0
  -25.3160  -33.3180   25.5609 C   0  0  0  0  0  0  0  0  0  0  0  0
  -25.5481  -13.7306   23.3724 C   0  0  0  0  0  0  0  0  0  0  0  0
  -28.7972  -23.9361   19.1178 C   0  0  0  0  0  0  0  0  0  0  0  0
  -24.9507  -16.1152   22.7653 C   0  0  0  0  0  0  0  0  0  0  0  0
  -29.4652  -22.5927   18.8023 C   0  0  0  0  0  0  0  0  0  0  0  0
  -26.0332  -14.6798   21.0809 C   0  0  0  0  0  0  0  0  0  0  0  0
  -25.7621  -33.8339   24.1875 C   0  0  1  0  0  0  0  0  0  0  0  0
  -24.4206  -31.4797   21.5245 C   0  0  1  0  0  0  0  0  0  0  0  0
  -26.5021  -13.6928   22.1624 C   0  0  2  0  0  0  0  0  0  0  0  0
  -28.9891  -24.3982   20.5888 C   0  0  2  0  0  0  0  0  0  0  0  0
  -30.8953  -18.0982   16.8009 C   0  0  0  0  0  0  0  0  0  0  0  0
  -30.4330  -24.8980   20.7926 C   0  0  0  0  0  0  0  0  0  0  0  0
  -26.9727  -23.6669   23.2297 C   0  0  0  0  0  0  0  0  0  0  0  0
  -18.5637  -26.4342   22.0171 C   0  0  0  0  0  0  0  0  0  0  0  0
  -23.0701  -29.7281   25.5827 C   0  0  0  0  0  0  0  0  0  0  0  0
  -21.3262  -27.9361   25.4572 C   0  0  0  0  0  0  0  0  0  0  0  0
  -20.6991  -30.3152   25.0460 C   0  0  0  0  0  0  0  0  0  0  0  0
  -20.5351  -27.3279   18.8880 C   0  0  0  0  0  0  0  0  0  0  0  0
  -28.4567  -23.5112   22.9921 C   0  0  0  0  0  0  0  0  0  0  0  0
  -28.0217  -25.5732   20.8338 C   0  0  0  0  0  0  0  0  0  1  0  0
  -22.0458  -29.0698   23.3060 C   0  0  1  0  0  0  0  0  0  0  0  0
  -19.4883  -27.2800   21.1553 C   0  0  2  0  0  0  0  0  0  0  0  0
  -21.8077  -29.2620   24.8304 C   0  0  0  0  0  0  0  0  0  0  0  0
  -25.8518  -11.8748   20.6284 N   0  0  0  0  0  0  0  0  0  0  0  0
  -26.6635  -12.2860   21.6174 N   0  0  0  0  0  0  0  0  0  0  0  0
  -29.0493  -21.5748   19.7817 N   0  0  0  0  0  0  0  0  0  0  0  0
  -23.7952  -30.2489   22.0124 N   0  0  0  0  0  0  0  0  0  0  0  0
  -25.9022  -16.0280   21.6553 N   0  0  0  0  0  0  0  0  0  0  0  0
  -28.4557  -11.5918   23.0018 N   0  0  0  0  0  0  0  0  0  0  0  0
  -27.5607   -8.0004   22.1681 N   0  0  0  0  0  0  0  0  0  0  0  0
  -27.4907  -16.9753   20.1919 N   0  0  0  0  0  0  0  0  0  0  0  0
  -25.0066  -33.1884   23.1353 N   0  0  0  0  0  0  0  0  0  0  0  0
  -20.8604  -28.6548   22.5637 N   0  0  0  0  0  0  0  0  0  0  0  0
  -19.6661  -26.5945   19.8441 N   0  3  0  0  0  0  0  0  0  0  0  0
  -29.0702   -8.7794   20.6275 O   0  0  0  0  0  0  0  0  0  0  0  0
  -26.3008  -31.2629   22.9362 O   0  0  0  0  0  0  0  0  0  0  0  0
  -21.8428  -31.3443   22.6640 O   0  0  0  0  0  0  0  0  0  0  0  0
  -21.7645  -26.6951   21.7157 O   0  0  0  0  0  0  0  0  0  0  0  0
  -26.4090  -18.2803   21.7757 O   0  0  0  0  0  0  0  0  0  0  0  0
  -23.7758   -7.5292   16.4620 O   0  0  0  0  0  0  0  0  0  0  0  0
  -28.3326  -26.6285   19.9250 O   0  0  0  0  0  0  0  0  0  1  0  0
  -20.3328   -3.5542   18.1202 F   0  0  0  0  0  0  0  0  0  0  0  0
  -21.1187   -7.5449   15.6990 F   0  0  0  0  0  0  0  0  0  0  0  0
  1  2  1  0  0  0  0
  1  5  2  0  0  0  0
  2  6  2  0  0  0  0
  3  8  2  0  0  0  0
  3 18  1  0  0  0  0
  4  9  1  0  0  0  0
  4 18  2  0  0  0  0
  5 20  1  0  0  0  0
  6 22  1  0  0  0  0
  7 10  2  0  0  0  0
  7 21  1  0  0  0  0
  8 27  1  0  0  0  0
  9 27  2  0  0  0  0
 10 28  1  0  0  0  0
 11 12  2  0  0  0  0
 11 29  1  0  0  0  0
 12 30  1  0  0  0  0
 13 23  1  0  0  0  0
 13 28  2  0  0  0  0
 14 24  2  0  0  0  0
 14 25  1  0  0  0  0
 15 24  1  0  0  0  0
 15 26  2  0  0  0  0
 16 25  2  0  0  0  0
 16 26  1  0  0  0  0
 17 30  2  0  0  0  0
 17 31  1  0  0  0  0
 18 32  1  0  0  0  0
 19 32  1  0  0  0  0
 19 33  2  0  0  0  0
 19 36  1  0  0  0  0
 20 22  2  0  0  0  0
 20 41  1  0  0  0  0
 21 23  2  0  0  0  0
 21 42  1  0  0  0  0
 22 52  1  0  0  0  0
 23 43  1  0  0  0  0
 24 56  1  0  0  0  0
 25 71  1  0  0  0  0
 26 76  1  0  0  0  0
 27 85  1  0  0  0  0
 28 86  1  0  0  0  0
 29 31  2  0  0  0  0
 29 85  1  0  0  0  0
 30 87  1  0  0  0  0
 31 88  1  0  0  0  0
 32 69  2  0  0  0  0
 33 70  1  0  0  0  0
 33 74  1  0  0  0  0
 34 35  2  0  0  0  0
 34 71  1  0  0  0  0
 35 55  1  0  0  0  0
 35 64  1  0  0  0  0
 36 75  1  0  0  0  0
 36 80  2  0  0  0  0
 37 53  1  0  0  0  0
 37 77  1  0  0  0  0
 37 81  2  0  0  0  0
 38 66  1  0  0  0  0
 38 72  1  0  0  0  0
 38 82  2  0  0  0  0
 39 67  1  0  0  0  0
 39 78  1  0  0  0  0
 39 83  2  0  0  0  0
 40 73  1  0  0  0  0
 40 76  1  0  0  0  0
 40 84  2  0  0  0  0
 41 44  1  0  0  0  0
 42 53  1  0  0  0  0
 43 72  1  0  0  0  0
 44 46  1  0  0  0  0
 45 47  1  0  0  0  0
 45 49  1  0  0  0  0
 46 52  1  0  0  0  0
 47 54  1  0  0  0  0
 48 50  1  0  0  0  0
 48 55  1  0  0  0  0
 49 73  1  0  0  0  0
 50 71  1  0  0  0  0
 51 54  1  0  0  0  0
 51 73  1  0  0  0  0
 52 77  1  0  0  0  0
 53 72  1  0  0  0  0
 54 70  1  0  0  0  0
 55 57  1  0  0  0  0
 55 65  1  0  0  0  0
 58 64  1  0  0  0  0
 59 67  1  0  0  0  0
 60 68  1  0  0  0  0
 61 68  1  0  0  0  0
 62 68  1  0  0  0  0
 63 79  1  0  0  0  0
 65 86  1  0  0  0  0
 66 68  1  0  0  0  0
 66 78  1  0  0  0  0
 67 79  1  0  0  0  0
 69 70  1  0  0  0  0
M  CHG  1  79   1
M  ISO  4  40 100  65 101  76 100  86 101
M  END
> <Batch ID>
0069

> <Smiles>
CCC1=CN(c2cc(C)cc([100NH:0][100C:0](=O)N3CCCC(n4nc(-c5ccc(Oc6ccc(F)cc6F)cc5)c(C(N)=O)c4N)C3)c2)CCC1(C)[101CH2:1][101O:1]c1ccc2c(c1)CN(C(=O)C(NC(=O)C(C)NC)C(C)(C)C)C(C(=O)NC1CCCc3ccccc31)C2

> <Shape>
0.263

> <Color>
0.074

> <Negative vol penalty>
0.000

$$$$

  -OEChem-04042323303D

 91100  0     1  0  0  0  0  0999 V2000
  -21.7795  -12.5985   19.6401 C   0  0  0  0  0  0  0  0  0  0  0  0
  -21.7173  -13.9383   20.0096 C   0  0  0  0  0  0  0  0  0  0  0  0
  -30.7517  -30.1039   22.3489 C   0  0  0  0  0  0  0  0  0  0  0  0
  -29.8645  -28.8262   24.1975 C   0  0  0  0  0  0  0  0  0  0  0  0
  -22.9706  -11.8896   19.7908 C   0  0  0  0  0  0  0  0  0  0  0  0
  -22.8459  -14.5696   20.5312 C   0  0  0  0  0  0  0  0  0  0  0  0
  -23.6081  -19.1560   18.5239 C   0  0  0  0  0  0  0  0  0  0  0  0
  -31.9831  -30.1888   22.9985 C   0  0  0  0  0  0  0  0  0  0  0  0
  -31.0959  -28.9110   24.8471 C   0  0  0  0  0  0  0  0  0  0  0  0
  -22.8140  -20.1989   18.9989 C   0  0  0  0  0  0  0  0  0  0  0  0
  -34.1136  -27.4002   24.6687 C   0  0  0  0  0  0  0  0  0  0  0  0
  -34.6198  -26.2373   25.2491 C   0  0  0  0  0  0  0  0  0  0  0  0
  -24.6260  -20.9249   20.4163 C   0  0  0  0  0  0  0  0  0  0  0  0
  -18.2925  -26.6841   22.9331 C   0  0  0  0  0  0  0  0  0  0  0  0
  -19.2996  -28.8800   22.9630 C   0  0  0  0  0  0  0  0  0  0  0  0
  -20.5353  -26.9960   22.0908 C   0  0  0  0  0  0  0  0  0  0  0  0
  -34.6190  -27.3161   27.4110 C   0  0  0  0  0  0  0  0  0  0  0  0
  -29.6923  -29.4227   22.9485 C   0  0  0  0  0  0  0  0  0  0  0  0
  -27.9973  -28.3338   21.3835 C   0  0  0  0  0  0  0  0  0  0  0  0
  -24.1170  -12.5152   20.3055 C   0  0  0  0  0  0  0  0  0  0  0  0
  -24.9156  -18.9830   19.0004 C   0  0  0  0  0  0  0  0  0  0  0  0
  -24.0530  -13.8681   20.6902 C   0  0  0  0  0  0  0  0  0  0  0  0
  -25.4355  -19.8806   19.9438 C   0  0  0  0  0  0  0  0  0  0  0  0
  -18.2163  -28.0440   23.2338 C   0  0  0  0  0  0  0  0  0  0  0  0
  -19.4521  -26.1601   22.3617 C   0  0  0  0  0  0  0  0  0  0  0  0
  -20.4591  -28.3560   22.3915 C   0  0  0  0  0  0  0  0  0  0  0  0
  -32.1552  -29.5923   24.2476 C   0  0  0  0  0  0  0  0  0  0  0  0
  -23.3220  -21.0818   19.9474 C   0  0  0  0  0  0  0  0  0  0  0  0
  -33.8601  -28.5211   25.4593 C   0  0  0  0  0  0  0  0  0  0  0  0
  -34.8725  -26.1952   26.6203 C   0  0  0  0  0  0  0  0  0  0  0  0
  -34.1128  -28.4790   26.8304 C   0  0  0  0  0  0  0  0  0  0  0  0
  -28.4198  -29.3352   22.2782 C   0  0  0  0  0  0  0  0  0  0  0  0
  -26.7232  -28.7049   21.0296 C   0  0  0  0  0  0  0  0  0  0  0  0
  -18.5255  -23.8071   22.2684 C   0  0  0  0  0  0  0  0  0  0  0  0
  -28.6943  -27.1720   20.9144 C   0  0  0  0  0  0  0  0  0  0  0  0
  -26.4416  -16.6850   20.5797 C   0  0  0  0  0  0  0  0  0  0  0  0
  -15.7559  -28.3836   22.9295 C   0  0  0  0  0  0  0  0  0  0  0  0
  -29.0269  -18.5688   20.0412 C   0  0  0  0  0  0  0  0  0  0  0  0
  -30.2558  -21.6862   19.3940 C   0  0  0  0  0  0  0  0  0  0  0  0
  -21.6493  -30.5760   22.3554 C   0  0  0  0  0  0  0  0  0  0  0  0
  -25.3687  -11.6951   20.4942 C   0  0  0  0  0  0  0  0  0  0  0  0
  -25.7684  -17.8690   18.4582 C   0  0  0  0  0  0  0  0  0  0  0  0
  -26.8398  -19.7504   20.4724 C   0  0  0  0  0  0  0  0  0  0  0  0
  -19.0244  -22.4964   21.7015 C   0  0  0  0  0  0  0  0  0  0  0  0
  -26.6234  -12.5386   20.7049 C   0  0  0  0  0  0  0  0  0  0  0  0
  -24.1972  -33.0126   21.8570 C   0  0  0  0  0  0  0  0  0  0  0  0
  -26.3602  -13.6415   21.7253 C   0  0  0  0  0  0  0  0  0  0  0  0
  -25.4881  -32.1907   21.8486 C   0  0  0  0  0  0  0  0  0  0  0  0
  -23.1829  -32.4652   22.8596 C   0  0  0  0  0  0  0  0  0  0  0  0
  -24.1709  -30.2134   22.7099 C   0  0  0  0  0  0  0  0  0  0  0  0
  -20.6802  -24.1883   21.3848 C   0  0  0  0  0  0  0  0  0  0  0  0
  -25.2628  -14.5946   21.2366 C   0  0  1  0  0  0  0  0  0  0  0  0
  -26.9091  -17.4802   19.3936 C   0  0  1  0  0  0  0  0  0  0  0  0
  -25.1981  -30.6877   21.6690 C   0  0  2  0  0  0  0  0  0  0  0  0
  -20.5422  -22.6805   21.6106 C   0  0  1  0  0  0  0  0  0  0  0  0
  -15.8200  -29.0034   21.5559 C   0  0  0  0  0  0  0  0  0  0  0  0
  -21.2180  -22.2605   22.9270 C   0  0  0  0  0  0  0  0  0  0  0  0
  -32.4130  -22.9197   19.0442 C   0  0  0  0  0  0  0  0  0  0  0  0
  -16.6849  -27.9985   25.2340 C   0  0  0  0  0  0  0  0  0  0  0  0
  -29.5658  -18.4728   23.0429 C   0  0  0  0  0  0  0  0  0  0  0  0
  -31.0995  -20.4313   22.7596 C   0  0  0  0  0  0  0  0  0  0  0  0
  -31.6060  -18.2762   21.6099 C   0  0  0  0  0  0  0  0  0  0  0  0
  -29.4828  -22.4960   16.6544 C   0  0  0  0  0  0  0  0  0  0  0  0
  -21.1394  -21.8804   20.4521 C   0  0  0  0  0  0  0  0  0  1  0  0
  -29.6936  -19.7054   20.7778 C   0  0  1  0  0  0  0  0  0  0  0  0
  -31.2664  -22.1788   18.3740 C   0  0  2  0  0  0  0  0  0  0  0  0
  -16.9766  -28.6037   23.8461 C   0  0  1  0  0  0  0  0  0  0  0  0
  -30.4641  -19.2230   22.0392 C   0  0  0  0  0  0  0  0  0  0  0  0
  -27.4896  -30.2722   22.4800 N   0  0  0  0  0  0  0  0  0  0  0  0
  -26.4699  -29.8612   21.7071 N   0  0  0  0  0  0  0  0  0  0  0  0
  -19.5295  -24.7685   22.0543 N   0  0  0  0  0  0  0  0  0  0  0  0
  -27.6323  -18.6413   19.9161 N   0  0  0  0  0  0  0  0  0  0  0  0
  -22.9549  -31.0375   22.6260 N   0  0  0  0  0  0  0  0  0  0  0  0
  -25.8059  -28.1517   20.2080 N   0  0  0  0  0  0  0  0  0  0  0  0
  -29.9964  -26.9410   21.3788 N   0  0  0  0  0  0  0  0  0  0  0  0
  -21.5601  -29.2048   22.1176 N   0  0  0  0  0  0  0  0  0  0  0  0
  -25.7921  -15.5110   20.2494 N   0  0  0  0  0  0  0  0  0  0  0  0
  -30.5249  -20.3954   19.7974 N   0  0  0  0  0  0  0  0  0  0  0  0
  -30.6142  -23.1019   17.4027 N   0  3  0  0  0  0  0  0  0  0  0  0
  -17.4101  -23.9283   22.7542 O   0  0  0  0  0  0  0  0  0  0  0  0
  -28.1838  -26.3713   20.0947 O   0  0  0  0  0  0  0  0  0  0  0  0
  -26.6558  -17.1048   21.7109 O   0  0  0  0  0  0  0  0  0  0  0  0
  -14.7995  -27.6813   23.2582 O   0  0  0  0  0  0  0  0  0  0  0  0
  -29.7188  -17.6541   19.5870 O   0  0  0  0  0  0  0  0  0  0  0  0
  -29.3232  -22.3786   19.7958 O   0  0  0  0  0  0  0  0  0  0  0  0
  -20.6857  -31.3451   22.3092 O   0  0  0  0  0  0  0  0  0  0  0  0
  -33.3568  -29.6747   24.8816 O   0  0  0  0  0  0  0  0  0  0  0  0
  -22.5488  -22.1002   20.4132 O   0  0  0  0  0  0  0  0  0  1  0  0
  -35.3571  -25.0779   27.1779 F   0  0  0  0  0  0  0  0  0  0  0  0
  -33.8702  -29.5523   27.5953 F   0  0  0  0  0  0  0  0  0  0  0  0
  -17.0661  -29.9636   24.0867 F   0  0  0  0  0  0  0  0  0  0  0  0
  1  2  1  0  0  0  0
  1  5  2  0  0  0  0
  2  6  2  0  0  0  0
  3  8  2  0  0  0  0
  3 18  1  0  0  0  0
  4  9  1  0  0  0  0
  4 18  2  0  0  0  0
  5 20  1  0  0  0  0
  6 22  1  0  0  0  0
  7 10  2  0  0  0  0
  7 21  1  0  0  0  0
  8 27  1  0  0  0  0
  9 27  2  0  0  0  0
 10 28  1  0  0  0  0
 11 12  2  0  0  0  0
 11 29  1  0  0  0  0
 12 30  1  0  0  0  0
 13 23  1  0  0  0  0
 13 28  2  0  0  0  0
 14 24  1  0  0  0  0
 14 25  2  0  0  0  0
 15 24  2  0  0  0  0
 15 26  1  0  0  0  0
 16 25  1  0  0  0  0
 16 26  2  0  0  0  0
 17 30  2  0  0  0  0
 17 31  1  0  0  0  0
 18 32  1  0  0  0  0
 19 32  1  0  0  0  0
 19 33  2  0  0  0  0
 19 35  1  0  0  0  0
 20 22  2  0  0  0  0
 20 41  1  0  0  0  0
 21 23  2  0  0  0  0
 21 42  1  0  0  0  0
 22 52  1  0  0  0  0
 23 43  1  0  0  0  0
 24 67  1  0  0  0  0
 25 71  1  0  0  0  0
 26 76  1  0  0  0  0
 27 87  1  0  0  0  0
 28 88  1  0  0  0  0
 29 31  2  0  0  0  0
 29 87  1  0  0  0  0
 30 89  1  0  0  0  0
 31 90  1  0  0  0  0
 32 69  2  0  0  0  0
 33 70  1  0  0  0  0
 33 74  1  0  0  0  0
 34 44  1  0  0  0  0
 34 71  1  0  0  0  0
 34 80  2  0  0  0  0
 35 75  1  0  0  0  0
 35 81  2  0  0  0  0
 36 53  1  0  0  0  0
 36 77  1  0  0  0  0
 36 82  2  0  0  0  0
 37 56  1  0  0  0  0
 37 67  1  0  0  0  0
 37 83  2  0  0  0  0
 38 65  1  0  0  0  0
 38 72  1  0  0  0  0
 38 84  2  0  0  0  0
 39 66  1  0  0  0  0
 39 78  1  0  0  0  0
 39 85  2  0  0  0  0
 40 73  1  0  0  0  0
 40 76  1  0  0  0  0
 40 86  2  0  0  0  0
 41 45  1  0  0  0  0
 42 53  1  0  0  0  0
 43 72  1  0  0  0  0
 44 55  1  0  0  0  0
 45 47  1  0  0  0  0
 46 48  1  0  0  0  0
 46 49  1  0  0  0  0
 47 52  1  0  0  0  0
 48 54  1  0  0  0  0
 49 73  1  0  0  0  0
 50 54  1  0  0  0  0
 50 73  1  0  0  0  0
 51 55  1  0  0  0  0
 51 71  1  0  0  0  0
 52 77  1  0  0  0  0
 53 72  1  0  0  0  0
 54 70  1  0  0  0  0
 55 57  1  0  0  0  0
 55 64  1  0  0  0  0
 58 66  1  0  0  0  0
 59 67  1  0  0  0  0
 60 68  1  0  0  0  0
 61 68  1  0  0  0  0
 62 68  1  0  0  0  0
 63 79  1  0  0  0  0
 64 88  1  0  0  0  0
 65 68  1  0  0  0  0
 65 78  1  0  0  0  0
 66 79  1  0  0  0  0
 67 91  1  0  0  0  0
 69 70  1  0  0  0  0
M  CHG  1  79   1
M  ISO  4  40 100  64 101  76 100  88 101
M  END
> <Batch ID>
0069

> <Smiles>
CNC(C)C(=O)NC(C(=O)N1Cc2cc([101O:1][101CH2:1]C3(C)CC(=O)N(c4cc([100NH:0][100C:0](=O)N5CCCC(n6nc(-c7ccc(Oc8ccc(F)cc8F)cc7)c(C(N)=O)c6N)C5)cc(C(C)(F)C(C)=O)c4)C3)ccc2CC1C(=O)NC1CCCc2ccccc21)C(C)(C)C

> <Shape>
0.247

> <Color>
0.098

> <Negative vol penalty>
0.000

$$$$

  -OEChem-04042323303D

 80 88  0     1  0  0  0  0  0999 V2000
  -32.9602  -35.4015   17.5299 C   0  0  0  0  0  0  0  0  0  0  0  0
  -32.7278  -34.0301   17.5027 C   0  0  0  0  0  0  0  0  0  0  0  0
  -24.5691   -8.7611   21.2878 C   0  0  0  0  0  0  0  0  0  0  0  0
  -22.7315   -9.8749   20.1833 C   0  0  0  0  0  0  0  0  0  0  0  0
  -32.6015  -36.1460   18.6528 C   0  0  0  0  0  0  0  0  0  0  0  0
  -32.1375  -33.4023   18.5990 C   0  0  0  0  0  0  0  0  0  0  0  0
  -28.2774  -28.6492   18.4809 C   0  0  0  0  0  0  0  0  0  0  0  0
  -23.7555   -7.6530   21.5239 C   0  0  0  0  0  0  0  0  0  0  0  0
  -21.9179   -8.7668   20.4194 C   0  0  0  0  0  0  0  0  0  0  0  0
  -28.4674  -27.2815   18.6738 C   0  0  0  0  0  0  0  0  0  0  0  0
  -21.3242   -6.7665   23.6981 C   0  0  0  0  0  0  0  0  0  0  0  0
  -21.3612   -6.1956   24.9702 C   0  0  0  0  0  0  0  0  0  0  0  0
  -27.8128  -27.5224   20.9830 C   0  0  0  0  0  0  0  0  0  0  0  0
  -26.8293  -20.1261   19.4063 C   0  0  0  0  0  0  0  0  0  0  0  0
  -22.0948   -4.1035   24.0098 C   0  0  0  0  0  0  0  0  0  0  0  0
  -26.5009  -18.7208   17.5844 C   0  0  0  0  0  0  0  0  0  0  0  0
  -24.0571   -9.8721   20.6176 C   0  0  0  0  0  0  0  0  0  0  0  0
  -25.7126  -11.2496   19.2504 C   0  0  0  0  0  0  0  0  0  0  0  0
  -31.9976  -35.5286   19.7595 C   0  0  0  0  0  0  0  0  0  0  0  0
  -27.8635  -29.4669   19.5422 C   0  0  0  0  0  0  0  0  0  0  0  0
  -31.7715  -34.1390   19.7383 C   0  0  0  0  0  0  0  0  0  0  0  0
  -27.6158  -28.8997   20.8004 C   0  0  0  0  0  0  0  0  0  0  0  0
  -26.4569  -18.8262   18.9572 C   0  0  0  0  0  0  0  0  0  0  0  0
  -22.4300   -7.6558   21.0897 C   0  0  0  0  0  0  0  0  0  0  0  0
  -28.2379  -26.7184   19.9257 C   0  0  0  0  0  0  0  0  0  0  0  0
  -21.6724   -6.0060   22.5819 C   0  0  0  0  0  0  0  0  0  0  0  0
  -21.7466   -4.8641   25.1261 C   0  0  0  0  0  0  0  0  0  0  0  0
  -22.0577   -4.6745   22.7377 C   0  0  0  0  0  0  0  0  0  0  0  0
  -24.8968  -11.0174   20.3739 C   0  0  0  0  0  0  0  0  0  0  0  0
  -26.3000  -12.4662   19.4982 C   0  0  0  0  0  0  0  0  0  0  0  0
  -27.1440  -20.9647   18.3596 C   0  0  0  0  0  0  0  0  0  0  0  0
  -25.9208  -10.4383   18.0868 C   0  0  0  0  0  0  0  0  0  0  0  0
  -29.1174  -31.9482   21.0832 C   0  0  0  0  0  0  0  0  0  0  0  0
  -26.2232  -32.0042   22.5471 C   0  0  0  0  0  0  0  0  0  0  0  0
  -27.7552  -23.1517   19.4447 C   0  0  0  0  0  0  0  0  0  0  0  0
  -23.4122  -30.3057   23.4746 C   0  0  0  0  0  0  0  0  0  0  0  0
  -26.0069  -17.7612   21.1954 C   0  0  0  0  0  0  0  0  0  0  0  0
  -31.6705  -36.3671   20.9697 C   0  0  0  0  0  0  0  0  0  0  0  0
  -27.6373  -30.9359   19.3110 C   0  0  0  0  0  0  0  0  0  0  0  0
  -27.1508  -29.7307   21.9673 C   0  0  0  0  0  0  0  0  0  0  0  0
  -30.7075  -35.6872   21.9395 C   0  0  0  0  0  0  0  0  0  0  0  0
  -26.4131  -15.2727   23.7093 C   0  0  0  0  0  0  0  0  0  0  0  0
  -31.1353  -34.2453   22.1938 C   0  0  0  0  0  0  0  0  0  0  0  0
  -26.1219  -13.9629   22.9732 C   0  0  0  0  0  0  0  0  0  0  0  0
  -25.5159  -16.4089   23.2215 C   0  0  0  0  0  0  0  0  0  0  0  0
  -25.2302  -15.3146   21.0329 C   0  0  0  0  0  0  0  0  0  0  0  0
  -31.1106  -33.4258   20.8979 C   0  0  1  0  0  0  0  0  0  0  0  0
  -27.7097  -31.7605   20.5925 C   0  0  1  0  0  0  0  0  0  0  0  0
  -26.1538  -14.1564   21.4444 C   0  0  2  0  0  0  0  0  0  0  0  0
  -21.2393  -30.6090   24.6926 C   0  0  0  0  0  0  0  0  0  0  0  0
  -27.7090  -31.9299   25.2111 C   0  0  0  0  0  0  0  0  0  0  0  0
  -25.5567  -31.2819   26.3139 C   0  0  0  0  0  0  0  0  0  0  0  0
  -25.7485  -33.4815   25.1530 C   0  0  0  0  0  0  0  0  0  0  0  0
  -21.8333  -29.6316   21.0639 C   0  0  0  0  0  0  0  0  0  0  0  0
  -28.2022  -24.5302   18.9949 C   0  0  0  0  0  0  0  0  0  1  0  0
  -25.6364  -31.3612   23.7804 C   0  0  1  0  0  0  0  0  0  0  0  0
  -21.9391  -30.6479   23.3430 C   0  0  2  0  0  0  0  0  0  0  0  0
  -26.1733  -31.9980   25.0933 C   0  0  0  0  0  0  0  0  0  0  0  0
  -24.9579  -12.0069   21.2689 N   0  0  0  0  0  0  0  0  0  0  0  0
  -25.8193  -12.8727   20.7081 N   0  0  0  0  0  0  0  0  0  0  0  0
  -26.9501  -31.1632   21.6927 N   0  0  0  0  0  0  0  0  0  0  0  0
  -25.6007  -16.5359   21.7650 N   0  0  0  0  0  0  0  0  0  0  0  0
  -27.1757  -13.2172   18.7970 N   0  0  0  0  0  0  0  0  0  0  0  0
  -25.2386   -9.2176   17.9925 N   0  0  0  0  0  0  0  0  0  0  0  0
  -26.0818  -17.7530   19.8029 N   0  0  0  0  0  0  0  0  0  0  0  0
  -27.5592  -22.3175   18.3494 N   0  0  0  0  0  0  0  0  0  0  0  0
  -29.7528  -33.0575   20.5586 N   0  0  0  0  0  0  0  0  0  0  0  0
  -24.1872  -31.4356   23.6293 N   0  0  0  0  0  0  0  0  0  0  0  0
  -21.2617  -29.6804   22.4342 N   0  3  0  0  0  0  0  0  0  0  0  0
  -26.7017  -10.7778   17.1656 O   0  0  0  0  0  0  0  0  0  0  0  0
  -29.5914  -31.1469   21.8800 O   0  0  0  0  0  0  0  0  0  0  0  0
  -26.0373  -33.2069   22.3455 O   0  0  0  0  0  0  0  0  0  0  0  0
  -27.6070  -22.8798   20.6316 O   0  0  0  0  0  0  0  0  0  0  0  0
  -23.8329  -29.1513   23.4468 O   0  0  0  0  0  0  0  0  0  0  0  0
  -26.2953  -18.7371   21.8929 O   0  0  0  0  0  0  0  0  0  0  0  0
  -21.6359   -6.5746   21.3197 O   0  0  0  0  0  0  0  0  0  0  0  0
  -28.4232  -25.3839   20.1169 O   0  0  0  0  0  0  0  0  0  1  0  0
  -21.7836   -4.3163   26.3479 F   0  0  0  0  0  0  0  0  0  0  0  0
  -22.3945   -3.9392   21.6692 F   0  0  0  0  0  0  0  0  0  0  0  0
  -26.9897  -20.1849   16.8429 S   0  0  0  0  0  0  0  0  0  0  0  0
  1  2  1  0  0  0  0
  1  5  2  0  0  0  0
  2  6  2  0  0  0  0
  3  8  2  0  0  0  0
  3 17  1  0  0  0  0
  4  9  1  0  0  0  0
  4 17  2  0  0  0  0
  5 19  1  0  0  0  0
  6 21  1  0  0  0  0
  7 10  2  0  0  0  0
  7 20  1  0  0  0  0
  8 24  1  0  0  0  0
  9 24  2  0  0  0  0
 10 25  1  0  0  0  0
 11 12  2  0  0  0  0
 11 26  1  0  0  0  0
 12 27  1  0  0  0  0
 13 22  1  0  0  0  0
 13 25  2  0  0  0  0
 14 23  1  0  0  0  0
 14 31  2  0  0  0  0
 15 27  2  0  0  0  0
 15 28  1  0  0  0  0
 16 23  2  0  0  0  0
 16 80  1  0  0  0  0
 17 29  1  0  0  0  0
 18 29  1  0  0  0  0
 18 30  2  0  0  0  0
 18 32  1  0  0  0  0
 19 21  2  0  0  0  0
 19 38  1  0  0  0  0
 20 22  2  0  0  0  0
 20 39  1  0  0  0  0
 21 47  1  0  0  0  0
 22 40  1  0  0  0  0
 23 65  1  0  0  0  0
 24 76  1  0  0  0  0
 25 77  1  0  0  0  0
 26 28  2  0  0  0  0
 26 76  1  0  0  0  0
 27 78  1  0  0  0  0
 28 79  1  0  0  0  0
 29 59  2  0  0  0  0
 30 60  1  0  0  0  0
 30 63  1  0  0  0  0
 31 66  1  0  0  0  0
 31 80  1  0  0  0  0
 32 64  1  0  0  0  0
 32 70  2  0  0  0  0
 33 48  1  0  0  0  0
 33 67  1  0  0  0  0
 33 71  2  0  0  0  0
 34 56  1  0  0  0  0
 34 61  1  0  0  0  0
 34 72  2  0  0  0  0
 35 55  1  0  0  0  0
 35 66  1  0  0  0  0
 35 73  2  0  0  0  0
 36 57  1  0  0  0  0
 36 68  1  0  0  0  0
 36 74  2  0  0  0  0
 37 62  1  0  0  0  0
 37 65  1  0  0  0  0
 37 75  2  0  0  0  0
 38 41  1  0  0  0  0
 39 48  1  0  0  0  0
 40 61  1  0  0  0  0
 41 43  1  0  0  0  0
 42 44  1  0  0  0  0
 42 45  1  0  0  0  0
 43 47  1  0  0  0  0
 44 49  1  0  0  0  0
 45 62  1  0  0  0  0
 46 49  1  0  0  0  0
 46 62  1  0  0  0  0
 47 67  1  0  0  0  0
 48 61  1  0  0  0  0
 49 60  1  0  0  0  0
 50 57  1  0  0  0  0
 51 58  1  0  0  0  0
 52 58  1  0  0  0  0
 53 58  1  0  0  0  0
 54 69  1  0  0  0  0
 55 77  1  0  0  0  0
 56 58  1  0  0  0  0
 56 68  1  0  0  0  0
 57 69  1  0  0  0  0
 59 60  1  0  0  0  0
M  CHG  1  69   1
M  ISO  4  37 100  55 101  65 100  77 101
M  END
> <Batch ID>
0069

> <Smiles>
CNC(C)C(=O)NC(C(=O)N1Cc2cc([101O:1][101CH2:1]C(=O)Nc3cc([100NH:0][100C:0](=O)N4CCCC(n5nc(-c6ccc(Oc7ccc(F)cc7F)cc6)c(C(N)=O)c5N)C4)cs3)ccc2CC1C(=O)NC1CCCc2ccccc21)C(C)(C)C

> <Shape>
0.247

> <Color>
0.109

> <Negative vol penalty>
0.000

$$$$

  -OEChem-04042323303D

 82 90  0     1  0  0  0  0  0999 V2000
  -25.6989  -38.8059   20.9514 C   0  0  0  0  0  0  0  0  0  0  0  0
  -25.9555  -37.8203   20.0037 C   0  0  0  0  0  0  0  0  0  0  0  0
  -26.1886  -12.1057   21.5338 C   0  0  0  0  0  0  0  0  0  0  0  0
  -25.9509  -12.6254   19.1863 C   0  0  0  0  0  0  0  0  0  0  0  0
  -25.8412  -38.5202   22.3087 C   0  0  0  0  0  0  0  0  0  0  0  0
  -26.3556  -36.5486   20.4127 C   0  0  0  0  0  0  0  0  0  0  0  0
  -25.7988  -29.6534   18.5523 C   0  0  0  0  0  0  0  0  0  0  0  0
  -27.9825  -20.5887   15.0958 C   0  0  0  0  0  0  0  0  0  0  0  0
  -27.7673  -21.9431   15.3506 C   0  0  0  0  0  0  0  0  0  0  0  0
  -24.9629  -11.4402   21.5106 C   0  0  0  0  0  0  0  0  0  0  0  0
  -24.7252  -11.9599   19.1631 C   0  0  0  0  0  0  0  0  0  0  0  0
  -26.5956  -28.5344   18.3137 C   0  0  0  0  0  0  0  0  0  0  0  0
  -22.0671   -9.2941   21.9834 C   0  0  0  0  0  0  0  0  0  0  0  0
  -21.9907   -8.0535   22.6164 C   0  0  0  0  0  0  0  0  0  0  0  0
  -26.7314  -28.1323   20.6884 C   0  0  0  0  0  0  0  0  0  0  0  0
  -28.4698  -21.6239   17.6401 C   0  0  0  0  0  0  0  0  0  0  0  0
  -23.7003   -7.1953   21.1406 C   0  0  0  0  0  0  0  0  0  0  0  0
  -26.6825  -12.6983   20.3717 C   0  0  0  0  0  0  0  0  0  0  0  0
  -29.2197  -12.8363   20.1444 C   0  0  0  0  0  0  0  0  0  0  0  0
  -26.2338  -37.2416   22.7349 C   0  0  0  0  0  0  0  0  0  0  0  0
  -25.4708  -30.0271   19.8634 C   0  0  0  0  0  0  0  0  0  0  0  0
  -26.5045  -36.2460   21.7769 C   0  0  0  0  0  0  0  0  0  0  0  0
  -25.9282  -29.2549   20.9408 C   0  0  0  0  0  0  0  0  0  0  0  0
  -28.4414  -19.7519   16.1131 C   0  0  0  0  0  0  0  0  0  0  0  0
  -28.0110  -22.4607   16.6228 C   0  0  0  0  0  0  0  0  0  0  0  0
  -28.6850  -20.2695   17.3853 C   0  0  0  0  0  0  0  0  0  0  0  0
  -24.2313  -11.3673   20.3253 C   0  0  0  0  0  0  0  0  0  0  0  0
  -27.0644  -27.7754   19.3819 C   0  0  0  0  0  0  0  0  0  0  0  0
  -22.9601   -9.4853   20.9290 C   0  0  0  0  0  0  0  0  0  0  0  0
  -22.8073   -7.0041   22.1950 C   0  0  0  0  0  0  0  0  0  0  0  0
  -23.7767   -8.4359   20.5076 C   0  0  0  0  0  0  0  0  0  0  0  0
  -27.9483  -13.3864   20.3952 C   0  0  0  0  0  0  0  0  0  0  0  0
  -30.0855  -13.8926   20.2898 C   0  0  0  0  0  0  0  0  0  0  0  0
  -29.5853  -11.4909   19.8100 C   0  0  0  0  0  0  0  0  0  0  0  0
  -26.0166  -32.5849   21.6699 C   0  0  0  0  0  0  0  0  0  0  0  0
  -24.0551  -31.0522   23.7496 C   0  0  0  0  0  0  0  0  0  0  0  0
  -27.9829  -24.5122   18.0804 C   0  0  0  0  0  0  0  0  0  0  0  0
  -22.7130  -28.1070   24.8322 C   0  0  0  0  0  0  0  0  0  0  0  0
  -29.4368  -19.8076   19.7449 C   0  0  0  0  0  0  0  0  0  0  0  0
  -26.4198  -36.9938   24.2109 C   0  0  0  0  0  0  0  0  0  0  0  0
  -24.5882  -31.2213   20.1027 C   0  0  0  0  0  0  0  0  0  0  0  0
  -25.5876  -29.6021   22.3662 C   0  0  0  0  0  0  0  0  0  0  0  0
  -26.4852  -35.5131   24.5764 C   0  0  0  0  0  0  0  0  0  0  0  0
  -30.5674  -18.0457   22.6250 C   0  0  0  0  0  0  0  0  0  0  0  0
  -27.4210  -34.7701   23.6282 C   0  0  0  0  0  0  0  0  0  0  0  0
  -30.1451  -16.5998   22.3544 C   0  0  0  0  0  0  0  0  0  0  0  0
  -29.5337  -19.0446   22.1078 C   0  0  0  0  0  0  0  0  0  0  0  0
  -28.7351  -17.4292   20.4280 C   0  0  0  0  0  0  0  0  0  0  0  0
  -26.9164  -34.8474   22.1822 C   0  0  1  0  0  0  0  0  0  0  0  0
  -24.7420  -31.8070   21.5029 C   0  0  1  0  0  0  0  0  0  0  0  0
  -29.7755  -16.3885   20.8731 C   0  0  2  0  0  0  0  0  0  0  0  0
  -28.6631  -18.3053   15.8115 C   0  0  0  0  0  0  0  0  0  0  0  0
  -21.1718  -27.1675   26.5755 C   0  0  0  0  0  0  0  0  0  0  0  0
  -26.2462  -31.3622   25.8503 C   0  0  0  0  0  0  0  0  0  0  0  0
  -25.0802  -29.6226   27.2224 C   0  0  0  0  0  0  0  0  0  0  0  0
  -23.9274  -31.7706   26.6934 C   0  0  0  0  0  0  0  0  0  0  0  0
  -20.8423  -27.0708   22.7863 C   0  0  0  0  0  0  0  0  0  0  0  0
  -27.6304  -25.9802   17.9283 C   0  0  0  0  0  0  0  0  0  1  0  0
  -24.2499  -30.0541   24.8654 C   0  0  1  0  0  0  0  0  0  0  0  0
  -21.2846  -27.7111   25.1597 C   0  0  2  0  0  0  0  0  0  0  0  0
  -24.8841  -30.6967   26.1312 C   0  0  0  0  0  0  0  0  0  0  0  0
  -27.9976  -14.6907   20.6784 N   0  0  0  0  0  0  0  0  0  0  0  0
  -29.3104  -14.9691   20.6067 N   0  0  0  0  0  0  0  0  0  0  0  0
  -24.7269  -30.7824   22.5489 N   0  0  0  0  0  0  0  0  0  0  0  0
  -29.2362  -18.7861   20.6973 N   0  0  0  0  0  0  0  0  0  0  0  0
  -31.4267  -13.9962   20.1762 N   0  0  0  0  0  0  0  0  0  0  0  0
  -28.5706  -10.5303   19.7008 N   0  0  0  0  0  0  0  0  0  0  0  0
  -27.7924  -23.8348   16.8808 N   0  0  0  0  0  0  0  0  0  0  0  0
  -29.1512  -19.4355   18.4316 N   0  0  0  0  0  0  0  0  0  0  0  0
  -25.8257  -33.9186   21.9772 N   0  0  0  0  0  0  0  0  0  0  0  0
  -22.9468  -29.4401   25.0960 N   0  0  0  0  0  0  0  0  0  0  0  0
  -20.8080  -26.6624   24.2142 N   0  3  0  0  0  0  0  0  0  0  0  0
  -30.7781  -11.1470   19.6299 O   0  0  0  0  0  0  0  0  0  0  0  0
  -27.0936  -32.0168   21.5318 O   0  0  0  0  0  0  0  0  0  0  0  0
  -23.3276  -32.0312   23.9342 O   0  0  0  0  0  0  0  0  0  0  0  0
  -28.3764  -24.0531   19.1476 O   0  0  0  0  0  0  0  0  0  0  0  0
  -23.5398  -27.3123   24.3902 O   0  0  0  0  0  0  0  0  0  0  0  0
  -29.8587  -20.9213   20.0668 O   0  0  0  0  0  0  0  0  0  0  0  0
  -23.0353  -10.7178   20.3022 O   0  0  0  0  0  0  0  0  0  0  0  0
  -27.8428  -26.6831   19.1519 O   0  0  0  0  0  0  0  0  0  1  0  0
  -22.7349   -5.8133   22.8039 F   0  0  0  0  0  0  0  0  0  0  0  0
  -24.6373   -8.6140   19.4960 F   0  0  0  0  0  0  0  0  0  0  0  0
  1  2  1  0  0  0  0
  1  5  2  0  0  0  0
  2  6  2  0  0  0  0
  3 10  2  0  0  0  0
  3 18  1  0  0  0  0
  4 11  1  0  0  0  0
  4 18  2  0  0  0  0
  5 20  1  0  0  0  0
  6 22  1  0  0  0  0
  7 12  2  0  0  0  0
  7 21  1  0  0  0  0
  8  9  2  0  0  0  0
  8 24  1  0  0  0  0
  9 25  1  0  0  0  0
 10 27  1  0  0  0  0
 11 27  2  0  0  0  0
 12 28  1  0  0  0  0
 13 14  2  0  0  0  0
 13 29  1  0  0  0  0
 14 30  1  0  0  0  0
 15 23  1  0  0  0  0
 15 28  2  0  0  0  0
 16 25  2  0  0  0  0
 16 26  1  0  0  0  0
 17 30  2  0  0  0  0
 17 31  1  0  0  0  0
 18 32  1  0  0  0  0
 19 32  1  0  0  0  0
 19 33  2  0  0  0  0
 19 34  1  0  0  0  0
 20 22  2  0  0  0  0
 20 40  1  0  0  0  0
 21 23  2  0  0  0  0
 21 41  1  0  0  0  0
 22 49  1  0  0  0  0
 23 42  1  0  0  0  0
 24 26  2  0  0  0  0
 24 52  1  0  0  0  0
 25 68  1  0  0  0  0
 26 69  1  0  0  0  0
 27 79  1  0  0  0  0
 28 80  1  0  0  0  0
 29 31  2  0  0  0  0
 29 79  1  0  0  0  0
 30 81  1  0  0  0  0
 31 82  1  0  0  0  0
 32 62  2  0  0  0  0
 33 63  1  0  0  0  0
 33 66  1  0  0  0  0
 34 67  1  0  0  0  0
 34 73  2  0  0  0  0
 35 50  1  0  0  0  0
 35 70  1  0  0  0  0
 35 74  2  0  0  0  0
 36 59  1  0  0  0  0
 36 64  1  0  0  0  0
 36 75  2  0  0  0  0
 37 58  1  0  0  0  0
 37 68  1  0  0  0  0
 37 76  2  0  0  0  0
 38 60  1  0  0  0  0
 38 71  1  0  0  0  0
 38 77  2  0  0  0  0
 39 65  1  0  0  0  0
 39 69  1  0  0  0  0
 39 78  2  0  0  0  0
 40 43  1  0  0  0  0
 41 50  1  0  0  0  0
 42 64  1  0  0  0  0
 43 45  1  0  0  0  0
 44 46  1  0  0  0  0
 44 47  1  0  0  0  0
 45 49  1  0  0  0  0
 46 51  1  0  0  0  0
 47 65  1  0  0  0  0
 48 51  1  0  0  0  0
 48 65  1  0  0  0  0
 49 70  1  0  0  0  0
 50 64  1  0  0  0  0
 51 63  1  0  0  0  0
 53 60  1  0  0  0  0
 54 61  1  0  0  0  0
 55 61  1  0  0  0  0
 56 61  1  0  0  0  0
 57 72  1  0  0  0  0
 58 80  1  0  0  0  0
 59 61  1  0  0  0  0
 59 71  1  0  0  0  0
 60 72  1  0  0  0  0
 62 63  1  0  0  0  0
M  CHG  1  72   1
M  ISO  4  39 100  58 101  69 100  80 101
M  END
> <Batch ID>
0069

> <Smiles>
CNC(C)C(=O)NC(C(=O)N1Cc2cc([101O:1][101CH2:1]C(=O)Nc3ccc(C)c([100NH:0][100C:0](=O)N4CCCC(n5nc(-c6ccc(Oc7ccc(F)cc7F)cc6)c(C(N)=O)c5N)C4)c3)ccc2CC1C(=O)NC1CCCc2ccccc21)C(C)(C)C

> <Shape>
0.306

> <Color>
0.096

> <Negative vol penalty>
0.000

$$$$

  -OEChem-04042323303D

 90 98  0     1  0  0  0  0  0999 V2000
  -27.4517  -33.6430   27.0102 C   0  0  0  0  0  0  0  0  0  0  0  0
  -27.8915  -32.6601   26.1293 C   0  0  0  0  0  0  0  0  0  0  0  0
  -23.1875   -6.7629   23.2984 C   0  0  0  0  0  0  0  0  0  0  0  0
  -20.9646   -7.4439   22.6408 C   0  0  0  0  0  0  0  0  0  0  0  0
  -27.0994  -18.5450   20.7319 C   0  0  0  0  0  0  0  0  0  0  0  0
  -26.1135  -33.6800   27.3999 C   0  0  0  0  0  0  0  0  0  0  0  0
  -26.9935  -31.7130   25.6385 C   0  0  0  0  0  0  0  0  0  0  0  0
  -27.0102  -29.1628   20.0705 C   0  0  0  0  0  0  0  0  0  0  0  0
  -26.5498  -19.8180   20.5806 C   0  0  0  0  0  0  0  0  0  0  0  0
  -22.6411   -5.8573   24.2077 C   0  0  0  0  0  0  0  0  0  0  0  0
  -20.4182   -6.5382   23.5502 C   0  0  0  0  0  0  0  0  0  0  0  0
  -27.4893  -27.9411   19.5998 C   0  0  0  0  0  0  0  0  0  0  0  0
  -21.8290   -3.1089   26.4442 C   0  0  0  0  0  0  0  0  0  0  0  0
  -22.3732   -1.8253   26.4877 C   0  0  0  0  0  0  0  0  0  0  0  0
  -25.2822  -26.9946   19.8274 C   0  0  0  0  0  0  0  0  0  0  0  0
  -28.6796  -20.6441   19.7941 C   0  0  0  0  0  0  0  0  0  0  0  0
  -21.7838   -1.4968   24.1678 C   0  0  0  0  0  0  0  0  0  0  0  0
  -22.3493   -7.5562   22.5149 C   0  0  0  0  0  0  0  0  0  0  0  0
  -28.4392  -18.3215   20.4144 C   0  0  0  0  0  0  0  0  0  0  0  0
  -23.2382   -8.2521   20.2273 C   0  0  0  0  0  0  0  0  0  0  0  0
  -25.1967  -32.7387   26.9060 C   0  0  0  0  0  0  0  0  0  0  0  0
  -25.6635  -29.3068   20.4341 C   0  0  0  0  0  0  0  0  0  0  0  0
  -25.6421  -31.7366   26.0230 C   0  0  0  0  0  0  0  0  0  0  0  0
  -24.7878  -28.2199   20.3000 C   0  0  0  0  0  0  0  0  0  0  0  0
  -29.2293  -19.3711   19.9455 C   0  0  0  0  0  0  0  0  0  0  0  0
  -27.3398  -20.8675   20.1117 C   0  0  0  0  0  0  0  0  0  0  0  0
  -21.2565   -5.7450   24.3336 C   0  0  0  0  0  0  0  0  0  0  0  0
  -26.6259  -26.8559   19.4809 C   0  0  0  0  0  0  0  0  0  0  0  0
  -21.2621   -3.5864   25.2625 C   0  0  0  0  0  0  0  0  0  0  0  0
  -22.3507   -1.0193   25.3495 C   0  0  0  0  0  0  0  0  0  0  0  0
  -21.2396   -2.7804   24.1243 C   0  0  0  0  0  0  0  0  0  0  0  0
  -22.9131   -8.4923   21.5758 C   0  0  0  0  0  0  0  0  0  0  0  0
  -23.7376   -9.4493   19.7760 C   0  0  0  0  0  0  0  0  0  0  0  0
  -29.0022  -16.9467   20.5870 C   0  0  0  0  0  0  0  0  0  0  0  0
  -23.1010   -7.0539   19.4520 C   0  0  0  0  0  0  0  0  0  0  0  0
  -24.1303  -30.0065   23.1292 C   0  0  0  0  0  0  0  0  0  0  0  0
  -21.5302  -30.0156   21.1896 C   0  0  0  0  0  0  0  0  0  0  0  0
  -28.7241  -16.3847   17.4143 C   0  0  0  0  0  0  0  0  0  0  0  0
  -27.4187  -23.3093   19.5071 C   0  0  0  0  0  0  0  0  0  0  0  0
  -20.0709  -28.9477   18.2954 C   0  0  0  0  0  0  0  0  0  0  0  0
  -27.0265  -13.7813   20.4387 C   0  0  0  0  0  0  0  0  0  0  0  0
  -23.7701  -32.7901   27.3929 C   0  0  0  0  0  0  0  0  0  0  0  0
  -25.1564  -30.6388   20.9148 C   0  0  0  0  0  0  0  0  0  0  0  0
  -23.3288  -28.3282   20.6579 C   0  0  0  0  0  0  0  0  0  0  0  0
  -22.8040  -31.9773   26.5348 C   0  0  0  0  0  0  0  0  0  0  0  0
  -23.7252  -14.0370   21.9067 C   0  0  0  0  0  0  0  0  0  0  0  0
  -23.3835  -30.5975   26.2396 C   0  0  0  0  0  0  0  0  0  0  0  0
  -23.2484  -12.5850   21.8385 C   0  0  0  0  0  0  0  0  0  0  0  0
  -25.2150  -14.1144   22.2252 C   0  0  0  0  0  0  0  0  0  0  0  0
  -25.6119  -11.9008   21.2159 C   0  0  0  0  0  0  0  0  0  0  0  0
  -24.6931  -30.7067   25.4495 C   0  0  1  0  0  0  0  0  0  0  0  0
  -23.8797  -30.5287   21.7427 C   0  0  1  0  0  0  0  0  0  0  0  0
  -24.1176  -11.7542   20.8759 C   0  0  1  0  0  0  0  0  0  0  0  0
  -30.6671  -19.1593   19.5994 C   0  0  0  0  0  0  0  0  0  0  0  0
  -27.9957  -16.9563   16.2285 C   0  0  0  0  0  0  0  0  0  0  0  0
  -17.9249  -29.0893   17.0024 C   0  0  0  0  0  0  0  0  0  0  0  0
  -20.2409  -28.0325   23.1171 C   0  0  0  0  0  0  0  0  0  0  0  0
  -18.5654  -27.4970   21.3355 C   0  0  0  0  0  0  0  0  0  0  0  0
  -18.7012  -29.8086   22.2632 C   0  0  0  0  0  0  0  0  0  0  0  0
  -30.6032  -15.5199   21.6188 C   0  0  0  0  0  0  0  0  0  0  0  0
  -21.4096  -30.2325   15.9897 C   0  0  0  0  0  0  0  0  0  0  0  0
  -26.4579  -24.4837   19.4934 C   0  0  0  0  0  0  0  0  0  1  0  0
  -28.3896  -15.7757   19.8016 C   0  0  2  0  0  0  0  0  0  0  0  0
  -20.5338  -28.9777   20.7324 C   0  0  1  0  0  0  0  0  0  0  0  0
  -19.3032  -29.6941   17.2193 C   0  0  2  0  0  0  0  0  0  0  0  0
  -19.5382  -28.5761   21.8571 C   0  0  0  0  0  0  0  0  0  0  0  0
  -23.1834   -9.7438   21.9563 N   0  0  0  0  0  0  0  0  0  0  0  0
  -29.9944  -16.8212   21.4051 N   0  0  0  0  0  0  0  0  0  0  0  0
  -23.6837  -10.3006   20.8402 N   0  0  0  0  0  0  0  0  0  0  0  0
  -22.8823  -29.6496   21.1291 N   0  0  0  0  0  0  0  0  0  0  0  0
  -25.9873  -13.3174   21.2617 N   0  0  0  0  0  0  0  0  0  0  0  0
  -24.2132   -9.8464   18.5766 N   0  0  0  0  0  0  0  0  0  0  0  0
  -22.5695   -5.9145   20.0713 N   0  0  0  0  0  0  0  0  0  0  0  0
  -26.7891  -22.1406   19.9607 N   0  0  0  0  0  0  0  0  0  0  0  0
  -24.4209  -30.9890   24.0564 N   0  0  0  0  0  0  0  0  0  0  0  0
  -27.9112  -16.2948   18.5328 N   0  0  0  0  0  0  0  0  0  0  0  0
  -19.8977  -29.5212   19.5373 N   0  0  0  0  0  0  0  0  0  0  0  0
  -27.3384  -15.1289   20.5713 N   0  0  0  0  0  0  0  0  0  0  0  0
  -20.0451  -29.6485   15.9276 N   0  3  0  0  0  0  0  0  0  0  0  0
  -23.4549   -6.9907   18.2502 O   0  0  0  0  0  0  0  0  0  0  0  0
  -24.0634  -28.8016   23.3423 O   0  0  0  0  0  0  0  0  0  0  0  0
  -21.1242  -31.1134   21.5792 O   0  0  0  0  0  0  0  0  0  0  0  0
  -29.9044  -16.0505   17.3564 O   0  0  0  0  0  0  0  0  0  0  0  0
  -28.5872  -23.4310   19.1542 O   0  0  0  0  0  0  0  0  0  0  0  0
  -20.7529  -27.9530   18.0585 O   0  0  0  0  0  0  0  0  0  0  0  0
  -27.6327  -13.0492   19.6496 O   0  0  0  0  0  0  0  0  0  0  0  0
  -20.7229   -4.8612   25.2207 O   0  0  0  0  0  0  0  0  0  0  0  0
  -27.0960  -25.6497   19.0176 O   0  0  0  0  0  0  0  0  0  1  0  0
  -22.8747    0.2127   25.3910 F   0  0  0  0  0  0  0  0  0  0  0  0
  -20.6974   -3.2341   22.9859 F   0  0  0  0  0  0  0  0  0  0  0  0
  1  2  1  0  0  0  0
  1  6  2  0  0  0  0
  2  7  2  0  0  0  0
  3 10  2  0  0  0  0
  3 18  1  0  0  0  0
  4 11  1  0  0  0  0
  4 18  2  0  0  0  0
  5  9  2  0  0  0  0
  5 19  1  0  0  0  0
  6 21  1  0  0  0  0
  7 23  1  0  0  0  0
  8 12  2  0  0  0  0
  8 22  1  0  0  0  0
  9 26  1  0  0  0  0
 10 27  1  0  0  0  0
 11 27  2  0  0  0  0
 12 28  1  0  0  0  0
 13 14  2  0  0  0  0
 13 29  1  0  0  0  0
 14 30  1  0  0  0  0
 15 24  1  0  0  0  0
 15 28  2  0  0  0  0
 16 25  1  0  0  0  0
 16 26  2  0  0  0  0
 17 30  2  0  0  0  0
 17 31  1  0  0  0  0
 18 32  1  0  0  0  0
 19 25  2  0  0  0  0
 19 34  1  0  0  0  0
 20 32  1  0  0  0  0
 20 33  2  0  0  0  0
 20 35  1  0  0  0  0
 21 23  2  0  0  0  0
 21 42  1  0  0  0  0
 22 24  2  0  0  0  0
 22 43  1  0  0  0  0
 23 51  1  0  0  0  0
 24 44  1  0  0  0  0
 25 54  1  0  0  0  0
 26 74  1  0  0  0  0
 27 87  1  0  0  0  0
 28 88  1  0  0  0  0
 29 31  2  0  0  0  0
 29 87  1  0  0  0  0
 30 89  1  0  0  0  0
 31 90  1  0  0  0  0
 32 67  2  0  0  0  0
 33 69  1  0  0  0  0
 33 72  1  0  0  0  0
 34 63  1  0  0  0  0
 34 68  2  0  0  0  0
 35 73  1  0  0  0  0
 35 80  2  0  0  0  0
 36 52  1  0  0  0  0
 36 75  1  0  0  0  0
 36 81  2  0  0  0  0
 37 64  1  0  0  0  0
 37 70  1  0  0  0  0
 37 82  2  0  0  0  0
 38 55  1  0  0  0  0
 38 76  1  0  0  0  0
 38 83  2  0  0  0  0
 39 62  1  0  0  0  0
 39 74  1  0  0  0  0
 39 84  2  0  0  0  0
 40 65  1  0  0  0  0
 40 77  1  0  0  0  0
 40 85  2  0  0  0  0
 41 71  1  0  0  0  0
 41 78  1  0  0  0  0
 41 86  2  0  0  0  0
 42 45  1  0  0  0  0
 43 52  1  0  0  0  0
 44 70  1  0  0  0  0
 45 47  1  0  0  0  0
 46 48  1  0  0  0  0
 46 49  1  0  0  0  0
 47 51  1  0  0  0  0
 48 53  1  0  0  0  0
 49 71  1  0  0  0  0
 50 53  1  0  0  0  0
 50 71  1  0  0  0  0
 51 75  1  0  0  0  0
 52 70  1  0  0  0  0
 53 69  1  0  0  0  0
 56 65  1  0  0  0  0
 57 66  1  0  0  0  0
 58 66  1  0  0  0  0
 59 66  1  0  0  0  0
 60 68  1  0  0  0  0
 61 79  1  0  0  0  0
 62 88  1  0  0  0  0
 63 76  1  0  0  0  0
 63 78  1  0  0  0  0
 64 66  1  0  0  0  0
 64 77  1  0  0  0  0
 65 79  1  0  0  0  0
 67 69  1  0  0  0  0
M  CHG  1  79   1
M  ISO  4  41 100  62 101  78 100  88 101
M  END
> <Batch ID>
0069

> <Smiles>
CN=C(c1ccc(NC(=O)[101CH2:1][101O:1]c2ccc3c(c2)CN(C(=O)C(NC(=O)C(C)NC)C(C)(C)C)C(C(=O)NC2CCCc4ccccc42)C3)cc1C)C(NC(C)=O)[100NH:0][100C:0](=O)N1CCCC(n2nc(-c3ccc(Oc4ccc(F)cc4F)cc3)c(C(N)=O)c2N)C1

> <Shape>
0.324

> <Color>
0.075

> <Negative vol penalty>
0.000

$$$$

  -OEChem-04042323303D

 90 99  0     1  0  0  0  0  0999 V2000
  -23.9109  -37.9550   18.3899 C   0  0  0  0  0  0  0  0  0  0  0  0
  -24.2673  -36.7709   17.7526 C   0  0  0  0  0  0  0  0  0  0  0  0
  -23.0944   -9.6567   19.9189 C   0  0  0  0  0  0  0  0  0  0  0  0
  -24.1965   -9.6064   22.0682 C   0  0  0  0  0  0  0  0  0  0  0  0
  -24.2556  -38.1574   19.7257 C   0  0  0  0  0  0  0  0  0  0  0  0
  -24.9695  -35.7888   18.4503 C   0  0  0  0  0  0  0  0  0  0  0  0
  -25.6908  -28.6738   18.8671 C   0  0  0  0  0  0  0  0  0  0  0  0
  -22.8360   -8.2897   20.0193 C   0  0  0  0  0  0  0  0  0  0  0  0
  -23.9381   -8.2393   22.1687 C   0  0  0  0  0  0  0  0  0  0  0  0
  -26.6763  -27.6880   18.8439 C   0  0  0  0  0  0  0  0  0  0  0  0
  -21.3224   -6.2522   22.9624 C   0  0  0  0  0  0  0  0  0  0  0  0
  -20.8397   -5.7732   24.1803 C   0  0  0  0  0  0  0  0  0  0  0  0
  -26.9671  -21.3580   22.5543 C   0  0  0  0  0  0  0  0  0  0  0  0
  -26.7963  -19.0194   23.1359 C   0  0  0  0  0  0  0  0  0  0  0  0
  -27.1487  -28.1141   21.1709 C   0  0  0  0  0  0  0  0  0  0  0  0
  -28.0598  -19.6908   21.1891 C   0  0  0  0  0  0  0  0  0  0  0  0
  -22.7673   -4.3299   24.3765 C   0  0  0  0  0  0  0  0  0  0  0  0
  -23.7747  -10.3150   20.9433 C   0  0  0  0  0  0  0  0  0  0  0  0
  -26.4890  -20.3547   23.3970 C   0  0  0  0  0  0  0  0  0  0  0  0
  -23.2236  -12.7823   21.2846 C   0  0  0  0  0  0  0  0  0  0  0  0
  -24.9539  -37.1732   20.4430 C   0  0  0  0  0  0  0  0  0  0  0  0
  -25.4338  -29.3960   20.0414 C   0  0  0  0  0  0  0  0  0  0  0  0
  -25.3249  -35.9787   19.7965 C   0  0  0  0  0  0  0  0  0  0  0  0
  -26.1576  -29.1068   21.2070 C   0  0  0  0  0  0  0  0  0  0  0  0
  -27.7525  -21.0261   21.4503 C   0  0  0  0  0  0  0  0  0  0  0  0
  -27.5817  -18.6874   22.0319 C   0  0  0  0  0  0  0  0  0  0  0  0
  -23.2578   -7.5810   21.1442 C   0  0  0  0  0  0  0  0  0  0  0  0
  -27.4075  -27.4099   19.9951 C   0  0  0  0  0  0  0  0  0  0  0  0
  -22.5274   -5.7700   22.4515 C   0  0  0  0  0  0  0  0  0  0  0  0
  -21.5622   -4.8121   24.8873 C   0  0  0  0  0  0  0  0  0  0  0  0
  -23.2499   -4.8088   23.1586 C   0  0  0  0  0  0  0  0  0  0  0  0
  -24.0424  -11.7270   20.8399 C   0  0  0  0  0  0  0  0  0  0  0  0
  -23.9199  -13.9195   20.9552 C   0  0  0  0  0  0  0  0  0  0  0  0
  -28.0189  -23.4390   20.7183 C   0  0  0  0  0  0  0  0  0  0  0  0
  -25.6704  -20.7008   24.5481 C   0  0  0  0  0  0  0  0  0  0  0  0
  -21.9478  -12.7386   21.9373 C   0  0  0  0  0  0  0  0  0  0  0  0
  -25.6158  -32.4573   20.8773 C   0  0  0  0  0  0  0  0  0  0  0  0
  -25.0841  -22.2098   26.2391 C   0  0  0  0  0  0  0  0  0  0  0  0
  -24.2590  -31.3855   23.6218 C   0  0  0  0  0  0  0  0  0  0  0  0
  -23.6963  -28.7769   25.7491 C   0  0  0  0  0  0  0  0  0  0  0  0
  -28.6603  -16.8304   20.7150 C   0  0  0  0  0  0  0  0  0  0  0  0
  -25.3457  -37.4569   21.8715 C   0  0  0  0  0  0  0  0  0  0  0  0
  -24.3490  -30.4378   20.0571 C   0  0  0  0  0  0  0  0  0  0  0  0
  -25.9065  -29.8395   22.4987 C   0  0  0  0  0  0  0  0  0  0  0  0
  -25.7625  -36.2104   22.6478 C   0  0  0  0  0  0  0  0  0  0  0  0
  -28.0238  -14.5460   18.0591 C   0  0  0  0  0  0  0  0  0  0  0  0
  -26.7271  -35.3650   21.8221 C   0  0  0  0  0  0  0  0  0  0  0  0
  -26.8639  -13.6958   18.5824 C   0  0  0  0  0  0  0  0  0  0  0  0
  -29.0509  -23.0209   18.6148 C   0  0  0  0  0  0  0  0  0  0  0  0
  -29.0044  -14.9137   19.1713 C   0  0  0  0  0  0  0  0  0  0  0  0
  -29.1079  -21.7642   19.4601 C   0  0  0  0  0  0  0  0  0  0  0  0
  -27.2376  -14.6936   20.8741 C   0  0  0  0  0  0  0  0  0  0  0  0
  -26.0652  -34.8793   20.5269 C   0  0  1  0  0  0  0  0  0  0  0  0
  -28.8504  -24.1229   19.6450 C   0  0  1  0  0  0  0  0  0  0  0  0
  -24.5247  -31.4666   21.1698 C   0  0  1  0  0  0  0  0  0  0  0  0
  -26.1892  -14.3528   19.8025 C   0  0  2  0  0  0  0  0  0  0  0  0
  -24.6169  -19.7022   25.0414 C   0  0  0  0  0  0  0  0  0  0  0  0
  -24.2818  -23.4640   26.0195 C   0  0  0  0  0  0  0  0  0  0  0  0
  -22.5859  -28.2167   27.9287 C   0  0  0  0  0  0  0  0  0  0  0  0
  -26.5474  -32.7270   25.1297 C   0  0  0  0  0  0  0  0  0  0  0  0
  -25.9312  -31.3638   27.1372 C   0  0  0  0  0  0  0  0  0  0  0  0
  -24.2991  -32.9961   26.1914 C   0  0  0  0  0  0  0  0  0  0  0  0
  -21.8791  -26.8313   24.4563 C   0  0  0  0  0  0  0  0  0  0  0  0
  -28.1817  -25.3589   19.0733 C   0  0  0  0  0  0  0  0  0  1  0  0
  -24.7799  -30.8550   24.9357 C   0  0  1  0  0  0  0  0  0  0  0  0
  -22.4280  -28.2776   26.4174 C   0  0  2  0  0  0  0  0  0  0  0  0
  -25.3957  -31.9728   25.8238 C   0  0  0  0  0  0  0  0  0  0  0  0
  -25.1723  -12.1556   20.2711 N   0  0  0  0  0  0  0  0  0  0  0  0
  -25.8451  -21.8599   25.1497 N   0  0  0  0  0  0  0  0  0  0  0  0
  -25.0685  -13.4928   20.3561 N   0  0  0  0  0  0  0  0  0  0  0  0
  -28.2418  -22.0527   20.5880 N   0  0  0  0  0  0  0  0  0  0  0  0
  -24.8398  -30.8536   22.4618 N   0  0  0  0  0  0  0  0  0  0  0  0
  -28.2947  -15.5351   20.2917 N   0  0  0  0  0  0  0  0  0  0  0  0
  -23.6556  -15.2327   21.1223 N   0  0  0  0  0  0  0  0  0  0  0  0
  -21.3747  -11.4870   22.2010 N   0  0  0  0  0  0  0  0  0  0  0  0
  -27.8940  -17.3309   21.7670 N   0  0  0  0  0  0  0  0  0  0  0  0
  -25.1806  -33.7664   20.7979 N   0  0  0  0  0  0  0  0  0  0  0  0
  -23.6691  -30.1420   25.5572 N   0  0  0  0  0  0  0  0  0  0  0  0
  -22.0858  -26.9132   25.9252 N   0  3  0  0  0  0  0  0  0  0  0  0
  -27.3572  -24.0513   21.5439 O   0  0  0  0  0  0  0  0  0  0  0  0
  -21.3265  -13.7789   22.2619 O   0  0  0  0  0  0  0  0  0  0  0  0
  -26.7676  -32.0634   20.7356 O   0  0  0  0  0  0  0  0  0  0  0  0
  -25.0736  -21.6235   27.3188 O   0  0  0  0  0  0  0  0  0  0  0  0
  -23.3647  -32.2351   23.6245 O   0  0  0  0  0  0  0  0  0  0  0  0
  -24.6204  -28.0310   25.4327 O   0  0  0  0  0  0  0  0  0  0  0  0
  -29.5673  -17.4609   20.1655 O   0  0  0  0  0  0  0  0  0  0  0  0
  -23.0057   -6.2471   21.2427 O   0  0  0  0  0  0  0  0  0  0  0  0
  -28.3705  -26.4486   19.9751 O   0  0  0  0  0  0  0  0  0  1  0  0
  -21.0993   -4.3533   26.0576 F   0  0  0  0  0  0  0  0  0  0  0  0
  -24.4088   -4.3427   22.6734 F   0  0  0  0  0  0  0  0  0  0  0  0
  1  2  1  0  0  0  0
  1  5  2  0  0  0  0
  2  6  2  0  0  0  0
  3  8  2  0  0  0  0
  3 18  1  0  0  0  0
  4  9  1  0  0  0  0
  4 18  2  0  0  0  0
  5 21  1  0  0  0  0
  6 23  1  0  0  0  0
  7 10  2  0  0  0  0
  7 22  1  0  0  0  0
  8 27  1  0  0  0  0
  9 27  2  0  0  0  0
 10 28  1  0  0  0  0
 11 12  2  0  0  0  0
 11 29  1  0  0  0  0
 12 30  1  0  0  0  0
 13 19  2  0  0  0  0
 13 25  1  0  0  0  0
 14 19  1  0  0  0  0
 14 26  2  0  0  0  0
 15 24  1  0  0  0  0
 15 28  2  0  0  0  0
 16 25  2  0  0  0  0
 16 26  1  0  0  0  0
 17 30  2  0  0  0  0
 17 31  1  0  0  0  0
 18 32  1  0  0  0  0
 19 35  1  0  0  0  0
 20 32  1  0  0  0  0
 20 33  2  0  0  0  0
 20 36  1  0  0  0  0
 21 23  2  0  0  0  0
 21 42  1  0  0  0  0
 22 24  2  0  0  0  0
 22 43  1  0  0  0  0
 23 53  1  0  0  0  0
 24 44  1  0  0  0  0
 25 71  1  0  0  0  0
 26 76  1  0  0  0  0
 27 87  1  0  0  0  0
 28 88  1  0  0  0  0
 29 31  2  0  0  0  0
 29 87  1  0  0  0  0
 30 89  1  0  0  0  0
 31 90  1  0  0  0  0
 32 68  2  0  0  0  0
 33 70  1  0  0  0  0
 33 74  1  0  0  0  0
 34 54  1  0  0  0  0
 34 71  1  0  0  0  0
 34 80  2  0  0  0  0
 35 57  1  0  0  0  0
 35 69  2  0  0  0  0
 36 75  1  0  0  0  0
 36 81  2  0  0  0  0
 37 55  1  0  0  0  0
 37 77  1  0  0  0  0
 37 82  2  0  0  0  0
 38 58  1  0  0  0  0
 38 69  1  0  0  0  0
 38 83  2  0  0  0  0
 39 65  1  0  0  0  0
 39 72  1  0  0  0  0
 39 84  2  0  0  0  0
 40 66  1  0  0  0  0
 40 78  1  0  0  0  0
 40 85  2  0  0  0  0
 41 73  1  0  0  0  0
 41 76  1  0  0  0  0
 41 86  2  0  0  0  0
 42 45  1  0  0  0  0
 43 55  1  0  0  0  0
 44 72  1  0  0  0  0
 45 47  1  0  0  0  0
 46 48  1  0  0  0  0
 46 50  1  0  0  0  0
 47 53  1  0  0  0  0
 48 56  1  0  0  0  0
 49 51  1  0  0  0  0
 49 54  1  0  0  0  0
 50 73  1  0  0  0  0
 51 71  1  0  0  0  0
 52 56  1  0  0  0  0
 52 73  1  0  0  0  0
 53 77  1  0  0  0  0
 54 64  1  0  0  0  0
 55 72  1  0  0  0  0
 56 70  1  0  0  0  0
 59 66  1  0  0  0  0
 60 67  1  0  0  0  0
 61 67  1  0  0  0  0
 62 67  1  0  0  0  0
 63 79  1  0  0  0  0
 64 88  1  0  0  0  0
 65 67  1  0  0  0  0
 65 78  1  0  0  0  0
 66 79  1  0  0  0  0
 68 70  1  0  0  0  0
M  CHG  1  79   1
M  ISO  4  41 100  64 101  76 100  88 101
M  END
> <Batch ID>
0069

> <Smiles>
C=C(NC(C)=O)c1cc([100NH:0][100C:0](=O)N2CCCC(n3nc(-c4ccc(Oc5ccc(F)cc5F)cc4)c(C(N)=O)c3N)C2)cc(N2CCC([101CH2:1][101O:1]c3ccc4c(c3)CN(C(=O)C(NC(=O)C(C)NC)C(C)(C)C)C(C(=O)NC3CCCc5ccccc53)C4)C2=O)c1

> <Shape>
0.298

> <Color>
0.132

> <Negative vol penalty>
0.000

$$$$

  -OEChem-04042323303D

 91100  0     1  0  0  0  0  0999 V2000
  -25.0196  -38.8198   21.5494 C   0  0  0  0  0  0  0  0  0  0  0  0
  -25.8333  -37.9383   20.8450 C   0  0  0  0  0  0  0  0  0  0  0  0
  -24.1915   -9.1014   21.6446 C   0  0  0  0  0  0  0  0  0  0  0  0
  -24.6476  -10.5704   23.5077 C   0  0  0  0  0  0  0  0  0  0  0  0
  -24.3784  -38.3966   22.7128 C   0  0  0  0  0  0  0  0  0  0  0  0
  -26.0072  -36.6332   21.3043 C   0  0  0  0  0  0  0  0  0  0  0  0
  -27.0501  -29.9636   18.9073 C   0  0  0  0  0  0  0  0  0  0  0  0
  -30.2130  -20.1481   19.6996 C   0  0  0  0  0  0  0  0  0  0  0  0
  -30.0373  -18.7853   19.4600 C   0  0  0  0  0  0  0  0  0  0  0  0
  -23.8584   -8.0786   22.5325 C   0  0  0  0  0  0  0  0  0  0  0  0
  -24.3145   -9.5475   24.3957 C   0  0  0  0  0  0  0  0  0  0  0  0
  -27.9090  -28.8791   19.0800 C   0  0  0  0  0  0  0  0  0  0  0  0
  -21.2124   -7.2067   24.4486 C   0  0  0  0  0  0  0  0  0  0  0  0
  -20.0598   -6.4675   24.1830 C   0  0  0  0  0  0  0  0  0  0  0  0
  -26.6884  -28.2352   21.0585 C   0  0  0  0  0  0  0  0  0  0  0  0
  -27.8251  -20.4110   19.9558 C   0  0  0  0  0  0  0  0  0  0  0  0
  -21.3848   -4.4523   24.0409 C   0  0  0  0  0  0  0  0  0  0  0  0
  -24.5862  -10.3473   22.1322 C   0  0  0  0  0  0  0  0  0  0  0  0
  -24.0655  -12.3694   20.6666 C   0  0  0  0  0  0  0  0  0  0  0  0
  -24.5367  -37.0828   23.1813 C   0  0  0  0  0  0  0  0  0  0  0  0
  -26.0088  -30.1988   19.8167 C   0  0  0  0  0  0  0  0  0  0  0  0
  -25.3685  -36.1924   22.4758 C   0  0  0  0  0  0  0  0  0  0  0  0
  -25.8161  -29.3219   20.8937 C   0  0  0  0  0  0  0  0  0  0  0  0
  -29.1069  -20.9610   19.9476 C   0  0  0  0  0  0  0  0  0  0  0  0
  -28.7554  -18.2353   19.4683 C   0  0  0  0  0  0  0  0  0  0  0  0
  -27.6493  -19.0482   19.7161 C   0  0  0  0  0  0  0  0  0  0  0  0
  -23.9199   -8.3016   23.9080 C   0  0  0  0  0  0  0  0  0  0  0  0
  -27.7300  -28.0163   20.1573 C   0  0  0  0  0  0  0  0  0  0  0  0
  -22.4514   -6.5687   24.5102 C   0  0  0  0  0  0  0  0  0  0  0  0
  -20.1459   -5.0903   23.9792 C   0  0  0  0  0  0  0  0  0  0  0  0
  -22.5375   -5.1915   24.3064 C   0  0  0  0  0  0  0  0  0  0  0  0
  -24.9309  -11.4042   21.2155 C   0  0  0  0  0  0  0  0  0  0  0  0
  -24.8730  -13.1378   19.8642 C   0  0  0  0  0  0  0  0  0  0  0  0
  -28.7549  -24.5890   20.4833 C   0  0  0  0  0  0  0  0  0  0  0  0
  -30.5111  -23.0525   20.2164 C   0  0  0  0  0  0  0  0  0  0  0  0
  -22.7403  -18.7343   20.0756 C   0  0  0  0  0  0  0  0  0  0  0  0
  -28.0265  -25.7022   20.3239 C   0  0  0  0  0  0  0  0  0  1  0  0
  -23.9811  -18.2752   19.8842 C   0  0  0  0  0  0  0  0  0  0  0  0
  -22.6576  -12.5548   20.8645 C   0  0  0  0  0  0  0  0  0  0  0  0
  -25.1512  -19.1976   19.9568 C   0  0  0  0  0  0  0  0  0  0  0  0
  -25.2616  -32.5595   21.8097 C   0  0  0  0  0  0  0  0  0  0  0  0
  -22.5649  -30.8113   22.2501 C   0  0  0  0  0  0  0  0  0  0  0  0
  -21.0341  -27.7640   22.1198 C   0  0  0  0  0  0  0  0  0  0  0  0
  -29.6099  -15.9208   18.9589 C   0  0  0  0  0  0  0  0  0  0  0  0
  -23.8610  -36.6851   24.4697 C   0  0  0  0  0  0  0  0  0  0  0  0
  -25.0746  -31.3578   19.6014 C   0  0  0  0  0  0  0  0  0  0  0  0
  -24.7009  -29.5188   21.8868 C   0  0  0  0  0  0  0  0  0  0  0  0
  -28.1596  -23.2214   20.4774 C   0  0  0  0  0  0  0  0  0  0  0  0
  -23.7992  -35.1750   24.6842 C   0  0  0  0  0  0  0  0  0  0  0  0
  -29.6440  -12.4155   18.3354 C   0  0  0  0  0  0  0  0  0  0  0  0
  -25.1536  -34.5380   24.3896 C   0  0  0  0  0  0  0  0  0  0  0  0
  -28.3497  -11.9193   18.9840 C   0  0  0  0  0  0  0  0  0  0  0  0
  -30.2901  -13.5381   19.1454 C   0  0  0  0  0  0  0  0  0  0  0  0
  -28.1111  -14.1722   20.1041 C   0  0  0  0  0  0  0  0  0  0  0  0
  -25.5622  -34.7614   22.9286 C   0  0  1  0  0  0  0  0  0  0  0  0
  -24.3633  -31.7969   20.8775 C   0  0  1  0  0  0  0  0  0  0  0  0
  -27.3897  -13.0856   19.2901 C   0  0  2  0  0  0  0  0  0  0  0  0
  -30.2545  -24.5103   20.6013 C   0  0  0  0  0  0  0  0  0  0  0  0
  -31.0140  -25.4416   19.6527 C   0  0  0  0  0  0  0  0  0  0  0  0
  -30.7015  -24.7228   22.0512 C   0  0  0  0  0  0  0  0  0  0  0  0
  -18.8361  -26.6425   22.5763 C   0  0  0  0  0  0  0  0  0  0  0  0
  -23.1376  -30.9138   25.2454 C   0  0  0  0  0  0  0  0  0  0  0  0
  -21.5093  -29.0366   25.5502 C   0  0  0  0  0  0  0  0  0  0  0  0
  -20.7328  -31.2221   24.6319 C   0  0  0  0  0  0  0  0  0  0  0  0
  -20.7381  -26.9350   19.2941 C   0  0  0  0  0  0  0  0  0  0  0  0
  -22.1497  -29.7046   23.1892 C   0  0  1  0  0  0  0  0  0  0  0  0
  -19.7032  -27.3296   21.5329 C   0  0  2  0  0  0  0  0  0  0  0  0
  -21.9046  -30.2164   24.6367 C   0  0  0  0  0  0  0  0  0  0  0  0
  -26.1915  -11.5444   20.7970 N   0  0  0  0  0  0  0  0  0  0  0  0
  -26.1241  -12.6067   19.9765 N   0  0  0  0  0  0  0  0  0  0  0  0
  -29.2878  -22.3602   20.1933 N   0  0  0  0  0  0  0  0  0  0  0  0
  -23.8178  -30.6699   21.6369 N   0  0  0  0  0  0  0  0  0  0  0  0
  -29.3229  -14.6095   19.3934 N   0  0  0  0  0  0  0  0  0  0  0  0
  -24.6277  -14.2093   19.0804 N   0  0  0  0  0  0  0  0  0  0  0  0
  -21.9819  -11.6758   21.7219 N   0  0  0  0  0  0  0  0  0  0  0  0
  -26.3547  -18.5203   19.7278 N   0  0  0  0  0  0  0  0  0  0  0  0
  -28.6023  -16.8485   19.2209 N   0  0  0  0  0  0  0  0  0  0  0  0
  -24.8456  -33.8535   22.0588 N   0  0  0  0  0  0  0  0  0  0  0  0
  -20.9905  -29.0638   22.5777 N   0  0  0  0  0  0  0  0  0  0  0  0
  -19.9198  -26.3815   20.4036 N   0  3  0  0  0  0  0  0  0  0  0  0
  -31.6410  -22.6219   20.0181 O   0  0  0  0  0  0  0  0  0  0  0  0
  -22.0146  -13.4626   20.2850 O   0  0  0  0  0  0  0  0  0  0  0  0
  -25.0056  -20.3912   20.1927 O   0  0  0  0  0  0  0  0  0  0  0  0
  -26.2576  -32.0139   22.2701 O   0  0  0  0  0  0  0  0  0  0  0  0
  -21.8025  -31.7626   22.0620 O   0  0  0  0  0  0  0  0  0  0  0  0
  -22.0133  -27.0230   22.1705 O   0  0  0  0  0  0  0  0  0  0  0  0
  -30.6596  -16.1947   18.3715 O   0  0  0  0  0  0  0  0  0  0  0  0
  -23.5947   -7.3038   24.7748 O   0  0  0  0  0  0  0  0  0  0  0  0
  -28.5673  -26.9573   20.3285 O   0  0  0  0  0  0  0  0  0  1  0  0
  -19.0387   -4.3804   23.7257 F   0  0  0  0  0  0  0  0  0  0  0  0
  -23.7248   -4.5728   24.3656 F   0  0  0  0  0  0  0  0  0  0  0  0
  1  2  1  0  0  0  0
  1  5  2  0  0  0  0
  2  6  2  0  0  0  0
  3 10  2  0  0  0  0
  3 18  1  0  0  0  0
  4 11  1  0  0  0  0
  4 18  2  0  0  0  0
  5 20  1  0  0  0  0
  6 22  1  0  0  0  0
  7 12  2  0  0  0  0
  7 21  1  0  0  0  0
  8  9  2  0  0  0  0
  8 24  1  0  0  0  0
  9 25  1  0  0  0  0
 10 27  1  0  0  0  0
 11 27  2  0  0  0  0
 12 28  1  0  0  0  0
 13 14  2  0  0  0  0
 13 29  1  0  0  0  0
 14 30  1  0  0  0  0
 15 23  1  0  0  0  0
 15 28  2  0  0  0  0
 16 24  2  0  0  0  0
 16 26  1  0  0  0  0
 17 30  2  0  0  0  0
 17 31  1  0  0  0  0
 18 32  1  0  0  0  0
 19 32  1  0  0  0  0
 19 33  2  0  0  0  0
 19 39  1  0  0  0  0
 20 22  2  0  0  0  0
 20 45  1  0  0  0  0
 21 23  2  0  0  0  0
 21 46  1  0  0  0  0
 22 55  1  0  0  0  0
 23 47  1  0  0  0  0
 24 71  1  0  0  0  0
 25 26  2  0  0  0  0
 25 77  1  0  0  0  0
 26 76  1  0  0  0  0
 27 88  1  0  0  0  0
 28 89  1  0  0  0  0
 29 31  2  0  0  0  0
 29 88  1  0  0  0  0
 30 90  1  0  0  0  0
 31 91  1  0  0  0  0
 32 69  2  0  0  0  0
 33 70  1  0  0  0  0
 33 74  1  0  0  0  0
 34 37  2  0  0  0  0
 34 48  1  0  0  0  0
 34 58  1  0  0  0  0
 35 58  1  0  0  0  0
 35 71  1  0  0  0  0
 35 81  2  0  0  0  0
 36 38  2  0  0  0  0
 37 89  1  0  0  0  0
 38 40  1  0  0  0  0
 39 75  1  0  0  0  0
 39 82  2  0  0  0  0
 40 76  1  0  0  0  0
 40 83  2  0  0  0  0
 41 56  1  0  0  0  0
 41 78  1  0  0  0  0
 41 84  2  0  0  0  0
 42 66  1  0  0  0  0
 42 72  1  0  0  0  0
 42 85  2  0  0  0  0
 43 67  1  0  0  0  0
 43 79  1  0  0  0  0
 43 86  2  0  0  0  0
 44 73  1  0  0  0  0
 44 77  1  0  0  0  0
 44 87  2  0  0  0  0
 45 49  1  0  0  0  0
 46 56  1  0  0  0  0
 47 72  1  0  0  0  0
 48 71  1  0  0  0  0
 49 51  1  0  0  0  0
 50 52  1  0  0  0  0
 50 53  1  0  0  0  0
 51 55  1  0  0  0  0
 52 57  1  0  0  0  0
 53 73  1  0  0  0  0
 54 57  1  0  0  0  0
 54 73  1  0  0  0  0
 55 78  1  0  0  0  0
 56 72  1  0  0  0  0
 57 70  1  0  0  0  0
 58 59  1  0  0  0  0
 58 60  1  0  0  0  0
 61 67  1  0  0  0  0
 62 68  1  0  0  0  0
 63 68  1  0  0  0  0
 64 68  1  0  0  0  0
 65 80  1  0  0  0  0
 66 68  1  0  0  0  0
 66 79  1  0  0  0  0
 67 80  1  0  0  0  0
 69 70  1  0  0  0  0
M  CHG  1  80   1
M  ISO  4  37 101  44 100  77 100  89 101
M  END
> <Batch ID>
0069

> <Smiles>
C=CC(=O)Nc1cc(N2CC(=[101CH:1][101O:1]c3ccc4c(c3)CN(C(=O)C(NC(=O)C(C)NC)C(C)(C)C)C(C(=O)NC3CCCc5ccccc53)C4)C(C)(C)C2=O)ccc1[100NH:0][100C:0](=O)N1CCCC(n2nc(-c3ccc(Oc4ccc(F)cc4F)cc3)c(C(N)=O)c2N)C1

> <Shape>
0.366

> <Color>
0.110

> <Negative vol penalty>
0.000

$$$$

  -OEChem-04042323303D

 90 99  0     1  0  0  0  0  0999 V2000
  -29.0521  -28.6559   27.5904 C   0  0  0  0  0  0  0  0  0  0  0  0
  -29.3754  -27.4643   26.9494 C   0  0  0  0  0  0  0  0  0  0  0  0
  -20.0740  -22.7173   22.4118 C   0  0  0  0  0  0  0  0  0  0  0  0
  -19.0709  -22.3081   24.5712 C   0  0  0  0  0  0  0  0  0  0  0  0
  -27.8571  -29.3071   27.2874 C   0  0  0  0  0  0  0  0  0  0  0  0
  -28.5033  -26.9226   26.0058 C   0  0  0  0  0  0  0  0  0  0  0  0
  -30.0175  -23.8331   20.9394 C   0  0  0  0  0  0  0  0  0  0  0  0
  -19.4716  -23.9747   22.3702 C   0  0  0  0  0  0  0  0  0  0  0  0
  -18.4685  -23.5655   24.5297 C   0  0  0  0  0  0  0  0  0  0  0  0
  -30.0747  -22.4697   20.6541 C   0  0  0  0  0  0  0  0  0  0  0  0
  -20.0051  -27.0375   23.6997 C   0  0  0  0  0  0  0  0  0  0  0  0
  -20.7875  -28.1180   23.2925 C   0  0  0  0  0  0  0  0  0  0  0  0
  -26.2151  -13.5773   20.9900 C   0  0  0  0  0  0  0  0  0  0  0  0
  -25.3369  -15.7362   20.3538 C   0  0  0  0  0  0  0  0  0  0  0  0
  -27.8598  -22.5815   19.7049 C   0  0  0  0  0  0  0  0  0  0  0  0
  -27.7022  -15.4682   20.7665 C   0  0  0  0  0  0  0  0  0  0  0  0
  -19.2745  -28.5203   21.4524 C   0  0  0  0  0  0  0  0  0  0  0  0
  -19.8736  -21.8840   23.5123 C   0  0  0  0  0  0  0  0  0  0  0  0
  -25.1339  -14.3863   20.6404 C   0  0  0  0  0  0  0  0  0  0  0  0
  -21.7606  -20.2649   24.0830 C   0  0  0  0  0  0  0  0  0  0  0  0
  -26.9744  -28.7782   26.3326 C   0  0  0  0  0  0  0  0  0  0  0  0
  -28.8748  -24.5801   20.6189 C   0  0  0  0  0  0  0  0  0  0  0  0
  -27.2947  -27.5666   25.6908 C   0  0  0  0  0  0  0  0  0  0  0  0
  -27.7916  -23.9549   19.9849 C   0  0  0  0  0  0  0  0  0  0  0  0
  -27.4992  -14.1183   21.0531 C   0  0  0  0  0  0  0  0  0  0  0  0
  -26.6210  -16.2772   20.4169 C   0  0  0  0  0  0  0  0  0  0  0  0
  -18.6689  -24.3988   23.4292 C   0  0  0  0  0  0  0  0  0  0  0  0
  -28.9946  -21.8430   20.0394 C   0  0  0  0  0  0  0  0  0  0  0  0
  -18.8573  -26.6983   22.9831 C   0  0  0  0  0  0  0  0  0  0  0  0
  -20.4223  -28.8595   22.1689 C   0  0  0  0  0  0  0  0  0  0  0  0
  -18.4921  -27.4398   21.8595 C   0  0  0  0  0  0  0  0  0  0  0  0
  -20.4952  -20.5848   23.5555 C   0  0  0  0  0  0  0  0  0  0  0  0
  -21.8833  -18.9114   23.8844 C   0  0  0  0  0  0  0  0  0  0  0  0
  -30.8353  -13.1678   20.1579 C   0  0  0  0  0  0  0  0  0  0  0  0
  -23.7663  -13.8100   20.5733 C   0  0  0  0  0  0  0  0  0  0  0  0
  -22.7378  -21.1153   24.6975 C   0  0  0  0  0  0  0  0  0  0  0  0
  -26.7371  -26.2372   22.2886 C   0  0  0  0  0  0  0  0  0  0  0  0
  -25.6526  -27.0601   19.3443 C   0  0  0  0  0  0  0  0  0  0  0  0
  -28.0310  -18.3434   20.1398 C   0  0  0  0  0  0  0  0  0  0  0  0
  -25.4238  -26.3019   16.0247 C   0  0  0  0  0  0  0  0  0  0  0  0
  -21.3639  -14.3794   20.7398 C   0  0  0  0  0  0  0  0  0  0  0  0
  -25.6722  -29.4934   26.0729 C   0  0  0  0  0  0  0  0  0  0  0  0
  -28.8394  -26.0555   20.9091 C   0  0  0  0  0  0  0  0  0  0  0  0
  -26.5497  -24.7162   19.6020 C   0  0  0  0  0  0  0  0  0  0  0  0
  -31.2918  -12.5157   18.8739 C   0  0  0  0  0  0  0  0  0  0  0  0
  -24.9784  -29.0481   24.7881 C   0  0  0  0  0  0  0  0  0  0  0  0
  -29.9917  -12.2938   18.1103 C   0  0  0  0  0  0  0  0  0  0  0  0
  -18.4617  -15.4676   22.4398 C   0  0  0  0  0  0  0  0  0  0  0  0
  -24.9616  -27.5260   24.6904 C   0  0  0  0  0  0  0  0  0  0  0  0
  -18.8361  -16.8677   22.9336 C   0  0  0  0  0  0  0  0  0  0  0  0
  -28.9567  -12.1044   19.2012 C   0  0  0  0  0  0  0  0  0  0  0  0
  -19.0393  -15.1813   21.0544 C   0  0  0  0  0  0  0  0  0  0  0  0
  -20.8538  -16.8048   21.4142 C   0  0  0  0  0  0  0  0  0  0  0  0
  -26.3861  -26.9604   24.6433 C   0  0  1  0  0  0  0  0  0  0  0  0
  -27.4221  -26.6118   21.0049 C   0  0  1  0  0  0  0  0  0  0  0  0
  -20.3548  -17.1151   22.8347 C   0  0  1  0  0  0  0  0  0  0  0  0
  -24.4427  -27.1453   13.8745 C   0  0  0  0  0  0  0  0  0  0  0  0
  -22.8946  -26.1008   20.2293 C   0  0  0  0  0  0  0  0  0  0  0  0
  -22.2095  -26.0698   17.8214 C   0  0  0  0  0  0  0  0  0  0  0  0
  -22.8850  -28.2170   18.8966 C   0  0  0  0  0  0  0  0  0  0  0  0
  -28.0932  -26.5606   14.7732 C   0  0  0  0  0  0  0  0  0  0  0  0
  -28.6555  -13.2535   21.4271 C   0  0  0  0  0  0  0  0  0  0  0  0
  -27.8123  -19.7977   19.7662 C   0  0  0  0  0  0  0  0  0  1  0  0
  -24.6496  -26.4833   18.3746 C   0  0  1  0  0  0  0  0  0  0  0  0
  -25.6635  -27.1392   14.7814 C   0  0  2  0  0  0  0  0  0  0  0  0
  -23.1822  -26.7027   18.8393 C   0  0  0  0  0  0  0  0  0  0  0  0
  -19.8594  -19.5202   23.0590 N   0  0  0  0  0  0  0  0  0  0  0  0
  -20.7289  -18.5182   23.2735 N   0  0  0  0  0  0  0  0  0  0  0  0
  -29.4734  -12.9051   20.2857 N   0  0  0  0  0  0  0  0  0  0  0  0
  -26.5607  -26.1553   19.9122 N   0  0  0  0  0  0  0  0  0  0  0  0
  -20.4819  -15.4301   21.0471 N   0  0  0  0  0  0  0  0  0  0  0  0
  -22.8648  -18.0312   24.1743 N   0  0  0  0  0  0  0  0  0  0  0  0
  -22.4508  -22.4815   24.8223 N   0  0  0  0  0  0  0  0  0  0  0  0
  -26.8276  -17.6466   20.1259 N   0  0  0  0  0  0  0  0  0  0  0  0
  -22.7228  -14.7075   20.8014 N   0  0  0  0  0  0  0  0  0  0  0  0
  -26.9531  -27.1282   23.3224 N   0  0  0  0  0  0  0  0  0  0  0  0
  -24.9579  -27.0664   17.0734 N   0  0  0  0  0  0  0  0  0  0  0  0
  -26.8195  -26.6016   14.0097 N   0  3  0  0  0  0  0  0  0  0  0  0
  -31.5673  -13.7641   20.9336 O   0  0  0  0  0  0  0  0  0  0  0  0
  -23.6308  -12.6227   20.2905 O   0  0  0  0  0  0  0  0  0  0  0  0
  -23.8399  -20.6794   25.1086 O   0  0  0  0  0  0  0  0  0  0  0  0
  -26.0612  -25.2161   22.3372 O   0  0  0  0  0  0  0  0  0  0  0  0
  -25.6357  -28.2702   19.5834 O   0  0  0  0  0  0  0  0  0  0  0  0
  -29.1469  -17.9094   20.4064 O   0  0  0  0  0  0  0  0  0  0  0  0
  -25.6260  -25.0901   16.0609 O   0  0  0  0  0  0  0  0  0  0  0  0
  -20.9766  -13.2378   20.4711 O   0  0  0  0  0  0  0  0  0  0  0  0
  -18.0811  -25.6258   23.3890 O   0  0  0  0  0  0  0  0  0  0  0  0
  -29.0475  -20.5122   19.7604 O   0  0  0  0  0  0  0  0  0  1  0  0
  -21.1729  -29.8980   21.7790 F   0  0  0  0  0  0  0  0  0  0  0  0
  -17.3899  -27.1194   21.1678 F   0  0  0  0  0  0  0  0  0  0  0  0
  1  2  1  0  0  0  0
  1  5  2  0  0  0  0
  2  6  2  0  0  0  0
  3  8  2  0  0  0  0
  3 18  1  0  0  0  0
  4  9  1  0  0  0  0
  4 18  2  0  0  0  0
  5 21  1  0  0  0  0
  6 23  1  0  0  0  0
  7 10  2  0  0  0  0
  7 22  1  0  0  0  0
  8 27  1  0  0  0  0
  9 27  2  0  0  0  0
 10 28  1  0  0  0  0
 11 12  2  0  0  0  0
 11 29  1  0  0  0  0
 12 30  1  0  0  0  0
 13 19  2  0  0  0  0
 13 25  1  0  0  0  0
 14 19  1  0  0  0  0
 14 26  2  0  0  0  0
 15 24  1  0  0  0  0
 15 28  2  0  0  0  0
 16 25  2  0  0  0  0
 16 26  1  0  0  0  0
 17 30  2  0  0  0  0
 17 31  1  0  0  0  0
 18 32  1  0  0  0  0
 19 35  1  0  0  0  0
 20 32  1  0  0  0  0
 20 33  2  0  0  0  0
 20 36  1  0  0  0  0
 21 23  2  0  0  0  0
 21 42  1  0  0  0  0
 22 24  2  0  0  0  0
 22 43  1  0  0  0  0
 23 54  1  0  0  0  0
 24 44  1  0  0  0  0
 25 62  1  0  0  0  0
 26 74  1  0  0  0  0
 27 87  1  0  0  0  0
 28 88  1  0  0  0  0
 29 31  2  0  0  0  0
 29 87  1  0  0  0  0
 30 89  1  0  0  0  0
 31 90  1  0  0  0  0
 32 67  2  0  0  0  0
 33 68  1  0  0  0  0
 33 72  1  0  0  0  0
 34 45  1  0  0  0  0
 34 69  1  0  0  0  0
 34 79  2  0  0  0  0
 35 75  1  0  0  0  0
 35 80  2  0  0  0  0
 36 73  1  0  0  0  0
 36 81  2  0  0  0  0
 37 55  1  0  0  0  0
 37 76  1  0  0  0  0
 37 82  2  0  0  0  0
 38 64  1  0  0  0  0
 38 70  1  0  0  0  0
 38 83  2  0  0  0  0
 39 63  1  0  0  0  0
 39 74  1  0  0  0  0
 39 84  2  0  0  0  0
 40 65  1  0  0  0  0
 40 77  1  0  0  0  0
 40 85  2  0  0  0  0
 41 71  1  0  0  0  0
 41 75  1  0  0  0  0
 41 86  2  0  0  0  0
 42 46  1  0  0  0  0
 43 55  1  0  0  0  0
 44 70  1  0  0  0  0
 45 47  1  0  0  0  0
 46 49  1  0  0  0  0
 47 51  1  0  0  0  0
 48 50  1  0  0  0  0
 48 52  1  0  0  0  0
 49 54  1  0  0  0  0
 50 56  1  0  0  0  0
 51 69  1  0  0  0  0
 52 71  1  0  0  0  0
 53 56  1  0  0  0  0
 53 71  1  0  0  0  0
 54 76  1  0  0  0  0
 55 70  1  0  0  0  0
 56 68  1  0  0  0  0
 57 65  1  0  0  0  0
 58 66  1  0  0  0  0
 59 66  1  0  0  0  0
 60 66  1  0  0  0  0
 61 78  1  0  0  0  0
 62 69  1  0  0  0  0
 63 88  1  0  0  0  0
 64 66  1  0  0  0  0
 64 77  1  0  0  0  0
 65 78  1  0  0  0  0
 67 68  1  0  0  0  0
M  CHG  1  78   1
M  ISO  4  41 100  63 101  75 100  88 101
M  END
> <Batch ID>
0069

> <Smiles>
CNC(C)C(=O)NC(C(=O)N1Cc2cc([101O:1][101CH2:1]C(=O)Nc3cc(CN4CCCC4=O)cc(C(=O)[100NH:0][100C:0](=O)N4CCCC(n5nc(-c6ccc(Oc7ccc(F)cc7F)cc6)c(C(N)=O)c5N)C4)c3)ccc2CC1C(=O)NC1CCCc2ccccc21)C(C)(C)C

> <Shape>
0.216

> <Color>
0.044

> <Negative vol penalty>
0.000

$$$$

  -OEChem-04042323303D

 84 92  0     1  0  0  0  0  0999 V2000
  -24.8922  -11.1955   20.1973 C   0  0  0  0  0  0  0  0  0  0  0  0
  -24.2523  -12.2638   19.5770 C   0  0  0  0  0  0  0  0  0  0  0  0
  -25.4865  -27.5966   19.8070 C   0  0  0  0  0  0  0  0  0  0  0  0
  -25.5747  -26.0702   21.6776 C   0  0  0  0  0  0  0  0  0  0  0  0
  -25.8079  -11.4325   21.2216 C   0  0  0  0  0  0  0  0  0  0  0  0
  -24.5269  -13.5697   19.9815 C   0  0  0  0  0  0  0  0  0  0  0  0
  -24.7020  -18.5616   16.4380 C   0  0  0  0  0  0  0  0  0  0  0  0
  -16.8773  -21.9788   16.0484 C   0  0  0  0  0  0  0  0  0  0  0  0
  -26.7232  -27.1267   19.3652 C   0  0  0  0  0  0  0  0  0  0  0  0
  -26.8114  -25.6002   21.2358 C   0  0  0  0  0  0  0  0  0  0  0  0
  -23.7701  -19.5682   16.1890 C   0  0  0  0  0  0  0  0  0  0  0  0
  -29.9808  -27.5700   20.1501 C   0  0  0  0  0  0  0  0  0  0  0  0
  -15.6558  -22.6043   16.2976 C   0  0  0  0  0  0  0  0  0  0  0  0
  -30.9260  -28.5137   19.7482 C   0  0  0  0  0  0  0  0  0  0  0  0
  -24.8186  -20.9460   17.8687 C   0  0  0  0  0  0  0  0  0  0  0  0
  -18.0169  -23.7090   17.2914 C   0  0  0  0  0  0  0  0  0  0  0  0
  -30.9722  -27.5283   17.5428 C   0  0  0  0  0  0  0  0  0  0  0  0
  -24.9122  -27.0685   20.9633 C   0  0  0  0  0  0  0  0  0  0  0  0
  -23.3091  -28.8731   21.7884 C   0  0  0  0  0  0  0  0  0  0  0  0
  -26.1011  -12.7425   21.6324 C   0  0  0  0  0  0  0  0  0  0  0  0
  -25.6942  -18.7356   17.4136 C   0  0  0  0  0  0  0  0  0  0  0  0
  -25.4464  -13.8243   21.0133 C   0  0  0  0  0  0  0  0  0  0  0  0
  -25.7635  -19.9411   18.1264 C   0  0  0  0  0  0  0  0  0  0  0  0
  -16.7953  -24.3345   17.5406 C   0  0  0  0  0  0  0  0  0  0  0  0
  -18.0579  -22.5311   16.5453 C   0  0  0  0  0  0  0  0  0  0  0  0
  -27.3857  -26.1285   20.0795 C   0  0  0  0  0  0  0  0  0  0  0  0
  -23.8266  -20.7595   16.9064 C   0  0  0  0  0  0  0  0  0  0  0  0
  -29.5314  -26.6053   19.2483 C   0  0  0  0  0  0  0  0  0  0  0  0
  -31.4217  -28.4930   18.4446 C   0  0  0  0  0  0  0  0  0  0  0  0
  -15.6147  -23.7822   17.0436 C   0  0  0  0  0  0  0  0  0  0  0  0
  -30.0271  -26.5845   17.9447 C   0  0  0  0  0  0  0  0  0  0  0  0
  -23.6350  -27.5539   21.4205 C   0  0  0  0  0  0  0  0  0  0  0  0
  -21.9838  -28.8129   22.1441 C   0  0  0  0  0  0  0  0  0  0  0  0
  -24.1308  -30.0479   21.8068 C   0  0  0  0  0  0  0  0  0  0  0  0
  -26.4507  -17.2688   20.1302 C   0  0  0  0  0  0  0  0  0  0  0  0
  -29.0032  -19.2688   20.0449 C   0  0  0  0  0  0  0  0  0  0  0  0
  -20.5590  -22.3048   16.7096 C   0  0  0  0  0  0  0  0  0  0  0  0
  -30.3534  -22.1970   18.9272 C   0  0  0  0  0  0  0  0  0  0  0  0
  -17.5247  -25.1076   20.6480 C   0  0  0  0  0  0  0  0  0  0  0  0
  -27.0628  -12.9465   22.7761 C   0  0  0  0  0  0  0  0  0  0  0  0
  -26.7084  -17.6506   17.6515 C   0  0  0  0  0  0  0  0  0  0  0  0
  -26.8215  -20.1855   19.1701 C   0  0  0  0  0  0  0  0  0  0  0  0
  -27.5774  -14.3791   22.8910 C   0  0  0  0  0  0  0  0  0  0  0  0
  -18.7188  -25.8054   23.9288 C   0  0  0  0  0  0  0  0  0  0  0  0
  -26.4250  -15.3714   22.7724 C   0  0  0  0  0  0  0  0  0  0  0  0
  -20.0847  -26.4517   23.6912 C   0  0  0  0  0  0  0  0  0  0  0  0
  -18.4341  -24.6988   22.9157 C   0  0  0  0  0  0  0  0  0  0  0  0
  -19.9337  -25.7490   21.2659 C   0  0  0  0  0  0  0  0  0  0  0  0
  -25.7362  -15.2565   21.4072 C   0  0  1  0  0  0  0  0  0  0  0  0
  -27.3603  -17.7336   19.0282 C   0  0  1  0  0  0  0  0  0  0  0  0
  -20.2420  -26.9086   22.2284 C   0  0  2  0  0  0  0  0  0  0  0  0
  -16.8718  -26.8547   17.4719 C   0  0  0  0  0  0  0  0  0  0  0  0
  -32.4457  -23.5766   19.0544 C   0  0  0  0  0  0  0  0  0  0  0  0
  -28.2442  -20.1554   22.8641 C   0  0  0  0  0  0  0  0  0  0  0  0
  -29.7336  -22.1454   22.5640 C   0  0  0  0  0  0  0  0  0  0  0  0
  -30.6980  -19.8460   22.4929 C   0  0  0  0  0  0  0  0  0  0  0  0
  -30.7821  -22.0266   16.0038 C   0  0  0  0  0  0  0  0  0  0  0  0
  -21.6229  -21.3378   16.2242 C   0  0  0  0  0  0  0  0  0  1  0  0
  -16.7536  -25.5933   18.3396 C   0  0  2  0  0  0  0  0  0  0  0  0
  -29.2892  -20.6596   20.5576 C   0  0  1  0  0  0  0  0  0  0  0  0
  -31.6912  -22.5071   18.2801 C   0  0  2  0  0  0  0  0  0  0  0  0
  -29.4700  -20.6966   22.1014 C   0  0  0  0  0  0  0  0  0  0  0  0
  -22.6002  -26.7168   21.5323 N   0  0  0  0  0  0  0  0  0  0  0  0
  -21.6111  -27.5119   21.9746 N   0  0  0  0  0  0  0  0  0  0  0  0
  -27.7866  -19.0919   19.3708 N   0  0  0  0  0  0  0  0  0  0  0  0
  -18.5991  -25.1978   21.5483 N   0  0  0  0  0  0  0  0  0  0  0  0
  -21.1126  -29.7464   22.5823 N   0  0  0  0  0  0  0  0  0  0  0  0
  -24.8372  -30.3508   22.9788 N   0  0  0  0  0  0  0  0  0  0  0  0
  -19.2969  -21.8957   16.2930 N   0  0  0  0  0  0  0  0  0  0  0  0
  -26.5246  -15.9130   20.3864 N   0  0  0  0  0  0  0  0  0  0  0  0
  -30.4452  -21.1409   19.8089 N   0  0  0  0  0  0  0  0  0  0  0  0
  -17.7634  -25.6095   19.3745 N   0  0  0  0  0  0  0  0  0  0  0  0
  -31.4919  -22.9899   16.8843 N   0  3  0  0  0  0  0  0  0  0  0  0
  -24.2227  -30.8154   20.8189 O   0  0  0  0  0  0  0  0  0  0  0  0
  -25.7359  -18.0805   20.7063 O   0  0  0  0  0  0  0  0  0  0  0  0
  -29.8320  -18.3739   20.2293 O   0  0  0  0  0  0  0  0  0  0  0  0
  -20.8458  -23.2942   17.3755 O   0  0  0  0  0  0  0  0  0  0  0  0
  -29.3302  -22.8308   18.6783 O   0  0  0  0  0  0  0  0  0  0  0  0
  -16.4320  -24.6208   20.9578 O   0  0  0  0  0  0  0  0  0  0  0  0
  -28.5924  -25.6695   19.6486 O   0  0  0  0  0  0  0  0  0  0  0  0
  -22.9178  -21.7435   16.6658 O   0  0  0  0  0  0  0  0  0  1  0  0
  -32.3281  -29.4003   18.0583 F   0  0  0  0  0  0  0  0  0  0  0  0
  -14.4363  -24.3766   17.2768 F   0  0  0  0  0  0  0  0  0  0  0  0
  -29.5982  -25.6609   17.0735 F   0  0  0  0  0  0  0  0  0  0  0  0
  1  2  1  0  0  0  0
  1  5  2  0  0  0  0
  2  6  2  0  0  0  0
  3  9  2  0  0  0  0
  3 18  1  0  0  0  0
  4 10  1  0  0  0  0
  4 18  2  0  0  0  0
  5 20  1  0  0  0  0
  6 22  1  0  0  0  0
  7 11  2  0  0  0  0
  7 21  1  0  0  0  0
  8 13  2  0  0  0  0
  8 25  1  0  0  0  0
  9 26  1  0  0  0  0
 10 26  2  0  0  0  0
 11 27  1  0  0  0  0
 12 14  2  0  0  0  0
 12 28  1  0  0  0  0
 13 30  1  0  0  0  0
 14 29  1  0  0  0  0
 15 23  1  0  0  0  0
 15 27  2  0  0  0  0
 16 24  1  0  0  0  0
 16 25  2  0  0  0  0
 17 29  2  0  0  0  0
 17 31  1  0  0  0  0
 18 32  1  0  0  0  0
 19 32  1  0  0  0  0
 19 33  2  0  0  0  0
 19 34  1  0  0  0  0
 20 22  2  0  0  0  0
 20 40  1  0  0  0  0
 21 23  2  0  0  0  0
 21 41  1  0  0  0  0
 22 49  1  0  0  0  0
 23 42  1  0  0  0  0
 24 30  2  0  0  0  0
 24 59  1  0  0  0  0
 25 69  1  0  0  0  0
 26 80  1  0  0  0  0
 27 81  1  0  0  0  0
 28 31  2  0  0  0  0
 28 80  1  0  0  0  0
 29 82  1  0  0  0  0
 30 83  1  0  0  0  0
 31 84  1  0  0  0  0
 32 63  2  0  0  0  0
 33 64  1  0  0  0  0
 33 67  1  0  0  0  0
 34 68  1  0  0  0  0
 34 74  2  0  0  0  0
 35 50  1  0  0  0  0
 35 70  1  0  0  0  0
 35 75  2  0  0  0  0
 36 60  1  0  0  0  0
 36 65  1  0  0  0  0
 36 76  2  0  0  0  0
 37 58  1  0  0  0  0
 37 69  1  0  0  0  0
 37 77  2  0  0  0  0
 38 61  1  0  0  0  0
 38 71  1  0  0  0  0
 38 78  2  0  0  0  0
 39 66  1  0  0  0  0
 39 72  1  0  0  0  0
 39 79  2  0  0  0  0
 40 43  1  0  0  0  0
 41 50  1  0  0  0  0
 42 65  1  0  0  0  0
 43 45  1  0  0  0  0
 44 46  1  0  0  0  0
 44 47  1  0  0  0  0
 45 49  1  0  0  0  0
 46 51  1  0  0  0  0
 47 66  1  0  0  0  0
 48 51  1  0  0  0  0
 48 66  1  0  0  0  0
 49 70  1  0  0  0  0
 50 65  1  0  0  0  0
 51 64  1  0  0  0  0
 52 59  1  0  0  0  0
 53 61  1  0  0  0  0
 54 62  1  0  0  0  0
 55 62  1  0  0  0  0
 56 62  1  0  0  0  0
 57 73  1  0  0  0  0
 58 81  1  0  0  0  0
 59 72  1  0  0  0  0
 60 62  1  0  0  0  0
 60 71  1  0  0  0  0
 61 73  1  0  0  0  0
 63 64  1  0  0  0  0
M  CHG  1  73   1
M  ISO  4  39 100  58 101  72 100  81 101
M  END
> <Batch ID>
0069

> <Smiles>
CNC(C)C(=O)NC(C(=O)N1Cc2cc([101O:1][101CH2:1]C(=O)Nc3ccc(F)c(C(C)[100NH:0][100C:0](=O)N4CCCC(n5nc(-c6ccc(Oc7ccc(F)cc7F)cc6)c(C(N)=O)c5N)C4)c3)ccc2CC1C(=O)NC1CCCc2ccccc21)C(C)(C)C

> <Shape>
0.205

> <Color>
0.068

> <Negative vol penalty>
0.000

$$$$

  -OEChem-04042323303D

 83 91  0     1  0  0  0  0  0999 V2000
  -29.4653  -30.3472   26.8416 C   0  0  0  0  0  0  0  0  0  0  0  0
  -29.0626  -29.4277   25.8783 C   0  0  0  0  0  0  0  0  0  0  0  0
  -30.4577  -21.6560   22.8334 C   0  0  0  0  0  0  0  0  0  0  0  0
  -26.6386  -10.8681   20.9056 C   0  0  0  0  0  0  0  0  0  0  0  0
  -25.6153  -12.9057   20.1067 C   0  0  0  0  0  0  0  0  0  0  0  0
  -28.5369  -31.2293   27.3928 C   0  0  0  0  0  0  0  0  0  0  0  0
  -27.7309  -29.3891   25.4665 C   0  0  0  0  0  0  0  0  0  0  0  0
  -27.2622  -29.0396   20.4363 C   0  0  0  0  0  0  0  0  0  0  0  0
  -29.4518  -22.1856   22.0252 C   0  0  0  0  0  0  0  0  0  0  0  0
  -30.9057  -20.3515   22.6248 C   0  0  0  0  0  0  0  0  0  0  0  0
  -25.3899  -10.4025   21.3176 C   0  0  0  0  0  0  0  0  0  0  0  0
  -24.3666  -12.4401   20.5187 C   0  0  0  0  0  0  0  0  0  0  0  0
  -27.4682  -27.7855   19.8632 C   0  0  0  0  0  0  0  0  0  0  0  0
  -22.6592   -9.0048   19.8955 C   0  0  0  0  0  0  0  0  0  0  0  0
  -22.3268   -7.6848   19.5911 C   0  0  0  0  0  0  0  0  0  0  0  0
  -25.0816  -27.4576   19.7375 C   0  0  0  0  0  0  0  0  0  0  0  0
  -22.0876   -7.2019   21.9463 C   0  0  0  0  0  0  0  0  0  0  0  0
  -26.7512  -12.1197   20.3002 C   0  0  0  0  0  0  0  0  0  0  0  0
  -28.6465  -12.4130   18.6180 C   0  0  0  0  0  0  0  0  0  0  0  0
  -27.1951  -31.2080   26.9806 C   0  0  0  0  0  0  0  0  0  0  0  0
  -25.9623  -29.5084   20.6747 C   0  0  0  0  0  0  0  0  0  0  0  0
  -26.7834  -30.2709   26.0138 C   0  0  0  0  0  0  0  0  0  0  0  0
  -24.8618  -28.7191   20.3113 C   0  0  0  0  0  0  0  0  0  0  0  0
  -28.8937  -21.4107   21.0084 C   0  0  0  0  0  0  0  0  0  0  0  0
  -30.3476  -19.5767   21.6080 C   0  0  0  0  0  0  0  0  0  0  0  0
  -24.2540  -11.1885   21.1242 C   0  0  0  0  0  0  0  0  0  0  0  0
  -26.3779  -26.9930   19.5164 C   0  0  0  0  0  0  0  0  0  0  0  0
  -22.7059   -9.4234   21.2253 C   0  0  0  0  0  0  0  0  0  0  0  0
  -22.0410   -6.7834   20.6165 C   0  0  0  0  0  0  0  0  0  0  0  0
  -22.4201   -8.5219   22.2507 C   0  0  0  0  0  0  0  0  0  0  0  0
  -29.3416  -20.1063   20.7998 C   0  0  0  0  0  0  0  0  0  0  0  0
  -28.0409  -12.6014   19.8748 C   0  0  0  0  0  0  0  0  0  0  0  0
  -29.8540  -13.0598   18.7184 C   0  0  0  0  0  0  0  0  0  0  0  0
  -28.1610  -11.7159   17.4631 C   0  0  0  0  0  0  0  0  0  0  0  0
  -24.3149  -30.3331   23.2650 C   0  0  0  0  0  0  0  0  0  0  0  0
  -22.0895  -31.2379   21.0852 C   0  0  0  0  0  0  0  0  0  0  0  0
  -27.3139  -23.2244   20.2609 C   0  0  0  0  0  0  0  0  0  0  0  0
  -20.8054  -30.8941   17.9420 C   0  0  0  0  0  0  0  0  0  0  0  0
  -31.7952  -17.5778   22.1133 C   0  0  0  0  0  0  0  0  0  0  0  0
  -26.2182  -32.1493   27.6395 C   0  0  0  0  0  0  0  0  0  0  0  0
  -25.7567  -30.8748   21.2690 C   0  0  0  0  0  0  0  0  0  0  0  0
  -23.4459  -29.1849   20.5277 C   0  0  0  0  0  0  0  0  0  0  0  0
  -24.9040  -32.2952   26.8767 C   0  0  0  0  0  0  0  0  0  0  0  0
  -33.1806  -14.3029   21.9313 C   0  0  0  0  0  0  0  0  0  0  0  0
  -24.3722  -30.9268   26.4629 C   0  0  0  0  0  0  0  0  0  0  0  0
  -32.0773  -13.4791   21.2634 C   0  0  0  0  0  0  0  0  0  0  0  0
  -32.6077  -15.3571   22.8770 C   0  0  0  0  0  0  0  0  0  0  0  0
  -30.4929  -15.4165   21.6147 C   0  0  0  0  0  0  0  0  0  0  0  0
  -25.3529  -30.2149   25.5232 C   0  0  1  0  0  0  0  0  0  0  0  0
  -24.3958  -31.0361   21.9395 C   0  0  1  0  0  0  0  0  0  0  0  0
  -31.0189  -14.3847   20.6036 C   0  0  2  0  0  0  0  0  0  0  0  0
  -18.9620  -31.7393   16.4639 C   0  0  0  0  0  0  0  0  0  0  0  0
  -20.0857  -29.5025   22.5962 C   0  0  0  0  0  0  0  0  0  0  0  0
  -18.5831  -29.6189   20.5970 C   0  0  0  0  0  0  0  0  0  0  0  0
  -19.1857  -31.7048   21.8253 C   0  0  0  0  0  0  0  0  0  0  0  0
  -22.7270  -31.9844   15.9727 C   0  0  0  0  0  0  0  0  0  0  0  0
  -26.2420  -23.3961   19.1906 C   0  0  0  0  0  0  0  0  0  0  0  0
  -25.5892  -24.7699   19.2137 C   0  0  0  0  0  0  0  0  0  1  0  0
  -20.9295  -30.5598   20.3971 C   0  0  1  0  0  0  0  0  0  0  0  0
  -20.4079  -31.9223   16.8983 C   0  0  2  0  0  0  0  0  0  0  0  0
  -19.7226  -30.3366   21.3515 C   0  0  0  0  0  0  0  0  0  0  0  0
  -28.8010  -13.3120   20.7122 N   0  0  0  0  0  0  0  0  0  0  0  0
  -29.8967  -13.5758   19.9802 N   0  0  0  0  0  0  0  0  0  0  0  0
  -23.2967  -30.5255   21.1176 N   0  0  0  0  0  0  0  0  0  0  0  0
  -31.6155  -16.1800   22.1819 N   0  0  0  0  0  0  0  0  0  0  0  0
  -30.8729  -13.2317   17.8496 N   0  0  0  0  0  0  0  0  0  0  0  0
  -26.8998  -11.1082   17.5307 N   0  0  0  0  0  0  0  0  0  0  0  0
  -27.8734  -21.9514   20.1902 N   0  0  0  0  0  0  0  0  0  0  0  0
  -30.8052  -18.2520   21.3992 N   0  0  0  0  0  0  0  0  0  0  0  0
  -25.2547  -30.7572   24.1850 N   0  0  0  0  0  0  0  0  0  0  0  0
  -20.6214  -31.3694   19.2232 N   0  0  0  0  0  0  0  0  0  0  0  0
  -21.2789  -31.8024   15.6951 N   0  3  0  0  0  0  0  0  0  0  0  0
  -28.8328  -11.6203   16.4081 O   0  0  0  0  0  0  0  0  0  0  0  0
  -23.4621  -29.4709   23.4405 O   0  0  0  0  0  0  0  0  0  0  0  0
  -21.9324  -32.3614   21.5697 O   0  0  0  0  0  0  0  0  0  0  0  0
  -27.5999  -24.1204   21.0481 O   0  0  0  0  0  0  0  0  0  0  0  0
  -21.2327  -29.7794   17.6500 O   0  0  0  0  0  0  0  0  0  0  0  0
  -32.7710  -18.1325   22.6252 O   0  0  0  0  0  0  0  0  0  0  0  0
  -23.0354  -10.7344   21.5259 O   0  0  0  0  0  0  0  0  0  0  0  0
  -26.5762  -25.7682   18.9575 O   0  0  0  0  0  0  0  0  0  1  0  0
  -21.7202   -5.5162   20.3239 F   0  0  0  0  0  0  0  0  0  0  0  0
  -22.4622   -8.9185   23.5300 F   0  0  0  0  0  0  0  0  0  0  0  0
  -28.8040  -19.3606   19.8222 F   0  0  0  0  0  0  0  0  0  0  0  0
  1  2  1  0  0  0  0
  1  6  2  0  0  0  0
  2  7  2  0  0  0  0
  3  9  2  0  0  0  0
  3 10  1  0  0  0  0
  4 11  2  0  0  0  0
  4 18  1  0  0  0  0
  5 12  1  0  0  0  0
  5 18  2  0  0  0  0
  6 20  1  0  0  0  0
  7 22  1  0  0  0  0
  8 13  2  0  0  0  0
  8 21  1  0  0  0  0
  9 24  1  0  0  0  0
 10 25  2  0  0  0  0
 11 26  1  0  0  0  0
 12 26  2  0  0  0  0
 13 27  1  0  0  0  0
 14 15  2  0  0  0  0
 14 28  1  0  0  0  0
 15 29  1  0  0  0  0
 16 23  1  0  0  0  0
 16 27  2  0  0  0  0
 17 29  2  0  0  0  0
 17 30  1  0  0  0  0
 18 32  1  0  0  0  0
 19 32  1  0  0  0  0
 19 33  2  0  0  0  0
 19 34  1  0  0  0  0
 20 22  2  0  0  0  0
 20 40  1  0  0  0  0
 21 23  2  0  0  0  0
 21 41  1  0  0  0  0
 22 49  1  0  0  0  0
 23 42  1  0  0  0  0
 24 31  2  0  0  0  0
 24 68  1  0  0  0  0
 25 31  1  0  0  0  0
 25 69  1  0  0  0  0
 26 79  1  0  0  0  0
 27 80  1  0  0  0  0
 28 30  2  0  0  0  0
 28 79  1  0  0  0  0
 29 81  1  0  0  0  0
 30 82  1  0  0  0  0
 31 83  1  0  0  0  0
 32 62  2  0  0  0  0
 33 63  1  0  0  0  0
 33 66  1  0  0  0  0
 34 67  1  0  0  0  0
 34 73  2  0  0  0  0
 35 50  1  0  0  0  0
 35 70  1  0  0  0  0
 35 74  2  0  0  0  0
 36 59  1  0  0  0  0
 36 64  1  0  0  0  0
 36 75  2  0  0  0  0
 37 57  1  0  0  0  0
 37 68  1  0  0  0  0
 37 76  2  0  0  0  0
 38 60  1  0  0  0  0
 38 71  1  0  0  0  0
 38 77  2  0  0  0  0
 39 65  1  0  0  0  0
 39 69  1  0  0  0  0
 39 78  2  0  0  0  0
 40 43  1  0  0  0  0
 41 50  1  0  0  0  0
 42 64  1  0  0  0  0
 43 45  1  0  0  0  0
 44 46  1  0  0  0  0
 44 47  1  0  0  0  0
 45 49  1  0  0  0  0
 46 51  1  0  0  0  0
 47 65  1  0  0  0  0
 48 51  1  0  0  0  0
 48 65  1  0  0  0  0
 49 70  1  0  0  0  0
 50 64  1  0  0  0  0
 51 63  1  0  0  0  0
 52 60  1  0  0  0  0
 53 61  1  0  0  0  0
 54 61  1  0  0  0  0
 55 61  1  0  0  0  0
 56 72  1  0  0  0  0
 57 58  1  0  0  0  0
 58 80  1  0  0  0  0
 59 61  1  0  0  0  0
 59 71  1  0  0  0  0
 60 72  1  0  0  0  0
 62 63  1  0  0  0  0
M  CHG  1  72   1
M  ISO  4  39 100  58 101  69 100  80 101
M  END
> <Batch ID>
0069

> <Smiles>
CNC(C)C(=O)NC(C(=O)N1Cc2cc([101O:1][101CH2:1]CC(=O)Nc3cccc([100NH:0][100C:0](=O)N4CCCC(n5nc(-c6ccc(Oc7ccc(F)cc7F)cc6)c(C(N)=O)c5N)C4)c3F)ccc2CC1C(=O)NC1CCCc2ccccc21)C(C)(C)C

> <Shape>
0.317

> <Color>
0.078

> <Negative vol penalty>
0.000

$$$$

  -OEChem-04042323303D

 87 95  0     1  0  0  0  0  0999 V2000
  -29.9624  -29.5280   13.1778 C   0  0  0  0  0  0  0  0  0  0  0  0
  -30.1994  -29.0985   14.4797 C   0  0  0  0  0  0  0  0  0  0  0  0
  -23.1248   -9.8937   19.8530 C   0  0  0  0  0  0  0  0  0  0  0  0
  -23.9390   -9.7533   22.1234 C   0  0  0  0  0  0  0  0  0  0  0  0
  -29.0126  -30.5192   12.9340 C   0  0  0  0  0  0  0  0  0  0  0  0
  -29.4874  -29.6608   15.5386 C   0  0  0  0  0  0  0  0  0  0  0  0
  -27.8035  -26.1827   18.8116 C   0  0  0  0  0  0  0  0  0  0  0  0
  -22.4327   -8.6953   20.0271 C   0  0  0  0  0  0  0  0  0  0  0  0
  -23.2468   -8.5549   22.2975 C   0  0  0  0  0  0  0  0  0  0  0  0
  -28.7261  -25.6619   19.7179 C   0  0  0  0  0  0  0  0  0  0  0  0
  -20.0676   -7.5821   22.9032 C   0  0  0  0  0  0  0  0  0  0  0  0
  -19.3413   -7.4205   24.0830 C   0  0  0  0  0  0  0  0  0  0  0  0
  -30.9020  -17.9721   20.9537 C   0  0  0  0  0  0  0  0  0  0  0  0
  -27.8769  -27.1415   21.4234 C   0  0  0  0  0  0  0  0  0  0  0  0
  -29.3065  -17.9540   22.7677 C   0  0  0  0  0  0  0  0  0  0  0  0
  -20.6746   -5.4838   24.6386 C   0  0  0  0  0  0  0  0  0  0  0  0
  -23.8781  -10.4227   20.9011 C   0  0  0  0  0  0  0  0  0  0  0  0
  -31.0139  -19.3579   21.0657 C   0  0  0  0  0  0  0  0  0  0  0  0
  -24.1184  -12.9613   20.9728 C   0  0  0  0  0  0  0  0  0  0  0  0
  -28.2818  -31.0871   13.9895 C   0  0  0  0  0  0  0  0  0  0  0  0
  -26.9166  -27.1963   19.2020 C   0  0  0  0  0  0  0  0  0  0  0  0
  -28.5280  -30.6615   15.3088 C   0  0  0  0  0  0  0  0  0  0  0  0
  -26.9423  -27.6717   20.5209 C   0  0  0  0  0  0  0  0  0  0  0  0
  -30.0483  -17.2701   21.8046 C   0  0  0  0  0  0  0  0  0  0  0  0
  -29.4183  -19.3399   22.8798 C   0  0  0  0  0  0  0  0  0  0  0  0
  -30.2720  -20.0418   22.0288 C   0  0  0  0  0  0  0  0  0  0  0  0
  -22.4936   -8.0259   21.2494 C   0  0  0  0  0  0  0  0  0  0  0  0
  -28.7648  -26.1432   21.0232 C   0  0  0  0  0  0  0  0  0  0  0  0
  -21.0974   -6.6944   22.5910 C   0  0  0  0  0  0  0  0  0  0  0  0
  -19.6447   -6.3714   24.9507 C   0  0  0  0  0  0  0  0  0  0  0  0
  -21.4009   -5.6454   23.4588 C   0  0  0  0  0  0  0  0  0  0  0  0
  -24.5938  -11.6603   20.7217 C   0  0  0  0  0  0  0  0  0  0  0  0
  -25.1714  -13.7806   20.6466 C   0  0  0  0  0  0  0  0  0  0  0  0
  -29.6088  -24.3009   22.1911 C   0  0  0  0  0  0  0  0  0  1  0  0
  -31.9143  -20.0589   20.1584 C   0  0  0  0  0  0  0  0  0  0  0  0
  -22.8393  -13.3909   21.4575 C   0  0  0  0  0  0  0  0  0  0  0  0
  -30.4364  -23.6818   23.0441 C   0  0  0  0  0  0  0  0  0  0  0  0
  -30.2540  -22.2150   23.2903 C   0  0  0  0  0  0  0  0  0  0  0  0
  -26.4037  -30.1998   18.2967 C   0  0  0  0  0  0  0  0  0  0  0  0
  -23.8958  -29.9772   20.3420 C   0  0  0  0  0  0  0  0  0  0  0  0
  -22.5003  -28.4574   23.0604 C   0  0  0  0  0  0  0  0  0  0  0  0
  -30.5954  -15.0310   20.7881 C   0  0  0  0  0  0  0  0  0  0  0  0
  -27.2992  -32.1891   13.6817 C   0  0  0  0  0  0  0  0  0  0  0  0
  -25.9095  -27.7288   18.2199 C   0  0  0  0  0  0  0  0  0  0  0  0
  -25.9980  -28.7447   20.9957 C   0  0  0  0  0  0  0  0  0  0  0  0
  -26.3208  -32.4681   14.8197 C   0  0  0  0  0  0  0  0  0  0  0  0
  -29.5190  -12.7652   18.2613 C   0  0  0  0  0  0  0  0  0  0  0  0
  -27.0607  -32.5546   16.1507 C   0  0  0  0  0  0  0  0  0  0  0  0
  -28.1025  -12.3828   18.6968 C   0  0  0  0  0  0  0  0  0  0  0  0
  -30.4532  -12.9370   19.4577 C   0  0  0  0  0  0  0  0  0  0  0  0
  -28.5534  -13.4737   20.9314 C   0  0  0  0  0  0  0  0  0  0  0  0
  -27.7583  -31.2297   16.4814 C   0  0  1  0  0  0  0  0  0  0  0  0
  -25.3989  -29.1199   18.5826 C   0  0  1  0  0  0  0  0  0  0  0  0
  -27.5599  -13.3531   19.7644 C   0  0  2  0  0  0  0  0  0  0  0  0
  -33.1196  -19.3127   19.6696 C   0  0  0  0  0  0  0  0  0  0  0  0
  -31.5133  -24.3575   23.8347 C   0  0  0  0  0  0  0  0  0  0  0  0
  -20.4589  -28.5168   24.5186 C   0  0  0  0  0  0  0  0  0  0  0  0
  -24.9480  -32.4944   21.7083 C   0  0  0  0  0  0  0  0  0  0  0  0
  -23.4763  -31.9643   23.6632 C   0  0  0  0  0  0  0  0  0  0  0  0
  -22.4638  -32.4196   21.4293 C   0  0  0  0  0  0  0  0  0  0  0  0
  -21.7808  -25.6721   22.3653 C   0  0  0  0  0  0  0  0  0  0  0  0
  -23.6899  -30.2422   21.8138 C   0  0  1  0  0  0  0  0  0  0  0  0
  -21.1115  -27.8914   23.2956 C   0  0  2  0  0  0  0  0  0  0  0  0
  -23.6637  -31.7612   22.1445 C   0  0  0  0  0  0  0  0  0  0  0  0
  -25.8509  -11.6488   20.2706 N   0  0  0  0  0  0  0  0  0  0  0  0
  -26.1744  -12.9527   20.2357 N   0  0  0  0  0  0  0  0  0  0  0  0
  -25.0359  -29.2379   19.9963 N   0  0  0  0  0  0  0  0  0  0  0  0
  -29.8759  -13.8729   20.4250 N   0  0  0  0  0  0  0  0  0  0  0  0
  -28.6552  -20.0111   23.8619 N   0  0  0  0  0  0  0  0  0  0  0  0
  -25.3280  -15.1212   20.6741 N   0  0  0  0  0  0  0  0  0  0  0  0
  -21.8719  -12.4179   21.7435 N   0  0  0  0  0  0  0  0  0  0  0  0
  -30.3853  -21.4491   22.1407 N   0  0  0  0  0  0  0  0  0  0  0  0
  -29.9325  -15.8626   21.6901 N   0  0  0  0  0  0  0  0  0  0  0  0
  -26.8003  -30.2634   16.9745 N   0  0  0  0  0  0  0  0  0  0  0  0
  -22.4753  -29.5276   22.1912 N   0  0  0  0  0  0  0  0  0  0  0  0
  -21.1811  -26.4172   23.5021 N   0  3  0  0  0  0  0  0  0  0  0  0
  -31.7597  -21.2164   19.7699 O   0  0  0  0  0  0  0  0  0  0  0  0
  -22.5567  -14.6027   21.6164 O   0  0  0  0  0  0  0  0  0  0  0  0
  -30.0669  -21.8221   24.4376 O   0  0  0  0  0  0  0  0  0  0  0  0
  -26.7895  -30.9227   19.2078 O   0  0  0  0  0  0  0  0  0  0  0  0
  -23.0717  -30.4041   19.5295 O   0  0  0  0  0  0  0  0  0  0  0  0
  -23.5063  -27.9987   23.5971 O   0  0  0  0  0  0  0  0  0  0  0  0
  -31.7055  -15.2813   20.3115 O   0  0  0  0  0  0  0  0  0  0  0  0
  -21.8181   -6.8566   21.4197 O   0  0  0  0  0  0  0  0  0  0  0  0
  -29.6648  -25.6370   21.9096 O   0  0  0  0  0  0  0  0  0  1  0  0
  -18.9482   -6.2173   26.0844 F   0  0  0  0  0  0  0  0  0  0  0  0
  -22.3899   -4.7902   23.1648 F   0  0  0  0  0  0  0  0  0  0  0  0
  1  2  1  0  0  0  0
  1  5  2  0  0  0  0
  2  6  2  0  0  0  0
  3  8  2  0  0  0  0
  3 17  1  0  0  0  0
  4  9  1  0  0  0  0
  4 17  2  0  0  0  0
  5 20  1  0  0  0  0
  6 22  1  0  0  0  0
  7 10  2  0  0  0  0
  7 21  1  0  0  0  0
  8 27  1  0  0  0  0
  9 27  2  0  0  0  0
 10 28  1  0  0  0  0
 11 12  2  0  0  0  0
 11 29  1  0  0  0  0
 12 30  1  0  0  0  0
 13 18  1  0  0  0  0
 13 24  2  0  0  0  0
 14 23  1  0  0  0  0
 14 28  2  0  0  0  0
 15 24  1  0  0  0  0
 15 25  2  0  0  0  0
 16 30  2  0  0  0  0
 16 31  1  0  0  0  0
 17 32  1  0  0  0  0
 18 26  2  0  0  0  0
 18 35  1  0  0  0  0
 19 32  1  0  0  0  0
 19 33  2  0  0  0  0
 19 36  1  0  0  0  0
 20 22  2  0  0  0  0
 20 43  1  0  0  0  0
 21 23  2  0  0  0  0
 21 44  1  0  0  0  0
 22 52  1  0  0  0  0
 23 45  1  0  0  0  0
 24 73  1  0  0  0  0
 25 26  1  0  0  0  0
 25 69  1  0  0  0  0
 26 72  1  0  0  0  0
 27 84  1  0  0  0  0
 28 85  1  0  0  0  0
 29 31  2  0  0  0  0
 29 84  1  0  0  0  0
 30 86  1  0  0  0  0
 31 87  1  0  0  0  0
 32 65  2  0  0  0  0
 33 66  1  0  0  0  0
 33 70  1  0  0  0  0
 34 37  2  0  0  0  0
 34 85  1  0  0  0  0
 35 55  1  0  0  0  0
 35 77  2  0  0  0  0
 36 71  1  0  0  0  0
 36 78  2  0  0  0  0
 37 38  1  0  0  0  0
 37 56  1  0  0  0  0
 38 72  1  0  0  0  0
 38 79  2  0  0  0  0
 39 53  1  0  0  0  0
 39 74  1  0  0  0  0
 39 80  2  0  0  0  0
 40 62  1  0  0  0  0
 40 67  1  0  0  0  0
 40 81  2  0  0  0  0
 41 63  1  0  0  0  0
 41 75  1  0  0  0  0
 41 82  2  0  0  0  0
 42 68  1  0  0  0  0
 42 73  1  0  0  0  0
 42 83  2  0  0  0  0
 43 46  1  0  0  0  0
 44 53  1  0  0  0  0
 45 67  1  0  0  0  0
 46 48  1  0  0  0  0
 47 49  1  0  0  0  0
 47 50  1  0  0  0  0
 48 52  1  0  0  0  0
 49 54  1  0  0  0  0
 50 68  1  0  0  0  0
 51 54  1  0  0  0  0
 51 68  1  0  0  0  0
 52 74  1  0  0  0  0
 53 67  1  0  0  0  0
 54 66  1  0  0  0  0
 57 63  1  0  0  0  0
 58 64  1  0  0  0  0
 59 64  1  0  0  0  0
 60 64  1  0  0  0  0
 61 76  1  0  0  0  0
 62 64  1  0  0  0  0
 62 75  1  0  0  0  0
 63 76  1  0  0  0  0
 65 66  1  0  0  0  0
M  CHG  1  76   1
M  ISO  4  34 101  42 100  73 100  85 101
M  END
> <Batch ID>
0069

> <Smiles>
CNC(C)C(=O)NC(C(=O)N1Cc2cc([101O:1][101CH:1]=C(C)C(=O)Nc3c(N)cc([100NH:0][100C:0](=O)N4CCCC(n5nc(-c6ccc(Oc7ccc(F)cc7F)cc6)c(C(N)=O)c5N)C4)cc3C(C)=O)ccc2CC1C(=O)NC1CCCc2ccccc21)C(C)(C)C

> <Shape>
0.311

> <Color>
0.198

> <Negative vol penalty>
0.000

$$$$

  -OEChem-04042323303D

 87 96  0     1  0  0  0  0  0999 V2000
  -29.6487  -36.3319   19.2248 C   0  0  0  0  0  0  0  0  0  0  0  0
  -29.7178  -34.9921   19.5932 C   0  0  0  0  0  0  0  0  0  0  0  0
  -23.6898  -10.6348   23.3431 C   0  0  0  0  0  0  0  0  0  0  0  0
  -24.4946   -9.0030   21.7535 C   0  0  0  0  0  0  0  0  0  0  0  0
  -28.6339  -37.1419   19.7328 C   0  0  0  0  0  0  0  0  0  0  0  0
  -28.7728  -34.4619   20.4708 C   0  0  0  0  0  0  0  0  0  0  0  0
  -27.0253  -29.9573   18.9544 C   0  0  0  0  0  0  0  0  0  0  0  0
  -29.9824  -20.1409   19.9139 C   0  0  0  0  0  0  0  0  0  0  0  0
  -29.8169  -18.7796   19.6590 C   0  0  0  0  0  0  0  0  0  0  0  0
  -23.3263   -9.6074   24.2137 C   0  0  0  0  0  0  0  0  0  0  0  0
  -24.1311   -7.9756   22.6241 C   0  0  0  0  0  0  0  0  0  0  0  0
  -27.8425  -28.8497   19.1765 C   0  0  0  0  0  0  0  0  0  0  0  0
  -21.3018   -6.3609   23.5288 C   0  0  0  0  0  0  0  0  0  0  0  0
  -20.6309   -5.2626   22.9909 C   0  0  0  0  0  0  0  0  0  0  0  0
  -26.5376  -28.2855   21.1255 C   0  0  0  0  0  0  0  0  0  0  0  0
  -27.5870  -20.3979   20.0964 C   0  0  0  0  0  0  0  0  0  0  0  0
  -22.4126   -3.8101   23.7345 C   0  0  0  0  0  0  0  0  0  0  0  0
  -24.2739  -10.3326   22.1130 C   0  0  0  0  0  0  0  0  0  0  0  0
  -23.8030  -12.3626   20.6416 C   0  0  0  0  0  0  0  0  0  0  0  0
  -27.6703  -36.6190   20.6095 C   0  0  0  0  0  0  0  0  0  0  0  0
  -25.9631  -30.2439   19.8238 C   0  0  0  0  0  0  0  0  0  0  0  0
  -27.7450  -35.2660   20.9921 C   0  0  0  0  0  0  0  0  0  0  0  0
  -25.7069  -29.3959   20.9107 C   0  0  0  0  0  0  0  0  0  0  0  0
  -27.4215  -19.0366   19.8414 C   0  0  0  0  0  0  0  0  0  0  0  0
  -28.8674  -20.9501   20.1327 C   0  0  0  0  0  0  0  0  0  0  0  0
  -28.5365  -18.2274   19.6227 C   0  0  0  0  0  0  0  0  0  0  0  0
  -23.5469   -8.2778   23.8543 C   0  0  0  0  0  0  0  0  0  0  0  0
  -27.6005  -28.0153   20.2639 C   0  0  0  0  0  0  0  0  0  0  0  0
  -22.5281   -6.1838   24.1694 C   0  0  0  0  0  0  0  0  0  0  0  0
  -21.1863   -3.9873   23.0938 C   0  0  0  0  0  0  0  0  0  0  0  0
  -23.0835   -4.9084   24.2723 C   0  0  0  0  0  0  0  0  0  0  0  0
  -24.6492  -11.3934   21.2130 C   0  0  0  0  0  0  0  0  0  0  0  0
  -24.6367  -13.1338   19.8692 C   0  0  0  0  0  0  0  0  0  0  0  0
  -28.5015  -24.5661   20.6900 C   0  0  0  0  0  0  0  0  0  0  0  0
  -30.2594  -23.0384   20.4666 C   0  0  0  0  0  0  0  0  0  0  0  0
  -27.8161  -25.6968   20.4851 C   0  0  0  0  0  0  0  0  0  1  0  0
  -22.3897  -12.5491   20.7953 C   0  0  0  0  0  0  0  0  0  0  0  0
  -25.2282  -32.6675   21.7447 C   0  0  0  0  0  0  0  0  0  0  0  0
  -22.4632  -31.0153   22.1289 C   0  0  0  0  0  0  0  0  0  0  0  0
  -21.4939  -27.5660   22.5534 C   0  0  0  0  0  0  0  0  0  0  0  0
  -29.4037  -15.9142   19.1293 C   0  0  0  0  0  0  0  0  0  0  0  0
  -26.6200  -37.5450   21.1698 C   0  0  0  0  0  0  0  0  0  0  0  0
  -25.0745  -31.4274   19.5551 C   0  0  0  0  0  0  0  0  0  0  0  0
  -24.5669  -29.6484   21.8620 C   0  0  0  0  0  0  0  0  0  0  0  0
  -27.9022  -23.2025   20.6773 C   0  0  0  0  0  0  0  0  0  0  0  0
  -25.4375  -36.8142   21.8006 C   0  0  0  0  0  0  0  0  0  0  0  0
  -29.4532  -12.4120   18.4899 C   0  0  0  0  0  0  0  0  0  0  0  0
  -25.9273  -35.6936   22.7123 C   0  0  0  0  0  0  0  0  0  0  0  0
  -28.1381  -11.9145   19.0943 C   0  0  0  0  0  0  0  0  0  0  0  0
  -30.0745  -13.5296   19.3257 C   0  0  0  0  0  0  0  0  0  0  0  0
  -27.8669  -14.1622   20.2174 C   0  0  0  0  0  0  0  0  0  0  0  0
  -26.7237  -34.6480   21.9224 C   0  0  1  0  0  0  0  0  0  0  0  0
  -29.9831  -24.4853   20.8187 C   0  0  2  0  0  0  0  0  0  0  0  0
  -24.3365  -31.9149   20.7981 C   0  0  1  0  0  0  0  0  0  0  0  0
  -27.1704  -13.0807   19.3755 C   0  0  2  0  0  0  0  0  0  0  0  0
  -26.0387  -18.4714   19.8104 C   0  0  0  0  0  0  0  0  0  0  0  0
  -19.3539  -26.3897   21.9756 C   0  0  0  0  0  0  0  0  0  0  0  0
  -21.6913  -31.6155   25.0192 C   0  0  0  0  0  0  0  0  0  0  0  0
  -20.6028  -29.3632   25.1230 C   0  0  0  0  0  0  0  0  0  0  0  0
  -19.7666  -31.0778   23.5156 C   0  0  0  0  0  0  0  0  0  0  0  0
  -22.9102  -25.5459   20.9187 C   0  0  0  0  0  0  0  0  0  0  0  0
  -31.7442  -25.0776   22.2577 C   0  0  0  0  0  0  0  0  0  0  0  0
  -21.9819  -29.9418   23.0749 C   0  0  1  0  0  0  0  0  0  0  0  0
  -20.7791  -26.6915   21.5392 C   0  0  2  0  0  0  0  0  0  0  0  0
  -21.0382  -30.5021   24.1762 C   0  0  0  0  0  0  0  0  0  0  0  0
  -25.9227  -11.5339   20.8356 N   0  0  0  0  0  0  0  0  0  0  0  0
  -25.8829  -12.6002   20.0188 N   0  0  0  0  0  0  0  0  0  0  0  0
  -29.0375  -22.3459   20.3970 N   0  0  0  0  0  0  0  0  0  0  0  0
  -23.7302  -30.8216   21.5606 N   0  0  0  0  0  0  0  0  0  0  0  0
  -29.1013  -14.6012   19.5479 N   0  0  0  0  0  0  0  0  0  0  0  0
  -24.4180  -14.2094   19.0833 N   0  0  0  0  0  0  0  0  0  0  0  0
  -21.5285  -11.8923   19.9059 N   0  0  0  0  0  0  0  0  0  0  0  0
  -28.3895  -16.8421   19.3637 N   0  0  0  0  0  0  0  0  0  0  0  0
  -25.8287  -33.7803   21.1873 N   0  0  0  0  0  0  0  0  0  0  0  0
  -21.3805  -28.9048   22.2435 N   0  0  0  0  0  0  0  0  0  0  0  0
  -21.5020  -25.3995   21.3686 N   0  3  0  0  0  0  0  0  0  0  0  0
  -31.4014  -22.6164   20.3352 O   0  0  0  0  0  0  0  0  0  0  0  0
  -21.9057  -13.2896   21.6846 O   0  0  0  0  0  0  0  0  0  0  0  0
  -25.3604  -32.2691   22.8960 O   0  0  0  0  0  0  0  0  0  0  0  0
  -21.7386  -31.9863   21.8971 O   0  0  0  0  0  0  0  0  0  0  0  0
  -22.0900  -27.1076   23.5256 O   0  0  0  0  0  0  0  0  0  0  0  0
  -30.4720  -16.1895   18.5771 O   0  0  0  0  0  0  0  0  0  0  0  0
  -23.1926   -7.2751   24.7036 O   0  0  0  0  0  0  0  0  0  0  0  0
  -28.3969  -26.9339   20.4834 O   0  0  0  0  0  0  0  0  0  1  0  0
  -30.3751  -24.6953   22.1579 O   0  0  0  0  0  0  0  0  0  0  0  0
  -20.5412   -2.9325   22.5786 F   0  0  0  0  0  0  0  0  0  0  0  0
  -24.2607   -4.7319   24.8877 F   0  0  0  0  0  0  0  0  0  0  0  0
  1  2  1  0  0  0  0
  1  5  2  0  0  0  0
  2  6  2  0  0  0  0
  3 10  2  0  0  0  0
  3 18  1  0  0  0  0
  4 11  1  0  0  0  0
  4 18  2  0  0  0  0
  5 20  1  0  0  0  0
  6 22  1  0  0  0  0
  7 12  2  0  0  0  0
  7 21  1  0  0  0  0
  8  9  2  0  0  0  0
  8 25  1  0  0  0  0
  9 26  1  0  0  0  0
 10 27  1  0  0  0  0
 11 27  2  0  0  0  0
 12 28  1  0  0  0  0
 13 14  2  0  0  0  0
 13 29  1  0  0  0  0
 14 30  1  0  0  0  0
 15 23  1  0  0  0  0
 15 28  2  0  0  0  0
 16 24  1  0  0  0  0
 16 25  2  0  0  0  0
 17 30  2  0  0  0  0
 17 31  1  0  0  0  0
 18 32  1  0  0  0  0
 19 32  1  0  0  0  0
 19 33  2  0  0  0  0
 19 37  1  0  0  0  0
 20 22  2  0  0  0  0
 20 42  1  0  0  0  0
 21 23  2  0  0  0  0
 21 43  1  0  0  0  0
 22 52  1  0  0  0  0
 23 44  1  0  0  0  0
 24 26  2  0  0  0  0
 24 56  1  0  0  0  0
 25 68  1  0  0  0  0
 26 73  1  0  0  0  0
 27 83  1  0  0  0  0
 28 84  1  0  0  0  0
 29 31  2  0  0  0  0
 29 83  1  0  0  0  0
 30 86  1  0  0  0  0
 31 87  1  0  0  0  0
 32 66  2  0  0  0  0
 33 67  1  0  0  0  0
 33 71  1  0  0  0  0
 34 36  2  0  0  0  0
 34 45  1  0  0  0  0
 34 53  1  0  0  0  0
 35 53  1  0  0  0  0
 35 68  1  0  0  0  0
 35 77  2  0  0  0  0
 36 84  1  0  0  0  0
 37 72  1  0  0  0  0
 37 78  2  0  0  0  0
 38 54  1  0  0  0  0
 38 74  1  0  0  0  0
 38 79  2  0  0  0  0
 39 63  1  0  0  0  0
 39 69  1  0  0  0  0
 39 80  2  0  0  0  0
 40 64  1  0  0  0  0
 40 75  1  0  0  0  0
 40 81  2  0  0  0  0
 41 70  1  0  0  0  0
 41 73  1  0  0  0  0
 41 82  2  0  0  0  0
 42 46  1  0  0  0  0
 43 54  1  0  0  0  0
 44 69  1  0  0  0  0
 45 68  1  0  0  0  0
 46 48  1  0  0  0  0
 47 49  1  0  0  0  0
 47 50  1  0  0  0  0
 48 52  1  0  0  0  0
 49 55  1  0  0  0  0
 50 70  1  0  0  0  0
 51 55  1  0  0  0  0
 51 70  1  0  0  0  0
 52 74  1  0  0  0  0
 53 85  1  0  0  0  0
 54 69  1  0  0  0  0
 55 67  1  0  0  0  0
 57 64  1  0  0  0  0
 58 65  1  0  0  0  0
 59 65  1  0  0  0  0
 60 65  1  0  0  0  0
 61 76  1  0  0  0  0
 62 85  1  0  0  0  0
 63 65  1  0  0  0  0
 63 75  1  0  0  0  0
 64 76  1  0  0  0  0
 66 67  1  0  0  0  0
M  CHG  1  76   1
M  ISO  4  36 101  41 100  73 100  84 101
M  END
> <Batch ID>
0069

> <Smiles>
CNC(C)C(=O)NC(C(=O)N1Cc2cc([101O:1][101CH:1]=C3CN(c4ccc([100NH:0][100C:0](=O)N5CCCC(n6nc(-c7ccc(Oc8ccc(F)cc8F)cc7)c(C(N)=O)c6N)C5)c(C)c4)C(=O)C3OC)ccc2CC1C(=O)NC1CCCc2ccccc21)C(C)(C)C

> <Shape>
0.330

> <Color>
0.117

> <Negative vol penalty>
0.000

$$$$

  -OEChem-04042323303D

 86 94  0     1  0  0  0  0  0999 V2000
  -32.0596  -15.3833   20.0359 C   0  0  0  0  0  0  0  0  0  0  0  0
  -31.0561  -16.3344   19.8820 C   0  0  0  0  0  0  0  0  0  0  0  0
  -28.8234  -28.7009   20.3718 C   0  0  0  0  0  0  0  0  0  0  0  0
  -27.1440  -27.1391   19.6122 C   0  0  0  0  0  0  0  0  0  0  0  0
  -31.7323  -14.0293   20.0934 C   0  0  0  0  0  0  0  0  0  0  0  0
  -29.7246  -15.9319   19.7845 C   0  0  0  0  0  0  0  0  0  0  0  0
  -26.6282  -18.7555   22.6279 C   0  0  0  0  0  0  0  0  0  0  0  0
  -19.7065  -25.4794   22.8107 C   0  0  0  0  0  0  0  0  0  0  0  0
  -18.6976  -26.3060   23.3050 C   0  0  0  0  0  0  0  0  0  0  0  0
  -29.8081  -27.7294   20.1925 C   0  0  0  0  0  0  0  0  0  0  0  0
  -28.1286  -26.1675   19.4329 C   0  0  0  0  0  0  0  0  0  0  0  0
  -26.2774  -20.0109   22.1332 C   0  0  0  0  0  0  0  0  0  0  0  0
  -29.8936  -24.0235   21.3614 C   0  0  0  0  0  0  0  0  0  0  0  0
  -29.6260  -22.7360   21.8265 C   0  0  0  0  0  0  0  0  0  0  0  0
  -24.1674  -19.1173   21.3790 C   0  0  0  0  0  0  0  0  0  0  0  0
  -21.0138  -27.4250   22.2252 C   0  0  0  0  0  0  0  0  0  0  0  0
  -29.8814  -21.8730   19.5844 C   0  0  0  0  0  0  0  0  0  0  0  0
  -27.4913  -28.4058   20.0817 C   0  0  0  0  0  0  0  0  0  0  0  0
  -26.0255  -30.3503   19.3214 C   0  0  0  0  0  0  0  0  0  0  0  0
  -30.3953  -13.6105   20.0063 C   0  0  0  0  0  0  0  0  0  0  0  0
  -25.7544  -17.6672   22.4920 C   0  0  0  0  0  0  0  0  0  0  0  0
  -29.3792  -14.5708   19.8397 C   0  0  0  0  0  0  0  0  0  0  0  0
  -24.5084  -17.8498   21.8751 C   0  0  0  0  0  0  0  0  0  0  0  0
  -20.0048  -28.2516   22.7194 C   0  0  0  0  0  0  0  0  0  0  0  0
  -20.8647  -26.0389   22.2709 C   0  0  0  0  0  0  0  0  0  0  0  0
  -18.8467  -27.6921   23.2593 C   0  0  0  0  0  0  0  0  0  0  0  0
  -29.4607  -26.4627   19.7230 C   0  0  0  0  0  0  0  0  0  0  0  0
  -25.0480  -20.1912   21.5060 C   0  0  0  0  0  0  0  0  0  0  0  0
  -30.1550  -24.2358   20.0077 C   0  0  0  0  0  0  0  0  0  0  0  0
  -29.6199  -21.6608   20.9380 C   0  0  0  0  0  0  0  0  0  0  0  0
  -30.1490  -23.1605   19.1193 C   0  0  0  0  0  0  0  0  0  0  0  0
  -26.4737  -29.4088   20.2672 C   0  0  0  0  0  0  0  0  0  0  0  0
  -25.0584  -31.0674   19.9825 C   0  0  0  0  0  0  0  0  0  0  0  0
  -23.5803  -22.0123   21.5218 C   0  0  0  0  0  0  0  0  0  1  0  0
  -26.4458  -30.5580   17.9665 C   0  0  0  0  0  0  0  0  0  0  0  0
  -23.1343  -23.2109   21.1312 C   0  0  0  0  0  0  0  0  0  0  0  0
  -21.8967  -23.8093   21.7271 C   0  0  0  0  0  0  0  0  0  0  0  0
  -25.8907  -14.8506   21.0251 C   0  0  0  0  0  0  0  0  0  0  0  0
  -23.0522  -14.3725   22.5206 C   0  0  0  0  0  0  0  0  0  0  0  0
  -20.8621  -30.2313   23.9117 C   0  0  0  0  0  0  0  0  0  0  0  0
  -20.2704  -15.7293   23.9585 C   0  0  0  0  0  0  0  0  0  0  0  0
  -30.0946  -12.1327   20.0261 C   0  0  0  0  0  0  0  0  0  0  0  0
  -26.1365  -16.3257   23.0548 C   0  0  0  0  0  0  0  0  0  0  0  0
  -23.5260  -16.7184   21.7221 C   0  0  0  0  0  0  0  0  0  0  0  0
  -28.6256  -11.8135   20.2915 C   0  0  0  0  0  0  0  0  0  0  0  0
  -23.9384  -31.8815   24.7198 C   0  0  0  0  0  0  0  0  0  0  0  0
  -27.7243  -12.6900   19.4276 C   0  0  0  0  0  0  0  0  0  0  0  0
  -24.8724  -31.4783   23.5795 C   0  0  0  0  0  0  0  0  0  0  0  0
  -22.9779  -30.7526   25.0805 C   0  0  0  0  0  0  0  0  0  0  0  0
  -23.1088  -29.8406   22.7842 C   0  0  0  0  0  0  0  0  0  0  0  0
  -27.9210  -14.1751   19.7552 C   0  0  1  0  0  0  0  0  0  0  0  0
  -25.3850  -15.1686   22.4038 C   0  0  1  0  0  0  0  0  0  0  0  0
  -24.0753  -30.9635   22.3679 C   0  0  2  0  0  0  0  0  0  0  0  0
  -18.1081  -15.0860   25.0576 C   0  0  0  0  0  0  0  0  0  0  0  0
  -21.8733  -13.6830   19.7921 C   0  0  0  0  0  0  0  0  0  0  0  0
  -19.5922  -13.9842   20.7792 C   0  0  0  0  0  0  0  0  0  0  0  0
  -21.1070  -12.2097   21.6621 C   0  0  0  0  0  0  0  0  0  0  0  0
  -21.0261  -17.0632   26.4900 C   0  0  0  0  0  0  0  0  0  0  0  0
  -21.6055  -14.6342   22.1774 C   0  0  1  0  0  0  0  0  0  0  0  0
  -19.5719  -15.4366   25.2742 C   0  0  2  0  0  0  0  0  0  0  0  0
  -20.1900  -29.7330   22.6571 C   0  0  0  0  0  0  0  0  0  0  0  0
  -21.0636  -13.6488   21.1037 C   0  0  0  0  0  0  0  0  0  0  0  0
  -25.8432  -29.5157   21.4399 N   0  0  0  0  0  0  0  0  0  0  0  0
  -24.9891  -30.5329   21.2353 N   0  0  0  0  0  0  0  0  0  0  0  0
  -23.9482  -15.4244   22.2831 N   0  0  0  0  0  0  0  0  0  0  0  0
  -22.2563  -30.2763   23.8991 N   0  0  0  0  0  0  0  0  0  0  0  0
  -17.8150  -28.5134   23.7647 N   0  0  0  0  0  0  0  0  0  0  0  0
  -24.2692  -32.0968   19.6085 N   0  0  0  0  0  0  0  0  0  0  0  0
  -27.4509  -29.7322   17.4446 N   0  0  0  0  0  0  0  0  0  0  0  0
  -21.8902  -25.1975   21.7678 N   0  0  0  0  0  0  0  0  0  0  0  0
  -27.2312  -14.5181   20.9804 N   0  0  0  0  0  0  0  0  0  0  0  0
  -20.8746  -14.6037   23.4396 N   0  0  0  0  0  0  0  0  0  0  0  0
  -23.8449  -23.9356   20.1476 N   0  3  0  0  0  0  0  0  0  0  0  0
  -19.6431  -16.6228   26.1735 N   0  3  0  0  0  0  0  0  0  0  0  0
  -25.9565  -31.4601   17.2453 O   0  0  0  0  0  0  0  0  0  0  0  0
  -21.0000  -23.0665   22.1209 O   0  0  0  0  0  0  0  0  0  0  0  0
  -25.1213  -14.9016   20.0727 O   0  0  0  0  0  0  0  0  0  0  0  0
  -23.3741  -13.2777   22.9890 O   0  0  0  0  0  0  0  0  0  0  0  0
  -20.1670  -30.5728   24.8721 O   0  0  0  0  0  0  0  0  0  0  0  0
  -20.2760  -16.8440   23.4409 O   0  0  0  0  0  0  0  0  0  0  0  0
  -30.4213  -25.5145   19.5477 O   0  0  0  0  0  0  0  0  0  0  0  0
  -24.7033  -21.4154   21.0217 O   0  0  0  0  0  0  0  0  0  1  0  0
  -29.3644  -20.4242   21.3850 F   0  0  0  0  0  0  0  0  0  0  0  0
  -30.4006  -23.3581   17.8179 F   0  0  0  0  0  0  0  0  0  0  0  0
  -20.9378  -30.1234   21.5755 F   0  0  0  0  0  0  0  0  0  0  0  0
  -19.0039  -30.4040   22.5002 F   0  0  0  0  0  0  0  0  0  0  0  0
  1  2  1  0  0  0  0
  1  5  2  0  0  0  0
  2  6  2  0  0  0  0
  3 10  2  0  0  0  0
  3 18  1  0  0  0  0
  4 11  1  0  0  0  0
  4 18  2  0  0  0  0
  5 20  1  0  0  0  0
  6 22  1  0  0  0  0
  7 12  2  0  0  0  0
  7 21  1  0  0  0  0
  8  9  2  0  0  0  0
  8 25  1  0  0  0  0
  9 26  1  0  0  0  0
 10 27  1  0  0  0  0
 11 27  2  0  0  0  0
 12 28  1  0  0  0  0
 13 14  2  0  0  0  0
 13 29  1  0  0  0  0
 14 30  1  0  0  0  0
 15 23  1  0  0  0  0
 15 28  2  0  0  0  0
 16 24  1  0  0  0  0
 16 25  2  0  0  0  0
 17 30  2  0  0  0  0
 17 31  1  0  0  0  0
 18 32  1  0  0  0  0
 19 32  1  0  0  0  0
 19 33  2  0  0  0  0
 19 35  1  0  0  0  0
 20 22  2  0  0  0  0
 20 42  1  0  0  0  0
 21 23  2  0  0  0  0
 21 43  1  0  0  0  0
 22 51  1  0  0  0  0
 23 44  1  0  0  0  0
 24 26  2  0  0  0  0
 24 61  1  0  0  0  0
 25 70  1  0  0  0  0
 26 67  1  0  0  0  0
 27 81  1  0  0  0  0
 28 82  1  0  0  0  0
 29 31  2  0  0  0  0
 29 81  1  0  0  0  0
 30 83  1  0  0  0  0
 31 84  1  0  0  0  0
 32 63  2  0  0  0  0
 33 64  1  0  0  0  0
 33 68  1  0  0  0  0
 34 36  2  0  0  0  0
 34 82  1  0  0  0  0
 35 69  1  0  0  0  0
 35 75  2  0  0  0  0
 36 37  1  0  0  0  0
 36 73  1  0  0  0  0
 37 70  1  0  0  0  0
 37 76  2  0  0  0  0
 38 52  1  0  0  0  0
 38 71  1  0  0  0  0
 38 77  2  0  0  0  0
 39 59  1  0  0  0  0
 39 65  1  0  0  0  0
 39 78  2  0  0  0  0
 40 61  1  0  0  0  0
 40 66  1  0  0  0  0
 40 79  2  0  0  0  0
 41 60  1  0  0  0  0
 41 72  1  0  0  0  0
 41 80  2  0  0  0  0
 42 45  1  0  0  0  0
 43 52  1  0  0  0  0
 44 65  1  0  0  0  0
 45 47  1  0  0  0  0
 46 48  1  0  0  0  0
 46 49  1  0  0  0  0
 47 51  1  0  0  0  0
 48 53  1  0  0  0  0
 49 66  1  0  0  0  0
 50 53  1  0  0  0  0
 50 66  1  0  0  0  0
 51 71  1  0  0  0  0
 52 65  1  0  0  0  0
 53 64  1  0  0  0  0
 54 60  1  0  0  0  0
 55 62  1  0  0  0  0
 56 62  1  0  0  0  0
 57 62  1  0  0  0  0
 58 74  1  0  0  0  0
 59 62  1  0  0  0  0
 59 72  1  0  0  0  0
 60 74  1  0  0  0  0
 61 85  1  0  0  0  0
 61 86  1  0  0  0  0
 63 64  1  0  0  0  0
M  CHG  2  73   1  74   1
M  ISO  4  34 101  40 100  61 100  82 101
M  END
> <Batch ID>
0069

> <Smiles>
CNC(C)C(=O)NC(C(=O)N1Cc2cc([101O:1][101CH2:1]C(=N)C(=O)Nc3ccc(N)c([100C:0](F)(F)[100C:0](=O)N4CCCC(n5nc(-c6ccc(Oc7ccc(F)cc7F)cc6)c(C(N)=O)c5N)C4)c3)ccc2CC1C(=O)NC1CCCc2ccccc21)C(C)(C)C

> <Shape>
0.270

> <Color>
0.056

> <Negative vol penalty>
0.000

$$$$

  -OEChem-04042323303D

 87 96  0     1  0  0  0  0  0999 V2000
  -25.8777  -35.4931   22.7773 C   0  0  0  0  0  0  0  0  0  0  0  0
  -26.4529  -34.2379   22.6070 C   0  0  0  0  0  0  0  0  0  0  0  0
  -24.3594  -12.3768   21.1513 C   0  0  0  0  0  0  0  0  0  0  0  0
  -25.9067  -12.4319   19.2966 C   0  0  0  0  0  0  0  0  0  0  0  0
  -24.5868  -35.6030   23.2924 C   0  0  0  0  0  0  0  0  0  0  0  0
  -25.7379  -33.0918   22.9528 C   0  0  0  0  0  0  0  0  0  0  0  0
  -26.0779  -29.4571   19.4431 C   0  0  0  0  0  0  0  0  0  0  0  0
  -23.7730  -11.2246   20.6279 C   0  0  0  0  0  0  0  0  0  0  0  0
  -25.3203  -11.2796   18.7731 C   0  0  0  0  0  0  0  0  0  0  0  0
  -27.2527  -28.7069   19.4150 C   0  0  0  0  0  0  0  0  0  0  0  0
  -24.4538   -7.9145   20.5139 C   0  0  0  0  0  0  0  0  0  0  0  0
  -24.1852   -6.8666   21.3943 C   0  0  0  0  0  0  0  0  0  0  0  0
  -30.4693  -21.4782   16.2889 C   0  0  0  0  0  0  0  0  0  0  0  0
  -28.9787  -19.5975   16.5677 C   0  0  0  0  0  0  0  0  0  0  0  0
  -26.1412  -26.9326   20.6132 C   0  0  0  0  0  0  0  0  0  0  0  0
  -28.5097  -21.6868   17.6866 C   0  0  0  0  0  0  0  0  0  0  0  0
  -21.8355   -7.0126   20.8514 C   0  0  0  0  0  0  0  0  0  0  0  0
  -25.4263  -12.9805   20.4856 C   0  0  0  0  0  0  0  0  0  0  0  0
  -30.1288  -20.1549   16.0090 C   0  0  0  0  0  0  0  0  0  0  0  0
  -27.1108  -14.2421   21.9272 C   0  0  0  0  0  0  0  0  0  0  0  0
  -23.8519  -34.4572   23.6357 C   0  0  0  0  0  0  0  0  0  0  0  0
  -24.9271  -28.9543   20.0670 C   0  0  0  0  0  0  0  0  0  0  0  0
  -24.4364  -33.1865   23.4743 C   0  0  0  0  0  0  0  0  0  0  0  0
  -24.9523  -27.6773   20.6456 C   0  0  0  0  0  0  0  0  0  0  0  0
  -29.6597  -22.2442   17.1278 C   0  0  0  0  0  0  0  0  0  0  0  0
  -28.1691  -20.3634   17.4066 C   0  0  0  0  0  0  0  0  0  0  0  0
  -24.2534  -10.6759   19.4388 C   0  0  0  0  0  0  0  0  0  0  0  0
  -27.2853  -27.4457   20.0027 C   0  0  0  0  0  0  0  0  0  0  0  0
  -23.4132   -8.5116   19.8022 C   0  0  0  0  0  0  0  0  0  0  0  0
  -22.8761   -6.4156   21.5631 C   0  0  0  0  0  0  0  0  0  0  0  0
  -22.1041   -8.0607   19.9710 C   0  0  0  0  0  0  0  0  0  0  0  0
  -26.0321  -14.1712   21.0255 C   0  0  0  0  0  0  0  0  0  0  0  0
  -27.3035  -15.5873   22.1269 C   0  0  0  0  0  0  0  0  0  0  0  0
  -31.1290  -24.2967   16.9282 C   0  0  0  0  0  0  0  0  0  0  0  0
  -30.9679  -19.3608   15.1391 C   0  0  0  0  0  0  0  0  0  0  0  0
  -27.8707  -13.1865   22.5304 C   0  0  0  0  0  0  0  0  0  0  0  0
  -23.1321  -29.8612   22.5286 C   0  0  0  0  0  0  0  0  0  0  0  0
  -21.2480  -27.4055   21.5581 C   0  0  0  0  0  0  0  0  0  0  0  0
  -20.9866  -24.4349   19.8986 C   0  0  0  0  0  0  0  0  0  0  0  0
  -26.0896  -20.4190   18.8274 C   0  0  0  0  0  0  0  0  0  0  0  0
  -22.4777  -34.6282   24.2332 C   0  0  0  0  0  0  0  0  0  0  0  0
  -23.6600  -29.7649   20.0652 C   0  0  0  0  0  0  0  0  0  0  0  0
  -23.7381  -27.0837   21.3102 C   0  0  0  0  0  0  0  0  0  0  0  0
  -31.0207  -25.7220   17.4201 C   0  0  0  0  0  0  0  0  0  0  0  0
  -21.6460  -33.3482   24.2240 C   0  0  0  0  0  0  0  0  0  0  0  0
  -24.9355  -19.7499   22.1285 C   0  0  0  0  0  0  0  0  0  0  0  0
  -22.4748  -32.1694   24.7245 C   0  0  0  0  0  0  0  0  0  0  0  0
  -25.1896  -18.2510   22.3046 C   0  0  0  0  0  0  0  0  0  0  0  0
  -24.4959  -20.0873   20.7049 C   0  0  0  0  0  0  0  0  0  0  0  0
  -29.1595  -24.4604   18.2150 C   0  0  0  0  0  0  0  0  0  0  0  0
  -25.6379  -18.0906   19.8226 C   0  0  0  0  0  0  0  0  0  0  0  0
  -23.6833  -31.9188   23.8145 C   0  0  1  0  0  0  0  0  0  0  0  0
  -22.6952  -29.3679   21.1783 C   0  0  1  0  0  0  0  0  0  0  0  0
  -30.0642  -25.6210   18.5997 C   0  0  2  0  0  0  0  0  0  0  0  0
  -26.1456  -17.7106   21.2231 C   0  0  2  0  0  0  0  0  0  0  0  0
  -19.3269  -22.6477   19.3081 C   0  0  0  0  0  0  0  0  0  0  0  0
  -21.3941  -26.3310   24.4102 C   0  0  0  0  0  0  0  0  0  0  0  0
  -20.5577  -24.1332   23.5508 C   0  0  0  0  0  0  0  0  0  0  0  0
  -19.1346  -26.1722   23.3500 C   0  0  0  0  0  0  0  0  0  0  0  0
  -21.3462  -24.8970   16.9975 C   0  0  0  0  0  0  0  0  0  0  0  0
  -29.3042  -26.9088   18.8660 C   0  0  0  0  0  0  0  0  0  1  0  0
  -21.1697  -25.9304   21.8695 C   0  0  1  0  0  0  0  0  0  0  0  0
  -19.9896  -23.9428   18.8651 C   0  0  2  0  0  0  0  0  0  0  0  0
  -20.5877  -25.6534   23.2844 C   0  0  0  0  0  0  0  0  0  0  0  0
  -25.5717  -15.3754   20.6765 N   0  0  0  0  0  0  0  0  0  0  0  0
  -26.3649  -16.2158   21.3626 N   0  0  0  0  0  0  0  0  0  0  0  0
  -30.0079  -23.5981   17.4139 N   0  0  0  0  0  0  0  0  0  0  0  0
  -22.5250  -27.9176   21.2881 N   0  0  0  0  0  0  0  0  0  0  0  0
  -25.4513  -19.5474   19.7350 N   0  0  0  0  0  0  0  0  0  0  0  0
  -28.1826  -16.2820   22.8799 N   0  0  0  0  0  0  0  0  0  0  0  0
  -32.0775  -19.8886   14.5955 N   0  0  0  0  0  0  0  0  0  0  0  0
  -27.5400  -11.8613   22.2161 N   0  0  0  0  0  0  0  0  0  0  0  0
  -27.0013  -19.7970   17.9751 N   0  0  0  0  0  0  0  0  0  0  0  0
  -23.2735  -31.2336   22.6074 N   0  0  0  0  0  0  0  0  0  0  0  0
  -20.4104  -25.3233   20.7817 N   0  0  0  0  0  0  0  0  0  0  0  0
  -30.6495  -18.0846   14.8647 N   0  3  0  0  0  0  0  0  0  0  0  0
  -20.6712  -23.7002   17.5622 N   0  3  0  0  0  0  0  0  0  0  0  0
  -32.0324  -23.9232   16.1940 O   0  0  0  0  0  0  0  0  0  0  0  0
  -28.8045  -13.4114   23.3373 O   0  0  0  0  0  0  0  0  0  0  0  0
  -23.3252  -29.0566   23.4324 O   0  0  0  0  0  0  0  0  0  0  0  0
  -20.2134  -28.0771   21.5477 O   0  0  0  0  0  0  0  0  0  0  0  0
  -22.1585  -24.0651   19.9225 O   0  0  0  0  0  0  0  0  0  0  0  0
  -25.8655  -21.6321   18.8259 O   0  0  0  0  0  0  0  0  0  0  0  0
  -23.6816   -9.5514   18.9279 O   0  0  0  0  0  0  0  0  0  0  0  0
  -28.4310  -26.7117   19.9774 O   0  0  0  0  0  0  0  0  0  1  0  0
  -22.6185   -5.4082   22.4075 F   0  0  0  0  0  0  0  0  0  0  0  0
  -21.1005   -8.6295   19.2892 F   0  0  0  0  0  0  0  0  0  0  0  0
  1  2  1  0  0  0  0
  1  5  2  0  0  0  0
  2  6  2  0  0  0  0
  3  8  2  0  0  0  0
  3 18  1  0  0  0  0
  4  9  1  0  0  0  0
  4 18  2  0  0  0  0
  5 21  1  0  0  0  0
  6 23  1  0  0  0  0
  7 10  2  0  0  0  0
  7 22  1  0  0  0  0
  8 27  1  0  0  0  0
  9 27  2  0  0  0  0
 10 28  1  0  0  0  0
 11 12  2  0  0  0  0
 11 29  1  0  0  0  0
 12 30  1  0  0  0  0
 13 19  1  0  0  0  0
 13 25  2  0  0  0  0
 14 19  2  0  0  0  0
 14 26  1  0  0  0  0
 15 24  1  0  0  0  0
 15 28  2  0  0  0  0
 16 25  1  0  0  0  0
 16 26  2  0  0  0  0
 17 30  2  0  0  0  0
 17 31  1  0  0  0  0
 18 32  1  0  0  0  0
 19 35  1  0  0  0  0
 20 32  1  0  0  0  0
 20 33  2  0  0  0  0
 20 36  1  0  0  0  0
 21 23  2  0  0  0  0
 21 41  1  0  0  0  0
 22 24  2  0  0  0  0
 22 42  1  0  0  0  0
 23 52  1  0  0  0  0
 24 43  1  0  0  0  0
 25 67  1  0  0  0  0
 26 73  1  0  0  0  0
 27 84  1  0  0  0  0
 28 85  1  0  0  0  0
 29 31  2  0  0  0  0
 29 84  1  0  0  0  0
 30 86  1  0  0  0  0
 31 87  1  0  0  0  0
 32 65  2  0  0  0  0
 33 66  1  0  0  0  0
 33 70  1  0  0  0  0
 34 44  1  0  0  0  0
 34 67  1  0  0  0  0
 34 78  2  0  0  0  0
 35 71  1  0  0  0  0
 35 76  2  0  0  0  0
 36 72  1  0  0  0  0
 36 79  2  0  0  0  0
 37 53  1  0  0  0  0
 37 74  1  0  0  0  0
 37 80  2  0  0  0  0
 38 62  1  0  0  0  0
 38 68  1  0  0  0  0
 38 81  2  0  0  0  0
 39 63  1  0  0  0  0
 39 75  1  0  0  0  0
 39 82  2  0  0  0  0
 40 69  1  0  0  0  0
 40 73  1  0  0  0  0
 40 83  2  0  0  0  0
 41 45  1  0  0  0  0
 42 53  1  0  0  0  0
 43 68  1  0  0  0  0
 44 54  1  0  0  0  0
 45 47  1  0  0  0  0
 46 48  1  0  0  0  0
 46 49  1  0  0  0  0
 47 52  1  0  0  0  0
 48 55  1  0  0  0  0
 49 69  1  0  0  0  0
 50 54  1  0  0  0  0
 50 67  1  0  0  0  0
 51 55  1  0  0  0  0
 51 69  1  0  0  0  0
 52 74  1  0  0  0  0
 53 68  1  0  0  0  0
 54 61  1  0  0  0  0
 55 66  1  0  0  0  0
 56 63  1  0  0  0  0
 57 64  1  0  0  0  0
 58 64  1  0  0  0  0
 59 64  1  0  0  0  0
 60 77  1  0  0  0  0
 61 85  1  0  0  0  0
 62 64  1  0  0  0  0
 62 75  1  0  0  0  0
 63 77  1  0  0  0  0
 65 66  1  0  0  0  0
M  CHG  2  76   1  77   1
M  ISO  4  40 100  61 101  73 100  85 101
M  END
> <Batch ID>
0069

> <Smiles>
CNC(C)C(=O)NC(C(=O)N1Cc2cc([101O:1][101CH2:1]C3CC(=O)N(c4cc([100NH:0][100C:0](=O)N5CCCC(n6nc(-c7ccc(Oc8ccc(F)cc8F)cc7)c(C(N)=O)c6N)C5)cc(C(=N)N)c4)C3)ccc2CC1C(=O)NC1CCCc2ccccc21)C(C)(C)C

> <Shape>
0.241

> <Color>
0.075

> <Negative vol penalty>
0.000

$$$$

  -OEChem-04042323303D

 88 96  0     1  0  0  0  0  0999 V2000
  -31.8434  -29.2982   16.0120 C   0  0  0  0  0  0  0  0  0  0  0  0
  -31.4160  -28.1672   16.7003 C   0  0  0  0  0  0  0  0  0  0  0  0
  -23.0120  -15.8034   20.3595 C   0  0  0  0  0  0  0  0  0  0  0  0
  -22.5514  -14.0224   18.7932 C   0  0  0  0  0  0  0  0  0  0  0  0
  -31.4538  -30.5649   16.4449 C   0  0  0  0  0  0  0  0  0  0  0  0
  -30.5996  -28.3025   17.8226 C   0  0  0  0  0  0  0  0  0  0  0  0
  -26.7381  -25.0262   17.8224 C   0  0  0  0  0  0  0  0  0  0  0  0
  -29.5376  -19.2215   24.6245 C   0  0  0  0  0  0  0  0  0  0  0  0
  -30.3429  -18.2140   25.1555 C   0  0  0  0  0  0  0  0  0  0  0  0
  -21.9532  -16.5418   19.8313 C   0  0  0  0  0  0  0  0  0  0  0  0
  -21.4924  -14.7609   18.2650 C   0  0  0  0  0  0  0  0  0  0  0  0
  -27.0182  -23.7119   18.1936 C   0  0  0  0  0  0  0  0  0  0  0  0
  -21.3723  -18.4723   17.1183 C   0  0  0  0  0  0  0  0  0  0  0  0
  -21.5915  -19.8256   16.8615 C   0  0  0  0  0  0  0  0  0  0  0  0
  -29.9676  -18.3912   22.3968 C   0  0  0  0  0  0  0  0  0  0  0  0
  -26.1563  -24.1582   20.4020 C   0  0  0  0  0  0  0  0  0  0  0  0
  -19.8177  -20.4042   18.3965 C   0  0  0  0  0  0  0  0  0  0  0  0
  -23.3112  -14.5437   19.8404 C   0  0  0  0  0  0  0  0  0  0  0  0
  -30.7729  -17.3837   22.9278 C   0  0  0  0  0  0  0  0  0  0  0  0
  -24.3527  -12.8591   21.4482 C   0  0  0  0  0  0  0  0  0  0  0  0
  -30.6244  -30.7153   17.5674 C   0  0  0  0  0  0  0  0  0  0  0  0
  -26.1741  -25.9210   18.7431 C   0  0  0  0  0  0  0  0  0  0  0  0
  -30.1997  -29.5726   18.2717 C   0  0  0  0  0  0  0  0  0  0  0  0
  -25.8676  -25.4826   20.0393 C   0  0  0  0  0  0  0  0  0  0  0  0
  -29.3499  -19.3101   23.2451 C   0  0  0  0  0  0  0  0  0  0  0  0
  -30.9606  -17.2951   24.3072 C   0  0  0  0  0  0  0  0  0  0  0  0
  -21.1933  -16.0206   18.7841 C   0  0  0  0  0  0  0  0  0  0  0  0
  -26.7300  -23.2785   19.4844 C   0  0  0  0  0  0  0  0  0  0  0  0
  -20.3757  -18.0848   18.0141 C   0  0  0  0  0  0  0  0  0  0  0  0
  -20.8143  -20.7916   17.5006 C   0  0  0  0  0  0  0  0  0  0  0  0
  -19.5985  -19.0508   18.6532 C   0  0  0  0  0  0  0  0  0  0  0  0
  -24.4052  -13.7806   20.3852 C   0  0  0  0  0  0  0  0  0  0  0  0
  -25.6443  -12.4101   21.5775 C   0  0  0  0  0  0  0  0  0  0  0  0
  -31.4168  -16.4199   21.9986 C   0  0  0  0  0  0  0  0  0  0  0  0
  -23.2363  -12.4458   22.2472 C   0  0  0  0  0  0  0  0  0  0  0  0
  -27.0961  -28.6636   20.0591 C   0  0  0  0  0  0  0  0  0  0  0  0
  -24.0945  -28.6328   21.2886 C   0  0  0  0  0  0  0  0  0  0  0  0
  -28.2391  -20.5651   21.3676 C   0  0  0  0  0  0  0  0  0  0  0  0
  -21.3582  -26.8116   22.2064 C   0  0  0  0  0  0  0  0  0  0  0  0
  -30.9458  -14.7426   20.2412 C   0  0  0  0  0  0  0  0  0  0  0  0
  -30.2682  -32.1074   18.0256 C   0  0  0  0  0  0  0  0  0  0  0  0
  -25.8532  -27.3280   18.3191 C   0  0  0  0  0  0  0  0  0  0  0  0
  -25.2430  -26.3982   21.0591 C   0  0  0  0  0  0  0  0  0  0  0  0
  -29.0956  -32.1460   19.0021 C   0  0  0  0  0  0  0  0  0  0  0  0
  -29.6352  -11.6948   19.0203 C   0  0  0  0  0  0  0  0  0  0  0  0
  -29.2677  -31.0855   20.0850 C   0  0  0  0  0  0  0  0  0  0  0  0
  -28.1412  -11.7898   19.3415 C   0  0  0  0  0  0  0  0  0  0  0  0
  -30.2104  -13.0441   18.5919 C   0  0  0  0  0  0  0  0  0  0  0  0
  -28.4586  -14.2477   19.8331 C   0  0  0  0  0  0  0  0  0  0  0  0
  -29.2932  -29.6772   19.4790 C   0  0  1  0  0  0  0  0  0  0  0  0
  -25.7534  -28.2977   19.4927 C   0  0  1  0  0  0  0  0  0  0  0  0
  -27.8480  -12.9301   20.3371 C   0  0  1  0  0  0  0  0  0  0  0  0
  -19.0741  -27.0606   23.2155 C   0  0  0  0  0  0  0  0  0  0  0  0
  -25.3541  -28.9962   24.0438 C   0  0  0  0  0  0  0  0  0  0  0  0
  -23.1749  -28.2925   25.0560 C   0  0  0  0  0  0  0  0  0  0  0  0
  -23.2894  -30.3524   23.6536 C   0  0  0  0  0  0  0  0  0  0  0  0
  -20.0437  -25.7286   19.7860 C   0  0  0  0  0  0  0  0  0  0  0  0
  -30.4256  -13.9983   24.4136 C   0  0  0  0  0  0  0  0  0  0  0  0
  -27.3225  -21.7654   21.2210 C   0  0  0  0  0  0  0  0  0  1  0  0
  -23.4592  -28.0868   22.5444 C   0  0  1  0  0  0  0  0  0  0  0  0
  -19.8788  -27.0056   21.9263 C   0  0  2  0  0  0  0  0  0  0  0  0
  -23.8329  -28.9150   23.8060 C   0  0  0  0  0  0  0  0  0  0  0  0
  -25.6330  -13.9105   19.8756 N   0  0  0  0  0  0  0  0  0  0  0  0
  -26.3640  -13.0648   20.6216 N   0  0  0  0  0  0  0  0  0  0  0  0
  -24.9540  -27.7663   20.5985 N   0  0  0  0  0  0  0  0  0  0  0  0
  -29.8980  -14.0669   19.5917 N   0  0  0  0  0  0  0  0  0  0  0  0
  -26.2233  -11.5232   22.4145 N   0  0  0  0  0  0  0  0  0  0  0  0
  -21.9798  -13.0065   21.9804 N   0  0  0  0  0  0  0  0  0  0  0  0
  -28.5327  -20.3324   22.7069 N   0  0  0  0  0  0  0  0  0  0  0  0
  -31.7812  -16.2699   24.8745 N   0  0  0  0  0  0  0  0  0  0  0  0
  -30.5445  -15.6698   21.2093 N   0  0  0  0  0  0  0  0  0  0  0  0
  -27.9526  -29.2465   19.1446 N   0  0  0  0  0  0  0  0  0  0  0  0
  -22.0263  -28.0156   22.2793 N   0  0  0  0  0  0  0  0  0  0  0  0
  -19.3578  -25.8841   21.0946 N   0  3  0  0  0  0  0  0  0  0  0  0
  -32.6425  -16.3657   21.9481 O   0  0  0  0  0  0  0  0  0  0  0  0
  -23.3527  -11.6165   23.1811 O   0  0  0  0  0  0  0  0  0  0  0  0
  -27.3368  -28.4355   21.2388 O   0  0  0  0  0  0  0  0  0  0  0  0
  -23.8322  -29.7833   20.9292 O   0  0  0  0  0  0  0  0  0  0  0  0
  -28.6298  -19.9321   20.3923 O   0  0  0  0  0  0  0  0  0  0  0  0
  -21.8692  -25.7031   22.3502 O   0  0  0  0  0  0  0  0  0  0  0  0
  -32.1365  -14.5130   20.0071 O   0  0  0  0  0  0  0  0  0  0  0  0
  -32.0317  -14.2429   26.4454 O   0  0  0  0  0  0  0  0  0  0  0  0
  -29.8536  -15.5080   26.4730 O   0  0  0  0  0  0  0  0  0  0  0  0
  -20.1598  -16.7408   18.2686 O   0  0  0  0  0  0  0  0  0  0  0  0
  -27.0030  -21.9963   19.8494 O   0  0  0  0  0  0  0  0  0  1  0  0
  -21.0259  -22.0912   17.2551 F   0  0  0  0  0  0  0  0  0  0  0  0
  -18.6404  -18.6847   19.5158 F   0  0  0  0  0  0  0  0  0  0  0  0
  -31.0101  -15.0088   25.7559 S   0  0  0  0  0  0  0  0  0  0  0  0
  1  2  1  0  0  0  0
  1  5  2  0  0  0  0
  2  6  2  0  0  0  0
  3 10  2  0  0  0  0
  3 18  1  0  0  0  0
  4 11  1  0  0  0  0
  4 18  2  0  0  0  0
  5 21  1  0  0  0  0
  6 23  1  0  0  0  0
  7 12  2  0  0  0  0
  7 22  1  0  0  0  0
  8  9  2  0  0  0  0
  8 25  1  0  0  0  0
  9 26  1  0  0  0  0
 10 27  1  0  0  0  0
 11 27  2  0  0  0  0
 12 28  1  0  0  0  0
 13 14  2  0  0  0  0
 13 29  1  0  0  0  0
 14 30  1  0  0  0  0
 15 19  1  0  0  0  0
 15 25  2  0  0  0  0
 16 24  1  0  0  0  0
 16 28  2  0  0  0  0
 17 30  2  0  0  0  0
 17 31  1  0  0  0  0
 18 32  1  0  0  0  0
 19 26  2  0  0  0  0
 19 34  1  0  0  0  0
 20 32  1  0  0  0  0
 20 33  2  0  0  0  0
 20 35  1  0  0  0  0
 21 23  2  0  0  0  0
 21 41  1  0  0  0  0
 22 24  2  0  0  0  0
 22 42  1  0  0  0  0
 23 50  1  0  0  0  0
 24 43  1  0  0  0  0
 25 69  1  0  0  0  0
 26 70  1  0  0  0  0
 27 84  1  0  0  0  0
 28 85  1  0  0  0  0
 29 31  2  0  0  0  0
 29 84  1  0  0  0  0
 30 86  1  0  0  0  0
 31 87  1  0  0  0  0
 32 63  2  0  0  0  0
 33 64  1  0  0  0  0
 33 67  1  0  0  0  0
 34 71  1  0  0  0  0
 34 75  2  0  0  0  0
 35 68  1  0  0  0  0
 35 76  2  0  0  0  0
 36 51  1  0  0  0  0
 36 72  1  0  0  0  0
 36 77  2  0  0  0  0
 37 60  1  0  0  0  0
 37 65  1  0  0  0  0
 37 78  2  0  0  0  0
 38 59  1  0  0  0  0
 38 69  1  0  0  0  0
 38 79  2  0  0  0  0
 39 61  1  0  0  0  0
 39 73  1  0  0  0  0
 39 80  2  0  0  0  0
 40 66  1  0  0  0  0
 40 71  1  0  0  0  0
 40 81  2  0  0  0  0
 41 44  1  0  0  0  0
 42 51  1  0  0  0  0
 43 65  1  0  0  0  0
 44 46  1  0  0  0  0
 45 47  1  0  0  0  0
 45 48  1  0  0  0  0
 46 50  1  0  0  0  0
 47 52  1  0  0  0  0
 48 66  1  0  0  0  0
 49 52  1  0  0  0  0
 49 66  1  0  0  0  0
 50 72  1  0  0  0  0
 51 65  1  0  0  0  0
 52 64  1  0  0  0  0
 53 61  1  0  0  0  0
 54 62  1  0  0  0  0
 55 62  1  0  0  0  0
 56 62  1  0  0  0  0
 57 74  1  0  0  0  0
 58 88  1  0  0  0  0
 59 85  1  0  0  0  0
 60 62  1  0  0  0  0
 60 73  1  0  0  0  0
 61 74  1  0  0  0  0
 63 64  1  0  0  0  0
 70 88  1  0  0  0  0
 82 88  2  0  0  0  0
 83 88  2  0  0  0  0
M  CHG  1  74   1
M  ISO  4  40 100  59 101  71 100  85 101
M  END
> <Batch ID>
0069

> <Smiles>
CNC(C)C(=O)NC(C(=O)N1Cc2cc([101O:1][101CH2:1]C(=O)Nc3ccc(NS(C)(=O)=O)c(C(=O)[100NH:0][100C:0](=O)N4CCCC(n5nc(-c6ccc(Oc7ccc(F)cc7F)cc6)c(C(N)=O)c5N)C4)c3)ccc2CC1C(=O)NC1CCCc2ccccc21)C(C)(C)C

> <Shape>
0.220

> <Color>
0.076

> <Negative vol penalty>
0.000

$$$$

  -OEChem-04042323303D

 84 92  0     1  0  0  0  0  0999 V2000
  -22.9407  -26.9095   19.9072 C   0  0  0  0  0  0  0  0  0  0  0  0
  -23.9369  -26.2127   20.5837 C   0  0  0  0  0  0  0  0  0  0  0  0
  -32.2601  -18.0086   23.2795 C   0  0  0  0  0  0  0  0  0  0  0  0
  -23.1192   -9.7540   20.0611 C   0  0  0  0  0  0  0  0  0  0  0  0
  -23.6915  -10.0727   22.3866 C   0  0  0  0  0  0  0  0  0  0  0  0
  -22.9439  -28.3037   19.9074 C   0  0  0  0  0  0  0  0  0  0  0  0
  -24.9374  -26.9098   21.2599 C   0  0  0  0  0  0  0  0  0  0  0  0
  -25.8586  -25.0091   25.8625 C   0  0  0  0  0  0  0  0  0  0  0  0
  -31.4091  -18.9509   23.8571 C   0  0  0  0  0  0  0  0  0  0  0  0
  -31.7391  -17.0101   22.4565 C   0  0  0  0  0  0  0  0  0  0  0  0
  -22.3800   -8.6202   20.3984 C   0  0  0  0  0  0  0  0  0  0  0  0
  -22.9523   -8.9390   22.7239 C   0  0  0  0  0  0  0  0  0  0  0  0
  -26.6305  -23.8501   25.9299 C   0  0  0  0  0  0  0  0  0  0  0  0
  -23.3513   -5.5832   22.6212 C   0  0  0  0  0  0  0  0  0  0  0  0
  -23.9266   -4.6753   23.5101 C   0  0  0  0  0  0  0  0  0  0  0  0
  -28.5633  -25.1776   26.4967 C   0  0  0  0  0  0  0  0  0  0  0  0
  -22.0901   -5.0128   25.0433 C   0  0  0  0  0  0  0  0  0  0  0  0
  -23.7750  -10.4802   21.0552 C   0  0  0  0  0  0  0  0  0  0  0  0
  -29.5161  -17.8960   22.7890 C   0  0  0  0  0  0  0  0  0  0  0  0
  -24.0766  -12.9790   20.6393 C   0  0  0  0  0  0  0  0  0  0  0  0
  -23.9395  -29.0183   20.5921 C   0  0  0  0  0  0  0  0  0  0  0  0
  -26.4366  -26.2642   26.1014 C   0  0  0  0  0  0  0  0  0  0  0  0
  -24.9547  -28.3149   21.2682 C   0  0  0  0  0  0  0  0  0  0  0  0
  -27.7959  -26.3508   26.4342 C   0  0  0  0  0  0  0  0  0  0  0  0
  -30.0372  -18.8946   23.6119 C   0  0  0  0  0  0  0  0  0  0  0  0
  -30.3671  -16.9538   22.2113 C   0  0  0  0  0  0  0  0  0  0  0  0
  -22.2965   -8.2127   21.7298 C   0  0  0  0  0  0  0  0  0  0  0  0
  -27.9837  -23.9345   26.2442 C   0  0  0  0  0  0  0  0  0  0  0  0
  -22.1454   -6.2060   22.9433 C   0  0  0  0  0  0  0  0  0  0  0  0
  -23.2960   -4.3901   24.7212 C   0  0  0  0  0  0  0  0  0  0  0  0
  -21.5148   -5.9208   24.1544 C   0  0  0  0  0  0  0  0  0  0  0  0
  -24.5392  -11.6511   20.7073 C   0  0  0  0  0  0  0  0  0  0  0  0
  -25.1798  -13.7084   20.2687 C   0  0  0  0  0  0  0  0  0  0  0  0
  -28.0783  -17.8350   22.5345 C   0  0  0  0  0  0  0  0  0  0  0  0
  -22.7668  -13.5059   20.8890 C   0  0  0  0  0  0  0  0  0  0  0  0
  -26.8512  -28.9064   24.3837 C   0  0  0  0  0  0  0  0  0  0  0  0
  -27.9457  -30.0959   27.1961 C   0  0  0  0  0  0  0  0  0  0  0  0
  -29.5707  -20.9101   25.0451 C   0  0  0  0  0  0  0  0  0  0  0  0
  -29.3129  -29.4871   30.2631 C   0  0  0  0  0  0  0  0  0  0  0  0
  -30.5929  -14.9280   20.7309 C   0  0  0  0  0  0  0  0  0  0  0  0
  -23.9282  -30.5249   20.5244 C   0  0  0  0  0  0  0  0  0  0  0  0
  -25.5842  -27.5025   26.0510 C   0  0  0  0  0  0  0  0  0  0  0  0
  -28.4599  -27.6723   26.7194 C   0  0  0  0  0  0  0  0  0  0  0  0
  -24.8110  -31.1886   21.5782 C   0  0  0  0  0  0  0  0  0  0  0  0
  -29.7198  -12.2028   18.6124 C   0  0  0  0  0  0  0  0  0  0  0  0
  -26.1761  -30.5102   21.6352 C   0  0  0  0  0  0  0  0  0  0  0  0
  -28.2561  -11.9256   18.9630 C   0  0  0  0  0  0  0  0  0  0  0  0
  -30.5305  -12.6083   19.8421 C   0  0  0  0  0  0  0  0  0  0  0  0
  -28.5048  -13.4449   20.9672 C   0  0  0  0  0  0  0  0  0  0  0  0
  -26.0430  -29.0355   22.0340 C   0  0  1  0  0  0  0  0  0  0  0  0
  -26.3915  -28.7740   25.8080 C   0  0  1  0  0  0  0  0  0  0  0  0
  -27.6336  -13.0958   19.7495 C   0  0  2  0  0  0  0  0  0  0  0  0
  -27.2493  -17.0139   23.4738 C   0  0  0  0  0  0  0  0  0  0  0  0
  -30.1301  -30.6626   32.3241 C   0  0  0  0  0  0  0  0  0  0  0  0
  -30.4816  -30.9242   25.7151 C   0  0  0  0  0  0  0  0  0  0  0  0
  -31.6032  -31.2050   27.9357 C   0  0  0  0  0  0  0  0  0  0  0  0
  -29.6295  -32.6137   27.3503 C   0  0  0  0  0  0  0  0  0  0  0  0
  -27.3190  -28.1230   31.9727 C   0  0  0  0  0  0  0  0  0  0  0  0
  -28.3578  -21.7178   25.4681 C   0  0  0  0  0  0  0  0  0  1  0  0
  -29.2915  -30.1640   27.8766 C   0  0  1  0  0  0  0  0  0  0  0  0
  -28.9457  -29.9902   31.6475 C   0  0  2  0  0  0  0  0  0  0  0  0
  -30.2397  -31.2018   27.2122 C   0  0  0  0  0  0  0  0  0  0  0  0
  -25.8353  -11.5405   20.4040 N   0  0  0  0  0  0  0  0  0  0  0  0
  -26.1965  -12.8081   20.1418 N   0  0  0  0  0  0  0  0  0  0  0  0
  -27.5858  -28.8550   26.6514 N   0  0  0  0  0  0  0  0  0  0  0  0
  -29.8829  -13.7247   20.5341 N   0  0  0  0  0  0  0  0  0  0  0  0
  -25.3697  -15.0256   20.0422 N   0  0  0  0  0  0  0  0  0  0  0  0
  -21.7487  -12.6172   21.2606 N   0  0  0  0  0  0  0  0  0  0  0  0
  -29.1964  -19.8632   24.2097 N   0  0  0  0  0  0  0  0  0  0  0  0
  -29.8640  -15.9295   21.3714 N   0  0  0  0  0  0  0  0  0  0  0  0
  -25.8239  -28.9152   23.4595 N   0  0  0  0  0  0  0  0  0  0  0  0
  -29.0229  -30.4177   29.2879 N   0  0  0  0  0  0  0  0  0  0  0  0
  -28.4935  -28.8595   32.5065 N   0  3  0  0  0  0  0  0  0  0  0  0
  -27.5076  -18.4032   21.6065 O   0  0  0  0  0  0  0  0  0  0  0  0
  -22.5030  -14.7264   20.7696 O   0  0  0  0  0  0  0  0  0  0  0  0
  -28.0491  -28.9955   24.1412 O   0  0  0  0  0  0  0  0  0  0  0  0
  -27.2367  -31.1045   27.1557 O   0  0  0  0  0  0  0  0  0  0  0  0
  -30.7000  -21.1988   25.4271 O   0  0  0  0  0  0  0  0  0  0  0  0
  -29.8108  -28.3807   30.0669 O   0  0  0  0  0  0  0  0  0  0  0  0
  -31.7526  -15.0695   20.3345 O   0  0  0  0  0  0  0  0  0  0  0  0
  -21.5751   -7.1066   22.0593 O   0  0  0  0  0  0  0  0  0  0  0  0
  -28.7397  -22.8048   26.3101 O   0  0  0  0  0  0  0  0  0  1  0  0
  -23.8478   -3.5170   25.5741 F   0  0  0  0  0  0  0  0  0  0  0  0
  -20.3556   -6.5151   24.4688 F   0  0  0  0  0  0  0  0  0  0  0  0
  1  2  1  0  0  0  0
  1  6  2  0  0  0  0
  2  7  2  0  0  0  0
  3  9  2  0  0  0  0
  3 10  1  0  0  0  0
  4 11  2  0  0  0  0
  4 18  1  0  0  0  0
  5 12  1  0  0  0  0
  5 18  2  0  0  0  0
  6 21  1  0  0  0  0
  7 23  1  0  0  0  0
  8 13  2  0  0  0  0
  8 22  1  0  0  0  0
  9 25  1  0  0  0  0
 10 26  2  0  0  0  0
 11 27  1  0  0  0  0
 12 27  2  0  0  0  0
 13 28  1  0  0  0  0
 14 15  2  0  0  0  0
 14 29  1  0  0  0  0
 15 30  1  0  0  0  0
 16 24  1  0  0  0  0
 16 28  2  0  0  0  0
 17 30  2  0  0  0  0
 17 31  1  0  0  0  0
 18 32  1  0  0  0  0
 19 25  2  0  0  0  0
 19 26  1  0  0  0  0
 19 34  1  0  0  0  0
 20 32  1  0  0  0  0
 20 33  2  0  0  0  0
 20 35  1  0  0  0  0
 21 23  2  0  0  0  0
 21 41  1  0  0  0  0
 22 24  2  0  0  0  0
 22 42  1  0  0  0  0
 23 50  1  0  0  0  0
 24 43  1  0  0  0  0
 25 69  1  0  0  0  0
 26 70  1  0  0  0  0
 27 81  1  0  0  0  0
 28 82  1  0  0  0  0
 29 31  2  0  0  0  0
 29 81  1  0  0  0  0
 30 83  1  0  0  0  0
 31 84  1  0  0  0  0
 32 63  2  0  0  0  0
 33 64  1  0  0  0  0
 33 67  1  0  0  0  0
 34 53  1  0  0  0  0
 34 74  2  0  0  0  0
 35 68  1  0  0  0  0
 35 75  2  0  0  0  0
 36 51  1  0  0  0  0
 36 71  1  0  0  0  0
 36 76  2  0  0  0  0
 37 60  1  0  0  0  0
 37 65  1  0  0  0  0
 37 77  2  0  0  0  0
 38 59  1  0  0  0  0
 38 69  1  0  0  0  0
 38 78  2  0  0  0  0
 39 61  1  0  0  0  0
 39 72  1  0  0  0  0
 39 79  2  0  0  0  0
 40 66  1  0  0  0  0
 40 70  1  0  0  0  0
 40 80  2  0  0  0  0
 41 44  1  0  0  0  0
 42 51  1  0  0  0  0
 43 65  1  0  0  0  0
 44 46  1  0  0  0  0
 45 47  1  0  0  0  0
 45 48  1  0  0  0  0
 46 50  1  0  0  0  0
 47 52  1  0  0  0  0
 48 66  1  0  0  0  0
 49 52  1  0  0  0  0
 49 66  1  0  0  0  0
 50 71  1  0  0  0  0
 51 65  1  0  0  0  0
 52 64  1  0  0  0  0
 54 61  1  0  0  0  0
 55 62  1  0  0  0  0
 56 62  1  0  0  0  0
 57 62  1  0  0  0  0
 58 73  1  0  0  0  0
 59 82  1  0  0  0  0
 60 62  1  0  0  0  0
 60 72  1  0  0  0  0
 61 73  1  0  0  0  0
 63 64  1  0  0  0  0
M  CHG  1  73   1
M  ISO  4  40 100  59 101  70 100  82 101
M  END
> <Batch ID>
0069

> <Smiles>
CNC(C)C(=O)NC(C(=O)N1Cc2cc([101O:1][101CH2:1]C(=O)Nc3cccc([100NH:0][100C:0](=O)N4CCCC(n5nc(-c6ccc(Oc7ccc(F)cc7F)cc6)c(C(N)=O)c5N)C4)c3C(C)=O)ccc2CC1C(=O)NC1CCCc2ccccc21)C(C)(C)C

> <Shape>
0.239

> <Color>
0.199

> <Negative vol penalty>
0.000

$$$$

  -OEChem-04042323303D

 85 94  0     1  0  0  0  0  0999 V2000
  -30.6989  -33.9013   20.2231 C   0  0  0  0  0  0  0  0  0  0  0  0
  -30.8240  -32.6694   20.8573 C   0  0  0  0  0  0  0  0  0  0  0  0
  -23.3127  -10.2095   22.2354 C   0  0  0  0  0  0  0  0  0  0  0  0
  -23.6036   -9.5313   19.9348 C   0  0  0  0  0  0  0  0  0  0  0  0
  -29.4462  -34.3404   19.7965 C   0  0  0  0  0  0  0  0  0  0  0  0
  -29.6963  -31.8763   21.0662 C   0  0  0  0  0  0  0  0  0  0  0  0
  -30.4994  -27.0129   19.9054 C   0  0  0  0  0  0  0  0  0  0  0  0
  -30.2872  -18.9757   23.2151 C   0  0  0  0  0  0  0  0  0  0  0  0
  -29.7921  -17.7530   22.7619 C   0  0  0  0  0  0  0  0  0  0  0  0
  -22.5699   -9.0550   22.4818 C   0  0  0  0  0  0  0  0  0  0  0  0
  -22.8608   -8.3767   20.1813 C   0  0  0  0  0  0  0  0  0  0  0  0
  -31.2025  -26.2448   20.8325 C   0  0  0  0  0  0  0  0  0  0  0  0
  -19.4197   -7.9571   21.9381 C   0  0  0  0  0  0  0  0  0  0  0  0
  -18.2373   -8.0911   22.6658 C   0  0  0  0  0  0  0  0  0  0  0  0
  -29.1231  -25.3253   21.6386 C   0  0  0  0  0  0  0  0  0  0  0  0
  -31.8570  -17.3583   21.5714 C   0  0  0  0  0  0  0  0  0  0  0  0
  -19.1069   -6.5973   24.3539 C   0  0  0  0  0  0  0  0  0  0  0  0
  -23.8296  -10.4477   20.9618 C   0  0  0  0  0  0  0  0  0  0  0  0
  -24.1672  -12.9737   20.8478 C   0  0  0  0  0  0  0  0  0  0  0  0
  -28.3040  -33.5479   19.9917 C   0  0  0  0  0  0  0  0  0  0  0  0
  -29.0998  -26.9511   19.8453 C   0  0  0  0  0  0  0  0  0  0  0  0
  -28.4270  -32.3057   20.6430 C   0  0  0  0  0  0  0  0  0  0  0  0
  -28.4048  -26.0917   20.7082 C   0  0  0  0  0  0  0  0  0  0  0  0
  -32.3521  -18.5810   22.0246 C   0  0  0  0  0  0  0  0  0  0  0  0
  -31.5672  -19.3898   22.8465 C   0  0  0  0  0  0  0  0  0  0  0  0
  -30.5770  -16.9443   21.9400 C   0  0  0  0  0  0  0  0  0  0  0  0
  -22.3439   -8.1385   21.4548 C   0  0  0  0  0  0  0  0  0  0  0  0
  -30.5142  -25.4030   21.7012 C   0  0  0  0  0  0  0  0  0  0  0  0
  -20.4457   -7.1431   22.4182 C   0  0  0  0  0  0  0  0  0  0  0  0
  -18.0809   -7.4113   23.8737 C   0  0  0  0  0  0  0  0  0  0  0  0
  -20.2893   -6.4633   23.6261 C   0  0  0  0  0  0  0  0  0  0  0  0
  -24.5965  -11.6405   20.7065 C   0  0  0  0  0  0  0  0  0  0  0  0
  -25.2579  -13.7259   20.4856 C   0  0  0  0  0  0  0  0  0  0  0  0
  -22.8961  -13.4864   21.2688 C   0  0  0  0  0  0  0  0  0  0  0  0
  -26.7416  -29.0377   20.2798 C   0  0  0  0  0  0  0  0  0  0  0  0
  -24.8955  -26.5710   19.2649 C   0  0  0  0  0  0  0  0  0  0  0  0
  -24.7371  -23.0065   19.7998 C   0  0  0  0  0  0  0  0  0  0  0  0
  -30.7224  -14.7800   20.6590 C   0  0  0  0  0  0  0  0  0  0  0  0
  -26.9641  -34.0858   19.5556 C   0  0  0  0  0  0  0  0  0  0  0  0
  -28.3580  -27.7660   18.8216 C   0  0  0  0  0  0  0  0  0  0  0  0
  -26.9038  -25.9737   20.6704 C   0  0  0  0  0  0  0  0  0  0  0  0
  -25.8750  -33.0189   19.4797 C   0  0  0  0  0  0  0  0  0  0  0  0
  -29.6103  -12.3701   18.2856 C   0  0  0  0  0  0  0  0  0  0  0  0
  -25.8947  -32.1460   20.7305 C   0  0  0  0  0  0  0  0  0  0  0  0
  -28.1715  -12.0752   18.7155 C   0  0  0  0  0  0  0  0  0  0  0  0
  -30.5259  -12.5975   19.4872 C   0  0  0  0  0  0  0  0  0  0  0  0
  -32.1531  -20.8190   24.7607 C   0  0  0  0  0  0  0  0  0  0  0  0
  -28.6187  -13.3155   20.8716 C   0  0  0  0  0  0  0  0  0  0  0  0
  -31.8260  -21.8346   22.5172 C   0  0  0  0  0  0  0  0  0  0  0  0
  -33.1249  -21.9537   25.0594 C   0  0  0  0  0  0  0  0  0  0  0  0
  -27.2309  -31.4058   20.8656 C   0  0  1  0  0  0  0  0  0  0  0  0
  -26.8990  -28.0099   19.1951 C   0  0  1  0  0  0  0  0  0  0  0  0
  -27.6454  -13.1435   19.6940 C   0  0  2  0  0  0  0  0  0  0  0  0
  -32.8267  -22.9169   22.9336 C   0  0  1  0  0  0  0  0  0  0  0  0
  -33.7258  -19.0009   21.6135 C   0  0  0  0  0  0  0  0  0  0  0  0
  -23.8570  -21.1735   18.3291 C   0  0  0  0  0  0  0  0  0  0  0  0
  -22.3071  -26.9484   20.8359 C   0  0  0  0  0  0  0  0  0  0  0  0
  -21.9902  -24.4657   20.7754 C   0  0  0  0  0  0  0  0  0  0  0  0
  -22.0368  -25.7676   18.6480 C   0  0  0  0  0  0  0  0  0  0  0  0
  -27.3018  -21.5332   19.9040 C   0  0  0  0  0  0  0  0  0  0  0  0
  -32.5158  -24.2405   22.2472 C   0  0  0  0  0  0  0  0  0  1  0  0
  -24.1844  -25.4211   19.9364 C   0  0  1  0  0  0  0  0  0  0  0  0
  -25.0946  -21.9208   18.8008 C   0  0  2  0  0  0  0  0  0  0  0  0
  -22.6533  -25.6620   20.0599 C   0  0  0  0  0  0  0  0  0  0  0  0
  -25.8612  -11.5477   20.2871 N   0  0  0  0  0  0  0  0  0  0  0  0
  -26.2359  -12.8322   20.1617 N   0  0  0  0  0  0  0  0  0  0  0  0
  -32.0473  -20.6196   23.3097 N   0  0  2  0  0  0  0  0  0  0  0  0
  -26.2230  -26.7955   19.6561 N   0  0  0  0  0  0  0  0  0  0  0  0
  -29.9659  -13.6253   20.3675 N   0  0  0  0  0  0  0  0  0  0  0  0
  -25.4660  -15.0579   20.4157 N   0  0  0  0  0  0  0  0  0  0  0  0
  -21.8860  -12.5748   21.6046 N   0  0  0  0  0  0  0  0  0  0  0  0
  -30.0741  -15.7019   21.4802 N   0  0  0  0  0  0  0  0  0  0  0  0
  -27.2746  -30.2733   19.9657 N   0  0  0  0  0  0  0  0  0  0  0  0
  -24.5420  -24.2241   19.1829 N   0  0  0  0  0  0  0  0  0  0  0  0
  -26.0308  -20.9382   19.4165 N   0  3  0  0  0  0  0  0  0  0  0  0
  -22.6579  -14.7165   21.3294 O   0  0  0  0  0  0  0  0  0  0  0  0
  -26.1770  -28.7326   21.3237 O   0  0  0  0  0  0  0  0  0  0  0  0
  -24.2974  -27.2409   18.4191 O   0  0  0  0  0  0  0  0  0  0  0  0
  -24.6369  -22.7947   21.0063 O   0  0  0  0  0  0  0  0  0  0  0  0
  -31.8509  -14.9517   20.1911 O   0  0  0  0  0  0  0  0  0  0  0  0
  -32.7595  -23.1323   24.3452 O   0  0  0  0  0  0  0  0  0  0  0  0
  -21.6193   -7.0117   21.6950 O   0  0  0  0  0  0  0  0  0  0  0  0
  -31.1980  -24.6526   22.6074 O   0  0  0  0  0  0  0  0  0  1  0  0
  -16.9460   -7.5413   24.5732 F   0  0  0  0  0  0  0  0  0  0  0  0
  -21.2719   -5.6808   24.0931 F   0  0  0  0  0  0  0  0  0  0  0  0
  1  2  1  0  0  0  0
  1  5  2  0  0  0  0
  2  6  2  0  0  0  0
  3 10  2  0  0  0  0
  3 18  1  0  0  0  0
  4 11  1  0  0  0  0
  4 18  2  0  0  0  0
  5 20  1  0  0  0  0
  6 22  1  0  0  0  0
  7 12  2  0  0  0  0
  7 21  1  0  0  0  0
  8  9  2  0  0  0  0
  8 25  1  0  0  0  0
  9 26  1  0  0  0  0
 10 27  1  0  0  0  0
 11 27  2  0  0  0  0
 12 28  1  0  0  0  0
 13 14  2  0  0  0  0
 13 29  1  0  0  0  0
 14 30  1  0  0  0  0
 15 23  1  0  0  0  0
 15 28  2  0  0  0  0
 16 24  1  0  0  0  0
 16 26  2  0  0  0  0
 17 30  2  0  0  0  0
 17 31  1  0  0  0  0
 18 32  1  0  0  0  0
 19 32  1  0  0  0  0
 19 33  2  0  0  0  0
 19 34  1  0  0  0  0
 20 22  2  0  0  0  0
 20 39  1  0  0  0  0
 21 23  2  0  0  0  0
 21 40  1  0  0  0  0
 22 51  1  0  0  0  0
 23 41  1  0  0  0  0
 24 25  2  0  0  0  0
 24 55  1  0  0  0  0
 25 67  1  0  0  0  0
 26 72  1  0  0  0  0
 27 82  1  0  0  0  0
 28 83  1  0  0  0  0
 29 31  2  0  0  0  0
 29 82  1  0  0  0  0
 30 84  1  0  0  0  0
 31 85  1  0  0  0  0
 32 65  2  0  0  0  0
 33 66  1  0  0  0  0
 33 70  1  0  0  0  0
 34 71  1  0  0  0  0
 34 76  2  0  0  0  0
 35 52  1  0  0  0  0
 35 73  1  0  0  0  0
 35 77  2  0  0  0  0
 36 62  1  0  0  0  0
 36 68  1  0  0  0  0
 36 78  2  0  0  0  0
 37 63  1  0  0  0  0
 37 74  1  0  0  0  0
 37 79  2  0  0  0  0
 38 69  1  0  0  0  0
 38 72  1  0  0  0  0
 38 80  2  0  0  0  0
 39 42  1  0  0  0  0
 40 52  1  0  0  0  0
 41 68  1  0  0  0  0
 42 44  1  0  0  0  0
 43 45  1  0  0  0  0
 43 46  1  0  0  0  0
 44 51  1  0  0  0  0
 45 53  1  0  0  0  0
 46 69  1  0  0  0  0
 47 50  1  0  0  0  0
 47 67  1  0  0  0  0
 48 53  1  0  0  0  0
 48 69  1  0  0  0  0
 49 54  1  0  0  0  0
 49 67  1  0  0  0  0
 50 81  1  0  0  0  0
 51 73  1  0  0  0  0
 52 68  1  0  0  0  0
 53 66  1  0  0  0  0
 54 61  1  0  0  0  0
 54 81  1  0  0  0  0
 56 63  1  0  0  0  0
 57 64  1  0  0  0  0
 58 64  1  0  0  0  0
 59 64  1  0  0  0  0
 60 75  1  0  0  0  0
 61 83  1  0  0  0  0
 62 64  1  0  0  0  0
 62 74  1  0  0  0  0
 63 75  1  0  0  0  0
 65 66  1  0  0  0  0
M  CHG  1  75   1
M  ISO  4  38 100  61 101  72 100  83 101
M  END
> <Batch ID>
0069

> <Smiles>
CNC(C)C(=O)NC(C(=O)N1Cc2cc([101O:1][101CH2:1]C3CN(c4ccc([100NH:0][100C:0](=O)N5CCCC(n6nc(-c7ccc(Oc8ccc(F)cc8F)cc7)c(C(N)=O)c6N)C5)cc4C)CCO3)ccc2CC1C(=O)NC1CCCc2ccccc21)C(C)(C)C

> <Shape>
0.244

> <Color>
0.192

> <Negative vol penalty>
0.000

$$$$

  -OEChem-04042323303D

 87 96  0     1  0  0  0  0  0999 V2000
  -27.0998  -36.6955   23.9206 C   0  0  0  0  0  0  0  0  0  0  0  0
  -27.6767  -35.4986   23.5085 C   0  0  0  0  0  0  0  0  0  0  0  0
  -24.7345   -9.2202   21.7891 C   0  0  0  0  0  0  0  0  0  0  0  0
  -23.3253  -11.0780   22.4213 C   0  0  0  0  0  0  0  0  0  0  0  0
  -25.8117  -36.6999   24.4542 C   0  0  0  0  0  0  0  0  0  0  0  0
  -26.9662  -34.3050   23.6309 C   0  0  0  0  0  0  0  0  0  0  0  0
  -27.1519  -29.5043   19.8329 C   0  0  0  0  0  0  0  0  0  0  0  0
  -24.0567   -8.3993   22.6903 C   0  0  0  0  0  0  0  0  0  0  0  0
  -22.6474  -10.2570   23.3225 C   0  0  0  0  0  0  0  0  0  0  0  0
  -27.8438  -28.2949   19.8829 C   0  0  0  0  0  0  0  0  0  0  0  0
  -21.1255   -6.7179   22.8095 C   0  0  0  0  0  0  0  0  0  0  0  0
  -20.7495   -5.4476   22.3729 C   0  0  0  0  0  0  0  0  0  0  0  0
  -25.9025  -27.2307   20.8410 C   0  0  0  0  0  0  0  0  0  0  0  0
  -28.1281  -19.7837   18.6449 C   0  0  0  0  0  0  0  0  0  0  0  0
  -22.0818   -4.4513   24.1249 C   0  0  0  0  0  0  0  0  0  0  0  0
  -24.3688  -10.5596   21.6546 C   0  0  0  0  0  0  0  0  0  0  0  0
  -24.7522  -11.6288   19.3704 C   0  0  0  0  0  0  0  0  0  0  0  0
  -25.0814  -35.5070   24.5742 C   0  0  0  0  0  0  0  0  0  0  0  0
  -25.8315  -29.5885   20.2975 C   0  0  0  0  0  0  0  0  0  0  0  0
  -25.6677  -34.2932   24.1678 C   0  0  0  0  0  0  0  0  0  0  0  0
  -25.1952  -28.4417   20.7935 C   0  0  0  0  0  0  0  0  0  0  0  0
  -27.7722  -21.0411   18.1573 C   0  0  0  0  0  0  0  0  0  0  0  0
  -27.4404  -18.6487   18.2150 C   0  0  0  0  0  0  0  0  0  0  0  0
  -26.0409  -20.0288   16.8102 C   0  0  0  0  0  0  0  0  0  0  0  0
  -23.0131   -8.9177   23.4570 C   0  0  0  0  0  0  0  0  0  0  0  0
  -27.2202  -27.1586   20.3897 C   0  0  0  0  0  0  0  0  0  0  0  0
  -21.9796   -6.8550   23.9037 C   0  0  0  0  0  0  0  0  0  0  0  0
  -21.2277   -4.3143   23.0307 C   0  0  0  0  0  0  0  0  0  0  0  0
  -22.4578   -5.7217   24.5614 C   0  0  0  0  0  0  0  0  0  0  0  0
  -26.7286  -21.1637   17.2400 C   0  0  0  0  0  0  0  0  0  0  0  0
  -26.3968  -18.7713   17.2977 C   0  0  0  0  0  0  0  0  0  0  0  0
  -25.0690  -11.4082   20.7242 C   0  0  0  0  0  0  0  0  0  0  0  0
  -25.7124  -12.5075   18.9318 C   0  0  0  0  0  0  0  0  0  0  0  0
  -30.1356  -23.5670   19.3568 C   0  0  0  0  0  0  0  0  0  0  0  0
  -29.0317  -24.2980   19.1865 C   0  0  0  0  0  0  0  0  0  0  0  0
  -29.8043  -22.1789   18.9775 C   0  0  0  0  0  0  0  0  0  0  0  0
  -23.6852  -11.0879   18.5801 C   0  0  0  0  0  0  0  0  0  0  0  0
  -24.3650  -31.2082   22.6062 C   0  0  0  0  0  0  0  0  0  0  0  0
  -21.6995  -29.9131   21.2869 C   0  0  0  0  0  0  0  0  0  0  0  0
  -20.3098  -27.4139   19.4243 C   0  0  0  0  0  0  0  0  0  0  0  0
  -28.8141  -17.0789   19.6275 C   0  0  0  0  0  0  0  0  0  0  0  0
  -23.7104  -35.5552   25.2009 C   0  0  0  0  0  0  0  0  0  0  0  0
  -25.0899  -30.8944   20.2120 C   0  0  0  0  0  0  0  0  0  0  0  0
  -23.7722  -28.4747   21.2860 C   0  0  0  0  0  0  0  0  0  0  0  0
  -27.8804  -23.4934   18.6897 C   0  0  0  0  0  0  0  0  0  0  0  0
  -22.8814  -34.2982   24.9497 C   0  0  0  0  0  0  0  0  0  0  0  0
  -29.9943  -14.0744   21.1299 C   0  0  0  0  0  0  0  0  0  0  0  0
  -23.7157  -33.0478   25.2093 C   0  0  0  0  0  0  0  0  0  0  0  0
  -28.7921  -13.1311   21.0469 C   0  0  0  0  0  0  0  0  0  0  0  0
  -29.5669  -15.5149   21.4058 C   0  0  0  0  0  0  0  0  0  0  0  0
  -27.3550  -15.1070   20.4007 C   0  0  0  0  0  0  0  0  0  0  0  0
  -24.9193  -32.9812   24.2615 C   0  0  1  0  0  0  0  0  0  0  0  0
  -23.9211  -30.9828   21.1885 C   0  0  1  0  0  0  0  0  0  0  0  0
  -27.7311  -13.6558   20.0597 C   0  0  2  0  0  0  0  0  0  0  0  0
  -18.1019  -26.6045   18.5484 C   0  0  0  0  0  0  0  0  0  0  0  0
  -20.9811  -28.8745   24.0646 C   0  0  0  0  0  0  0  0  0  0  0  0
  -19.3419  -27.3213   22.9836 C   0  0  0  0  0  0  0  0  0  0  0  0
  -19.0522  -29.7890   22.7617 C   0  0  0  0  0  0  0  0  0  0  0  0
  -21.1976  -27.6758   16.6132 C   0  0  0  0  0  0  0  0  0  0  0  0
  -28.8896  -25.7540   19.4430 C   0  0  0  0  0  0  0  0  0  1  0  0
  -20.9142  -28.6406   21.4942 C   0  0  1  0  0  0  0  0  0  0  0  0
  -19.3347  -27.4473   18.2614 C   0  0  2  0  0  0  0  0  0  0  0  0
  -20.0998  -28.6558   22.8186 C   0  0  0  0  0  0  0  0  0  0  0  0
  -26.1464  -12.0915   21.1196 N   0  0  0  0  0  0  0  0  0  0  0  0
  -26.5149  -12.7501   20.0075 N   0  0  0  0  0  0  0  0  0  0  0  0
  -28.4595  -22.1698   18.5867 N   0  0  0  0  0  0  0  0  0  0  0  0
  -23.0913  -29.7763   21.1875 N   0  0  0  0  0  0  0  0  0  0  0  0
  -28.5640  -15.9449   20.4289 N   0  0  0  0  0  0  0  0  0  0  0  0
  -24.9849  -20.1527   15.8830 N   0  0  0  0  0  0  0  0  0  0  0  0
  -25.9400  -13.0885   17.7347 N   0  0  0  0  0  0  0  0  0  0  0  0
  -22.7877  -10.1993   19.1878 N   0  0  0  0  0  0  0  0  0  0  0  0
  -27.8035  -17.3727   18.7127 N   0  0  0  0  0  0  0  0  0  0  0  0
  -24.5039  -32.5400   22.9472 N   0  0  0  0  0  0  0  0  0  0  0  0
  -20.1020  -28.4624   20.2954 N   0  0  0  0  0  0  0  0  0  0  0  0
  -19.9839  -26.9249   17.0258 N   0  3  0  0  0  0  0  0  0  0  0  0
  -30.5997  -21.2544   19.0188 O   0  0  0  0  0  0  0  0  0  0  0  0
  -23.5419  -11.3710   17.3665 O   0  0  0  0  0  0  0  0  0  0  0  0
  -24.5652  -30.2451   23.3370 O   0  0  0  0  0  0  0  0  0  0  0  0
  -21.0995  -30.9881   21.2088 O   0  0  0  0  0  0  0  0  0  0  0  0
  -21.1675  -26.5425   19.5496 O   0  0  0  0  0  0  0  0  0  0  0  0
  -29.8607  -17.7247   19.7254 O   0  0  0  0  0  0  0  0  0  0  0  0
  -22.3513   -8.1169   24.3364 O   0  0  0  0  0  0  0  0  0  0  0  0
  -27.8935  -25.9771   20.4402 O   0  0  0  0  0  0  0  0  0  1  0  0
  -20.8654   -3.0945   22.6123 F   0  0  0  0  0  0  0  0  0  0  0  0
  -23.2777   -5.8470   25.6140 F   0  0  0  0  0  0  0  0  0  0  0  0
  -26.3854  -22.3733   16.7713 F   0  0  0  0  0  0  0  0  0  0  0  0
  -25.7356  -17.6796   16.8833 F   0  0  0  0  0  0  0  0  0  0  0  0
  1  2  1  0  0  0  0
  1  5  2  0  0  0  0
  2  6  2  0  0  0  0
  3  8  2  0  0  0  0
  3 16  1  0  0  0  0
  4  9  1  0  0  0  0
  4 16  2  0  0  0  0
  5 18  1  0  0  0  0
  6 20  1  0  0  0  0
  7 10  2  0  0  0  0
  7 19  1  0  0  0  0
  8 25  1  0  0  0  0
  9 25  2  0  0  0  0
 10 26  1  0  0  0  0
 11 12  2  0  0  0  0
 11 27  1  0  0  0  0
 12 28  1  0  0  0  0
 13 21  1  0  0  0  0
 13 26  2  0  0  0  0
 14 22  1  0  0  0  0
 14 23  2  0  0  0  0
 15 28  2  0  0  0  0
 15 29  1  0  0  0  0
 16 32  1  0  0  0  0
 17 32  1  0  0  0  0
 17 33  2  0  0  0  0
 17 37  1  0  0  0  0
 18 20  2  0  0  0  0
 18 42  1  0  0  0  0
 19 21  2  0  0  0  0
 19 43  1  0  0  0  0
 20 52  1  0  0  0  0
 21 44  1  0  0  0  0
 22 30  2  0  0  0  0
 22 66  1  0  0  0  0
 23 31  1  0  0  0  0
 23 72  1  0  0  0  0
 24 30  1  0  0  0  0
 24 31  2  0  0  0  0
 24 69  1  0  0  0  0
 25 82  1  0  0  0  0
 26 83  1  0  0  0  0
 27 29  2  0  0  0  0
 27 82  1  0  0  0  0
 28 84  1  0  0  0  0
 29 85  1  0  0  0  0
 30 86  1  0  0  0  0
 31 87  1  0  0  0  0
 32 64  2  0  0  0  0
 33 65  1  0  0  0  0
 33 70  1  0  0  0  0
 34 35  2  0  0  0  0
 34 36  1  0  0  0  0
 35 45  1  0  0  0  0
 35 60  1  0  0  0  0
 36 66  1  0  0  0  0
 36 76  2  0  0  0  0
 37 71  1  0  0  0  0
 37 77  2  0  0  0  0
 38 53  1  0  0  0  0
 38 73  1  0  0  0  0
 38 78  2  0  0  0  0
 39 61  1  0  0  0  0
 39 67  1  0  0  0  0
 39 79  2  0  0  0  0
 40 62  1  0  0  0  0
 40 74  1  0  0  0  0
 40 80  2  0  0  0  0
 41 68  1  0  0  0  0
 41 72  1  0  0  0  0
 41 81  2  0  0  0  0
 42 46  1  0  0  0  0
 43 53  1  0  0  0  0
 44 67  1  0  0  0  0
 45 66  1  0  0  0  0
 46 48  1  0  0  0  0
 47 49  1  0  0  0  0
 47 50  1  0  0  0  0
 48 52  1  0  0  0  0
 49 54  1  0  0  0  0
 50 68  1  0  0  0  0
 51 54  1  0  0  0  0
 51 68  1  0  0  0  0
 52 73  1  0  0  0  0
 53 67  1  0  0  0  0
 54 65  1  0  0  0  0
 55 62  1  0  0  0  0
 56 63  1  0  0  0  0
 57 63  1  0  0  0  0
 58 63  1  0  0  0  0
 59 75  1  0  0  0  0
 60 83  1  0  0  0  0
 61 63  1  0  0  0  0
 61 74  1  0  0  0  0
 62 75  1  0  0  0  0
 64 65  1  0  0  0  0
M  CHG  1  75   1
M  ISO  4  41 100  60 101  72 100  83 101
M  END
> <Batch ID>
0069

> <Smiles>
CNC(C)C(=O)NC(C(=O)N1Cc2cc([101O:1][101CH2:1]C3=CC(=O)N(c4cc([100NH:0][100C:0](=O)N5CCCC(n6nc(-c7ccc(Oc8ccc(F)cc8F)cc7)c(C(N)=O)c6N)C5)c(F)c(N)c4F)C3)ccc2CC1C(=O)NC1CCCc2ccccc21)C(C)(C)C

> <Shape>
0.335

> <Color>
0.088

> <Negative vol penalty>
0.000

$$$$

  -OEChem-04042323303D

 83 91  0     1  0  0  0  0  0999 V2000
  -18.6255  -17.9099   21.2797 C   0  0  0  0  0  0  0  0  0  0  0  0
  -19.8809  -18.4890   21.4342 C   0  0  0  0  0  0  0  0  0  0  0  0
  -22.9714   -9.9513   20.9926 C   0  0  0  0  0  0  0  0  0  0  0  0
  -23.7128  -10.6342   23.1882 C   0  0  0  0  0  0  0  0  0  0  0  0
  -17.5911  -18.6371   20.6922 C   0  0  0  0  0  0  0  0  0  0  0  0
  -20.1030  -19.7955   21.0003 C   0  0  0  0  0  0  0  0  0  0  0  0
  -22.6819  -22.5516   24.3764 C   0  0  0  0  0  0  0  0  0  0  0  0
  -22.1791   -8.9586   21.5688 C   0  0  0  0  0  0  0  0  0  0  0  0
  -22.9204   -9.6415   23.7646 C   0  0  0  0  0  0  0  0  0  0  0  0
  -24.0595  -22.3480   24.4454 C   0  0  0  0  0  0  0  0  0  0  0  0
  -19.1893   -8.7542   23.1349 C   0  0  0  0  0  0  0  0  0  0  0  0
  -17.8855   -8.6090   22.6610 C   0  0  0  0  0  0  0  0  0  0  0  0
  -24.4127  -24.3273   23.1124 C   0  0  0  0  0  0  0  0  0  0  0  0
  -32.0533  -19.0137   22.6236 C   0  0  0  0  0  0  0  0  0  0  0  0
  -32.2061  -16.8354   21.5900 C   0  0  0  0  0  0  0  0  0  0  0  0
  -30.0536  -17.9018   21.8477 C   0  0  0  0  0  0  0  0  0  0  0  0
  -18.3756   -6.3348   22.0093 C   0  0  0  0  0  0  0  0  0  0  0  0
  -23.7384  -10.7892   21.8023 C   0  0  0  0  0  0  0  0  0  0  0  0
  -24.1842  -13.1413   20.9211 C   0  0  0  0  0  0  0  0  0  0  0  0
  -17.7980  -19.9565   20.2597 C   0  0  0  0  0  0  0  0  0  0  0  0
  -22.1581  -23.6403   23.6645 C   0  0  0  0  0  0  0  0  0  0  0  0
  -19.0708  -20.5406   20.4053 C   0  0  0  0  0  0  0  0  0  0  0  0
  -23.0283  -24.5439   23.0380 C   0  0  0  0  0  0  0  0  0  0  0  0
  -32.8217  -17.9321   22.1932 C   0  0  0  0  0  0  0  0  0  0  0  0
  -30.6692  -18.9986   22.4509 C   0  0  0  0  0  0  0  0  0  0  0  0
  -30.8220  -16.8202   21.4172 C   0  0  0  0  0  0  0  0  0  0  0  0
  -22.1535   -8.8037   22.9548 C   0  0  0  0  0  0  0  0  0  0  0  0
  -24.9250  -23.2343   23.8110 C   0  0  0  0  0  0  0  0  0  0  0  0
  -20.0863   -7.6897   23.0459 C   0  0  0  0  0  0  0  0  0  0  0  0
  -17.4786   -7.3993   22.0982 C   0  0  0  0  0  0  0  0  0  0  0  0
  -19.6795   -6.4800   22.4831 C   0  0  0  0  0  0  0  0  0  0  0  0
  -24.5576  -11.8145   21.2075 C   0  0  0  0  0  0  0  0  0  0  0  0
  -25.3090  -13.7026   20.3677 C   0  0  0  0  0  0  0  0  0  0  0  0
  -28.0714  -21.5461   23.3712 C   0  0  0  0  0  0  0  0  0  0  0  0
  -26.7747  -21.8712   23.3736 C   0  0  0  0  0  0  0  0  0  1  0  0
  -22.9327  -13.8068   21.1362 C   0  0  0  0  0  0  0  0  0  0  0  0
  -28.5116  -20.2424   22.7943 C   0  0  0  0  0  0  0  0  0  0  0  0
  -20.2576  -23.9625   21.1370 C   0  0  0  0  0  0  0  0  0  0  0  0
  -20.4354  -27.1119   21.8930 C   0  0  0  0  0  0  0  0  0  0  0  0
  -22.1604  -29.6335   23.4139 C   0  0  0  0  0  0  0  0  0  0  0  0
  -30.8118  -14.5510   20.3233 C   0  0  0  0  0  0  0  0  0  0  0  0
  -16.6624  -20.6867   19.5875 C   0  0  0  0  0  0  0  0  0  0  0  0
  -20.6709  -23.8610   23.6220 C   0  0  0  0  0  0  0  0  0  0  0  0
  -22.5173  -25.7397   22.2780 C   0  0  0  0  0  0  0  0  0  0  0  0
  -16.8778  -22.1951   19.4953 C   0  0  0  0  0  0  0  0  0  0  0  0
  -29.6183  -11.5691   18.7868 C   0  0  0  0  0  0  0  0  0  0  0  0
  -18.2869  -22.5037   18.9992 C   0  0  0  0  0  0  0  0  0  0  0  0
  -28.1646  -11.4762   19.2560 C   0  0  0  0  0  0  0  0  0  0  0  0
  -30.5325  -12.1221   19.8786 C   0  0  0  0  0  0  0  0  0  0  0  0
  -28.6459  -13.3048   20.9328 C   0  0  0  0  0  0  0  0  0  0  0  0
  -19.3441  -21.9639   19.9699 C   0  0  1  0  0  0  0  0  0  0  0  0
  -20.2270  -24.7141   22.4377 C   0  0  1  0  0  0  0  0  0  0  0  0
  -27.6762  -12.8140   19.8455 C   0  0  2  0  0  0  0  0  0  0  0  0
  -34.3016  -17.9481   22.3793 C   0  0  0  0  0  0  0  0  0  0  0  0
  -22.0748  -32.1065   23.8312 C   0  0  0  0  0  0  0  0  0  0  0  0
  -21.3073  -27.6253   19.0145 C   0  0  0  0  0  0  0  0  0  0  0  0
  -22.1064  -29.8865   19.7333 C   0  0  0  0  0  0  0  0  0  0  0  0
  -19.6899  -29.2993   19.9289 C   0  0  0  0  0  0  0  0  0  0  0  0
  -22.0711  -29.2528   26.3475 C   0  0  0  0  0  0  0  0  0  0  0  0
  -21.3527  -28.2511   21.5189 C   0  0  1  0  0  0  0  0  0  0  0  0
  -21.7133  -30.7291   24.3648 C   0  0  2  0  0  0  0  0  0  0  0  0
  -21.1240  -28.7420   20.0615 C   0  0  0  0  0  0  0  0  0  0  0  0
  -25.8207  -11.5487   20.8642 N   0  0  0  0  0  0  0  0  0  0  0  0
  -26.2509  -12.7163   20.3563 N   0  0  0  0  0  0  0  0  0  0  0  0
  -21.0549  -25.9088   22.2600 N   0  0  0  0  0  0  0  0  0  0  0  0
  -30.0093  -13.3922   20.3865 N   0  0  0  0  0  0  0  0  0  0  0  0
  -25.5743  -14.9388   19.8944 N   0  0  0  0  0  0  0  0  0  0  0  0
  -21.8817  -13.0827   21.7155 N   0  0  0  0  0  0  0  0  0  0  0  0
  -29.8893  -20.0972   22.8884 N   0  0  0  0  0  0  0  0  0  0  0  0
  -30.1964  -15.7056   20.8057 N   0  0  0  0  0  0  0  0  0  0  0  0
  -19.4630  -22.8321   21.1217 N   0  0  0  0  0  0  0  0  0  0  0  0
  -21.1592  -29.2811   22.5338 N   0  0  0  0  0  0  0  0  0  0  0  0
  -22.3610  -30.5559   25.6958 N   0  3  0  0  0  0  0  0  0  0  0  0
  -22.7465  -15.0034   20.8090 O   0  0  0  0  0  0  0  0  0  0  0  0
  -27.7040  -19.4538   22.3174 O   0  0  0  0  0  0  0  0  0  0  0  0
  -20.9497  -24.3781   20.2151 O   0  0  0  0  0  0  0  0  0  0  0  0
  -19.2144  -27.2854   21.8677 O   0  0  0  0  0  0  0  0  0  0  0  0
  -23.2865  -29.1421   23.4461 O   0  0  0  0  0  0  0  0  0  0  0  0
  -31.9506  -14.5266   19.8493 O   0  0  0  0  0  0  0  0  0  0  0  0
  -21.3802   -7.8352   23.5176 O   0  0  0  0  0  0  0  0  0  0  0  0
  -26.2699  -23.0376   23.8762 O   0  0  0  0  0  0  0  0  0  1  0  0
  -16.2261   -7.2595   21.6446 F   0  0  0  0  0  0  0  0  0  0  0  0
  -20.5364   -5.4534   22.3960 F   0  0  0  0  0  0  0  0  0  0  0  0
  1  2  1  0  0  0  0
  1  5  2  0  0  0  0
  2  6  2  0  0  0  0
  3  8  2  0  0  0  0
  3 18  1  0  0  0  0
  4  9  1  0  0  0  0
  4 18  2  0  0  0  0
  5 20  1  0  0  0  0
  6 22  1  0  0  0  0
  7 10  2  0  0  0  0
  7 21  1  0  0  0  0
  8 27  1  0  0  0  0
  9 27  2  0  0  0  0
 10 28  1  0  0  0  0
 11 12  2  0  0  0  0
 11 29  1  0  0  0  0
 12 30  1  0  0  0  0
 13 23  1  0  0  0  0
 13 28  2  0  0  0  0
 14 24  2  0  0  0  0
 14 25  1  0  0  0  0
 15 24  1  0  0  0  0
 15 26  2  0  0  0  0
 16 25  2  0  0  0  0
 16 26  1  0  0  0  0
 17 30  2  0  0  0  0
 17 31  1  0  0  0  0
 18 32  1  0  0  0  0
 19 32  1  0  0  0  0
 19 33  2  0  0  0  0
 19 36  1  0  0  0  0
 20 22  2  0  0  0  0
 20 42  1  0  0  0  0
 21 23  2  0  0  0  0
 21 43  1  0  0  0  0
 22 51  1  0  0  0  0
 23 44  1  0  0  0  0
 24 54  1  0  0  0  0
 25 69  1  0  0  0  0
 26 70  1  0  0  0  0
 27 80  1  0  0  0  0
 28 81  1  0  0  0  0
 29 31  2  0  0  0  0
 29 80  1  0  0  0  0
 30 82  1  0  0  0  0
 31 83  1  0  0  0  0
 32 63  2  0  0  0  0
 33 64  1  0  0  0  0
 33 67  1  0  0  0  0
 34 35  2  0  0  0  0
 34 37  1  0  0  0  0
 35 81  1  0  0  0  0
 36 68  1  0  0  0  0
 36 74  2  0  0  0  0
 37 69  1  0  0  0  0
 37 75  2  0  0  0  0
 38 52  1  0  0  0  0
 38 71  1  0  0  0  0
 38 76  2  0  0  0  0
 39 60  1  0  0  0  0
 39 65  1  0  0  0  0
 39 77  2  0  0  0  0
 40 61  1  0  0  0  0
 40 72  1  0  0  0  0
 40 78  2  0  0  0  0
 41 66  1  0  0  0  0
 41 70  1  0  0  0  0
 41 79  2  0  0  0  0
 42 45  1  0  0  0  0
 43 52  1  0  0  0  0
 44 65  1  0  0  0  0
 45 47  1  0  0  0  0
 46 48  1  0  0  0  0
 46 49  1  0  0  0  0
 47 51  1  0  0  0  0
 48 53  1  0  0  0  0
 49 66  1  0  0  0  0
 50 53  1  0  0  0  0
 50 66  1  0  0  0  0
 51 71  1  0  0  0  0
 52 65  1  0  0  0  0
 53 64  1  0  0  0  0
 55 61  1  0  0  0  0
 56 62  1  0  0  0  0
 57 62  1  0  0  0  0
 58 62  1  0  0  0  0
 59 73  1  0  0  0  0
 60 62  1  0  0  0  0
 60 72  1  0  0  0  0
 61 73  1  0  0  0  0
 63 64  1  0  0  0  0
M  CHG  1  73   1
M  ISO  4  35 101  41 100  70 100  81 101
M  END
> <Batch ID>
0069

> <Smiles>
CNC(C)C(=O)NC(C(=O)N1Cc2cc([101O:1][101CH:1]=CC(=O)Nc3cc(C)cc([100NH:0][100C:0](=O)N4CCCC(n5nc(-c6ccc(Oc7ccc(F)cc7F)cc6)c(C(N)=O)c5N)C4)c3)ccc2CC1C(=O)NC1CCCc2ccccc21)C(C)(C)C

> <Shape>
0.201

> <Color>
0.180

> <Negative vol penalty>
0.000

$$$$

  -OEChem-04042323303D

 86 95  0     1  0  0  0  0  0999 V2000
  -26.3753  -30.9308   15.3041 C   0  0  0  0  0  0  0  0  0  0  0  0
  -26.3806  -29.7015   15.9555 C   0  0  0  0  0  0  0  0  0  0  0  0
  -23.2266   -9.7470   21.0457 C   0  0  0  0  0  0  0  0  0  0  0  0
  -23.9244  -10.5070   23.2303 C   0  0  0  0  0  0  0  0  0  0  0  0
  -26.6274  -32.0995   16.0213 C   0  0  0  0  0  0  0  0  0  0  0  0
  -26.6391  -29.6402   17.3244 C   0  0  0  0  0  0  0  0  0  0  0  0
  -24.1993  -25.7334   21.3605 C   0  0  0  0  0  0  0  0  0  0  0  0
  -22.5311   -8.6913   21.6351 C   0  0  0  0  0  0  0  0  0  0  0  0
  -23.2289   -9.4513   23.8197 C   0  0  0  0  0  0  0  0  0  0  0  0
  -24.6697  -24.5455   21.9182 C   0  0  0  0  0  0  0  0  0  0  0  0
  -19.5860   -8.2315   23.2312 C   0  0  0  0  0  0  0  0  0  0  0  0
  -18.2960   -7.9679   22.7708 C   0  0  0  0  0  0  0  0  0  0  0  0
  -31.4795  -19.5944   22.5342 C   0  0  0  0  0  0  0  0  0  0  0  0
  -31.8165  -17.4296   21.5159 C   0  0  0  0  0  0  0  0  0  0  0  0
  -25.4496  -25.7668   23.8467 C   0  0  0  0  0  0  0  0  0  0  0  0
  -29.5800  -18.3025   21.7861 C   0  0  0  0  0  0  0  0  0  0  0  0
  -18.9807   -5.7422   22.1268 C   0  0  0  0  0  0  0  0  0  0  0  0
  -23.9233  -10.6549   21.8433 C   0  0  0  0  0  0  0  0  0  0  0  0
  -32.3373  -18.5819   22.1048 C   0  0  0  0  0  0  0  0  0  0  0  0
  -24.1498  -13.0317   20.9451 C   0  0  0  0  0  0  0  0  0  0  0  0
  -26.8797  -32.0535   17.4015 C   0  0  0  0  0  0  0  0  0  0  0  0
  -24.3604  -26.9506   22.0379 C   0  0  0  0  0  0  0  0  0  0  0  0
  -26.8962  -30.8093   18.0605 C   0  0  0  0  0  0  0  0  0  0  0  0
  -24.9780  -26.9685   23.2966 C   0  0  0  0  0  0  0  0  0  0  0  0
  -30.1008  -19.4547   22.3749 C   0  0  0  0  0  0  0  0  0  0  0  0
  -30.4378  -17.2899   21.3566 C   0  0  0  0  0  0  0  0  0  0  0  0
  -22.5322   -8.5435   23.0221 C   0  0  0  0  0  0  0  0  0  0  0  0
  -25.2976  -24.5624   23.1602 C   0  0  0  0  0  0  0  0  0  0  0  0
  -20.5734   -7.2506   23.1393 C   0  0  0  0  0  0  0  0  0  0  0  0
  -17.9933   -6.7233   22.2186 C   0  0  0  0  0  0  0  0  0  0  0  0
  -20.2708   -6.0059   22.5871 C   0  0  0  0  0  0  0  0  0  0  0  0
  -24.6424  -11.7453   21.2351 C   0  0  0  0  0  0  0  0  0  0  0  0
  -25.2149  -13.6875   20.3777 C   0  0  0  0  0  0  0  0  0  0  0  0
  -29.5708  -21.6944   23.4161 C   0  0  0  0  0  0  0  0  0  0  0  0
  -34.6686  -18.2125   21.4383 C   0  0  0  0  0  0  0  0  0  0  0  0
  -33.7751  -18.7282   22.2711 C   0  0  0  0  0  0  0  0  0  0  0  0
  -22.8459  -13.5846   21.1687 C   0  0  0  0  0  0  0  0  0  0  0  0
  -25.8835  -29.6730   21.4274 C   0  0  0  0  0  0  0  0  0  0  0  0
  -24.4086  -30.6542   24.1447 C   0  0  0  0  0  0  0  0  0  0  0  0
  -22.9538  -29.8166   27.1160 C   0  0  0  0  0  0  0  0  0  0  0  0
  -30.6197  -15.0219   20.2752 C   0  0  0  0  0  0  0  0  0  0  0  0
  -27.1936  -33.3388   18.1254 C   0  0  0  0  0  0  0  0  0  0  0  0
  -23.8235  -28.2196   21.4348 C   0  0  0  0  0  0  0  0  0  0  0  0
  -25.1576  -28.2461   24.0738 C   0  0  0  0  0  0  0  0  0  0  0  0
  -27.0884  -33.2239   19.6440 C   0  0  0  0  0  0  0  0  0  0  0  0
  -29.6824  -11.9360   18.7666 C   0  0  0  0  0  0  0  0  0  0  0  0
  -27.7961  -31.9648   20.1343 C   0  0  0  0  0  0  0  0  0  0  0  0
  -28.2471  -11.7171   19.2505 C   0  0  0  0  0  0  0  0  0  0  0  0
  -30.5537  -12.5751   19.8465 C   0  0  0  0  0  0  0  0  0  0  0  0
  -28.5791  -13.5918   20.9125 C   0  0  0  0  0  0  0  0  0  0  0  0
  -27.8050  -20.4525   22.5836 C   0  0  0  0  0  0  0  0  0  0  0  0
  -27.1480  -30.7043   19.5490 C   0  0  1  0  0  0  0  0  0  0  0  0
  -24.5006  -29.4734   21.9799 C   0  0  1  0  0  0  0  0  0  0  0  0
  -27.6470  -13.0098   19.8374 C   0  0  2  0  0  0  0  0  0  0  0  0
  -27.2874  -21.5752   23.4549 C   0  0  2  0  0  0  0  0  0  0  0  0
  -21.8760  -30.8383   29.1389 C   0  0  0  0  0  0  0  0  0  0  0  0
  -27.1548  -31.4766   25.1896 C   0  0  0  0  0  0  0  0  0  0  0  0
  -26.1703  -31.5854   27.4890 C   0  0  0  0  0  0  0  0  0  0  0  0
  -25.3179  -33.0963   25.6964 C   0  0  0  0  0  0  0  0  0  0  0  0
  -20.3930  -28.4267   26.5971 C   0  0  0  0  0  0  0  0  0  0  0  0
  -26.1812  -22.3834   22.8037 C   0  0  0  0  0  0  0  0  0  1  0  0
  -24.7518  -30.6336   25.6147 C   0  0  1  0  0  0  0  0  0  0  0  0
  -21.6469  -30.2501   27.7553 C   0  0  2  0  0  0  0  0  0  0  0  0
  -25.8472  -31.6740   25.9821 C   0  0  0  0  0  0  0  0  0  0  0  0
  -25.9210  -11.5908   20.8809 N   0  0  0  0  0  0  0  0  0  0  0  0
  -26.2408  -12.7888   20.3626 N   0  0  0  0  0  0  0  0  0  0  0  0
  -29.2240  -20.4885   22.8133 N   0  0  0  0  0  0  0  0  0  0  0  0
  -24.6214  -29.4615   23.4391 N   0  0  0  0  0  0  0  0  0  0  0  0
  -29.9242  -13.7968   20.3525 N   0  0  0  0  0  0  0  0  0  0  0  0
  -25.3647  -14.9393   19.8951 N   0  0  0  0  0  0  0  0  0  0  0  0
  -21.8691  -12.7734   21.7621 N   0  0  0  0  0  0  0  0  0  0  0  0
  -29.9084  -16.1202   20.7573 N   0  0  0  0  0  0  0  0  0  0  0  0
  -25.9201  -30.3952   20.2499 N   0  0  0  0  0  0  0  0  0  0  0  0
  -23.4932  -30.8131   26.3303 N   0  0  0  0  0  0  0  0  0  0  0  0
  -20.7235  -29.0877   27.8858 N   0  3  0  0  0  0  0  0  0  0  0  0
  -30.6785  -22.1400   23.6809 O   0  0  0  0  0  0  0  0  0  0  0  0
  -22.5510  -14.7577   20.8368 O   0  0  0  0  0  0  0  0  0  0  0  0
  -26.8463  -29.2075   22.0259 O   0  0  0  0  0  0  0  0  0  0  0  0
  -23.9612  -31.6884   23.6426 O   0  0  0  0  0  0  0  0  0  0  0  0
  -23.4487  -28.7066   27.2987 O   0  0  0  0  0  0  0  0  0  0  0  0
  -31.7517  -15.0961   19.7903 O   0  0  0  0  0  0  0  0  0  0  0  0
  -28.4284  -22.4141   23.6813 O   0  0  0  0  0  0  0  0  0  0  0  0
  -21.8535   -7.5136   23.5976 O   0  0  0  0  0  0  0  0  0  0  0  0
  -25.7584  -23.4043   23.7066 O   0  0  0  0  0  0  0  0  0  1  0  0
  -16.7541   -6.4697   21.7780 F   0  0  0  0  0  0  0  0  0  0  0  0
  -21.2149   -5.0591   22.4973 F   0  0  0  0  0  0  0  0  0  0  0  0
  1  2  1  0  0  0  0
  1  5  2  0  0  0  0
  2  6  2  0  0  0  0
  3  8  2  0  0  0  0
  3 18  1  0  0  0  0
  4  9  1  0  0  0  0
  4 18  2  0  0  0  0
  5 21  1  0  0  0  0
  6 23  1  0  0  0  0
  7 10  2  0  0  0  0
  7 22  1  0  0  0  0
  8 27  1  0  0  0  0
  9 27  2  0  0  0  0
 10 28  1  0  0  0  0
 11 12  2  0  0  0  0
 11 29  1  0  0  0  0
 12 30  1  0  0  0  0
 13 19  2  0  0  0  0
 13 25  1  0  0  0  0
 14 19  1  0  0  0  0
 14 26  2  0  0  0  0
 15 24  1  0  0  0  0
 15 28  2  0  0  0  0
 16 25  2  0  0  0  0
 16 26  1  0  0  0  0
 17 30  2  0  0  0  0
 17 31  1  0  0  0  0
 18 32  1  0  0  0  0
 19 36  1  0  0  0  0
 20 32  1  0  0  0  0
 20 33  2  0  0  0  0
 20 37  1  0  0  0  0
 21 23  2  0  0  0  0
 21 42  1  0  0  0  0
 22 24  2  0  0  0  0
 22 43  1  0  0  0  0
 23 52  1  0  0  0  0
 24 44  1  0  0  0  0
 25 67  1  0  0  0  0
 26 72  1  0  0  0  0
 27 83  1  0  0  0  0
 28 84  1  0  0  0  0
 29 31  2  0  0  0  0
 29 83  1  0  0  0  0
 30 85  1  0  0  0  0
 31 86  1  0  0  0  0
 32 65  2  0  0  0  0
 33 66  1  0  0  0  0
 33 70  1  0  0  0  0
 34 67  1  0  0  0  0
 34 76  2  0  0  0  0
 34 82  1  0  0  0  0
 35 36  2  0  0  0  0
 37 71  1  0  0  0  0
 37 77  2  0  0  0  0
 38 53  1  0  0  0  0
 38 73  1  0  0  0  0
 38 78  2  0  0  0  0
 39 62  1  0  0  0  0
 39 68  1  0  0  0  0
 39 79  2  0  0  0  0
 40 63  1  0  0  0  0
 40 74  1  0  0  0  0
 40 80  2  0  0  0  0
 41 69  1  0  0  0  0
 41 72  1  0  0  0  0
 41 81  2  0  0  0  0
 42 45  1  0  0  0  0
 43 53  1  0  0  0  0
 44 68  1  0  0  0  0
 45 47  1  0  0  0  0
 46 48  1  0  0  0  0
 46 49  1  0  0  0  0
 47 52  1  0  0  0  0
 48 54  1  0  0  0  0
 49 69  1  0  0  0  0
 50 54  1  0  0  0  0
 50 69  1  0  0  0  0
 51 55  1  0  0  0  0
 51 67  1  0  0  0  0
 52 73  1  0  0  0  0
 53 68  1  0  0  0  0
 54 66  1  0  0  0  0
 55 61  1  0  0  0  0
 55 82  1  0  0  0  0
 56 63  1  0  0  0  0
 57 64  1  0  0  0  0
 58 64  1  0  0  0  0
 59 64  1  0  0  0  0
 60 75  1  0  0  0  0
 61 84  1  0  0  0  0
 62 64  1  0  0  0  0
 62 74  1  0  0  0  0
 63 75  1  0  0  0  0
 65 66  1  0  0  0  0
M  CHG  1  75   1
M  ISO  4  41 100  61 101  72 100  84 101
M  END
> <Batch ID>
0069

> <Smiles>
C=Cc1cc([100NH:0][100C:0](=O)N2CCCC(n3nc(-c4ccc(Oc5ccc(F)cc5F)cc4)c(C(N)=O)c3N)C2)cc(N2CC([101CH2:1][101O:1]c3ccc4c(c3)CN(C(=O)C(NC(=O)C(C)NC)C(C)(C)C)C(C(=O)NC3CCCc5ccccc53)C4)OC2=O)c1

> <Shape>
0.229

> <Color>
0.166

> <Negative vol penalty>
0.000

$$$$

  -OEChem-04042323303D

 79 86  0     1  0  0  0  0  0999 V2000
  -24.5919  -16.6383   25.5451 C   0  0  0  0  0  0  0  0  0  0  0  0
  -25.3891  -17.6914   25.1084 C   0  0  0  0  0  0  0  0  0  0  0  0
  -26.7321  -17.6804   20.6079 C   0  0  0  0  0  0  0  0  0  0  0  0
  -28.5040  -17.3812   18.9931 C   0  0  0  0  0  0  0  0  0  0  0  0
  -23.2380  -16.6066   25.2140 C   0  0  0  0  0  0  0  0  0  0  0  0
  -24.8330  -18.7130   24.3394 C   0  0  0  0  0  0  0  0  0  0  0  0
  -26.3077  -23.3127   25.8605 C   0  0  0  0  0  0  0  0  0  0  0  0
  -26.1519  -16.4816   20.1935 C   0  0  0  0  0  0  0  0  0  0  0  0
  -27.9238  -16.1823   18.5787 C   0  0  0  0  0  0  0  0  0  0  0  0
  -27.5824  -23.7306   25.4807 C   0  0  0  0  0  0  0  0  0  0  0  0
  -24.4002  -13.3195   19.8092 C   0  0  0  0  0  0  0  0  0  0  0  0
  -23.9581  -12.4379   20.7956 C   0  0  0  0  0  0  0  0  0  0  0  0
  -26.6165  -25.0358   23.6968 C   0  0  0  0  0  0  0  0  0  0  0  0
  -26.2051  -12.2906   21.6711 C   0  0  0  0  0  0  0  0  0  0  0  0
  -27.9081  -18.1303   20.0077 C   0  0  0  0  0  0  0  0  0  0  0  0
  -29.4647  -19.5435   21.4526 C   0  0  0  0  0  0  0  0  0  0  0  0
  -22.6628  -17.6332   24.4486 C   0  0  0  0  0  0  0  0  0  0  0  0
  -25.1767  -23.7453   25.1532 C   0  0  0  0  0  0  0  0  0  0  0  0
  -23.4704  -18.6943   23.9965 C   0  0  0  0  0  0  0  0  0  0  0  0
  -25.3283  -24.6240   24.0711 C   0  0  0  0  0  0  0  0  0  0  0  0
  -26.7477  -15.7326   19.1789 C   0  0  0  0  0  0  0  0  0  0  0  0
  -27.7372  -24.5900   24.3970 C   0  0  0  0  0  0  0  0  0  0  0  0
  -25.7448  -13.6866   19.7537 C   0  0  0  0  0  0  0  0  0  0  0  0
  -24.8605  -11.9235   21.7265 C   0  0  0  0  0  0  0  0  0  0  0  0
  -26.6472  -13.1722   20.6847 C   0  0  0  0  0  0  0  0  0  0  0  0
  -28.5077  -19.3688   20.4350 C   0  0  0  0  0  0  0  0  0  0  0  0
  -29.7075  -20.8953   21.4672 C   0  0  0  0  0  0  0  0  0  0  0  0
  -30.0793  -18.5707   22.3079 C   0  0  0  0  0  0  0  0  0  0  0  0
  -22.9026  -22.3061   23.4618 C   0  0  0  0  0  0  0  0  0  0  0  0
  -21.6276  -25.2874   23.3689 C   0  0  0  0  0  0  0  0  0  0  0  0
  -31.8030  -27.6749   21.0702 C   0  0  0  0  0  0  0  0  0  0  0  0
  -30.5048  -26.2665   22.6370 C   0  0  0  0  0  0  0  0  0  0  0  0
  -22.1243  -28.6582   23.5636 C   0  0  0  0  0  0  0  0  0  0  0  0
  -30.7832  -25.5638   18.8225 C   0  0  0  0  0  0  0  0  0  0  0  0
  -21.2050  -17.5313   24.0759 C   0  0  0  0  0  0  0  0  0  0  0  0
  -23.8065  -23.3066   25.5920 C   0  0  0  0  0  0  0  0  0  0  0  0
  -24.1447  -25.1335   23.2914 C   0  0  0  0  0  0  0  0  0  0  0  0
  -20.6115  -18.8448   23.5731 C   0  0  0  0  0  0  0  0  0  0  0  0
  -27.2863  -24.7025   19.1794 C   0  0  0  0  0  0  0  0  0  0  0  0
  -21.5411  -19.4948   22.5532 C   0  0  0  0  0  0  0  0  0  0  0  0
  -27.3768  -23.2419   19.6252 C   0  0  0  0  0  0  0  0  0  0  0  0
  -28.3626  -25.0339   18.1498 C   0  0  0  0  0  0  0  0  0  0  0  0
  -29.8462  -23.2798   19.0418 C   0  0  0  0  0  0  0  0  0  0  0  0
  -22.8984  -19.8338   23.1813 C   0  0  1  0  0  0  0  0  0  0  0  0
  -22.7647  -23.4010   24.4815 C   0  0  1  0  0  0  0  0  0  0  0  0
  -28.7987  -22.8879   20.0997 C   0  0  2  0  0  0  0  0  0  0  0  0
  -20.8978  -30.8421   23.4105 C   0  0  0  0  0  0  0  0  0  0  0  0
  -21.5182  -25.0103   20.3322 C   0  0  0  0  0  0  0  0  0  0  0  0
  -21.2035  -27.4898   20.1871 C   0  0  0  0  0  0  0  0  0  0  0  0
  -19.5049  -26.0850   21.3549 C   0  0  0  0  0  0  0  0  0  0  0  0
  -22.8367  -29.3858   26.3424 C   0  0  0  0  0  0  0  0  0  0  0  0
  -31.5567  -28.6053   19.8924 C   0  0  0  0  0  0  0  0  0  0  0  0
  -29.0656  -25.8796   22.9042 C   0  0  0  0  0  0  0  0  0  1  0  0
  -31.5818  -27.8967   18.5450 C   0  0  0  0  0  0  0  0  0  0  0  0
  -21.7522  -26.4751   22.4454 C   0  0  1  0  0  0  0  0  0  0  0  0
  -21.3926  -29.7412   24.3356 C   0  0  2  0  0  0  0  0  0  0  0  0
  -21.0174  -26.2541   21.0932 C   0  0  0  0  0  0  0  0  0  0  0  0
  -28.1657  -20.5179   19.8461 N   0  0  0  0  0  0  0  0  0  0  0  0
  -28.9119  -21.4274   20.4957 N   0  0  0  0  0  0  0  0  0  0  0  0
  -22.8262  -24.6710   23.7553 N   0  0  0  0  0  0  0  0  0  0  0  0
  -29.6933  -24.6905   18.6706 N   0  0  0  0  0  0  0  0  0  0  0  0
  -30.5218  -21.6687   22.2163 N   0  0  0  0  0  0  0  0  0  0  0  0
  -29.7156  -17.2254   22.1593 N   0  0  0  0  0  0  0  0  0  0  0  0
  -22.7976  -21.0321   23.9865 N   0  0  0  0  0  0  0  0  0  0  0  0
  -30.6065  -27.1429   21.5563 N   0  0  0  0  0  0  0  0  0  0  0  0
  -21.2797  -27.6305   23.2005 N   0  0  0  0  0  0  0  0  0  0  0  0
  -30.5578  -26.8809   18.4415 N   0  0  0  0  0  0  0  0  0  0  0  0
  -22.2949  -30.3519   25.3524 N   0  3  0  0  0  0  0  0  0  0  0  0
  -30.9138  -18.8873   23.1894 O   0  0  0  0  0  0  0  0  0  0  0  0
  -23.0889  -22.5957   22.2858 O   0  0  0  0  0  0  0  0  0  0  0  0
  -20.5085  -24.9244   23.7396 O   0  0  0  0  0  0  0  0  0  0  0  0
  -32.9193  -27.4441   21.5263 O   0  0  0  0  0  0  0  0  0  0  0  0
  -31.4428  -25.8432   23.3069 O   0  0  0  0  0  0  0  0  0  0  0  0
  -23.3243  -28.7195   23.3050 O   0  0  0  0  0  0  0  0  0  0  0  0
  -31.8755  -25.1979   19.2699 O   0  0  0  0  0  0  0  0  0  0  0  0
  -26.1820  -14.5626   18.7743 O   0  0  0  0  0  0  0  0  0  0  0  0
  -28.9804  -24.9989   24.0238 O   0  0  0  0  0  0  0  0  0  1  0  0
  -24.4355  -11.0781   22.6746 F   0  0  0  0  0  0  0  0  0  0  0  0
  -27.9399  -13.5222   20.6371 F   0  0  0  0  0  0  0  0  0  0  0  0
  1  2  1  0  0  0  0
  1  5  2  0  0  0  0
  2  6  2  0  0  0  0
  3  8  2  0  0  0  0
  3 15  1  0  0  0  0
  4  9  1  0  0  0  0
  4 15  2  0  0  0  0
  5 17  1  0  0  0  0
  6 19  1  0  0  0  0
  7 10  2  0  0  0  0
  7 18  1  0  0  0  0
  8 21  1  0  0  0  0
  9 21  2  0  0  0  0
 10 22  1  0  0  0  0
 11 12  2  0  0  0  0
 11 23  1  0  0  0  0
 12 24  1  0  0  0  0
 13 20  1  0  0  0  0
 13 22  2  0  0  0  0
 14 24  2  0  0  0  0
 14 25  1  0  0  0  0
 15 26  1  0  0  0  0
 16 26  1  0  0  0  0
 16 27  2  0  0  0  0
 16 28  1  0  0  0  0
 17 19  2  0  0  0  0
 17 35  1  0  0  0  0
 18 20  2  0  0  0  0
 18 36  1  0  0  0  0
 19 44  1  0  0  0  0
 20 37  1  0  0  0  0
 21 76  1  0  0  0  0
 22 77  1  0  0  0  0
 23 25  2  0  0  0  0
 23 76  1  0  0  0  0
 24 78  1  0  0  0  0
 25 79  1  0  0  0  0
 26 58  2  0  0  0  0
 27 59  1  0  0  0  0
 27 62  1  0  0  0  0
 28 63  1  0  0  0  0
 28 69  2  0  0  0  0
 29 45  1  0  0  0  0
 29 64  1  0  0  0  0
 29 70  2  0  0  0  0
 30 55  1  0  0  0  0
 30 60  1  0  0  0  0
 30 71  2  0  0  0  0
 31 52  1  0  0  0  0
 31 65  1  0  0  0  0
 31 72  2  0  0  0  0
 32 53  1  0  0  0  0
 32 65  1  0  0  0  0
 32 73  2  0  0  0  0
 33 56  1  0  0  0  0
 33 66  1  0  0  0  0
 33 74  2  0  0  0  0
 34 61  1  0  0  0  0
 34 67  1  0  0  0  0
 34 75  2  0  0  0  0
 35 38  1  0  0  0  0
 36 45  1  0  0  0  0
 37 60  1  0  0  0  0
 38 40  1  0  0  0  0
 39 41  1  0  0  0  0
 39 42  1  0  0  0  0
 40 44  1  0  0  0  0
 41 46  1  0  0  0  0
 42 61  1  0  0  0  0
 43 46  1  0  0  0  0
 43 61  1  0  0  0  0
 44 64  1  0  0  0  0
 45 60  1  0  0  0  0
 46 59  1  0  0  0  0
 47 56  1  0  0  0  0
 48 57  1  0  0  0  0
 49 57  1  0  0  0  0
 50 57  1  0  0  0  0
 51 68  1  0  0  0  0
 52 54  1  0  0  0  0
 53 77  1  0  0  0  0
 54 67  1  0  0  0  0
 55 57  1  0  0  0  0
 55 66  1  0  0  0  0
 56 68  1  0  0  0  0
 58 59  1  0  0  0  0
M  CHG  1  68   1
M  ISO  4  34 100  53 101  67 100  77 101
M  END
> <Batch ID>
0069

> <Smiles>
CNC(C)C(=O)NC(C(=O)N1Cc2cc([101O:1][101CH2:1]C(=O)NC(=O)CC[100NH:0][100C:0](=O)N3CCCC(n4nc(-c5ccc(Oc6ccc(F)cc6F)cc5)c(C(N)=O)c4N)C3)ccc2CC1C(=O)NC1CCCc2ccccc21)C(C)(C)C

> <Shape>
0.186

> <Color>
0.047

> <Negative vol penalty>
0.000

$$$$

  -OEChem-04042323303D

 86 94  0     1  0  0  0  0  0999 V2000
  -17.6743  -28.0060   22.9219 C   0  0  0  0  0  0  0  0  0  0  0  0
  -18.8273  -28.4140   23.5849 C   0  0  0  0  0  0  0  0  0  0  0  0
  -24.7596  -14.3383   19.7048 C   0  0  0  0  0  0  0  0  0  0  0  0
  -26.4152  -14.4970   21.4571 C   0  0  0  0  0  0  0  0  0  0  0  0
  -17.7703  -27.1802   21.8026 C   0  0  0  0  0  0  0  0  0  0  0  0
  -20.0770  -27.9954   23.1296 C   0  0  0  0  0  0  0  0  0  0  0  0
  -25.3031  -31.1853   23.2676 C   0  0  0  0  0  0  0  0  0  0  0  0
  -24.8801  -12.9487   19.7167 C   0  0  0  0  0  0  0  0  0  0  0  0
  -26.5357  -13.1074   21.4691 C   0  0  0  0  0  0  0  0  0  0  0  0
  -26.3858  -31.1743   24.1458 C   0  0  0  0  0  0  0  0  0  0  0  0
  -27.0162   -9.5811   22.2122 C   0  0  0  0  0  0  0  0  0  0  0  0
  -27.0405   -8.9421   23.4518 C   0  0  0  0  0  0  0  0  0  0  0  0
  -28.1421  -24.9213   24.1620 C   0  0  0  0  0  0  0  0  0  0  0  0
  -27.5577  -29.6659   22.6725 C   0  0  0  0  0  0  0  0  0  0  0  0
  -29.4249  -24.6954   21.6950 C   0  0  0  0  0  0  0  0  0  0  0  0
  -24.8496   -9.8294   23.9520 C   0  0  0  0  0  0  0  0  0  0  0  0
  -25.5272  -15.1125   20.5749 C   0  0  0  0  0  0  0  0  0  0  0  0
  -29.2311  -25.7405   23.8647 C   0  0  0  0  0  0  0  0  0  0  0  0
  -24.5190  -17.3316   21.3277 C   0  0  0  0  0  0  0  0  0  0  0  0
  -19.0224  -26.7592   21.3276 C   0  0  0  0  0  0  0  0  0  0  0  0
  -25.3352  -30.4269   22.0885 C   0  0  0  0  0  0  0  0  0  0  0  0
  -20.1899  -27.1621   22.0037 C   0  0  0  0  0  0  0  0  0  0  0  0
  -26.4751  -29.6710   21.7797 C   0  0  0  0  0  0  0  0  0  0  0  0
  -29.8725  -25.6276   22.6312 C   0  0  0  0  0  0  0  0  0  0  0  0
  -28.3358  -23.8761   21.9924 C   0  0  0  0  0  0  0  0  0  0  0  0
  -25.7682  -12.3333   20.5989 C   0  0  0  0  0  0  0  0  0  0  0  0
  -27.5122  -30.4122   23.8498 C   0  0  0  0  0  0  0  0  0  0  0  0
  -25.9087  -10.3443   21.8424 C   0  0  0  0  0  0  0  0  0  0  0  0
  -25.9572   -9.0663   24.3217 C   0  0  0  0  0  0  0  0  0  0  0  0
  -27.6944  -23.9890   23.2259 C   0  0  0  0  0  0  0  0  0  0  0  0
  -24.8254  -10.4684   22.7123 C   0  0  0  0  0  0  0  0  0  0  0  0
  -25.4036  -16.5480   20.5627 C   0  0  0  0  0  0  0  0  0  0  0  0
  -24.7933  -18.6241   20.9527 C   0  0  0  0  0  0  0  0  0  0  0  0
  -29.6861  -26.7184   24.8733 C   0  0  0  0  0  0  0  0  0  0  0  0
  -23.5373  -16.9273   22.2912 C   0  0  0  0  0  0  0  0  0  0  0  0
  -23.6172  -28.0204   20.9220 C   0  0  0  0  0  0  0  0  0  0  0  0
  -25.4429  -28.5079   18.2854 C   0  0  0  0  0  0  0  0  0  0  0  0
  -28.3515  -29.6983   16.9552 C   0  0  0  0  0  0  0  0  0  0  0  0
  -28.4093  -22.6900   19.7711 C   0  0  0  0  0  0  0  0  0  0  0  0
  -19.0736  -25.8283   20.1421 C   0  0  0  0  0  0  0  0  0  0  0  0
  -24.1698  -30.4706   21.1385 C   0  0  0  0  0  0  0  0  0  0  0  0
  -26.5676  -28.8554   20.5170 C   0  0  0  0  0  0  0  0  0  0  0  0
  -20.4555  -25.7345   19.5005 C   0  0  0  0  0  0  0  0  0  0  0  0
  -27.6027  -20.4238   17.1461 C   0  0  0  0  0  0  0  0  0  0  0  0
  -21.5288  -25.5514   20.5689 C   0  0  0  0  0  0  0  0  0  0  0  0
  -26.8859  -19.2779   17.8639 C   0  0  0  0  0  0  0  0  0  0  0  0
  -28.7441  -20.9936   17.9865 C   0  0  0  0  0  0  0  0  0  0  0  0
  -27.6548  -20.2489   20.0668 C   0  0  0  0  0  0  0  0  0  0  0  0
  -21.5650  -26.7494   21.5255 C   0  0  1  0  0  0  0  0  0  0  0  0
  -24.1033  -29.2557   20.2182 C   0  0  1  0  0  0  0  0  0  0  0  0
  -26.4558  -19.6856   19.2867 C   0  0  2  0  0  0  0  0  0  0  0  0
  -29.5745  -29.9214   14.7753 C   0  0  0  0  0  0  0  0  0  0  0  0
  -28.6206  -31.0487   27.0269 C   0  0  0  0  0  0  0  0  0  0  0  0
  -26.1595  -25.5437   18.3869 C   0  0  0  0  0  0  0  0  0  0  0  0
  -28.0627  -26.0220   16.8322 C   0  0  0  0  0  0  0  0  0  0  0  0
  -25.7163  -26.4318   16.0914 C   0  0  0  0  0  0  0  0  0  0  0  0
  -32.0274  -26.0294   21.4394 C   0  0  0  0  0  0  0  0  0  0  0  0
  -28.3776  -32.6521   17.1390 C   0  0  0  0  0  0  0  0  0  0  0  0
  -29.1593  -28.6819   26.2746 C   0  0  0  0  0  0  0  0  0  0  0  0
  -26.7681  -27.9809   17.7903 C   0  0  1  0  0  0  0  0  0  0  0  0
  -28.6203  -30.5874   15.7544 C   0  0  2  0  0  0  0  0  0  0  0  0
  -28.3265  -29.9340   26.0325 C   0  0  2  0  0  0  0  0  0  1  0  0
  -26.6744  -26.5083   17.3001 C   0  0  0  0  0  0  0  0  0  0  0  0
  -26.1814  -17.2814   19.7620 N   0  0  0  0  0  0  0  0  0  0  0  0
  -25.7865  -18.5394   20.0218 N   0  0  0  0  0  0  0  0  0  0  0  0
  -25.3999  -28.9258   19.6231 N   0  0  0  0  0  0  0  0  0  0  0  0
  -28.2613  -21.3616   19.3193 N   0  0  0  0  0  0  0  0  0  0  0  0
  -24.2792  -19.8135   21.3316 N   0  0  0  0  0  0  0  0  0  0  0  0
  -30.9350  -26.6166   25.3281 N   0  0  0  0  0  0  0  0  0  0  0  0
  -23.3858  -15.5596   22.5572 N   0  0  0  0  0  0  0  0  0  0  0  0
  -27.8834  -22.9292   21.0403 N   0  0  0  0  0  0  0  0  0  0  0  0
  -30.9769  -26.4488   22.3125 N   0  0  0  0  0  0  0  0  0  0  0  0
  -22.2438  -27.8686   20.9081 N   0  0  0  0  0  0  0  0  0  0  0  0
  -27.2271  -28.9211   16.7736 N   0  0  0  0  0  0  0  0  0  0  0  0
  -28.8241  -27.6562   25.2831 N   0  3  0  0  0  0  0  0  0  0  0  0
  -29.2209  -31.8796   16.1908 N   0  3  0  0  0  0  0  0  0  0  0  0
  -22.8044  -17.7533   22.8863 O   0  0  0  0  0  0  0  0  0  0  0  0
  -24.4282  -27.2603   21.4380 O   0  0  0  0  0  0  0  0  0  0  0  0
  -24.4832  -28.5539   17.5118 O   0  0  0  0  0  0  0  0  0  0  0  0
  -29.0694  -29.6912   17.9527 O   0  0  0  0  0  0  0  0  0  0  0  0
  -28.9374  -23.5584   19.0718 O   0  0  0  0  0  0  0  0  0  0  0  0
  -25.8859  -10.9773   20.6110 O   0  0  0  0  0  0  0  0  0  0  0  0
  -28.5702  -30.3991   24.7056 O   0  0  0  0  0  0  0  0  0  1  0  0
  -25.9799   -8.4514   25.5115 F   0  0  0  0  0  0  0  0  0  0  0  0
  -26.6480  -23.2053   23.5227 F   0  0  0  0  0  0  0  0  0  0  0  0
  -23.7582  -11.1993   22.3621 F   0  0  0  0  0  0  0  0  0  0  0  0
  1  2  1  0  0  0  0
  1  5  2  0  0  0  0
  2  6  2  0  0  0  0
  3  8  2  0  0  0  0
  3 17  1  0  0  0  0
  4  9  1  0  0  0  0
  4 17  2  0  0  0  0
  5 20  1  0  0  0  0
  6 22  1  0  0  0  0
  7 10  2  0  0  0  0
  7 21  1  0  0  0  0
  8 26  1  0  0  0  0
  9 26  2  0  0  0  0
 10 27  1  0  0  0  0
 11 12  2  0  0  0  0
 11 28  1  0  0  0  0
 12 29  1  0  0  0  0
 13 18  1  0  0  0  0
 13 30  2  0  0  0  0
 14 23  1  0  0  0  0
 14 27  2  0  0  0  0
 15 24  1  0  0  0  0
 15 25  2  0  0  0  0
 16 29  2  0  0  0  0
 16 31  1  0  0  0  0
 17 32  1  0  0  0  0
 18 24  2  0  0  0  0
 18 34  1  0  0  0  0
 19 32  1  0  0  0  0
 19 33  2  0  0  0  0
 19 35  1  0  0  0  0
 20 22  2  0  0  0  0
 20 40  1  0  0  0  0
 21 23  2  0  0  0  0
 21 41  1  0  0  0  0
 22 49  1  0  0  0  0
 23 42  1  0  0  0  0
 24 72  1  0  0  0  0
 25 30  1  0  0  0  0
 25 71  1  0  0  0  0
 26 82  1  0  0  0  0
 27 83  1  0  0  0  0
 28 31  2  0  0  0  0
 28 82  1  0  0  0  0
 29 84  1  0  0  0  0
 30 85  1  0  0  0  0
 31 86  1  0  0  0  0
 32 64  2  0  0  0  0
 33 65  1  0  0  0  0
 33 68  1  0  0  0  0
 34 69  1  0  0  0  0
 34 75  2  0  0  0  0
 35 70  1  0  0  0  0
 35 77  2  0  0  0  0
 36 50  1  0  0  0  0
 36 73  1  0  0  0  0
 36 78  2  0  0  0  0
 37 60  1  0  0  0  0
 37 66  1  0  0  0  0
 37 79  2  0  0  0  0
 38 61  1  0  0  0  0
 38 74  1  0  0  0  0
 38 80  2  0  0  0  0
 39 67  1  0  0  0  0
 39 71  1  0  0  0  0
 39 81  2  0  0  0  0
 40 43  1  0  0  0  0
 41 50  1  0  0  0  0
 42 66  1  0  0  0  0
 43 45  1  0  0  0  0
 44 46  1  0  0  0  0
 44 47  1  0  0  0  0
 45 49  1  0  0  0  0
 46 51  1  0  0  0  0
 47 67  1  0  0  0  0
 48 51  1  0  0  0  0
 48 67  1  0  0  0  0
 49 73  1  0  0  0  0
 50 66  1  0  0  0  0
 51 65  1  0  0  0  0
 52 61  1  0  0  0  0
 53 62  1  0  0  0  0
 54 63  1  0  0  0  0
 55 63  1  0  0  0  0
 56 63  1  0  0  0  0
 57 72  1  0  0  0  0
 58 76  1  0  0  0  0
 59 62  1  0  0  0  0
 59 75  1  0  0  0  0
 60 63  1  0  0  0  0
 60 74  1  0  0  0  0
 61 76  1  0  0  0  0
 62 83  1  0  0  0  0
 64 65  1  0  0  0  0
M  CHG  2  75   1  76   1
M  ISO  4  39 100  62 101  71 100  83 101
M  END
> <Batch ID>
0069

> <Smiles>
CNc1cc([100NH:0][100C:0](=O)N2CCCC(n3nc(-c4ccc(Oc5ccc(F)cc5F)cc4)c(C(N)=O)c3N)C2)c(F)cc1C(=N)NC[101CH:1](C)[101O:1]c1ccc2c(c1)CN(C(=O)C(NC(=O)C(C)NC)C(C)(C)C)C(C(=O)NC1CCCc3ccccc31)C2

> <Shape>
0.211

> <Color>
0.054

> <Negative vol penalty>
0.000

$$$$

  -OEChem-04042323303D

 90 99  0     1  0  0  0  0  0999 V2000
  -27.6071  -35.7666   16.3353 C   0  0  0  0  0  0  0  0  0  0  0  0
  -27.9264  -34.4624   16.6992 C   0  0  0  0  0  0  0  0  0  0  0  0
  -26.4569  -11.5544   21.5402 C   0  0  0  0  0  0  0  0  0  0  0  0
  -25.5726  -13.0041   19.8216 C   0  0  0  0  0  0  0  0  0  0  0  0
  -27.1522  -36.6663   17.2983 C   0  0  0  0  0  0  0  0  0  0  0  0
  -27.7921  -34.0574   18.0268 C   0  0  0  0  0  0  0  0  0  0  0  0
  -25.5694  -29.5279   18.4607 C   0  0  0  0  0  0  0  0  0  0  0  0
  -25.2319  -10.8911   21.6109 C   0  0  0  0  0  0  0  0  0  0  0  0
  -24.3476  -12.3408   19.8924 C   0  0  0  0  0  0  0  0  0  0  0  0
  -26.3562  -28.4055   18.2056 C   0  0  0  0  0  0  0  0  0  0  0  0
  -23.5704   -8.5331   19.8467 C   0  0  0  0  0  0  0  0  0  0  0  0
  -23.5894   -7.1390   19.8864 C   0  0  0  0  0  0  0  0  0  0  0  0
  -26.6476  -28.0779   20.5777 C   0  0  0  0  0  0  0  0  0  0  0  0
  -27.3755  -21.7303   15.3766 C   0  0  0  0  0  0  0  0  0  0  0  0
  -28.1096  -19.5665   16.1616 C   0  0  0  0  0  0  0  0  0  0  0  0
  -28.2255  -21.4855   17.6249 C   0  0  0  0  0  0  0  0  0  0  0  0
  -22.4689   -7.1846   22.0264 C   0  0  0  0  0  0  0  0  0  0  0  0
  -26.6272  -12.6110   20.6456 C   0  0  0  0  0  0  0  0  0  0  0  0
  -29.1436  -12.7401   20.2472 C   0  0  0  0  0  0  0  0  0  0  0  0
  -27.0030  -36.2694   18.6366 C   0  0  0  0  0  0  0  0  0  0  0  0
  -25.3244  -29.9407   19.7783 C   0  0  0  0  0  0  0  0  0  0  0  0
  -27.3360  -34.9530   19.0089 C   0  0  0  0  0  0  0  0  0  0  0  0
  -25.8553  -29.2043   20.8470 C   0  0  0  0  0  0  0  0  0  0  0  0
  -27.5816  -20.3694   15.1505 C   0  0  0  0  0  0  0  0  0  0  0  0
  -27.6975  -22.2884   16.6138 C   0  0  0  0  0  0  0  0  0  0  0  0
  -28.4315  -20.1246   17.3988 C   0  0  0  0  0  0  0  0  0  0  0  0
  -24.1772  -11.2843   20.7870 C   0  0  0  0  0  0  0  0  0  0  0  0
  -26.8977  -27.6820   19.2640 C   0  0  0  0  0  0  0  0  0  0  0  0
  -23.0007   -9.2531   20.8969 C   0  0  0  0  0  0  0  0  0  0  0  0
  -23.0387   -6.4647   20.9762 C   0  0  0  0  0  0  0  0  0  0  0  0
  -22.4499   -8.5788   21.9867 C   0  0  0  0  0  0  0  0  0  0  0  0
  -27.8922  -13.2969   20.5724 C   0  0  0  0  0  0  0  0  0  0  0  0
  -30.0180  -13.7971   20.3158 C   0  0  0  0  0  0  0  0  0  0  0  0
  -29.4851  -11.3883   19.9130 C   0  0  0  0  0  0  0  0  0  0  0  0
  -25.9697  -32.5557   21.4663 C   0  0  0  0  0  0  0  0  0  0  0  0
  -24.1562  -31.0799   23.7147 C   0  0  0  0  0  0  0  0  0  0  0  0
  -27.7508  -24.3840   18.0065 C   0  0  0  0  0  0  0  0  0  0  0  0
  -22.9054  -28.1640   24.9718 C   0  0  0  0  0  0  0  0  0  0  0  0
  -29.3387  -19.7028   19.7108 C   0  0  0  0  0  0  0  0  0  0  0  0
  -26.5527  -37.2908   19.6508 C   0  0  0  0  0  0  0  0  0  0  0  0
  -24.4517  -31.1380   20.0374 C   0  0  0  0  0  0  0  0  0  0  0  0
  -25.6053  -29.5941   22.2802 C   0  0  0  0  0  0  0  0  0  0  0  0
  -26.0815  -36.6763   20.9663 C   0  0  0  0  0  0  0  0  0  0  0  0
  -30.6576  -17.9898   22.5398 C   0  0  0  0  0  0  0  0  0  0  0  0
  -27.0695  -35.6171   21.4448 C   0  0  0  0  0  0  0  0  0  0  0  0
  -30.2172  -16.5401   22.3237 C   0  0  0  0  0  0  0  0  0  0  0  0
  -26.5656  -18.6071   11.3882 C   0  0  0  0  0  0  0  0  0  0  0  0
  -29.5924  -18.9814   22.0752 C   0  0  0  0  0  0  0  0  0  0  0  0
  -27.3450  -20.6321   12.6991 C   0  0  0  0  0  0  0  0  0  0  0  0
  -28.6824  -17.3382   20.4812 C   0  0  0  0  0  0  0  0  0  0  0  0
  -26.2737  -18.7183   13.8930 C   0  0  0  0  0  0  0  0  0  0  0  0
  -27.1799  -34.4691   20.4342 C   0  0  1  0  0  0  0  0  0  0  0  0
  -24.6919  -31.7676   21.4061 C   0  0  1  0  0  0  0  0  0  0  0  0
  -27.5832  -19.7531   11.4629 C   0  0  2  0  0  0  0  0  0  0  0  0
  -29.7494  -16.3034   20.8743 C   0  0  2  0  0  0  0  0  0  0  0  0
  -26.5054  -17.7787   12.6900 C   0  0  0  0  0  0  0  0  0  0  0  0
  -27.5308  -20.5982   10.1892 C   0  0  0  0  0  0  0  0  0  0  0  0
  -27.8008  -16.9677   12.8903 C   0  0  0  0  0  0  0  0  0  0  0  0
  -25.3313  -16.7866   12.5933 C   0  0  0  0  0  0  0  0  0  0  0  0
  -21.4859  -27.2724   26.8392 C   0  0  0  0  0  0  0  0  0  0  0  0
  -26.4764  -31.4643   25.6586 C   0  0  0  0  0  0  0  0  0  0  0  0
  -25.4124  -29.7632   27.1561 C   0  0  0  0  0  0  0  0  0  0  0  0
  -24.2144  -31.8888   26.6372 C   0  0  0  0  0  0  0  0  0  0  0  0
  -20.9131  -27.0568   23.0840 C   0  0  0  0  0  0  0  0  0  0  0  0
  -27.3800  -25.8451   17.8326 C   0  0  0  0  0  0  0  0  0  1  0  0
  -24.4290  -30.1178   24.8456 C   0  0  1  0  0  0  0  0  0  0  0  0
  -21.5036  -27.7723   25.4031 C   0  0  2  0  0  0  0  0  0  0  0  0
  -25.1396  -30.8020   26.0474 C   0  0  0  0  0  0  0  0  0  0  0  0
  -27.9612  -14.6059   20.8287 N   0  0  0  0  0  0  0  0  0  0  0  0
  -29.2665  -14.8805   20.6646 N   0  0  0  0  0  0  0  0  0  0  0  0
  -27.2586  -19.8096   13.9095 N   0  0  2  0  0  0  0  0  0  0  0  0
  -24.7508  -30.7759   22.4819 N   0  0  0  0  0  0  0  0  0  0  0  0
  -29.2014  -18.6986   20.6925 N   0  0  0  0  0  0  0  0  0  0  0  0
  -31.3487  -13.8961   20.1112 N   0  0  0  0  0  0  0  0  0  0  0  0
  -29.4433  -11.0020   18.5664 N   0  0  0  0  0  0  0  0  0  0  0  0
  -27.4875  -23.6689   16.8431 N   0  0  0  0  0  0  0  0  0  0  0  0
  -28.9658  -19.3082   18.4263 N   0  0  0  0  0  0  0  0  0  0  0  0
  -26.0397  -33.5850   20.5470 N   0  0  0  0  0  0  0  0  0  0  0  0
  -23.1474  -29.5056   25.1789 N   0  0  0  0  0  0  0  0  0  0  0  0
  -20.9736  -26.6927   24.5231 N   0  3  0  0  0  0  0  0  0  0  0  0
  -29.8017  -10.5434   20.7845 O   0  0  0  0  0  0  0  0  0  0  0  0
  -26.8280  -32.2533   22.2871 O   0  0  0  0  0  0  0  0  0  0  0  0
  -23.4361  -32.0610   23.9159 O   0  0  0  0  0  0  0  0  0  0  0  0
  -28.2153  -23.9599   19.0596 O   0  0  0  0  0  0  0  0  0  0  0  0
  -23.7070  -27.3595   24.5018 O   0  0  0  0  0  0  0  0  0  0  0  0
  -29.7819  -20.8212   19.9841 O   0  0  0  0  0  0  0  0  0  0  0  0
  -22.9818  -10.6371   20.8556 O   0  0  0  0  0  0  0  0  0  0  0  0
  -27.6665  -26.5865   19.0177 O   0  0  0  0  0  0  0  0  0  1  0  0
  -23.0557   -5.1259   21.0135 F   0  0  0  0  0  0  0  0  0  0  0  0
  -21.9001   -9.2650   22.9980 F   0  0  0  0  0  0  0  0  0  0  0  0
  1  2  1  0  0  0  0
  1  5  2  0  0  0  0
  2  6  2  0  0  0  0
  3  8  2  0  0  0  0
  3 18  1  0  0  0  0
  4  9  1  0  0  0  0
  4 18  2  0  0  0  0
  5 20  1  0  0  0  0
  6 22  1  0  0  0  0
  7 10  2  0  0  0  0
  7 21  1  0  0  0  0
  8 27  1  0  0  0  0
  9 27  2  0  0  0  0
 10 28  1  0  0  0  0
 11 12  2  0  0  0  0
 11 29  1  0  0  0  0
 12 30  1  0  0  0  0
 13 23  1  0  0  0  0
 13 28  2  0  0  0  0
 14 24  1  0  0  0  0
 14 25  2  0  0  0  0
 15 24  2  0  0  0  0
 15 26  1  0  0  0  0
 16 25  1  0  0  0  0
 16 26  2  0  0  0  0
 17 30  2  0  0  0  0
 17 31  1  0  0  0  0
 18 32  1  0  0  0  0
 19 32  1  0  0  0  0
 19 33  2  0  0  0  0
 19 34  1  0  0  0  0
 20 22  2  0  0  0  0
 20 40  1  0  0  0  0
 21 23  2  0  0  0  0
 21 41  1  0  0  0  0
 22 52  1  0  0  0  0
 23 42  1  0  0  0  0
 24 71  1  0  0  0  0
 25 76  1  0  0  0  0
 26 77  1  0  0  0  0
 27 87  1  0  0  0  0
 28 88  1  0  0  0  0
 29 31  2  0  0  0  0
 29 87  1  0  0  0  0
 30 89  1  0  0  0  0
 31 90  1  0  0  0  0
 32 69  2  0  0  0  0
 33 70  1  0  0  0  0
 33 74  1  0  0  0  0
 34 75  1  0  0  0  0
 34 81  2  0  0  0  0
 35 53  1  0  0  0  0
 35 78  1  0  0  0  0
 35 82  2  0  0  0  0
 36 66  1  0  0  0  0
 36 72  1  0  0  0  0
 36 83  2  0  0  0  0
 37 65  1  0  0  0  0
 37 76  1  0  0  0  0
 37 84  2  0  0  0  0
 38 67  1  0  0  0  0
 38 79  1  0  0  0  0
 38 85  2  0  0  0  0
 39 73  1  0  0  0  0
 39 77  1  0  0  0  0
 39 86  2  0  0  0  0
 40 43  1  0  0  0  0
 41 53  1  0  0  0  0
 42 72  1  0  0  0  0
 43 45  1  0  0  0  0
 44 46  1  0  0  0  0
 44 48  1  0  0  0  0
 45 52  1  0  0  0  0
 46 55  1  0  0  0  0
 47 54  1  0  0  0  0
 47 56  1  0  0  0  0
 48 73  1  0  0  0  0
 49 54  1  0  0  0  0
 49 71  1  0  0  0  0
 50 55  1  0  0  0  0
 50 73  1  0  0  0  0
 51 56  1  0  0  0  0
 51 71  1  0  0  0  0
 52 78  1  0  0  0  0
 53 72  1  0  0  0  0
 54 57  1  0  0  0  0
 55 70  1  0  0  0  0
 56 58  1  0  0  0  0
 56 59  1  0  0  0  0
 60 67  1  0  0  0  0
 61 68  1  0  0  0  0
 62 68  1  0  0  0  0
 63 68  1  0  0  0  0
 64 80  1  0  0  0  0
 65 88  1  0  0  0  0
 66 68  1  0  0  0  0
 66 79  1  0  0  0  0
 67 80  1  0  0  0  0
 69 70  1  0  0  0  0
M  CHG  1  80   1
M  ISO  4  39 100  65 101  77 100  88 101
M  END
> <Batch ID>
0069

> <Smiles>
CNC(C)C(=O)NC(C(=O)N1Cc2cc([101O:1][101CH2:1]C(=O)Nc3cc([100NH:0][100C:0](=O)N4CCCC(n5nc(-c6ccc(Oc7ccc(F)cc7F)cc6)c(C(N)=O)c5N)C4)cc(N4CC(C)CC(C)(C)C4)c3)ccc2CC1C(=O)NC1CCCc2ccccc21)C(C)(C)C

> <Shape>
0.260

> <Color>
0.090

> <Negative vol penalty>
0.000

$$$$

  -OEChem-04042323303D

 90 99  0     1  0  0  0  0  0999 V2000
  -30.1658  -10.0135   17.2439 C   0  0  0  0  0  0  0  0  0  0  0  0
  -28.9972  -10.6090   16.7800 C   0  0  0  0  0  0  0  0  0  0  0  0
  -30.7805  -30.2312   22.2624 C   0  0  0  0  0  0  0  0  0  0  0  0
  -30.0193  -28.9149   24.1399 C   0  0  0  0  0  0  0  0  0  0  0  0
  -30.6948  -10.3875   18.4785 C   0  0  0  0  0  0  0  0  0  0  0  0
  -28.3563  -11.5781   17.5510 C   0  0  0  0  0  0  0  0  0  0  0  0
  -24.4576  -17.5522   16.8980 C   0  0  0  0  0  0  0  0  0  0  0  0
  -32.0614  -30.2757   22.8128 C   0  0  0  0  0  0  0  0  0  0  0  0
  -31.3002  -28.9593   24.6903 C   0  0  0  0  0  0  0  0  0  0  0  0
  -23.2548  -18.1065   17.3339 C   0  0  0  0  0  0  0  0  0  0  0  0
  -33.6702  -31.9897   25.2415 C   0  0  0  0  0  0  0  0  0  0  0  0
  -34.3300  -33.2186   25.2473 C   0  0  0  0  0  0  0  0  0  0  0  0
  -24.3035  -18.7302   19.4149 C   0  0  0  0  0  0  0  0  0  0  0  0
  -20.4234  -27.4104   22.2672 C   0  0  0  0  0  0  0  0  0  0  0  0
  -18.0145  -27.3714   22.0875 C   0  0  0  0  0  0  0  0  0  0  0  0
  -19.1569  -29.4465   22.5631 C   0  0  0  0  0  0  0  0  0  0  0  0
  -36.1048  -32.2720   23.9090 C   0  0  0  0  0  0  0  0  0  0  0  0
  -29.7595  -29.5509   22.9260 C   0  0  0  0  0  0  0  0  0  0  0  0
  -27.9239  -28.5379   21.4727 C   0  0  0  0  0  0  0  0  0  0  0  0
  -30.0653  -11.3686   19.2607 C   0  0  0  0  0  0  0  0  0  0  0  0
  -25.5913  -17.5731   17.7230 C   0  0  0  0  0  0  0  0  0  0  0  0
  -28.8766  -11.9646   18.7979 C   0  0  0  0  0  0  0  0  0  0  0  0
  -25.5201  -18.1778   18.9861 C   0  0  0  0  0  0  0  0  0  0  0  0
  -19.2396  -26.7058   22.0488 C   0  0  0  0  0  0  0  0  0  0  0  0
  -20.3820  -28.7808   22.5245 C   0  0  0  0  0  0  0  0  0  0  0  0
  -17.9731  -28.7418   22.3446 C   0  0  0  0  0  0  0  0  0  0  0  0
  -32.3213  -29.6397   24.0268 C   0  0  0  0  0  0  0  0  0  0  0  0
  -23.1769  -18.6930   18.5937 C   0  0  0  0  0  0  0  0  0  0  0  0
  -34.2277  -30.9019   24.5695 C   0  0  0  0  0  0  0  0  0  0  0  0
  -35.5473  -33.3598   24.5811 C   0  0  0  0  0  0  0  0  0  0  0  0
  -35.4450  -31.0431   23.9033 C   0  0  0  0  0  0  0  0  0  0  0  0
  -28.4360  -29.5051   22.3581 C   0  0  0  0  0  0  0  0  0  0  0  0
  -26.6329  -28.9411   21.2330 C   0  0  0  0  0  0  0  0  0  0  0  0
  -18.2919  -24.3577   22.1124 C   0  0  0  0  0  0  0  0  0  0  0  0
  -28.5583  -27.3786   20.9165 C   0  0  0  0  0  0  0  0  0  0  0  0
  -27.4312  -15.3547   19.0636 C   0  0  0  0  0  0  0  0  0  0  0  0
  -29.2155  -17.9189   19.9373 C   0  0  0  0  0  0  0  0  0  0  0  0
  -20.8866  -21.2429   19.7771 C   0  0  0  0  0  0  0  0  0  0  0  0
  -29.3555  -21.2677   20.5799 C   0  0  0  0  0  0  0  0  0  0  0  0
  -21.7188  -30.8590   23.0151 C   0  0  0  0  0  0  0  0  0  0  0  0
  -30.6488  -11.7059   20.6099 C   0  0  0  0  0  0  0  0  0  0  0  0
  -26.8883  -16.9948   17.2275 C   0  0  0  0  0  0  0  0  0  0  0  0
  -26.7139  -18.2442   19.9020 C   0  0  0  0  0  0  0  0  0  0  0  0
  -18.8274  -22.9964   21.7306 C   0  0  0  0  0  0  0  0  0  0  0  0
  -30.1138  -13.0099   21.1961 C   0  0  0  0  0  0  0  0  0  0  0  0
  -24.2656  -33.2652   22.3817 C   0  0  0  0  0  0  0  0  0  0  0  0
  -28.5951  -13.0703   21.0659 C   0  0  0  0  0  0  0  0  0  0  0  0
  -25.5355  -32.4219   22.2463 C   0  0  0  0  0  0  0  0  0  0  0  0
  -23.3242  -32.7058   23.4470 C   0  0  0  0  0  0  0  0  0  0  0  0
  -24.2531  -30.4428   23.1550 C   0  0  0  0  0  0  0  0  0  0  0  0
  -20.4427  -24.6632   21.1960 C   0  0  0  0  0  0  0  0  0  0  0  0
  -28.1659  -13.0375   19.5941 C   0  0  1  0  0  0  0  0  0  0  0  0
  -27.8426  -16.6144   18.3553 C   0  0  1  0  0  0  0  0  0  0  0  0
  -25.2028  -30.9300   22.0485 C   0  0  2  0  0  0  0  0  0  0  0  0
  -19.9203  -23.3180   20.7252 C   0  0  1  0  0  0  0  0  0  0  0  0
  -30.9430  -23.0686   21.3105 C   0  0  0  0  0  0  0  0  0  0  0  0
  -29.0420  -16.9034   22.8094 C   0  0  0  0  0  0  0  0  0  0  0  0
  -29.7899  -19.1649   23.5804 C   0  0  0  0  0  0  0  0  0  0  0  0
  -31.2888  -17.7793   22.1465 C   0  0  0  0  0  0  0  0  0  0  0  0
  -15.4986  -28.6917   22.1583 C   0  0  0  0  0  0  0  0  0  0  0  0
  -16.6796  -30.8359   22.6641 C   0  0  0  0  0  0  0  0  0  0  0  0
  -29.0001  -22.7670   18.0531 C   0  0  0  0  0  0  0  0  0  0  0  0
  -22.0884  -20.3346   19.9264 C   0  0  0  0  0  0  0  0  0  1  0  0
  -29.2390  -18.8503   21.1251 C   0  0  1  0  0  0  0  0  0  0  0  0
  -30.3282  -22.3408   20.1252 C   0  0  2  0  0  0  0  0  0  0  0  0
  -29.8167  -18.1716   22.3991 C   0  0  0  0  0  0  0  0  0  0  0  0
  -27.5433  -30.4515   22.6604 N   0  0  0  0  0  0  0  0  0  0  0  0
  -26.4572  -30.0810   21.9609 N   0  0  0  0  0  0  0  0  0  0  0  0
  -19.2826  -25.3041   21.7861 N   0  0  0  0  0  0  0  0  0  0  0  0
  -27.9578  -17.6592   19.3747 N   0  0  0  0  0  0  0  0  0  0  0  0
  -23.0506  -31.2898   23.1925 N   0  0  0  0  0  0  0  0  0  0  0  0
  -25.6423  -28.4282   20.4727 N   0  0  0  0  0  0  0  0  0  0  0  0
  -29.8886  -27.1118   21.2678 N   0  0  0  0  0  0  0  0  0  0  0  0
  -21.5842  -29.4972   22.7468 N   0  0  0  0  0  0  0  0  0  0  0  0
  -28.3596  -14.3345   18.9820 N   0  0  0  0  0  0  0  0  0  0  0  0
  -20.9381  -22.3101   20.6602 N   0  0  0  0  0  0  0  0  0  0  0  0
  -29.9694  -20.0386   20.6977 N   0  0  0  0  0  0  0  0  0  0  0  0
  -16.7343  -29.4148   22.3839 N   0  0  0  0  0  0  0  0  0  0  0  0
  -29.6317  -23.3419   19.2687 N   0  3  0  0  0  0  0  0  0  0  0  0
  -17.2081  -24.5079   22.6576 O   0  0  0  0  0  0  0  0  0  0  0  0
  -27.9684  -26.6114   20.1185 O   0  0  0  0  0  0  0  0  0  0  0  0
  -26.3520  -15.3120   19.6426 O   0  0  0  0  0  0  0  0  0  0  0  0
  -30.2750  -17.4450   19.5195 O   0  0  0  0  0  0  0  0  0  0  0  0
  -19.9911  -21.0317   18.9639 O   0  0  0  0  0  0  0  0  0  0  0  0
  -28.1705  -21.4975   20.8113 O   0  0  0  0  0  0  0  0  0  0  0  0
  -20.7698  -31.6455   23.0682 O   0  0  0  0  0  0  0  0  0  0  0  0
  -33.5711  -29.6827   24.5641 O   0  0  0  0  0  0  0  0  0  0  0  0
  -22.0040  -19.2341   19.0219 O   0  0  0  0  0  0  0  0  0  1  0  0
  -36.1800  -34.5404   24.5854 F   0  0  0  0  0  0  0  0  0  0  0  0
  -35.9850  -30.0019   23.2550 F   0  0  0  0  0  0  0  0  0  0  0  0
  1  2  1  0  0  0  0
  1  5  2  0  0  0  0
  2  6  2  0  0  0  0
  3  8  2  0  0  0  0
  3 18  1  0  0  0  0
  4  9  1  0  0  0  0
  4 18  2  0  0  0  0
  5 20  1  0  0  0  0
  6 22  1  0  0  0  0
  7 10  2  0  0  0  0
  7 21  1  0  0  0  0
  8 27  1  0  0  0  0
  9 27  2  0  0  0  0
 10 28  1  0  0  0  0
 11 12  2  0  0  0  0
 11 29  1  0  0  0  0
 12 30  1  0  0  0  0
 13 23  1  0  0  0  0
 13 28  2  0  0  0  0
 14 24  1  0  0  0  0
 14 25  2  0  0  0  0
 15 24  2  0  0  0  0
 15 26  1  0  0  0  0
 16 25  1  0  0  0  0
 16 26  2  0  0  0  0
 17 30  2  0  0  0  0
 17 31  1  0  0  0  0
 18 32  1  0  0  0  0
 19 32  1  0  0  0  0
 19 33  2  0  0  0  0
 19 35  1  0  0  0  0
 20 22  2  0  0  0  0
 20 41  1  0  0  0  0
 21 23  2  0  0  0  0
 21 42  1  0  0  0  0
 22 52  1  0  0  0  0
 23 43  1  0  0  0  0
 24 69  1  0  0  0  0
 25 74  1  0  0  0  0
 26 78  1  0  0  0  0
 27 87  1  0  0  0  0
 28 88  1  0  0  0  0
 29 31  2  0  0  0  0
 29 87  1  0  0  0  0
 30 89  1  0  0  0  0
 31 90  1  0  0  0  0
 32 67  2  0  0  0  0
 33 68  1  0  0  0  0
 33 72  1  0  0  0  0
 34 44  1  0  0  0  0
 34 69  1  0  0  0  0
 34 80  2  0  0  0  0
 35 73  1  0  0  0  0
 35 81  2  0  0  0  0
 36 53  1  0  0  0  0
 36 75  1  0  0  0  0
 36 82  2  0  0  0  0
 37 64  1  0  0  0  0
 37 70  1  0  0  0  0
 37 83  2  0  0  0  0
 38 63  1  0  0  0  0
 38 76  1  0  0  0  0
 38 84  2  0  0  0  0
 39 65  1  0  0  0  0
 39 77  1  0  0  0  0
 39 85  2  0  0  0  0
 40 71  1  0  0  0  0
 40 74  1  0  0  0  0
 40 86  2  0  0  0  0
 41 45  1  0  0  0  0
 42 53  1  0  0  0  0
 43 70  1  0  0  0  0
 44 55  1  0  0  0  0
 45 47  1  0  0  0  0
 46 48  1  0  0  0  0
 46 49  1  0  0  0  0
 47 52  1  0  0  0  0
 48 54  1  0  0  0  0
 49 71  1  0  0  0  0
 50 54  1  0  0  0  0
 50 71  1  0  0  0  0
 51 55  1  0  0  0  0
 51 69  1  0  0  0  0
 52 75  1  0  0  0  0
 53 70  1  0  0  0  0
 54 68  1  0  0  0  0
 55 76  1  0  0  0  0
 56 65  1  0  0  0  0
 57 66  1  0  0  0  0
 58 66  1  0  0  0  0
 59 66  1  0  0  0  0
 60 78  1  0  0  0  0
 61 78  1  0  0  0  0
 62 79  1  0  0  0  0
 63 88  1  0  0  0  0
 64 66  1  0  0  0  0
 64 77  1  0  0  0  0
 65 79  1  0  0  0  0
 67 68  1  0  0  0  0
M  CHG  1  79   1
M  ISO  4  40 100  63 101  74 100  88 101
M  END
> <Batch ID>
0069

> <Smiles>
CNC(C)C(=O)NC(C(=O)N1Cc2cc([101O:1][101CH2:1]C(=O)NC3CC(=O)N(c4cc([100NH:0][100C:0](=O)N5CCCC(n6nc(-c7ccc(Oc8ccc(F)cc8F)cc7)c(C(N)=O)c6N)C5)cc(N(C)C)c4)C3)ccc2CC1C(=O)NC1CCCc2ccccc21)C(C)(C)C

> <Shape>
0.258

> <Color>
0.074

> <Negative vol penalty>
0.000

$$$$

  -OEChem-04042323303D

 90 99  0     1  0  0  0  0  0999 V2000
  -24.1919  -37.7150   18.3791 C   0  0  0  0  0  0  0  0  0  0  0  0
  -24.4330  -36.5060   17.7346 C   0  0  0  0  0  0  0  0  0  0  0  0
  -22.8467  -10.2951   22.0036 C   0  0  0  0  0  0  0  0  0  0  0  0
  -23.9171   -9.5470   19.9709 C   0  0  0  0  0  0  0  0  0  0  0  0
  -24.6340  -37.9065   19.6875 C   0  0  0  0  0  0  0  0  0  0  0  0
  -25.1175  -35.4880   18.3977 C   0  0  0  0  0  0  0  0  0  0  0  0
  -25.4272  -28.3456   18.8532 C   0  0  0  0  0  0  0  0  0  0  0  0
  -22.1909   -9.0687   22.1097 C   0  0  0  0  0  0  0  0  0  0  0  0
  -23.2613   -8.3205   20.0770 C   0  0  0  0  0  0  0  0  0  0  0  0
  -26.3470  -27.3005   18.7788 C   0  0  0  0  0  0  0  0  0  0  0  0
  -22.9297   -5.9283   23.1221 C   0  0  0  0  0  0  0  0  0  0  0  0
  -22.9065   -5.3117   24.3730 C   0  0  0  0  0  0  0  0  0  0  0  0
  -26.9942  -27.7154   21.0654 C   0  0  0  0  0  0  0  0  0  0  0  0
  -28.0679  -20.2635   17.7201 C   0  0  0  0  0  0  0  0  0  0  0  0
  -29.2328  -20.7885   19.7706 C   0  0  0  0  0  0  0  0  0  0  0  0
  -20.4916   -5.3843   24.3639 C   0  0  0  0  0  0  0  0  0  0  0  0
  -23.7098  -10.5343   20.9342 C   0  0  0  0  0  0  0  0  0  0  0  0
  -29.2442  -18.5274   18.9197 C   0  0  0  0  0  0  0  0  0  0  0  0
  -25.6434  -12.1432   21.3592 C   0  0  0  0  0  0  0  0  0  0  0  0
  -25.3157  -36.8868   20.3703 C   0  0  0  0  0  0  0  0  0  0  0  0
  -25.2915  -29.0918   20.0327 C   0  0  0  0  0  0  0  0  0  0  0  0
  -25.5703  -35.6665   19.7159 C   0  0  0  0  0  0  0  0  0  0  0  0
  -26.0702  -28.7678   21.1530 C   0  0  0  0  0  0  0  0  0  0  0  0
  -28.4639  -18.9311   17.8363 C   0  0  0  0  0  0  0  0  0  0  0  0
  -29.6287  -19.4561   19.8869 C   0  0  0  0  0  0  0  0  0  0  0  0
  -28.4524  -21.1922   18.6872 C   0  0  0  0  0  0  0  0  0  0  0  0
  -22.3982   -8.0813   21.1464 C   0  0  0  0  0  0  0  0  0  0  0  0
  -27.1327  -26.9871   19.8840 C   0  0  0  0  0  0  0  0  0  0  0  0
  -21.7339   -6.2729   22.4921 C   0  0  0  0  0  0  0  0  0  0  0  0
  -21.6875   -5.0397   24.9939 C   0  0  0  0  0  0  0  0  0  0  0  0
  -20.5148   -6.0009   23.1130 C   0  0  0  0  0  0  0  0  0  0  0  0
  -24.3871  -11.8013   20.8237 C   0  0  0  0  0  0  0  0  0  0  0  0
  -25.8350  -13.4489   20.9785 C   0  0  0  0  0  0  0  0  0  0  0  0
  -30.0930  -18.1230   21.9900 C   0  0  0  0  0  0  0  0  0  0  0  0
  -30.7893  -16.6595   18.5467 C   0  0  0  0  0  0  0  0  0  0  0  0
  -29.6547  -17.1299   19.0364 C   0  0  0  0  0  0  0  0  0  0  0  0
  -26.5555  -11.3513   22.1315 C   0  0  0  0  0  0  0  0  0  0  0  0
  -25.7144  -32.1427   20.8182 C   0  0  0  0  0  0  0  0  0  0  0  0
  -24.4750  -31.1791   23.6568 C   0  0  0  0  0  0  0  0  0  0  0  0
  -28.3428  -23.5931   19.4340 C   0  0  0  0  0  0  0  0  0  0  0  0
  -23.8924  -28.6276   25.8472 C   0  0  0  0  0  0  0  0  0  0  0  0
  -25.6226  -17.4743   17.1190 C   0  0  0  0  0  0  0  0  0  0  0  0
  -25.8158  -37.1573   21.7673 C   0  0  0  0  0  0  0  0  0  0  0  0
  -24.2759  -30.1988   20.1054 C   0  0  0  0  0  0  0  0  0  0  0  0
  -25.9485  -29.5251   22.4492 C   0  0  0  0  0  0  0  0  0  0  0  0
  -31.1966  -18.1416   23.0233 C   0  0  0  0  0  0  0  0  0  0  0  0
  -26.2049  -35.8937   22.5303 C   0  0  0  0  0  0  0  0  0  0  0  0
  -32.3593  -18.7715   22.2829 C   0  0  0  0  0  0  0  0  0  0  0  0
  -22.6333  -16.7835   18.9254 C   0  0  0  0  0  0  0  0  0  0  0  0
  -27.0604  -34.9836   21.6547 C   0  0  0  0  0  0  0  0  0  0  0  0
  -22.9245  -15.4516   19.6190 C   0  0  0  0  0  0  0  0  0  0  0  0
  -31.6860  -19.7227   21.3158 C   0  0  0  0  0  0  0  0  0  0  0  0
  -23.2630  -16.8457   17.5356 C   0  0  0  0  0  0  0  0  0  0  0  0
  -25.0000  -15.2249   18.1909 C   0  0  0  0  0  0  0  0  0  0  0  0
  -26.2876  -34.5293   20.4106 C   0  0  1  0  0  0  0  0  0  0  0  0
  -24.5859  -31.2238   21.1921 C   0  0  1  0  0  0  0  0  0  0  0  0
  -24.4325  -15.1368   19.6179 C   0  0  2  0  0  0  0  0  0  0  0  0
  -22.8932  -28.1549   28.1000 C   0  0  0  0  0  0  0  0  0  0  0  0
  -26.9340  -32.3886   24.9986 C   0  0  0  0  0  0  0  0  0  0  0  0
  -26.3667  -31.0825   27.0579 C   0  0  0  0  0  0  0  0  0  0  0  0
  -24.7798  -32.8049   26.1989 C   0  0  0  0  0  0  0  0  0  0  0  0
  -21.8796  -26.7878   24.6971 C   0  0  0  0  0  0  0  0  0  0  0  0
  -28.0310  -17.9668   16.7784 C   0  0  0  0  0  0  0  0  0  0  0  0
  -27.7186  -24.8847   18.9393 C   0  0  0  0  0  0  0  0  0  1  0  0
  -25.0463  -30.6281   24.9410 C   0  0  1  0  0  0  0  0  0  0  0  0
  -22.6418  -28.2133   26.6013 C   0  0  2  0  0  0  0  0  0  0  0  0
  -25.7856  -31.7128   25.7742 C   0  0  0  0  0  0  0  0  0  0  0  0
  -23.8206  -12.8086   20.1540 N   0  0  0  0  0  0  0  0  0  0  0  0
  -24.7250  -13.7963   20.2662 N   0  0  0  0  0  0  0  0  0  0  0  0
  -30.4250  -19.0763   21.0076 N   0  0  0  0  0  0  0  0  0  0  0  0
  -24.9457  -30.6029   22.4685 N   0  0  0  0  0  0  0  0  0  0  0  0
  -24.6938  -16.5391   17.6046 N   0  0  0  0  0  0  0  0  0  0  0  0
  -26.8431  -14.3223   21.1870 N   0  0  0  0  0  0  0  0  0  0  0  0
  -26.2023  -10.0289   22.4331 N   0  0  0  0  0  0  0  0  0  0  0  0
  -28.0510  -22.5440   18.5690 N   0  0  0  0  0  0  0  0  0  0  0  0
  -25.3559  -33.4755   20.7511 N   0  0  0  0  0  0  0  0  0  0  0  0
  -23.9365  -29.9903   25.6409 N   0  0  0  0  0  0  0  0  0  0  0  0
  -26.9584  -17.1077   17.2281 N   0  0  0  0  0  0  0  0  0  0  0  0
  -22.1856  -26.8687   26.1486 N   0  3  0  0  0  0  0  0  0  0  0  0
  -29.0999  -17.4189   22.1011 O   0  0  0  0  0  0  0  0  0  0  0  0
  -27.6440  -11.8080   22.5560 O   0  0  0  0  0  0  0  0  0  0  0  0
  -26.8282  -31.6771   20.6078 O   0  0  0  0  0  0  0  0  0  0  0  0
  -23.6364  -32.0824   23.7066 O   0  0  0  0  0  0  0  0  0  0  0  0
  -29.0035  -23.5531   20.4667 O   0  0  0  0  0  0  0  0  0  0  0  0
  -24.7467  -27.8234   25.4812 O   0  0  0  0  0  0  0  0  0  0  0  0
  -25.2865  -18.5581   16.6296 O   0  0  0  0  0  0  0  0  0  0  0  0
  -21.7586   -6.8843   21.2498 O   0  0  0  0  0  0  0  0  0  0  0  0
  -28.0317  -25.9679   19.8139 O   0  0  0  0  0  0  0  0  0  1  0  0
  -21.6653   -4.4461   26.1945 F   0  0  0  0  0  0  0  0  0  0  0  0
  -19.3627   -6.3286   22.5121 F   0  0  0  0  0  0  0  0  0  0  0  0
  1  2  1  0  0  0  0
  1  5  2  0  0  0  0
  2  6  2  0  0  0  0
  3  8  2  0  0  0  0
  3 17  1  0  0  0  0
  4  9  1  0  0  0  0
  4 17  2  0  0  0  0
  5 20  1  0  0  0  0
  6 22  1  0  0  0  0
  7 10  2  0  0  0  0
  7 21  1  0  0  0  0
  8 27  1  0  0  0  0
  9 27  2  0  0  0  0
 10 28  1  0  0  0  0
 11 12  2  0  0  0  0
 11 29  1  0  0  0  0
 12 30  1  0  0  0  0
 13 23  1  0  0  0  0
 13 28  2  0  0  0  0
 14 24  2  0  0  0  0
 14 26  1  0  0  0  0
 15 25  1  0  0  0  0
 15 26  2  0  0  0  0
 16 30  2  0  0  0  0
 16 31  1  0  0  0  0
 17 32  1  0  0  0  0
 18 24  1  0  0  0  0
 18 25  2  0  0  0  0
 18 36  1  0  0  0  0
 19 32  1  0  0  0  0
 19 33  2  0  0  0  0
 19 37  1  0  0  0  0
 20 22  2  0  0  0  0
 20 43  1  0  0  0  0
 21 23  2  0  0  0  0
 21 44  1  0  0  0  0
 22 55  1  0  0  0  0
 23 45  1  0  0  0  0
 24 63  1  0  0  0  0
 25 70  1  0  0  0  0
 26 75  1  0  0  0  0
 27 87  1  0  0  0  0
 28 88  1  0  0  0  0
 29 31  2  0  0  0  0
 29 87  1  0  0  0  0
 30 89  1  0  0  0  0
 31 90  1  0  0  0  0
 32 68  2  0  0  0  0
 33 69  1  0  0  0  0
 33 73  1  0  0  0  0
 34 46  1  0  0  0  0
 34 70  1  0  0  0  0
 34 80  2  0  0  0  0
 35 36  2  0  0  0  0
 37 74  1  0  0  0  0
 37 81  2  0  0  0  0
 38 56  1  0  0  0  0
 38 76  1  0  0  0  0
 38 82  2  0  0  0  0
 39 65  1  0  0  0  0
 39 71  1  0  0  0  0
 39 83  2  0  0  0  0
 40 64  1  0  0  0  0
 40 75  1  0  0  0  0
 40 84  2  0  0  0  0
 41 66  1  0  0  0  0
 41 77  1  0  0  0  0
 41 85  2  0  0  0  0
 42 72  1  0  0  0  0
 42 78  1  0  0  0  0
 42 86  2  0  0  0  0
 43 47  1  0  0  0  0
 44 56  1  0  0  0  0
 45 71  1  0  0  0  0
 46 48  1  0  0  0  0
 47 50  1  0  0  0  0
 48 52  1  0  0  0  0
 49 51  1  0  0  0  0
 49 53  1  0  0  0  0
 50 55  1  0  0  0  0
 51 57  1  0  0  0  0
 52 70  1  0  0  0  0
 53 72  1  0  0  0  0
 54 57  1  0  0  0  0
 54 72  1  0  0  0  0
 55 76  1  0  0  0  0
 56 71  1  0  0  0  0
 57 69  1  0  0  0  0
 58 66  1  0  0  0  0
 59 67  1  0  0  0  0
 60 67  1  0  0  0  0
 61 67  1  0  0  0  0
 62 79  1  0  0  0  0
 63 78  1  0  0  0  0
 64 88  1  0  0  0  0
 65 67  1  0  0  0  0
 65 77  1  0  0  0  0
 66 79  1  0  0  0  0
 68 69  1  0  0  0  0
M  CHG  1  79   1
M  ISO  4  42 100  64 101  78 100  88 101
M  END
> <Batch ID>
0069

> <Smiles>
C=Cc1c(C[100NH:0][100C:0](=O)N2CCCC(n3nc(-c4ccc(Oc5ccc(F)cc5F)cc4)c(C(N)=O)c3N)C2)cc(NC(=O)[101CH2:1][101O:1]c2ccc3c(c2)CN(C(=O)C(NC(=O)C(C)NC)C(C)(C)C)C(C(=O)NC2CCCc4ccccc42)C3)cc1N1CCCC1=O

> <Shape>
0.283

> <Color>
0.137

> <Negative vol penalty>
0.000

$$$$

  -OEChem-04042323302D

  0  0  0     0  0  0  0  0  0999 V2000
M  END
$$$$

  -OEChem-04042323303D

 85 94  0     1  0  0  0  0  0999 V2000
  -30.4209  -24.7380   18.4193 C   0  0  0  0  0  0  0  0  0  0  0  0
  -29.0376  -24.8663   18.3463 C   0  0  0  0  0  0  0  0  0  0  0  0
  -23.2847  -12.7744   19.4973 C   0  0  0  0  0  0  0  0  0  0  0  0
  -24.4663  -14.2320   21.0193 C   0  0  0  0  0  0  0  0  0  0  0  0
  -31.1070  -25.2229   19.5320 C   0  0  0  0  0  0  0  0  0  0  0  0
  -28.3394  -25.4787   19.3865 C   0  0  0  0  0  0  0  0  0  0  0  0
  -23.3250  -28.9615   18.9056 C   0  0  0  0  0  0  0  0  0  0  0  0
  -18.0247  -23.7297   23.9296 C   0  0  0  0  0  0  0  0  0  0  0  0
  -24.4215  -11.9747   19.3805 C   0  0  0  0  0  0  0  0  0  0  0  0
  -25.6032  -13.4323   20.9025 C   0  0  0  0  0  0  0  0  0  0  0  0
  -21.9699  -28.6840   19.0804 C   0  0  0  0  0  0  0  0  0  0  0  0
  -28.1113  -12.9769   18.6815 C   0  0  0  0  0  0  0  0  0  0  0  0
  -18.0067  -22.3859   24.3029 C   0  0  0  0  0  0  0  0  0  0  0  0
  -29.3377  -13.6164   18.5013 C   0  0  0  0  0  0  0  0  0  0  0  0
  -22.1005  -29.5033   21.3455 C   0  0  0  0  0  0  0  0  0  0  0  0
  -18.6250  -23.0958   21.6768 C   0  0  0  0  0  0  0  0  0  0  0  0
  -30.1580  -12.6184   20.5430 C   0  0  0  0  0  0  0  0  0  0  0  0
  -23.3070  -13.9031   20.3167 C   0  0  0  0  0  0  0  0  0  0  0  0
  -21.0916  -14.5957   21.3748 C   0  0  0  0  0  0  0  0  0  0  0  0
  -30.4179  -25.8502   20.5819 C   0  0  0  0  0  0  0  0  0  0  0  0
  -24.0818  -29.5028   19.9547 C   0  0  0  0  0  0  0  0  0  0  0  0
  -29.0168  -25.9713   20.5148 C   0  0  0  0  0  0  0  0  0  0  0  0
  -23.4644  -29.7891   21.1806 C   0  0  0  0  0  0  0  0  0  0  0  0
  -18.3338  -24.0847   22.6165 C   0  0  0  0  0  0  0  0  0  0  0  0
  -18.6070  -21.7519   22.0502 C   0  0  0  0  0  0  0  0  0  0  0  0
  -25.5808  -12.3036   20.0831 C   0  0  0  0  0  0  0  0  0  0  0  0
  -21.3581  -28.9522   20.3014 C   0  0  0  0  0  0  0  0  0  0  0  0
  -27.9081  -12.1582   19.7925 C   0  0  0  0  0  0  0  0  0  0  0  0
  -30.3611  -13.4371   19.4321 C   0  0  0  0  0  0  0  0  0  0  0  0
  -18.2979  -21.3970   23.3633 C   0  0  0  0  0  0  0  0  0  0  0  0
  -28.9315  -11.9790   20.7232 C   0  0  0  0  0  0  0  0  0  0  0  0
  -22.1332  -14.7299   20.4373 C   0  0  0  0  0  0  0  0  0  0  0  0
  -20.2238  -15.6164   21.0723 C   0  0  0  0  0  0  0  0  0  0  0  0
  -18.1118  -26.5634   22.9469 C   0  0  0  0  0  0  0  0  0  0  0  0
  -18.6624  -26.0352   21.0704 C   0  0  0  0  0  0  0  0  0  0  0  0
  -20.9235  -13.6344   22.4252 C   0  0  0  0  0  0  0  0  0  0  0  0
  -26.6046  -28.5382   21.6306 C   0  0  0  0  0  0  0  0  0  0  0  0
  -26.4120  -31.5176   22.8988 C   0  0  0  0  0  0  0  0  0  0  0  0
  -24.4906  -34.2499   23.5986 C   0  0  0  0  0  0  0  0  0  0  0  0
  -19.2288  -20.9330   19.7504 C   0  0  0  0  0  0  0  0  0  0  0  0
  -31.1977  -26.3163   21.7858 C   0  0  0  0  0  0  0  0  0  0  0  0
  -25.5363  -29.8212   19.7415 C   0  0  0  0  0  0  0  0  0  0  0  0
  -24.2279  -30.3891   22.3320 C   0  0  0  0  0  0  0  0  0  0  0  0
  -30.4242  -27.2875   22.6739 C   0  0  0  0  0  0  0  0  0  0  0  0
  -20.0596  -18.7267   17.0822 C   0  0  0  0  0  0  0  0  0  0  0  0
  -29.0106  -26.7718   22.9242 C   0  0  0  0  0  0  0  0  0  0  0  0
  -20.5874  -17.4791   17.7943 C   0  0  0  0  0  0  0  0  0  0  0  0
  -20.4689  -20.0085   17.8055 C   0  0  0  0  0  0  0  0  0  0  0  0
  -20.6577  -18.8032   19.9458 C   0  0  0  0  0  0  0  0  0  0  0  0
  -28.2267  -26.6517   21.6117 C   0  0  1  0  0  0  0  0  0  0  0  0
  -18.4130  -27.4180   21.7014 C   0  0  0  0  0  0  0  0  0  0  0  0
  -26.3291  -29.8934   21.0429 C   0  0  1  0  0  0  0  0  0  0  0  0
  -20.2161  -17.4846   19.2902 C   0  0  2  0  0  0  0  0  0  0  0  0
  -24.6032  -36.5138   24.6753 C   0  0  0  0  0  0  0  0  0  0  0  0
  -26.3733  -30.2067   25.6538 C   0  0  0  0  0  0  0  0  0  0  0  0
  -25.5420  -32.3724   26.5958 C   0  0  0  0  0  0  0  0  0  0  0  0
  -27.7803  -32.2685   25.4993 C   0  0  0  0  0  0  0  0  0  0  0  0
  -23.7695  -35.6147   21.0735 C   0  0  0  0  0  0  0  0  0  0  0  0
  -19.6103  -28.3396   21.7933 C   0  0  0  0  0  0  0  0  0  1  0  0
  -25.6952  -32.1343   24.0757 C   0  0  1  0  0  0  0  0  0  0  0  0
  -24.7290  -35.7326   23.3766 C   0  0  2  0  0  0  0  0  0  0  0  0
  -26.3335  -31.7324   25.4353 C   0  0  0  0  0  0  0  0  0  0  0  0
  -21.9460  -15.7549   19.6017 N   0  0  0  0  0  0  0  0  0  0  0  0
  -20.7766  -16.2741   20.0131 N   0  0  0  0  0  0  0  0  0  0  0  0
  -18.3515  -25.4094   22.2487 N   0  0  0  0  0  0  0  0  0  0  0  0
  -25.6490  -30.6767   22.0764 N   0  0  0  0  0  0  0  0  0  0  0  0
  -20.0813  -19.9436   19.2163 N   0  0  0  0  0  0  0  0  0  0  0  0
  -19.0493  -16.0065   21.6117 N   0  0  0  0  0  0  0  0  0  0  0  0
  -21.9099  -12.6537   22.5975 N   0  0  0  0  0  0  0  0  0  0  0  0
  -18.9028  -20.7492   21.0937 N   0  0  0  0  0  0  0  0  0  0  0  0
  -27.7706  -27.9536   21.1744 N   0  0  0  0  0  0  0  0  0  0  0  0
  -25.6689  -33.5721   23.8298 N   0  0  0  0  0  0  0  0  0  0  0  0
  -23.7399  -36.2762   22.4034 N   0  3  0  0  0  0  0  0  0  0  0  0
  -17.8031  -26.7781   24.0975 O   0  0  0  0  0  0  0  0  0  0  0  0
  -19.0082  -25.6221   19.9866 O   0  0  0  0  0  0  0  0  0  0  0  0
  -19.9201  -13.6348   23.1780 O   0  0  0  0  0  0  0  0  0  0  0  0
  -25.8184  -28.0592   22.4393 O   0  0  0  0  0  0  0  0  0  0  0  0
  -27.6031  -31.7783   22.7120 O   0  0  0  0  0  0  0  0  0  0  0  0
  -23.3707  -33.7442   23.5734 O   0  0  0  0  0  0  0  0  0  0  0  0
  -18.7964  -21.8589   19.0593 O   0  0  0  0  0  0  0  0  0  0  0  0
  -26.6902  -11.5234   19.9695 O   0  0  0  0  0  0  0  0  0  0  0  0
  -20.0358  -28.6817   20.4749 O   0  0  0  0  0  0  0  0  0  1  0  0
  -31.5393  -14.0501   19.2581 F   0  0  0  0  0  0  0  0  0  0  0  0
  -18.2779  -20.1088   23.7337 F   0  0  0  0  0  0  0  0  0  0  0  0
  -28.7426  -11.1928   21.7919 F   0  0  0  0  0  0  0  0  0  0  0  0
  1  2  1  0  0  0  0
  1  5  2  0  0  0  0
  2  6  2  0  0  0  0
  3  9  2  0  0  0  0
  3 18  1  0  0  0  0
  4 10  1  0  0  0  0
  4 18  2  0  0  0  0
  5 20  1  0  0  0  0
  6 22  1  0  0  0  0
  7 11  2  0  0  0  0
  7 21  1  0  0  0  0
  8 13  2  0  0  0  0
  8 24  1  0  0  0  0
  9 26  1  0  0  0  0
 10 26  2  0  0  0  0
 11 27  1  0  0  0  0
 12 14  2  0  0  0  0
 12 28  1  0  0  0  0
 13 30  1  0  0  0  0
 14 29  1  0  0  0  0
 15 23  1  0  0  0  0
 15 27  2  0  0  0  0
 16 24  2  0  0  0  0
 16 25  1  0  0  0  0
 17 29  2  0  0  0  0
 17 31  1  0  0  0  0
 18 32  1  0  0  0  0
 19 32  1  0  0  0  0
 19 33  2  0  0  0  0
 19 36  1  0  0  0  0
 20 22  2  0  0  0  0
 20 41  1  0  0  0  0
 21 23  2  0  0  0  0
 21 42  1  0  0  0  0
 22 50  1  0  0  0  0
 23 43  1  0  0  0  0
 24 65  1  0  0  0  0
 25 30  2  0  0  0  0
 25 70  1  0  0  0  0
 26 81  1  0  0  0  0
 27 82  1  0  0  0  0
 28 31  2  0  0  0  0
 28 81  1  0  0  0  0
 29 83  1  0  0  0  0
 30 84  1  0  0  0  0
 31 85  1  0  0  0  0
 32 63  2  0  0  0  0
 33 64  1  0  0  0  0
 33 68  1  0  0  0  0
 34 51  1  0  0  0  0
 34 65  1  0  0  0  0
 34 74  2  0  0  0  0
 35 51  1  0  0  0  0
 35 65  1  0  0  0  0
 35 75  2  0  0  0  0
 36 69  1  0  0  0  0
 36 76  2  0  0  0  0
 37 52  1  0  0  0  0
 37 71  1  0  0  0  0
 37 77  2  0  0  0  0
 38 60  1  0  0  0  0
 38 66  1  0  0  0  0
 38 78  2  0  0  0  0
 39 61  1  0  0  0  0
 39 72  1  0  0  0  0
 39 79  2  0  0  0  0
 40 67  1  0  0  0  0
 40 70  1  0  0  0  0
 40 80  2  0  0  0  0
 41 44  1  0  0  0  0
 42 52  1  0  0  0  0
 43 66  1  0  0  0  0
 44 46  1  0  0  0  0
 45 47  1  0  0  0  0
 45 48  1  0  0  0  0
 46 50  1  0  0  0  0
 47 53  1  0  0  0  0
 48 67  1  0  0  0  0
 49 53  1  0  0  0  0
 49 67  1  0  0  0  0
 50 71  1  0  0  0  0
 51 59  1  0  0  0  0
 52 66  1  0  0  0  0
 53 64  1  0  0  0  0
 54 61  1  0  0  0  0
 55 62  1  0  0  0  0
 56 62  1  0  0  0  0
 57 62  1  0  0  0  0
 58 73  1  0  0  0  0
 59 82  1  0  0  0  0
 60 62  1  0  0  0  0
 60 72  1  0  0  0  0
 61 73  1  0  0  0  0
 63 64  1  0  0  0  0
M  CHG  1  73   1
M  ISO  4  40 100  59 101  70 100  82 101
M  END
> <Batch ID>
0069

> <Smiles>
CNC(C)C(=O)NC(C(=O)N1Cc2cc([101O:1][101CH2:1]C3C(=O)N(c4ccc(F)c([100NH:0][100C:0](=O)N5CCCC(n6nc(-c7ccc(Oc8ccc(F)cc8F)cc7)c(C(N)=O)c6N)C5)c4)C3=O)ccc2CC1C(=O)NC1CCCc2ccccc21)C(C)(C)C

> <Shape>
0.301

> <Color>
0.096

> <Negative vol penalty>
0.000

$$$$

  -OEChem-04042323303D

 83 91  0     1  0  0  0  0  0999 V2000
  -19.0425  -24.3629   23.2836 C   0  0  0  0  0  0  0  0  0  0  0  0
  -20.3576  -24.4747   22.8438 C   0  0  0  0  0  0  0  0  0  0  0  0
  -23.9367   -9.3372   21.7556 C   0  0  0  0  0  0  0  0  0  0  0  0
  -24.1270  -11.0395   23.4594 C   0  0  0  0  0  0  0  0  0  0  0  0
  -28.1838  -20.2410   19.2401 C   0  0  0  0  0  0  0  0  0  0  0  0
  -30.5747  -19.9547   19.4370 C   0  0  0  0  0  0  0  0  0  0  0  0
  -18.2205  -25.4886   23.3134 C   0  0  0  0  0  0  0  0  0  0  0  0
  -20.8511  -25.7123   22.4324 C   0  0  0  0  0  0  0  0  0  0  0  0
  -25.4622  -26.6796   24.2891 C   0  0  0  0  0  0  0  0  0  0  0  0
  -28.0250  -18.8578   19.1563 C   0  0  0  0  0  0  0  0  0  0  0  0
  -30.4159  -18.5715   19.3532 C   0  0  0  0  0  0  0  0  0  0  0  0
  -23.4207   -8.4497   22.6998 C   0  0  0  0  0  0  0  0  0  0  0  0
  -23.6110  -10.1520   24.4037 C   0  0  0  0  0  0  0  0  0  0  0  0
  -26.5423  -26.0514   23.6706 C   0  0  0  0  0  0  0  0  0  0  0  0
  -20.4589   -7.8851   24.2301 C   0  0  0  0  0  0  0  0  0  0  0  0
  -19.3406   -7.1333   23.8699 C   0  0  0  0  0  0  0  0  0  0  0  0
  -27.0136  -28.0776   22.4494 C   0  0  0  0  0  0  0  0  0  0  0  0
  -20.5942   -5.0986   24.2246 C   0  0  0  0  0  0  0  0  0  0  0  0
  -24.2900  -10.6321   22.1354 C   0  0  0  0  0  0  0  0  0  0  0  0
  -29.4586  -20.7895   19.3804 C   0  0  0  0  0  0  0  0  0  0  0  0
  -24.0999  -12.4430   20.3487 C   0  0  0  0  0  0  0  0  0  0  0  0
  -18.7071  -26.7425   22.9113 C   0  0  0  0  0  0  0  0  0  0  0  0
  -25.1425  -28.0104   23.9837 C   0  0  0  0  0  0  0  0  0  0  0  0
  -20.0344  -26.8557   22.4556 C   0  0  0  0  0  0  0  0  0  0  0  0
  -25.9305  -28.7212   23.0673 C   0  0  0  0  0  0  0  0  0  0  0  0
  -29.1411  -18.0230   19.2129 C   0  0  0  0  0  0  0  0  0  0  0  0
  -23.2578   -8.8571   24.0239 C   0  0  0  0  0  0  0  0  0  0  0  0
  -27.3164  -26.7495   22.7484 C   0  0  0  0  0  0  0  0  0  0  0  0
  -21.6449   -7.2436   24.5874 C   0  0  0  0  0  0  0  0  0  0  0  0
  -19.4082   -5.7400   23.8671 C   0  0  0  0  0  0  0  0  0  0  0  0
  -21.7125   -5.8504   24.5847 C   0  0  0  0  0  0  0  0  0  0  0  0
  -24.8236  -11.5492   21.1605 C   0  0  0  0  0  0  0  0  0  0  0  0
  -25.0592  -13.0833   19.6030 C   0  0  0  0  0  0  0  0  0  0  0  0
  -29.6269  -22.2546   19.4690 C   0  0  0  0  0  0  0  0  0  0  0  0
  -22.6867  -12.6738   20.2752 C   0  0  0  0  0  0  0  0  0  0  0  0
  -22.6242  -29.4782   22.7160 C   0  0  0  0  0  0  0  0  0  0  0  0
  -24.2944  -32.1547   23.4707 C   0  0  0  0  0  0  0  0  0  0  0  0
  -29.0609  -24.3221   20.7242 C   0  0  0  0  0  0  0  0  0  0  0  0
  -27.3206  -33.5980   24.1078 C   0  0  0  0  0  0  0  0  0  0  0  0
  -29.9819  -15.6487   19.1675 C   0  0  0  0  0  0  0  0  0  0  0  0
  -17.7668  -27.9217   22.9163 C   0  0  0  0  0  0  0  0  0  0  0  0
  -23.9905  -28.6820   24.6795 C   0  0  0  0  0  0  0  0  0  0  0  0
  -25.6416  -30.1580   22.7199 C   0  0  0  0  0  0  0  0  0  0  0  0
  -18.4784  -29.2686   22.8181 C   0  0  0  0  0  0  0  0  0  0  0  0
  -29.9892  -12.0910   19.0265 C   0  0  0  0  0  0  0  0  0  0  0  0
  -19.5370  -29.2342   21.7203 C   0  0  0  0  0  0  0  0  0  0  0  0
  -28.5864  -11.7064   19.5023 C   0  0  0  0  0  0  0  0  0  0  0  0
  -30.5312  -13.3040   19.7805 C   0  0  0  0  0  0  0  0  0  0  0  0
  -28.2471  -14.0940   20.2580 C   0  0  0  0  0  0  0  0  0  0  0  0
  -20.6137  -28.1857   22.0247 C   0  0  1  0  0  0  0  0  0  0  0  0
  -23.4438  -29.8802   23.9095 C   0  0  1  0  0  0  0  0  0  0  0  0
  -27.6329  -12.9172   19.4824 C   0  0  2  0  0  0  0  0  0  0  0  0
  -28.3719  -35.8098   24.6554 C   0  0  0  0  0  0  0  0  0  0  0  0
  -23.9686  -33.0263   20.5648 C   0  0  0  0  0  0  0  0  0  0  0  0
  -25.7931  -34.7002   20.9352 C   0  0  0  0  0  0  0  0  0  0  0  0
  -23.6744  -34.8575   22.2424 C   0  0  0  0  0  0  0  0  0  0  0  0
  -28.3615  -32.5950   26.6903 C   0  0  0  0  0  0  0  0  0  0  0  0
  -28.2780  -24.7284   21.9443 C   0  0  0  0  0  0  0  0  0  1  0  0
  -25.3191  -33.0099   22.7652 C   0  0  1  0  0  0  0  0  0  0  0  0
  -27.7801  -34.5266   25.2173 C   0  0  2  0  0  0  0  0  0  0  0  0
  -24.6933  -33.8708   21.6318 C   0  0  0  0  0  0  0  0  0  0  0  0
  -26.1411  -11.6130   20.9504 N   0  0  0  0  0  0  0  0  0  0  0  0
  -26.2528  -12.5545   19.9979 N   0  0  0  0  0  0  0  0  0  0  0  0
  -24.5007  -30.7687   23.4220 N   0  0  0  0  0  0  0  0  0  0  0  0
  -29.5768  -14.4130   19.7150 N   0  0  0  0  0  0  0  0  0  0  0  0
  -24.9899  -14.0414   18.6545 N   0  0  0  0  0  0  0  0  0  0  0  0
  -21.8438  -11.9296   21.1118 N   0  0  0  0  0  0  0  0  0  0  0  0
  -28.9800  -16.6178   19.1278 N   0  0  0  0  0  0  0  0  0  0  0  0
  -29.0241  -22.9000   20.4771 N   0  0  0  0  0  0  0  0  0  0  0  0
  -21.5361  -28.6835   23.0226 N   0  0  0  0  0  0  0  0  0  0  0  0
  -25.9887  -33.7851   23.8040 N   0  0  0  0  0  0  0  0  0  0  0  0
  -30.3732  -22.8505   18.5394 N   0  3  0  0  0  0  0  0  0  0  0  0
  -28.8157  -33.8591   26.0558 N   0  3  0  0  0  0  0  0  0  0  0  0
  -22.1850  -13.5034   19.4792 O   0  0  0  0  0  0  0  0  0  0  0  0
  -22.9537  -29.8620   21.5999 O   0  0  0  0  0  0  0  0  0  0  0  0
  -23.3498  -32.6968   24.0498 O   0  0  0  0  0  0  0  0  0  0  0  0
  -29.6762  -25.0875   19.9960 O   0  0  0  0  0  0  0  0  0  0  0  0
  -28.0693  -32.7902   23.5624 O   0  0  0  0  0  0  0  0  0  0  0  0
  -31.1251  -15.8249   18.7386 O   0  0  0  0  0  0  0  0  0  0  0  0
  -22.7541   -7.9914   24.9455 O   0  0  0  0  0  0  0  0  0  0  0  0
  -28.3708  -26.1385   22.1428 O   0  0  0  0  0  0  0  0  0  1  0  0
  -18.3337   -5.0182   23.5227 F   0  0  0  0  0  0  0  0  0  0  0  0
  -22.8488   -5.2286   24.9282 F   0  0  0  0  0  0  0  0  0  0  0  0
  1  2  1  0  0  0  0
  1  7  2  0  0  0  0
  2  8  2  0  0  0  0
  3 12  2  0  0  0  0
  3 19  1  0  0  0  0
  4 13  1  0  0  0  0
  4 19  2  0  0  0  0
  5 10  2  0  0  0  0
  5 20  1  0  0  0  0
  6 11  1  0  0  0  0
  6 20  2  0  0  0  0
  7 22  1  0  0  0  0
  8 24  1  0  0  0  0
  9 14  2  0  0  0  0
  9 23  1  0  0  0  0
 10 26  1  0  0  0  0
 11 26  2  0  0  0  0
 12 27  1  0  0  0  0
 13 27  2  0  0  0  0
 14 28  1  0  0  0  0
 15 16  2  0  0  0  0
 15 29  1  0  0  0  0
 16 30  1  0  0  0  0
 17 25  1  0  0  0  0
 17 28  2  0  0  0  0
 18 30  2  0  0  0  0
 18 31  1  0  0  0  0
 19 32  1  0  0  0  0
 20 34  1  0  0  0  0
 21 32  1  0  0  0  0
 21 33  2  0  0  0  0
 21 35  1  0  0  0  0
 22 24  2  0  0  0  0
 22 41  1  0  0  0  0
 23 25  2  0  0  0  0
 23 42  1  0  0  0  0
 24 50  1  0  0  0  0
 25 43  1  0  0  0  0
 26 68  1  0  0  0  0
 27 80  1  0  0  0  0
 28 81  1  0  0  0  0
 29 31  2  0  0  0  0
 29 80  1  0  0  0  0
 30 82  1  0  0  0  0
 31 83  1  0  0  0  0
 32 62  2  0  0  0  0
 33 63  1  0  0  0  0
 33 66  1  0  0  0  0
 34 69  1  0  0  0  0
 34 72  2  0  0  0  0
 35 67  1  0  0  0  0
 35 74  2  0  0  0  0
 36 51  1  0  0  0  0
 36 70  1  0  0  0  0
 36 75  2  0  0  0  0
 37 59  1  0  0  0  0
 37 64  1  0  0  0  0
 37 76  2  0  0  0  0
 38 58  1  0  0  0  0
 38 69  1  0  0  0  0
 38 77  2  0  0  0  0
 39 60  1  0  0  0  0
 39 71  1  0  0  0  0
 39 78  2  0  0  0  0
 40 65  1  0  0  0  0
 40 68  1  0  0  0  0
 40 79  2  0  0  0  0
 41 44  1  0  0  0  0
 42 51  1  0  0  0  0
 43 64  1  0  0  0  0
 44 46  1  0  0  0  0
 45 47  1  0  0  0  0
 45 48  1  0  0  0  0
 46 50  1  0  0  0  0
 47 52  1  0  0  0  0
 48 65  1  0  0  0  0
 49 52  1  0  0  0  0
 49 65  1  0  0  0  0
 50 70  1  0  0  0  0
 51 64  1  0  0  0  0
 52 63  1  0  0  0  0
 53 60  1  0  0  0  0
 54 61  1  0  0  0  0
 55 61  1  0  0  0  0
 56 61  1  0  0  0  0
 57 73  1  0  0  0  0
 58 81  1  0  0  0  0
 59 61  1  0  0  0  0
 59 71  1  0  0  0  0
 60 73  1  0  0  0  0
 62 63  1  0  0  0  0
M  CHG  2  72   1  73   1
M  ISO  4  40 100  58 101  68 100  81 101
M  END
> <Batch ID>
0069

> <Smiles>
CNC(C)C(=O)NC(C(=O)N1Cc2cc([101O:1][101CH2:1]C(=O)NC(=N)c3ccc([100NH:0][100C:0](=O)N4CCCC(n5nc(-c6ccc(Oc7ccc(F)cc7F)cc6)c(C(N)=O)c5N)C4)cc3)ccc2CC1C(=O)NC1CCCc2ccccc21)C(C)(C)C

> <Shape>
0.321

> <Color>
0.113

> <Negative vol penalty>
0.000

$$$$

  -OEChem-04042323303D

 85 94  0     1  0  0  0  0  0999 V2000
  -31.5548  -28.8324   14.3629 C   0  0  0  0  0  0  0  0  0  0  0  0
  -31.0753  -27.8700   15.2457 C   0  0  0  0  0  0  0  0  0  0  0  0
  -33.4754  -19.0673   19.8907 C   0  0  0  0  0  0  0  0  0  0  0  0
  -33.0707  -20.3715   19.6063 C   0  0  0  0  0  0  0  0  0  0  0  0
  -22.4075  -10.5485   20.2624 C   0  0  0  0  0  0  0  0  0  0  0  0
  -23.4058  -10.3725   22.4554 C   0  0  0  0  0  0  0  0  0  0  0  0
  -31.6472  -30.1635   14.7674 C   0  0  0  0  0  0  0  0  0  0  0  0
  -30.6888  -28.2381   16.5340 C   0  0  0  0  0  0  0  0  0  0  0  0
  -26.2964  -26.1335   17.9203 C   0  0  0  0  0  0  0  0  0  0  0  0
  -32.6273  -18.2114   20.5935 C   0  0  0  0  0  0  0  0  0  0  0  0
  -31.8180  -20.8199   20.0249 C   0  0  0  0  0  0  0  0  0  0  0  0
  -22.2648   -9.1618   20.2159 C   0  0  0  0  0  0  0  0  0  0  0  0
  -23.2632   -8.9857   22.4090 C   0  0  0  0  0  0  0  0  0  0  0  0
  -26.3281  -24.7979   18.3192 C   0  0  0  0  0  0  0  0  0  0  0  0
  -20.7958   -6.7208   22.8594 C   0  0  0  0  0  0  0  0  0  0  0  0
  -20.2992   -6.0835   23.9964 C   0  0  0  0  0  0  0  0  0  0  0  0
  -26.2992  -25.4933   20.6289 C   0  0  0  0  0  0  0  0  0  0  0  0
  -22.3337   -4.7908   24.1606 C   0  0  0  0  0  0  0  0  0  0  0  0
  -22.9780  -11.1539   21.3821 C   0  0  0  0  0  0  0  0  0  0  0  0
  -22.1982  -13.5206   21.9280 C   0  0  0  0  0  0  0  0  0  0  0  0
  -31.2525  -30.5496   16.0580 C   0  0  0  0  0  0  0  0  0  0  0  0
  -26.2768  -27.1610   18.8744 C   0  0  0  0  0  0  0  0  0  0  0  0
  -30.7772  -29.5754   16.9565 C   0  0  0  0  0  0  0  0  0  0  0  0
  -26.2646  -26.8410   20.2396 C   0  0  0  0  0  0  0  0  0  0  0  0
  -31.3746  -18.6599   21.0122 C   0  0  0  0  0  0  0  0  0  0  0  0
  -30.9699  -19.9641   20.7278 C   0  0  0  0  0  0  0  0  0  0  0  0
  -22.6926   -8.3804   21.2892 C   0  0  0  0  0  0  0  0  0  0  0  0
  -26.3324  -24.4777   19.6736 C   0  0  0  0  0  0  0  0  0  0  0  0
  -22.0614   -6.3930   22.3729 C   0  0  0  0  0  0  0  0  0  0  0  0
  -21.0681   -5.1186   24.6470 C   0  0  0  0  0  0  0  0  0  0  0  0
  -22.8303   -5.4281   23.0235 C   0  0  0  0  0  0  0  0  0  0  0  0
  -23.1262  -12.5863   21.4304 C   0  0  0  0  0  0  0  0  0  0  0  0
  -22.8076  -14.7385   21.7493 C   0  0  0  0  0  0  0  0  0  0  0  0
  -28.9053  -21.4187   20.5031 C   0  0  0  0  0  0  0  0  0  0  0  0
  -20.9013  -13.3068   22.5008 C   0  0  0  0  0  0  0  0  0  0  0  0
  -28.2139  -29.5690   19.6178 C   0  0  0  0  0  0  0  0  0  0  0  0
  -25.8043  -30.3720   21.6356 C   0  0  0  0  0  0  0  0  0  0  0  0
  -23.0900  -29.3755   23.4484 C   0  0  0  0  0  0  0  0  0  0  0  0
  -28.4973  -16.2790   21.4198 C   0  0  0  0  0  0  0  0  0  0  0  0
  -31.4150  -31.9926   16.4656 C   0  0  0  0  0  0  0  0  0  0  0  0
  -26.2157  -28.5960   18.4278 C   0  0  0  0  0  0  0  0  0  0  0  0
  -26.2237  -27.9064   21.3034 C   0  0  0  0  0  0  0  0  0  0  0  0
  -30.6328  -32.3621   17.7233 C   0  0  0  0  0  0  0  0  0  0  0  0
  -25.9657  -16.9673   18.9269 C   0  0  0  0  0  0  0  0  0  0  0  0
  -30.8397  -31.3106   18.8088 C   0  0  0  0  0  0  0  0  0  0  0  0
  -24.8570  -15.9993   19.3440 C   0  0  0  0  0  0  0  0  0  0  0  0
  -27.9395  -20.9294   22.6226 C   0  0  0  0  0  0  0  0  0  0  0  0
  -27.3453  -16.3467   19.1262 C   0  0  0  0  0  0  0  0  0  0  0  0
  -29.0130  -19.9056   22.3121 C   0  0  0  0  0  0  0  0  0  0  0  0
  -26.5017  -14.8937   20.9292 C   0  0  0  0  0  0  0  0  0  0  0  0
  -30.3249  -29.9396   18.3540 C   0  0  1  0  0  0  0  0  0  0  0  0
  -27.5837  -21.4854   21.2514 C   0  0  1  0  0  0  0  0  0  0  0  0
  -26.7171  -29.5732   19.4866 C   0  0  1  0  0  0  0  0  0  0  0  0
  -25.0829  -15.4707   20.7729 C   0  0  2  0  0  0  0  0  0  0  0  0
  -21.3477  -30.2497   25.0286 C   0  0  0  0  0  0  0  0  0  0  0  0
  -27.8689  -30.4196   23.8817 C   0  0  0  0  0  0  0  0  0  0  0  0
  -25.9808  -30.3486   25.5244 C   0  0  0  0  0  0  0  0  0  0  0  0
  -26.1989  -32.2795   23.9602 C   0  0  0  0  0  0  0  0  0  0  0  0
  -20.8898  -28.6550   21.6047 C   0  0  0  0  0  0  0  0  0  0  0  0
  -30.4871  -17.7213   21.7634 C   0  0  0  0  0  0  0  0  0  0  0  0
  -27.0034  -22.8860   21.3083 C   0  0  0  0  0  0  0  0  0  1  0  0
  -25.4499  -30.0371   23.0643 C   0  0  1  0  0  0  0  0  0  0  0  0
  -21.6948  -29.9596   23.5767 C   0  0  2  0  0  0  0  0  0  0  0  0
  -26.3774  -30.7510   24.0878 C   0  0  0  0  0  0  0  0  0  0  0  0
  -24.2403  -13.1613   20.9699 N   0  0  0  0  0  0  0  0  0  0  0  0
  -24.0163  -14.4701   21.1774 N   0  0  0  0  0  0  0  0  0  0  0  0
  -29.6923  -20.4421   21.1475 N   0  0  0  0  0  0  0  0  0  0  0  0
  -26.1711  -29.2948   20.8165 N   0  0  0  0  0  0  0  0  0  0  0  0
  -27.5028  -15.8808   20.5112 N   0  0  0  0  0  0  0  0  0  0  0  0
  -22.4220  -16.0020   22.0271 N   0  0  0  0  0  0  0  0  0  0  0  0
  -20.4276  -11.9922   22.6101 N   0  0  0  0  0  0  0  0  0  0  0  0
  -28.8819  -29.8842   18.4499 N   0  0  0  0  0  0  0  0  0  0  0  0
  -24.0342  -30.3537   23.2186 N   0  0  0  0  0  0  0  0  0  0  0  0
  -29.4106  -17.2116   20.9434 N   0  0  0  0  0  0  0  0  0  0  0  0
  -20.6835  -29.0099   23.0324 N   0  3  0  0  0  0  0  0  0  0  0  0
  -29.1402  -22.0760   19.4995 O   0  0  0  0  0  0  0  0  0  0  0  0
  -20.1769  -14.2545   22.8887 O   0  0  0  0  0  0  0  0  0  0  0  0
  -28.7249  -29.3012   20.6989 O   0  0  0  0  0  0  0  0  0  0  0  0
  -25.7506  -31.5452   21.2582 O   0  0  0  0  0  0  0  0  0  0  0  0
  -23.3199  -28.1721   23.5461 O   0  0  0  0  0  0  0  0  0  0  0  0
  -28.5635  -15.8399   22.5731 O   0  0  0  0  0  0  0  0  0  0  0  0
  -22.5534   -7.0272   21.2444 O   0  0  0  0  0  0  0  0  0  0  0  0
  -26.3641  -23.1750   20.0657 O   0  0  0  0  0  0  0  0  0  1  0  0
  -20.5917   -4.5078   25.7398 F   0  0  0  0  0  0  0  0  0  0  0  0
  -24.0473   -5.1099   22.5615 F   0  0  0  0  0  0  0  0  0  0  0  0
  1  2  1  0  0  0  0
  1  7  2  0  0  0  0
  2  8  2  0  0  0  0
  3  4  1  0  0  0  0
  3 10  2  0  0  0  0
  4 11  2  0  0  0  0
  5 12  2  0  0  0  0
  5 19  1  0  0  0  0
  6 13  1  0  0  0  0
  6 19  2  0  0  0  0
  7 21  1  0  0  0  0
  8 23  1  0  0  0  0
  9 14  2  0  0  0  0
  9 22  1  0  0  0  0
 10 25  1  0  0  0  0
 11 26  1  0  0  0  0
 12 27  1  0  0  0  0
 13 27  2  0  0  0  0
 14 28  1  0  0  0  0
 15 16  2  0  0  0  0
 15 29  1  0  0  0  0
 16 30  1  0  0  0  0
 17 24  1  0  0  0  0
 17 28  2  0  0  0  0
 18 30  2  0  0  0  0
 18 31  1  0  0  0  0
 19 32  1  0  0  0  0
 20 32  1  0  0  0  0
 20 33  2  0  0  0  0
 20 35  1  0  0  0  0
 21 23  2  0  0  0  0
 21 40  1  0  0  0  0
 22 24  2  0  0  0  0
 22 41  1  0  0  0  0
 23 51  1  0  0  0  0
 24 42  1  0  0  0  0
 25 26  2  0  0  0  0
 25 60  1  0  0  0  0
 26 67  1  0  0  0  0
 27 82  1  0  0  0  0
 28 83  1  0  0  0  0
 29 31  2  0  0  0  0
 29 82  1  0  0  0  0
 30 84  1  0  0  0  0
 31 85  1  0  0  0  0
 32 65  2  0  0  0  0
 33 66  1  0  0  0  0
 33 70  1  0  0  0  0
 34 52  1  0  0  0  0
 34 67  1  0  0  0  0
 34 76  2  0  0  0  0
 35 71  1  0  0  0  0
 35 77  2  0  0  0  0
 36 53  1  0  0  0  0
 36 72  1  0  0  0  0
 36 78  2  0  0  0  0
 37 62  1  0  0  0  0
 37 68  1  0  0  0  0
 37 79  2  0  0  0  0
 38 63  1  0  0  0  0
 38 73  1  0  0  0  0
 38 80  2  0  0  0  0
 39 69  1  0  0  0  0
 39 74  1  0  0  0  0
 39 81  2  0  0  0  0
 40 43  1  0  0  0  0
 41 53  1  0  0  0  0
 42 68  1  0  0  0  0
 43 45  1  0  0  0  0
 44 46  1  0  0  0  0
 44 48  1  0  0  0  0
 45 51  1  0  0  0  0
 46 54  1  0  0  0  0
 47 49  1  0  0  0  0
 47 52  1  0  0  0  0
 48 69  1  0  0  0  0
 49 67  1  0  0  0  0
 50 54  1  0  0  0  0
 50 69  1  0  0  0  0
 51 72  1  0  0  0  0
 52 61  1  0  0  0  0
 53 68  1  0  0  0  0
 54 66  1  0  0  0  0
 55 63  1  0  0  0  0
 56 64  1  0  0  0  0
 57 64  1  0  0  0  0
 58 64  1  0  0  0  0
 59 75  1  0  0  0  0
 60 74  1  0  0  0  0
 61 83  1  0  0  0  0
 62 64  1  0  0  0  0
 62 73  1  0  0  0  0
 63 75  1  0  0  0  0
 65 66  1  0  0  0  0
M  CHG  1  75   1
M  ISO  4  39 100  61 101  74 100  83 101
M  END
> <Batch ID>
0069

> <Smiles>
CNC(C)C(=O)NC(C(=O)N1Cc2cc([101O:1][101CH2:1]C3CCN(c4ccccc4C[100NH:0][100C:0](=O)N4CCCC(n5nc(-c6ccc(Oc7ccc(F)cc7F)cc6)c(C(N)=O)c5N)C4)C3=O)ccc2CC1C(=O)NC1CCCc2ccccc21)C(C)(C)C

> <Shape>
0.272

> <Color>
0.083

> <Negative vol penalty>
0.000

$$$$

  -OEChem-04042323303D

 85 93  0     1  0  0  0  0  0999 V2000
  -18.5993  -24.2603   21.6262 C   0  0  0  0  0  0  0  0  0  0  0  0
  -19.9641  -24.2207   21.3590 C   0  0  0  0  0  0  0  0  0  0  0  0
  -22.9429  -14.2442   24.0915 C   0  0  0  0  0  0  0  0  0  0  0  0
  -22.6820  -15.5143   22.0530 C   0  0  0  0  0  0  0  0  0  0  0  0
  -18.0354  -25.3985   22.2009 C   0  0  0  0  0  0  0  0  0  0  0  0
  -20.7655  -25.3199   21.6654 C   0  0  0  0  0  0  0  0  0  0  0  0
  -25.0954  -23.9954   23.9330 C   0  0  0  0  0  0  0  0  0  0  0  0
  -31.9764  -19.9198   18.0521 C   0  0  0  0  0  0  0  0  0  0  0  0
  -31.1088  -20.6361   18.8765 C   0  0  0  0  0  0  0  0  0  0  0  0
  -21.9554  -15.0185   24.7004 C   0  0  0  0  0  0  0  0  0  0  0  0
  -21.6944  -16.2887   22.6619 C   0  0  0  0  0  0  0  0  0  0  0  0
  -26.1106  -23.4905   23.1216 C   0  0  0  0  0  0  0  0  0  0  0  0
  -19.3589  -18.8343   23.7912 C   0  0  0  0  0  0  0  0  0  0  0  0
  -19.4139  -20.2160   23.6084 C   0  0  0  0  0  0  0  0  0  0  0  0
  -27.1909  -25.6473   23.1414 C   0  0  0  0  0  0  0  0  0  0  0  0
  -29.7229  -18.6727   19.1240 C   0  0  0  0  0  0  0  0  0  0  0  0
  -21.5972  -20.2658   24.6419 C   0  0  0  0  0  0  0  0  0  0  0  0
  -23.3063  -14.4921   22.7678 C   0  0  0  0  0  0  0  0  0  0  0  0
  -24.1461  -12.4979   21.4167 C   0  0  0  0  0  0  0  0  0  0  0  0
  -18.8320  -26.5086   22.5234 C   0  0  0  0  0  0  0  0  0  0  0  0
  -25.1147  -25.3353   24.3464 C   0  0  0  0  0  0  0  0  0  0  0  0
  -20.2115  -26.4746   22.2437 C   0  0  0  0  0  0  0  0  0  0  0  0
  -26.1761  -26.1661   23.9601 C   0  0  0  0  0  0  0  0  0  0  0  0
  -31.7172  -18.5799   17.7635 C   0  0  0  0  0  0  0  0  0  0  0  0
  -30.5905  -17.9564   18.2995 C   0  0  0  0  0  0  0  0  0  0  0  0
  -29.9821  -20.0126   19.4125 C   0  0  0  0  0  0  0  0  0  0  0  0
  -21.3311  -16.0407   23.9856 C   0  0  0  0  0  0  0  0  0  0  0  0
  -27.1570  -24.3173   22.7233 C   0  0  0  0  0  0  0  0  0  0  0  0
  -20.4230  -18.1683   24.3994 C   0  0  0  0  0  0  0  0  0  0  0  0
  -20.5331  -20.9317   24.0338 C   0  0  0  0  0  0  0  0  0  0  0  0
  -21.5422  -18.8840   24.8247 C   0  0  0  0  0  0  0  0  0  0  0  0
  -24.3268  -13.6930   22.1385 C   0  0  0  0  0  0  0  0  0  0  0  0
  -25.4129  -12.1364   21.0283 C   0  0  0  0  0  0  0  0  0  0  0  0
  -22.9408  -11.7789   21.1235 C   0  0  0  0  0  0  0  0  0  0  0  0
  -23.2063  -27.8415   23.9216 C   0  0  0  0  0  0  0  0  0  0  0  0
  -25.2427  -29.2544   26.0143 C   0  0  0  0  0  0  0  0  0  0  0  0
  -29.2089  -22.0694   20.6397 C   0  0  0  0  0  0  0  0  0  0  0  0
  -28.3501  -29.3415   27.4226 C   0  0  0  0  0  0  0  0  0  0  0  0
  -30.4474  -15.2511   20.1320 C   0  0  0  0  0  0  0  0  0  0  0  0
  -18.1693  -27.7346   23.0999 C   0  0  0  0  0  0  0  0  0  0  0  0
  -24.0262  -25.8574   25.2435 C   0  0  0  0  0  0  0  0  0  0  0  0
  -26.2540  -27.6064   24.3935 C   0  0  0  0  0  0  0  0  0  0  0  0
  -19.1507  -28.7137   23.7390 C   0  0  0  0  0  0  0  0  0  0  0  0
  -29.9909  -12.5164   22.3657 C   0  0  0  0  0  0  0  0  0  0  0  0
  -20.3491  -28.9426   22.8234 C   0  0  0  0  0  0  0  0  0  0  0  0
  -28.4712  -12.4000   22.4957 C   0  0  0  0  0  0  0  0  0  0  0  0
  -30.4379  -13.9723   22.2536 C   0  0  0  0  0  0  0  0  0  0  0  0
  -28.2550  -14.6267   21.3152 C   0  0  0  0  0  0  0  0  0  0  0  0
  -21.1180  -27.6375   22.5844 C   0  0  1  0  0  0  0  0  0  0  0  0
  -23.8777  -27.3745   25.1821 C   0  0  1  0  0  0  0  0  0  0  0  0
  -27.7517  -13.1744   21.3750 C   0  0  2  0  0  0  0  0  0  0  0  0
  -32.6601  -17.8338   16.8776 C   0  0  0  0  0  0  0  0  0  0  0  0
  -29.0779  -14.8936   16.4424 C   0  0  0  0  0  0  0  0  0  0  0  0
  -29.7288  -30.6334   29.0741 C   0  0  0  0  0  0  0  0  0  0  0  0
  -25.6002  -31.4872   23.9657 C   0  0  0  0  0  0  0  0  0  0  0  0
  -27.6426  -32.2143   25.2180 C   0  0  0  0  0  0  0  0  0  0  0  0
  -25.4127  -32.2655   26.3350 C   0  0  0  0  0  0  0  0  0  0  0  0
  -28.7090  -26.9687   29.1546 C   0  0  0  0  0  0  0  0  0  0  0  0
  -28.0542  -22.4567   21.5447 C   0  0  0  0  0  0  0  0  0  1  0  0
  -29.4183  -16.3480   16.7434 C   0  0  0  0  0  0  0  0  0  0  0  0
  -30.2939  -16.5223   18.0061 C   0  0  2  0  0  0  0  0  0  0  0  0
  -26.5264  -30.0393   25.8923 C   0  0  1  0  0  0  0  0  0  0  0  0
  -28.7977  -29.4485   28.8692 C   0  0  2  0  0  0  0  0  0  0  0  0
  -26.2933  -31.4750   25.3428 C   0  0  0  0  0  0  0  0  0  0  0  0
  -25.6076  -14.0657   22.2062 N   0  0  0  0  0  0  0  0  0  0  0  0
  -26.2432  -13.0992   21.5221 N   0  0  0  0  0  0  0  0  0  0  0  0
  -25.1626  -28.0720   25.2651 N   0  0  0  0  0  0  0  0  0  0  0  0
  -29.7191  -14.6495   21.1716 N   0  0  0  0  0  0  0  0  0  0  0  0
  -25.8866  -11.0920   20.3161 N   0  0  0  0  0  0  0  0  0  0  0  0
  -21.7254  -12.2902   21.5985 N   0  0  0  0  0  0  0  0  0  0  0  0
  -29.1027  -20.7384   20.2506 N   0  0  0  0  0  0  0  0  0  0  0  0
  -21.9414  -27.3188   23.7311 N   0  0  0  0  0  0  0  0  0  0  0  0
  -27.1567  -29.9979   27.2074 N   0  0  0  0  0  0  0  0  0  0  0  0
  -29.6888  -15.8658   19.1434 N   0  0  0  0  0  0  0  0  0  0  0  0
  -29.5157  -28.2096   29.2822 N   0  3  0  0  0  0  0  0  0  0  0  0
  -22.9433  -10.7058   20.4739 O   0  0  0  0  0  0  0  0  0  0  0  0
  -23.7919  -28.6196   23.1778 O   0  0  0  0  0  0  0  0  0  0  0  0
  -24.3469  -29.6712   26.7528 O   0  0  0  0  0  0  0  0  0  0  0  0
  -30.0833  -22.8735   20.3340 O   0  0  0  0  0  0  0  0  0  0  0  0
  -28.9964  -28.7393   26.5681 O   0  0  0  0  0  0  0  0  0  0  0  0
  -31.6822  -15.2365   20.0853 O   0  0  0  0  0  0  0  0  0  0  0  0
  -20.3673  -16.7963   24.5794 O   0  0  0  0  0  0  0  0  0  0  0  0
  -28.1488  -23.8272   21.9309 O   0  0  0  0  0  0  0  0  0  1  0  0
  -20.5864  -22.2584   23.8568 F   0  0  0  0  0  0  0  0  0  0  0  0
  -22.5680  -18.2495   25.4086 F   0  0  0  0  0  0  0  0  0  0  0  0
  1  2  1  0  0  0  0
  1  5  2  0  0  0  0
  2  6  2  0  0  0  0
  3 10  2  0  0  0  0
  3 18  1  0  0  0  0
  4 11  1  0  0  0  0
  4 18  2  0  0  0  0
  5 20  1  0  0  0  0
  6 22  1  0  0  0  0
  7 12  2  0  0  0  0
  7 21  1  0  0  0  0
  8  9  2  0  0  0  0
  8 24  1  0  0  0  0
  9 26  1  0  0  0  0
 10 27  1  0  0  0  0
 11 27  2  0  0  0  0
 12 28  1  0  0  0  0
 13 14  2  0  0  0  0
 13 29  1  0  0  0  0
 14 30  1  0  0  0  0
 15 23  1  0  0  0  0
 15 28  2  0  0  0  0
 16 25  1  0  0  0  0
 16 26  2  0  0  0  0
 17 30  2  0  0  0  0
 17 31  1  0  0  0  0
 18 32  1  0  0  0  0
 19 32  1  0  0  0  0
 19 33  2  0  0  0  0
 19 34  1  0  0  0  0
 20 22  2  0  0  0  0
 20 40  1  0  0  0  0
 21 23  2  0  0  0  0
 21 41  1  0  0  0  0
 22 49  1  0  0  0  0
 23 42  1  0  0  0  0
 24 25  2  0  0  0  0
 24 52  1  0  0  0  0
 25 61  1  0  0  0  0
 26 71  1  0  0  0  0
 27 82  1  0  0  0  0
 28 83  1  0  0  0  0
 29 31  2  0  0  0  0
 29 82  1  0  0  0  0
 30 84  1  0  0  0  0
 31 85  1  0  0  0  0
 32 65  2  0  0  0  0
 33 66  1  0  0  0  0
 33 69  1  0  0  0  0
 34 70  1  0  0  0  0
 34 76  2  0  0  0  0
 35 50  1  0  0  0  0
 35 72  1  0  0  0  0
 35 77  2  0  0  0  0
 36 62  1  0  0  0  0
 36 67  1  0  0  0  0
 36 78  2  0  0  0  0
 37 59  1  0  0  0  0
 37 71  1  0  0  0  0
 37 79  2  0  0  0  0
 38 63  1  0  0  0  0
 38 73  1  0  0  0  0
 38 80  2  0  0  0  0
 39 68  1  0  0  0  0
 39 74  1  0  0  0  0
 39 81  2  0  0  0  0
 40 43  1  0  0  0  0
 41 50  1  0  0  0  0
 42 67  1  0  0  0  0
 43 45  1  0  0  0  0
 44 46  1  0  0  0  0
 44 47  1  0  0  0  0
 45 49  1  0  0  0  0
 46 51  1  0  0  0  0
 47 68  1  0  0  0  0
 48 51  1  0  0  0  0
 48 68  1  0  0  0  0
 49 72  1  0  0  0  0
 50 67  1  0  0  0  0
 51 66  1  0  0  0  0
 53 60  1  0  0  0  0
 54 63  1  0  0  0  0
 55 64  1  0  0  0  0
 56 64  1  0  0  0  0
 57 64  1  0  0  0  0
 58 75  1  0  0  0  0
 59 83  1  0  0  0  0
 60 61  1  0  0  0  0
 61 74  1  0  0  0  0
 62 64  1  0  0  0  0
 62 73  1  0  0  0  0
 63 75  1  0  0  0  0
 65 66  1  0  0  0  0
M  CHG  1  75   1
M  ISO  4  39 100  59 101  74 100  83 101
M  END
> <Batch ID>
0069

> <Smiles>
CCC([100NH:0][100C:0](=O)N1CCCC(n2nc(-c3ccc(Oc4ccc(F)cc4F)cc3)c(C(N)=O)c2N)C1)c1cc(NC(=O)[101CH2:1][101O:1]c2ccc3c(c2)CN(C(=O)C(NC(=O)C(C)NC)C(C)(C)C)C(C(=O)NC2CCCc4ccccc42)C3)ccc1C

> <Shape>
0.204

> <Color>
0.090

> <Negative vol penalty>
0.000

$$$$

  -OEChem-04042323303D

 81 89  0     1  0  0  0  0  0999 V2000
  -23.5053  -30.7947   20.3260 C   0  0  0  0  0  0  0  0  0  0  0  0
  -23.6850  -29.4221   20.4640 C   0  0  0  0  0  0  0  0  0  0  0  0
  -32.6863  -17.5766   23.1954 C   0  0  0  0  0  0  0  0  0  0  0  0
  -23.0533   -9.8426   20.1037 C   0  0  0  0  0  0  0  0  0  0  0  0
  -23.7432  -10.0509   22.4098 C   0  0  0  0  0  0  0  0  0  0  0  0
  -24.2616  -31.6766   21.0967 C   0  0  0  0  0  0  0  0  0  0  0  0
  -24.6221  -28.9306   21.3721 C   0  0  0  0  0  0  0  0  0  0  0  0
  -24.1922  -23.8036   24.6939 C   0  0  0  0  0  0  0  0  0  0  0  0
  -31.8858  -18.5251   23.8318 C   0  0  0  0  0  0  0  0  0  0  0  0
  -32.1064  -16.6228   22.3589 C   0  0  0  0  0  0  0  0  0  0  0  0
  -22.2765   -8.7329   20.4363 C   0  0  0  0  0  0  0  0  0  0  0  0
  -22.9663   -8.9412   22.7424 C   0  0  0  0  0  0  0  0  0  0  0  0
  -24.7159  -22.5238   24.5157 C   0  0  0  0  0  0  0  0  0  0  0  0
  -19.7042   -8.2669   23.3122 C   0  0  0  0  0  0  0  0  0  0  0  0
  -18.9114   -8.3523   24.4566 C   0  0  0  0  0  0  0  0  0  0  0  0
  -26.5659  -23.0867   25.9579 C   0  0  0  0  0  0  0  0  0  0  0  0
  -29.9254  -17.5661   22.7954 C   0  0  0  0  0  0  0  0  0  0  0  0
  -20.0860   -6.4690   25.4109 C   0  0  0  0  0  0  0  0  0  0  0  0
  -23.7867  -10.5016   21.0905 C   0  0  0  0  0  0  0  0  0  0  0  0
  -24.1887  -12.9970   20.7457 C   0  0  0  0  0  0  0  0  0  0  0  0
  -25.2016  -31.1955   22.0217 C   0  0  0  0  0  0  0  0  0  0  0  0
  -24.8582  -24.7396   25.4980 C   0  0  0  0  0  0  0  0  0  0  0  0
  -25.3927  -29.8070   22.1550 C   0  0  0  0  0  0  0  0  0  0  0  0
  -26.0472  -24.3768   26.1467 C   0  0  0  0  0  0  0  0  0  0  0  0
  -30.5054  -18.5199   23.6318 C   0  0  0  0  0  0  0  0  0  0  0  0
  -30.7260  -16.6175   22.1590 C   0  0  0  0  0  0  0  0  0  0  0  0
  -22.2329   -8.2822   21.7557 C   0  0  0  0  0  0  0  0  0  0  0  0
  -25.9044  -22.1661   25.1455 C   0  0  0  0  0  0  0  0  0  0  0  0
  -20.6879   -7.2825   23.2171 C   0  0  0  0  0  0  0  0  0  0  0  0
  -19.1022   -7.4534   25.5060 C   0  0  0  0  0  0  0  0  0  0  0  0
  -20.8788   -6.3836   24.2665 C   0  0  0  0  0  0  0  0  0  0  0  0
  -24.5898  -11.6476   20.7474 C   0  0  0  0  0  0  0  0  0  0  0  0
  -25.3080  -13.6874   20.3494 C   0  0  0  0  0  0  0  0  0  0  0  0
  -22.9180  -13.5747   21.0732 C   0  0  0  0  0  0  0  0  0  0  0  0
  -26.1843  -27.5850   24.9992 C   0  0  0  0  0  0  0  0  0  0  0  0
  -26.5401  -27.5507   28.2232 C   0  0  0  0  0  0  0  0  0  0  0  0
  -28.3128  -19.6212   24.1917 C   0  0  0  0  0  0  0  0  0  0  0  0
  -26.7937  -25.7176   31.0907 C   0  0  0  0  0  0  0  0  0  0  0  0
  -30.7885  -14.6379   20.6022 C   0  0  0  0  0  0  0  0  0  0  0  0
  -26.0293  -32.1884   22.7986 C   0  0  0  0  0  0  0  0  0  0  0  0
  -24.2662  -26.1073   25.7015 C   0  0  0  0  0  0  0  0  0  0  0  0
  -26.7902  -25.3383   27.0366 C   0  0  0  0  0  0  0  0  0  0  0  0
  -26.7354  -31.5793   24.0073 C   0  0  0  0  0  0  0  0  0  0  0  0
  -29.6925  -12.0338   18.4354 C   0  0  0  0  0  0  0  0  0  0  0  0
  -27.4111  -30.2662   23.6251 C   0  0  0  0  0  0  0  0  0  0  0  0
  -28.2343  -11.8122   18.8436 C   0  0  0  0  0  0  0  0  0  0  0  0
  -30.5756  -12.3570   19.6393 C   0  0  0  0  0  0  0  0  0  0  0  0
  -28.6444  -13.2455   20.8843 C   0  0  0  0  0  0  0  0  0  0  0  0
  -26.3819  -29.2348   23.1471 C   0  0  1  0  0  0  0  0  0  0  0  0
  -25.2972  -27.1469   26.1300 C   0  0  1  0  0  0  0  0  0  0  0  0
  -27.7041  -12.9810   19.6971 C   0  0  2  0  0  0  0  0  0  0  0  0
  -27.1161  -25.9680   33.5667 C   0  0  0  0  0  0  0  0  0  0  0  0
  -29.5035  -28.1240   27.7769 C   0  0  0  0  0  0  0  0  0  0  0  0
  -29.9236  -27.4271   30.1446 C   0  0  0  0  0  0  0  0  0  0  0  0
  -28.4679  -29.3953   29.6652 C   0  0  0  0  0  0  0  0  0  0  0  0
  -24.1860  -24.4463   31.6760 C   0  0  0  0  0  0  0  0  0  0  0  0
  -27.8372  -20.7841   25.0426 C   0  0  0  0  0  0  0  0  0  1  0  0
  -27.6074  -27.0689   29.1759 C   0  0  1  0  0  0  0  0  0  0  0  0
  -26.1049  -25.8527   32.4367 C   0  0  2  0  0  0  0  0  0  0  0  0
  -28.8629  -27.9861   29.1724 C   0  0  0  0  0  0  0  0  0  0  0  0
  -25.8643  -11.4881   20.3810 N   0  0  0  0  0  0  0  0  0  0  0  0
  -26.2737  -12.7463   20.1454 N   0  0  0  0  0  0  0  0  0  0  0  0
  -26.1745  -26.6657   27.1991 N   0  0  0  0  0  0  0  0  0  0  0  0
  -30.0136  -13.4766   20.3979 N   0  0  0  0  0  0  0  0  0  0  0  0
  -25.5504  -15.0017   20.1590 N   0  0  0  0  0  0  0  0  0  0  0  0
  -21.8761  -12.7213   21.4612 N   0  0  0  0  0  0  0  0  0  0  0  0
  -29.6939  -19.4828   24.2774 N   0  0  0  0  0  0  0  0  0  0  0  0
  -30.1375  -15.6484   21.3091 N   0  0  0  0  0  0  0  0  0  0  0  0
  -25.6880  -28.6528   24.2759 N   0  0  0  0  0  0  0  0  0  0  0  0
  -26.9641  -26.9417   30.4791 N   0  0  0  0  0  0  0  0  0  0  0  0
  -25.2414  -24.6664   32.6981 N   0  3  0  0  0  0  0  0  0  0  0  0
  -22.7079  -14.8096   21.0075 O   0  0  0  0  0  0  0  0  0  0  0  0
  -27.2415  -26.9987   24.7986 O   0  0  0  0  0  0  0  0  0  0  0  0
  -26.0438  -28.6682   28.3861 O   0  0  0  0  0  0  0  0  0  0  0  0
  -27.5286  -18.9380   23.5414 O   0  0  0  0  0  0  0  0  0  0  0  0
  -27.1486  -24.6351   30.6297 O   0  0  0  0  0  0  0  0  0  0  0  0
  -31.9347  -14.7397   20.1576 O   0  0  0  0  0  0  0  0  0  0  0  0
  -21.4748   -7.1995   22.0806 O   0  0  0  0  0  0  0  0  0  0  0  0
  -26.4182  -20.9179   24.9728 O   0  0  0  0  0  0  0  0  0  1  0  0
  -18.3418   -7.5365   26.6056 F   0  0  0  0  0  0  0  0  0  0  0  0
  -21.8230   -5.4365   24.1814 F   0  0  0  0  0  0  0  0  0  0  0  0
  1  2  1  0  0  0  0
  1  6  2  0  0  0  0
  2  7  2  0  0  0  0
  3  9  2  0  0  0  0
  3 10  1  0  0  0  0
  4 11  2  0  0  0  0
  4 19  1  0  0  0  0
  5 12  1  0  0  0  0
  5 19  2  0  0  0  0
  6 21  1  0  0  0  0
  7 23  1  0  0  0  0
  8 13  2  0  0  0  0
  8 22  1  0  0  0  0
  9 25  1  0  0  0  0
 10 26  2  0  0  0  0
 11 27  1  0  0  0  0
 12 27  2  0  0  0  0
 13 28  1  0  0  0  0
 14 15  2  0  0  0  0
 14 29  1  0  0  0  0
 15 30  1  0  0  0  0
 16 24  1  0  0  0  0
 16 28  2  0  0  0  0
 17 25  2  0  0  0  0
 17 26  1  0  0  0  0
 18 30  2  0  0  0  0
 18 31  1  0  0  0  0
 19 32  1  0  0  0  0
 20 32  1  0  0  0  0
 20 33  2  0  0  0  0
 20 34  1  0  0  0  0
 21 23  2  0  0  0  0
 21 40  1  0  0  0  0
 22 24  2  0  0  0  0
 22 41  1  0  0  0  0
 23 49  1  0  0  0  0
 24 42  1  0  0  0  0
 25 67  1  0  0  0  0
 26 68  1  0  0  0  0
 27 78  1  0  0  0  0
 28 79  1  0  0  0  0
 29 31  2  0  0  0  0
 29 78  1  0  0  0  0
 30 80  1  0  0  0  0
 31 81  1  0  0  0  0
 32 61  2  0  0  0  0
 33 62  1  0  0  0  0
 33 65  1  0  0  0  0
 34 66  1  0  0  0  0
 34 72  2  0  0  0  0
 35 50  1  0  0  0  0
 35 69  1  0  0  0  0
 35 73  2  0  0  0  0
 36 58  1  0  0  0  0
 36 63  1  0  0  0  0
 36 74  2  0  0  0  0
 37 57  1  0  0  0  0
 37 67  1  0  0  0  0
 37 75  2  0  0  0  0
 38 59  1  0  0  0  0
 38 70  1  0  0  0  0
 38 76  2  0  0  0  0
 39 64  1  0  0  0  0
 39 68  1  0  0  0  0
 39 77  2  0  0  0  0
 40 43  1  0  0  0  0
 41 50  1  0  0  0  0
 42 63  1  0  0  0  0
 43 45  1  0  0  0  0
 44 46  1  0  0  0  0
 44 47  1  0  0  0  0
 45 49  1  0  0  0  0
 46 51  1  0  0  0  0
 47 64  1  0  0  0  0
 48 51  1  0  0  0  0
 48 64  1  0  0  0  0
 49 69  1  0  0  0  0
 50 63  1  0  0  0  0
 51 62  1  0  0  0  0
 52 59  1  0  0  0  0
 53 60  1  0  0  0  0
 54 60  1  0  0  0  0
 55 60  1  0  0  0  0
 56 71  1  0  0  0  0
 57 79  1  0  0  0  0
 58 60  1  0  0  0  0
 58 70  1  0  0  0  0
 59 71  1  0  0  0  0
 61 62  1  0  0  0  0
M  CHG  1  71   1
M  ISO  4  39 100  57 101  68 100  79 101
M  END
> <Batch ID>
0069

> <Smiles>
CNC(C)C(=O)NC(C(=O)N1Cc2cc([101O:1][101CH2:1]C(=O)Nc3cccc([100NH:0][100C:0](=O)N4CCCC(n5nc(-c6ccc(Oc7ccc(F)cc7F)cc6)c(C(N)=O)c5N)C4)c3)ccc2CC1C(=O)NC1CCCc2ccccc21)C(C)(C)C

> <Shape>
0.230

> <Color>
0.202

> <Negative vol penalty>
0.000

$$$$

  -OEChem-04042323303D

 84 92  0     1  0  0  0  0  0999 V2000
  -16.8365  -11.5526   29.1945 C   0  0  0  0  0  0  0  0  0  0  0  0
  -18.1778  -11.5510   29.5636 C   0  0  0  0  0  0  0  0  0  0  0  0
  -23.2883   -9.8003   19.9133 C   0  0  0  0  0  0  0  0  0  0  0  0
  -23.7418   -9.9400   22.2822 C   0  0  0  0  0  0  0  0  0  0  0  0
  -16.4012  -12.3758   28.1568 C   0  0  0  0  0  0  0  0  0  0  0  0
  -19.0849  -12.3718   28.8943 C   0  0  0  0  0  0  0  0  0  0  0  0
  -23.9584  -15.1982   31.2955 C   0  0  0  0  0  0  0  0  0  0  0  0
  -32.8087  -13.5236   23.7173 C   0  0  0  0  0  0  0  0  0  0  0  0
  -22.5626   -8.6274   20.1213 C   0  0  0  0  0  0  0  0  0  0  0  0
  -23.0161   -8.7670   22.4903 C   0  0  0  0  0  0  0  0  0  0  0  0
  -25.3153  -14.8781   31.3107 C   0  0  0  0  0  0  0  0  0  0  0  0
  -19.7697   -7.8546   22.7111 C   0  0  0  0  0  0  0  0  0  0  0  0
  -33.5785  -13.7822   24.8513 C   0  0  0  0  0  0  0  0  0  0  0  0
  -18.8686   -7.8320   23.7755 C   0  0  0  0  0  0  0  0  0  0  0  0
  -30.8899  -13.0876   25.1191 C   0  0  0  0  0  0  0  0  0  0  0  0
  -25.6653  -16.2974   29.3917 C   0  0  0  0  0  0  0  0  0  0  0  0
  -20.0763   -5.9848   24.7587 C   0  0  0  0  0  0  0  0  0  0  0  0
  -23.8779  -10.4566   20.9937 C   0  0  0  0  0  0  0  0  0  0  0  0
  -31.6597  -13.3462   26.2532 C   0  0  0  0  0  0  0  0  0  0  0  0
  -24.1361  -12.9868   20.7960 C   0  0  0  0  0  0  0  0  0  0  0  0
  -17.3016  -13.2142   27.4809 C   0  0  0  0  0  0  0  0  0  0  0  0
  -23.4420  -16.0632   30.3201 C   0  0  0  0  0  0  0  0  0  0  0  0
  -18.6615  -13.2059   27.8457 C   0  0  0  0  0  0  0  0  0  0  0  0
  -24.3020  -16.6289   29.3679 C   0  0  0  0  0  0  0  0  0  0  0  0
  -31.4643  -13.1763   23.8511 C   0  0  0  0  0  0  0  0  0  0  0  0
  -22.4265   -8.1108   21.4098 C   0  0  0  0  0  0  0  0  0  0  0  0
  -26.1684  -15.4255   30.3569 C   0  0  0  0  0  0  0  0  0  0  0  0
  -20.8241   -6.9422   22.6703 C   0  0  0  0  0  0  0  0  0  0  0  0
  -19.0219   -6.8972   24.7993 C   0  0  0  0  0  0  0  0  0  0  0  0
  -33.0040  -13.6935   26.1193 C   0  0  0  0  0  0  0  0  0  0  0  0
  -20.9774   -6.0074   23.6941 C   0  0  0  0  0  0  0  0  0  0  0  0
  -24.6281  -11.6679   20.7794 C   0  0  0  0  0  0  0  0  0  0  0  0
  -25.2369  -13.7672   20.5401 C   0  0  0  0  0  0  0  0  0  0  0  0
  -31.0490  -13.2508   27.5951 C   0  0  0  0  0  0  0  0  0  0  0  0
  -22.8031  -13.4638   21.0227 C   0  0  0  0  0  0  0  0  0  0  0  0
  -21.2975  -15.7912   27.9896 C   0  0  0  0  0  0  0  0  0  0  0  0
  -21.7998  -18.9814   27.6847 C   0  0  0  0  0  0  0  0  0  0  0  0
  -29.2923  -14.1113   29.1261 C   0  0  0  0  0  0  0  0  0  0  0  0
  -23.8736  -21.6475   28.1729 C   0  0  0  0  0  0  0  0  0  0  0  0
  -31.0986  -12.9549   21.3685 C   0  0  0  0  0  0  0  0  0  0  0  0
  -16.7929  -14.0516   26.3342 C   0  0  0  0  0  0  0  0  0  0  0  0
  -21.9807  -16.4195   30.3337 C   0  0  0  0  0  0  0  0  0  0  0  0
  -23.8010  -17.5787   28.3119 C   0  0  0  0  0  0  0  0  0  0  0  0
  -17.7493  -15.1686   25.9245 C   0  0  0  0  0  0  0  0  0  0  0  0
  -29.4612  -13.6601   18.2865 C   0  0  0  0  0  0  0  0  0  0  0  0
  -19.1745  -14.6366   25.8120 C   0  0  0  0  0  0  0  0  0  0  0  0
  -27.9903  -13.3551   18.5793 C   0  0  0  0  0  0  0  0  0  0  0  0
  -30.3956  -12.6850   19.0004 C   0  0  0  0  0  0  0  0  0  0  0  0
  -28.7047  -12.2554   20.7397 C   0  0  0  0  0  0  0  0  0  0  0  0
  -19.6713  -14.1006   27.1601 C   0  0  1  0  0  0  0  0  0  0  0  0
  -21.4720  -16.9071   28.9806 C   0  0  1  0  0  0  0  0  0  0  0  0
  -27.7271  -13.2512   20.0944 C   0  0  2  0  0  0  0  0  0  0  0  0
  -24.0249  -24.1222   27.7857 C   0  0  0  0  0  0  0  0  0  0  0  0
  -22.3765  -18.4814   24.7305 C   0  0  0  0  0  0  0  0  0  0  0  0
  -23.4223  -20.7536   24.6217 C   0  0  0  0  0  0  0  0  0  0  0  0
  -21.0058  -20.5209   25.1952 C   0  0  0  0  0  0  0  0  0  0  0  0
  -24.0885  -22.2051   31.0715 C   0  0  0  0  0  0  0  0  0  0  0  0
  -28.1726  -15.1175   29.1142 C   0  0  0  0  0  0  0  0  0  1  0  0
  -22.7531  -19.8425   26.8918 C   0  0  1  0  0  0  0  0  0  0  0  0
  -23.6221  -23.0251   28.7588 C   0  0  2  0  0  0  0  0  0  0  0  0
  -22.3988  -19.8802   25.3784 C   0  0  0  0  0  0  0  0  0  0  0  0
  -25.9395  -11.6099   20.5322 N   0  0  0  0  0  0  0  0  0  0  0  0
  -26.2807  -12.9021   20.3912 N   0  0  0  0  0  0  0  0  0  0  0  0
  -22.3632  -17.8912   28.3629 N   0  0  0  0  0  0  0  0  0  0  0  0
  -30.0905  -12.6422   20.4321 N   0  0  0  0  0  0  0  0  0  0  0  0
  -25.4042  -15.1023   20.4301 N   0  0  0  0  0  0  0  0  0  0  0  0
  -21.7912  -12.5263   21.2709 N   0  0  0  0  0  0  0  0  0  0  0  0
  -30.6830  -12.9125   22.6989 N   0  0  0  0  0  0  0  0  0  0  0  0
  -30.0105  -14.0502   27.8750 N   0  0  0  0  0  0  0  0  0  0  0  0
  -20.0523  -15.1933   28.0291 N   0  0  0  0  0  0  0  0  0  0  0  0
  -22.7551  -21.1506   27.5378 N   0  0  0  0  0  0  0  0  0  0  0  0
  -31.5670  -12.3702   28.4509 N   0  3  0  0  0  0  0  0  0  0  0  0
  -24.4013  -23.2032   30.0166 N   0  3  0  0  0  0  0  0  0  0  0  0
  -22.5147  -14.6841   20.9893 O   0  0  0  0  0  0  0  0  0  0  0  0
  -22.2234  -15.4956   27.2434 O   0  0  0  0  0  0  0  0  0  0  0  0
  -20.6006  -19.2696   27.7073 O   0  0  0  0  0  0  0  0  0  0  0  0
  -29.5910  -13.4023   30.0763 O   0  0  0  0  0  0  0  0  0  0  0  0
  -24.9552  -21.0713   28.2660 O   0  0  0  0  0  0  0  0  0  0  0  0
  -32.2389  -13.2658   21.0149 O   0  0  0  0  0  0  0  0  0  0  0  0
  -21.7183   -6.9664   21.6132 O   0  0  0  0  0  0  0  0  0  0  0  0
  -27.4931  -15.1142   30.3690 O   0  0  0  0  0  0  0  0  0  1  0  0
  -18.1575   -6.8766   25.8223 F   0  0  0  0  0  0  0  0  0  0  0  0
  -33.7516  -13.9435   27.2033 F   0  0  0  0  0  0  0  0  0  0  0  0
  -21.9890   -5.1291   23.6611 F   0  0  0  0  0  0  0  0  0  0  0  0
  1  2  1  0  0  0  0
  1  5  2  0  0  0  0
  2  6  2  0  0  0  0
  3  9  2  0  0  0  0
  3 18  1  0  0  0  0
  4 10  1  0  0  0  0
  4 18  2  0  0  0  0
  5 21  1  0  0  0  0
  6 23  1  0  0  0  0
  7 11  2  0  0  0  0
  7 22  1  0  0  0  0
  8 13  2  0  0  0  0
  8 25  1  0  0  0  0
  9 26  1  0  0  0  0
 10 26  2  0  0  0  0
 11 27  1  0  0  0  0
 12 14  2  0  0  0  0
 12 28  1  0  0  0  0
 13 30  1  0  0  0  0
 14 29  1  0  0  0  0
 15 19  1  0  0  0  0
 15 25  2  0  0  0  0
 16 24  1  0  0  0  0
 16 27  2  0  0  0  0
 17 29  2  0  0  0  0
 17 31  1  0  0  0  0
 18 32  1  0  0  0  0
 19 30  2  0  0  0  0
 19 34  1  0  0  0  0
 20 32  1  0  0  0  0
 20 33  2  0  0  0  0
 20 35  1  0  0  0  0
 21 23  2  0  0  0  0
 21 41  1  0  0  0  0
 22 24  2  0  0  0  0
 22 42  1  0  0  0  0
 23 50  1  0  0  0  0
 24 43  1  0  0  0  0
 25 68  1  0  0  0  0
 26 80  1  0  0  0  0
 27 81  1  0  0  0  0
 28 31  2  0  0  0  0
 28 80  1  0  0  0  0
 29 82  1  0  0  0  0
 30 83  1  0  0  0  0
 31 84  1  0  0  0  0
 32 62  2  0  0  0  0
 33 63  1  0  0  0  0
 33 66  1  0  0  0  0
 34 69  1  0  0  0  0
 34 72  2  0  0  0  0
 35 67  1  0  0  0  0
 35 74  2  0  0  0  0
 36 51  1  0  0  0  0
 36 70  1  0  0  0  0
 36 75  2  0  0  0  0
 37 59  1  0  0  0  0
 37 64  1  0  0  0  0
 37 76  2  0  0  0  0
 38 58  1  0  0  0  0
 38 69  1  0  0  0  0
 38 77  2  0  0  0  0
 39 60  1  0  0  0  0
 39 71  1  0  0  0  0
 39 78  2  0  0  0  0
 40 65  1  0  0  0  0
 40 68  1  0  0  0  0
 40 79  2  0  0  0  0
 41 44  1  0  0  0  0
 42 51  1  0  0  0  0
 43 64  1  0  0  0  0
 44 46  1  0  0  0  0
 45 47  1  0  0  0  0
 45 48  1  0  0  0  0
 46 50  1  0  0  0  0
 47 52  1  0  0  0  0
 48 65  1  0  0  0  0
 49 52  1  0  0  0  0
 49 65  1  0  0  0  0
 50 70  1  0  0  0  0
 51 64  1  0  0  0  0
 52 63  1  0  0  0  0
 53 60  1  0  0  0  0
 54 61  1  0  0  0  0
 55 61  1  0  0  0  0
 56 61  1  0  0  0  0
 57 73  1  0  0  0  0
 58 81  1  0  0  0  0
 59 61  1  0  0  0  0
 59 71  1  0  0  0  0
 60 73  1  0  0  0  0
 62 63  1  0  0  0  0
M  CHG  2  72   1  73   1
M  ISO  4  40 100  58 101  68 100  81 101
M  END
> <Batch ID>
0069

> <Smiles>
CNC(C)C(=O)NC(C(=O)N1Cc2cc([101O:1][101CH2:1]C(=O)NC(=N)c3cc([100NH:0][100C:0](=O)N4CCCC(n5nc(-c6ccc(Oc7ccc(F)cc7F)cc6)c(C(N)=O)c5N)C4)ccc3F)ccc2CC1C(=O)NC1CCCc2ccccc21)C(C)(C)C

> <Shape>
0.133

> <Color>
0.171

> <Negative vol penalty>
0.000

$$$$

  -OEChem-04042323303D

 84 92  0     1  0  0  0  0  0999 V2000
  -20.7207  -33.9255   15.3727 C   0  0  0  0  0  0  0  0  0  0  0  0
  -21.5434  -32.8087   15.4789 C   0  0  0  0  0  0  0  0  0  0  0  0
  -22.9241  -11.6112   21.5097 C   0  0  0  0  0  0  0  0  0  0  0  0
  -22.9174  -14.0074   21.2018 C   0  0  0  0  0  0  0  0  0  0  0  0
  -20.9309  -35.0262   16.2022 C   0  0  0  0  0  0  0  0  0  0  0  0
  -22.5777  -32.7925   16.4141 C   0  0  0  0  0  0  0  0  0  0  0  0
  -24.6178  -27.9523   19.5632 C   0  0  0  0  0  0  0  0  0  0  0  0
  -21.9054  -11.7298   22.4550 C   0  0  0  0  0  0  0  0  0  0  0  0
  -21.8986  -14.1261   22.1471 C   0  0  0  0  0  0  0  0  0  0  0  0
  -25.7035  -27.0988   19.3720 C   0  0  0  0  0  0  0  0  0  0  0  0
  -18.5506  -13.6829   22.2674 C   0  0  0  0  0  0  0  0  0  0  0  0
  -17.4786  -14.5210   21.9609 C   0  0  0  0  0  0  0  0  0  0  0  0
  -27.0065  -28.4211   20.9125 C   0  0  0  0  0  0  0  0  0  0  0  0
  -31.4583  -19.6095   20.9096 C   0  0  0  0  0  0  0  0  0  0  0  0
  -31.8236  -17.2224   20.8402 C   0  0  0  0  0  0  0  0  0  0  0  0
  -29.7931  -18.1607   19.9271 C   0  0  0  0  0  0  0  0  0  0  0  0
  -17.9733  -15.8652   23.9066 C   0  0  0  0  0  0  0  0  0  0  0  0
  -23.4302  -12.7500   20.8831 C   0  0  0  0  0  0  0  0  0  0  0  0
  -24.3379  -12.4495   18.5181 C   0  0  0  0  0  0  0  0  0  0  0  0
  -21.9621  -35.0196   17.1547 C   0  0  0  0  0  0  0  0  0  0  0  0
  -24.7219  -29.0548   20.4235 C   0  0  0  0  0  0  0  0  0  0  0  0
  -22.8027  -33.8947   17.2563 C   0  0  0  0  0  0  0  0  0  0  0  0
  -25.9198  -29.2856   21.1148 C   0  0  0  0  0  0  0  0  0  0  0  0
  -32.2569  -18.5010   21.1908 C   0  0  0  0  0  0  0  0  0  0  0  0
  -30.2264  -19.4394   20.2778 C   0  0  0  0  0  0  0  0  0  0  0  0
  -30.5917  -17.0522   20.2083 C   0  0  0  0  0  0  0  0  0  0  0  0
  -21.3926  -12.9872   22.7737 C   0  0  0  0  0  0  0  0  0  0  0  0
  -26.8990  -27.3347   20.0445 C   0  0  0  0  0  0  0  0  0  0  0  0
  -19.3339  -13.9359   23.3935 C   0  0  0  0  0  0  0  0  0  0  0  0
  -17.1899  -15.6122   22.7805 C   0  0  0  0  0  0  0  0  0  0  0  0
  -19.0453  -15.0270   24.2131 C   0  0  0  0  0  0  0  0  0  0  0  0
  -24.4829  -12.6282   19.9069 C   0  0  0  0  0  0  0  0  0  0  0  0
  -25.6253  -12.3929   18.0429 C   0  0  0  0  0  0  0  0  0  0  0  0
  -23.1460  -12.3443   17.7281 C   0  0  0  0  0  0  0  0  0  0  0  0
  -24.5042  -32.2059   20.0680 C   0  0  0  0  0  0  0  0  0  0  0  0
  -24.7490  -32.1961   23.3025 C   0  0  0  0  0  0  0  0  0  0  0  0
  -29.6916  -21.9004   20.2709 C   0  0  0  0  0  0  0  0  0  0  0  0
  -25.7908  -30.5840   26.1243 C   0  0  0  0  0  0  0  0  0  0  0  0
  -30.8202  -14.5477   20.0615 C   0  0  0  0  0  0  0  0  0  0  0  0
  -22.1804  -36.2516   17.9968 C   0  0  0  0  0  0  0  0  0  0  0  0
  -23.5331  -29.9506   20.6393 C   0  0  0  0  0  0  0  0  0  0  0  0
  -26.0766  -30.4436   22.0650 C   0  0  0  0  0  0  0  0  0  0  0  0
  -23.0626  -36.0061   19.2182 C   0  0  0  0  0  0  0  0  0  0  0  0
  -30.0540  -11.1407   19.3669 C   0  0  0  0  0  0  0  0  0  0  0  0
  -24.3024  -35.2071   18.8292 C   0  0  0  0  0  0  0  0  0  0  0  0
  -28.5255  -11.1204   19.2941 C   0  0  0  0  0  0  0  0  0  0  0  0
  -30.5580  -12.1056   20.4387 C   0  0  0  0  0  0  0  0  0  0  0  0
  -28.5022  -13.4524   20.2681 C   0  0  0  0  0  0  0  0  0  0  0  0
  -23.9195  -33.8294   18.2754 C   0  0  1  0  0  0  0  0  0  0  0  0
  -23.9148  -31.3387   21.1442 C   0  0  1  0  0  0  0  0  0  0  0  0
  -27.9488  -12.5433   19.1585 C   0  0  2  0  0  0  0  0  0  0  0  0
  -33.5735  -18.6833   21.8677 C   0  0  0  0  0  0  0  0  0  0  0  0
  -25.8867  -30.8418   28.6187 C   0  0  0  0  0  0  0  0  0  0  0  0
  -27.0668  -34.1585   23.0081 C   0  0  0  0  0  0  0  0  0  0  0  0
  -27.7126  -33.6423   25.3713 C   0  0  0  0  0  0  0  0  0  0  0  0
  -25.4947  -34.6746   24.8834 C   0  0  0  0  0  0  0  0  0  0  0  0
  -24.1202  -28.1790   26.5535 C   0  0  0  0  0  0  0  0  0  0  0  0
  -28.5510  -22.7901   19.7963 C   0  0  0  0  0  0  0  0  0  0  0  0
  -28.8025  -24.2675   20.0774 C   0  0  0  0  0  0  0  0  0  0  0  0
  -27.6720  -25.1402   19.5521 C   0  0  0  0  0  0  0  0  0  1  0  0
  -25.8909  -32.2495   24.2884 C   0  0  1  0  0  0  0  0  0  0  0  0
  -25.0894  -30.3031   27.4410 C   0  0  2  0  0  0  0  0  0  0  0  0
  -26.5393  -33.6604   24.3685 C   0  0  0  0  0  0  0  0  0  0  0  0
  -25.7616  -12.6813   20.2892 N   0  0  0  0  0  0  0  0  0  0  0  0
  -26.4318  -12.5352   19.1335 N   0  0  0  0  0  0  0  0  0  0  0  0
  -24.8877  -31.2947   22.2377 N   0  0  0  0  0  0  0  0  0  0  0  0
  -29.9733  -13.4341   20.2441 N   0  0  0  0  0  0  0  0  0  0  0  0
  -26.1349  -12.2357   16.8027 N   0  0  0  0  0  0  0  0  0  0  0  0
  -21.9058  -12.4233   18.3762 N   0  0  0  0  0  0  0  0  0  0  0  0
  -29.4165  -20.5644   19.9929 N   0  0  0  0  0  0  0  0  0  0  0  0
  -30.1509  -15.7532   19.8533 N   0  0  0  0  0  0  0  0  0  0  0  0
  -23.5689  -32.9306   19.3541 N   0  0  0  0  0  0  0  0  0  0  0  0
  -25.3582  -31.7639   25.5568 N   0  0  0  0  0  0  0  0  0  0  0  0
  -24.9078  -28.8358   27.6284 N   0  3  0  0  0  0  0  0  0  0  0  0
  -23.1798  -12.1684   16.4866 O   0  0  0  0  0  0  0  0  0  0  0  0
  -25.7179  -32.2180   19.8988 O   0  0  0  0  0  0  0  0  0  0  0  0
  -23.7667  -32.9222   23.4750 O   0  0  0  0  0  0  0  0  0  0  0  0
  -30.6901  -22.3575   20.8171 O   0  0  0  0  0  0  0  0  0  0  0  0
  -26.6403  -29.8338   25.6488 O   0  0  0  0  0  0  0  0  0  0  0  0
  -32.0488  -14.4354   20.0606 O   0  0  0  0  0  0  0  0  0  0  0  0
  -20.3983  -13.1033   23.6960 O   0  0  0  0  0  0  0  0  0  0  0  0
  -27.9605  -26.5036   19.8593 O   0  0  0  0  0  0  0  0  0  1  0  0
  -16.1614  -16.4178   22.4852 F   0  0  0  0  0  0  0  0  0  0  0  0
  -19.7950  -15.2758   25.2956 F   0  0  0  0  0  0  0  0  0  0  0  0
  1  2  1  0  0  0  0
  1  5  2  0  0  0  0
  2  6  2  0  0  0  0
  3  8  2  0  0  0  0
  3 18  1  0  0  0  0
  4  9  1  0  0  0  0
  4 18  2  0  0  0  0
  5 20  1  0  0  0  0
  6 22  1  0  0  0  0
  7 10  2  0  0  0  0
  7 21  1  0  0  0  0
  8 27  1  0  0  0  0
  9 27  2  0  0  0  0
 10 28  1  0  0  0  0
 11 12  2  0  0  0  0
 11 29  1  0  0  0  0
 12 30  1  0  0  0  0
 13 23  1  0  0  0  0
 13 28  2  0  0  0  0
 14 24  2  0  0  0  0
 14 25  1  0  0  0  0
 15 24  1  0  0  0  0
 15 26  2  0  0  0  0
 16 25  2  0  0  0  0
 16 26  1  0  0  0  0
 17 30  2  0  0  0  0
 17 31  1  0  0  0  0
 18 32  1  0  0  0  0
 19 32  1  0  0  0  0
 19 33  2  0  0  0  0
 19 34  1  0  0  0  0
 20 22  2  0  0  0  0
 20 40  1  0  0  0  0
 21 23  2  0  0  0  0
 21 41  1  0  0  0  0
 22 49  1  0  0  0  0
 23 42  1  0  0  0  0
 24 52  1  0  0  0  0
 25 70  1  0  0  0  0
 26 71  1  0  0  0  0
 27 81  1  0  0  0  0
 28 82  1  0  0  0  0
 29 31  2  0  0  0  0
 29 81  1  0  0  0  0
 30 83  1  0  0  0  0
 31 84  1  0  0  0  0
 32 64  2  0  0  0  0
 33 65  1  0  0  0  0
 33 68  1  0  0  0  0
 34 69  1  0  0  0  0
 34 75  2  0  0  0  0
 35 50  1  0  0  0  0
 35 72  1  0  0  0  0
 35 76  2  0  0  0  0
 36 61  1  0  0  0  0
 36 66  1  0  0  0  0
 36 77  2  0  0  0  0
 37 58  1  0  0  0  0
 37 70  1  0  0  0  0
 37 78  2  0  0  0  0
 38 62  1  0  0  0  0
 38 73  1  0  0  0  0
 38 79  2  0  0  0  0
 39 67  1  0  0  0  0
 39 71  1  0  0  0  0
 39 80  2  0  0  0  0
 40 43  1  0  0  0  0
 41 50  1  0  0  0  0
 42 66  1  0  0  0  0
 43 45  1  0  0  0  0
 44 46  1  0  0  0  0
 44 47  1  0  0  0  0
 45 49  1  0  0  0  0
 46 51  1  0  0  0  0
 47 67  1  0  0  0  0
 48 51  1  0  0  0  0
 48 67  1  0  0  0  0
 49 72  1  0  0  0  0
 50 66  1  0  0  0  0
 51 65  1  0  0  0  0
 53 62  1  0  0  0  0
 54 63  1  0  0  0  0
 55 63  1  0  0  0  0
 56 63  1  0  0  0  0
 57 74  1  0  0  0  0
 58 59  1  0  0  0  0
 59 60  1  0  0  0  0
 60 82  1  0  0  0  0
 61 63  1  0  0  0  0
 61 73  1  0  0  0  0
 62 74  1  0  0  0  0
 64 65  1  0  0  0  0
M  CHG  1  74   1
M  ISO  4  39 100  60 101  71 100  82 101
M  END
> <Batch ID>
0069

> <Smiles>
CNC(C)C(=O)NC(C(=O)N1Cc2cc([101O:1][101CH2:1]CCC(=O)Nc3cc(C)cc([100NH:0][100C:0](=O)N4CCCC(n5nc(-c6ccc(Oc7ccc(F)cc7F)cc6)c(C(N)=O)c5N)C4)c3)ccc2CC1C(=O)NC1CCCc2ccccc21)C(C)(C)C

> <Shape>
0.273

> <Color>
0.101

> <Negative vol penalty>
0.000

$$$$

  -OEChem-04042323303D

 82 90  0     1  0  0  0  0  0999 V2000
  -18.4661  -31.6189   22.9097 C   0  0  0  0  0  0  0  0  0  0  0  0
  -19.8544  -31.5393   22.8695 C   0  0  0  0  0  0  0  0  0  0  0  0
  -30.4729  -22.9162   17.1667 C   0  0  0  0  0  0  0  0  0  0  0  0
  -28.0160  -12.6991   22.4229 C   0  0  0  0  0  0  0  0  0  0  0  0
  -26.8072  -12.9677   20.3484 C   0  0  0  0  0  0  0  0  0  0  0  0
  -17.6998  -30.4567   22.8330 C   0  0  0  0  0  0  0  0  0  0  0  0
  -20.4773  -30.2971   22.7535 C   0  0  0  0  0  0  0  0  0  0  0  0
  -25.6617  -29.0451   19.7435 C   0  0  0  0  0  0  0  0  0  0  0  0
  -30.7116  -24.1213   17.8272 C   0  0  0  0  0  0  0  0  0  0  0  0
  -29.5335  -22.0177   17.6726 C   0  0  0  0  0  0  0  0  0  0  0  0
  -27.4894  -11.4151   22.5635 C   0  0  0  0  0  0  0  0  0  0  0  0
  -26.2806  -11.6837   20.4890 C   0  0  0  0  0  0  0  0  0  0  0  0
  -26.9808  -28.8957   20.1693 C   0  0  0  0  0  0  0  0  0  0  0  0
  -23.8173  -10.1804   22.2505 C   0  0  0  0  0  0  0  0  0  0  0  0
  -22.4548  -10.0084   22.0064 C   0  0  0  0  0  0  0  0  0  0  0  0
  -26.6729  -26.5050   20.2647 C   0  0  0  0  0  0  0  0  0  0  0  0
  -29.0716  -23.5294   19.4997 C   0  0  0  0  0  0  0  0  0  0  0  0
  -22.9688   -8.4421   20.2402 C   0  0  0  0  0  0  0  0  0  0  0  0
  -27.6748  -13.4754   21.3154 C   0  0  0  0  0  0  0  0  0  0  0  0
  -29.4131  -15.1647   20.5202 C   0  0  0  0  0  0  0  0  0  0  0  0
  -18.3134  -29.2004   22.7064 C   0  0  0  0  0  0  0  0  0  0  0  0
  -24.8336  -27.9246   19.5853 C   0  0  0  0  0  0  0  0  0  0  0  0
  -19.7185  -29.1169   22.6764 C   0  0  0  0  0  0  0  0  0  0  0  0
  -25.3444  -26.6427   19.8343 C   0  0  0  0  0  0  0  0  0  0  0  0
  -30.0109  -24.4279   18.9938 C   0  0  0  0  0  0  0  0  0  0  0  0
  -28.8329  -22.3243   18.8391 C   0  0  0  0  0  0  0  0  0  0  0  0
  -26.6218  -10.9074   21.5966 C   0  0  0  0  0  0  0  0  0  0  0  0
  -27.4858  -27.6257   20.4327 C   0  0  0  0  0  0  0  0  0  0  0  0
  -24.7556   -9.4833   21.4893 C   0  0  0  0  0  0  0  0  0  0  0  0
  -22.0305   -9.1393   21.0013 C   0  0  0  0  0  0  0  0  0  0  0  0
  -24.3313   -8.6142   20.4842 C   0  0  0  0  0  0  0  0  0  0  0  0
  -28.2180  -14.8020   21.1698 C   0  0  0  0  0  0  0  0  0  0  0  0
  -29.4782  -16.5297   20.6581 C   0  0  0  0  0  0  0  0  0  0  0  0
  -30.3781  -14.3414   19.8519 C   0  0  0  0  0  0  0  0  0  0  0  0
  -22.1242  -26.9316   20.9184 C   0  0  0  0  0  0  0  0  0  0  0  0
  -22.3259  -24.6036   18.6685 C   0  0  0  0  0  0  0  0  0  0  0  0
  -31.1474  -26.6547   19.3003 C   0  0  0  0  0  0  0  0  0  0  0  0
  -24.2899  -22.7721   16.5625 C   0  0  0  0  0  0  0  0  0  0  0  0
  -27.0974  -21.5606   20.4978 C   0  0  0  0  0  0  0  0  0  0  0  0
  -17.4445  -27.9681   22.6745 C   0  0  0  0  0  0  0  0  0  0  0  0
  -23.4209  -28.1005   19.0996 C   0  0  0  0  0  0  0  0  0  0  0  0
  -24.5025  -25.4060   19.6604 C   0  0  0  0  0  0  0  0  0  0  0  0
  -18.1724  -26.7224   22.1758 C   0  0  0  0  0  0  0  0  0  0  0  0
  -26.7303  -19.6878   23.5037 C   0  0  0  0  0  0  0  0  0  0  0  0
  -19.5322  -26.5911   22.8543 C   0  0  0  0  0  0  0  0  0  0  0  0
  -27.1830  -18.2796   23.1110 C   0  0  0  0  0  0  0  0  0  0  0  0
  -25.9720  -20.3765   22.3703 C   0  0  0  0  0  0  0  0  0  0  0  0
  -27.1264  -18.9957   20.6880 C   0  0  0  0  0  0  0  0  0  0  0  0
  -20.4304  -27.7899   22.5263 C   0  0  1  0  0  0  0  0  0  0  0  0
  -22.5127  -26.9311   19.4669 C   0  0  1  0  0  0  0  0  0  0  0  0
  -27.9509  -18.2866   21.7747 C   0  0  2  0  0  0  0  0  0  0  0  0
  -24.1749  -20.9175   14.8760 C   0  0  0  0  0  0  0  0  0  0  0  0
  -22.0473  -22.5707   20.9267 C   0  0  0  0  0  0  0  0  0  0  0  0
  -22.8794  -20.8114   19.3518 C   0  0  0  0  0  0  0  0  0  0  0  0
  -20.7523  -22.0180   18.8598 C   0  0  0  0  0  0  0  0  0  0  0  0
  -25.3048  -24.5192   14.4000 C   0  0  0  0  0  0  0  0  0  0  0  0
  -31.0931  -27.8045   20.2997 C   0  0  0  0  0  0  0  0  0  0  0  0
  -29.7175  -28.4466   20.3976 C   0  0  0  0  0  0  0  0  0  1  0  0
  -22.9545  -23.2328   18.6019 C   0  0  1  0  0  0  0  0  0  0  0  0
  -24.1383  -22.4222   15.0932 C   0  0  2  0  0  0  0  0  0  0  0  0
  -22.1739  -22.1815   19.4403 C   0  0  0  0  0  0  0  0  0  0  0  0
  -27.5706  -15.8518   21.6824 N   0  0  0  0  0  0  0  0  0  0  0  0
  -28.3618  -16.8877   21.3550 N   0  0  0  0  0  0  0  0  0  0  0  0
  -23.1258  -25.6305   19.1895 N   0  0  0  0  0  0  0  0  0  0  0  0
  -26.7622  -20.3485   21.1376 N   0  0  0  0  0  0  0  0  0  0  0  0
  -30.3809  -17.4468   20.2499 N   0  0  0  0  0  0  0  0  0  0  0  0
  -30.1567  -12.9584   19.8026 N   0  0  0  0  0  0  0  0  0  0  0  0
  -30.2532  -25.6510   19.6631 N   0  0  0  0  0  0  0  0  0  0  0  0
  -27.8787  -21.4111   19.3525 N   0  0  0  0  0  0  0  0  0  0  0  0
  -20.9821  -27.6587   21.1948 N   0  0  0  0  0  0  0  0  0  0  0  0
  -23.0666  -22.9034   17.1851 N   0  0  0  0  0  0  0  0  0  0  0  0
  -25.2376  -23.0387   14.2978 N   0  3  0  0  0  0  0  0  0  0  0  0
  -31.4144  -14.8163   19.3284 O   0  0  0  0  0  0  0  0  0  0  0  0
  -22.8090  -26.3166   21.7274 O   0  0  0  0  0  0  0  0  0  0  0  0
  -21.1702  -24.7591   18.2662 O   0  0  0  0  0  0  0  0  0  0  0  0
  -31.8968  -26.6684   18.3295 O   0  0  0  0  0  0  0  0  0  0  0  0
  -25.3841  -22.9112   17.1047 O   0  0  0  0  0  0  0  0  0  0  0  0
  -26.7421  -22.6524   20.9491 O   0  0  0  0  0  0  0  0  0  0  0  0
  -26.1079   -9.6545   21.7333 O   0  0  0  0  0  0  0  0  0  0  0  0
  -28.7728  -27.4771   20.8491 O   0  0  0  0  0  0  0  0  0  1  0  0
  -20.7220   -8.9731   20.7681 F   0  0  0  0  0  0  0  0  0  0  0  0
  -25.2280   -7.9408   19.7505 F   0  0  0  0  0  0  0  0  0  0  0  0
  1  2  1  0  0  0  0
  1  6  2  0  0  0  0
  2  7  2  0  0  0  0
  3  9  2  0  0  0  0
  3 10  1  0  0  0  0
  4 11  2  0  0  0  0
  4 19  1  0  0  0  0
  5 12  1  0  0  0  0
  5 19  2  0  0  0  0
  6 21  1  0  0  0  0
  7 23  1  0  0  0  0
  8 13  2  0  0  0  0
  8 22  1  0  0  0  0
  9 25  1  0  0  0  0
 10 26  2  0  0  0  0
 11 27  1  0  0  0  0
 12 27  2  0  0  0  0
 13 28  1  0  0  0  0
 14 15  2  0  0  0  0
 14 29  1  0  0  0  0
 15 30  1  0  0  0  0
 16 24  1  0  0  0  0
 16 28  2  0  0  0  0
 17 25  2  0  0  0  0
 17 26  1  0  0  0  0
 18 30  2  0  0  0  0
 18 31  1  0  0  0  0
 19 32  1  0  0  0  0
 20 32  1  0  0  0  0
 20 33  2  0  0  0  0
 20 34  1  0  0  0  0
 21 23  2  0  0  0  0
 21 40  1  0  0  0  0
 22 24  2  0  0  0  0
 22 41  1  0  0  0  0
 23 49  1  0  0  0  0
 24 42  1  0  0  0  0
 25 68  1  0  0  0  0
 26 69  1  0  0  0  0
 27 79  1  0  0  0  0
 28 80  1  0  0  0  0
 29 31  2  0  0  0  0
 29 79  1  0  0  0  0
 30 81  1  0  0  0  0
 31 82  1  0  0  0  0
 32 62  2  0  0  0  0
 33 63  1  0  0  0  0
 33 66  1  0  0  0  0
 34 67  1  0  0  0  0
 34 73  2  0  0  0  0
 35 50  1  0  0  0  0
 35 70  1  0  0  0  0
 35 74  2  0  0  0  0
 36 59  1  0  0  0  0
 36 64  1  0  0  0  0
 36 75  2  0  0  0  0
 37 57  1  0  0  0  0
 37 68  1  0  0  0  0
 37 76  2  0  0  0  0
 38 60  1  0  0  0  0
 38 71  1  0  0  0  0
 38 77  2  0  0  0  0
 39 65  1  0  0  0  0
 39 69  1  0  0  0  0
 39 78  2  0  0  0  0
 40 43  1  0  0  0  0
 41 50  1  0  0  0  0
 42 64  1  0  0  0  0
 43 45  1  0  0  0  0
 44 46  1  0  0  0  0
 44 47  1  0  0  0  0
 45 49  1  0  0  0  0
 46 51  1  0  0  0  0
 47 65  1  0  0  0  0
 48 51  1  0  0  0  0
 48 65  1  0  0  0  0
 49 70  1  0  0  0  0
 50 64  1  0  0  0  0
 51 63  1  0  0  0  0
 52 60  1  0  0  0  0
 53 61  1  0  0  0  0
 54 61  1  0  0  0  0
 55 61  1  0  0  0  0
 56 72  1  0  0  0  0
 57 58  1  0  0  0  0
 58 80  1  0  0  0  0
 59 61  1  0  0  0  0
 59 71  1  0  0  0  0
 60 72  1  0  0  0  0
 62 63  1  0  0  0  0
M  CHG  1  72   1
M  ISO  4  39 100  58 101  69 100  80 101
M  END
> <Batch ID>
0069

> <Smiles>
CNC(C)C(=O)NC(C(=O)N1Cc2cc([101O:1][101CH2:1]CC(=O)Nc3cccc([100NH:0][100C:0](=O)N4CCCC(n5nc(-c6ccc(Oc7ccc(F)cc7F)cc6)c(C(N)=O)c5N)C4)c3)ccc2CC1C(=O)NC1CCCc2ccccc21)C(C)(C)C

> <Shape>
0.268

> <Color>
0.082

> <Negative vol penalty>
0.000

$$$$

  -OEChem-04042323303D

 83 91  0     1  0  0  0  0  0999 V2000
  -23.9349   -8.0447   22.0635 C   0  0  0  0  0  0  0  0  0  0  0  0
  -24.6216   -9.0687   21.4192 C   0  0  0  0  0  0  0  0  0  0  0  0
  -21.9887  -28.3495   21.3623 C   0  0  0  0  0  0  0  0  0  0  0  0
  -22.9554  -27.3724   23.3492 C   0  0  0  0  0  0  0  0  0  0  0  0
  -22.5754   -8.1845   22.3394 C   0  0  0  0  0  0  0  0  0  0  0  0
  -23.9489  -10.2328   21.0493 C   0  0  0  0  0  0  0  0  0  0  0  0
  -26.5555  -14.4251   22.1783 C   0  0  0  0  0  0  0  0  0  0  0  0
  -20.7177  -28.2387   21.9262 C   0  0  0  0  0  0  0  0  0  0  0  0
  -21.6844  -27.2616   23.9131 C   0  0  0  0  0  0  0  0  0  0  0  0
  -27.6053  -14.7704   21.3283 C   0  0  0  0  0  0  0  0  0  0  0  0
  -18.8474  -29.9026   24.1992 C   0  0  0  0  0  0  0  0  0  0  0  0
  -17.9938  -31.0007   24.0945 C   0  0  0  0  0  0  0  0  0  0  0  0
  -26.1856  -16.3906   20.2427 C   0  0  0  0  0  0  0  0  0  0  0  0
  -30.0151  -19.9872   23.0567 C   0  0  0  0  0  0  0  0  0  0  0  0
  -29.2942  -22.2906   22.9501 C   0  0  0  0  0  0  0  0  0  0  0  0
  -29.5407  -21.0067   20.9184 C   0  0  0  0  0  0  0  0  0  0  0  0
  -16.4000  -29.6465   22.8850 C   0  0  0  0  0  0  0  0  0  0  0  0
  -23.1075  -27.9163   22.0738 C   0  0  0  0  0  0  0  0  0  0  0  0
  -25.3059  -29.1194   21.5970 C   0  0  0  0  0  0  0  0  0  0  0  0
  -21.8878   -9.3548   21.9814 C   0  0  0  0  0  0  0  0  0  0  0  0
  -25.3075  -15.0534   22.0595 C   0  0  0  0  0  0  0  0  0  0  0  0
  -22.5786  -10.3878   21.3194 C   0  0  0  0  0  0  0  0  0  0  0  0
  -25.1223  -16.0533   21.0941 C   0  0  0  0  0  0  0  0  0  0  0  0
  -29.6926  -21.1830   23.6984 C   0  0  0  0  0  0  0  0  0  0  0  0
  -29.9392  -19.8991   21.6667 C   0  0  0  0  0  0  0  0  0  0  0  0
  -29.2182  -22.2025   21.5600 C   0  0  0  0  0  0  0  0  0  0  0  0
  -20.5656  -27.6948   23.2016 C   0  0  0  0  0  0  0  0  0  0  0  0
  -27.4196  -15.7512   20.3585 C   0  0  0  0  0  0  0  0  0  0  0  0
  -18.4773  -28.6763   23.6467 C   0  0  0  0  0  0  0  0  0  0  0  0
  -16.7701  -30.8727   23.4374 C   0  0  0  0  0  0  0  0  0  0  0  0
  -17.2536  -28.5483   22.9897 C   0  0  0  0  0  0  0  0  0  0  0  0
  -24.4207  -28.0299   21.4916 C   0  0  0  0  0  0  0  0  0  0  0  0
  -26.4088  -28.7370   20.8733 C   0  0  0  0  0  0  0  0  0  0  0  0
  -25.1456  -30.3658   22.2874 C   0  0  0  0  0  0  0  0  0  0  0  0
  -22.3594  -14.0757   21.3836 C   0  0  0  0  0  0  0  0  0  0  0  0
  -21.5965  -17.1475   22.0940 C   0  0  0  0  0  0  0  0  0  0  0  0
  -30.2464  -18.4231   19.6490 C   0  0  0  0  0  0  0  0  0  0  0  0
  -22.6018  -20.3994   22.3414 C   0  0  0  0  0  0  0  0  0  0  0  0
  -28.6869  -23.4093   19.4134 C   0  0  0  0  0  0  0  0  0  0  0  0
  -20.4077   -9.4407   22.2582 C   0  0  0  0  0  0  0  0  0  0  0  0
  -24.1931  -14.6884   23.0016 C   0  0  0  0  0  0  0  0  0  0  0  0
  -23.8079  -16.7721   20.9389 C   0  0  0  0  0  0  0  0  0  0  0  0
  -19.8527  -10.8599   22.1687 C   0  0  0  0  0  0  0  0  0  0  0  0
  -27.6867  -25.9851   17.1681 C   0  0  0  0  0  0  0  0  0  0  0  0
  -20.3608  -11.5534   20.9086 C   0  0  0  0  0  0  0  0  0  0  0  0
  -26.8212  -26.9042   18.0331 C   0  0  0  0  0  0  0  0  0  0  0  0
  -27.4941  -24.5146   17.5345 C   0  0  0  0  0  0  0  0  0  0  0  0
  -26.8099  -25.1196   19.8225 C   0  0  0  0  0  0  0  0  0  0  0  0
  -21.8893  -11.6759   20.9247 C   0  0  1  0  0  0  0  0  0  0  0  0
  -22.8111  -15.0296   22.4530 C   0  0  1  0  0  0  0  0  0  0  0  0
  -27.0181  -26.6153   19.5342 C   0  0  2  0  0  0  0  0  0  0  0  0
  -29.7753  -21.2771   25.1848 C   0  0  0  0  0  0  0  0  0  0  0  0
  -21.7447  -22.6884   22.9098 C   0  0  0  0  0  0  0  0  0  0  0  0
  -20.2065  -17.2978   19.3819 C   0  0  0  0  0  0  0  0  0  0  0  0
  -20.2151  -19.7925   19.5939 C   0  0  0  0  0  0  0  0  0  0  0  0
  -18.9688  -18.4059   21.2513 C   0  0  0  0  0  0  0  0  0  0  0  0
  -24.4920  -20.6725   24.6023 C   0  0  0  0  0  0  0  0  0  0  0  0
  -30.6714  -16.9849   19.3756 C   0  0  0  0  0  0  0  0  0  0  0  0
  -29.7674  -15.9579   20.0405 C   0  0  0  0  0  0  0  0  0  1  0  0
  -21.4963  -18.4331   21.3090 C   0  0  1  0  0  0  0  0  0  0  0  0
  -22.4153  -21.4306   23.4397 C   0  0  2  0  0  0  0  0  0  0  0  0
  -20.2460  -18.4676   20.3854 C   0  0  0  0  0  0  0  0  0  0  0  0
  -24.9182  -27.0303   20.7586 N   0  0  0  0  0  0  0  0  0  0  0  0
  -26.1280  -27.4903   20.3967 N   0  0  0  0  0  0  0  0  0  0  0  0
  -22.7471  -16.3755   21.8795 N   0  0  0  0  0  0  0  0  0  0  0  0
  -27.7006  -24.3159   18.9707 N   0  0  0  0  0  0  0  0  0  0  0  0
  -27.5817  -29.3488   20.6044 N   0  0  0  0  0  0  0  0  0  0  0  0
  -23.9499  -30.5961   22.9815 N   0  0  0  0  0  0  0  0  0  0  0  0
  -30.2666  -18.6857   21.0162 N   0  0  0  0  0  0  0  0  0  0  0  0
  -28.8148  -23.3281   20.7997 N   0  0  0  0  0  0  0  0  0  0  0  0
  -22.3006  -12.7575   21.7938 N   0  0  0  0  0  0  0  0  0  0  0  0
  -21.5462  -19.5139   22.2877 N   0  0  0  0  0  0  0  0  0  0  0  0
  -23.7332  -21.8106   24.0226 N   0  3  0  0  0  0  0  0  0  0  0  0
  -26.0295  -31.2557   22.2751 O   0  0  0  0  0  0  0  0  0  0  0  0
  -22.0832  -14.5042   20.2692 O   0  0  0  0  0  0  0  0  0  0  0  0
  -20.6908  -16.8431   22.8741 O   0  0  0  0  0  0  0  0  0  0  0  0
  -29.9395  -19.1958   18.7472 O   0  0  0  0  0  0  0  0  0  0  0  0
  -23.5837  -20.3835   21.6024 O   0  0  0  0  0  0  0  0  0  0  0  0
  -29.3865  -22.7734   18.6209 O   0  0  0  0  0  0  0  0  0  0  0  0
  -19.3255  -27.5868   23.7522 O   0  0  0  0  0  0  0  0  0  0  0  0
  -28.4425  -16.0896   19.5271 O   0  0  0  0  0  0  0  0  0  1  0  0
  -15.9498  -31.9270   23.3383 F   0  0  0  0  0  0  0  0  0  0  0  0
  -16.8921  -27.3726   22.4580 F   0  0  0  0  0  0  0  0  0  0  0  0
  1  2  1  0  0  0  0
  1  5  2  0  0  0  0
  2  6  2  0  0  0  0
  3  8  2  0  0  0  0
  3 18  1  0  0  0  0
  4  9  1  0  0  0  0
  4 18  2  0  0  0  0
  5 20  1  0  0  0  0
  6 22  1  0  0  0  0
  7 10  2  0  0  0  0
  7 21  1  0  0  0  0
  8 27  1  0  0  0  0
  9 27  2  0  0  0  0
 10 28  1  0  0  0  0
 11 12  2  0  0  0  0
 11 29  1  0  0  0  0
 12 30  1  0  0  0  0
 13 23  1  0  0  0  0
 13 28  2  0  0  0  0
 14 24  2  0  0  0  0
 14 25  1  0  0  0  0
 15 24  1  0  0  0  0
 15 26  2  0  0  0  0
 16 25  2  0  0  0  0
 16 26  1  0  0  0  0
 17 30  2  0  0  0  0
 17 31  1  0  0  0  0
 18 32  1  0  0  0  0
 19 32  1  0  0  0  0
 19 33  2  0  0  0  0
 19 34  1  0  0  0  0
 20 22  2  0  0  0  0
 20 40  1  0  0  0  0
 21 23  2  0  0  0  0
 21 41  1  0  0  0  0
 22 49  1  0  0  0  0
 23 42  1  0  0  0  0
 24 52  1  0  0  0  0
 25 69  1  0  0  0  0
 26 70  1  0  0  0  0
 27 80  1  0  0  0  0
 28 81  1  0  0  0  0
 29 31  2  0  0  0  0
 29 80  1  0  0  0  0
 30 82  1  0  0  0  0
 31 83  1  0  0  0  0
 32 63  2  0  0  0  0
 33 64  1  0  0  0  0
 33 67  1  0  0  0  0
 34 68  1  0  0  0  0
 34 74  2  0  0  0  0
 35 50  1  0  0  0  0
 35 71  1  0  0  0  0
 35 75  2  0  0  0  0
 36 60  1  0  0  0  0
 36 65  1  0  0  0  0
 36 76  2  0  0  0  0
 37 58  1  0  0  0  0
 37 69  1  0  0  0  0
 37 77  2  0  0  0  0
 38 61  1  0  0  0  0
 38 72  1  0  0  0  0
 38 78  2  0  0  0  0
 39 66  1  0  0  0  0
 39 70  1  0  0  0  0
 39 79  2  0  0  0  0
 40 43  1  0  0  0  0
 41 50  1  0  0  0  0
 42 65  1  0  0  0  0
 43 45  1  0  0  0  0
 44 46  1  0  0  0  0
 44 47  1  0  0  0  0
 45 49  1  0  0  0  0
 46 51  1  0  0  0  0
 47 66  1  0  0  0  0
 48 51  1  0  0  0  0
 48 66  1  0  0  0  0
 49 71  1  0  0  0  0
 50 65  1  0  0  0  0
 51 64  1  0  0  0  0
 53 61  1  0  0  0  0
 54 62  1  0  0  0  0
 55 62  1  0  0  0  0
 56 62  1  0  0  0  0
 57 73  1  0  0  0  0
 58 59  1  0  0  0  0
 59 81  1  0  0  0  0
 60 62  1  0  0  0  0
 60 72  1  0  0  0  0
 61 73  1  0  0  0  0
 63 64  1  0  0  0  0
M  CHG  1  73   1
M  ISO  4  39 100  59 101  70 100  81 101
M  END
> <Batch ID>
0069

> <Smiles>
CNC(C)C(=O)NC(C(=O)N1Cc2cc([101O:1][101CH2:1]CC(=O)Nc3cc(C)cc([100NH:0][100C:0](=O)N4CCCC(n5nc(-c6ccc(Oc7ccc(F)cc7F)cc6)c(C(N)=O)c5N)C4)c3)ccc2CC1C(=O)NC1CCCc2ccccc21)C(C)(C)C

> <Shape>
0.248

> <Color>
0.086

> <Negative vol penalty>
0.000

$$$$

  -OEChem-04042323303D

 86 95  0     1  0  0  0  0  0999 V2000
  -31.9170  -24.6370   15.0295 C   0  0  0  0  0  0  0  0  0  0  0  0
  -31.5004  -24.2538   16.3003 C   0  0  0  0  0  0  0  0  0  0  0  0
  -22.9919   -9.8975   20.0917 C   0  0  0  0  0  0  0  0  0  0  0  0
  -23.5824  -10.2011   22.4146 C   0  0  0  0  0  0  0  0  0  0  0  0
  -31.9028  -25.9837   14.6690 C   0  0  0  0  0  0  0  0  0  0  0  0
  -31.0703  -25.2175   17.2119 C   0  0  0  0  0  0  0  0  0  0  0  0
  -26.8325  -23.8540   19.6257 C   0  0  0  0  0  0  0  0  0  0  0  0
  -32.4650  -17.7899   23.2759 C   0  0  0  0  0  0  0  0  0  0  0  0
  -31.9238  -16.8009   22.4545 C   0  0  0  0  0  0  0  0  0  0  0  0
  -22.2044   -8.7988   20.4354 C   0  0  0  0  0  0  0  0  0  0  0  0
  -22.7948   -9.1024   22.7584 C   0  0  0  0  0  0  0  0  0  0  0  0
  -26.9602  -22.9361   20.6673 C   0  0  0  0  0  0  0  0  0  0  0  0
  -23.0459   -5.7319   22.6699 C   0  0  0  0  0  0  0  0  0  0  0  0
  -23.5826   -4.8035   23.5619 C   0  0  0  0  0  0  0  0  0  0  0  0
  -26.8485  -24.7412   22.2636 C   0  0  0  0  0  0  0  0  0  0  0  0
  -29.7237  -17.7515   22.7597 C   0  0  0  0  0  0  0  0  0  0  0  0
  -21.7659   -5.2280   25.0969 C   0  0  0  0  0  0  0  0  0  0  0  0
  -23.6810  -10.5987   21.0813 C   0  0  0  0  0  0  0  0  0  0  0  0
  -24.0911  -13.0799   20.6537 C   0  0  0  0  0  0  0  0  0  0  0  0
  -31.4632  -26.9634   15.5733 C   0  0  0  0  0  0  0  0  0  0  0  0
  -26.7225  -25.2257   19.8953 C   0  0  0  0  0  0  0  0  0  0  0  0
  -31.0515  -26.5787   16.8636 C   0  0  0  0  0  0  0  0  0  0  0  0
  -26.7169  -25.6742   21.2238 C   0  0  0  0  0  0  0  0  0  0  0  0
  -31.6356  -18.7596   23.8392 C   0  0  0  0  0  0  0  0  0  0  0  0
  -30.2649  -18.7404   23.5811 C   0  0  0  0  0  0  0  0  0  0  0  0
  -30.5532  -16.7817   22.1964 C   0  0  0  0  0  0  0  0  0  0  0  0
  -22.1058   -8.4012   21.7687 C   0  0  0  0  0  0  0  0  0  0  0  0
  -26.9711  -23.3799   21.9864 C   0  0  0  0  0  0  0  0  0  0  0  0
  -21.8692   -6.4085   22.9915 C   0  0  0  0  0  0  0  0  0  0  0  0
  -22.9426   -4.5515   24.7754 C   0  0  0  0  0  0  0  0  0  0  0  0
  -21.2292   -6.1565   24.2049 C   0  0  0  0  0  0  0  0  0  0  0  0
  -24.4952  -11.7334   20.7268 C   0  0  0  0  0  0  0  0  0  0  0  0
  -25.2245  -13.7586   20.2778 C   0  0  0  0  0  0  0  0  0  0  0  0
  -29.4717  -21.1196   23.9564 C   0  0  0  0  0  0  0  0  0  0  0  0
  -22.8062  -13.6650   20.9034 C   0  0  0  0  0  0  0  0  0  0  0  0
  -28.4616  -27.7945   19.2018 C   0  0  0  0  0  0  0  0  0  0  0  0
  -25.9719  -29.3669   20.5624 C   0  0  0  0  0  0  0  0  0  0  0  0
  -23.3176  -29.2861   22.7060 C   0  0  0  0  0  0  0  0  0  0  0  0
  -30.6869  -14.7415   20.7247 C   0  0  0  0  0  0  0  0  0  0  0  0
  -31.5105  -28.4115   15.1544 C   0  0  0  0  0  0  0  0  0  0  0  0
  -26.5586  -26.2005   18.7615 C   0  0  0  0  0  0  0  0  0  0  0  0
  -26.5814  -27.1344   21.5673 C   0  0  0  0  0  0  0  0  0  0  0  0
  -30.6861  -29.3320   16.0507 C   0  0  0  0  0  0  0  0  0  0  0  0
  -29.6907  -12.0479   18.6200 C   0  0  0  0  0  0  0  0  0  0  0  0
  -30.9580  -29.0292   17.5208 C   0  0  0  0  0  0  0  0  0  0  0  0
  -28.2170  -11.8368   18.9745 C   0  0  0  0  0  0  0  0  0  0  0  0
  -27.4564  -20.6059   25.1210 C   0  0  0  0  0  0  0  0  0  0  0  0
  -30.5209  -12.4228   19.8463 C   0  0  0  0  0  0  0  0  0  0  0  0
  -28.3343  -19.3703   25.0673 C   0  0  0  0  0  0  0  0  0  0  0  0
  -28.5362  -13.3525   20.9714 C   0  0  0  0  0  0  0  0  0  0  0  0
  -30.5547  -27.5920   17.8718 C   0  0  1  0  0  0  0  0  0  0  0  0
  -26.9706  -27.6220   19.1315 C   0  0  1  0  0  0  0  0  0  0  0  0
  -27.6480  -13.0366   19.7568 C   0  0  2  0  0  0  0  0  0  0  0  0
  -28.4294  -21.7610   24.8713 C   0  0  1  0  0  0  0  0  0  0  0  0
  -32.2428  -19.8069   24.7151 C   0  0  0  0  0  0  0  0  0  0  0  0
  -29.1146  -22.2125   26.1665 C   0  0  0  0  0  0  0  0  0  0  0  0
  -21.4934  -30.7356   23.6381 C   0  0  0  0  0  0  0  0  0  0  0  0
  -27.9974  -30.7394   22.3854 C   0  0  0  0  0  0  0  0  0  0  0  0
  -26.0989  -31.4113   23.8728 C   0  0  0  0  0  0  0  0  0  0  0  0
  -26.1902  -32.2362   21.5204 C   0  0  0  0  0  0  0  0  0  0  0  0
  -21.2026  -27.5467   21.5833 C   0  0  0  0  0  0  0  0  0  0  0  0
  -27.7395  -22.9427   24.1942 C   0  0  0  0  0  0  0  0  0  1  0  0
  -25.6253  -29.8119   21.9627 C   0  0  1  0  0  0  0  0  0  0  0  0
  -21.8805  -29.7488   22.5476 C   0  0  2  0  0  0  0  0  0  0  0  0
  -26.4825  -31.0223   22.4291 C   0  0  0  0  0  0  0  0  0  0  0  0
  -25.7845  -11.5646   20.4216 N   0  0  0  0  0  0  0  0  0  0  0  0
  -26.2004  -12.8140   20.1531 N   0  0  0  0  0  0  0  0  0  0  0  0
  -29.3995  -19.7242   24.1484 N   0  0  0  0  0  0  0  0  0  0  0  0
  -26.4300  -28.0491   20.4236 N   0  0  0  0  0  0  0  0  0  0  0  0
  -29.9243  -13.5697   20.5346 N   0  0  0  0  0  0  0  0  0  0  0  0
  -25.4715  -15.0652   20.0451 N   0  0  0  0  0  0  0  0  0  0  0  0
  -21.7508  -12.8235   21.2809 N   0  0  0  0  0  0  0  0  0  0  0  0
  -30.0039  -15.7768   21.3620 N   0  0  0  0  0  0  0  0  0  0  0  0
  -29.1189  -27.4929   18.0243 N   0  0  0  0  0  0  0  0  0  0  0  0
  -24.1877  -30.0604   21.9680 N   0  0  0  0  0  0  0  0  0  0  0  0
  -20.9513  -28.5856   22.6150 N   0  3  0  0  0  0  0  0  0  0  0  0
  -30.2371  -21.7711   23.2593 O   0  0  0  0  0  0  0  0  0  0  0  0
  -22.5959  -14.8954   20.7791 O   0  0  0  0  0  0  0  0  0  0  0  0
  -28.9772  -28.1746   20.2464 O   0  0  0  0  0  0  0  0  0  0  0  0
  -25.8342  -30.1571   19.6253 O   0  0  0  0  0  0  0  0  0  0  0  0
  -23.6368  -28.3354   23.4164 O   0  0  0  0  0  0  0  0  0  0  0  0
  -31.8508  -14.8302   20.3255 O   0  0  0  0  0  0  0  0  0  0  0  0
  -21.3372   -7.3293   22.1045 O   0  0  0  0  0  0  0  0  0  0  0  0
  -27.0964  -22.4862   23.0049 O   0  0  0  0  0  0  0  0  0  1  0  0
  -23.4573   -3.6588   25.6311 F   0  0  0  0  0  0  0  0  0  0  0  0
  -20.0978   -6.8024   24.5189 F   0  0  0  0  0  0  0  0  0  0  0  0
  1  2  1  0  0  0  0
  1  5  2  0  0  0  0
  2  6  2  0  0  0  0
  3 10  2  0  0  0  0
  3 18  1  0  0  0  0
  4 11  1  0  0  0  0
  4 18  2  0  0  0  0
  5 20  1  0  0  0  0
  6 22  1  0  0  0  0
  7 12  2  0  0  0  0
  7 21  1  0  0  0  0
  8  9  2  0  0  0  0
  8 24  1  0  0  0  0
  9 26  1  0  0  0  0
 10 27  1  0  0  0  0
 11 27  2  0  0  0  0
 12 28  1  0  0  0  0
 13 14  2  0  0  0  0
 13 29  1  0  0  0  0
 14 30  1  0  0  0  0
 15 23  1  0  0  0  0
 15 28  2  0  0  0  0
 16 25  1  0  0  0  0
 16 26  2  0  0  0  0
 17 30  2  0  0  0  0
 17 31  1  0  0  0  0
 18 32  1  0  0  0  0
 19 32  1  0  0  0  0
 19 33  2  0  0  0  0
 19 35  1  0  0  0  0
 20 22  2  0  0  0  0
 20 40  1  0  0  0  0
 21 23  2  0  0  0  0
 21 41  1  0  0  0  0
 22 51  1  0  0  0  0
 23 42  1  0  0  0  0
 24 25  2  0  0  0  0
 24 55  1  0  0  0  0
 25 68  1  0  0  0  0
 26 73  1  0  0  0  0
 27 83  1  0  0  0  0
 28 84  1  0  0  0  0
 29 31  2  0  0  0  0
 29 83  1  0  0  0  0
 30 85  1  0  0  0  0
 31 86  1  0  0  0  0
 32 66  2  0  0  0  0
 33 67  1  0  0  0  0
 33 71  1  0  0  0  0
 34 54  1  0  0  0  0
 34 68  1  0  0  0  0
 34 77  2  0  0  0  0
 35 72  1  0  0  0  0
 35 78  2  0  0  0  0
 36 52  1  0  0  0  0
 36 74  1  0  0  0  0
 36 79  2  0  0  0  0
 37 63  1  0  0  0  0
 37 69  1  0  0  0  0
 37 80  2  0  0  0  0
 38 64  1  0  0  0  0
 38 75  1  0  0  0  0
 38 81  2  0  0  0  0
 39 70  1  0  0  0  0
 39 73  1  0  0  0  0
 39 82  2  0  0  0  0
 40 43  1  0  0  0  0
 41 52  1  0  0  0  0
 42 69  1  0  0  0  0
 43 45  1  0  0  0  0
 44 46  1  0  0  0  0
 44 48  1  0  0  0  0
 45 51  1  0  0  0  0
 46 53  1  0  0  0  0
 47 49  1  0  0  0  0
 47 54  1  0  0  0  0
 48 70  1  0  0  0  0
 49 68  1  0  0  0  0
 50 53  1  0  0  0  0
 50 70  1  0  0  0  0
 51 74  1  0  0  0  0
 52 69  1  0  0  0  0
 53 67  1  0  0  0  0
 54 56  1  0  0  0  0
 54 62  1  0  0  0  0
 57 64  1  0  0  0  0
 58 65  1  0  0  0  0
 59 65  1  0  0  0  0
 60 65  1  0  0  0  0
 61 76  1  0  0  0  0
 62 84  1  0  0  0  0
 63 65  1  0  0  0  0
 63 75  1  0  0  0  0
 64 76  1  0  0  0  0
 66 67  1  0  0  0  0
M  CHG  1  76   1
M  ISO  4  39 100  62 101  73 100  84 101
M  END
> <Batch ID>
0069

> <Smiles>
CNC(C)C(=O)NC(C(=O)N1Cc2cc([101O:1][101CH2:1]C3(C)CCN(c4cc([100NH:0][100C:0](=O)N5CCCC(n6nc(-c7ccc(Oc8ccc(F)cc8F)cc7)c(C(N)=O)c6N)C5)ccc4C)C3=O)ccc2CC1C(=O)NC1CCCc2ccccc21)C(C)(C)C

> <Shape>
0.304

> <Color>
0.216

> <Negative vol penalty>
0.000

$$$$

  -OEChem-04042323303D

 89 98  0     1  0  0  0  0  0999 V2000
  -22.2572  -24.2243   21.3622 C   0  0  0  0  0  0  0  0  0  0  0  0
  -23.3794  -23.9394   22.1335 C   0  0  0  0  0  0  0  0  0  0  0  0
  -22.9895   -9.8294   20.0503 C   0  0  0  0  0  0  0  0  0  0  0  0
  -23.6716  -10.0179   22.3603 C   0  0  0  0  0  0  0  0  0  0  0  0
  -22.3669  -24.2969   19.9742 C   0  0  0  0  0  0  0  0  0  0  0  0
  -24.6118  -23.7258   21.5171 C   0  0  0  0  0  0  0  0  0  0  0  0
  -30.1279  -25.2733   23.6812 C   0  0  0  0  0  0  0  0  0  0  0  0
  -22.2155   -8.7139   20.3698 C   0  0  0  0  0  0  0  0  0  0  0  0
  -22.8975   -8.9023   22.6799 C   0  0  0  0  0  0  0  0  0  0  0  0
  -31.1123  -24.5447   24.3476 C   0  0  0  0  0  0  0  0  0  0  0  0
  -23.1429   -5.5408   22.4140 C   0  0  0  0  0  0  0  0  0  0  0  0
  -23.7139   -4.5699   23.2367 C   0  0  0  0  0  0  0  0  0  0  0  0
  -30.4403  -18.5001   23.6877 C   0  0  0  0  0  0  0  0  0  0  0  0
  -32.2426  -24.1653   22.2505 C   0  0  0  0  0  0  0  0  0  0  0  0
  -32.0140  -16.6008   22.3843 C   0  0  0  0  0  0  0  0  0  0  0  0
  -21.9595   -4.9151   24.8616 C   0  0  0  0  0  0  0  0  0  0  0  0
  -23.7176  -10.4814   21.0456 C   0  0  0  0  0  0  0  0  0  0  0  0
  -29.8453  -17.5604   22.8459 C   0  0  0  0  0  0  0  0  0  0  0  0
  -24.1119  -12.9814   20.7261 C   0  0  0  0  0  0  0  0  0  0  0  0
  -23.6032  -24.0936   19.3411 C   0  0  0  0  0  0  0  0  0  0  0  0
  -30.1878  -25.4444   22.2907 C   0  0  0  0  0  0  0  0  0  0  0  0
  -24.7379  -23.7944   20.1192 C   0  0  0  0  0  0  0  0  0  0  0  0
  -31.2591  -24.8986   21.5692 C   0  0  0  0  0  0  0  0  0  0  0  0
  -32.6090  -17.5406   23.2260 C   0  0  0  0  0  0  0  0  0  0  0  0
  -31.8222  -18.4902   23.8777 C   0  0  0  0  0  0  0  0  0  0  0  0
  -30.6322  -16.6107   22.1943 C   0  0  0  0  0  0  0  0  0  0  0  0
  -22.1695   -8.2504   21.6846 C   0  0  0  0  0  0  0  0  0  0  0  0
  -32.1682  -23.9882   23.6319 C   0  0  0  0  0  0  0  0  0  0  0  0
  -21.9802   -6.1989   22.8151 C   0  0  0  0  0  0  0  0  0  0  0  0
  -23.1222   -4.2570   24.4605 C   0  0  0  0  0  0  0  0  0  0  0  0
  -21.3886   -5.8860   24.0389 C   0  0  0  0  0  0  0  0  0  0  0  0
  -24.5178  -11.6334   20.7160 C   0  0  0  0  0  0  0  0  0  0  0  0
  -25.2300  -13.6795   20.3399 C   0  0  0  0  0  0  0  0  0  0  0  0
  -33.3801  -20.4243   24.3899 C   0  0  0  0  0  0  0  0  0  0  0  0
  -28.3993  -17.6007   22.6665 C   0  0  0  0  0  0  0  0  0  0  0  0
  -22.8382  -13.5516   21.0552 C   0  0  0  0  0  0  0  0  0  0  0  0
  -28.3289  -24.6210   19.8473 C   0  0  0  0  0  0  0  0  0  0  0  0
  -30.4448  -26.3949   18.1448 C   0  0  0  0  0  0  0  0  0  0  0  0
  -33.5848  -27.7085   17.8958 C   0  0  0  0  0  0  0  0  0  0  0  0
  -30.7063  -14.6464   20.6188 C   0  0  0  0  0  0  0  0  0  0  0  0
  -23.6629  -24.1355   17.8347 C   0  0  0  0  0  0  0  0  0  0  0  0
  -29.1324  -26.2556   21.5903 C   0  0  0  0  0  0  0  0  0  0  0  0
  -31.3803  -25.0706   20.0778 C   0  0  0  0  0  0  0  0  0  0  0  0
  -25.0809  -24.2664   17.2847 C   0  0  0  0  0  0  0  0  0  0  0  0
  -29.6261  -12.0595   18.4237 C   0  0  0  0  0  0  0  0  0  0  0  0
  -26.0179  -23.2880   17.9859 C   0  0  0  0  0  0  0  0  0  0  0  0
  -28.1674  -11.8289   18.8252 C   0  0  0  0  0  0  0  0  0  0  0  0
  -33.1111  -20.4343   26.7582 C   0  0  0  0  0  0  0  0  0  0  0  0
  -30.5044  -12.3741   19.6334 C   0  0  0  0  0  0  0  0  0  0  0  0
  -32.0163  -19.5919   26.1320 C   0  0  0  0  0  0  0  0  0  0  0  0
  -28.5662  -13.2439   20.8809 C   0  0  0  0  0  0  0  0  0  0  0  0
  -26.0971  -23.5810   19.4891 C   0  0  1  0  0  0  0  0  0  0  0  0
  -29.0179  -25.9313   20.1040 C   0  0  1  0  0  0  0  0  0  0  0  0
  -27.6305  -12.9876   19.6882 C   0  0  2  0  0  0  0  0  0  0  0  0
  -33.5985  -21.3198   25.6085 C   0  0  1  0  0  0  0  0  0  0  0  0
  -34.0915  -17.5070   23.4116 C   0  0  0  0  0  0  0  0  0  0  0  0
  -27.5756  -18.1079   23.8123 C   0  0  0  0  0  0  0  0  0  0  0  0
  -35.0691  -21.6965   25.7716 C   0  0  0  0  0  0  0  0  0  0  0  0
  -35.0306  -29.0816   16.3721 C   0  0  0  0  0  0  0  0  0  0  0  0
  -30.8073  -23.9796   16.3160 C   0  0  0  0  0  0  0  0  0  0  0  0
  -32.8940  -25.0468   15.4358 C   0  0  0  0  0  0  0  0  0  0  0  0
  -30.6920  -26.1782   15.1298 C   0  0  0  0  0  0  0  0  0  0  0  0
  -33.9279  -29.8237   19.9372 C   0  0  0  0  0  0  0  0  0  0  0  0
  -32.7372  -22.5796   25.4617 C   0  0  0  0  0  0  0  0  0  1  0  0
  -31.7433  -26.1133   17.4282 C   0  0  1  0  0  0  0  0  0  0  0  0
  -34.0678  -29.1053   17.5491 C   0  0  2  0  0  0  0  0  0  0  0  0
  -31.5311  -25.3244   16.1053 C   0  0  0  0  0  0  0  0  0  0  0  0
  -25.7939  -11.4819   20.3521 N   0  0  0  0  0  0  0  0  0  0  0  0
  -26.1997  -12.7436   20.1298 N   0  0  0  0  0  0  0  0  0  0  0  0
  -32.4121  -19.4611   24.7425 N   0  0  0  0  0  0  0  0  0  0  0  0
  -30.3202  -25.8668   19.4376 N   0  0  0  0  0  0  0  0  0  0  0  0
  -29.9361  -13.4844   20.4009 N   0  0  0  0  0  0  0  0  0  0  0  0
  -25.4684  -14.9964   20.1628 N   0  0  0  0  0  0  0  0  0  0  0  0
  -21.7982  -12.6909   21.4317 N   0  0  0  0  0  0  0  0  0  0  0  0
  -30.0497  -15.6478   21.3333 N   0  0  0  0  0  0  0  0  0  0  0  0
  -26.9550  -24.7198   19.7375 N   0  0  0  0  0  0  0  0  0  0  0  0
  -32.4024  -27.4033   17.2555 N   0  0  0  0  0  0  0  0  0  0  0  0
  -34.7660  -29.7163   18.7153 N   0  3  0  0  0  0  0  0  0  0  0  0
  -33.9362  -20.6127   23.3168 O   0  0  0  0  0  0  0  0  0  0  0  0
  -27.8071  -17.2453   21.6476 O   0  0  0  0  0  0  0  0  0  0  0  0
  -22.6240  -14.7863   21.0006 O   0  0  0  0  0  0  0  0  0  0  0  0
  -28.9946  -23.5964   19.7541 O   0  0  0  0  0  0  0  0  0  0  0  0
  -29.5761  -27.0651   17.5811 O   0  0  0  0  0  0  0  0  0  0  0  0
  -34.1972  -26.9614   18.6556 O   0  0  0  0  0  0  0  0  0  0  0  0
  -31.8536  -14.7564   20.1787 O   0  0  0  0  0  0  0  0  0  0  0  0
  -21.4141   -7.1620   21.9968 O   0  0  0  0  0  0  0  0  0  0  0  0
  -33.1300  -23.2760   24.2797 O   0  0  0  0  0  0  0  0  0  1  0  0
  -23.6698   -3.3236   25.2498 F   0  0  0  0  0  0  0  0  0  0  0  0
  -20.2709   -6.5140   24.4290 F   0  0  0  0  0  0  0  0  0  0  0  0
  1  2  1  0  0  0  0
  1  5  2  0  0  0  0
  2  6  2  0  0  0  0
  3  8  2  0  0  0  0
  3 17  1  0  0  0  0
  4  9  1  0  0  0  0
  4 17  2  0  0  0  0
  5 20  1  0  0  0  0
  6 22  1  0  0  0  0
  7 10  2  0  0  0  0
  7 21  1  0  0  0  0
  8 27  1  0  0  0  0
  9 27  2  0  0  0  0
 10 28  1  0  0  0  0
 11 12  2  0  0  0  0
 11 29  1  0  0  0  0
 12 30  1  0  0  0  0
 13 18  2  0  0  0  0
 13 25  1  0  0  0  0
 14 23  1  0  0  0  0
 14 28  2  0  0  0  0
 15 24  1  0  0  0  0
 15 26  2  0  0  0  0
 16 30  2  0  0  0  0
 16 31  1  0  0  0  0
 17 32  1  0  0  0  0
 18 26  1  0  0  0  0
 18 35  1  0  0  0  0
 19 32  1  0  0  0  0
 19 33  2  0  0  0  0
 19 36  1  0  0  0  0
 20 22  2  0  0  0  0
 20 41  1  0  0  0  0
 21 23  2  0  0  0  0
 21 42  1  0  0  0  0
 22 52  1  0  0  0  0
 23 43  1  0  0  0  0
 24 25  2  0  0  0  0
 24 56  1  0  0  0  0
 25 70  1  0  0  0  0
 26 75  1  0  0  0  0
 27 86  1  0  0  0  0
 28 87  1  0  0  0  0
 29 31  2  0  0  0  0
 29 86  1  0  0  0  0
 30 88  1  0  0  0  0
 31 89  1  0  0  0  0
 32 68  2  0  0  0  0
 33 69  1  0  0  0  0
 33 73  1  0  0  0  0
 34 55  1  0  0  0  0
 34 70  1  0  0  0  0
 34 79  2  0  0  0  0
 35 57  1  0  0  0  0
 35 80  2  0  0  0  0
 36 74  1  0  0  0  0
 36 81  2  0  0  0  0
 37 53  1  0  0  0  0
 37 76  1  0  0  0  0
 37 82  2  0  0  0  0
 38 65  1  0  0  0  0
 38 71  1  0  0  0  0
 38 83  2  0  0  0  0
 39 66  1  0  0  0  0
 39 77  1  0  0  0  0
 39 84  2  0  0  0  0
 40 72  1  0  0  0  0
 40 75  1  0  0  0  0
 40 85  2  0  0  0  0
 41 44  1  0  0  0  0
 42 53  1  0  0  0  0
 43 71  1  0  0  0  0
 44 46  1  0  0  0  0
 45 47  1  0  0  0  0
 45 49  1  0  0  0  0
 46 52  1  0  0  0  0
 47 54  1  0  0  0  0
 48 50  1  0  0  0  0
 48 55  1  0  0  0  0
 49 72  1  0  0  0  0
 50 70  1  0  0  0  0
 51 54  1  0  0  0  0
 51 72  1  0  0  0  0
 52 76  1  0  0  0  0
 53 71  1  0  0  0  0
 54 69  1  0  0  0  0
 55 58  1  0  0  0  0
 55 64  1  0  0  0  0
 59 66  1  0  0  0  0
 60 67  1  0  0  0  0
 61 67  1  0  0  0  0
 62 67  1  0  0  0  0
 63 78  1  0  0  0  0
 64 87  1  0  0  0  0
 65 67  1  0  0  0  0
 65 77  1  0  0  0  0
 66 78  1  0  0  0  0
 68 69  1  0  0  0  0
M  CHG  1  78   1
M  ISO  4  40 100  64 101  75 100  87 101
M  END
> <Batch ID>
0069

> <Smiles>
CNC(C)C(=O)NC(C(=O)N1Cc2cc([101O:1][101CH2:1]C3(C)CCN(c4cc(C(C)=O)c([100NH:0][100C:0](=O)N5CCCC(n6nc(-c7ccc(Oc8ccc(F)cc8F)cc7)c(C(N)=O)c6N)C5)cc4C)C3=O)ccc2CC1C(=O)NC1CCCc2ccccc21)C(C)(C)C

> <Shape>
0.224

> <Color>
0.197

> <Negative vol penalty>
0.000

$$$$

  -OEChem-04042323303D

 84 92  0     1  0  0  0  0  0999 V2000
  -19.7049  -13.9829   26.7806 C   0  0  0  0  0  0  0  0  0  0  0  0
  -20.6987  -14.9276   26.5457 C   0  0  0  0  0  0  0  0  0  0  0  0
  -23.0752   -9.8691   19.9405 C   0  0  0  0  0  0  0  0  0  0  0  0
  -23.8349   -9.8750   22.2340 C   0  0  0  0  0  0  0  0  0  0  0  0
  -18.3656  -14.3703   26.7945 C   0  0  0  0  0  0  0  0  0  0  0  0
  -20.3537  -16.2603   26.3235 C   0  0  0  0  0  0  0  0  0  0  0  0
  -23.2887  -19.4826   28.9018 C   0  0  0  0  0  0  0  0  0  0  0  0
  -32.0648  -16.6062   22.5519 C   0  0  0  0  0  0  0  0  0  0  0  0
  -22.3309   -8.7161   20.1901 C   0  0  0  0  0  0  0  0  0  0  0  0
  -23.0905   -8.7221   22.4836 C   0  0  0  0  0  0  0  0  0  0  0  0
  -24.5608  -19.7341   28.3899 C   0  0  0  0  0  0  0  0  0  0  0  0
  -19.8620   -7.9253   23.0856 C   0  0  0  0  0  0  0  0  0  0  0  0
  -32.6526  -17.4898   23.4571 C   0  0  0  0  0  0  0  0  0  0  0  0
  -19.1050   -7.8853   24.2564 C   0  0  0  0  0  0  0  0  0  0  0  0
  -23.7625  -21.8019   27.4381 C   0  0  0  0  0  0  0  0  0  0  0  0
  -29.8810  -17.4552   23.1413 C   0  0  0  0  0  0  0  0  0  0  0  0
  -20.3456   -5.9472   24.9923 C   0  0  0  0  0  0  0  0  0  0  0  0
  -23.8273  -10.4485   20.9625 C   0  0  0  0  0  0  0  0  0  0  0  0
  -24.1701  -12.9736   20.8433 C   0  0  0  0  0  0  0  0  0  0  0  0
  -18.0046  -15.7102   26.5820 C   0  0  0  0  0  0  0  0  0  0  0  0
  -22.2394  -20.3851   28.6761 C   0  0  0  0  0  0  0  0  0  0  0  0
  -19.0083  -16.6658   26.3333 C   0  0  0  0  0  0  0  0  0  0  0  0
  -22.4785  -21.5608   27.9504 C   0  0  0  0  0  0  0  0  0  0  0  0
  -30.6790  -16.5889   22.3940 C   0  0  0  0  0  0  0  0  0  0  0  0
  -30.4688  -18.3388   24.0465 C   0  0  0  0  0  0  0  0  0  0  0  0
  -22.3385   -8.1426   21.4616 C   0  0  0  0  0  0  0  0  0  0  0  0
  -24.7972  -20.8925   27.6555 C   0  0  0  0  0  0  0  0  0  0  0  0
  -20.8608   -6.9762   22.8680 C   0  0  0  0  0  0  0  0  0  0  0  0
  -19.3467   -6.8963   25.2098 C   0  0  0  0  0  0  0  0  0  0  0  0
  -31.8546  -18.3561   24.2044 C   0  0  0  0  0  0  0  0  0  0  0  0
  -21.1026   -5.9872   23.8214 C   0  0  0  0  0  0  0  0  0  0  0  0
  -24.5968  -11.6392   20.7052 C   0  0  0  0  0  0  0  0  0  0  0  0
  -25.2626  -13.7227   20.4803 C   0  0  0  0  0  0  0  0  0  0  0  0
  -26.5700  -20.2361   26.2781 C   0  0  0  0  0  0  0  0  0  1  0  0
  -22.8998  -13.4897   21.2623 C   0  0  0  0  0  0  0  0  0  0  0  0
  -27.7803  -20.3791   25.7246 C   0  0  0  0  0  0  0  0  0  0  0  0
  -28.2736  -19.3304   24.7732 C   0  0  0  0  0  0  0  0  0  0  0  0
  -19.4287  -20.2332   27.1994 C   0  0  0  0  0  0  0  0  0  0  0  0
  -19.0624  -23.2139   28.4257 C   0  0  0  0  0  0  0  0  0  0  0  0
  -20.5272  -26.0562   29.6183 C   0  0  0  0  0  0  0  0  0  0  0  0
  -30.7292  -14.7661   20.6558 C   0  0  0  0  0  0  0  0  0  0  0  0
  -16.5409  -16.0728   26.5594 C   0  0  0  0  0  0  0  0  0  0  0  0
  -20.8794  -20.1123   29.2578 C   0  0  0  0  0  0  0  0  0  0  0  0
  -21.3909  -22.5716   27.6972 C   0  0  0  0  0  0  0  0  0  0  0  0
  -16.2827  -17.5719   26.6870 C   0  0  0  0  0  0  0  0  0  0  0  0
  -29.6140  -12.3535   18.2867 C   0  0  0  0  0  0  0  0  0  0  0  0
  -17.2021  -18.3532   25.7536 C   0  0  0  0  0  0  0  0  0  0  0  0
  -28.1742  -12.0623   18.7160 C   0  0  0  0  0  0  0  0  0  0  0  0
  -30.5291  -12.5816   19.4885 C   0  0  0  0  0  0  0  0  0  0  0  0
  -28.6223  -13.3063   20.8698 C   0  0  0  0  0  0  0  0  0  0  0  0
  -18.6754  -18.1255   26.1126 C   0  0  1  0  0  0  0  0  0  0  0  0
  -19.7593  -20.8489   28.5295 C   0  0  1  0  0  0  0  0  0  0  0  0
  -27.6495  -13.1338   19.6919 C   0  0  2  0  0  0  0  0  0  0  0  0
  -19.9696  -28.3348   30.5096 C   0  0  0  0  0  0  0  0  0  0  0  0
  -18.4405  -24.1666   25.5945 C   0  0  0  0  0  0  0  0  0  0  0  0
  -18.8323  -26.5136   26.3730 C   0  0  0  0  0  0  0  0  0  0  0  0
  -16.9896  -25.1612   27.3721 C   0  0  0  0  0  0  0  0  0  0  0  0
  -21.8120  -25.4796   32.2213 C   0  0  0  0  0  0  0  0  0  0  0  0
  -19.3874  -24.6109   27.9550 C   0  0  1  0  0  0  0  0  0  0  0  0
  -20.2562  -26.8834   30.8620 C   0  0  2  0  0  0  0  0  0  0  0  0
  -18.4327  -25.0933   26.8266 C   0  0  0  0  0  0  0  0  0  0  0  0
  -25.8617  -11.5430   20.2870 N   0  0  0  0  0  0  0  0  0  0  0  0
  -26.2391  -12.8264   20.1591 N   0  0  0  0  0  0  0  0  0  0  0  0
  -20.0767  -22.2567   28.2813 N   0  0  0  0  0  0  0  0  0  0  0  0
  -29.9705  -13.6123   20.3661 N   0  0  0  0  0  0  0  0  0  0  0  0
  -25.4735  -15.0541   20.4078 N   0  0  0  0  0  0  0  0  0  0  0  0
  -21.8875  -12.5808   21.5992 N   0  0  0  0  0  0  0  0  0  0  0  0
  -29.6568  -19.2173   24.8036 N   0  0  0  0  0  0  0  0  0  0  0  0
  -30.0821  -15.6912   21.4744 N   0  0  0  0  0  0  0  0  0  0  0  0
  -19.0398  -18.9093   27.2734 N   0  0  0  0  0  0  0  0  0  0  0  0
  -19.3802  -25.4547   29.1451 N   0  0  0  0  0  0  0  0  0  0  0  0
  -21.4328  -26.8452   31.7759 N   0  3  0  0  0  0  0  0  0  0  0  0
  -22.6640  -14.7204   21.3200 O   0  0  0  0  0  0  0  0  0  0  0  0
  -27.4902  -18.6881   24.0821 O   0  0  0  0  0  0  0  0  0  0  0  0
  -19.5182  -20.9096   26.1815 O   0  0  0  0  0  0  0  0  0  0  0  0
  -17.9520  -22.9821   28.9104 O   0  0  0  0  0  0  0  0  0  0  0  0
  -21.6438  -25.9568   29.1146 O   0  0  0  0  0  0  0  0  0  0  0  0
  -31.8584  -14.9346   20.1883 O   0  0  0  0  0  0  0  0  0  0  0  0
  -28.5967  -21.4587   25.9939 O   0  0  0  0  0  0  0  0  0  0  0  0
  -21.6121   -7.0177   21.7055 O   0  0  0  0  0  0  0  0  0  0  0  0
  -26.0379  -21.1401   27.1541 O   0  0  0  0  0  0  0  0  0  1  0  0
  -18.6207   -6.8589   26.3348 F   0  0  0  0  0  0  0  0  0  0  0  0
  -32.4307  -19.2006   25.0715 F   0  0  0  0  0  0  0  0  0  0  0  0
  -22.0616   -5.0734   23.6186 F   0  0  0  0  0  0  0  0  0  0  0  0
  1  2  1  0  0  0  0
  1  5  2  0  0  0  0
  2  6  2  0  0  0  0
  3  9  2  0  0  0  0
  3 18  1  0  0  0  0
  4 10  1  0  0  0  0
  4 18  2  0  0  0  0
  5 20  1  0  0  0  0
  6 22  1  0  0  0  0
  7 11  2  0  0  0  0
  7 21  1  0  0  0  0
  8 13  2  0  0  0  0
  8 24  1  0  0  0  0
  9 26  1  0  0  0  0
 10 26  2  0  0  0  0
 11 27  1  0  0  0  0
 12 14  2  0  0  0  0
 12 28  1  0  0  0  0
 13 30  1  0  0  0  0
 14 29  1  0  0  0  0
 15 23  1  0  0  0  0
 15 27  2  0  0  0  0
 16 24  2  0  0  0  0
 16 25  1  0  0  0  0
 17 29  2  0  0  0  0
 17 31  1  0  0  0  0
 18 32  1  0  0  0  0
 19 32  1  0  0  0  0
 19 33  2  0  0  0  0
 19 35  1  0  0  0  0
 20 22  2  0  0  0  0
 20 42  1  0  0  0  0
 21 23  2  0  0  0  0
 21 43  1  0  0  0  0
 22 51  1  0  0  0  0
 23 44  1  0  0  0  0
 24 69  1  0  0  0  0
 25 30  2  0  0  0  0
 25 68  1  0  0  0  0
 26 80  1  0  0  0  0
 27 81  1  0  0  0  0
 28 31  2  0  0  0  0
 28 80  1  0  0  0  0
 29 82  1  0  0  0  0
 30 83  1  0  0  0  0
 31 84  1  0  0  0  0
 32 62  2  0  0  0  0
 33 63  1  0  0  0  0
 33 66  1  0  0  0  0
 34 36  2  0  0  0  0
 34 81  1  0  0  0  0
 35 67  1  0  0  0  0
 35 73  2  0  0  0  0
 36 37  1  0  0  0  0
 36 79  1  0  0  0  0
 37 68  1  0  0  0  0
 37 74  2  0  0  0  0
 38 52  1  0  0  0  0
 38 70  1  0  0  0  0
 38 75  2  0  0  0  0
 39 59  1  0  0  0  0
 39 64  1  0  0  0  0
 39 76  2  0  0  0  0
 40 60  1  0  0  0  0
 40 71  1  0  0  0  0
 40 77  2  0  0  0  0
 41 65  1  0  0  0  0
 41 69  1  0  0  0  0
 41 78  2  0  0  0  0
 42 45  1  0  0  0  0
 43 52  1  0  0  0  0
 44 64  1  0  0  0  0
 45 47  1  0  0  0  0
 46 48  1  0  0  0  0
 46 49  1  0  0  0  0
 47 51  1  0  0  0  0
 48 53  1  0  0  0  0
 49 65  1  0  0  0  0
 50 53  1  0  0  0  0
 50 65  1  0  0  0  0
 51 70  1  0  0  0  0
 52 64  1  0  0  0  0
 53 63  1  0  0  0  0
 54 60  1  0  0  0  0
 55 61  1  0  0  0  0
 56 61  1  0  0  0  0
 57 61  1  0  0  0  0
 58 72  1  0  0  0  0
 59 61  1  0  0  0  0
 59 71  1  0  0  0  0
 60 72  1  0  0  0  0
 62 63  1  0  0  0  0
M  CHG  1  72   1
M  ISO  4  34 101  41 100  69 100  81 101
M  END
> <Batch ID>
0069

> <Smiles>
CNC(C)C(=O)NC(C(=O)N1Cc2cc([101O:1][101CH2:1]C(=O)C(=O)Nc3cc([100NH:0][100C:0](=O)N4CCCC(n5nc(-c6ccc(Oc7ccc(F)cc7F)cc6)c(C(N)=O)c5N)C4)ccc3F)ccc2CC1C(=O)NC1CCCc2ccccc21)C(C)(C)C

> <Shape>
0.165

> <Color>
0.188

> <Negative vol penalty>
0.000

$$$$

  -OEChem-04042323303D

 86 94  0     1  0  0  0  0  0999 V2000
  -19.7846  -28.8462   27.5148 C   0  0  0  0  0  0  0  0  0  0  0  0
  -20.8566  -27.9620   27.5810 C   0  0  0  0  0  0  0  0  0  0  0  0
  -23.0735   -9.8698   19.9416 C   0  0  0  0  0  0  0  0  0  0  0  0
  -23.8315   -9.8780   22.2356 C   0  0  0  0  0  0  0  0  0  0  0  0
  -18.5881  -28.5388   28.1613 C   0  0  0  0  0  0  0  0  0  0  0  0
  -20.7331  -26.7704   28.2946 C   0  0  0  0  0  0  0  0  0  0  0  0
  -22.6057  -22.7954   25.7771 C   0  0  0  0  0  0  0  0  0  0  0  0
  -22.3285   -8.7174   20.1918 C   0  0  0  0  0  0  0  0  0  0  0  0
  -23.0864   -8.7256   22.4859 C   0  0  0  0  0  0  0  0  0  0  0  0
  -23.9912  -22.6402   25.7718 C   0  0  0  0  0  0  0  0  0  0  0  0
  -19.3784   -7.9244   21.6412 C   0  0  0  0  0  0  0  0  0  0  0  0
  -18.0719   -7.8788   21.1549 C   0  0  0  0  0  0  0  0  0  0  0  0
  -32.0639  -16.6062   22.5528 C   0  0  0  0  0  0  0  0  0  0  0  0
  -23.8060  -20.9809   27.5129 C   0  0  0  0  0  0  0  0  0  0  0  0
  -29.8800  -17.4577   23.1380 C   0  0  0  0  0  0  0  0  0  0  0  0
  -18.6312   -5.9342   19.8346 C   0  0  0  0  0  0  0  0  0  0  0  0
  -23.8251  -10.4500   20.9635 C   0  0  0  0  0  0  0  0  0  0  0  0
  -32.6513  -17.4918   23.4562 C   0  0  0  0  0  0  0  0  0  0  0  0
  -24.1690  -12.9748   20.8418 C   0  0  0  0  0  0  0  0  0  0  0  0
  -18.4467  -27.3384   28.8751 C   0  0  0  0  0  0  0  0  0  0  0  0
  -21.8095  -22.0511   26.6594 C   0  0  0  0  0  0  0  0  0  0  0  0
  -19.5341  -26.4473   28.9523 C   0  0  0  0  0  0  0  0  0  0  0  0
  -22.4104  -21.1266   27.5256 C   0  0  0  0  0  0  0  0  0  0  0  0
  -30.6782  -16.5892   22.3936 C   0  0  0  0  0  0  0  0  0  0  0  0
  -30.4674  -18.3433   24.0415 C   0  0  0  0  0  0  0  0  0  0  0  0
  -22.3349   -8.1453   21.4640 C   0  0  0  0  0  0  0  0  0  0  0  0
  -24.5918  -21.7350   26.6419 C   0  0  0  0  0  0  0  0  0  0  0  0
  -20.3114   -6.9749   21.2242 C   0  0  0  0  0  0  0  0  0  0  0  0
  -17.6983   -6.8837   20.2516 C   0  0  0  0  0  0  0  0  0  0  0  0
  -19.9377   -5.9798   20.3210 C   0  0  0  0  0  0  0  0  0  0  0  0
  -31.8531  -18.3604   24.2006 C   0  0  0  0  0  0  0  0  0  0  0  0
  -24.5953  -11.6401   20.7055 C   0  0  0  0  0  0  0  0  0  0  0  0
  -25.2621  -13.7231   20.4789 C   0  0  0  0  0  0  0  0  0  0  0  0
  -27.7916  -20.3868   25.6996 C   0  0  0  0  0  0  0  0  0  0  0  0
  -26.4838  -20.6435   25.8054 C   0  0  0  0  0  0  0  0  0  1  0  0
  -34.0880  -17.5085   23.6179 C   0  0  0  0  0  0  0  0  0  0  0  0
  -22.8986  -13.4920   21.2592 C   0  0  0  0  0  0  0  0  0  0  0  0
  -28.2708  -19.3373   24.7535 C   0  0  0  0  0  0  0  0  0  0  0  0
  -19.8358  -22.7659   29.0463 C   0  0  0  0  0  0  0  0  0  0  0  0
  -19.2304  -19.5797   28.9828 C   0  0  0  0  0  0  0  0  0  0  0  0
  -20.2965  -16.4439   28.1597 C   0  0  0  0  0  0  0  0  0  0  0  0
  -30.7290  -14.7644   20.6575 C   0  0  0  0  0  0  0  0  0  0  0  0
  -17.1497  -27.0716   29.5970 C   0  0  0  0  0  0  0  0  0  0  0  0
  -20.3141  -22.2107   26.6340 C   0  0  0  0  0  0  0  0  0  0  0  0
  -21.5985  -20.2887   28.4782 C   0  0  0  0  0  0  0  0  0  0  0  0
  -16.9761  -25.6150   30.0194 C   0  0  0  0  0  0  0  0  0  0  0  0
  -29.6147  -12.3497   18.2902 C   0  0  0  0  0  0  0  0  0  0  0  0
  -18.2511  -25.0937   30.6748 C   0  0  0  0  0  0  0  0  0  0  0  0
  -28.1744  -12.0596   18.7187 C   0  0  0  0  0  0  0  0  0  0  0  0
  -30.5289  -12.5787   19.4924 C   0  0  0  0  0  0  0  0  0  0  0  0
  -28.6214  -13.3058   20.8715 C   0  0  0  0  0  0  0  0  0  0  0  0
  -19.4306  -25.1333   29.6958 C   0  0  1  0  0  0  0  0  0  0  0  0
  -19.6445  -21.7745   27.9335 C   0  0  1  0  0  0  0  0  0  0  0  0
  -27.6494  -13.1324   19.6929 C   0  0  2  0  0  0  0  0  0  0  0  0
  -19.5994  -14.0355   28.2647 C   0  0  0  0  0  0  0  0  0  0  0  0
  -19.8834  -19.5232   31.9628 C   0  0  0  0  0  0  0  0  0  0  0  0
  -20.1021  -17.0347   31.7966 C   0  0  0  0  0  0  0  0  0  0  0  0
  -17.9162  -18.1287   31.2992 C   0  0  0  0  0  0  0  0  0  0  0  0
  -20.3684  -16.1742   25.2134 C   0  0  0  0  0  0  0  0  0  0  0  0
  -19.8229  -18.3653   29.6559 C   0  0  1  0  0  0  0  0  0  0  0  0
  -19.6081  -15.3056   27.4284 C   0  0  2  0  0  0  0  0  0  0  0  0
  -19.4469  -18.2800   31.1622 C   0  0  0  0  0  0  0  0  0  0  0  0
  -25.8605  -11.5429   20.2884 N   0  0  0  0  0  0  0  0  0  0  0  0
  -26.2385  -12.8261   20.1594 N   0  0  0  0  0  0  0  0  0  0  0  0
  -20.1407  -20.4856   28.4201 N   0  0  0  0  0  0  0  0  0  0  0  0
  -29.9700  -13.6106   20.3685 N   0  0  0  0  0  0  0  0  0  0  0  0
  -25.4737  -15.0544   20.4050 N   0  0  0  0  0  0  0  0  0  0  0  0
  -34.6799  -16.7206   24.5315 N   0  0  0  0  0  0  0  0  0  0  0  0
  -21.8857  -12.5839   21.5963 N   0  0  0  0  0  0  0  0  0  0  0  0
  -29.6542  -19.2261   24.7939 N   0  0  0  0  0  0  0  0  0  0  0  0
  -30.0817  -15.6906   21.4746 N   0  0  0  0  0  0  0  0  0  0  0  0
  -19.3514  -24.0289   28.7640 N   0  0  0  0  0  0  0  0  0  0  0  0
  -19.3978  -17.2136   28.8678 N   0  0  0  0  0  0  0  0  0  0  0  0
  -34.8502  -18.3107   22.8555 N   0  3  0  0  0  0  0  0  0  0  0  0
  -20.3067  -15.0177   26.1438 N   0  3  0  0  0  0  0  0  0  0  0  0
  -22.6633  -14.7228   21.3154 O   0  0  0  0  0  0  0  0  0  0  0  0
  -27.4855  -18.6978   24.0636 O   0  0  0  0  0  0  0  0  0  0  0  0
  -20.3810  -22.4109   30.0847 O   0  0  0  0  0  0  0  0  0  0  0  0
  -18.0048  -19.7158   28.9510 O   0  0  0  0  0  0  0  0  0  0  0  0
  -21.5104  -16.6295   28.1110 O   0  0  0  0  0  0  0  0  0  0  0  0
  -31.8586  -14.9319   20.1907 O   0  0  0  0  0  0  0  0  0  0  0  0
  -21.6079   -7.0210   21.7086 O   0  0  0  0  0  0  0  0  0  0  0  0
  -25.9440  -21.5821   26.6393 O   0  0  0  0  0  0  0  0  0  1  0  0
  -16.4432   -6.8392   19.7858 F   0  0  0  0  0  0  0  0  0  0  0  0
  -20.8293   -5.0642   19.9177 F   0  0  0  0  0  0  0  0  0  0  0  0
  -32.4195  -19.2108   25.0701 F   0  0  0  0  0  0  0  0  0  0  0  0
  1  2  1  0  0  0  0
  1  5  2  0  0  0  0
  2  6  2  0  0  0  0
  3  8  2  0  0  0  0
  3 17  1  0  0  0  0
  4  9  1  0  0  0  0
  4 17  2  0  0  0  0
  5 20  1  0  0  0  0
  6 22  1  0  0  0  0
  7 10  2  0  0  0  0
  7 21  1  0  0  0  0
  8 26  1  0  0  0  0
  9 26  2  0  0  0  0
 10 27  1  0  0  0  0
 11 12  2  0  0  0  0
 11 28  1  0  0  0  0
 12 29  1  0  0  0  0
 13 18  2  0  0  0  0
 13 24  1  0  0  0  0
 14 23  1  0  0  0  0
 14 27  2  0  0  0  0
 15 24  2  0  0  0  0
 15 25  1  0  0  0  0
 16 29  2  0  0  0  0
 16 30  1  0  0  0  0
 17 32  1  0  0  0  0
 18 31  1  0  0  0  0
 18 36  1  0  0  0  0
 19 32  1  0  0  0  0
 19 33  2  0  0  0  0
 19 37  1  0  0  0  0
 20 22  2  0  0  0  0
 20 43  1  0  0  0  0
 21 23  2  0  0  0  0
 21 44  1  0  0  0  0
 22 52  1  0  0  0  0
 23 45  1  0  0  0  0
 24 71  1  0  0  0  0
 25 31  2  0  0  0  0
 25 70  1  0  0  0  0
 26 82  1  0  0  0  0
 27 83  1  0  0  0  0
 28 30  2  0  0  0  0
 28 82  1  0  0  0  0
 29 84  1  0  0  0  0
 30 85  1  0  0  0  0
 31 86  1  0  0  0  0
 32 63  2  0  0  0  0
 33 64  1  0  0  0  0
 33 67  1  0  0  0  0
 34 35  2  0  0  0  0
 34 38  1  0  0  0  0
 35 83  1  0  0  0  0
 36 68  1  0  0  0  0
 36 74  2  0  0  0  0
 37 69  1  0  0  0  0
 37 76  2  0  0  0  0
 38 70  1  0  0  0  0
 38 77  2  0  0  0  0
 39 53  1  0  0  0  0
 39 72  1  0  0  0  0
 39 78  2  0  0  0  0
 40 60  1  0  0  0  0
 40 65  1  0  0  0  0
 40 79  2  0  0  0  0
 41 61  1  0  0  0  0
 41 73  1  0  0  0  0
 41 80  2  0  0  0  0
 42 66  1  0  0  0  0
 42 71  1  0  0  0  0
 42 81  2  0  0  0  0
 43 46  1  0  0  0  0
 44 53  1  0  0  0  0
 45 65  1  0  0  0  0
 46 48  1  0  0  0  0
 47 49  1  0  0  0  0
 47 50  1  0  0  0  0
 48 52  1  0  0  0  0
 49 54  1  0  0  0  0
 50 66  1  0  0  0  0
 51 54  1  0  0  0  0
 51 66  1  0  0  0  0
 52 72  1  0  0  0  0
 53 65  1  0  0  0  0
 54 64  1  0  0  0  0
 55 61  1  0  0  0  0
 56 62  1  0  0  0  0
 57 62  1  0  0  0  0
 58 62  1  0  0  0  0
 59 75  1  0  0  0  0
 60 62  1  0  0  0  0
 60 73  1  0  0  0  0
 61 75  1  0  0  0  0
 63 64  1  0  0  0  0
M  CHG  2  74   1  75   1
M  ISO  4  35 101  42 100  71 100  83 101
M  END
> <Batch ID>
0069

> <Smiles>
CNC(C)C(=O)NC(C(=O)N1Cc2cc([101O:1][101CH:1]=CC(=O)Nc3cc([100NH:0][100C:0](=O)N4CCCC(n5nc(-c6ccc(Oc7ccc(F)cc7F)cc6)c(C(N)=O)c5N)C4)cc(C(=N)N)c3F)ccc2CC1C(=O)NC1CCCc2ccccc21)C(C)(C)C

> <Shape>
0.145

> <Color>
0.180

> <Negative vol penalty>
0.000

$$$$

  -OEChem-04042323303D

 83 91  0     1  0  0  0  0  0999 V2000
  -23.7053  -19.9022   24.9251 C   0  0  0  0  0  0  0  0  0  0  0  0
  -22.8083  -19.2242   24.1075 C   0  0  0  0  0  0  0  0  0  0  0  0
  -22.2289  -28.2434   20.7718 C   0  0  0  0  0  0  0  0  0  0  0  0
  -23.3018  -26.9674   22.5205 C   0  0  0  0  0  0  0  0  0  0  0  0
  -24.6643  -20.7388   24.3579 C   0  0  0  0  0  0  0  0  0  0  0  0
  -22.8775  -19.3732   22.7219 C   0  0  0  0  0  0  0  0  0  0  0  0
  -27.0423  -16.9898   16.7027 C   0  0  0  0  0  0  0  0  0  0  0  0
  -20.9884  -28.0179   21.3683 C   0  0  0  0  0  0  0  0  0  0  0  0
  -22.0612  -26.7419   23.1170 C   0  0  0  0  0  0  0  0  0  0  0  0
  -28.4025  -16.6893   16.6448 C   0  0  0  0  0  0  0  0  0  0  0  0
  -17.5789  -28.0821   22.6279 C   0  0  0  0  0  0  0  0  0  0  0  0
  -16.7089  -29.1660   22.7447 C   0  0  0  0  0  0  0  0  0  0  0  0
  -28.2292  -15.5269   18.7515 C   0  0  0  0  0  0  0  0  0  0  0  0
  -29.8204  -21.2115   18.7569 C   0  0  0  0  0  0  0  0  0  0  0  0
  -30.4085  -19.8602   20.6713 C   0  0  0  0  0  0  0  0  0  0  0  0
  -29.6628  -22.1370   20.9830 C   0  0  0  0  0  0  0  0  0  0  0  0
  -18.3434  -30.3334   24.0873 C   0  0  0  0  0  0  0  0  0  0  0  0
  -23.3856  -27.7181   21.3479 C   0  0  0  0  0  0  0  0  0  0  0  0
  -25.5460  -29.0228   20.9758 C   0  0  0  0  0  0  0  0  0  0  0  0
  -24.7366  -20.9072   22.9653 C   0  0  0  0  0  0  0  0  0  0  0  0
  -26.2663  -16.5697   17.7926 C   0  0  0  0  0  0  0  0  0  0  0  0
  -23.8536  -20.1943   22.1290 C   0  0  0  0  0  0  0  0  0  0  0  0
  -26.8588  -15.8211   18.8196 C   0  0  0  0  0  0  0  0  0  0  0  0
  -30.2650  -20.0022   19.2911 C   0  0  0  0  0  0  0  0  0  0  0  0
  -29.5193  -22.2789   19.6029 C   0  0  0  0  0  0  0  0  0  0  0  0
  -20.9045  -27.2672   22.5409 C   0  0  0  0  0  0  0  0  0  0  0  0
  -28.9967  -15.9603   17.6707 C   0  0  0  0  0  0  0  0  0  0  0  0
  -18.8312  -28.1237   23.2409 C   0  0  0  0  0  0  0  0  0  0  0  0
  -17.0911  -30.2916   23.4743 C   0  0  0  0  0  0  0  0  0  0  0  0
  -30.1074  -20.9276   21.5173 C   0  0  0  0  0  0  0  0  0  0  0  0
  -19.2134  -29.2494   23.9706 C   0  0  0  0  0  0  0  0  0  0  0  0
  -24.6673  -27.9502   20.7319 C   0  0  0  0  0  0  0  0  0  0  0  0
  -26.6156  -28.7855   20.1475 C   0  0  0  0  0  0  0  0  0  0  0  0
  -25.4076  -30.1341   21.8710 C   0  0  0  0  0  0  0  0  0  0  0  0
  -24.5874  -18.0458   20.0523 C   0  0  0  0  0  0  0  0  0  0  0  0
  -23.6992  -15.0222   20.8213 C   0  0  0  0  0  0  0  0  0  0  0  0
  -24.4048  -11.6843   20.7334 C   0  0  0  0  0  0  0  0  0  0  0  0
  -31.0151  -17.6508   18.7934 C   0  0  0  0  0  0  0  0  0  0  0  0
  -28.8712  -23.8156   17.7148 C   0  0  0  0  0  0  0  0  0  0  0  0
  -25.7993  -21.8189   22.4043 C   0  0  0  0  0  0  0  0  0  0  0  0
  -24.7947  -16.8790   17.8271 C   0  0  0  0  0  0  0  0  0  0  0  0
  -26.0654  -15.3293   20.0016 C   0  0  0  0  0  0  0  0  0  0  0  0
  -25.5116  -22.2562   20.9717 C   0  0  0  0  0  0  0  0  0  0  0  0
  -27.7365  -26.7102   15.9796 C   0  0  0  0  0  0  0  0  0  0  0  0
  -25.1696  -21.0449   20.1172 C   0  0  0  0  0  0  0  0  0  0  0  0
  -26.9056  -27.4574   17.0254 C   0  0  0  0  0  0  0  0  0  0  0  0
  -27.5766  -25.1961   16.1044 C   0  0  0  0  0  0  0  0  0  0  0  0
  -26.9999  -25.4005   18.4908 C   0  0  0  0  0  0  0  0  0  0  0  0
  -23.8903  -20.3647   20.6210 C   0  0  1  0  0  0  0  0  0  0  0  0
  -24.2093  -16.8427   19.2354 C   0  0  1  0  0  0  0  0  0  0  0  0
  -27.1791  -26.9268   18.4464 C   0  0  2  0  0  0  0  0  0  0  0  0
  -23.5098   -9.4614   21.4783 C   0  0  0  0  0  0  0  0  0  0  0  0
  -32.6577  -16.2397   17.5011 C   0  0  0  0  0  0  0  0  0  0  0  0
  -24.6112  -15.6131   23.6724 C   0  0  0  0  0  0  0  0  0  0  0  0
  -24.5930  -13.1489   24.1147 C   0  0  0  0  0  0  0  0  0  0  0  0
  -22.4765  -14.3208   23.5067 C   0  0  0  0  0  0  0  0  0  0  0  0
  -24.1861  -10.7085   17.9479 C   0  0  0  0  0  0  0  0  0  0  0  0
  -24.2403  -13.9484   21.7341 C   0  0  1  0  0  0  0  0  0  0  0  0
  -23.5552  -10.4848   20.3543 C   0  0  2  0  0  0  0  0  0  0  0  0
  -31.2318  -16.7664   17.5682 C   0  0  1  0  0  0  0  0  0  1  0  0
  -23.9959  -14.2686   23.2358 C   0  0  0  0  0  0  0  0  0  0  0  0
  -25.1379  -27.0953   19.8200 N   0  0  0  0  0  0  0  0  0  0  0  0
  -26.3239  -27.6304   19.4835 N   0  0  0  0  0  0  0  0  0  0  0  0
  -24.6314  -15.6626   19.9927 N   0  0  0  0  0  0  0  0  0  0  0  0
  -27.8555  -24.7655   17.4761 N   0  0  0  0  0  0  0  0  0  0  0  0
  -27.7678  -29.4543   19.9297 N   0  0  0  0  0  0  0  0  0  0  0  0
  -24.2454  -30.2247   22.6491 N   0  0  0  0  0  0  0  0  0  0  0  0
  -30.5710  -18.9189   18.4333 N   0  0  0  0  0  0  0  0  0  0  0  0
  -29.0679  -23.5077   19.0605 N   0  0  0  0  0  0  0  0  0  0  0  0
  -23.7160  -19.1104   19.9224 N   0  0  0  0  0  0  0  0  0  0  0  0
  -23.6455  -12.6939   21.2861 N   0  0  0  0  0  0  0  0  0  0  0  0
  -24.1066   -9.8230   19.1382 N   0  3  0  0  0  0  0  0  0  0  0  0
  -26.2811  -31.0294   21.9658 O   0  0  0  0  0  0  0  0  0  0  0  0
  -25.5942  -18.0103   20.7500 O   0  0  0  0  0  0  0  0  0  0  0  0
  -22.4926  -15.2782   20.8376 O   0  0  0  0  0  0  0  0  0  0  0  0
  -25.6211  -11.7206   20.5603 O   0  0  0  0  0  0  0  0  0  0  0  0
  -31.2117  -17.2256   19.9281 O   0  0  0  0  0  0  0  0  0  0  0  0
  -29.5371  -23.3328   16.7954 O   0  0  0  0  0  0  0  0  0  0  0  0
  -19.6942  -27.0471   23.1234 O   0  0  0  0  0  0  0  0  0  0  0  0
  -30.3243  -15.6662   17.6170 O   0  0  0  0  0  0  0  0  0  1  0  0
  -16.2560  -31.3331   23.5851 F   0  0  0  0  0  0  0  0  0  0  0  0
  -30.2459  -20.7918   22.8427 F   0  0  0  0  0  0  0  0  0  0  0  0
  -20.4157  -29.2957   24.5607 F   0  0  0  0  0  0  0  0  0  0  0  0
  1  2  1  0  0  0  0
  1  5  2  0  0  0  0
  2  6  2  0  0  0  0
  3  8  2  0  0  0  0
  3 18  1  0  0  0  0
  4  9  1  0  0  0  0
  4 18  2  0  0  0  0
  5 20  1  0  0  0  0
  6 22  1  0  0  0  0
  7 10  2  0  0  0  0
  7 21  1  0  0  0  0
  8 26  1  0  0  0  0
  9 26  2  0  0  0  0
 10 27  1  0  0  0  0
 11 12  2  0  0  0  0
 11 28  1  0  0  0  0
 12 29  1  0  0  0  0
 13 23  1  0  0  0  0
 13 27  2  0  0  0  0
 14 24  2  0  0  0  0
 14 25  1  0  0  0  0
 15 24  1  0  0  0  0
 15 30  2  0  0  0  0
 16 25  2  0  0  0  0
 16 30  1  0  0  0  0
 17 29  2  0  0  0  0
 17 31  1  0  0  0  0
 18 32  1  0  0  0  0
 19 32  1  0  0  0  0
 19 33  2  0  0  0  0
 19 34  1  0  0  0  0
 20 22  2  0  0  0  0
 20 40  1  0  0  0  0
 21 23  2  0  0  0  0
 21 41  1  0  0  0  0
 22 49  1  0  0  0  0
 23 42  1  0  0  0  0
 24 68  1  0  0  0  0
 25 69  1  0  0  0  0
 26 79  1  0  0  0  0
 27 80  1  0  0  0  0
 28 31  2  0  0  0  0
 28 79  1  0  0  0  0
 29 81  1  0  0  0  0
 30 82  1  0  0  0  0
 31 83  1  0  0  0  0
 32 62  2  0  0  0  0
 33 63  1  0  0  0  0
 33 66  1  0  0  0  0
 34 67  1  0  0  0  0
 34 73  2  0  0  0  0
 35 50  1  0  0  0  0
 35 70  1  0  0  0  0
 35 74  2  0  0  0  0
 36 58  1  0  0  0  0
 36 64  1  0  0  0  0
 36 75  2  0  0  0  0
 37 59  1  0  0  0  0
 37 71  1  0  0  0  0
 37 76  2  0  0  0  0
 38 60  1  0  0  0  0
 38 68  1  0  0  0  0
 38 77  2  0  0  0  0
 39 65  1  0  0  0  0
 39 69  1  0  0  0  0
 39 78  2  0  0  0  0
 40 43  1  0  0  0  0
 41 50  1  0  0  0  0
 42 64  1  0  0  0  0
 43 45  1  0  0  0  0
 44 46  1  0  0  0  0
 44 47  1  0  0  0  0
 45 49  1  0  0  0  0
 46 51  1  0  0  0  0
 47 65  1  0  0  0  0
 48 51  1  0  0  0  0
 48 65  1  0  0  0  0
 49 70  1  0  0  0  0
 50 64  1  0  0  0  0
 51 63  1  0  0  0  0
 52 59  1  0  0  0  0
 53 60  1  0  0  0  0
 54 61  1  0  0  0  0
 55 61  1  0  0  0  0
 56 61  1  0  0  0  0
 57 72  1  0  0  0  0
 58 61  1  0  0  0  0
 58 71  1  0  0  0  0
 59 72  1  0  0  0  0
 60 80  1  0  0  0  0
 62 63  1  0  0  0  0
M  CHG  1  72   1
M  ISO  4  39 100  60 101  69 100  80 101
M  END
> <Batch ID>
0069

> <Smiles>
CNC(C)C(=O)NC(C(=O)N1Cc2cc([101O:1][101CH:1](C)C(=O)Nc3cc(F)cc([100NH:0][100C:0](=O)N4CCCC(n5nc(-c6ccc(Oc7ccc(F)cc7F)cc6)c(C(N)=O)c5N)C4)c3)ccc2CC1C(=O)NC1CCCc2ccccc21)C(C)(C)C

> <Shape>
0.225

> <Color>
0.071

> <Negative vol penalty>
0.000

$$$$

  -OEChem-04042323303D

 85 94  0     1  0  0  0  0  0999 V2000
  -24.3222   -7.0945   24.7272 C   0  0  0  0  0  0  0  0  0  0  0  0
  -25.4093   -7.9487   24.5726 C   0  0  0  0  0  0  0  0  0  0  0  0
  -23.1760  -30.2193   19.8452 C   0  0  0  0  0  0  0  0  0  0  0  0
  -23.0446  -28.9082   21.8702 C   0  0  0  0  0  0  0  0  0  0  0  0
  -23.2951   -7.0977   23.7843 C   0  0  0  0  0  0  0  0  0  0  0  0
  -25.4705   -8.8058   23.4744 C   0  0  0  0  0  0  0  0  0  0  0  0
  -27.8389  -14.4518   23.3383 C   0  0  0  0  0  0  0  0  0  0  0  0
  -21.9105  -30.7458   20.1039 C   0  0  0  0  0  0  0  0  0  0  0  0
  -21.7791  -29.4348   22.1290 C   0  0  0  0  0  0  0  0  0  0  0  0
  -29.0746  -14.9408   22.9165 C   0  0  0  0  0  0  0  0  0  0  0  0
  -20.4802  -32.2984   23.3670 C   0  0  0  0  0  0  0  0  0  0  0  0
  -20.2109  -32.7249   24.6675 C   0  0  0  0  0  0  0  0  0  0  0  0
  -28.1190  -15.4864   20.7698 C   0  0  0  0  0  0  0  0  0  0  0  0
  -32.3074  -21.6247   23.0181 C   0  0  0  0  0  0  0  0  0  0  0  0
  -30.7865  -21.6508   21.1411 C   0  0  0  0  0  0  0  0  0  0  0  0
  -31.2566  -23.6930   22.3434 C   0  0  0  0  0  0  0  0  0  0  0  0
  -18.3979  -31.1347   24.8135 C   0  0  0  0  0  0  0  0  0  0  0  0
  -23.7430  -29.3004   20.7283 C   0  0  0  0  0  0  0  0  0  0  0  0
  -26.2895  -29.2763   20.8789 C   0  0  0  0  0  0  0  0  0  0  0  0
  -23.3390   -7.9621   22.6791 C   0  0  0  0  0  0  0  0  0  0  0  0
  -26.7349  -14.4665   22.4739 C   0  0  0  0  0  0  0  0  0  0  0  0
  -24.4437   -8.8195   22.5151 C   0  0  0  0  0  0  0  0  0  0  0  0
  -26.8698  -14.9994   21.1839 C   0  0  0  0  0  0  0  0  0  0  0  0
  -31.6437  -20.9527   21.9917 C   0  0  0  0  0  0  0  0  0  0  0  0
  -32.1138  -22.9949   23.1940 C   0  0  0  0  0  0  0  0  0  0  0  0
  -30.5929  -23.0209   21.3170 C   0  0  0  0  0  0  0  0  0  0  0  0
  -21.2121  -30.3536   21.2458 C   0  0  0  0  0  0  0  0  0  0  0  0
  -29.2155  -15.4555   21.6311 C   0  0  0  0  0  0  0  0  0  0  0  0
  -19.7083  -31.2902   22.7897 C   0  0  0  0  0  0  0  0  0  0  0  0
  -19.1698  -32.1430   25.3907 C   0  0  0  0  0  0  0  0  0  0  0  0
  -18.6671  -30.7083   23.5129 C   0  0  0  0  0  0  0  0  0  0  0  0
  -25.0500  -28.7557   20.4613 C   0  0  0  0  0  0  0  0  0  0  0  0
  -27.2180  -28.3999   20.3728 C   0  0  0  0  0  0  0  0  0  0  0  0
  -31.3284  -18.7166   20.9200 C   0  0  0  0  0  0  0  0  0  0  0  0
  -26.5759  -30.4473   21.6551 C   0  0  0  0  0  0  0  0  0  0  0  0
  -24.8629  -12.2425   21.1882 C   0  0  0  0  0  0  0  0  0  0  0  0
  -23.2013  -14.8146   20.1179 C   0  0  0  0  0  0  0  0  0  0  0  0
  -23.2024  -18.1266   19.2950 C   0  0  0  0  0  0  0  0  0  0  0  0
  -28.9898  -23.2148   19.3834 C   0  0  0  0  0  0  0  0  0  0  0  0
  -22.2281   -7.8960   21.6612 C   0  0  0  0  0  0  0  0  0  0  0  0
  -25.4022  -13.9599   22.9532 C   0  0  0  0  0  0  0  0  0  0  0  0
  -25.7104  -15.0565   20.2243 C   0  0  0  0  0  0  0  0  0  0  0  0
  -22.1875   -9.1009   20.7248 C   0  0  0  0  0  0  0  0  0  0  0  0
  -26.7102  -24.6245   17.0396 C   0  0  0  0  0  0  0  0  0  0  0  0
  -23.5850   -9.4182   20.2021 C   0  0  0  0  0  0  0  0  0  0  0  0
  -26.1770  -25.8678   17.7552 C   0  0  0  0  0  0  0  0  0  0  0  0
  -26.9350  -23.4650   18.0086 C   0  0  0  0  0  0  0  0  0  0  0  0
  -27.2358  -25.0265   19.8902 C   0  0  0  0  0  0  0  0  0  0  0  0
  -32.6628  -18.6499   22.5491 C   0  0  0  0  0  0  0  0  0  0  0  0
  -24.5342   -9.7815   21.3504 C   0  0  1  0  0  0  0  0  0  0  0  0
  -24.4733  -13.5517   21.8140 C   0  0  1  0  0  0  0  0  0  0  0  0
  -27.0551  -26.2414   18.9655 C   0  0  2  0  0  0  0  0  0  0  0  0
  -32.1394  -17.5579   21.5684 C   0  0  2  0  0  0  0  0  0  0  0  0
  -33.2037  -16.9624   20.6533 C   0  0  0  0  0  0  0  0  0  0  0  0
  -21.7054  -19.9382   18.4147 C   0  0  0  0  0  0  0  0  0  0  0  0
  -23.4344  -13.6403   17.3114 C   0  0  0  0  0  0  0  0  0  0  0  0
  -22.7939  -15.8808   16.3961 C   0  0  0  0  0  0  0  0  0  0  0  0
  -21.1994  -14.6261   17.8474 C   0  0  0  0  0  0  0  0  0  0  0  0
  -23.5263  -19.7473   21.7500 C   0  0  0  0  0  0  0  0  0  0  0  0
  -31.2756  -16.4913   22.2132 C   0  0  0  0  0  0  0  0  0  1  0  0
  -23.2508  -15.6808   18.8825 C   0  0  1  0  0  0  0  0  0  0  0  0
  -22.2539  -19.2550   19.6578 C   0  0  2  0  0  0  0  0  0  0  0  0
  -22.6922  -14.9543   17.6265 C   0  0  0  0  0  0  0  0  0  0  0  0
  -25.1762  -27.6355   19.7448 N   0  0  0  0  0  0  0  0  0  0  0  0
  -26.5060  -27.4451   19.7083 N   0  0  0  0  0  0  0  0  0  0  0  0
  -31.8350  -19.6020   21.8170 N   0  0  0  0  0  0  0  0  0  0  0  0
  -24.4295  -14.5433   20.7375 N   0  0  0  0  0  0  0  0  0  0  0  0
  -27.7787  -23.8918   19.1270 N   0  0  0  0  0  0  0  0  0  0  0  0
  -32.7846  -23.6750   24.2316 N   0  0  0  0  0  0  0  0  0  0  0  0
  -28.5660  -28.3606   20.4357 N   0  0  0  0  0  0  0  0  0  0  0  0
  -25.5040  -31.2358   22.0952 N   0  0  0  0  0  0  0  0  0  0  0  0
  -29.7233  -23.7300   20.4516 N   0  0  0  0  0  0  0  0  0  0  0  0
  -24.2948  -11.1381   21.7940 N   0  0  0  0  0  0  0  0  0  0  0  0
  -22.5493  -16.9145   19.2206 N   0  0  0  0  0  0  0  0  0  0  0  0
  -22.9567  -20.2768   20.4843 N   0  3  0  0  0  0  0  0  0  0  0  0
  -30.5540  -18.8313   19.9973 O   0  0  0  0  0  0  0  0  0  0  0  0
  -27.7485  -30.7933   21.9358 O   0  0  0  0  0  0  0  0  0  0  0  0
  -25.6217  -12.2349   20.2259 O   0  0  0  0  0  0  0  0  0  0  0  0
  -22.1123  -14.4000   20.5226 O   0  0  0  0  0  0  0  0  0  0  0  0
  -24.4018  -18.3034   19.0937 O   0  0  0  0  0  0  0  0  0  0  0  0
  -29.3628  -22.2663   18.6882 O   0  0  0  0  0  0  0  0  0  0  0  0
  -19.9774  -30.8674   21.4988 O   0  0  0  0  0  0  0  0  0  0  0  0
  -30.4205  -15.9328   21.2165 O   0  0  0  0  0  0  0  0  0  1  0  0
  -18.9123  -32.5515   26.6401 F   0  0  0  0  0  0  0  0  0  0  0  0
  -17.9229  -29.7384   22.9641 F   0  0  0  0  0  0  0  0  0  0  0  0
  1  2  1  0  0  0  0
  1  5  2  0  0  0  0
  2  6  2  0  0  0  0
  3  8  2  0  0  0  0
  3 18  1  0  0  0  0
  4  9  1  0  0  0  0
  4 18  2  0  0  0  0
  5 20  1  0  0  0  0
  6 22  1  0  0  0  0
  7 10  2  0  0  0  0
  7 21  1  0  0  0  0
  8 27  1  0  0  0  0
  9 27  2  0  0  0  0
 10 28  1  0  0  0  0
 11 12  2  0  0  0  0
 11 29  1  0  0  0  0
 12 30  1  0  0  0  0
 13 23  1  0  0  0  0
 13 28  2  0  0  0  0
 14 24  1  0  0  0  0
 14 25  2  0  0  0  0
 15 24  2  0  0  0  0
 15 26  1  0  0  0  0
 16 25  1  0  0  0  0
 16 26  2  0  0  0  0
 17 30  2  0  0  0  0
 17 31  1  0  0  0  0
 18 32  1  0  0  0  0
 19 32  1  0  0  0  0
 19 33  2  0  0  0  0
 19 35  1  0  0  0  0
 20 22  2  0  0  0  0
 20 40  1  0  0  0  0
 21 23  2  0  0  0  0
 21 41  1  0  0  0  0
 22 50  1  0  0  0  0
 23 42  1  0  0  0  0
 24 66  1  0  0  0  0
 25 69  1  0  0  0  0
 26 72  1  0  0  0  0
 27 82  1  0  0  0  0
 28 83  1  0  0  0  0
 29 31  2  0  0  0  0
 29 82  1  0  0  0  0
 30 84  1  0  0  0  0
 31 85  1  0  0  0  0
 32 64  2  0  0  0  0
 33 65  1  0  0  0  0
 33 70  1  0  0  0  0
 34 53  1  0  0  0  0
 34 66  1  0  0  0  0
 34 76  2  0  0  0  0
 35 71  1  0  0  0  0
 35 77  2  0  0  0  0
 36 51  1  0  0  0  0
 36 73  1  0  0  0  0
 36 78  2  0  0  0  0
 37 61  1  0  0  0  0
 37 67  1  0  0  0  0
 37 79  2  0  0  0  0
 38 62  1  0  0  0  0
 38 74  1  0  0  0  0
 38 80  2  0  0  0  0
 39 68  1  0  0  0  0
 39 72  1  0  0  0  0
 39 81  2  0  0  0  0
 40 43  1  0  0  0  0
 41 51  1  0  0  0  0
 42 67  1  0  0  0  0
 43 45  1  0  0  0  0
 44 46  1  0  0  0  0
 44 47  1  0  0  0  0
 45 50  1  0  0  0  0
 46 52  1  0  0  0  0
 47 68  1  0  0  0  0
 48 52  1  0  0  0  0
 48 68  1  0  0  0  0
 49 53  1  0  0  0  0
 49 66  1  0  0  0  0
 50 73  1  0  0  0  0
 51 67  1  0  0  0  0
 52 65  1  0  0  0  0
 53 54  1  0  0  0  0
 53 60  1  0  0  0  0
 55 62  1  0  0  0  0
 56 63  1  0  0  0  0
 57 63  1  0  0  0  0
 58 63  1  0  0  0  0
 59 75  1  0  0  0  0
 60 83  1  0  0  0  0
 61 63  1  0  0  0  0
 61 74  1  0  0  0  0
 62 75  1  0  0  0  0
 64 65  1  0  0  0  0
M  CHG  1  75   1
M  ISO  4  39 100  60 101  72 100  83 101
M  END
> <Batch ID>
0069

> <Smiles>
CNC(C)C(=O)NC(C(=O)N1Cc2cc([101O:1][101CH2:1]C3(C)CN(c4cc(N)cc([100NH:0][100C:0](=O)N5CCCC(n6nc(-c7ccc(Oc8ccc(F)cc8F)cc7)c(C(N)=O)c6N)C5)c4)C3=O)ccc2CC1C(=O)NC1CCCc2ccccc21)C(C)(C)C

> <Shape>
0.242

> <Color>
0.076

> <Negative vol penalty>
0.000

$$$$

  -OEChem-04042323303D

 84 92  0     1  0  0  0  0  0999 V2000
  -23.9300   -8.0483   22.0621 C   0  0  0  0  0  0  0  0  0  0  0  0
  -24.6173   -9.0717   21.4173 C   0  0  0  0  0  0  0  0  0  0  0  0
  -21.9924  -28.3372   21.3575 C   0  0  0  0  0  0  0  0  0  0  0  0
  -22.9620  -27.3629   23.3444 C   0  0  0  0  0  0  0  0  0  0  0  0
  -22.5710   -8.1897   22.3395 C   0  0  0  0  0  0  0  0  0  0  0  0
  -23.9456  -10.2367   21.0484 C   0  0  0  0  0  0  0  0  0  0  0  0
  -26.5587  -14.4255   22.1756 C   0  0  0  0  0  0  0  0  0  0  0  0
  -20.7221  -28.2254   21.9225 C   0  0  0  0  0  0  0  0  0  0  0  0
  -21.6917  -27.2511   23.9094 C   0  0  0  0  0  0  0  0  0  0  0  0
  -27.6080  -14.7697   21.3246 C   0  0  0  0  0  0  0  0  0  0  0  0
  -18.8517  -29.8887   24.1958 C   0  0  0  0  0  0  0  0  0  0  0  0
  -17.9966  -30.9857   24.0909 C   0  0  0  0  0  0  0  0  0  0  0  0
  -30.0257  -19.9844   23.0516 C   0  0  0  0  0  0  0  0  0  0  0  0
  -29.3069  -22.2884   22.9439 C   0  0  0  0  0  0  0  0  0  0  0  0
  -26.1891  -16.3918   20.2409 C   0  0  0  0  0  0  0  0  0  0  0  0
  -29.5506  -21.0029   20.9129 C   0  0  0  0  0  0  0  0  0  0  0  0
  -16.4034  -29.6286   22.8839 C   0  0  0  0  0  0  0  0  0  0  0  0
  -23.1124  -27.9060   22.0684 C   0  0  0  0  0  0  0  0  0  0  0  0
  -29.7049  -21.1809   23.6927 C   0  0  0  0  0  0  0  0  0  0  0  0
  -25.3089  -29.1115   21.5887 C   0  0  0  0  0  0  0  0  0  0  0  0
  -21.8845   -9.3610   21.9825 C   0  0  0  0  0  0  0  0  0  0  0  0
  -25.3113  -15.0553   22.0583 C   0  0  0  0  0  0  0  0  0  0  0  0
  -22.5758  -10.3933   21.3201 C   0  0  0  0  0  0  0  0  0  0  0  0
  -25.1263  -16.0557   21.0933 C   0  0  0  0  0  0  0  0  0  0  0  0
  -29.9486  -19.8953   21.6617 C   0  0  0  0  0  0  0  0  0  0  0  0
  -29.2298  -22.1994   21.5540 C   0  0  0  0  0  0  0  0  0  0  0  0
  -20.5717  -27.6823   23.1985 C   0  0  0  0  0  0  0  0  0  0  0  0
  -27.4225  -15.7509   20.3552 C   0  0  0  0  0  0  0  0  0  0  0  0
  -18.4826  -28.6616   23.6447 C   0  0  0  0  0  0  0  0  0  0  0  0
  -16.7725  -30.8557   23.4350 C   0  0  0  0  0  0  0  0  0  0  0  0
  -17.2585  -28.5315   22.9888 C   0  0  0  0  0  0  0  0  0  0  0  0
  -24.4249  -28.0208   21.4850 C   0  0  0  0  0  0  0  0  0  0  0  0
  -26.4116  -28.7298   20.8644 C   0  0  0  0  0  0  0  0  0  0  0  0
  -28.9945  -22.0439   25.8758 C   0  0  0  0  0  0  0  0  0  0  0  0
  -29.7855  -21.2730   25.1422 C   0  0  0  0  0  0  0  0  0  0  0  0
  -25.1476  -30.3582   22.2782 C   0  0  0  0  0  0  0  0  0  0  0  0
  -22.3612  -14.0815   21.3854 C   0  0  0  0  0  0  0  0  0  0  0  0
  -21.6030  -17.1540   22.0973 C   0  0  0  0  0  0  0  0  0  0  0  0
  -30.2518  -18.4195   19.6433 C   0  0  0  0  0  0  0  0  0  0  0  0
  -22.6125  -20.4046   22.3444 C   0  0  0  0  0  0  0  0  0  0  0  0
  -28.6951  -23.4037   19.4069 C   0  0  0  0  0  0  0  0  0  0  0  0
  -20.4048   -9.4486   22.2609 C   0  0  0  0  0  0  0  0  0  0  0  0
  -24.1975  -14.6915   23.0015 C   0  0  0  0  0  0  0  0  0  0  0  0
  -23.8126  -16.7762   20.9397 C   0  0  0  0  0  0  0  0  0  0  0  0
  -19.8514  -10.8686   22.1723 C   0  0  0  0  0  0  0  0  0  0  0  0
  -27.6897  -25.9765   17.1603 C   0  0  0  0  0  0  0  0  0  0  0  0
  -20.3590  -11.5617   20.9119 C   0  0  0  0  0  0  0  0  0  0  0  0
  -26.8238  -26.8952   18.0253 C   0  0  0  0  0  0  0  0  0  0  0  0
  -27.4993  -24.5060   17.5281 C   0  0  0  0  0  0  0  0  0  0  0  0
  -26.8163  -25.1120   19.8162 C   0  0  0  0  0  0  0  0  0  0  0  0
  -21.8877  -11.6823   20.9263 C   0  0  1  0  0  0  0  0  0  0  0  0
  -22.8153  -15.0346   22.4545 C   0  0  1  0  0  0  0  0  0  0  0  0
  -27.0225  -26.6078   19.5265 C   0  0  2  0  0  0  0  0  0  0  0  0
  -21.7589  -22.6946   22.9143 C   0  0  0  0  0  0  0  0  0  0  0  0
  -20.2102  -17.3068   19.3868 C   0  0  0  0  0  0  0  0  0  0  0  0
  -20.2221  -19.8013   19.5994 C   0  0  0  0  0  0  0  0  0  0  0  0
  -18.9759  -18.4159   21.2578 C   0  0  0  0  0  0  0  0  0  0  0  0
  -24.5055  -20.6748   24.6033 C   0  0  0  0  0  0  0  0  0  0  0  0
  -30.6747  -16.9808   19.3691 C   0  0  0  0  0  0  0  0  0  0  0  0
  -29.7701  -15.9548   20.0347 C   0  0  0  0  0  0  0  0  0  1  0  0
  -21.5035  -18.4399   21.3127 C   0  0  1  0  0  0  0  0  0  0  0  0
  -22.4285  -21.4358   23.4432 C   0  0  2  0  0  0  0  0  0  0  0  0
  -20.2522  -18.4762   20.3905 C   0  0  0  0  0  0  0  0  0  0  0  0
  -24.9230  -27.0212   20.7523 N   0  0  0  0  0  0  0  0  0  0  0  0
  -26.1319  -27.4824   20.3891 N   0  0  0  0  0  0  0  0  0  0  0  0
  -22.7523  -16.3806   21.8814 N   0  0  0  0  0  0  0  0  0  0  0  0
  -27.7073  -24.3088   18.9643 N   0  0  0  0  0  0  0  0  0  0  0  0
  -27.5836  -29.3429   20.5940 N   0  0  0  0  0  0  0  0  0  0  0  0
  -23.9523  -30.5876   22.9731 N   0  0  0  0  0  0  0  0  0  0  0  0
  -30.2738  -18.6817   21.0105 N   0  0  0  0  0  0  0  0  0  0  0  0
  -28.8243  -23.3238   20.7931 N   0  0  0  0  0  0  0  0  0  0  0  0
  -22.3012  -12.7632   21.7953 N   0  0  0  0  0  0  0  0  0  0  0  0
  -21.5558  -19.5204   22.2916 N   0  0  0  0  0  0  0  0  0  0  0  0
  -23.7475  -21.8140   24.0248 N   0  3  0  0  0  0  0  0  0  0  0  0
  -26.0304  -31.2492   22.2644 O   0  0  0  0  0  0  0  0  0  0  0  0
  -22.0844  -14.5105   20.2714 O   0  0  0  0  0  0  0  0  0  0  0  0
  -20.6977  -16.8506   22.8783 O   0  0  0  0  0  0  0  0  0  0  0  0
  -29.9449  -19.1927   18.7421 O   0  0  0  0  0  0  0  0  0  0  0  0
  -23.5937  -20.3877   21.6044 O   0  0  0  0  0  0  0  0  0  0  0  0
  -29.3948  -22.7681   18.6143 O   0  0  0  0  0  0  0  0  0  0  0  0
  -19.3323  -27.5732   23.7503 O   0  0  0  0  0  0  0  0  0  0  0  0
  -28.4448  -16.0883   19.5228 O   0  0  0  0  0  0  0  0  0  1  0  0
  -15.9508  -31.9089   23.3357 F   0  0  0  0  0  0  0  0  0  0  0  0
  -16.8980  -27.3549   22.4583 F   0  0  0  0  0  0  0  0  0  0  0  0
  1  2  1  0  0  0  0
  1  5  2  0  0  0  0
  2  6  2  0  0  0  0
  3  8  2  0  0  0  0
  3 18  1  0  0  0  0
  4  9  1  0  0  0  0
  4 18  2  0  0  0  0
  5 21  1  0  0  0  0
  6 23  1  0  0  0  0
  7 10  2  0  0  0  0
  7 22  1  0  0  0  0
  8 27  1  0  0  0  0
  9 27  2  0  0  0  0
 10 28  1  0  0  0  0
 11 12  2  0  0  0  0
 11 29  1  0  0  0  0
 12 30  1  0  0  0  0
 13 19  1  0  0  0  0
 13 25  2  0  0  0  0
 14 19  2  0  0  0  0
 14 26  1  0  0  0  0
 15 24  1  0  0  0  0
 15 28  2  0  0  0  0
 16 25  1  0  0  0  0
 16 26  2  0  0  0  0
 17 30  2  0  0  0  0
 17 31  1  0  0  0  0
 18 32  1  0  0  0  0
 19 35  1  0  0  0  0
 20 32  1  0  0  0  0
 20 33  2  0  0  0  0
 20 36  1  0  0  0  0
 21 23  2  0  0  0  0
 21 42  1  0  0  0  0
 22 24  2  0  0  0  0
 22 43  1  0  0  0  0
 23 51  1  0  0  0  0
 24 44  1  0  0  0  0
 25 70  1  0  0  0  0
 26 71  1  0  0  0  0
 27 81  1  0  0  0  0
 28 82  1  0  0  0  0
 29 31  2  0  0  0  0
 29 81  1  0  0  0  0
 30 83  1  0  0  0  0
 31 84  1  0  0  0  0
 32 64  2  0  0  0  0
 33 65  1  0  0  0  0
 33 68  1  0  0  0  0
 34 35  2  0  0  0  0
 36 69  1  0  0  0  0
 36 75  2  0  0  0  0
 37 52  1  0  0  0  0
 37 72  1  0  0  0  0
 37 76  2  0  0  0  0
 38 61  1  0  0  0  0
 38 66  1  0  0  0  0
 38 77  2  0  0  0  0
 39 59  1  0  0  0  0
 39 70  1  0  0  0  0
 39 78  2  0  0  0  0
 40 62  1  0  0  0  0
 40 73  1  0  0  0  0
 40 79  2  0  0  0  0
 41 67  1  0  0  0  0
 41 71  1  0  0  0  0
 41 80  2  0  0  0  0
 42 45  1  0  0  0  0
 43 52  1  0  0  0  0
 44 66  1  0  0  0  0
 45 47  1  0  0  0  0
 46 48  1  0  0  0  0
 46 49  1  0  0  0  0
 47 51  1  0  0  0  0
 48 53  1  0  0  0  0
 49 67  1  0  0  0  0
 50 53  1  0  0  0  0
 50 67  1  0  0  0  0
 51 72  1  0  0  0  0
 52 66  1  0  0  0  0
 53 65  1  0  0  0  0
 54 62  1  0  0  0  0
 55 63  1  0  0  0  0
 56 63  1  0  0  0  0
 57 63  1  0  0  0  0
 58 74  1  0  0  0  0
 59 60  1  0  0  0  0
 60 82  1  0  0  0  0
 61 63  1  0  0  0  0
 61 73  1  0  0  0  0
 62 74  1  0  0  0  0
 64 65  1  0  0  0  0
M  CHG  1  74   1
M  ISO  4  41 100  60 101  71 100  82 101
M  END
> <Batch ID>
0069

> <Smiles>
C=Cc1cc(NC(=O)C[101CH2:1][101O:1]c2ccc3c(c2)CN(C(=O)C(NC(=O)C(C)NC)C(C)(C)C)C(C(=O)NC2CCCc4ccccc42)C3)cc([100NH:0][100C:0](=O)N2CCCC(n3nc(-c4ccc(Oc5ccc(F)cc5F)cc4)c(C(N)=O)c3N)C2)c1

> <Shape>
0.247

> <Color>
0.084

> <Negative vol penalty>
0.000

$$$$

  -OEChem-04042323303D

 86 94  0     1  0  0  0  0  0999 V2000
  -29.0560  -24.8803   17.2327 C   0  0  0  0  0  0  0  0  0  0  0  0
  -27.8833  -24.9416   17.9786 C   0  0  0  0  0  0  0  0  0  0  0  0
  -26.4356  -12.9686   20.4295 C   0  0  0  0  0  0  0  0  0  0  0  0
  -24.0507  -13.0454   20.0506 C   0  0  0  0  0  0  0  0  0  0  0  0
  -30.1750  -25.6087   17.6342 C   0  0  0  0  0  0  0  0  0  0  0  0
  -27.8292  -25.7306   19.1270 C   0  0  0  0  0  0  0  0  0  0  0  0
  -23.5807  -28.4729   19.4018 C   0  0  0  0  0  0  0  0  0  0  0  0
  -26.2692  -11.8535   21.2508 C   0  0  0  0  0  0  0  0  0  0  0  0
  -23.8843  -11.9303   20.8719 C   0  0  0  0  0  0  0  0  0  0  0  0
  -22.4222  -27.8130   19.8093 C   0  0  0  0  0  0  0  0  0  0  0  0
  -24.2663   -8.5813   20.6297 C   0  0  0  0  0  0  0  0  0  0  0  0
  -23.4205   -7.5675   20.1799 C   0  0  0  0  0  0  0  0  0  0  0  0
  -18.6069  -21.6796   20.5461 C   0  0  0  0  0  0  0  0  0  0  0  0
  -20.0584  -20.1047   19.4280 C   0  0  0  0  0  0  0  0  0  0  0  0
  -22.7030  -28.7057   22.0327 C   0  0  0  0  0  0  0  0  0  0  0  0
  -21.0011  -22.0003   20.5922 C   0  0  0  0  0  0  0  0  0  0  0  0
  -22.0227   -7.8699   22.1273 C   0  0  0  0  0  0  0  0  0  0  0  0
  -25.3263  -13.5646   19.8294 C   0  0  0  0  0  0  0  0  0  0  0  0
  -18.7765  -20.5228   19.7854 C   0  0  0  0  0  0  0  0  0  0  0  0
  -25.7184  -14.7238   17.5911 C   0  0  0  0  0  0  0  0  0  0  0  0
  -30.1316  -26.4146   18.7828 C   0  0  0  0  0  0  0  0  0  0  0  0
  -24.3163  -29.2467   20.3109 C   0  0  0  0  0  0  0  0  0  0  0  0
  -28.9491  -26.4695   19.5450 C   0  0  0  0  0  0  0  0  0  0  0  0
  -23.8691  -29.3765   21.6335 C   0  0  0  0  0  0  0  0  0  0  0  0
  -19.7193  -22.4184   20.9495 C   0  0  0  0  0  0  0  0  0  0  0  0
  -21.1707  -20.8435   19.8314 C   0  0  0  0  0  0  0  0  0  0  0  0
  -24.9936  -11.3344   21.4719 C   0  0  0  0  0  0  0  0  0  0  0  0
  -21.9847  -27.9270   21.1257 C   0  0  0  0  0  0  0  0  0  0  0  0
  -23.9905   -9.2393   21.8283 C   0  0  0  0  0  0  0  0  0  0  0  0
  -22.2986   -7.2118   20.9287 C   0  0  0  0  0  0  0  0  0  0  0  0
  -22.8687   -8.8836   22.5771 C   0  0  0  0  0  0  0  0  0  0  0  0
  -25.4975  -14.7168   18.9814 C   0  0  0  0  0  0  0  0  0  0  0  0
  -25.8123  -16.0547   17.2650 C   0  0  0  0  0  0  0  0  0  0  0  0
  -17.6168  -19.7525   19.3650 C   0  0  0  0  0  0  0  0  0  0  0  0
  -25.8289  -13.6254   16.6762 C   0  0  0  0  0  0  0  0  0  0  0  0
  -27.2667  -29.1246   21.4874 C   0  0  0  0  0  0  0  0  0  0  0  0
  -26.4274  -31.9526   22.8366 C   0  0  0  0  0  0  0  0  0  0  0  0
  -20.5367  -24.4454   22.2026 C   0  0  0  0  0  0  0  0  0  0  0  0
  -23.9382  -34.0157   23.9295 C   0  0  0  0  0  0  0  0  0  0  0  0
  -23.6822  -21.0355   19.7868 C   0  0  0  0  0  0  0  0  0  0  0  0
  -31.3813  -27.1468   19.2035 C   0  0  0  0  0  0  0  0  0  0  0  0
  -25.5492  -29.9739   19.8488 C   0  0  0  0  0  0  0  0  0  0  0  0
  -24.6117  -30.2115   22.6433 C   0  0  0  0  0  0  0  0  0  0  0  0
  -31.1249  -28.2525   20.2242 C   0  0  0  0  0  0  0  0  0  0  0  0
  -27.0963  -20.2817   19.1139 C   0  0  0  0  0  0  0  0  0  0  0  0
  -30.2112  -27.7500   21.3375 C   0  0  0  0  0  0  0  0  0  0  0  0
  -27.0929  -18.7707   18.8711 C   0  0  0  0  0  0  0  0  0  0  0  0
  -26.1060  -20.6828   20.2058 C   0  0  0  0  0  0  0  0  0  0  0  0
  -24.7307  -18.6869   19.7654 C   0  0  0  0  0  0  0  0  0  0  0  0
  -28.8435  -27.3335   20.7830 C   0  0  1  0  0  0  0  0  0  0  0  0
  -26.5024  -30.3184   20.9891 C   0  0  1  0  0  0  0  0  0  0  0  0
  -25.6655  -18.2420   18.6288 C   0  0  2  0  0  0  0  0  0  0  0  0
  -19.7805  -25.1979   24.4633 C   0  0  0  0  0  0  0  0  0  0  0  0
  -23.5635  -36.2447   25.0196 C   0  0  0  0  0  0  0  0  0  0  0  0
  -27.2675  -30.7769   25.5239 C   0  0  0  0  0  0  0  0  0  0  0  0
  -26.0123  -32.6289   26.6477 C   0  0  0  0  0  0  0  0  0  0  0  0
  -27.9495  -33.1564   25.1673 C   0  0  0  0  0  0  0  0  0  0  0  0
  -22.4098  -35.0256   21.6051 C   0  0  0  0  0  0  0  0  0  0  0  0
  -20.7902  -26.8728   22.8914 C   0  0  0  0  0  0  0  0  0  1  0  0
  -25.7803  -32.3669   24.1360 C   0  0  1  0  0  0  0  0  0  0  0  0
  -19.9323  -25.6099   22.9995 C   0  0  1  0  0  0  0  0  0  0  0  0
  -23.6832  -35.4947   23.7020 C   0  0  2  0  0  0  0  0  0  0  0  0
  -26.7393  -32.2149   25.3505 C   0  0  0  0  0  0  0  0  0  0  0  0
  -25.4538  -15.9458   19.5027 N   0  0  0  0  0  0  0  0  0  0  0  0
  -25.6486  -16.7374   18.4343 N   0  0  0  0  0  0  0  0  0  0  0  0
  -25.8149  -30.8981   22.1448 N   0  0  0  0  0  0  0  0  0  0  0  0
  -24.7747  -20.1508   19.9070 N   0  0  0  0  0  0  0  0  0  0  0  0
  -26.0181  -16.6959   16.0950 N   0  0  0  0  0  0  0  0  0  0  0  0
  -17.8405  -18.6064   18.6075 N   0  0  0  0  0  0  0  0  0  0  0  0
  -25.7078  -12.3226   17.1786 N   0  0  0  0  0  0  0  0  0  0  0  0
  -19.5473  -23.5921   21.7214 N   0  0  0  0  0  0  0  0  0  0  0  0
  -22.4728  -20.4184   19.4687 N   0  0  0  0  0  0  0  0  0  0  0  0
  -28.0288  -28.5000   20.5186 N   0  0  0  0  0  0  0  0  0  0  0  0
  -25.2859  -33.7241   23.9313 N   0  0  0  0  0  0  0  0  0  0  0  0
  -22.4215  -35.6906   22.9335 N   0  3  0  0  0  0  0  0  0  0  0  0
  -16.4614  -20.1097   19.6549 O   0  0  0  0  0  0  0  0  0  0  0  0
  -26.0453  -13.7937   15.4521 O   0  0  0  0  0  0  0  0  0  0  0  0
  -27.1732  -28.7954   22.6641 O   0  0  0  0  0  0  0  0  0  0  0  0
  -27.4349  -32.5476   22.4460 O   0  0  0  0  0  0  0  0  0  0  0  0
  -21.7493  -24.3291   22.0506 O   0  0  0  0  0  0  0  0  0  0  0  0
  -23.0326  -33.2010   24.0932 O   0  0  0  0  0  0  0  0  0  0  0  0
  -23.8154  -22.2539   19.9269 O   0  0  0  0  0  0  0  0  0  0  0  0
  -24.8308  -10.2461   22.2731 O   0  0  0  0  0  0  0  0  0  0  0  0
  -20.8546  -27.2834   21.5263 O   0  0  0  0  0  0  0  0  0  1  0  0
  -21.4856   -6.2393   20.4959 F   0  0  0  0  0  0  0  0  0  0  0  0
  -22.5978   -9.5130   23.7287 F   0  0  0  0  0  0  0  0  0  0  0  0
  1  2  1  0  0  0  0
  1  5  2  0  0  0  0
  2  6  2  0  0  0  0
  3  8  2  0  0  0  0
  3 18  1  0  0  0  0
  4  9  1  0  0  0  0
  4 18  2  0  0  0  0
  5 21  1  0  0  0  0
  6 23  1  0  0  0  0
  7 10  2  0  0  0  0
  7 22  1  0  0  0  0
  8 27  1  0  0  0  0
  9 27  2  0  0  0  0
 10 28  1  0  0  0  0
 11 12  2  0  0  0  0
 11 29  1  0  0  0  0
 12 30  1  0  0  0  0
 13 19  1  0  0  0  0
 13 25  2  0  0  0  0
 14 19  2  0  0  0  0
 14 26  1  0  0  0  0
 15 24  1  0  0  0  0
 15 28  2  0  0  0  0
 16 25  1  0  0  0  0
 16 26  2  0  0  0  0
 17 30  2  0  0  0  0
 17 31  1  0  0  0  0
 18 32  1  0  0  0  0
 19 34  1  0  0  0  0
 20 32  1  0  0  0  0
 20 33  2  0  0  0  0
 20 35  1  0  0  0  0
 21 23  2  0  0  0  0
 21 41  1  0  0  0  0
 22 24  2  0  0  0  0
 22 42  1  0  0  0  0
 23 50  1  0  0  0  0
 24 43  1  0  0  0  0
 25 71  1  0  0  0  0
 26 72  1  0  0  0  0
 27 83  1  0  0  0  0
 28 84  1  0  0  0  0
 29 31  2  0  0  0  0
 29 83  1  0  0  0  0
 30 85  1  0  0  0  0
 31 86  1  0  0  0  0
 32 64  2  0  0  0  0
 33 65  1  0  0  0  0
 33 68  1  0  0  0  0
 34 69  1  0  0  0  0
 34 76  2  0  0  0  0
 35 70  1  0  0  0  0
 35 77  2  0  0  0  0
 36 51  1  0  0  0  0
 36 73  1  0  0  0  0
 36 78  2  0  0  0  0
 37 60  1  0  0  0  0
 37 66  1  0  0  0  0
 37 79  2  0  0  0  0
 38 61  1  0  0  0  0
 38 71  1  0  0  0  0
 38 80  2  0  0  0  0
 39 62  1  0  0  0  0
 39 74  1  0  0  0  0
 39 81  2  0  0  0  0
 40 67  1  0  0  0  0
 40 72  1  0  0  0  0
 40 82  2  0  0  0  0
 41 44  1  0  0  0  0
 42 51  1  0  0  0  0
 43 66  1  0  0  0  0
 44 46  1  0  0  0  0
 45 47  1  0  0  0  0
 45 48  1  0  0  0  0
 46 50  1  0  0  0  0
 47 52  1  0  0  0  0
 48 67  1  0  0  0  0
 49 52  1  0  0  0  0
 49 67  1  0  0  0  0
 50 73  1  0  0  0  0
 51 66  1  0  0  0  0
 52 65  1  0  0  0  0
 53 61  1  0  0  0  0
 54 62  1  0  0  0  0
 55 63  1  0  0  0  0
 56 63  1  0  0  0  0
 57 63  1  0  0  0  0
 58 75  1  0  0  0  0
 59 61  1  0  0  0  0
 59 84  1  0  0  0  0
 60 63  1  0  0  0  0
 60 74  1  0  0  0  0
 62 75  1  0  0  0  0
 64 65  1  0  0  0  0
M  CHG  1  75   1
M  ISO  4  40 100  59 101  72 100  84 101
M  END
> <Batch ID>
0069

> <Smiles>
CNC(C)C(=O)NC(C(=O)N1Cc2cc([101O:1][101CH2:1]C(C)C(=O)Nc3cc([100NH:0][100C:0](=O)N4CCCC(n5nc(-c6ccc(Oc7ccc(F)cc7F)cc6)c(C(N)=O)c5N)C4)cc(C(N)=O)c3)ccc2CC1C(=O)NC1CCCc2ccccc21)C(C)(C)C

> <Shape>
0.266

> <Color>
0.070

> <Negative vol penalty>
0.000

$$$$

  -OEChem-04042323303D

 90 99  0     1  0  0  0  0  0999 V2000
  -29.5305  -34.2278   25.6153 C   0  0  0  0  0  0  0  0  0  0  0  0
  -29.6215  -33.0490   24.8821 C   0  0  0  0  0  0  0  0  0  0  0  0
  -24.6617   -8.9016   21.5663 C   0  0  0  0  0  0  0  0  0  0  0  0
  -23.1467  -10.3892   20.4136 C   0  0  0  0  0  0  0  0  0  0  0  0
  -28.3215  -34.5858   26.2103 C   0  0  0  0  0  0  0  0  0  0  0  0
  -28.5037  -32.2268   24.7445 C   0  0  0  0  0  0  0  0  0  0  0  0
  -26.9930  -28.8543   19.8609 C   0  0  0  0  0  0  0  0  0  0  0  0
  -23.6291   -8.5101   22.4183 C   0  0  0  0  0  0  0  0  0  0  0  0
  -22.1140   -9.9977   21.2656 C   0  0  0  0  0  0  0  0  0  0  0  0
  -27.1663  -27.5032   19.5641 C   0  0  0  0  0  0  0  0  0  0  0  0
  -20.9608   -6.4361   22.3094 C   0  0  0  0  0  0  0  0  0  0  0  0
  -20.8157   -5.0732   22.5685 C   0  0  0  0  0  0  0  0  0  0  0  0
  -25.5590  -20.0235   18.0005 C   0  0  0  0  0  0  0  0  0  0  0  0
  -25.5795  -17.6358   17.6326 C   0  0  0  0  0  0  0  0  0  0  0  0
  -24.9278  -27.0514   20.3414 C   0  0  0  0  0  0  0  0  0  0  0  0
  -27.4130  -18.6945   18.7964 C   0  0  0  0  0  0  0  0  0  0  0  0
  -21.1571   -5.4848   24.9246 C   0  0  0  0  0  0  0  0  0  0  0  0
  -24.4205   -9.8412   20.5639 C   0  0  0  0  0  0  0  0  0  0  0  0
  -24.9547  -18.8747   17.4900 C   0  0  0  0  0  0  0  0  0  0  0  0
  -25.8448   -9.6593   18.4554 C   0  0  0  0  0  0  0  0  0  0  0  0
  -27.1858  -33.7724   26.0719 C   0  0  0  0  0  0  0  0  0  0  0  0
  -25.7876  -29.3132   20.4113 C   0  0  0  0  0  0  0  0  0  0  0  0
  -27.2787  -32.5735   25.3394 C   0  0  0  0  0  0  0  0  0  0  0  0
  -24.7408  -28.4093   20.6419 C   0  0  0  0  0  0  0  0  0  0  0  0
  -26.7882  -19.9334   18.6537 C   0  0  0  0  0  0  0  0  0  0  0  0
  -26.8087  -17.5456   18.2859 C   0  0  0  0  0  0  0  0  0  0  0  0
  -22.3552   -9.0581   22.2680 C   0  0  0  0  0  0  0  0  0  0  0  0
  -26.1348  -26.6010   19.8070 C   0  0  0  0  0  0  0  0  0  0  0  0
  -21.2042   -7.3233   23.3579 C   0  0  0  0  0  0  0  0  0  0  0  0
  -20.9138   -4.5976   23.8761 C   0  0  0  0  0  0  0  0  0  0  0  0
  -21.3023   -6.8477   24.6655 C   0  0  0  0  0  0  0  0  0  0  0  0
  -25.4870  -10.2464   19.6838 C   0  0  0  0  0  0  0  0  0  0  0  0
  -26.9107  -10.4056   18.0158 C   0  0  0  0  0  0  0  0  0  0  0  0
  -28.6370  -21.1778   19.8557 C   0  0  0  0  0  0  0  0  0  0  0  0
  -23.6802  -18.9680   16.8131 C   0  0  0  0  0  0  0  0  0  0  0  0
  -25.2654   -8.5396   17.7727 C   0  0  0  0  0  0  0  0  0  0  0  0
  -24.9594  -30.7234   23.1369 C   0  0  0  0  0  0  0  0  0  0  0  0
  -22.0579  -30.9214   21.7001 C   0  0  0  0  0  0  0  0  0  0  0  0
  -22.3950  -19.9617   14.9010 C   0  0  0  0  0  0  0  0  0  0  0  0
  -19.8951  -29.7018   19.3589 C   0  0  0  0  0  0  0  0  0  0  0  0
  -28.6645  -16.0233   19.0507 C   0  0  0  0  0  0  0  0  0  0  0  0
  -25.9132  -34.1771   26.7729 C   0  0  0  0  0  0  0  0  0  0  0  0
  -25.6068  -30.7781   20.7010 C   0  0  0  0  0  0  0  0  0  0  0  0
  -23.4199  -28.8544   21.2126 C   0  0  0  0  0  0  0  0  0  0  0  0
  -28.9220  -22.6376   20.1259 C   0  0  0  0  0  0  0  0  0  0  0  0
  -24.6772  -33.4387   26.2658 C   0  0  0  0  0  0  0  0  0  0  0  0
  -30.5484  -13.0609   19.6440 C   0  0  0  0  0  0  0  0  0  0  0  0
  -24.9576  -31.9436   26.1525 C   0  0  0  0  0  0  0  0  0  0  0  0
  -29.4977  -11.9489   19.6037 C   0  0  0  0  0  0  0  0  0  0  0  0
  -30.0024  -14.3340   20.2881 C   0  0  0  0  0  0  0  0  0  0  0  0
  -26.8375  -22.4296   18.9861 C   0  0  0  0  0  0  0  0  0  0  0  0
  -27.6977  -13.7216   19.6697 C   0  0  0  0  0  0  0  0  0  0  0  0
  -26.0818  -31.6678   25.1467 C   0  0  1  0  0  0  0  0  0  0  0  0
  -24.5219  -31.0527   21.7377 C   0  0  1  0  0  0  0  0  0  0  0  0
  -27.5545  -23.2957   20.0104 C   0  0  2  0  0  0  0  0  0  0  0  0
  -28.1810  -12.4404   18.9709 C   0  0  2  0  0  0  0  0  0  0  0  0
  -22.6304  -20.8716   13.7352 C   0  0  0  0  0  0  0  0  0  0  0  0
  -17.5835  -30.0448   18.4442 C   0  0  0  0  0  0  0  0  0  0  0  0
  -20.8829  -29.5642   24.1673 C   0  0  0  0  0  0  0  0  0  0  0  0
  -18.8198  -29.0817   22.8335 C   0  0  0  0  0  0  0  0  0  0  0  0
  -19.5067  -31.4425   23.2550 C   0  0  0  0  0  0  0  0  0  0  0  0
  -20.9303  -30.3126   16.6544 C   0  0  0  0  0  0  0  0  0  0  0  0
  -27.6264  -24.7592   19.6104 C   0  0  0  0  0  0  0  0  0  1  0  0
  -20.8373  -30.0359   21.6293 C   0  0  1  0  0  0  0  0  0  0  0  0
  -19.0559  -30.3984   18.3030 C   0  0  2  0  0  0  0  0  0  0  0  0
  -20.0371  -30.0221   22.9624 C   0  0  0  0  0  0  0  0  0  0  0  0
  -26.2627  -11.2855   20.0042 N   0  0  0  0  0  0  0  0  0  0  0  0
  -27.1187  -11.3571   18.9706 N   0  0  0  0  0  0  0  0  0  0  0  0
  -27.4063  -21.1085   19.1764 N   0  0  0  0  0  0  0  0  0  0  0  0
  -23.2941  -30.2957   21.4851 N   0  0  0  0  0  0  0  0  0  0  0  0
  -28.7570  -14.7422   19.6345 N   0  0  0  0  0  0  0  0  0  0  0  0
  -27.6811  -10.3342   16.9095 N   0  0  0  0  0  0  0  0  0  0  0  0
  -24.1754   -7.8871   18.3647 N   0  0  0  0  0  0  0  0  0  0  0  0
  -27.4440  -16.2873   18.4300 N   0  0  0  0  0  0  0  0  0  0  0  0
  -23.5740  -19.7363   15.7018 N   0  0  0  0  0  0  0  0  0  0  0  0
  -25.5836  -31.7680   23.7917 N   0  0  0  0  0  0  0  0  0  0  0  0
  -20.0690  -30.4914   20.4759 N   0  0  0  0  0  0  0  0  0  0  0  0
  -22.6290  -18.2838   17.3058 N   0  3  0  0  0  0  0  0  0  0  0  0
  -19.5058  -30.0015   16.9388 N   0  3  0  0  0  0  0  0  0  0  0  0
  -29.4219  -20.2899   20.1560 O   0  0  0  0  0  0  0  0  0  0  0  0
  -25.7117   -8.1196   16.6782 O   0  0  0  0  0  0  0  0  0  0  0  0
  -24.7453  -29.6050   23.5896 O   0  0  0  0  0  0  0  0  0  0  0  0
  -21.9191  -32.1253   21.9304 O   0  0  0  0  0  0  0  0  0  0  0  0
  -21.3187  -19.4474   15.1702 O   0  0  0  0  0  0  0  0  0  0  0  0
  -20.3477  -28.5690   19.2094 O   0  0  0  0  0  0  0  0  0  0  0  0
  -29.6087  -16.8169   19.0742 O   0  0  0  0  0  0  0  0  0  0  0  0
  -21.3472   -8.6762   23.0991 O   0  0  0  0  0  0  0  0  0  0  0  0
  -26.3016  -25.2816   19.5188 O   0  0  0  0  0  0  0  0  0  1  0  0
  -20.7729   -3.2890   24.1250 F   0  0  0  0  0  0  0  0  0  0  0  0
  -21.5347   -7.6954   25.6770 F   0  0  0  0  0  0  0  0  0  0  0  0
  1  2  1  0  0  0  0
  1  5  2  0  0  0  0
  2  6  2  0  0  0  0
  3  8  2  0  0  0  0
  3 18  1  0  0  0  0
  4  9  1  0  0  0  0
  4 18  2  0  0  0  0
  5 21  1  0  0  0  0
  6 23  1  0  0  0  0
  7 10  2  0  0  0  0
  7 22  1  0  0  0  0
  8 27  1  0  0  0  0
  9 27  2  0  0  0  0
 10 28  1  0  0  0  0
 11 12  2  0  0  0  0
 11 29  1  0  0  0  0
 12 30  1  0  0  0  0
 13 19  1  0  0  0  0
 13 25  2  0  0  0  0
 14 19  2  0  0  0  0
 14 26  1  0  0  0  0
 15 24  1  0  0  0  0
 15 28  2  0  0  0  0
 16 25  1  0  0  0  0
 16 26  2  0  0  0  0
 17 30  2  0  0  0  0
 17 31  1  0  0  0  0
 18 32  1  0  0  0  0
 19 35  1  0  0  0  0
 20 32  1  0  0  0  0
 20 33  2  0  0  0  0
 20 36  1  0  0  0  0
 21 23  2  0  0  0  0
 21 42  1  0  0  0  0
 22 24  2  0  0  0  0
 22 43  1  0  0  0  0
 23 53  1  0  0  0  0
 24 44  1  0  0  0  0
 25 69  1  0  0  0  0
 26 74  1  0  0  0  0
 27 87  1  0  0  0  0
 28 88  1  0  0  0  0
 29 31  2  0  0  0  0
 29 87  1  0  0  0  0
 30 89  1  0  0  0  0
 31 90  1  0  0  0  0
 32 67  2  0  0  0  0
 33 68  1  0  0  0  0
 33 72  1  0  0  0  0
 34 45  1  0  0  0  0
 34 69  1  0  0  0  0
 34 80  2  0  0  0  0
 35 75  1  0  0  0  0
 35 78  2  0  0  0  0
 36 73  1  0  0  0  0
 36 81  2  0  0  0  0
 37 54  1  0  0  0  0
 37 76  1  0  0  0  0
 37 82  2  0  0  0  0
 38 64  1  0  0  0  0
 38 70  1  0  0  0  0
 38 83  2  0  0  0  0
 39 57  1  0  0  0  0
 39 75  1  0  0  0  0
 39 84  2  0  0  0  0
 40 65  1  0  0  0  0
 40 77  1  0  0  0  0
 40 85  2  0  0  0  0
 41 71  1  0  0  0  0
 41 74  1  0  0  0  0
 41 86  2  0  0  0  0
 42 46  1  0  0  0  0
 43 54  1  0  0  0  0
 44 70  1  0  0  0  0
 45 55  1  0  0  0  0
 46 48  1  0  0  0  0
 47 49  1  0  0  0  0
 47 50  1  0  0  0  0
 48 53  1  0  0  0  0
 49 56  1  0  0  0  0
 50 71  1  0  0  0  0
 51 55  1  0  0  0  0
 51 69  1  0  0  0  0
 52 56  1  0  0  0  0
 52 71  1  0  0  0  0
 53 76  1  0  0  0  0
 54 70  1  0  0  0  0
 55 63  1  0  0  0  0
 56 68  1  0  0  0  0
 58 65  1  0  0  0  0
 59 66  1  0  0  0  0
 60 66  1  0  0  0  0
 61 66  1  0  0  0  0
 62 79  1  0  0  0  0
 63 88  1  0  0  0  0
 64 66  1  0  0  0  0
 64 77  1  0  0  0  0
 65 79  1  0  0  0  0
 67 68  1  0  0  0  0
M  CHG  2  78   1  79   1
M  ISO  4  41 100  63 101  74 100  88 101
M  END
> <Batch ID>
0069

> <Smiles>
CNC(C)C(=O)NC(C(=O)N1Cc2cc([101O:1][101CH2:1]C3CC(=O)N(c4cc([100NH:0][100C:0](=O)N5CCCC(n6nc(-c7ccc(Oc8ccc(F)cc8F)cc7)c(C(N)=O)c6N)C5)cc(C(=N)NC(C)=O)c4)C3)ccc2CC1C(=O)NC1CCCc2ccccc21)C(C)(C)C

> <Shape>
0.294

> <Color>
0.102

> <Negative vol penalty>
0.000

$$$$

  -OEChem-04042323303D

 85 93  0     1  0  0  0  0  0999 V2000
  -29.2520  -31.1413   28.3123 C   0  0  0  0  0  0  0  0  0  0  0  0
  -29.8531  -29.8867   28.3084 C   0  0  0  0  0  0  0  0  0  0  0  0
  -23.0007   -9.8934   19.9817 C   0  0  0  0  0  0  0  0  0  0  0  0
  -23.7250   -9.9460   22.2859 C   0  0  0  0  0  0  0  0  0  0  0  0
  -32.6488  -17.4449   23.4520 C   0  0  0  0  0  0  0  0  0  0  0  0
  -27.8944  -31.2616   28.6063 C   0  0  0  0  0  0  0  0  0  0  0  0
  -29.0972  -28.7517   28.5998 C   0  0  0  0  0  0  0  0  0  0  0  0
  -30.0155  -24.9328   25.4033 C   0  0  0  0  0  0  0  0  0  0  0  0
  -32.0577  -16.5491   22.5611 C   0  0  0  0  0  0  0  0  0  0  0  0
  -22.2339   -8.7592   20.2485 C   0  0  0  0  0  0  0  0  0  0  0  0
  -22.9581   -8.8118   22.5528 C   0  0  0  0  0  0  0  0  0  0  0  0
  -31.1831  -24.1986   25.6071 C   0  0  0  0  0  0  0  0  0  0  0  0
  -23.2023   -5.4725   22.0835 C   0  0  0  0  0  0  0  0  0  0  0  0
  -23.7894   -4.4558   22.8366 C   0  0  0  0  0  0  0  0  0  0  0  0
  -29.9016  -22.4783   26.7106 C   0  0  0  0  0  0  0  0  0  0  0  0
  -22.0649   -4.7001   24.5109 C   0  0  0  0  0  0  0  0  0  0  0  0
  -23.7462  -10.4868   21.0004 C   0  0  0  0  0  0  0  0  0  0  0  0
  -31.8563  -18.3438   24.1659 C   0  0  0  0  0  0  0  0  0  0  0  0
  -24.1319  -13.0022   20.8226 C   0  0  0  0  0  0  0  0  0  0  0  0
  -27.1194  -30.1266   28.8920 C   0  0  0  0  0  0  0  0  0  0  0  0
  -28.7817  -24.4495   25.8620 C   0  0  0  0  0  0  0  0  0  0  0  0
  -27.7283  -28.8571   28.8992 C   0  0  0  0  0  0  0  0  0  0  0  0
  -28.7195  -23.2071   26.5090 C   0  0  0  0  0  0  0  0  0  0  0  0
  -30.6741  -16.5523   22.3839 C   0  0  0  0  0  0  0  0  0  0  0  0
  -30.4727  -18.3470   23.9887 C   0  0  0  0  0  0  0  0  0  0  0  0
  -22.2126   -8.2184   21.5341 C   0  0  0  0  0  0  0  0  0  0  0  0
  -31.1267  -22.9726   26.2634 C   0  0  0  0  0  0  0  0  0  0  0  0
  -22.0465   -6.1031   22.5441 C   0  0  0  0  0  0  0  0  0  0  0  0
  -23.2207   -4.0696   24.0503 C   0  0  0  0  0  0  0  0  0  0  0  0
  -21.4778   -5.7169   23.7578 C   0  0  0  0  0  0  0  0  0  0  0  0
  -29.8816  -17.4512   23.0978 C   0  0  0  0  0  0  0  0  0  0  0  0
  -24.5390  -11.6581   20.7252 C   0  0  0  0  0  0  0  0  0  0  0  0
  -25.2419  -13.7244   20.4581 C   0  0  0  0  0  0  0  0  0  0  0  0
  -32.5065  -19.2818   25.1029 C   0  0  0  0  0  0  0  0  0  0  0  0
  -22.8639  -13.5490   21.2083 C   0  0  0  0  0  0  0  0  0  0  0  0
  -26.6093  -25.4667   27.9477 C   0  0  0  0  0  0  0  0  0  0  0  0
  -24.9179  -22.9348   26.8291 C   0  0  0  0  0  0  0  0  0  0  0  0
  -24.9415  -19.8733   25.3213 C   0  0  0  0  0  0  0  0  0  0  0  0
  -30.7214  -14.6850   20.6935 C   0  0  0  0  0  0  0  0  0  0  0  0
  -25.6661  -30.3113   29.2503 C   0  0  0  0  0  0  0  0  0  0  0  0
  -27.5276  -25.2410   25.6106 C   0  0  0  0  0  0  0  0  0  0  0  0
  -27.4169  -22.6344   27.0029 C   0  0  0  0  0  0  0  0  0  0  0  0
  -24.8528  -29.0214   29.1808 C   0  0  0  0  0  0  0  0  0  0  0  0
  -29.6037  -12.2306   18.3690 C   0  0  0  0  0  0  0  0  0  0  0  0
  -25.5958  -27.8839   29.8743 C   0  0  0  0  0  0  0  0  0  0  0  0
  -28.1529  -11.9734   18.7828 C   0  0  0  0  0  0  0  0  0  0  0  0
  -30.5038  -12.4748   19.5789 C   0  0  0  0  0  0  0  0  0  0  0  0
  -28.5880  -13.2648   20.9111 C   0  0  0  0  0  0  0  0  0  0  0  0
  -26.9363  -27.5999   29.1859 C   0  0  1  0  0  0  0  0  0  0  0  0
  -26.3980  -24.8930   26.5751 C   0  0  1  0  0  0  0  0  0  0  0  0
  -27.6308  -13.0777   19.7227 C   0  0  2  0  0  0  0  0  0  0  0  0
  -23.4072  -18.0332   24.5750 C   0  0  0  0  0  0  0  0  0  0  0  0
  -35.4916  -21.3451   24.8287 C   0  0  0  0  0  0  0  0  0  0  0  0
  -24.6079  -22.0225   29.7241 C   0  0  0  0  0  0  0  0  0  0  0  0
  -23.9313  -19.7690   28.8684 C   0  0  0  0  0  0  0  0  0  0  0  0
  -22.5494  -21.7737   28.3258 C   0  0  0  0  0  0  0  0  0  0  0  0
  -25.7615  -20.1786   22.4940 C   0  0  0  0  0  0  0  0  0  0  0  0
  -33.3048  -22.4015   25.4981 C   0  0  0  0  0  0  0  0  0  1  0  0
  -24.7975  -21.4783   27.2074 C   0  0  1  0  0  0  0  0  0  0  0  0
  -24.1263  -19.3108   24.1709 C   0  0  2  0  0  0  0  0  0  0  0  0
  -34.1217  -21.1175   25.4463 C   0  0  1  0  0  0  0  0  0  0  0  0
  -23.9965  -21.2723   28.5240 C   0  0  0  0  0  0  0  0  0  0  0  0
  -25.8084  -11.5312   20.3296 N   0  0  0  0  0  0  0  0  0  0  0  0
  -26.2086  -12.8048   20.1752 N   0  0  0  0  0  0  0  0  0  0  0  0
  -26.2192  -23.4489   26.7388 N   0  0  0  0  0  0  0  0  0  0  0  0
  -29.9486  -13.5364   20.4212 N   0  0  0  0  0  0  0  0  0  0  0  0
  -29.6567  -19.2511   24.7042 N   0  0  0  0  0  0  0  0  0  0  0  0
  -25.4756  -15.0500   20.3552 N   0  0  0  0  0  0  0  0  0  0  0  0
  -32.1607  -19.2255   26.3891 N   0  0  0  0  0  0  0  0  0  0  0  0
  -21.8318  -12.6653   21.5520 N   0  0  0  0  0  0  0  0  0  0  0  0
  -30.0769  -15.6409   21.4781 N   0  0  0  0  0  0  0  0  0  0  0  0
  -26.7296  -26.8431   27.9698 N   0  0  0  0  0  0  0  0  0  0  0  0
  -24.2263  -20.8013   26.0482 N   0  0  0  0  0  0  0  0  0  0  0  0
  -33.4057  -20.1397   24.6140 N   0  3  0  0  0  0  0  0  0  0  0  0
  -25.0100  -19.0057   23.0103 N   0  3  0  0  0  0  0  0  0  0  0  0
  -22.6473  -14.7844   21.2310 O   0  0  0  0  0  0  0  0  0  0  0  0
  -26.6581  -24.7162   28.9152 O   0  0  0  0  0  0  0  0  0  0  0  0
  -23.8953  -23.5904   26.6143 O   0  0  0  0  0  0  0  0  0  0  0  0
  -26.0959  -19.5217   25.5541 O   0  0  0  0  0  0  0  0  0  0  0  0
  -31.8602  -14.8235   20.2399 O   0  0  0  0  0  0  0  0  0  0  0  0
  -21.4643   -7.1118   21.7949 O   0  0  0  0  0  0  0  0  0  0  0  0
  -32.2649  -22.2543   26.4642 O   0  0  0  0  0  0  0  0  0  1  0  0
  -23.7838   -3.0921   24.7726 F   0  0  0  0  0  0  0  0  0  0  0  0
  -20.3668   -6.3182   24.2050 F   0  0  0  0  0  0  0  0  0  0  0  0
  -28.5505  -17.4539   22.9270 F   0  0  0  0  0  0  0  0  0  0  0  0
  1  2  1  0  0  0  0
  1  6  2  0  0  0  0
  2  7  2  0  0  0  0
  3 10  2  0  0  0  0
  3 17  1  0  0  0  0
  4 11  1  0  0  0  0
  4 17  2  0  0  0  0
  5  9  2  0  0  0  0
  5 18  1  0  0  0  0
  6 20  1  0  0  0  0
  7 22  1  0  0  0  0
  8 12  2  0  0  0  0
  8 21  1  0  0  0  0
  9 24  1  0  0  0  0
 10 26  1  0  0  0  0
 11 26  2  0  0  0  0
 12 27  1  0  0  0  0
 13 14  2  0  0  0  0
 13 28  1  0  0  0  0
 14 29  1  0  0  0  0
 15 23  1  0  0  0  0
 15 27  2  0  0  0  0
 16 29  2  0  0  0  0
 16 30  1  0  0  0  0
 17 32  1  0  0  0  0
 18 25  2  0  0  0  0
 18 34  1  0  0  0  0
 19 32  1  0  0  0  0
 19 33  2  0  0  0  0
 19 35  1  0  0  0  0
 20 22  2  0  0  0  0
 20 40  1  0  0  0  0
 21 23  2  0  0  0  0
 21 41  1  0  0  0  0
 22 49  1  0  0  0  0
 23 42  1  0  0  0  0
 24 31  2  0  0  0  0
 24 71  1  0  0  0  0
 25 31  1  0  0  0  0
 25 67  1  0  0  0  0
 26 81  1  0  0  0  0
 27 82  1  0  0  0  0
 28 30  2  0  0  0  0
 28 81  1  0  0  0  0
 29 83  1  0  0  0  0
 30 84  1  0  0  0  0
 31 85  1  0  0  0  0
 32 63  2  0  0  0  0
 33 64  1  0  0  0  0
 33 68  1  0  0  0  0
 34 69  1  0  0  0  0
 34 74  2  0  0  0  0
 35 70  1  0  0  0  0
 35 76  2  0  0  0  0
 36 50  1  0  0  0  0
 36 72  1  0  0  0  0
 36 77  2  0  0  0  0
 37 59  1  0  0  0  0
 37 65  1  0  0  0  0
 37 78  2  0  0  0  0
 38 60  1  0  0  0  0
 38 73  1  0  0  0  0
 38 79  2  0  0  0  0
 39 66  1  0  0  0  0
 39 71  1  0  0  0  0
 39 80  2  0  0  0  0
 40 43  1  0  0  0  0
 41 50  1  0  0  0  0
 42 65  1  0  0  0  0
 43 45  1  0  0  0  0
 44 46  1  0  0  0  0
 44 47  1  0  0  0  0
 45 49  1  0  0  0  0
 46 51  1  0  0  0  0
 47 66  1  0  0  0  0
 48 51  1  0  0  0  0
 48 66  1  0  0  0  0
 49 72  1  0  0  0  0
 50 65  1  0  0  0  0
 51 64  1  0  0  0  0
 52 60  1  0  0  0  0
 53 61  1  0  0  0  0
 54 62  1  0  0  0  0
 55 62  1  0  0  0  0
 56 62  1  0  0  0  0
 57 75  1  0  0  0  0
 58 61  1  0  0  0  0
 58 82  1  0  0  0  0
 59 62  1  0  0  0  0
 59 73  1  0  0  0  0
 60 75  1  0  0  0  0
 61 74  1  0  0  0  0
 63 64  1  0  0  0  0
M  CHG  2  74   1  75   1
M  ISO  4  39 100  58 101  71 100  82 101
M  END
> <Batch ID>
0069

> <Smiles>
CNC(C)C(=O)NC(C(=O)N1Cc2cc([101O:1][101CH2:1]C(C)NC(=N)c3ccc([100NH:0][100C:0](=O)N4CCCC(n5nc(-c6ccc(Oc7ccc(F)cc7F)cc6)c(C(N)=O)c5N)C4)c(F)c3N)ccc2CC1C(=O)NC1CCCc2ccccc21)C(C)(C)C

> <Shape>
0.174

> <Color>
0.186

> <Negative vol penalty>
0.000

$$$$

  -OEChem-04042323303D

 83 91  0     1  0  0  0  0  0999 V2000
  -23.0777  -27.9744   18.5619 C   0  0  0  0  0  0  0  0  0  0  0  0
  -23.7045  -26.9237   19.2241 C   0  0  0  0  0  0  0  0  0  0  0  0
  -23.0742   -9.7811   20.0753 C   0  0  0  0  0  0  0  0  0  0  0  0
  -23.6551  -10.1024   22.3983 C   0  0  0  0  0  0  0  0  0  0  0  0
  -23.2350  -29.2806   19.0233 C   0  0  0  0  0  0  0  0  0  0  0  0
  -24.4901  -27.1789   20.3477 C   0  0  0  0  0  0  0  0  0  0  0  0
  -23.5930  -23.9269   24.1245 C   0  0  0  0  0  0  0  0  0  0  0  0
  -22.3157   -8.6623   20.4197 C   0  0  0  0  0  0  0  0  0  0  0  0
  -22.8966   -8.9836   22.7427 C   0  0  0  0  0  0  0  0  0  0  0  0
  -24.1639  -22.6591   24.0222 C   0  0  0  0  0  0  0  0  0  0  0  0
  -23.2366   -5.6208   22.6577 C   0  0  0  0  0  0  0  0  0  0  0  0
  -23.7972   -4.7078   23.5509 C   0  0  0  0  0  0  0  0  0  0  0  0
  -25.9278  -23.3390   25.5207 C   0  0  0  0  0  0  0  0  0  0  0  0
  -29.5949  -17.8126   22.7392 C   0  0  0  0  0  0  0  0  0  0  0  0
  -31.8193  -16.9199   22.4364 C   0  0  0  0  0  0  0  0  0  0  0  0
  -21.9690   -5.0857   25.0845 C   0  0  0  0  0  0  0  0  0  0  0  0
  -23.7439  -10.5011   21.0646 C   0  0  0  0  0  0  0  0  0  0  0  0
  -24.0886  -12.9919   20.6348 C   0  0  0  0  0  0  0  0  0  0  0  0
  -24.0150  -29.5508   20.1588 C   0  0  0  0  0  0  0  0  0  0  0  0
  -24.1922  -24.9154   24.9184 C   0  0  0  0  0  0  0  0  0  0  0  0
  -24.6591  -28.4901   20.8239 C   0  0  0  0  0  0  0  0  0  0  0  0
  -25.3611  -24.6178   25.6334 C   0  0  0  0  0  0  0  0  0  0  0  0
  -30.4498  -16.8645   22.1774 C   0  0  0  0  0  0  0  0  0  0  0  0
  -30.1095  -18.8163   23.5600 C   0  0  0  0  0  0  0  0  0  0  0  0
  -22.2269   -8.2635   21.7534 C   0  0  0  0  0  0  0  0  0  0  0  0
  -25.3330  -22.3659   24.7181 C   0  0  0  0  0  0  0  0  0  0  0  0
  -22.0423   -6.2664   22.9780 C   0  0  0  0  0  0  0  0  0  0  0  0
  -23.1633   -4.4402   24.7643 C   0  0  0  0  0  0  0  0  0  0  0  0
  -32.3339  -17.9235   23.2571 C   0  0  0  0  0  0  0  0  0  0  0  0
  -21.4085   -5.9988   24.1913 C   0  0  0  0  0  0  0  0  0  0  0  0
  -31.4790  -18.8717   23.8189 C   0  0  0  0  0  0  0  0  0  0  0  0
  -24.5281  -11.6566   20.7094 C   0  0  0  0  0  0  0  0  0  0  0  0
  -25.2039  -13.6999   20.2589 C   0  0  0  0  0  0  0  0  0  0  0  0
  -22.7886  -13.5431   20.8833 C   0  0  0  0  0  0  0  0  0  0  0  0
  -25.4504  -27.7810   24.3629 C   0  0  0  0  0  0  0  0  0  0  0  0
  -25.6598  -27.8857   27.5982 C   0  0  0  0  0  0  0  0  0  0  0  0
  -27.8604  -19.8661   23.9767 C   0  0  0  0  0  0  0  0  0  0  0  0
  -25.8394  -26.1765   30.5466 C   0  0  0  0  0  0  0  0  0  0  0  0
  -30.6382  -14.8271   20.7078 C   0  0  0  0  0  0  0  0  0  0  0  0
  -24.1941  -30.9843   20.5921 C   0  0  0  0  0  0  0  0  0  0  0  0
  -23.5492  -26.2697   25.0394 C   0  0  0  0  0  0  0  0  0  0  0  0
  -26.0325  -25.6376   26.5153 C   0  0  0  0  0  0  0  0  0  0  0  0
  -24.7388  -31.1282   22.0108 C   0  0  0  0  0  0  0  0  0  0  0  0
  -29.7147  -12.1062   18.6052 C   0  0  0  0  0  0  0  0  0  0  0  0
  -25.9211  -30.1888   22.2267 C   0  0  0  0  0  0  0  0  0  0  0  0
  -28.2469  -11.8565   18.9590 C   0  0  0  0  0  0  0  0  0  0  0  0
  -30.5340  -12.5040   19.8316 C   0  0  0  0  0  0  0  0  0  0  0  0
  -28.5248  -13.3820   20.9546 C   0  0  0  0  0  0  0  0  0  0  0  0
  -25.4991  -28.7239   22.0608 C   0  0  1  0  0  0  0  0  0  0  0  0
  -24.5267  -27.3589   25.4703 C   0  0  1  0  0  0  0  0  0  0  0  0
  -27.6460  -13.0417   19.7399 C   0  0  2  0  0  0  0  0  0  0  0  0
  -26.0408  -26.5348   33.0222 C   0  0  0  0  0  0  0  0  0  0  0  0
  -28.6212  -28.5383   27.2604 C   0  0  0  0  0  0  0  0  0  0  0  0
  -28.9544  -27.9495   29.6709 C   0  0  0  0  0  0  0  0  0  0  0  0
  -27.4615  -29.8482   29.0475 C   0  0  0  0  0  0  0  0  0  0  0  0
  -23.2486  -24.8440   31.0674 C   0  0  0  0  0  0  0  0  0  0  0  0
  -27.3105  -21.0453   24.7575 C   0  0  0  0  0  0  0  0  0  1  0  0
  -26.6971  -27.4772   28.6161 C   0  0  1  0  0  0  0  0  0  0  0  0
  -25.0862  -26.3417   31.8542 C   0  0  2  0  0  0  0  0  0  0  0  0
  -27.9222  -28.4345   28.6307 C   0  0  0  0  0  0  0  0  0  0  0  0
  -25.8216  -11.5216   20.4051 N   0  0  0  0  0  0  0  0  0  0  0  0
  -26.2045  -12.7813   20.1356 N   0  0  0  0  0  0  0  0  0  0  0  0
  -25.3690  -26.9493   26.5959 N   0  0  0  0  0  0  0  0  0  0  0  0
  -29.9069  -13.6354   20.5184 N   0  0  0  0  0  0  0  0  0  0  0  0
  -25.4165  -15.0123   20.0250 N   0  0  0  0  0  0  0  0  0  0  0  0
  -21.7556  -12.6744   21.2609 N   0  0  0  0  0  0  0  0  0  0  0  0
  -29.2398  -19.7767   24.1291 N   0  0  0  0  0  0  0  0  0  0  0  0
  -29.9277  -15.8446   21.3437 N   0  0  0  0  0  0  0  0  0  0  0  0
  -24.8015  -28.2620   23.2417 N   0  0  0  0  0  0  0  0  0  0  0  0
  -25.9993  -27.3804   29.8937 N   0  0  0  0  0  0  0  0  0  0  0  0
  -24.2491  -25.1389   32.1253 N   0  3  0  0  0  0  0  0  0  0  0  0
  -22.5460  -14.7674   20.7576 O   0  0  0  0  0  0  0  0  0  0  0  0
  -26.6621  -27.6793   24.5149 O   0  0  0  0  0  0  0  0  0  0  0  0
  -25.1221  -28.9918   27.6931 O   0  0  0  0  0  0  0  0  0  0  0  0
  -27.1284  -19.1323   23.3208 O   0  0  0  0  0  0  0  0  0  0  0  0
  -26.2485  -25.0888   30.1464 O   0  0  0  0  0  0  0  0  0  0  0  0
  -31.7996  -14.9461   20.3091 O   0  0  0  0  0  0  0  0  0  0  0  0
  -21.4867   -7.1720   22.0898 O   0  0  0  0  0  0  0  0  0  0  0  0
  -25.8927  -21.1294   24.6195 O   0  0  0  0  0  0  0  0  0  1  0  0
  -23.7009   -3.5622   25.6212 F   0  0  0  0  0  0  0  0  0  0  0  0
  -33.6489  -17.9769   23.5054 F   0  0  0  0  0  0  0  0  0  0  0  0
  -20.2602   -6.6150   24.5040 F   0  0  0  0  0  0  0  0  0  0  0  0
  -31.9846  -19.8320   24.6058 F   0  0  0  0  0  0  0  0  0  0  0  0
  1  2  1  0  0  0  0
  1  5  2  0  0  0  0
  2  6  2  0  0  0  0
  3  8  2  0  0  0  0
  3 17  1  0  0  0  0
  4  9  1  0  0  0  0
  4 17  2  0  0  0  0
  5 19  1  0  0  0  0
  6 21  1  0  0  0  0
  7 10  2  0  0  0  0
  7 20  1  0  0  0  0
  8 25  1  0  0  0  0
  9 25  2  0  0  0  0
 10 26  1  0  0  0  0
 11 12  2  0  0  0  0
 11 27  1  0  0  0  0
 12 28  1  0  0  0  0
 13 22  1  0  0  0  0
 13 26  2  0  0  0  0
 14 23  2  0  0  0  0
 14 24  1  0  0  0  0
 15 23  1  0  0  0  0
 15 29  2  0  0  0  0
 16 28  2  0  0  0  0
 16 30  1  0  0  0  0
 17 32  1  0  0  0  0
 18 32  1  0  0  0  0
 18 33  2  0  0  0  0
 18 34  1  0  0  0  0
 19 21  2  0  0  0  0
 19 40  1  0  0  0  0
 20 22  2  0  0  0  0
 20 41  1  0  0  0  0
 21 49  1  0  0  0  0
 22 42  1  0  0  0  0
 23 68  1  0  0  0  0
 24 31  2  0  0  0  0
 24 67  1  0  0  0  0
 25 78  1  0  0  0  0
 26 79  1  0  0  0  0
 27 30  2  0  0  0  0
 27 78  1  0  0  0  0
 28 80  1  0  0  0  0
 29 31  1  0  0  0  0
 29 81  1  0  0  0  0
 30 82  1  0  0  0  0
 31 83  1  0  0  0  0
 32 61  2  0  0  0  0
 33 62  1  0  0  0  0
 33 65  1  0  0  0  0
 34 66  1  0  0  0  0
 34 72  2  0  0  0  0
 35 50  1  0  0  0  0
 35 69  1  0  0  0  0
 35 73  2  0  0  0  0
 36 58  1  0  0  0  0
 36 63  1  0  0  0  0
 36 74  2  0  0  0  0
 37 57  1  0  0  0  0
 37 67  1  0  0  0  0
 37 75  2  0  0  0  0
 38 59  1  0  0  0  0
 38 70  1  0  0  0  0
 38 76  2  0  0  0  0
 39 64  1  0  0  0  0
 39 68  1  0  0  0  0
 39 77  2  0  0  0  0
 40 43  1  0  0  0  0
 41 50  1  0  0  0  0
 42 63  1  0  0  0  0
 43 45  1  0  0  0  0
 44 46  1  0  0  0  0
 44 47  1  0  0  0  0
 45 49  1  0  0  0  0
 46 51  1  0  0  0  0
 47 64  1  0  0  0  0
 48 51  1  0  0  0  0
 48 64  1  0  0  0  0
 49 69  1  0  0  0  0
 50 63  1  0  0  0  0
 51 62  1  0  0  0  0
 52 59  1  0  0  0  0
 53 60  1  0  0  0  0
 54 60  1  0  0  0  0
 55 60  1  0  0  0  0
 56 71  1  0  0  0  0
 57 79  1  0  0  0  0
 58 60  1  0  0  0  0
 58 70  1  0  0  0  0
 59 71  1  0  0  0  0
 61 62  1  0  0  0  0
M  CHG  1  71   1
M  ISO  4  39 100  57 101  68 100  79 101
M  END
> <Batch ID>
0069

> <Smiles>
CNC(C)C(=O)NC(C(=O)N1Cc2cc([101O:1][101CH2:1]C(=O)Nc3cc([100NH:0][100C:0](=O)N4CCCC(n5nc(-c6ccc(Oc7ccc(F)cc7F)cc6)c(C(N)=O)c5N)C4)cc(F)c3F)ccc2CC1C(=O)NC1CCCc2ccccc21)C(C)(C)C

> <Shape>
0.224

> <Color>
0.205

> <Negative vol penalty>
0.000

$$$$

  -OEChem-04042323303D

 87 96  0     1  0  0  0  0  0999 V2000
  -17.8756  -15.2112   23.9427 C   0  0  0  0  0  0  0  0  0  0  0  0
  -19.0994  -15.8582   23.8043 C   0  0  0  0  0  0  0  0  0  0  0  0
  -23.0763   -9.8671   19.9412 C   0  0  0  0  0  0  0  0  0  0  0  0
  -23.8338   -9.8764   22.2354 C   0  0  0  0  0  0  0  0  0  0  0  0
  -16.6993  -15.9558   24.0182 C   0  0  0  0  0  0  0  0  0  0  0  0
  -19.1475  -17.2503   23.7401 C   0  0  0  0  0  0  0  0  0  0  0  0
  -22.8185  -19.2028   26.6308 C   0  0  0  0  0  0  0  0  0  0  0  0
  -22.3319   -8.7143   20.1916 C   0  0  0  0  0  0  0  0  0  0  0  0
  -23.0894   -8.7236   22.4858 C   0  0  0  0  0  0  0  0  0  0  0  0
  -24.1199  -19.1422   26.1344 C   0  0  0  0  0  0  0  0  0  0  0  0
  -21.1026   -5.9883   23.8233 C   0  0  0  0  0  0  0  0  0  0  0  0
  -20.3451   -5.9461   24.9938 C   0  0  0  0  0  0  0  0  0  0  0  0
  -23.9540  -21.4450   25.4352 C   0  0  0  0  0  0  0  0  0  0  0  0
  -29.8771  -17.4593   23.1378 C   0  0  0  0  0  0  0  0  0  0  0  0
  -32.0618  -16.6100   22.5521 C   0  0  0  0  0  0  0  0  0  0  0  0
  -19.1016   -7.8828   24.2588 C   0  0  0  0  0  0  0  0  0  0  0  0
  -23.8272  -10.4481   20.9631 C   0  0  0  0  0  0  0  0  0  0  0  0
  -24.1696  -12.9731   20.8407 C   0  0  0  0  0  0  0  0  0  0  0  0
  -16.7338  -17.3582   23.9646 C   0  0  0  0  0  0  0  0  0  0  0  0
  -22.0699  -20.3836   26.5231 C   0  0  0  0  0  0  0  0  0  0  0  0
  -17.9704  -18.0143   23.8136 C   0  0  0  0  0  0  0  0  0  0  0  0
  -22.6442  -21.5187   25.9333 C   0  0  0  0  0  0  0  0  0  0  0  0
  -31.8492  -18.3622   24.2018 C   0  0  0  0  0  0  0  0  0  0  0  0
  -30.4636  -18.3443   24.0424 C   0  0  0  0  0  0  0  0  0  0  0  0
  -30.6762  -16.5921   22.3927 C   0  0  0  0  0  0  0  0  0  0  0  0
  -22.3385   -8.1426   21.4639 C   0  0  0  0  0  0  0  0  0  0  0  0
  -24.6869  -20.2625   25.5339 C   0  0  0  0  0  0  0  0  0  0  0  0
  -20.8597   -6.9778   22.8706 C   0  0  0  0  0  0  0  0  0  0  0  0
  -19.3446   -6.8933   25.2115 C   0  0  0  0  0  0  0  0  0  0  0  0
  -32.6483  -17.4950   23.4567 C   0  0  0  0  0  0  0  0  0  0  0  0
  -19.8592   -7.9250   23.0884 C   0  0  0  0  0  0  0  0  0  0  0  0
  -24.5968  -11.6386   20.7049 C   0  0  0  0  0  0  0  0  0  0  0  0
  -25.2622  -13.7220   20.4778 C   0  0  0  0  0  0  0  0  0  0  0  0
  -28.5422  -20.3557   26.4926 C   0  0  0  0  0  0  0  0  0  0  0  0
  -29.5274  -19.2780   26.1928 C   0  0  0  0  0  0  0  0  0  0  0  0
  -28.0829  -20.5595   27.7308 C   0  0  0  0  0  0  0  0  0  0  0  0
  -22.8988  -13.4896   21.2578 C   0  0  0  0  0  0  0  0  0  0  0  0
  -19.3595  -21.1972   25.0755 C   0  0  0  0  0  0  0  0  0  0  0  0
  -19.8219  -24.0018   26.6385 C   0  0  0  0  0  0  0  0  0  0  0  0
  -22.0029  -26.1628   28.1284 C   0  0  0  0  0  0  0  0  0  0  0  0
  -30.7284  -14.7669   20.6571 C   0  0  0  0  0  0  0  0  0  0  0  0
  -15.4318  -18.1183   24.0026 C   0  0  0  0  0  0  0  0  0  0  0  0
  -20.6769  -20.4408   27.0875 C   0  0  0  0  0  0  0  0  0  0  0  0
  -21.8899  -22.8166   25.8113 C   0  0  0  0  0  0  0  0  0  0  0  0
  -15.6031  -19.6051   24.3037 C   0  0  0  0  0  0  0  0  0  0  0  0
  -29.6161  -12.3507   18.2902 C   0  0  0  0  0  0  0  0  0  0  0  0
  -16.7232  -20.1963   23.4537 C   0  0  0  0  0  0  0  0  0  0  0  0
  -28.1759  -12.0598   18.7186 C   0  0  0  0  0  0  0  0  0  0  0  0
  -30.5300  -12.5807   19.4926 C   0  0  0  0  0  0  0  0  0  0  0  0
  -28.6869  -20.1255   24.1501 C   0  0  0  0  0  0  0  0  0  0  0  0
  -28.6217  -13.3069   20.8711 C   0  0  0  0  0  0  0  0  0  0  0  0
  -18.0657  -19.5239   23.7652 C   0  0  1  0  0  0  0  0  0  0  0  0
  -28.1867  -21.0816   25.2314 C   0  0  1  0  0  0  0  0  0  0  0  0
  -19.8237  -21.5404   26.4627 C   0  0  1  0  0  0  0  0  0  0  0  0
  -27.6501  -13.1326   19.6924 C   0  0  2  0  0  0  0  0  0  0  0  0
  -32.5017  -19.3021   25.1634 C   0  0  0  0  0  0  0  0  0  0  0  0
  -22.0909  -28.3901   29.2811 C   0  0  0  0  0  0  0  0  0  0  0  0
  -19.5489  -25.4049   23.9428 C   0  0  0  0  0  0  0  0  0  0  0  0
  -20.5693  -27.4430   24.9789 C   0  0  0  0  0  0  0  0  0  0  0  0
  -18.4014  -26.5600   25.8411 C   0  0  0  0  0  0  0  0  0  0  0  0
  -23.0222  -24.9573   30.6318 C   0  0  0  0  0  0  0  0  0  0  0  0
  -26.7108  -21.4173   25.0585 C   0  0  0  0  0  0  0  0  0  1  0  0
  -20.5358  -25.2947   26.3261 C   0  0  1  0  0  0  0  0  0  0  0  0
  -21.9510  -26.8866   29.4618 C   0  0  2  0  0  0  0  0  0  0  0  0
  -19.7776  -26.1508   25.2726 C   0  0  0  0  0  0  0  0  0  0  0  0
  -25.8620  -11.5421   20.2880 N   0  0  0  0  0  0  0  0  0  0  0  0
  -26.2393  -12.8255   20.1587 N   0  0  0  0  0  0  0  0  0  0  0  0
  -29.6280  -19.2249   24.7966 N   0  0  0  0  0  0  0  0  0  0  0  0
  -20.5288  -22.8205   26.3726 N   0  0  0  0  0  0  0  0  0  0  0  0
  -29.9703  -13.6125   20.3683 N   0  0  0  0  0  0  0  0  0  0  0  0
  -25.4729  -15.0534   20.4036 N   0  0  0  0  0  0  0  0  0  0  0  0
  -21.8863  -12.5809   21.5949 N   0  0  0  0  0  0  0  0  0  0  0  0
  -30.0804  -15.6929   21.4738 N   0  0  0  0  0  0  0  0  0  0  0  0
  -18.6128  -20.0368   25.0030 N   0  0  0  0  0  0  0  0  0  0  0  0
  -20.7426  -25.9661   27.6047 N   0  0  0  0  0  0  0  0  0  0  0  0
  -23.0510  -26.4156   30.3501 N   0  3  0  0  0  0  0  0  0  0  0  0
  -30.0820  -18.6173   27.0556 O   0  0  0  0  0  0  0  0  0  0  0  0
  -22.6626  -14.7203   21.3135 O   0  0  0  0  0  0  0  0  0  0  0  0
  -19.6557  -21.9317   24.1403 O   0  0  0  0  0  0  0  0  0  0  0  0
  -18.6818  -24.0387   27.1080 O   0  0  0  0  0  0  0  0  0  0  0  0
  -23.0563  -25.8107   27.6022 O   0  0  0  0  0  0  0  0  0  0  0  0
  -31.8580  -14.9349   20.1904 O   0  0  0  0  0  0  0  0  0  0  0  0
  -21.6121   -7.0179   21.7087 O   0  0  0  0  0  0  0  0  0  0  0  0
  -25.9567  -20.2059   25.0480 O   0  0  0  0  0  0  0  0  0  1  0  0
  -18.6162   -6.8517   26.3349 F   0  0  0  0  0  0  0  0  0  0  0  0
  -33.9809  -17.5054   23.6012 F   0  0  0  0  0  0  0  0  0  0  0  0
  -19.6204   -8.8773   22.1762 F   0  0  0  0  0  0  0  0  0  0  0  0
  1  2  1  0  0  0  0
  1  5  2  0  0  0  0
  2  6  2  0  0  0  0
  3  8  2  0  0  0  0
  3 17  1  0  0  0  0
  4  9  1  0  0  0  0
  4 17  2  0  0  0  0
  5 19  1  0  0  0  0
  6 21  1  0  0  0  0
  7 10  2  0  0  0  0
  7 20  1  0  0  0  0
  8 26  1  0  0  0  0
  9 26  2  0  0  0  0
 10 27  1  0  0  0  0
 11 12  2  0  0  0  0
 11 28  1  0  0  0  0
 12 29  1  0  0  0  0
 13 22  1  0  0  0  0
 13 27  2  0  0  0  0
 14 24  1  0  0  0  0
 14 25  2  0  0  0  0
 15 25  1  0  0  0  0
 15 30  2  0  0  0  0
 16 29  2  0  0  0  0
 16 31  1  0  0  0  0
 17 32  1  0  0  0  0
 18 32  1  0  0  0  0
 18 33  2  0  0  0  0
 18 37  1  0  0  0  0
 19 21  2  0  0  0  0
 19 42  1  0  0  0  0
 20 22  2  0  0  0  0
 20 43  1  0  0  0  0
 21 52  1  0  0  0  0
 22 44  1  0  0  0  0
 23 24  2  0  0  0  0
 23 30  1  0  0  0  0
 23 56  1  0  0  0  0
 24 68  1  0  0  0  0
 25 73  1  0  0  0  0
 26 83  1  0  0  0  0
 27 84  1  0  0  0  0
 28 31  2  0  0  0  0
 28 83  1  0  0  0  0
 29 85  1  0  0  0  0
 30 86  1  0  0  0  0
 31 87  1  0  0  0  0
 32 66  2  0  0  0  0
 33 67  1  0  0  0  0
 33 71  1  0  0  0  0
 34 35  1  0  0  0  0
 34 36  2  0  0  0  0
 34 53  1  0  0  0  0
 35 68  1  0  0  0  0
 35 77  2  0  0  0  0
 37 72  1  0  0  0  0
 37 78  2  0  0  0  0
 38 54  1  0  0  0  0
 38 74  1  0  0  0  0
 38 79  2  0  0  0  0
 39 63  1  0  0  0  0
 39 69  1  0  0  0  0
 39 80  2  0  0  0  0
 40 64  1  0  0  0  0
 40 75  1  0  0  0  0
 40 81  2  0  0  0  0
 41 70  1  0  0  0  0
 41 73  1  0  0  0  0
 41 82  2  0  0  0  0
 42 45  1  0  0  0  0
 43 54  1  0  0  0  0
 44 69  1  0  0  0  0
 45 47  1  0  0  0  0
 46 48  1  0  0  0  0
 46 49  1  0  0  0  0
 47 52  1  0  0  0  0
 48 55  1  0  0  0  0
 49 70  1  0  0  0  0
 50 53  1  0  0  0  0
 50 68  1  0  0  0  0
 51 55  1  0  0  0  0
 51 70  1  0  0  0  0
 52 74  1  0  0  0  0
 53 62  1  0  0  0  0
 54 69  1  0  0  0  0
 55 67  1  0  0  0  0
 57 64  1  0  0  0  0
 58 65  1  0  0  0  0
 59 65  1  0  0  0  0
 60 65  1  0  0  0  0
 61 76  1  0  0  0  0
 62 84  1  0  0  0  0
 63 65  1  0  0  0  0
 63 75  1  0  0  0  0
 64 76  1  0  0  0  0
 66 67  1  0  0  0  0
M  CHG  1  76   1
M  ISO  4  41 100  62 101  73 100  84 101
M  END
> <Batch ID>
0069

> <Smiles>
C=C1C(=O)N(c2cc([100NH:0][100C:0](=O)N3CCCC(n4nc(-c5ccc(Oc6ccc(F)cc6F)cc5)c(C(N)=O)c4N)C3)cc(F)c2C)CC1[101CH2:1][101O:1]c1ccc2c(c1)CN(C(=O)C(NC(=O)C(C)NC)C(C)(C)C)C(C(=O)NC1CCCc3ccccc31)C2

> <Shape>
0.163

> <Color>
0.192

> <Negative vol penalty>
0.000

$$$$

  -OEChem-04042323303D

 86 95  0     1  0  0  0  0  0999 V2000
  -26.3486  -36.0749   16.1722 C   0  0  0  0  0  0  0  0  0  0  0  0
  -26.5184  -34.6955   16.1090 C   0  0  0  0  0  0  0  0  0  0  0  0
  -24.7878   -8.6987   21.6413 C   0  0  0  0  0  0  0  0  0  0  0  0
  -23.2363   -9.8976   20.2297 C   0  0  0  0  0  0  0  0  0  0  0  0
  -26.4579  -36.7342   17.3958 C   0  0  0  0  0  0  0  0  0  0  0  0
  -26.7986  -33.9748   17.2694 C   0  0  0  0  0  0  0  0  0  0  0  0
  -24.9245  -28.3039   18.6238 C   0  0  0  0  0  0  0  0  0  0  0  0
  -23.7320   -8.2940   22.4580 C   0  0  0  0  0  0  0  0  0  0  0  0
  -22.1805   -9.4929   21.0464 C   0  0  0  0  0  0  0  0  0  0  0  0
  -25.5492  -27.0613   18.5268 C   0  0  0  0  0  0  0  0  0  0  0  0
  -21.2873   -5.9590   22.3948 C   0  0  0  0  0  0  0  0  0  0  0  0
  -21.2505   -4.6224   22.7921 C   0  0  0  0  0  0  0  0  0  0  0  0
  -26.1893  -27.2085   20.8479 C   0  0  0  0  0  0  0  0  0  0  0  0
  -24.9194  -19.4277   16.9395 C   0  0  0  0  0  0  0  0  0  0  0  0
  -26.8193  -18.3827   18.0049 C   0  0  0  0  0  0  0  0  0  0  0  0
  -25.1927  -17.0293   16.8390 C   0  0  0  0  0  0  0  0  0  0  0  0
  -21.3634   -5.3073   25.1063 C   0  0  0  0  0  0  0  0  0  0  0  0
  -24.5400   -9.5006   20.5271 C   0  0  0  0  0  0  0  0  0  0  0  0
  -26.1382   -9.2483   18.5549 C   0  0  0  0  0  0  0  0  0  0  0  0
  -26.7300  -36.0200   18.5733 C   0  0  0  0  0  0  0  0  0  0  0  0
  -24.9369  -29.0143   19.8328 C   0  0  0  0  0  0  0  0  0  0  0  0
  -26.9129  -34.6254   18.5097 C   0  0  0  0  0  0  0  0  0  0  0  0
  -25.5618  -28.4588   20.9584 C   0  0  0  0  0  0  0  0  0  0  0  0
  -26.0949  -19.5305   17.6833 C   0  0  0  0  0  0  0  0  0  0  0  0
  -24.4682  -18.1771   16.5174 C   0  0  0  0  0  0  0  0  0  0  0  0
  -26.3682  -17.1321   17.5828 C   0  0  0  0  0  0  0  0  0  0  0  0
  -22.4283   -8.6911   22.1606 C   0  0  0  0  0  0  0  0  0  0  0  0
  -26.1842  -26.5147   19.6381 C   0  0  0  0  0  0  0  0  0  0  0  0
  -21.3621   -6.9697   23.3532 C   0  0  0  0  0  0  0  0  0  0  0  0
  -21.2885   -4.2966   24.1479 C   0  0  0  0  0  0  0  0  0  0  0  0
  -21.4002   -6.6439   24.7089 C   0  0  0  0  0  0  0  0  0  0  0  0
  -25.6303   -9.9194   19.6834 C   0  0  0  0  0  0  0  0  0  0  0  0
  -27.1610  -10.0500   18.1102 C   0  0  0  0  0  0  0  0  0  0  0  0
  -27.9030  -22.4987   18.8120 C   0  0  0  0  0  0  0  0  0  0  0  0
  -27.8813  -21.0938   18.2908 C   0  0  0  0  0  0  0  0  0  0  0  0
  -25.7225   -8.0110   17.9616 C   0  0  0  0  0  0  0  0  0  0  0  0
  -26.0929  -31.8221   20.7729 C   0  0  0  0  0  0  0  0  0  0  0  0
  -24.5366  -31.1014   23.5262 C   0  0  0  0  0  0  0  0  0  0  0  0
  -23.2353  -28.7034   25.5764 C   0  0  0  0  0  0  0  0  0  0  0  0
  -28.2919  -15.8936   18.6373 C   0  0  0  0  0  0  0  0  0  0  0  0
  -26.8858  -36.7824   19.8652 C   0  0  0  0  0  0  0  0  0  0  0  0
  -24.2354  -30.3414   19.9283 C   0  0  0  0  0  0  0  0  0  0  0  0
  -25.5859  -29.1719   22.2848 C   0  0  0  0  0  0  0  0  0  0  0  0
  -26.8139  -35.8976   21.1071 C   0  0  0  0  0  0  0  0  0  0  0  0
  -30.3924  -13.2154   19.6825 C   0  0  0  0  0  0  0  0  0  0  0  0
  -27.6821  -34.6562   20.9290 C   0  0  0  0  0  0  0  0  0  0  0  0
  -29.4572  -12.0040   19.6928 C   0  0  0  0  0  0  0  0  0  0  0  0
  -29.6798  -14.4859   20.1429 C   0  0  0  0  0  0  0  0  0  0  0  0
  -25.6690  -21.9031   18.3980 C   0  0  0  0  0  0  0  0  0  0  0  0
  -27.4992  -13.5816   19.4383 C   0  0  0  0  0  0  0  0  0  0  0  0
  -27.1934  -33.8056   19.7504 C   0  0  1  0  0  0  0  0  0  0  0  0
  -26.5108  -22.9646   19.1114 C   0  0  2  0  0  0  0  0  0  0  0  0
  -24.7532  -31.2101   21.0705 C   0  0  1  0  0  0  0  0  0  0  0  0
  -28.1547  -12.2910   18.9202 C   0  0  2  0  0  0  0  0  0  0  0  0
  -22.0596  -28.4175   27.7749 C   0  0  0  0  0  0  0  0  0  0  0  0
  -27.1674  -31.5869   24.9935 C   0  0  0  0  0  0  0  0  0  0  0  0
  -26.2040  -30.3927   26.9718 C   0  0  0  0  0  0  0  0  0  0  0  0
  -25.1449  -32.4963   26.1497 C   0  0  0  0  0  0  0  0  0  0  0  0
  -20.8670  -27.4874   24.2836 C   0  0  0  0  0  0  0  0  0  0  0  0
  -26.2511  -24.3700   18.6126 C   0  0  0  0  0  0  0  0  0  1  0  0
  -24.8967  -30.3736   24.7988 C   0  0  1  0  0  0  0  0  0  0  0  0
  -21.8914  -28.5956   26.2739 C   0  0  2  0  0  0  0  0  0  0  0  0
  -25.8547  -31.1996   25.7031 C   0  0  0  0  0  0  0  0  0  0  0  0
  -26.2772  -11.0594   19.9398 N   0  0  0  0  0  0  0  0  0  0  0  0
  -27.2022  -11.1109   18.9662 N   0  0  0  0  0  0  0  0  0  0  0  0
  -26.5457  -20.7766   18.1032 N   0  0  0  0  0  0  0  0  0  0  0  0
  -24.8916  -30.4695   22.3261 N   0  0  0  0  0  0  0  0  0  0  0  0
  -28.4575  -14.6955   19.3639 N   0  0  0  0  0  0  0  0  0  0  0  0
  -23.2797  -18.0725   15.7653 N   0  0  0  0  0  0  0  0  0  0  0  0
  -28.0202   -9.9437   17.0744 N   0  0  0  0  0  0  0  0  0  0  0  0
  -24.6550   -7.3155   18.5454 N   0  0  0  0  0  0  0  0  0  0  0  0
  -27.1053  -15.9666   17.9084 N   0  0  0  0  0  0  0  0  0  0  0  0
  -26.0233  -33.0426   20.1287 N   0  0  0  0  0  0  0  0  0  0  0  0
  -23.6340  -30.0159   25.4359 N   0  0  0  0  0  0  0  0  0  0  0  0
  -21.1254  -27.4315   25.7455 N   0  3  0  0  0  0  0  0  0  0  0  0
  -28.9478  -23.0969   18.9718 O   0  0  0  0  0  0  0  0  0  0  0  0
  -28.8983  -20.4588   18.1046 O   0  0  0  0  0  0  0  0  0  0  0  0
  -26.2919   -7.5281   16.9535 O   0  0  0  0  0  0  0  0  0  0  0  0
  -27.1141  -31.2314   21.1046 O   0  0  0  0  0  0  0  0  0  0  0  0
  -23.9551  -32.1872   23.5944 O   0  0  0  0  0  0  0  0  0  0  0  0
  -23.8699  -27.7214   25.1976 O   0  0  0  0  0  0  0  0  0  0  0  0
  -29.1527  -16.7774   18.6382 O   0  0  0  0  0  0  0  0  0  0  0  0
  -21.3978   -8.2962   22.9572 O   0  0  0  0  0  0  0  0  0  0  0  0
  -26.7953  -25.3023   19.5459 O   0  0  0  0  0  0  0  0  0  1  0  0
  -21.2517   -3.0131   24.5293 F   0  0  0  0  0  0  0  0  0  0  0  0
  -21.4709   -7.6105   25.6343 F   0  0  0  0  0  0  0  0  0  0  0  0
  1  2  1  0  0  0  0
  1  5  2  0  0  0  0
  2  6  2  0  0  0  0
  3  8  2  0  0  0  0
  3 18  1  0  0  0  0
  4  9  1  0  0  0  0
  4 18  2  0  0  0  0
  5 20  1  0  0  0  0
  6 22  1  0  0  0  0
  7 10  2  0  0  0  0
  7 21  1  0  0  0  0
  8 27  1  0  0  0  0
  9 27  2  0  0  0  0
 10 28  1  0  0  0  0
 11 12  2  0  0  0  0
 11 29  1  0  0  0  0
 12 30  1  0  0  0  0
 13 23  1  0  0  0  0
 13 28  2  0  0  0  0
 14 24  1  0  0  0  0
 14 25  2  0  0  0  0
 15 24  2  0  0  0  0
 15 26  1  0  0  0  0
 16 25  1  0  0  0  0
 16 26  2  0  0  0  0
 17 30  2  0  0  0  0
 17 31  1  0  0  0  0
 18 32  1  0  0  0  0
 19 32  1  0  0  0  0
 19 33  2  0  0  0  0
 19 36  1  0  0  0  0
 20 22  2  0  0  0  0
 20 41  1  0  0  0  0
 21 23  2  0  0  0  0
 21 42  1  0  0  0  0
 22 51  1  0  0  0  0
 23 43  1  0  0  0  0
 24 66  1  0  0  0  0
 25 69  1  0  0  0  0
 26 72  1  0  0  0  0
 27 83  1  0  0  0  0
 28 84  1  0  0  0  0
 29 31  2  0  0  0  0
 29 83  1  0  0  0  0
 30 85  1  0  0  0  0
 31 86  1  0  0  0  0
 32 64  2  0  0  0  0
 33 65  1  0  0  0  0
 33 70  1  0  0  0  0
 34 35  1  0  0  0  0
 34 52  1  0  0  0  0
 34 76  2  0  0  0  0
 35 66  1  0  0  0  0
 35 77  2  0  0  0  0
 36 71  1  0  0  0  0
 36 78  2  0  0  0  0
 37 53  1  0  0  0  0
 37 73  1  0  0  0  0
 37 79  2  0  0  0  0
 38 61  1  0  0  0  0
 38 67  1  0  0  0  0
 38 80  2  0  0  0  0
 39 62  1  0  0  0  0
 39 74  1  0  0  0  0
 39 81  2  0  0  0  0
 40 68  1  0  0  0  0
 40 72  1  0  0  0  0
 40 82  2  0  0  0  0
 41 44  1  0  0  0  0
 42 53  1  0  0  0  0
 43 67  1  0  0  0  0
 44 46  1  0  0  0  0
 45 47  1  0  0  0  0
 45 48  1  0  0  0  0
 46 51  1  0  0  0  0
 47 54  1  0  0  0  0
 48 68  1  0  0  0  0
 49 52  1  0  0  0  0
 49 66  1  0  0  0  0
 50 54  1  0  0  0  0
 50 68  1  0  0  0  0
 51 73  1  0  0  0  0
 52 60  1  0  0  0  0
 53 67  1  0  0  0  0
 54 65  1  0  0  0  0
 55 62  1  0  0  0  0
 56 63  1  0  0  0  0
 57 63  1  0  0  0  0
 58 63  1  0  0  0  0
 59 75  1  0  0  0  0
 60 84  1  0  0  0  0
 61 63  1  0  0  0  0
 61 74  1  0  0  0  0
 62 75  1  0  0  0  0
 64 65  1  0  0  0  0
M  CHG  1  75   1
M  ISO  4  40 100  60 101  72 100  84 101
M  END
> <Batch ID>
0069

> <Smiles>
CNC(C)C(=O)NC(C(=O)N1Cc2cc([101O:1][101CH2:1]C3CN(c4cc(N)cc([100NH:0][100C:0](=O)N5CCCC(n6nc(-c7ccc(Oc8ccc(F)cc8F)cc7)c(C(N)=O)c6N)C5)c4)C(=O)C3=O)ccc2CC1C(=O)NC1CCCc2ccccc21)C(C)(C)C

> <Shape>
0.239

> <Color>
0.123

> <Negative vol penalty>
0.000

$$$$

  -OEChem-04042323303D

 86 94  0     1  0  0  0  0  0999 V2000
  -29.0470  -36.6021   20.3135 C   0  0  0  0  0  0  0  0  0  0  0  0
  -29.2805  -35.2492   20.0884 C   0  0  0  0  0  0  0  0  0  0  0  0
  -25.1708   -8.4895   21.8138 C   0  0  0  0  0  0  0  0  0  0  0  0
  -23.6542   -9.7858   20.4512 C   0  0  0  0  0  0  0  0  0  0  0  0
  -28.1673  -36.9985   21.3199 C   0  0  0  0  0  0  0  0  0  0  0  0
  -28.6352  -34.2919   20.8705 C   0  0  0  0  0  0  0  0  0  0  0  0
  -26.6879  -28.7716   19.0706 C   0  0  0  0  0  0  0  0  0  0  0  0
  -24.0946   -8.0257   22.5704 C   0  0  0  0  0  0  0  0  0  0  0  0
  -22.5780   -9.3220   21.2077 C   0  0  0  0  0  0  0  0  0  0  0  0
  -27.2400  -27.4970   19.1909 C   0  0  0  0  0  0  0  0  0  0  0  0
  -21.6595   -5.6988   22.2725 C   0  0  0  0  0  0  0  0  0  0  0  0
  -21.6162   -4.3369   22.5710 C   0  0  0  0  0  0  0  0  0  0  0  0
  -25.3951  -19.5301   17.9060 C   0  0  0  0  0  0  0  0  0  0  0  0
  -25.6785  -17.1456   17.6405 C   0  0  0  0  0  0  0  0  0  0  0  0
  -25.9163  -27.1173   21.1715 C   0  0  0  0  0  0  0  0  0  0  0  0
  -27.2704  -18.4137   18.9424 C   0  0  0  0  0  0  0  0  0  0  0  0
  -21.6647   -4.8527   24.9309 C   0  0  0  0  0  0  0  0  0  0  0  0
  -24.9506   -9.3696   20.7543 C   0  0  0  0  0  0  0  0  0  0  0  0
  -24.9590  -18.3126   17.3835 C   0  0  0  0  0  0  0  0  0  0  0  0
  -26.6019   -9.2625   18.8128 C   0  0  0  0  0  0  0  0  0  0  0  0
  -27.5035  -36.0454   22.1083 C   0  0  0  0  0  0  0  0  0  0  0  0
  -25.7524  -29.2334   20.0076 C   0  0  0  0  0  0  0  0  0  0  0  0
  -27.7468  -34.6760   21.8893 C   0  0  0  0  0  0  0  0  0  0  0  0
  -25.3519  -28.3971   21.0594 C   0  0  0  0  0  0  0  0  0  0  0  0
  -26.5509  -19.5807   18.6854 C   0  0  0  0  0  0  0  0  0  0  0  0
  -26.8342  -17.1962   18.4200 C   0  0  0  0  0  0  0  0  0  0  0  0
  -22.7982   -8.4419   22.2673 C   0  0  0  0  0  0  0  0  0  0  0  0
  -26.8563  -26.6707   20.2431 C   0  0  0  0  0  0  0  0  0  0  0  0
  -21.7056   -6.6376   23.3032 C   0  0  0  0  0  0  0  0  0  0  0  0
  -21.6187   -3.9139   23.9002 C   0  0  0  0  0  0  0  0  0  0  0  0
  -21.7082   -6.2145   24.6323 C   0  0  0  0  0  0  0  0  0  0  0  0
  -26.0619   -9.8496   19.9728 C   0  0  0  0  0  0  0  0  0  0  0  0
  -27.6339  -10.0953   18.4550 C   0  0  0  0  0  0  0  0  0  0  0  0
  -27.1733  -23.1176   19.7756 C   0  0  0  0  0  0  0  0  0  0  0  0
  -26.7586  -24.3881   19.7423 C   0  0  0  0  0  0  0  0  0  1  0  0
  -23.7607  -18.2601   16.5757 C   0  0  0  0  0  0  0  0  0  0  0  0
  -26.2061   -8.0709   18.1206 C   0  0  0  0  0  0  0  0  0  0  0  0
  -26.3995  -22.0622   19.0589 C   0  0  0  0  0  0  0  0  0  0  0  0
  -25.6608  -31.6328   22.0905 C   0  0  0  0  0  0  0  0  0  0  0  0
  -22.6095  -30.6224   22.5277 C   0  0  0  0  0  0  0  0  0  0  0  0
  -20.3435  -28.0783   22.3293 C   0  0  0  0  0  0  0  0  0  0  0  0
  -28.7327  -15.8866   19.4336 C   0  0  0  0  0  0  0  0  0  0  0  0
  -26.5977  -36.5230   23.2156 C   0  0  0  0  0  0  0  0  0  0  0  0
  -25.1463  -30.6008   19.8486 C   0  0  0  0  0  0  0  0  0  0  0  0
  -24.3361  -28.8379   22.0803 C   0  0  0  0  0  0  0  0  0  0  0  0
  -25.6676  -35.4381   23.7523 C   0  0  0  0  0  0  0  0  0  0  0  0
  -30.8123  -13.1421   20.3388 C   0  0  0  0  0  0  0  0  0  0  0  0
  -26.4411  -34.1471   24.0014 C   0  0  0  0  0  0  0  0  0  0  0  0
  -29.8809  -11.9321   20.2362 C   0  0  0  0  0  0  0  0  0  0  0  0
  -30.0838  -14.3751   20.8705 C   0  0  0  0  0  0  0  0  0  0  0  0
  -27.9257  -13.5219   20.0437 C   0  0  0  0  0  0  0  0  0  0  0  0
  -27.0468  -33.6071   22.7003 C   0  0  1  0  0  0  0  0  0  0  0  0
  -24.5861  -31.1614   21.1522 C   0  0  1  0  0  0  0  0  0  0  0  0
  -28.5988  -12.2728   19.4516 C   0  0  2  0  0  0  0  0  0  0  0  0
  -17.9358  -27.5441   22.7930 C   0  0  0  0  0  0  0  0  0  0  0  0
  -23.2219  -30.4650   25.5127 C   0  0  0  0  0  0  0  0  0  0  0  0
  -21.1681  -29.0601   25.7890 C   0  0  0  0  0  0  0  0  0  0  0  0
  -20.9713  -31.4038   24.9575 C   0  0  0  0  0  0  0  0  0  0  0  0
  -22.5413  -19.0061   14.5308 C   0  0  0  0  0  0  0  0  0  0  0  0
  -19.8131  -27.4568   19.4848 C   0  0  0  0  0  0  0  0  0  0  0  0
  -21.9333  -29.6263   23.4385 C   0  0  1  0  0  0  0  0  0  0  0  0
  -18.9393  -28.0226   21.7553 C   0  0  2  0  0  0  0  0  0  0  0  0
  -21.8443  -30.1309   24.9065 C   0  0  0  0  0  0  0  0  0  0  0  0
  -26.6982  -10.9688   20.3283 N   0  0  0  0  0  0  0  0  0  0  0  0
  -27.6488  -11.0916   19.3864 N   0  0  0  0  0  0  0  0  0  0  0  0
  -23.7769  -30.1858   21.8854 N   0  0  0  0  0  0  0  0  0  0  0  0
  -28.8823  -14.6393   20.0759 N   0  0  0  0  0  0  0  0  0  0  0  0
  -28.5209  -10.0651   17.4379 N   0  0  0  0  0  0  0  0  0  0  0  0
  -22.7267  -17.4963   16.9803 N   0  0  0  0  0  0  0  0  0  0  0  0
  -25.1253   -7.3338   18.6236 N   0  0  0  0  0  0  0  0  0  0  0  0
  -26.9936  -20.8172   19.2164 N   0  0  0  0  0  0  0  0  0  0  0  0
  -27.5658  -16.0109   18.6802 N   0  0  0  0  0  0  0  0  0  0  0  0
  -26.0318  -32.9508   21.9044 N   0  0  0  0  0  0  0  0  0  0  0  0
  -20.6415  -29.3281   22.8298 N   0  0  0  0  0  0  0  0  0  0  0  0
  -23.6985  -18.9751   15.4287 N   0  3  0  0  0  0  0  0  0  0  0  0
  -18.8918  -27.0924   20.5918 N   0  3  0  0  0  0  0  0  0  0  0  0
  -26.8037   -7.6628   17.0961 O   0  0  0  0  0  0  0  0  0  0  0  0
  -25.3816  -22.3353   18.4336 O   0  0  0  0  0  0  0  0  0  0  0  0
  -26.1185  -30.8585   22.9228 O   0  0  0  0  0  0  0  0  0  0  0  0
  -22.1161  -31.7440   22.3857 O   0  0  0  0  0  0  0  0  0  0  0  0
  -21.0991  -27.1089   22.3366 O   0  0  0  0  0  0  0  0  0  0  0  0
  -29.5904  -16.7690   19.5217 O   0  0  0  0  0  0  0  0  0  0  0  0
  -21.7479   -7.9893   23.0052 O   0  0  0  0  0  0  0  0  0  0  0  0
  -27.3941  -25.4265   20.3633 O   0  0  0  0  0  0  0  0  0  1  0  0
  -21.5755   -2.6061   24.1867 F   0  0  0  0  0  0  0  0  0  0  0  0
  -21.7511   -7.1118   25.6268 F   0  0  0  0  0  0  0  0  0  0  0  0
  1  2  1  0  0  0  0
  1  5  2  0  0  0  0
  2  6  2  0  0  0  0
  3  8  2  0  0  0  0
  3 18  1  0  0  0  0
  4  9  1  0  0  0  0
  4 18  2  0  0  0  0
  5 21  1  0  0  0  0
  6 23  1  0  0  0  0
  7 10  2  0  0  0  0
  7 22  1  0  0  0  0
  8 27  1  0  0  0  0
  9 27  2  0  0  0  0
 10 28  1  0  0  0  0
 11 12  2  0  0  0  0
 11 29  1  0  0  0  0
 12 30  1  0  0  0  0
 13 19  1  0  0  0  0
 13 25  2  0  0  0  0
 14 19  2  0  0  0  0
 14 26  1  0  0  0  0
 15 24  1  0  0  0  0
 15 28  2  0  0  0  0
 16 25  1  0  0  0  0
 16 26  2  0  0  0  0
 17 30  2  0  0  0  0
 17 31  1  0  0  0  0
 18 32  1  0  0  0  0
 19 36  1  0  0  0  0
 20 32  1  0  0  0  0
 20 33  2  0  0  0  0
 20 37  1  0  0  0  0
 21 23  2  0  0  0  0
 21 43  1  0  0  0  0
 22 24  2  0  0  0  0
 22 44  1  0  0  0  0
 23 52  1  0  0  0  0
 24 45  1  0  0  0  0
 25 71  1  0  0  0  0
 26 72  1  0  0  0  0
 27 83  1  0  0  0  0
 28 84  1  0  0  0  0
 29 31  2  0  0  0  0
 29 83  1  0  0  0  0
 30 85  1  0  0  0  0
 31 86  1  0  0  0  0
 32 64  2  0  0  0  0
 33 65  1  0  0  0  0
 33 68  1  0  0  0  0
 34 35  2  0  0  0  0
 34 38  1  0  0  0  0
 35 84  1  0  0  0  0
 36 69  1  0  0  0  0
 36 75  2  0  0  0  0
 37 70  1  0  0  0  0
 37 77  2  0  0  0  0
 38 71  1  0  0  0  0
 38 78  2  0  0  0  0
 39 53  1  0  0  0  0
 39 73  1  0  0  0  0
 39 79  2  0  0  0  0
 40 61  1  0  0  0  0
 40 66  1  0  0  0  0
 40 80  2  0  0  0  0
 41 62  1  0  0  0  0
 41 74  1  0  0  0  0
 41 81  2  0  0  0  0
 42 67  1  0  0  0  0
 42 72  1  0  0  0  0
 42 82  2  0  0  0  0
 43 46  1  0  0  0  0
 44 53  1  0  0  0  0
 45 66  1  0  0  0  0
 46 48  1  0  0  0  0
 47 49  1  0  0  0  0
 47 50  1  0  0  0  0
 48 52  1  0  0  0  0
 49 54  1  0  0  0  0
 50 67  1  0  0  0  0
 51 54  1  0  0  0  0
 51 67  1  0  0  0  0
 52 73  1  0  0  0  0
 53 66  1  0  0  0  0
 54 65  1  0  0  0  0
 55 62  1  0  0  0  0
 56 63  1  0  0  0  0
 57 63  1  0  0  0  0
 58 63  1  0  0  0  0
 59 75  1  0  0  0  0
 60 76  1  0  0  0  0
 61 63  1  0  0  0  0
 61 74  1  0  0  0  0
 62 76  1  0  0  0  0
 64 65  1  0  0  0  0
M  CHG  2  75   1  76   1
M  ISO  4  35 101  42 100  72 100  84 101
M  END
> <Batch ID>
0069

> <Smiles>
CNC(=N)c1cc(NC(=O)C=[101CH:1][101O:1]c2ccc3c(c2)CN(C(=O)C(NC(=O)C(C)NC)C(C)(C)C)C(C(=O)NC2CCCc4ccccc42)C3)cc([100NH:0][100C:0](=O)N2CCCC(n3nc(-c4ccc(Oc5ccc(F)cc5F)cc4)c(C(N)=O)c3N)C2)c1

> <Shape>
0.282

> <Color>
0.088

> <Negative vol penalty>
0.000

$$$$

  -OEChem-04042323303D

 85 93  0     1  0  0  0  0  0999 V2000
  -27.3778  -13.2685   12.3405 C   0  0  0  0  0  0  0  0  0  0  0  0
  -27.9243  -14.2257   13.1893 C   0  0  0  0  0  0  0  0  0  0  0  0
  -19.9776  -28.6421   23.3052 C   0  0  0  0  0  0  0  0  0  0  0  0
  -20.9270  -26.5939   22.4449 C   0  0  0  0  0  0  0  0  0  0  0  0
  -26.2267  -12.5787   12.7189 C   0  0  0  0  0  0  0  0  0  0  0  0
  -27.3194  -14.4943   14.4167 C   0  0  0  0  0  0  0  0  0  0  0  0
  -30.1205  -16.0053   19.6490 C   0  0  0  0  0  0  0  0  0  0  0  0
  -18.7840  -28.3697   22.6368 C   0  0  0  0  0  0  0  0  0  0  0  0
  -19.7335  -26.3214   21.7765 C   0  0  0  0  0  0  0  0  0  0  0  0
  -30.3458  -17.2320   20.2720 C   0  0  0  0  0  0  0  0  0  0  0  0
  -16.0737  -26.3978   23.0822 C   0  0  0  0  0  0  0  0  0  0  0  0
  -14.8818  -26.5789   23.7838 C   0  0  0  0  0  0  0  0  0  0  0  0
  -29.0170  -26.0266   20.6330 C   0  0  0  0  0  0  0  0  0  0  0  0
  -31.2630  -25.7579   19.7845 C   0  0  0  0  0  0  0  0  0  0  0  0
  -28.3825  -16.8948   21.6325 C   0  0  0  0  0  0  0  0  0  0  0  0
  -30.4948  -27.9334   20.5016 C   0  0  0  0  0  0  0  0  0  0  0  0
  -14.1704  -28.2135   22.1531 C   0  0  0  0  0  0  0  0  0  0  0  0
  -21.0491  -27.7543   23.2092 C   0  0  0  0  0  0  0  0  0  0  0  0
  -30.0217  -25.2119   20.1111 C   0  0  0  0  0  0  0  0  0  0  0  0
  -22.6326  -27.6484   25.2064 C   0  0  0  0  0  0  0  0  0  0  0  0
  -25.6130  -12.8321   13.9557 C   0  0  0  0  0  0  0  0  0  0  0  0
  -29.0165  -15.2178   20.0060 C   0  0  0  0  0  0  0  0  0  0  0  0
  -26.1584  -13.8082   14.8114 C   0  0  0  0  0  0  0  0  0  0  0  0
  -28.1468  -15.6573   21.0143 C   0  0  0  0  0  0  0  0  0  0  0  0
  -29.2535  -27.3874   20.8282 C   0  0  0  0  0  0  0  0  0  0  0  0
  -18.6619  -27.2093   21.8724 C   0  0  0  0  0  0  0  0  0  0  0  0
  -29.4751  -17.6783   21.2619 C   0  0  0  0  0  0  0  0  0  0  0  0
  -16.3139  -27.1245   21.9161 C   0  0  0  0  0  0  0  0  0  0  0  0
  -13.9302  -27.4867   23.3193 C   0  0  0  0  0  0  0  0  0  0  0  0
  -31.4996  -27.1187   19.9797 C   0  0  0  0  0  0  0  0  0  0  0  0
  -15.3623  -28.0323   21.4515 C   0  0  0  0  0  0  0  0  0  0  0  0
  -22.2825  -28.0355   23.8990 C   0  0  0  0  0  0  0  0  0  0  0  0
  -23.8957  -28.1565   25.3883 C   0  0  0  0  0  0  0  0  0  0  0  0
  -29.7714  -23.7709   19.9029 C   0  0  0  0  0  0  0  0  0  0  0  0
  -21.8832  -26.8967   26.1703 C   0  0  0  0  0  0  0  0  0  0  0  0
  -26.4467  -14.1346   18.4806 C   0  0  0  0  0  0  0  0  0  0  0  0
  -25.9528  -12.5340   21.2585 C   0  0  0  0  0  0  0  0  0  0  0  0
  -29.1691  -21.6077   20.9681 C   0  0  0  0  0  0  0  0  0  0  0  0
  -26.4982  -12.3302   24.6212 C   0  0  0  0  0  0  0  0  0  0  0  0
  -28.3039  -29.5840   21.6154 C   0  0  0  0  0  0  0  0  0  0  0  0
  -24.3433  -12.0949   14.3006 C   0  0  0  0  0  0  0  0  0  0  0  0
  -28.8025  -13.8846   19.3432 C   0  0  0  0  0  0  0  0  0  0  0  0
  -26.9584  -14.8401   21.4483 C   0  0  0  0  0  0  0  0  0  0  0  0
  -23.9771  -12.1718   15.7806 C   0  0  0  0  0  0  0  0  0  0  0  0
  -26.7289  -31.7458   23.9655 C   0  0  0  0  0  0  0  0  0  0  0  0
  -24.1030  -13.6049   16.2878 C   0  0  0  0  0  0  0  0  0  0  0  0
  -25.4448  -31.0016   24.3387 C   0  0  0  0  0  0  0  0  0  0  0  0
  -27.0821  -31.5629   22.4905 C   0  0  0  0  0  0  0  0  0  0  0  0
  -25.8626  -29.4239   22.4091 C   0  0  0  0  0  0  0  0  0  0  0  0
  -25.5453  -14.1101   16.1616 C   0  0  1  0  0  0  0  0  0  0  0  0
  -27.3576  -13.4020   19.4247 C   0  0  1  0  0  0  0  0  0  0  0  0
  -25.5013  -29.5251   23.9001 C   0  0  2  0  0  0  0  0  0  0  0  0
  -25.9339  -10.9319   26.6271 C   0  0  0  0  0  0  0  0  0  0  0  0
  -23.1551  -13.7504   21.3163 C   0  0  0  0  0  0  0  0  0  0  0  0
  -23.0037  -13.1134   23.7328 C   0  0  0  0  0  0  0  0  0  0  0  0
  -23.2610  -11.3449   21.9924 C   0  0  0  0  0  0  0  0  0  0  0  0
  -29.3437  -11.6843   25.1161 C   0  0  0  0  0  0  0  0  0  0  0  0
  -28.8390  -21.0752   22.3440 C   0  0  0  0  0  0  0  0  0  0  0  0
  -28.5452  -19.5835   22.3395 C   0  0  0  0  0  0  0  0  0  1  0  0
  -25.2289  -12.8313   22.5494 C   0  0  1  0  0  0  0  0  0  0  0  0
  -26.9298  -11.1726   25.5033 C   0  0  2  0  0  0  0  0  0  0  0  0
  -23.6834  -12.7765   22.3884 C   0  0  0  0  0  0  0  0  0  0  0  0
  -23.2452  -28.7356   23.2932 N   0  0  0  0  0  0  0  0  0  0  0  0
  -24.2128  -28.7925   24.2242 N   0  0  0  0  0  0  0  0  0  0  0  0
  -26.7881  -13.5467   20.7660 N   0  0  0  0  0  0  0  0  0  0  0  0
  -27.1215  -30.1394   22.1485 N   0  0  0  0  0  0  0  0  0  0  0  0
  -24.7548  -28.1169   26.4288 N   0  0  0  0  0  0  0  0  0  0  0  0
  -20.6016  -26.4507   25.8199 N   0  0  0  0  0  0  0  0  0  0  0  0
  -28.2334  -28.2150   21.3596 N   0  0  0  0  0  0  0  0  0  0  0  0
  -29.4489  -23.0254   20.9689 N   0  0  0  0  0  0  0  0  0  0  0  0
  -26.3657  -13.5673   17.2232 N   0  0  0  0  0  0  0  0  0  0  0  0
  -25.7599  -11.9000   23.5390 N   0  0  0  0  0  0  0  0  0  0  0  0
  -29.8834  -23.2947   18.6633 N   0  3  0  0  0  0  0  0  0  0  0  0
  -28.2629  -11.4513   26.1083 N   0  3  0  0  0  0  0  0  0  0  0  0
  -22.3302  -26.6426   27.3145 O   0  0  0  0  0  0  0  0  0  0  0  0
  -25.8598  -15.1393   18.8650 O   0  0  0  0  0  0  0  0  0  0  0  0
  -25.7888  -11.4408   20.7111 O   0  0  0  0  0  0  0  0  0  0  0  0
  -29.2079  -20.9481   19.9398 O   0  0  0  0  0  0  0  0  0  0  0  0
  -26.7840  -13.4994   24.8695 O   0  0  0  0  0  0  0  0  0  0  0  0
  -29.3140  -30.2667   21.4269 O   0  0  0  0  0  0  0  0  0  0  0  0
  -17.4974  -26.9430   21.2202 O   0  0  0  0  0  0  0  0  0  0  0  0
  -29.6923  -18.8756   21.8711 O   0  0  0  0  0  0  0  0  0  1  0  0
  -12.7850  -27.6595   23.9923 F   0  0  0  0  0  0  0  0  0  0  0  0
  -32.6915  -27.6430   19.6660 F   0  0  0  0  0  0  0  0  0  0  0  0
  -15.5869  -28.7325   20.3312 F   0  0  0  0  0  0  0  0  0  0  0  0
  1  2  1  0  0  0  0
  1  5  2  0  0  0  0
  2  6  2  0  0  0  0
  3  8  2  0  0  0  0
  3 18  1  0  0  0  0
  4  9  1  0  0  0  0
  4 18  2  0  0  0  0
  5 21  1  0  0  0  0
  6 23  1  0  0  0  0
  7 10  2  0  0  0  0
  7 22  1  0  0  0  0
  8 26  1  0  0  0  0
  9 26  2  0  0  0  0
 10 27  1  0  0  0  0
 11 12  2  0  0  0  0
 11 28  1  0  0  0  0
 12 29  1  0  0  0  0
 13 19  2  0  0  0  0
 13 25  1  0  0  0  0
 14 19  1  0  0  0  0
 14 30  2  0  0  0  0
 15 24  1  0  0  0  0
 15 27  2  0  0  0  0
 16 25  2  0  0  0  0
 16 30  1  0  0  0  0
 17 29  2  0  0  0  0
 17 31  1  0  0  0  0
 18 32  1  0  0  0  0
 19 34  1  0  0  0  0
 20 32  1  0  0  0  0
 20 33  2  0  0  0  0
 20 35  1  0  0  0  0
 21 23  2  0  0  0  0
 21 41  1  0  0  0  0
 22 24  2  0  0  0  0
 22 42  1  0  0  0  0
 23 50  1  0  0  0  0
 24 43  1  0  0  0  0
 25 69  1  0  0  0  0
 26 81  1  0  0  0  0
 27 82  1  0  0  0  0
 28 31  2  0  0  0  0
 28 81  1  0  0  0  0
 29 83  1  0  0  0  0
 30 84  1  0  0  0  0
 31 85  1  0  0  0  0
 32 63  2  0  0  0  0
 33 64  1  0  0  0  0
 33 67  1  0  0  0  0
 34 70  1  0  0  0  0
 34 73  2  0  0  0  0
 35 68  1  0  0  0  0
 35 75  2  0  0  0  0
 36 51  1  0  0  0  0
 36 71  1  0  0  0  0
 36 76  2  0  0  0  0
 37 60  1  0  0  0  0
 37 65  1  0  0  0  0
 37 77  2  0  0  0  0
 38 58  1  0  0  0  0
 38 70  1  0  0  0  0
 38 78  2  0  0  0  0
 39 61  1  0  0  0  0
 39 72  1  0  0  0  0
 39 79  2  0  0  0  0
 40 66  1  0  0  0  0
 40 69  1  0  0  0  0
 40 80  2  0  0  0  0
 41 44  1  0  0  0  0
 42 51  1  0  0  0  0
 43 65  1  0  0  0  0
 44 46  1  0  0  0  0
 45 47  1  0  0  0  0
 45 48  1  0  0  0  0
 46 50  1  0  0  0  0
 47 52  1  0  0  0  0
 48 66  1  0  0  0  0
 49 52  1  0  0  0  0
 49 66  1  0  0  0  0
 50 71  1  0  0  0  0
 51 65  1  0  0  0  0
 52 64  1  0  0  0  0
 53 61  1  0  0  0  0
 54 62  1  0  0  0  0
 55 62  1  0  0  0  0
 56 62  1  0  0  0  0
 57 74  1  0  0  0  0
 58 59  1  0  0  0  0
 59 82  1  0  0  0  0
 60 62  1  0  0  0  0
 60 72  1  0  0  0  0
 61 74  1  0  0  0  0
 63 64  1  0  0  0  0
M  CHG  2  73   1  74   1
M  ISO  4  40 100  59 101  69 100  82 101
M  END
> <Batch ID>
0069

> <Smiles>
CNC(C)C(=O)NC(C(=O)N1Cc2cc([101O:1][101CH2:1]CC(=O)NC(=N)c3cc(F)cc([100NH:0][100C:0](=O)N4CCCC(n5nc(-c6ccc(Oc7ccc(F)cc7F)cc6)c(C(N)=O)c5N)C4)c3)ccc2CC1C(=O)NC1CCCc2ccccc21)C(C)(C)C

> <Shape>
0.249

> <Color>
0.065

> <Negative vol penalty>
0.000

$$$$

  -OEChem-04042323303D

 88 97  0     1  0  0  0  0  0999 V2000
  -29.5195  -23.7881   29.0656 C   0  0  0  0  0  0  0  0  0  0  0  0
  -29.6545  -23.6932   27.6843 C   0  0  0  0  0  0  0  0  0  0  0  0
  -23.2282   -9.7302   21.0495 C   0  0  0  0  0  0  0  0  0  0  0  0
  -23.9303  -10.5005   23.2291 C   0  0  0  0  0  0  0  0  0  0  0  0
  -28.3468  -24.3030   29.6165 C   0  0  0  0  0  0  0  0  0  0  0  0
  -28.6164  -24.1122   26.8530 C   0  0  0  0  0  0  0  0  0  0  0  0
  -30.2551  -26.8856   22.9456 C   0  0  0  0  0  0  0  0  0  0  0  0
  -31.0354  -19.0798   18.8316 C   0  0  0  0  0  0  0  0  0  0  0  0
  -30.9295  -17.7576   19.2631 C   0  0  0  0  0  0  0  0  0  0  0  0
  -22.5303   -8.6799   21.6454 C   0  0  0  0  0  0  0  0  0  0  0  0
  -23.2323   -9.4501   23.8251 C   0  0  0  0  0  0  0  0  0  0  0  0
  -30.8270  -26.2009   21.8742 C   0  0  0  0  0  0  0  0  0  0  0  0
  -20.0288   -8.7241   24.6196 C   0  0  0  0  0  0  0  0  0  0  0  0
  -19.2458   -9.0191   25.7355 C   0  0  0  0  0  0  0  0  0  0  0  0
  -28.7524  -26.3847   20.6571 C   0  0  0  0  0  0  0  0  0  0  0  0
  -29.2480  -18.4161   20.8681 C   0  0  0  0  0  0  0  0  0  0  0  0
  -20.5533   -7.4787   27.0601 C   0  0  0  0  0  0  0  0  0  0  0  0
  -23.9283  -10.6405   21.8413 C   0  0  0  0  0  0  0  0  0  0  0  0
  -24.1607  -13.0116   20.9295 C   0  0  0  0  0  0  0  0  0  0  0  0
  -27.2975  -24.7375   28.7913 C   0  0  0  0  0  0  0  0  0  0  0  0
  -28.9219  -27.3162   22.8850 C   0  0  0  0  0  0  0  0  0  0  0  0
  -27.4280  -24.6321   27.3934 C   0  0  0  0  0  0  0  0  0  0  0  0
  -28.1667  -27.0769   21.7280 C   0  0  0  0  0  0  0  0  0  0  0  0
  -29.3540  -19.7383   20.4366 C   0  0  0  0  0  0  0  0  0  0  0  0
  -30.2477  -20.0702   19.4184 C   0  0  0  0  0  0  0  0  0  0  0  0
  -30.0358  -17.4257   20.2813 C   0  0  0  0  0  0  0  0  0  0  0  0
  -22.5323   -8.5398   23.0333 C   0  0  0  0  0  0  0  0  0  0  0  0
  -30.0747  -25.9478   20.7309 C   0  0  0  0  0  0  0  0  0  0  0  0
  -21.0741   -7.8063   24.7238 C   0  0  0  0  0  0  0  0  0  0  0  0
  -19.5080   -8.3964   26.9558 C   0  0  0  0  0  0  0  0  0  0  0  0
  -21.3363   -7.1837   25.9441 C   0  0  0  0  0  0  0  0  0  0  0  0
  -24.6500  -11.7254   21.2262 C   0  0  0  0  0  0  0  0  0  0  0  0
  -25.2272  -13.6611   20.3574 C   0  0  0  0  0  0  0  0  0  0  0  0
  -31.1638  -22.3954   19.3718 C   0  0  0  0  0  0  0  0  0  0  0  0
  -22.8587  -13.5695   21.1513 C   0  0  0  0  0  0  0  0  0  0  0  0
  -26.2847  -26.6898   24.5452 C   0  0  0  0  0  0  0  0  0  0  0  0
  -25.0294  -29.0396   22.6945 C   0  0  0  0  0  0  0  0  0  0  0  0
  -25.1694  -30.8266   19.7904 C   0  0  0  0  0  0  0  0  0  0  0  0
  -30.6357  -14.9793   20.2422 C   0  0  0  0  0  0  0  0  0  0  0  0
  -26.0302  -25.2430   29.4340 C   0  0  0  0  0  0  0  0  0  0  0  0
  -28.3279  -28.0770   24.0386 C   0  0  0  0  0  0  0  0  0  0  0  0
  -26.7375  -27.5360   21.6049 C   0  0  0  0  0  0  0  0  0  0  0  0
  -25.1261  -26.0130   28.4748 C   0  0  0  0  0  0  0  0  0  0  0  0
  -29.6881  -11.8877   18.7519 C   0  0  0  0  0  0  0  0  0  0  0  0
  -24.9787  -25.2576   27.1578 C   0  0  0  0  0  0  0  0  0  0  0  0
  -28.2526  -11.6757   19.2384 C   0  0  0  0  0  0  0  0  0  0  0  0
  -30.5623  -12.5304   19.8273 C   0  0  0  0  0  0  0  0  0  0  0  0
  -28.5916  -13.5587   20.8896 C   0  0  0  0  0  0  0  0  0  0  0  0
  -29.6646  -22.0894   17.9236 C   0  0  0  0  0  0  0  0  0  0  0  0
  -26.3339  -25.0992   26.4579 C   0  0  1  0  0  0  0  0  0  0  0  0
  -26.8039  -28.0179   24.0719 C   0  0  1  0  0  0  0  0  0  0  0  0
  -27.6568  -12.9733   19.8186 C   0  0  2  0  0  0  0  0  0  0  0  0
  -30.5322  -23.3282   18.2986 C   0  0  2  0  0  0  0  0  0  0  0  0
  -31.5090  -23.7718   17.2151 C   0  0  0  0  0  0  0  0  0  0  0  0
  -23.9862  -32.6549   18.5435 C   0  0  0  0  0  0  0  0  0  0  0  0
  -28.1888  -20.4111   22.5663 C   0  0  0  0  0  0  0  0  0  0  0  0
  -27.1364  -20.9298   20.3393 C   0  0  0  0  0  0  0  0  0  0  0  0
  -29.1125  -22.2162   21.1275 C   0  0  0  0  0  0  0  0  0  0  0  0
  -22.8183  -27.0820   21.9273 C   0  0  0  0  0  0  0  0  0  0  0  0
  -22.2436  -28.5897   20.0129 C   0  0  0  0  0  0  0  0  0  0  0  0
  -22.0395  -29.4195   22.3565 C   0  0  0  0  0  0  0  0  0  0  0  0
  -27.5696  -32.5578   19.8187 C   0  0  0  0  0  0  0  0  0  0  0  0
  -29.7550  -24.4902   18.8791 C   0  0  0  0  0  0  0  0  0  1  0  0
  -24.3370  -29.0897   21.3540 C   0  0  1  0  0  0  0  0  0  0  0  0
  -25.1011  -32.3191   19.5218 C   0  0  2  0  0  0  0  0  0  0  0  0
  -28.4984  -20.7790   21.0831 C   0  0  0  0  0  0  0  0  0  0  0  0
  -22.8859  -28.5347   21.4154 C   0  0  0  0  0  0  0  0  0  0  0  0
  -25.9278  -11.5653   20.8718 N   0  0  0  0  0  0  0  0  0  0  0  0
  -26.2504  -12.7594   20.3463 N   0  0  0  0  0  0  0  0  0  0  0  0
  -30.3666  -21.3680   18.9791 N   0  0  0  0  0  0  0  0  0  0  0  0
  -26.1997  -28.2704   22.7621 N   0  0  0  0  0  0  0  0  0  0  0  0
  -29.9367  -13.7566   20.3271 N   0  0  0  0  0  0  0  0  0  0  0  0
  -25.3801  -14.9098   19.8677 N   0  0  0  0  0  0  0  0  0  0  0  0
  -21.8801  -12.7645   21.7502 N   0  0  0  0  0  0  0  0  0  0  0  0
  -29.9280  -16.0823   20.7188 N   0  0  0  0  0  0  0  0  0  0  0  0
  -26.7154  -26.3355   25.8095 N   0  0  0  0  0  0  0  0  0  0  0  0
  -24.4290  -30.4726   20.8985 N   0  0  0  0  0  0  0  0  0  0  0  0
  -26.3897  -32.8020   18.9497 N   0  3  0  0  0  0  0  0  0  0  0  0
  -32.0153  -22.4970   20.2255 O   0  0  0  0  0  0  0  0  0  0  0  0
  -22.5668  -14.7416   20.8130 O   0  0  0  0  0  0  0  0  0  0  0  0
  -25.5467  -26.0355   23.8179 O   0  0  0  0  0  0  0  0  0  0  0  0
  -24.5535  -29.6658   23.6448 O   0  0  0  0  0  0  0  0  0  0  0  0
  -25.8120  -30.0516   19.0854 O   0  0  0  0  0  0  0  0  0  0  0  0
  -31.7674  -15.0475   19.7558 O   0  0  0  0  0  0  0  0  0  0  0  0
  -21.8511   -7.5151   23.6152 O   0  0  0  0  0  0  0  0  0  0  0  0
  -30.6303  -25.2791   19.6840 O   0  0  0  0  0  0  0  0  0  1  0  0
  -18.7569   -8.6809   28.0278 F   0  0  0  0  0  0  0  0  0  0  0  0
  -22.3399   -6.3020   26.0507 F   0  0  0  0  0  0  0  0  0  0  0  0
  1  2  1  0  0  0  0
  1  5  2  0  0  0  0
  2  6  2  0  0  0  0
  3 10  2  0  0  0  0
  3 18  1  0  0  0  0
  4 11  1  0  0  0  0
  4 18  2  0  0  0  0
  5 20  1  0  0  0  0
  6 22  1  0  0  0  0
  7 12  2  0  0  0  0
  7 21  1  0  0  0  0
  8  9  2  0  0  0  0
  8 25  1  0  0  0  0
  9 26  1  0  0  0  0
 10 27  1  0  0  0  0
 11 27  2  0  0  0  0
 12 28  1  0  0  0  0
 13 14  2  0  0  0  0
 13 29  1  0  0  0  0
 14 30  1  0  0  0  0
 15 23  1  0  0  0  0
 15 28  2  0  0  0  0
 16 24  1  0  0  0  0
 16 26  2  0  0  0  0
 17 30  2  0  0  0  0
 17 31  1  0  0  0  0
 18 32  1  0  0  0  0
 19 32  1  0  0  0  0
 19 33  2  0  0  0  0
 19 35  1  0  0  0  0
 20 22  2  0  0  0  0
 20 40  1  0  0  0  0
 21 23  2  0  0  0  0
 21 41  1  0  0  0  0
 22 50  1  0  0  0  0
 23 42  1  0  0  0  0
 24 25  2  0  0  0  0
 24 66  1  0  0  0  0
 25 70  1  0  0  0  0
 26 75  1  0  0  0  0
 27 85  1  0  0  0  0
 28 86  1  0  0  0  0
 29 31  2  0  0  0  0
 29 85  1  0  0  0  0
 30 87  1  0  0  0  0
 31 88  1  0  0  0  0
 32 68  2  0  0  0  0
 33 69  1  0  0  0  0
 33 73  1  0  0  0  0
 34 53  1  0  0  0  0
 34 70  1  0  0  0  0
 34 79  2  0  0  0  0
 35 74  1  0  0  0  0
 35 80  2  0  0  0  0
 36 51  1  0  0  0  0
 36 76  1  0  0  0  0
 36 81  2  0  0  0  0
 37 64  1  0  0  0  0
 37 71  1  0  0  0  0
 37 82  2  0  0  0  0
 38 65  1  0  0  0  0
 38 77  1  0  0  0  0
 38 83  2  0  0  0  0
 39 72  1  0  0  0  0
 39 75  1  0  0  0  0
 39 84  2  0  0  0  0
 40 43  1  0  0  0  0
 41 51  1  0  0  0  0
 42 71  1  0  0  0  0
 43 45  1  0  0  0  0
 44 46  1  0  0  0  0
 44 47  1  0  0  0  0
 45 50  1  0  0  0  0
 46 52  1  0  0  0  0
 47 72  1  0  0  0  0
 48 52  1  0  0  0  0
 48 72  1  0  0  0  0
 49 53  1  0  0  0  0
 49 70  1  0  0  0  0
 50 76  1  0  0  0  0
 51 71  1  0  0  0  0
 52 69  1  0  0  0  0
 53 54  1  0  0  0  0
 53 63  1  0  0  0  0
 55 65  1  0  0  0  0
 56 66  1  0  0  0  0
 57 66  1  0  0  0  0
 58 66  1  0  0  0  0
 59 67  1  0  0  0  0
 60 67  1  0  0  0  0
 61 67  1  0  0  0  0
 62 78  1  0  0  0  0
 63 86  1  0  0  0  0
 64 67  1  0  0  0  0
 64 77  1  0  0  0  0
 65 78  1  0  0  0  0
 68 69  1  0  0  0  0
M  CHG  1  78   1
M  ISO  4  39 100  63 101  75 100  86 101
M  END
> <Batch ID>
0069

> <Smiles>
CNC(C)C(=O)NC(C(=O)N1Cc2cc([101O:1][101CH2:1]C3(C)CN(c4ccc([100NH:0][100C:0](=O)N5CCCC(n6nc(-c7ccc(Oc8ccc(F)cc8F)cc7)c(C(N)=O)c6N)C5)cc4C(C)(C)C)C3=O)ccc2CC1C(=O)NC1CCCc2ccccc21)C(C)(C)C

> <Shape>
0.279

> <Color>
0.165

> <Negative vol penalty>
0.000

$$$$

  -OEChem-04042323303D

 90 99  0     1  0  0  0  0  0999 V2000
  -26.6540  -17.6013   16.2188 C   0  0  0  0  0  0  0  0  0  0  0  0
  -26.6733  -18.2384   17.4554 C   0  0  0  0  0  0  0  0  0  0  0  0
  -23.2345  -10.2155   22.1416 C   0  0  0  0  0  0  0  0  0  0  0  0
  -23.8701   -9.4023   19.9572 C   0  0  0  0  0  0  0  0  0  0  0  0
  -26.8094  -18.3454   15.0500 C   0  0  0  0  0  0  0  0  0  0  0  0
  -26.8493  -19.6200   17.5239 C   0  0  0  0  0  0  0  0  0  0  0  0
  -23.6477  -21.8276   20.7675 C   0  0  0  0  0  0  0  0  0  0  0  0
  -22.5660   -9.0175   22.3932 C   0  0  0  0  0  0  0  0  0  0  0  0
  -23.2016   -8.2041   20.2088 C   0  0  0  0  0  0  0  0  0  0  0  0
  -23.9484  -21.7292   22.1254 C   0  0  0  0  0  0  0  0  0  0  0  0
  -19.6134   -7.5929   21.5706 C   0  0  0  0  0  0  0  0  0  0  0  0
  -18.3414   -7.6682   22.1380 C   0  0  0  0  0  0  0  0  0  0  0  0
  -24.8590  -23.9626   22.0793 C   0  0  0  0  0  0  0  0  0  0  0  0
  -28.9918  -18.0975   23.2244 C   0  0  0  0  0  0  0  0  0  0  0  0
  -31.2974  -17.4217   22.9700 C   0  0  0  0  0  0  0  0  0  0  0  0
  -19.1127   -6.3890   24.0369 C   0  0  0  0  0  0  0  0  0  0  0  0
  -23.8865  -10.4080   20.9236 C   0  0  0  0  0  0  0  0  0  0  0  0
  -24.0226  -12.9395   20.6398 C   0  0  0  0  0  0  0  0  0  0  0  0
  -26.9777  -19.7380   15.1037 C   0  0  0  0  0  0  0  0  0  0  0  0
  -23.9608  -22.9921   20.0517 C   0  0  0  0  0  0  0  0  0  0  0  0
  -27.0085  -20.3833   16.3548 C   0  0  0  0  0  0  0  0  0  0  0  0
  -24.5589  -24.0742   20.7131 C   0  0  0  0  0  0  0  0  0  0  0  0
  -30.7309  -19.2558   24.4371 C   0  0  0  0  0  0  0  0  0  0  0  0
  -29.3827  -19.0949   24.1177 C   0  0  0  0  0  0  0  0  0  0  0  0
  -29.9491  -17.2609   22.6506 C   0  0  0  0  0  0  0  0  0  0  0  0
  -22.5496   -8.0118   21.4268 C   0  0  0  0  0  0  0  0  0  0  0  0
  -24.5567  -22.7957   22.7808 C   0  0  0  0  0  0  0  0  0  0  0  0
  -20.6351   -6.9156   22.2363 C   0  0  0  0  0  0  0  0  0  0  0  0
  -18.0910   -7.0662   23.3712 C   0  0  0  0  0  0  0  0  0  0  0  0
  -31.6883  -18.4192   23.8633 C   0  0  0  0  0  0  0  0  0  0  0  0
  -20.3847   -6.3137   23.4695 C   0  0  0  0  0  0  0  0  0  0  0  0
  -24.5768  -11.6456   20.6629 C   0  0  0  0  0  0  0  0  0  0  0  0
  -25.0833  -13.7621   20.3489 C   0  0  0  0  0  0  0  0  0  0  0  0
  -27.4075  -22.1806   25.2674 C   0  0  0  0  0  0  0  0  0  0  0  0
  -28.4066  -21.3411   24.5069 C   0  0  0  0  0  0  0  0  0  0  0  0
  -22.6700  -13.3602   20.8615 C   0  0  0  0  0  0  0  0  0  0  0  0
  -25.8409  -23.6681   17.5795 C   0  0  0  0  0  0  0  0  0  0  0  0
  -24.4747  -26.5985   17.8409 C   0  0  0  0  0  0  0  0  0  0  0  0
  -23.5435  -28.8412   20.5094 C   0  0  0  0  0  0  0  0  0  0  0  0
  -30.3742  -15.3331   21.0856 C   0  0  0  0  0  0  0  0  0  0  0  0
  -27.1892  -20.4939   13.8159 C   0  0  0  0  0  0  0  0  0  0  0  0
  -23.6056  -23.0926   18.5936 C   0  0  0  0  0  0  0  0  0  0  0  0
  -24.8970  -25.3540   19.9946 C   0  0  0  0  0  0  0  0  0  0  0  0
  -26.9956  -22.0016   13.9557 C   0  0  0  0  0  0  0  0  0  0  0  0
  -29.7775  -12.6637   18.8062 C   0  0  0  0  0  0  0  0  0  0  0  0
  -27.7265  -22.5216   15.1895 C   0  0  0  0  0  0  0  0  0  0  0  0
  -28.3257  -12.2673   19.0841 C   0  0  0  0  0  0  0  0  0  0  0  0
  -26.5305  -20.1877   26.3823 C   0  0  0  0  0  0  0  0  0  0  0  0
  -30.5114  -13.0624   20.0853 C   0  0  0  0  0  0  0  0  0  0  0  0
  -27.2451  -19.2990   25.3792 C   0  0  0  0  0  0  0  0  0  0  0  0
  -28.3909  -13.6973   21.1669 C   0  0  0  0  0  0  0  0  0  0  0  0
  -27.1722  -21.8834   16.4689 C   0  0  1  0  0  0  0  0  0  0  0  0
  -24.4366  -24.1311   17.8464 C   0  0  1  0  0  0  0  0  0  0  0  0
  -27.5922  -13.3499   19.8999 C   0  0  2  0  0  0  0  0  0  0  0  0
  -26.1380  -21.5343   25.7789 C   0  0  1  0  0  0  0  0  0  0  0  0
  -25.5083  -22.4068   26.8768 C   0  0  0  0  0  0  0  0  0  0  0  0
  -31.5054  -19.7555   26.7688 C   0  0  0  0  0  0  0  0  0  0  0  0
  -21.7668  -30.6107   20.6081 C   0  0  0  0  0  0  0  0  0  0  0  0
  -26.7178  -28.4882   16.9999 C   0  0  0  0  0  0  0  0  0  0  0  0
  -25.7496  -30.2100   18.5382 C   0  0  0  0  0  0  0  0  0  0  0  0
  -24.4101  -29.3692   16.6091 C   0  0  0  0  0  0  0  0  0  0  0  0
  -22.3230  -27.6449   22.9256 C   0  0  0  0  0  0  0  0  0  0  0  0
  -31.1751  -20.3180   25.3900 C   0  0  0  0  0  0  0  0  0  0  0  0
  -25.1466  -21.4021   24.6154 C   0  0  0  0  0  0  0  0  0  1  0  0
  -24.7929  -27.8623   18.6028 C   0  0  1  0  0  0  0  0  0  0  0  0
  -22.1346  -29.1784   20.9631 C   0  0  2  0  0  0  0  0  0  0  0  0
  -25.4251  -28.9568   17.6974 C   0  0  0  0  0  0  0  0  0  0  0  0
  -25.8877  -11.6414   20.4069 N   0  0  0  0  0  0  0  0  0  0  0  0
  -26.1661  -12.9429   20.2201 N   0  0  0  0  0  0  0  0  0  0  0  0
  -28.3738  -19.9533   24.7027 N   0  0  0  0  0  0  0  0  0  0  0  0
  -24.5358  -25.4013   18.5682 N   0  0  0  0  0  0  0  0  0  0  0  0
  -29.7602  -14.0945   20.8033 N   0  0  0  0  0  0  0  0  0  0  0  0
  -25.1861  -15.0992   20.1933 N   0  0  0  0  0  0  0  0  0  0  0  0
  -21.8045  -13.4340   19.7617 N   0  0  0  0  0  0  0  0  0  0  0  0
  -29.5521  -16.2475   21.7433 N   0  0  0  0  0  0  0  0  0  0  0  0
  -25.9182  -22.5030   16.8405 N   0  0  0  0  0  0  0  0  0  0  0  0
  -23.5529  -28.2691   19.2548 N   0  0  0  0  0  0  0  0  0  0  0  0
  -22.0124  -29.0138   22.4392 N   0  3  0  0  0  0  0  0  0  0  0  0
  -27.6696  -23.3719   25.3909 O   0  0  0  0  0  0  0  0  0  0  0  0
  -29.1576  -21.9815   23.7776 O   0  0  0  0  0  0  0  0  0  0  0  0
  -22.2462  -13.6774   21.9987 O   0  0  0  0  0  0  0  0  0  0  0  0
  -26.7844  -24.3203   18.0107 O   0  0  0  0  0  0  0  0  0  0  0  0
  -24.1757  -26.6715   16.6464 O   0  0  0  0  0  0  0  0  0  0  0  0
  -24.5366  -29.0664   21.1974 O   0  0  0  0  0  0  0  0  0  0  0  0
  -31.5344  -15.5752   20.7431 O   0  0  0  0  0  0  0  0  0  0  0  0
  -21.8976   -6.8424   21.6721 O   0  0  0  0  0  0  0  0  0  0  0  0
  -24.8519  -22.7021   24.1060 O   0  0  0  0  0  0  0  0  0  1  0  0
  -16.8699   -7.1399   23.9166 F   0  0  0  0  0  0  0  0  0  0  0  0
  -32.9866  -18.5665   24.1622 F   0  0  0  0  0  0  0  0  0  0  0  0
  -21.3626   -5.6626   24.1143 F   0  0  0  0  0  0  0  0  0  0  0  0
  1  2  1  0  0  0  0
  1  5  2  0  0  0  0
  2  6  2  0  0  0  0
  3  8  2  0  0  0  0
  3 17  1  0  0  0  0
  4  9  1  0  0  0  0
  4 17  2  0  0  0  0
  5 19  1  0  0  0  0
  6 21  1  0  0  0  0
  7 10  2  0  0  0  0
  7 20  1  0  0  0  0
  8 26  1  0  0  0  0
  9 26  2  0  0  0  0
 10 27  1  0  0  0  0
 11 12  2  0  0  0  0
 11 28  1  0  0  0  0
 12 29  1  0  0  0  0
 13 22  1  0  0  0  0
 13 27  2  0  0  0  0
 14 24  1  0  0  0  0
 14 25  2  0  0  0  0
 15 25  1  0  0  0  0
 15 30  2  0  0  0  0
 16 29  2  0  0  0  0
 16 31  1  0  0  0  0
 17 32  1  0  0  0  0
 18 32  1  0  0  0  0
 18 33  2  0  0  0  0
 18 36  1  0  0  0  0
 19 21  2  0  0  0  0
 19 41  1  0  0  0  0
 20 22  2  0  0  0  0
 20 42  1  0  0  0  0
 21 52  1  0  0  0  0
 22 43  1  0  0  0  0
 23 24  2  0  0  0  0
 23 30  1  0  0  0  0
 23 63  1  0  0  0  0
 24 70  1  0  0  0  0
 25 75  1  0  0  0  0
 26 86  1  0  0  0  0
 27 87  1  0  0  0  0
 28 31  2  0  0  0  0
 28 86  1  0  0  0  0
 29 88  1  0  0  0  0
 30 89  1  0  0  0  0
 31 90  1  0  0  0  0
 32 68  2  0  0  0  0
 33 69  1  0  0  0  0
 33 73  1  0  0  0  0
 34 35  1  0  0  0  0
 34 55  1  0  0  0  0
 34 79  2  0  0  0  0
 35 70  1  0  0  0  0
 35 80  2  0  0  0  0
 36 74  1  0  0  0  0
 36 81  2  0  0  0  0
 37 53  1  0  0  0  0
 37 76  1  0  0  0  0
 37 82  2  0  0  0  0
 38 65  1  0  0  0  0
 38 71  1  0  0  0  0
 38 83  2  0  0  0  0
 39 66  1  0  0  0  0
 39 77  1  0  0  0  0
 39 84  2  0  0  0  0
 40 72  1  0  0  0  0
 40 75  1  0  0  0  0
 40 85  2  0  0  0  0
 41 44  1  0  0  0  0
 42 53  1  0  0  0  0
 43 71  1  0  0  0  0
 44 46  1  0  0  0  0
 45 47  1  0  0  0  0
 45 49  1  0  0  0  0
 46 52  1  0  0  0  0
 47 54  1  0  0  0  0
 48 50  1  0  0  0  0
 48 55  1  0  0  0  0
 49 72  1  0  0  0  0
 50 70  1  0  0  0  0
 51 54  1  0  0  0  0
 51 72  1  0  0  0  0
 52 76  1  0  0  0  0
 53 71  1  0  0  0  0
 54 69  1  0  0  0  0
 55 56  1  0  0  0  0
 55 64  1  0  0  0  0
 57 63  1  0  0  0  0
 58 66  1  0  0  0  0
 59 67  1  0  0  0  0
 60 67  1  0  0  0  0
 61 67  1  0  0  0  0
 62 78  1  0  0  0  0
 64 87  1  0  0  0  0
 65 67  1  0  0  0  0
 65 77  1  0  0  0  0
 66 78  1  0  0  0  0
 68 69  1  0  0  0  0
M  CHG  1  78   1
M  ISO  4  40 100  64 101  75 100  87 101
M  END
> <Batch ID>
0069

> <Smiles>
CCc1c(F)cc([100NH:0][100C:0](=O)N2CCCC(n3nc(-c4ccc(Oc5ccc(F)cc5F)cc4)c(C(N)=O)c3N)C2)cc1N1CCC(C)([101CH2:1][101O:1]c2ccc3c(c2)CN(C(=O)C(NC(=O)C(C)NC)C(C)(C)C)C(C(=O)NC2CCCc4ccccc42)C3)C(=O)C1=O

> <Shape>
0.190

> <Color>
0.144

> <Negative vol penalty>
0.000

$$$$

  -OEChem-04042323303D

 83 91  0     1  0  0  0  0  0999 V2000
  -19.0425  -24.3629   23.2836 C   0  0  0  0  0  0  0  0  0  0  0  0
  -20.3576  -24.4747   22.8438 C   0  0  0  0  0  0  0  0  0  0  0  0
  -23.9367   -9.3372   21.7556 C   0  0  0  0  0  0  0  0  0  0  0  0
  -24.1270  -11.0395   23.4594 C   0  0  0  0  0  0  0  0  0  0  0  0
  -28.1838  -20.2410   19.2401 C   0  0  0  0  0  0  0  0  0  0  0  0
  -30.5747  -19.9547   19.4370 C   0  0  0  0  0  0  0  0  0  0  0  0
  -18.2205  -25.4886   23.3134 C   0  0  0  0  0  0  0  0  0  0  0  0
  -20.8511  -25.7123   22.4324 C   0  0  0  0  0  0  0  0  0  0  0  0
  -25.4622  -26.6796   24.2891 C   0  0  0  0  0  0  0  0  0  0  0  0
  -28.0250  -18.8578   19.1563 C   0  0  0  0  0  0  0  0  0  0  0  0
  -30.4159  -18.5715   19.3532 C   0  0  0  0  0  0  0  0  0  0  0  0
  -23.4207   -8.4497   22.6998 C   0  0  0  0  0  0  0  0  0  0  0  0
  -23.6110  -10.1520   24.4037 C   0  0  0  0  0  0  0  0  0  0  0  0
  -26.5423  -26.0514   23.6706 C   0  0  0  0  0  0  0  0  0  0  0  0
  -20.4589   -7.8851   24.2301 C   0  0  0  0  0  0  0  0  0  0  0  0
  -19.3406   -7.1333   23.8699 C   0  0  0  0  0  0  0  0  0  0  0  0
  -27.0136  -28.0776   22.4494 C   0  0  0  0  0  0  0  0  0  0  0  0
  -20.5942   -5.0986   24.2246 C   0  0  0  0  0  0  0  0  0  0  0  0
  -24.2900  -10.6321   22.1354 C   0  0  0  0  0  0  0  0  0  0  0  0
  -29.4586  -20.7895   19.3804 C   0  0  0  0  0  0  0  0  0  0  0  0
  -24.0999  -12.4430   20.3487 C   0  0  0  0  0  0  0  0  0  0  0  0
  -18.7071  -26.7425   22.9113 C   0  0  0  0  0  0  0  0  0  0  0  0
  -25.1425  -28.0104   23.9837 C   0  0  0  0  0  0  0  0  0  0  0  0
  -20.0344  -26.8557   22.4556 C   0  0  0  0  0  0  0  0  0  0  0  0
  -25.9305  -28.7212   23.0673 C   0  0  0  0  0  0  0  0  0  0  0  0
  -29.1411  -18.0230   19.2129 C   0  0  0  0  0  0  0  0  0  0  0  0
  -23.2578   -8.8571   24.0239 C   0  0  0  0  0  0  0  0  0  0  0  0
  -27.3164  -26.7495   22.7484 C   0  0  0  0  0  0  0  0  0  0  0  0
  -21.6449   -7.2436   24.5874 C   0  0  0  0  0  0  0  0  0  0  0  0
  -19.4082   -5.7400   23.8671 C   0  0  0  0  0  0  0  0  0  0  0  0
  -21.7125   -5.8504   24.5847 C   0  0  0  0  0  0  0  0  0  0  0  0
  -24.8236  -11.5492   21.1605 C   0  0  0  0  0  0  0  0  0  0  0  0
  -25.0592  -13.0833   19.6030 C   0  0  0  0  0  0  0  0  0  0  0  0
  -29.6269  -22.2546   19.4690 C   0  0  0  0  0  0  0  0  0  0  0  0
  -22.6867  -12.6738   20.2752 C   0  0  0  0  0  0  0  0  0  0  0  0
  -22.6242  -29.4782   22.7160 C   0  0  0  0  0  0  0  0  0  0  0  0
  -24.2944  -32.1547   23.4707 C   0  0  0  0  0  0  0  0  0  0  0  0
  -29.0609  -24.3221   20.7242 C   0  0  0  0  0  0  0  0  0  0  0  0
  -27.3206  -33.5980   24.1078 C   0  0  0  0  0  0  0  0  0  0  0  0
  -29.9819  -15.6487   19.1675 C   0  0  0  0  0  0  0  0  0  0  0  0
  -17.7668  -27.9217   22.9163 C   0  0  0  0  0  0  0  0  0  0  0  0
  -23.9905  -28.6820   24.6795 C   0  0  0  0  0  0  0  0  0  0  0  0
  -25.6416  -30.1580   22.7199 C   0  0  0  0  0  0  0  0  0  0  0  0
  -18.4784  -29.2686   22.8181 C   0  0  0  0  0  0  0  0  0  0  0  0
  -29.9892  -12.0910   19.0265 C   0  0  0  0  0  0  0  0  0  0  0  0
  -19.5370  -29.2342   21.7203 C   0  0  0  0  0  0  0  0  0  0  0  0
  -28.5864  -11.7064   19.5023 C   0  0  0  0  0  0  0  0  0  0  0  0
  -30.5312  -13.3040   19.7805 C   0  0  0  0  0  0  0  0  0  0  0  0
  -28.2471  -14.0940   20.2580 C   0  0  0  0  0  0  0  0  0  0  0  0
  -20.6137  -28.1857   22.0247 C   0  0  1  0  0  0  0  0  0  0  0  0
  -23.4438  -29.8802   23.9095 C   0  0  1  0  0  0  0  0  0  0  0  0
  -27.6329  -12.9172   19.4824 C   0  0  2  0  0  0  0  0  0  0  0  0
  -28.3719  -35.8098   24.6554 C   0  0  0  0  0  0  0  0  0  0  0  0
  -23.9686  -33.0263   20.5648 C   0  0  0  0  0  0  0  0  0  0  0  0
  -25.7931  -34.7002   20.9352 C   0  0  0  0  0  0  0  0  0  0  0  0
  -23.6744  -34.8575   22.2424 C   0  0  0  0  0  0  0  0  0  0  0  0
  -28.3615  -32.5950   26.6903 C   0  0  0  0  0  0  0  0  0  0  0  0
  -28.2780  -24.7284   21.9443 C   0  0  0  0  0  0  0  0  0  1  0  0
  -25.3191  -33.0099   22.7652 C   0  0  1  0  0  0  0  0  0  0  0  0
  -27.7801  -34.5266   25.2173 C   0  0  2  0  0  0  0  0  0  0  0  0
  -24.6933  -33.8708   21.6318 C   0  0  0  0  0  0  0  0  0  0  0  0
  -26.1411  -11.6130   20.9504 N   0  0  0  0  0  0  0  0  0  0  0  0
  -26.2528  -12.5545   19.9979 N   0  0  0  0  0  0  0  0  0  0  0  0
  -24.5007  -30.7687   23.4220 N   0  0  0  0  0  0  0  0  0  0  0  0
  -29.5768  -14.4130   19.7150 N   0  0  0  0  0  0  0  0  0  0  0  0
  -24.9899  -14.0414   18.6545 N   0  0  0  0  0  0  0  0  0  0  0  0
  -21.8438  -11.9296   21.1118 N   0  0  0  0  0  0  0  0  0  0  0  0
  -28.9800  -16.6178   19.1278 N   0  0  0  0  0  0  0  0  0  0  0  0
  -29.0241  -22.9000   20.4771 N   0  0  0  0  0  0  0  0  0  0  0  0
  -21.5361  -28.6835   23.0226 N   0  0  0  0  0  0  0  0  0  0  0  0
  -25.9887  -33.7851   23.8040 N   0  0  0  0  0  0  0  0  0  0  0  0
  -30.3732  -22.8505   18.5394 N   0  3  0  0  0  0  0  0  0  0  0  0
  -28.8157  -33.8591   26.0558 N   0  3  0  0  0  0  0  0  0  0  0  0
  -22.1850  -13.5034   19.4792 O   0  0  0  0  0  0  0  0  0  0  0  0
  -22.9537  -29.8620   21.5999 O   0  0  0  0  0  0  0  0  0  0  0  0
  -23.3498  -32.6968   24.0498 O   0  0  0  0  0  0  0  0  0  0  0  0
  -29.6762  -25.0875   19.9960 O   0  0  0  0  0  0  0  0  0  0  0  0
  -28.0693  -32.7902   23.5624 O   0  0  0  0  0  0  0  0  0  0  0  0
  -31.1251  -15.8249   18.7386 O   0  0  0  0  0  0  0  0  0  0  0  0
  -22.7541   -7.9914   24.9455 O   0  0  0  0  0  0  0  0  0  0  0  0
  -28.3708  -26.1385   22.1428 O   0  0  0  0  0  0  0  0  0  1  0  0
  -18.3337   -5.0182   23.5227 F   0  0  0  0  0  0  0  0  0  0  0  0
  -22.8488   -5.2286   24.9282 F   0  0  0  0  0  0  0  0  0  0  0  0
  1  2  1  0  0  0  0
  1  7  2  0  0  0  0
  2  8  2  0  0  0  0
  3 12  2  0  0  0  0
  3 19  1  0  0  0  0
  4 13  1  0  0  0  0
  4 19  2  0  0  0  0
  5 10  2  0  0  0  0
  5 20  1  0  0  0  0
  6 11  1  0  0  0  0
  6 20  2  0  0  0  0
  7 22  1  0  0  0  0
  8 24  1  0  0  0  0
  9 14  2  0  0  0  0
  9 23  1  0  0  0  0
 10 26  1  0  0  0  0
 11 26  2  0  0  0  0
 12 27  1  0  0  0  0
 13 27  2  0  0  0  0
 14 28  1  0  0  0  0
 15 16  2  0  0  0  0
 15 29  1  0  0  0  0
 16 30  1  0  0  0  0
 17 25  1  0  0  0  0
 17 28  2  0  0  0  0
 18 30  2  0  0  0  0
 18 31  1  0  0  0  0
 19 32  1  0  0  0  0
 20 34  1  0  0  0  0
 21 32  1  0  0  0  0
 21 33  2  0  0  0  0
 21 35  1  0  0  0  0
 22 24  2  0  0  0  0
 22 41  1  0  0  0  0
 23 25  2  0  0  0  0
 23 42  1  0  0  0  0
 24 50  1  0  0  0  0
 25 43  1  0  0  0  0
 26 68  1  0  0  0  0
 27 80  1  0  0  0  0
 28 81  1  0  0  0  0
 29 31  2  0  0  0  0
 29 80  1  0  0  0  0
 30 82  1  0  0  0  0
 31 83  1  0  0  0  0
 32 62  2  0  0  0  0
 33 63  1  0  0  0  0
 33 66  1  0  0  0  0
 34 69  1  0  0  0  0
 34 72  2  0  0  0  0
 35 67  1  0  0  0  0
 35 74  2  0  0  0  0
 36 51  1  0  0  0  0
 36 70  1  0  0  0  0
 36 75  2  0  0  0  0
 37 59  1  0  0  0  0
 37 64  1  0  0  0  0
 37 76  2  0  0  0  0
 38 58  1  0  0  0  0
 38 69  1  0  0  0  0
 38 77  2  0  0  0  0
 39 60  1  0  0  0  0
 39 71  1  0  0  0  0
 39 78  2  0  0  0  0
 40 65  1  0  0  0  0
 40 68  1  0  0  0  0
 40 79  2  0  0  0  0
 41 44  1  0  0  0  0
 42 51  1  0  0  0  0
 43 64  1  0  0  0  0
 44 46  1  0  0  0  0
 45 47  1  0  0  0  0
 45 48  1  0  0  0  0
 46 50  1  0  0  0  0
 47 52  1  0  0  0  0
 48 65  1  0  0  0  0
 49 52  1  0  0  0  0
 49 65  1  0  0  0  0
 50 70  1  0  0  0  0
 51 64  1  0  0  0  0
 52 63  1  0  0  0  0
 53 60  1  0  0  0  0
 54 61  1  0  0  0  0
 55 61  1  0  0  0  0
 56 61  1  0  0  0  0
 57 73  1  0  0  0  0
 58 81  1  0  0  0  0
 59 61  1  0  0  0  0
 59 71  1  0  0  0  0
 60 73  1  0  0  0  0
 62 63  1  0  0  0  0
M  CHG  2  72   1  73   1
M  ISO  4  40 100  58 101  68 100  81 101
M  END
> <Batch ID>
0069

> <Smiles>
CNC(C)C(=O)NC(C(=O)N1Cc2cc([101O:1][101CH2:1]C(=O)NC(=N)c3ccc([100NH:0][100C:0](=O)N4CCCC(n5nc(-c6ccc(Oc7ccc(F)cc7F)cc6)c(C(N)=O)c5N)C4)cc3)ccc2CC1C(=O)NC1CCCc2ccccc21)C(C)(C)C

> <Shape>
0.321

> <Color>
0.113

> <Negative vol penalty>
0.000

$$$$

  -OEChem-04042323303D

 86 95  0     1  0  0  0  0  0999 V2000
  -27.2856  -32.9855   25.8299 C   0  0  0  0  0  0  0  0  0  0  0  0
  -27.7336  -32.0788   24.8746 C   0  0  0  0  0  0  0  0  0  0  0  0
  -26.6207  -12.5082   21.8486 C   0  0  0  0  0  0  0  0  0  0  0  0
  -25.7295  -14.1571   20.3242 C   0  0  0  0  0  0  0  0  0  0  0  0
  -26.4158  -32.5646   26.8350 C   0  0  0  0  0  0  0  0  0  0  0  0
  -27.3129  -30.7503   24.9245 C   0  0  0  0  0  0  0  0  0  0  0  0
  -25.9670  -28.9665   20.3801 C   0  0  0  0  0  0  0  0  0  0  0  0
  -28.9739  -22.9195   19.3409 C   0  0  0  0  0  0  0  0  0  0  0  0
  -28.7201  -21.8554   20.2063 C   0  0  0  0  0  0  0  0  0  0  0  0
  -25.3813  -11.8692   21.8821 C   0  0  0  0  0  0  0  0  0  0  0  0
  -24.4901  -13.5181   20.3576 C   0  0  0  0  0  0  0  0  0  0  0  0
  -26.9933  -28.6013   19.5100 C   0  0  0  0  0  0  0  0  0  0  0  0
  -23.6138   -9.7570   19.9206 C   0  0  0  0  0  0  0  0  0  0  0  0
  -23.5979   -8.3669   19.8078 C   0  0  0  0  0  0  0  0  0  0  0  0
  -26.6658  -26.2866   20.1050 C   0  0  0  0  0  0  0  0  0  0  0  0
  -30.6168  -22.5012   21.5564 C   0  0  0  0  0  0  0  0  0  0  0  0
  -22.5353   -8.2036   21.9715 C   0  0  0  0  0  0  0  0  0  0  0  0
  -26.7948  -13.6521   21.0697 C   0  0  0  0  0  0  0  0  0  0  0  0
  -29.1363  -14.0637   20.1447 C   0  0  0  0  0  0  0  0  0  0  0  0
  -25.9766  -31.2324   26.8916 C   0  0  0  0  0  0  0  0  0  0  0  0
  -25.2886  -27.9940   21.1286 C   0  0  0  0  0  0  0  0  0  0  0  0
  -26.4375  -30.3108   25.9321 C   0  0  0  0  0  0  0  0  0  0  0  0
  -25.6296  -26.6418   20.9819 C   0  0  0  0  0  0  0  0  0  0  0  0
  -30.0492  -23.7743   19.5831 C   0  0  0  0  0  0  0  0  0  0  0  0
  -29.5415  -21.6463   21.3141 C   0  0  0  0  0  0  0  0  0  0  0  0
  -24.3159  -12.3742   21.1366 C   0  0  0  0  0  0  0  0  0  0  0  0
  -27.3448  -27.2615   19.3745 C   0  0  0  0  0  0  0  0  0  0  0  0
  -23.0906  -10.3705   21.0588 C   0  0  0  0  0  0  0  0  0  0  0  0
  -23.0586   -7.5901   20.8333 C   0  0  0  0  0  0  0  0  0  0  0  0
  -30.8706  -23.5652   20.6909 C   0  0  0  0  0  0  0  0  0  0  0  0
  -22.5513   -9.5938   22.0842 C   0  0  0  0  0  0  0  0  0  0  0  0
  -28.0748  -14.3129   21.0351 C   0  0  0  0  0  0  0  0  0  0  0  0
  -30.1176  -14.9465   20.5246 C   0  0  0  0  0  0  0  0  0  0  0  0
  -30.0231  -24.9039   17.3189 C   0  0  0  0  0  0  0  0  0  0  0  0
  -29.2273  -13.1189   19.0702 C   0  0  0  0  0  0  0  0  0  0  0  0
  -24.9227  -27.4020   24.2301 C   0  0  0  0  0  0  0  0  0  0  0  0
  -22.8693  -25.1318   23.1566 C   0  0  0  0  0  0  0  0  0  0  0  0
  -21.8985  -23.0722   20.6145 C   0  0  0  0  0  0  0  0  0  0  0  0
  -30.0006  -20.2172   23.3373 C   0  0  0  0  0  0  0  0  0  0  0  0
  -25.0736  -30.8133   28.0246 C   0  0  0  0  0  0  0  0  0  0  0  0
  -24.1659  -28.4016   22.0428 C   0  0  0  0  0  0  0  0  0  0  0  0
  -24.9186  -25.5571   21.7476 C   0  0  0  0  0  0  0  0  0  0  0  0
  -30.5547  -26.2161   16.7860 C   0  0  0  0  0  0  0  0  0  0  0  0
  -24.3795  -29.4746   27.7869 C   0  0  0  0  0  0  0  0  0  0  0  0
  -31.7602  -17.2960   24.3608 C   0  0  0  0  0  0  0  0  0  0  0  0
  -25.3775  -28.4384   27.2799 C   0  0  0  0  0  0  0  0  0  0  0  0
  -31.1155  -16.1778   23.5386 C   0  0  0  0  0  0  0  0  0  0  0  0
  -30.7363  -18.3436   24.7944 C   0  0  0  0  0  0  0  0  0  0  0  0
  -29.2819  -17.7894   22.8848 C   0  0  0  0  0  0  0  0  0  0  0  0
  -30.9911  -26.0673   19.1294 C   0  0  0  0  0  0  0  0  0  0  0  0
  -25.9841  -28.8670   25.9383 C   0  0  1  0  0  0  0  0  0  0  0  0
  -23.8882  -27.3793   23.1406 C   0  0  1  0  0  0  0  0  0  0  0  0
  -30.2852  -16.7443   22.3702 C   0  0  2  0  0  0  0  0  0  0  0  0
  -30.7027  -27.0946   18.0318 C   0  0  1  0  0  0  0  0  0  0  0  0
  -31.8483  -28.0969   17.8830 C   0  0  0  0  0  0  0  0  0  0  0  0
  -20.2108  -21.3039   20.0471 C   0  0  0  0  0  0  0  0  0  0  0  0
  -24.4341  -23.1082   24.8198 C   0  0  0  0  0  0  0  0  0  0  0  0
  -23.3393  -21.2828   23.5016 C   0  0  0  0  0  0  0  0  0  0  0  0
  -21.9509  -22.8200   24.8916 C   0  0  0  0  0  0  0  0  0  0  0  0
  -20.7647  -24.6959   18.4151 C   0  0  0  0  0  0  0  0  0  0  0  0
  -29.3937  -27.8496   18.3199 C   0  0  0  0  0  0  0  0  0  1  0  0
  -22.9933  -23.6817   22.7556 C   0  0  1  0  0  0  0  0  0  0  0  0
  -20.5340  -22.7895   20.0124 C   0  0  2  0  0  0  0  0  0  0  0  0
  -23.1943  -22.7435   23.9790 C   0  0  0  0  0  0  0  0  0  0  0  0
  -28.3552  -15.2783   21.9146 N   0  0  0  0  0  0  0  0  0  0  0  0
  -29.6042  -15.6434   21.5787 N   0  0  0  0  0  0  0  0  0  0  0  0
  -30.3065  -24.8622   18.6958 N   0  0  0  0  0  0  0  0  0  0  0  0
  -23.8321  -26.0067   22.6336 N   0  0  0  0  0  0  0  0  0  0  0  0
  -29.9907  -18.8381   23.6350 N   0  0  0  0  0  0  0  0  0  0  0  0
  -31.3608  -15.1868   20.0566 N   0  0  0  0  0  0  0  0  0  0  0  0
  -28.1274  -12.2883   18.8160 N   0  0  0  0  0  0  0  0  0  0  0  0
  -29.2835  -20.5653   22.1931 N   0  0  0  0  0  0  0  0  0  0  0  0
  -25.0490  -28.6251   24.8605 N   0  0  0  0  0  0  0  0  0  0  0  0
  -21.8115  -23.3767   21.9565 N   0  0  0  0  0  0  0  0  0  0  0  0
  -20.4883  -23.2474   18.5949 N   0  3  0  0  0  0  0  0  0  0  0  0
  -29.5067  -24.0643   16.5956 O   0  0  0  0  0  0  0  0  0  0  0  0
  -30.2597  -13.0029   18.3671 O   0  0  0  0  0  0  0  0  0  0  0  0
  -25.5581  -26.3847   24.4813 O   0  0  0  0  0  0  0  0  0  0  0  0
  -21.9479  -25.4768   23.9006 O   0  0  0  0  0  0  0  0  0  0  0  0
  -22.9381  -23.0239   19.9606 O   0  0  0  0  0  0  0  0  0  0  0  0
  -30.6235  -21.0261   24.0299 O   0  0  0  0  0  0  0  0  0  0  0  0
  -23.1064  -11.7509   21.1689 O   0  0  0  0  0  0  0  0  0  0  0  0
  -28.3466  -26.9023   18.5264 O   0  0  0  0  0  0  0  0  0  1  0  0
  -23.0420   -6.2552   20.7242 F   0  0  0  0  0  0  0  0  0  0  0  0
  -31.9074  -24.3801   20.9333 F   0  0  0  0  0  0  0  0  0  0  0  0
  -22.0461  -10.1775   23.1796 F   0  0  0  0  0  0  0  0  0  0  0  0
  1  2  1  0  0  0  0
  1  5  2  0  0  0  0
  2  6  2  0  0  0  0
  3 10  2  0  0  0  0
  3 18  1  0  0  0  0
  4 11  1  0  0  0  0
  4 18  2  0  0  0  0
  5 20  1  0  0  0  0
  6 22  1  0  0  0  0
  7 12  2  0  0  0  0
  7 21  1  0  0  0  0
  8  9  2  0  0  0  0
  8 24  1  0  0  0  0
  9 25  1  0  0  0  0
 10 26  1  0  0  0  0
 11 26  2  0  0  0  0
 12 27  1  0  0  0  0
 13 14  2  0  0  0  0
 13 28  1  0  0  0  0
 14 29  1  0  0  0  0
 15 23  1  0  0  0  0
 15 27  2  0  0  0  0
 16 25  2  0  0  0  0
 16 30  1  0  0  0  0
 17 29  2  0  0  0  0
 17 31  1  0  0  0  0
 18 32  1  0  0  0  0
 19 32  1  0  0  0  0
 19 33  2  0  0  0  0
 19 35  1  0  0  0  0
 20 22  2  0  0  0  0
 20 40  1  0  0  0  0
 21 23  2  0  0  0  0
 21 41  1  0  0  0  0
 22 51  1  0  0  0  0
 23 42  1  0  0  0  0
 24 30  2  0  0  0  0
 24 67  1  0  0  0  0
 25 72  1  0  0  0  0
 26 82  1  0  0  0  0
 27 83  1  0  0  0  0
 28 31  2  0  0  0  0
 28 82  1  0  0  0  0
 29 84  1  0  0  0  0
 30 85  1  0  0  0  0
 31 86  1  0  0  0  0
 32 65  2  0  0  0  0
 33 66  1  0  0  0  0
 33 70  1  0  0  0  0
 34 43  1  0  0  0  0
 34 67  1  0  0  0  0
 34 76  2  0  0  0  0
 35 71  1  0  0  0  0
 35 77  2  0  0  0  0
 36 52  1  0  0  0  0
 36 73  1  0  0  0  0
 36 78  2  0  0  0  0
 37 62  1  0  0  0  0
 37 68  1  0  0  0  0
 37 79  2  0  0  0  0
 38 63  1  0  0  0  0
 38 74  1  0  0  0  0
 38 80  2  0  0  0  0
 39 69  1  0  0  0  0
 39 72  1  0  0  0  0
 39 81  2  0  0  0  0
 40 44  1  0  0  0  0
 41 52  1  0  0  0  0
 42 68  1  0  0  0  0
 43 54  1  0  0  0  0
 44 46  1  0  0  0  0
 45 47  1  0  0  0  0
 45 48  1  0  0  0  0
 46 51  1  0  0  0  0
 47 53  1  0  0  0  0
 48 69  1  0  0  0  0
 49 53  1  0  0  0  0
 49 69  1  0  0  0  0
 50 54  1  0  0  0  0
 50 67  1  0  0  0  0
 51 73  1  0  0  0  0
 52 68  1  0  0  0  0
 53 66  1  0  0  0  0
 54 55  1  0  0  0  0
 54 61  1  0  0  0  0
 56 63  1  0  0  0  0
 57 64  1  0  0  0  0
 58 64  1  0  0  0  0
 59 64  1  0  0  0  0
 60 75  1  0  0  0  0
 61 83  1  0  0  0  0
 62 64  1  0  0  0  0
 62 74  1  0  0  0  0
 63 75  1  0  0  0  0
 65 66  1  0  0  0  0
M  CHG  1  75   1
M  ISO  4  39 100  61 101  72 100  83 101
M  END
> <Batch ID>
0069

> <Smiles>
CNC(C)C(=O)NC(C(=O)N1Cc2cc([101O:1][101CH2:1]C3(C)CC(=O)N(c4ccc([100NH:0][100C:0](=O)N5CCCC(n6nc(-c7ccc(Oc8ccc(F)cc8F)cc7)c(C(N)=O)c6N)C5)cc4F)C3)ccc2CC1C(=O)NC1CCCc2ccccc21)C(C)(C)C

> <Shape>
0.262

> <Color>
0.055

> <Negative vol penalty>
0.000

$$$$

  -OEChem-04042323303D

 85 94  0     1  0  0  0  0  0999 V2000
  -24.4223  -31.7878   20.8890 C   0  0  0  0  0  0  0  0  0  0  0  0
  -25.5574  -31.4698   21.6262 C   0  0  0  0  0  0  0  0  0  0  0  0
  -21.4948  -21.6051   20.8003 C   0  0  0  0  0  0  0  0  0  0  0  0
  -19.6324  -20.3898   21.7445 C   0  0  0  0  0  0  0  0  0  0  0  0
  -23.7000  -30.7772   20.2579 C   0  0  0  0  0  0  0  0  0  0  0  0
  -25.9773  -30.1427   21.7227 C   0  0  0  0  0  0  0  0  0  0  0  0
  -30.2154  -22.9979   22.3483 C   0  0  0  0  0  0  0  0  0  0  0  0
  -21.2831  -22.6385   21.7128 C   0  0  0  0  0  0  0  0  0  0  0  0
  -19.4207  -21.4233   22.6571 C   0  0  0  0  0  0  0  0  0  0  0  0
  -30.0834  -21.7272   21.7898 C   0  0  0  0  0  0  0  0  0  0  0  0
  -19.1744  -25.2564   22.0656 C   0  0  0  0  0  0  0  0  0  0  0  0
  -19.2081  -26.5642   21.5818 C   0  0  0  0  0  0  0  0  0  0  0  0
  -29.4821  -22.7248   19.6773 C   0  0  0  0  0  0  0  0  0  0  0  0
  -29.2302  -13.6680   20.2556 C   0  0  0  0  0  0  0  0  0  0  0  0
  -27.4323  -15.2817   20.2431 C   0  0  0  0  0  0  0  0  0  0  0  0
  -26.9366  -12.9221   20.3973 C   0  0  0  0  0  0  0  0  0  0  0  0
  -21.0405  -27.0687   23.0734 C   0  0  0  0  0  0  0  0  0  0  0  0
  -20.6694  -20.4807   20.8161 C   0  0  0  0  0  0  0  0  0  0  0  0
  -20.8467  -19.4979   18.4687 C   0  0  0  0  0  0  0  0  0  0  0  0
  -24.1050  -29.4359   20.3576 C   0  0  0  0  0  0  0  0  0  0  0  0
  -29.9706  -24.1432   21.5771 C   0  0  0  0  0  0  0  0  0  0  0  0
  -25.2754  -29.1112   21.0732 C   0  0  0  0  0  0  0  0  0  0  0  0
  -29.6141  -24.0088   20.2277 C   0  0  0  0  0  0  0  0  0  0  0  0
  -28.7962  -14.9924   20.2000 C   0  0  0  0  0  0  0  0  0  0  0  0
  -28.3005  -12.6328   20.3542 C   0  0  0  0  0  0  0  0  0  0  0  0
  -26.5025  -14.2466   20.3417 C   0  0  0  0  0  0  0  0  0  0  0  0
  -20.2461  -22.5476   22.6413 C   0  0  0  0  0  0  0  0  0  0  0  0
  -29.7140  -21.5905   20.4550 C   0  0  0  0  0  0  0  0  0  0  0  0
  -20.0737  -24.8547   23.0533 C   0  0  0  0  0  0  0  0  0  0  0  0
  -20.1412  -27.4704   22.0856 C   0  0  0  0  0  0  0  0  0  0  0  0
  -21.0067  -25.7609   23.5572 C   0  0  0  0  0  0  0  0  0  0  0  0
  -20.8872  -19.4131   19.8733 C   0  0  0  0  0  0  0  0  0  0  0  0
  -21.1181  -18.2217   18.0397 C   0  0  0  0  0  0  0  0  0  0  0  0
  -30.5993  -18.2006   19.9517 C   0  0  0  0  0  0  0  0  0  0  0  0
  -31.1462  -15.9205   20.0484 C   0  0  0  0  0  0  0  0  0  0  0  0
  -30.6796  -19.5347   19.8962 C   0  0  0  0  0  0  0  0  0  1  0  0
  -20.5871  -20.6292   17.6270 C   0  0  0  0  0  0  0  0  0  0  0  0
  -27.8925  -26.5440   21.7234 C   0  0  0  0  0  0  0  0  0  0  0  0
  -29.6613  -27.7107   19.2673 C   0  0  0  0  0  0  0  0  0  0  0  0
  -31.2238  -26.3988   16.2916 C   0  0  0  0  0  0  0  0  0  0  0  0
  -24.0633  -13.6331   20.4841 C   0  0  0  0  0  0  0  0  0  0  0  0
  -23.2906  -28.3830   19.6481 C   0  0  0  0  0  0  0  0  0  0  0  0
  -30.1433  -25.5072   22.1872 C   0  0  0  0  0  0  0  0  0  0  0  0
  -29.3599  -25.2072   19.3515 C   0  0  0  0  0  0  0  0  0  0  0  0
  -31.7758  -17.2891   19.9409 C   0  0  0  0  0  0  0  0  0  0  0  0
  -29.3236  -17.4393   20.0389 C   0  0  0  0  0  0  0  0  0  0  0  0
  -23.5546  -26.9748   20.1710 C   0  0  0  0  0  0  0  0  0  0  0  0
  -20.6773  -13.6462   19.3831 C   0  0  0  0  0  0  0  0  0  0  0  0
  -25.0524  -26.7147   20.2307 C   0  0  0  0  0  0  0  0  0  0  0  0
  -20.3451  -15.1342   19.2502 C   0  0  0  0  0  0  0  0  0  0  0  0
  -21.5936  -13.3739   20.5748 C   0  0  0  0  0  0  0  0  0  0  0  0
  -22.4889  -15.6670   20.4779 C   0  0  0  0  0  0  0  0  0  0  0  0
  -25.7338  -27.6713   21.2174 C   0  0  1  0  0  0  0  0  0  0  0  0
  -29.3688  -26.5944   21.4486 C   0  0  1  0  0  0  0  0  0  0  0  0
  -21.6210  -15.9989   19.2531 C   0  0  2  0  0  0  0  0  0  0  0  0
  -33.2192  -27.2097   15.0037 C   0  0  0  0  0  0  0  0  0  0  0  0
  -27.6014  -29.1860   17.5672 C   0  0  0  0  0  0  0  0  0  0  0  0
  -28.9834  -28.6477   15.5502 C   0  0  0  0  0  0  0  0  0  0  0  0
  -29.9357  -30.0618   17.3712 C   0  0  0  0  0  0  0  0  0  0  0  0
  -32.5770  -23.7759   16.5114 C   0  0  0  0  0  0  0  0  0  0  0  0
  -29.6171  -27.5846   17.7636 C   0  0  1  0  0  0  0  0  0  0  0  0
  -32.7121  -26.2264   16.0472 C   0  0  2  0  0  0  0  0  0  0  0  0
  -29.0249  -28.8492   17.0800 C   0  0  0  0  0  0  0  0  0  0  0  0
  -21.1624  -18.1804   20.3077 N   0  0  0  0  0  0  0  0  0  0  0  0
  -21.2973  -17.4789   19.1694 N   0  0  0  0  0  0  0  0  0  0  0  0
  -29.7503  -16.0559   20.1001 N   0  0  0  0  0  0  0  0  0  0  0  0
  -29.5355  -26.5193   19.9957 N   0  0  0  0  0  0  0  0  0  0  0  0
  -22.7831  -14.2257   20.5083 N   0  0  0  0  0  0  0  0  0  0  0  0
  -28.7388  -11.2935   20.4105 N   0  0  0  0  0  0  0  0  0  0  0  0
  -21.2185  -17.6737   16.8101 N   0  0  0  0  0  0  0  0  0  0  0  0
  -19.2625  -20.8942   17.2536 N   0  0  0  0  0  0  0  0  0  0  0  0
  -25.1172  -14.5410   20.3870 N   0  0  0  0  0  0  0  0  0  0  0  0
  -27.1683  -27.5366   21.0912 N   0  0  0  0  0  0  0  0  0  0  0  0
  -30.9747  -27.2575   17.3413 N   0  0  0  0  0  0  0  0  0  0  0  0
  -33.0022  -24.8444   15.5709 N   0  3  0  0  0  0  0  0  0  0  0  0
  -31.8325  -14.9067   20.0769 O   0  0  0  0  0  0  0  0  0  0  0  0
  -21.5046  -21.3732   17.2047 O   0  0  0  0  0  0  0  0  0  0  0  0
  -27.4435  -25.6684   22.4537 O   0  0  0  0  0  0  0  0  0  0  0  0
  -29.8094  -28.8243   19.7767 O   0  0  0  0  0  0  0  0  0  0  0  0
  -30.3679  -25.8316   15.6162 O   0  0  0  0  0  0  0  0  0  0  0  0
  -24.2125  -12.4089   20.5176 O   0  0  0  0  0  0  0  0  0  0  0  0
  -20.0394  -23.5558   23.5321 O   0  0  0  0  0  0  0  0  0  0  0  0
  -29.5839  -20.3514   19.9075 O   0  0  0  0  0  0  0  0  0  1  0  0
  -20.1745  -28.7258   21.6198 F   0  0  0  0  0  0  0  0  0  0  0  0
  -21.8740  -25.3805   24.5053 F   0  0  0  0  0  0  0  0  0  0  0  0
  1  2  1  0  0  0  0
  1  5  2  0  0  0  0
  2  6  2  0  0  0  0
  3  8  2  0  0  0  0
  3 18  1  0  0  0  0
  4  9  1  0  0  0  0
  4 18  2  0  0  0  0
  5 20  1  0  0  0  0
  6 22  1  0  0  0  0
  7 10  2  0  0  0  0
  7 21  1  0  0  0  0
  8 27  1  0  0  0  0
  9 27  2  0  0  0  0
 10 28  1  0  0  0  0
 11 12  2  0  0  0  0
 11 29  1  0  0  0  0
 12 30  1  0  0  0  0
 13 23  1  0  0  0  0
 13 28  2  0  0  0  0
 14 24  1  0  0  0  0
 14 25  2  0  0  0  0
 15 24  2  0  0  0  0
 15 26  1  0  0  0  0
 16 25  1  0  0  0  0
 16 26  2  0  0  0  0
 17 30  2  0  0  0  0
 17 31  1  0  0  0  0
 18 32  1  0  0  0  0
 19 32  1  0  0  0  0
 19 33  2  0  0  0  0
 19 37  1  0  0  0  0
 20 22  2  0  0  0  0
 20 42  1  0  0  0  0
 21 23  2  0  0  0  0
 21 43  1  0  0  0  0
 22 53  1  0  0  0  0
 23 44  1  0  0  0  0
 24 66  1  0  0  0  0
 25 69  1  0  0  0  0
 26 72  1  0  0  0  0
 27 82  1  0  0  0  0
 28 83  1  0  0  0  0
 29 31  2  0  0  0  0
 29 82  1  0  0  0  0
 30 84  1  0  0  0  0
 31 85  1  0  0  0  0
 32 64  2  0  0  0  0
 33 65  1  0  0  0  0
 33 70  1  0  0  0  0
 34 36  2  0  0  0  0
 34 45  1  0  0  0  0
 34 46  1  0  0  0  0
 35 45  1  0  0  0  0
 35 66  1  0  0  0  0
 35 76  2  0  0  0  0
 36 83  1  0  0  0  0
 37 71  1  0  0  0  0
 37 77  2  0  0  0  0
 38 54  1  0  0  0  0
 38 73  1  0  0  0  0
 38 78  2  0  0  0  0
 39 61  1  0  0  0  0
 39 67  1  0  0  0  0
 39 79  2  0  0  0  0
 40 62  1  0  0  0  0
 40 74  1  0  0  0  0
 40 80  2  0  0  0  0
 41 68  1  0  0  0  0
 41 72  1  0  0  0  0
 41 81  2  0  0  0  0
 42 47  1  0  0  0  0
 43 54  1  0  0  0  0
 44 67  1  0  0  0  0
 46 66  1  0  0  0  0
 47 49  1  0  0  0  0
 48 50  1  0  0  0  0
 48 51  1  0  0  0  0
 49 53  1  0  0  0  0
 50 55  1  0  0  0  0
 51 68  1  0  0  0  0
 52 55  1  0  0  0  0
 52 68  1  0  0  0  0
 53 73  1  0  0  0  0
 54 67  1  0  0  0  0
 55 65  1  0  0  0  0
 56 62  1  0  0  0  0
 57 63  1  0  0  0  0
 58 63  1  0  0  0  0
 59 63  1  0  0  0  0
 60 75  1  0  0  0  0
 61 63  1  0  0  0  0
 61 74  1  0  0  0  0
 62 75  1  0  0  0  0
 64 65  1  0  0  0  0
M  CHG  1  75   1
M  ISO  4  36 101  41 100  72 100  83 101
M  END
> <Batch ID>
0069

> <Smiles>
CNC(C)C(=O)NC(C(=O)N1Cc2cc([101O:1][101CH:1]=C3CC(=O)N(c4cc(N)cc([100NH:0][100C:0](=O)N5CCCC(n6nc(-c7ccc(Oc8ccc(F)cc8F)cc7)c(C(N)=O)c6N)C5)c4)C3)ccc2CC1C(=O)NC1CCCc2ccccc21)C(C)(C)C

> <Shape>
0.234

> <Color>
0.066

> <Negative vol penalty>
0.000

$$$$

  -OEChem-04042323303D

 89 98  0     1  0  0  0  0  0999 V2000
  -14.3681  -23.2078   20.0020 C   0  0  0  0  0  0  0  0  0  0  0  0
  -15.6821  -23.0032   19.5932 C   0  0  0  0  0  0  0  0  0  0  0  0
  -23.0001   -9.8945   19.9811 C   0  0  0  0  0  0  0  0  0  0  0  0
  -23.7258   -9.9446   22.2850 C   0  0  0  0  0  0  0  0  0  0  0  0
  -14.0919  -23.4974   21.3375 C   0  0  0  0  0  0  0  0  0  0  0  0
  -16.7207  -23.0891   20.5196 C   0  0  0  0  0  0  0  0  0  0  0  0
  -23.1431  -20.2737   21.9832 C   0  0  0  0  0  0  0  0  0  0  0  0
  -22.2332   -8.7602   20.2473 C   0  0  0  0  0  0  0  0  0  0  0  0
  -22.9589   -8.8103   22.5512 C   0  0  0  0  0  0  0  0  0  0  0  0
  -24.4544  -20.6639   22.2516 C   0  0  0  0  0  0  0  0  0  0  0  0
  -23.2020   -5.4714   22.0785 C   0  0  0  0  0  0  0  0  0  0  0  0
  -23.7894   -4.4539   22.8302 C   0  0  0  0  0  0  0  0  0  0  0  0
  -23.8507  -21.0918   24.5476 C   0  0  0  0  0  0  0  0  0  0  0  0
  -31.8604  -18.3387   24.1681 C   0  0  0  0  0  0  0  0  0  0  0  0
  -32.0602  -16.5455   22.5613 C   0  0  0  0  0  0  0  0  0  0  0  0
  -22.0660   -4.6970   24.5059 C   0  0  0  0  0  0  0  0  0  0  0  0
  -23.7464  -10.4867   20.9999 C   0  0  0  0  0  0  0  0  0  0  0  0
  -24.1325  -13.0022   20.8244 C   0  0  0  0  0  0  0  0  0  0  0  0
  -15.1268  -23.5773   22.2827 C   0  0  0  0  0  0  0  0  0  0  0  0
  -22.1716  -20.3000   22.9941 C   0  0  0  0  0  0  0  0  0  0  0  0
  -16.4582  -23.3813   21.8688 C   0  0  0  0  0  0  0  0  0  0  0  0
  -22.5285  -20.6990   24.2901 C   0  0  0  0  0  0  0  0  0  0  0  0
  -30.4767  -18.3425   23.9919 C   0  0  0  0  0  0  0  0  0  0  0  0
  -32.6521  -17.4402   23.4528 C   0  0  0  0  0  0  0  0  0  0  0  0
  -30.6765  -16.5493   22.3851 C   0  0  0  0  0  0  0  0  0  0  0  0
  -22.2126   -8.2181   21.5324 C   0  0  0  0  0  0  0  0  0  0  0  0
  -24.8077  -21.0759   23.5332 C   0  0  0  0  0  0  0  0  0  0  0  0
  -22.0466   -6.1019   22.5405 C   0  0  0  0  0  0  0  0  0  0  0  0
  -23.2214   -4.0666   24.0439 C   0  0  0  0  0  0  0  0  0  0  0  0
  -21.4786   -5.7146   23.7541 C   0  0  0  0  0  0  0  0  0  0  0  0
  -29.8848  -17.4478   23.1004 C   0  0  0  0  0  0  0  0  0  0  0  0
  -24.5392  -11.6581   20.7254 C   0  0  0  0  0  0  0  0  0  0  0  0
  -25.2424  -13.7245   20.4599 C   0  0  0  0  0  0  0  0  0  0  0  0
  -29.9422  -19.7847   26.0072 C   0  0  0  0  0  0  0  0  0  0  0  0
  -22.8648  -13.5489   21.2113 C   0  0  0  0  0  0  0  0  0  0  0  0
  -19.4373  -21.8590   23.4374 C   0  0  0  0  0  0  0  0  0  0  0  0
  -19.2144  -19.9364   26.0405 C   0  0  0  0  0  0  0  0  0  0  0  0
  -20.8079  -18.0209   28.3725 C   0  0  0  0  0  0  0  0  0  0  0  0
  -30.7223  -14.6837   20.6928 C   0  0  0  0  0  0  0  0  0  0  0  0
  -14.7836  -23.9396   23.7060 C   0  0  0  0  0  0  0  0  0  0  0  0
  -20.7678  -19.8504   22.6949 C   0  0  0  0  0  0  0  0  0  0  0  0
  -21.5277  -20.7258   25.4154 C   0  0  0  0  0  0  0  0  0  0  0  0
  -15.9058  -23.6429   24.6974 C   0  0  0  0  0  0  0  0  0  0  0  0
  -29.6027  -12.2317   18.3666 C   0  0  0  0  0  0  0  0  0  0  0  0
  -17.2409  -24.1475   24.1592 C   0  0  0  0  0  0  0  0  0  0  0  0
  -28.1521  -11.9745   18.7810 C   0  0  0  0  0  0  0  0  0  0  0  0
  -30.5035  -12.4745   19.5762 C   0  0  0  0  0  0  0  0  0  0  0  0
  -28.5888  -13.2637   20.9104 C   0  0  0  0  0  0  0  0  0  0  0  0
  -28.3939  -19.7421   24.2182 C   0  0  0  0  0  0  0  0  0  0  0  0
  -17.6097  -23.4415   22.8488 C   0  0  1  0  0  0  0  0  0  0  0  0
  -19.7403  -20.4068   23.6759 C   0  0  1  0  0  0  0  0  0  0  0  0
  -27.6308  -13.0780   19.7223 C   0  0  2  0  0  0  0  0  0  0  0  0
  -28.7201  -20.6034   26.4410 C   0  0  0  0  0  0  0  0  0  0  0  0
  -28.0814  -20.9839   25.0681 C   0  0  1  0  0  0  0  0  0  0  0  0
  -29.1409  -21.7995   27.3017 C   0  0  0  0  0  0  0  0  0  0  0  0
  -27.8408  -19.6691   27.2967 C   0  0  0  0  0  0  0  0  0  0  0  0
  -28.7487  -22.2190   24.4193 C   0  0  0  0  0  0  0  0  0  0  0  0
  -20.3634  -16.6048   30.3960 C   0  0  0  0  0  0  0  0  0  0  0  0
  -18.8070  -22.4566   27.7117 C   0  0  0  0  0  0  0  0  0  0  0  0
  -19.3187  -21.1012   29.7536 C   0  0  0  0  0  0  0  0  0  0  0  0
  -17.3380  -20.5348   28.3469 C   0  0  0  0  0  0  0  0  0  0  0  0
  -21.9136  -15.6052   27.0682 C   0  0  0  0  0  0  0  0  0  0  0  0
  -26.5693  -21.2388   25.1227 C   0  0  0  0  0  0  0  0  0  1  0  0
  -19.6589  -20.0303   27.4802 C   0  0  1  0  0  0  0  0  0  0  0  0
  -20.5307  -16.6189   28.8845 C   0  0  2  0  0  0  0  0  0  0  0  0
  -18.7993  -21.0322   28.3016 C   0  0  0  0  0  0  0  0  0  0  0  0
  -25.8084  -11.5313   20.3289 N   0  0  0  0  0  0  0  0  0  0  0  0
  -26.2087  -12.8049   20.1755 N   0  0  0  0  0  0  0  0  0  0  0  0
  -29.6684  -19.2628   24.7259 N   0  0  0  0  0  0  0  0  0  0  0  0
  -20.1664  -20.2831   25.0713 N   0  0  0  0  0  0  0  0  0  0  0  0
  -29.9490  -13.5355   20.4199 N   0  0  0  0  0  0  0  0  0  0  0  0
  -34.0514  -17.4356   23.6309 N   0  0  0  0  0  0  0  0  0  0  0  0
  -25.4763  -15.0501   20.3581 N   0  0  0  0  0  0  0  0  0  0  0  0
  -21.8328  -12.6650   21.5549 N   0  0  0  0  0  0  0  0  0  0  0  0
  -30.0785  -15.6389   21.4788 N   0  0  0  0  0  0  0  0  0  0  0  0
  -18.1176  -22.1130   23.1160 N   0  0  0  0  0  0  0  0  0  0  0  0
  -19.6483  -18.6673   28.0004 N   0  0  0  0  0  0  0  0  0  0  0  0
  -21.6529  -15.7057   28.5273 N   0  3  0  0  0  0  0  0  0  0  0  0
  -30.9152  -19.6058   26.7269 O   0  0  0  0  0  0  0  0  0  0  0  0
  -22.6486  -14.7843   21.2355 O   0  0  0  0  0  0  0  0  0  0  0  0
  -20.3341  -22.6880   23.5390 O   0  0  0  0  0  0  0  0  0  0  0  0
  -18.0671  -19.5622   25.7850 O   0  0  0  0  0  0  0  0  0  0  0  0
  -21.9397  -18.4964   28.3124 O   0  0  0  0  0  0  0  0  0  0  0  0
  -31.8609  -14.8223   20.2386 O   0  0  0  0  0  0  0  0  0  0  0  0
  -21.4642   -7.1114   21.7926 O   0  0  0  0  0  0  0  0  0  0  0  0
  -26.0868  -21.4579   23.7977 O   0  0  0  0  0  0  0  0  0  1  0  0
  -23.7847   -3.0883   24.7649 F   0  0  0  0  0  0  0  0  0  0  0  0
  -20.3680   -6.3157   24.2026 F   0  0  0  0  0  0  0  0  0  0  0  0
  -28.5535  -17.4501   22.9319 F   0  0  0  0  0  0  0  0  0  0  0  0
  1  2  1  0  0  0  0
  1  5  2  0  0  0  0
  2  6  2  0  0  0  0
  3  8  2  0  0  0  0
  3 17  1  0  0  0  0
  4  9  1  0  0  0  0
  4 17  2  0  0  0  0
  5 19  1  0  0  0  0
  6 21  1  0  0  0  0
  7 10  2  0  0  0  0
  7 20  1  0  0  0  0
  8 26  1  0  0  0  0
  9 26  2  0  0  0  0
 10 27  1  0  0  0  0
 11 12  2  0  0  0  0
 11 28  1  0  0  0  0
 12 29  1  0  0  0  0
 13 22  1  0  0  0  0
 13 27  2  0  0  0  0
 14 23  1  0  0  0  0
 14 24  2  0  0  0  0
 15 24  1  0  0  0  0
 15 25  2  0  0  0  0
 16 29  2  0  0  0  0
 16 30  1  0  0  0  0
 17 32  1  0  0  0  0
 18 32  1  0  0  0  0
 18 33  2  0  0  0  0
 18 35  1  0  0  0  0
 19 21  2  0  0  0  0
 19 40  1  0  0  0  0
 20 22  2  0  0  0  0
 20 41  1  0  0  0  0
 21 50  1  0  0  0  0
 22 42  1  0  0  0  0
 23 31  2  0  0  0  0
 23 69  1  0  0  0  0
 24 72  1  0  0  0  0
 25 31  1  0  0  0  0
 25 75  1  0  0  0  0
 26 85  1  0  0  0  0
 27 86  1  0  0  0  0
 28 30  2  0  0  0  0
 28 85  1  0  0  0  0
 29 87  1  0  0  0  0
 30 88  1  0  0  0  0
 31 89  1  0  0  0  0
 32 67  2  0  0  0  0
 33 68  1  0  0  0  0
 33 73  1  0  0  0  0
 34 53  1  0  0  0  0
 34 69  1  0  0  0  0
 34 79  2  0  0  0  0
 35 74  1  0  0  0  0
 35 80  2  0  0  0  0
 36 51  1  0  0  0  0
 36 76  1  0  0  0  0
 36 81  2  0  0  0  0
 37 64  1  0  0  0  0
 37 70  1  0  0  0  0
 37 82  2  0  0  0  0
 38 65  1  0  0  0  0
 38 77  1  0  0  0  0
 38 83  2  0  0  0  0
 39 71  1  0  0  0  0
 39 75  1  0  0  0  0
 39 84  2  0  0  0  0
 40 43  1  0  0  0  0
 41 51  1  0  0  0  0
 42 70  1  0  0  0  0
 43 45  1  0  0  0  0
 44 46  1  0  0  0  0
 44 47  1  0  0  0  0
 45 50  1  0  0  0  0
 46 52  1  0  0  0  0
 47 71  1  0  0  0  0
 48 52  1  0  0  0  0
 48 71  1  0  0  0  0
 49 54  1  0  0  0  0
 49 69  1  0  0  0  0
 50 76  1  0  0  0  0
 51 70  1  0  0  0  0
 52 68  1  0  0  0  0
 53 54  1  0  0  0  0
 53 55  1  0  0  0  0
 53 56  1  0  0  0  0
 54 57  1  0  0  0  0
 54 63  1  0  0  0  0
 58 65  1  0  0  0  0
 59 66  1  0  0  0  0
 60 66  1  0  0  0  0
 61 66  1  0  0  0  0
 62 78  1  0  0  0  0
 63 86  1  0  0  0  0
 64 66  1  0  0  0  0
 64 77  1  0  0  0  0
 65 78  1  0  0  0  0
 67 68  1  0  0  0  0
M  CHG  1  78   1
M  ISO  4  39 100  63 101  75 100  86 101
M  END
> <Batch ID>
0069

> <Smiles>
CNC(C)C(=O)NC(C(=O)N1Cc2cc([101O:1][101CH2:1]C3(C)CN(c4cc(N)cc([100NH:0][100C:0](=O)N5CCCC(n6nc(-c7ccc(Oc8ccc(F)cc8F)cc7)c(C(N)=O)c6N)C5)c4F)C(=O)C3(C)C)ccc2CC1C(=O)NC1CCCc2ccccc21)C(C)(C)C

> <Shape>
0.170

> <Color>
0.186

> <Negative vol penalty>
0.000

$$$$

  -OEChem-04042323303D

 86 94  0     1  0  0  0  0  0999 V2000
  -22.6179  -35.7433   16.7099 C   0  0  0  0  0  0  0  0  0  0  0  0
  -23.4300  -34.6220   16.5732 C   0  0  0  0  0  0  0  0  0  0  0  0
  -24.5191  -10.2139   22.0867 C   0  0  0  0  0  0  0  0  0  0  0  0
  -24.6497  -11.5618   24.0875 C   0  0  0  0  0  0  0  0  0  0  0  0
  -30.0243  -21.6899   21.6858 C   0  0  0  0  0  0  0  0  0  0  0  0
  -22.4909  -36.3633   17.9522 C   0  0  0  0  0  0  0  0  0  0  0  0
  -24.1165  -34.1208   17.6786 C   0  0  0  0  0  0  0  0  0  0  0  0
  -25.3451  -28.2458   18.8957 C   0  0  0  0  0  0  0  0  0  0  0  0
  -29.9869  -20.3407   21.3341 C   0  0  0  0  0  0  0  0  0  0  0  0
  -24.1399   -9.1122   22.8536 C   0  0  0  0  0  0  0  0  0  0  0  0
  -24.2704  -10.4601   24.8544 C   0  0  0  0  0  0  0  0  0  0  0  0
  -26.4843  -27.4660   18.7013 C   0  0  0  0  0  0  0  0  0  0  0  0
  -21.3326   -7.9662   24.3499 C   0  0  0  0  0  0  0  0  0  0  0  0
  -20.2688   -7.1908   23.8889 C   0  0  0  0  0  0  0  0  0  0  0  0
  -27.1557  -27.8895   20.9792 C   0  0  0  0  0  0  0  0  0  0  0  0
  -27.5726  -20.4197   21.2876 C   0  0  0  0  0  0  0  0  0  0  0  0
  -21.7200   -5.2621   23.7838 C   0  0  0  0  0  0  0  0  0  0  0  0
  -24.7741  -11.4387   22.7037 C   0  0  0  0  0  0  0  0  0  0  0  0
  -28.8359  -22.4041   21.8385 C   0  0  0  0  0  0  0  0  0  0  0  0
  -24.3198  -13.5346   21.3223 C   0  0  0  0  0  0  0  0  0  0  0  0
  -23.1685  -35.8636   19.0755 C   0  0  0  0  0  0  0  0  0  0  0  0
  -25.1078  -28.8633   20.1322 C   0  0  0  0  0  0  0  0  0  0  0  0
  -23.9995  -34.7355   18.9368 C   0  0  0  0  0  0  0  0  0  0  0  0
  -26.0114  -28.6746   21.1876 C   0  0  0  0  0  0  0  0  0  0  0  0
  -28.7611  -19.7056   21.1349 C   0  0  0  0  0  0  0  0  0  0  0  0
  -24.0156   -9.2353   24.2375 C   0  0  0  0  0  0  0  0  0  0  0  0
  -27.3913  -27.2901   19.7422 C   0  0  0  0  0  0  0  0  0  0  0  0
  -22.5903   -7.3896   24.5277 C   0  0  0  0  0  0  0  0  0  0  0  0
  -20.4624   -5.8388   23.6059 C   0  0  0  0  0  0  0  0  0  0  0  0
  -27.6100  -21.7690   21.6394 C   0  0  0  0  0  0  0  0  0  0  0  0
  -22.7840   -6.0376   24.2447 C   0  0  0  0  0  0  0  0  0  0  0  0
  -25.1664  -12.5769   21.9121 C   0  0  0  0  0  0  0  0  0  0  0  0
  -25.1735  -14.4009   20.6841 C   0  0  0  0  0  0  0  0  0  0  0  0
  -28.8788  -23.8322   22.2116 C   0  0  0  0  0  0  0  0  0  0  0  0
  -22.8896  -13.6326   21.3491 C   0  0  0  0  0  0  0  0  0  0  0  0
  -24.8268  -31.8715   21.1199 C   0  0  0  0  0  0  0  0  0  0  0  0
  -24.0415  -30.4636   23.9348 C   0  0  0  0  0  0  0  0  0  0  0  0
  -24.2362  -27.7206   25.9558 C   0  0  0  0  0  0  0  0  0  0  0  0
  -29.8102  -17.4821   20.5856 C   0  0  0  0  0  0  0  0  0  0  0  0
  -23.0374  -36.5958   20.3875 C   0  0  0  0  0  0  0  0  0  0  0  0
  -23.8606  -29.6796   20.3340 C   0  0  0  0  0  0  0  0  0  0  0  0
  -25.7924  -29.2993   22.5405 C   0  0  0  0  0  0  0  0  0  0  0  0
  -23.5034  -35.7791   21.5901 C   0  0  0  0  0  0  0  0  0  0  0  0
  -30.1329  -14.0391   19.7378 C   0  0  0  0  0  0  0  0  0  0  0  0
  -24.8476  -35.1195   21.2988 C   0  0  0  0  0  0  0  0  0  0  0  0
  -28.7999  -13.4305   20.1794 C   0  0  0  0  0  0  0  0  0  0  0  0
  -30.6040  -15.1300   20.6979 C   0  0  0  0  0  0  0  0  0  0  0  0
  -28.2881  -15.5789   21.4081 C   0  0  0  0  0  0  0  0  0  0  0  0
  -24.7407  -34.1473   20.1178 C   0  0  1  0  0  0  0  0  0  0  0  0
  -23.9812  -30.6821   21.4776 C   0  0  1  0  0  0  0  0  0  0  0  0
  -27.7407  -14.5202   20.4369 C   0  0  2  0  0  0  0  0  0  0  0  0
  -23.5270  -26.8818   28.2122 C   0  0  0  0  0  0  0  0  0  0  0  0
  -30.8593  -26.3083   22.5349 C   0  0  0  0  0  0  0  0  0  0  0  0
  -26.2139  -32.1590   25.2451 C   0  0  0  0  0  0  0  0  0  0  0  0
  -26.1127  -30.6321   27.2267 C   0  0  0  0  0  0  0  0  0  0  0  0
  -24.1040  -31.9588   26.5728 C   0  0  0  0  0  0  0  0  0  0  0  0
  -30.8963  -26.4883   19.4885 C   0  0  0  0  0  0  0  0  0  0  0  0
  -29.6558  -28.3956   20.5297 C   0  0  0  0  0  0  0  0  0  0  0  0
  -22.6609  -25.5140   24.7691 C   0  0  0  0  0  0  0  0  0  0  0  0
  -24.8101  -29.9943   25.1465 C   0  0  1  0  0  0  0  0  0  0  0  0
  -23.1741  -26.9663   26.7353 C   0  0  2  0  0  0  0  0  0  0  0  0
  -29.6243  -26.1204   21.6592 C   0  0  1  0  0  0  0  0  0  0  0  0
  -25.3155  -31.1757   26.0218 C   0  0  0  0  0  0  0  0  0  0  0  0
  -29.6628  -26.8768   20.3125 C   0  0  0  0  0  0  0  0  0  1  0  0
  -26.4587  -12.8121   21.6699 N   0  0  0  0  0  0  0  0  0  0  0  0
  -26.4305  -13.9275   20.9208 N   0  0  0  0  0  0  0  0  0  0  0  0
  -24.5614  -30.0936   22.6864 N   0  0  0  0  0  0  0  0  0  0  0  0
  -29.5507  -16.1291   20.8905 N   0  0  0  0  0  0  0  0  0  0  0  0
  -24.9640  -15.5136   19.9489 N   0  0  0  0  0  0  0  0  0  0  0  0
  -28.2821  -24.2038   23.3442 N   0  0  0  0  0  0  0  0  0  0  0  0
  -22.1663  -12.6589   22.0514 N   0  0  0  0  0  0  0  0  0  0  0  0
  -28.7238  -18.3350   20.7774 N   0  0  0  0  0  0  0  0  0  0  0  0
  -24.1224  -32.9080   20.5378 N   0  0  0  0  0  0  0  0  0  0  0  0
  -23.9351  -29.0619   25.8489 N   0  0  0  0  0  0  0  0  0  0  0  0
  -29.5107  -24.6765   21.3941 N   0  3  0  0  0  0  0  0  0  0  0  0
  -23.0299  -25.5805   26.2066 N   0  3  0  0  0  0  0  0  0  0  0  0
  -22.2706  -14.5469   20.7538 O   0  0  0  0  0  0  0  0  0  0  0  0
  -26.0291  -31.8510   21.3561 O   0  0  0  0  0  0  0  0  0  0  0  0
  -23.0138  -31.1278   24.0905 O   0  0  0  0  0  0  0  0  0  0  0  0
  -25.2350  -27.1752   25.4917 O   0  0  0  0  0  0  0  0  0  0  0  0
  -30.9067  -17.8522   20.1582 O   0  0  0  0  0  0  0  0  0  0  0  0
  -23.6453   -8.1606   24.9861 O   0  0  0  0  0  0  0  0  0  0  0  0
  -28.5044  -26.5300   19.5549 O   0  0  0  0  0  0  0  0  0  1  0  0
  -19.4403   -5.0939   23.1648 F   0  0  0  0  0  0  0  0  0  0  0  0
  -26.4627  -22.4464   21.7856 F   0  0  0  0  0  0  0  0  0  0  0  0
  -23.9896   -5.4778   24.4147 F   0  0  0  0  0  0  0  0  0  0  0  0
  1  2  1  0  0  0  0
  1  6  2  0  0  0  0
  2  7  2  0  0  0  0
  3 10  2  0  0  0  0
  3 18  1  0  0  0  0
  4 11  1  0  0  0  0
  4 18  2  0  0  0  0
  5  9  2  0  0  0  0
  5 19  1  0  0  0  0
  6 21  1  0  0  0  0
  7 23  1  0  0  0  0
  8 12  2  0  0  0  0
  8 22  1  0  0  0  0
  9 25  1  0  0  0  0
 10 26  1  0  0  0  0
 11 26  2  0  0  0  0
 12 27  1  0  0  0  0
 13 14  2  0  0  0  0
 13 28  1  0  0  0  0
 14 29  1  0  0  0  0
 15 24  1  0  0  0  0
 15 27  2  0  0  0  0
 16 25  2  0  0  0  0
 16 30  1  0  0  0  0
 17 29  2  0  0  0  0
 17 31  1  0  0  0  0
 18 32  1  0  0  0  0
 19 30  2  0  0  0  0
 19 34  1  0  0  0  0
 20 32  1  0  0  0  0
 20 33  2  0  0  0  0
 20 35  1  0  0  0  0
 21 23  2  0  0  0  0
 21 40  1  0  0  0  0
 22 24  2  0  0  0  0
 22 41  1  0  0  0  0
 23 49  1  0  0  0  0
 24 42  1  0  0  0  0
 25 72  1  0  0  0  0
 26 82  1  0  0  0  0
 27 83  1  0  0  0  0
 28 31  2  0  0  0  0
 28 82  1  0  0  0  0
 29 84  1  0  0  0  0
 30 85  1  0  0  0  0
 31 86  1  0  0  0  0
 32 65  2  0  0  0  0
 33 66  1  0  0  0  0
 33 69  1  0  0  0  0
 34 70  1  0  0  0  0
 34 75  2  0  0  0  0
 35 71  1  0  0  0  0
 35 77  2  0  0  0  0
 36 50  1  0  0  0  0
 36 73  1  0  0  0  0
 36 78  2  0  0  0  0
 37 60  1  0  0  0  0
 37 67  1  0  0  0  0
 37 79  2  0  0  0  0
 38 61  1  0  0  0  0
 38 74  1  0  0  0  0
 38 80  2  0  0  0  0
 39 68  1  0  0  0  0
 39 72  1  0  0  0  0
 39 81  2  0  0  0  0
 40 43  1  0  0  0  0
 41 50  1  0  0  0  0
 42 67  1  0  0  0  0
 43 45  1  0  0  0  0
 44 46  1  0  0  0  0
 44 47  1  0  0  0  0
 45 49  1  0  0  0  0
 46 51  1  0  0  0  0
 47 68  1  0  0  0  0
 48 51  1  0  0  0  0
 48 68  1  0  0  0  0
 49 73  1  0  0  0  0
 50 67  1  0  0  0  0
 51 66  1  0  0  0  0
 52 61  1  0  0  0  0
 53 62  1  0  0  0  0
 54 63  1  0  0  0  0
 55 63  1  0  0  0  0
 56 63  1  0  0  0  0
 57 64  1  0  0  0  0
 58 64  1  0  0  0  0
 59 76  1  0  0  0  0
 60 63  1  0  0  0  0
 60 74  1  0  0  0  0
 61 76  1  0  0  0  0
 62 64  1  0  0  0  0
 62 75  1  0  0  0  0
 64 83  1  0  0  0  0
 65 66  1  0  0  0  0
M  CHG  2  75   1  76   1
M  ISO  4  39 100  64 101  72 100  83 101
M  END
> <Batch ID>
0069

> <Smiles>
CNC(C)C(=O)NC(C(=O)N1Cc2cc([101O:1][101C:1](C)(C)C(C)NC(=N)c3ccc([100NH:0][100C:0](=O)N4CCCC(n5nc(-c6ccc(Oc7ccc(F)cc7F)cc6)c(C(N)=O)c5N)C4)cc3F)ccc2CC1C(=O)NC1CCCc2ccccc21)C(C)(C)C

> <Shape>
0.281

> <Color>
0.137

> <Negative vol penalty>
0.000

$$$$
