
  -OEChem-04042323323D

 86 95  0     1  0  0  0  0  0999 V2000
  -21.3486  -28.9693   25.2789 C   0  0  0  0  0  0  0  0  0  0  0  0
  -21.8832  -27.7135   25.0096 C   0  0  0  0  0  0  0  0  0  0  0  0
  -29.3360  -23.5859   21.4858 C   0  0  0  0  0  0  0  0  0  0  0  0
  -27.4292  -23.3553   20.0203 C   0  0  0  0  0  0  0  0  0  0  0  0
  -20.1169  -29.3325   24.7359 C   0  0  0  0  0  0  0  0  0  0  0  0
  -21.1858  -26.8196   24.1978 C   0  0  0  0  0  0  0  0  0  0  0  0
  -23.5796  -22.7731   20.2734 C   0  0  0  0  0  0  0  0  0  0  0  0
  -29.4524  -24.9277   21.1232 C   0  0  0  0  0  0  0  0  0  0  0  0
  -27.5455  -24.6972   19.6577 C   0  0  0  0  0  0  0  0  0  0  0  0
  -23.8378  -21.4068   20.3759 C   0  0  0  0  0  0  0  0  0  0  0  0
  -27.1186  -28.1553   18.6197 C   0  0  0  0  0  0  0  0  0  0  0  0
  -25.9526  -28.9195   18.5762 C   0  0  0  0  0  0  0  0  0  0  0  0
  -21.7328  -20.9341   19.2967 C   0  0  0  0  0  0  0  0  0  0  0  0
  -24.0174  -12.7209   21.2299 C   0  0  0  0  0  0  0  0  0  0  0  0
  -26.4477  -12.4225   19.8930 C   0  0  0  0  0  0  0  0  0  0  0  0
  -25.5734  -28.4746   20.9204 C   0  0  0  0  0  0  0  0  0  0  0  0
  -28.3244  -22.7996   20.9342 C   0  0  0  0  0  0  0  0  0  0  0  0
  -27.4504  -20.8819   22.3717 C   0  0  0  0  0  0  0  0  0  0  0  0
  -19.4086  -28.4462   23.9092 C   0  0  0  0  0  0  0  0  0  0  0  0
  -22.3890  -23.2306   19.6906 C   0  0  0  0  0  0  0  0  0  0  0  0
  -19.9428  -27.1707   23.6443 C   0  0  0  0  0  0  0  0  0  0  0  0
  -21.4630  -22.3067   19.1857 C   0  0  0  0  0  0  0  0  0  0  0  0
  -24.8144  -13.8367   20.9745 C   0  0  0  0  0  0  0  0  0  0  0  0
  -24.4355  -11.4559   20.8169 C   0  0  0  0  0  0  0  0  0  0  0  0
  -26.0295  -13.6876   20.3061 C   0  0  0  0  0  0  0  0  0  0  0  0
  -28.5572  -25.4834   20.2092 C   0  0  0  0  0  0  0  0  0  0  0  0
  -22.9130  -20.4871   19.8901 C   0  0  0  0  0  0  0  0  0  0  0  0
  -27.5120  -27.5506   19.8136 C   0  0  0  0  0  0  0  0  0  0  0  0
  -25.1800  -29.0793   19.7265 C   0  0  0  0  0  0  0  0  0  0  0  0
  -25.6506  -11.3067   20.1485 C   0  0  0  0  0  0  0  0  0  0  0  0
  -26.7395  -27.7103   20.9640 C   0  0  0  0  0  0  0  0  0  0  0  0
  -28.2040  -21.4133   21.3079 C   0  0  0  0  0  0  0  0  0  0  0  0
  -27.6664  -19.5273   22.3024 C   0  0  0  0  0  0  0  0  0  0  0  0
  -24.1124  -16.2428   20.5914 C   0  0  0  0  0  0  0  0  0  0  0  0
  -26.6286  -21.5528   23.3362 C   0  0  0  0  0  0  0  0  0  0  0  0
  -19.9018  -24.9288   20.7075 C   0  0  0  0  0  0  0  0  0  0  0  0
  -19.0216  -24.7803   17.5889 C   0  0  0  0  0  0  0  0  0  0  0  0
  -19.2243  -23.1536   14.5956 C   0  0  0  0  0  0  0  0  0  0  0  0
  -28.0895  -14.8054   19.3822 C   0  0  0  0  0  0  0  0  0  0  0  0
  -18.0586  -28.8656   23.3835 C   0  0  0  0  0  0  0  0  0  0  0  0
  -22.1376  -24.7081   19.5635 C   0  0  0  0  0  0  0  0  0  0  0  0
  -20.1790  -22.7469   18.5329 C   0  0  0  0  0  0  0  0  0  0  0  0
  -17.5591  -28.0010   22.2289 C   0  0  0  0  0  0  0  0  0  0  0  0
  -30.9928  -16.8571   19.5771 C   0  0  0  0  0  0  0  0  0  0  0  0
  -17.7457  -26.5215   22.5503 C   0  0  0  0  0  0  0  0  0  0  0  0
  -30.4641  -18.1817   20.1323 C   0  0  0  0  0  0  0  0  0  0  0  0
  -24.0215  -16.9145   22.8728 C   0  0  0  0  0  0  0  0  0  0  0  0
  -29.9962  -16.2050   18.6204 C   0  0  0  0  0  0  0  0  0  0  0  0
  -24.0557  -15.4012   22.7965 C   0  0  0  0  0  0  0  0  0  0  0  0
  -28.1125  -17.3558   19.7142 C   0  0  0  0  0  0  0  0  0  0  0  0
  -19.2281  -26.1827   22.7482 C   0  0  1  0  0  0  0  0  0  0  0  0
  -23.5292  -17.3204   21.4913 C   0  0  1  0  0  0  0  0  0  0  0  0
  -20.6587  -25.0520   19.4153 C   0  0  1  0  0  0  0  0  0  0  0  0
  -29.0542  -18.0182   20.7331 C   0  0  2  0  0  0  0  0  0  0  0  0
  -18.3640  -23.2481   12.2401 C   0  0  0  0  0  0  0  0  0  0  0  0
  -16.3333  -23.6856   18.5294 C   0  0  0  0  0  0  0  0  0  0  0  0
  -15.9021  -22.9230   16.1841 C   0  0  0  0  0  0  0  0  0  0  0  0
  -16.1883  -25.3527   16.6710 C   0  0  0  0  0  0  0  0  0  0  0  0
  -21.9509  -23.4711   13.4893 C   0  0  0  0  0  0  0  0  0  0  0  0
  -23.9559  -18.7210   21.0940 C   0  0  0  0  0  0  0  0  0  1  0  0
  -18.2022  -23.8265   16.7536 C   0  0  1  0  0  0  0  0  0  0  0  0
  -19.4788  -23.6621   13.1880 C   0  0  2  0  0  0  0  0  0  0  0  0
  -16.6797  -23.9383   17.0485 C   0  0  0  0  0  0  0  0  0  0  0  0
  -28.8505  -20.4729   20.6138 N   0  0  0  0  0  0  0  0  0  0  0  0
  -28.5039  -19.3370   21.2429 N   0  0  0  0  0  0  0  0  0  0  0  0
  -24.3652  -15.1205   21.4069 N   0  0  0  0  0  0  0  0  0  0  0  0
  -19.9759  -24.2019   18.4378 N   0  0  0  0  0  0  0  0  0  0  0  0
  -28.6844  -16.0788   19.2592 N   0  0  0  0  0  0  0  0  0  0  0  0
  -23.6277  -10.3291   21.0759 N   0  0  0  0  0  0  0  0  0  0  0  0
  -27.2198  -18.4922   23.0452 N   0  0  0  0  0  0  0  0  0  0  0  0
  -26.5167  -22.9480   23.2635 N   0  0  0  0  0  0  0  0  0  0  0  0
  -26.8576  -14.8052   20.0357 N   0  0  0  0  0  0  0  0  0  0  0  0
  -19.8984  -26.0814   21.4696 N   0  0  0  0  0  0  0  0  0  0  0  0
  -18.5624  -24.0877   15.3642 N   0  0  0  0  0  0  0  0  0  0  0  0
  -20.7651  -23.1200   12.6661 N   0  3  0  0  0  0  0  0  0  0  0  0
  -24.2456  -16.3789   19.3839 O   0  0  0  0  0  0  0  0  0  0  0  0
  -26.0249  -20.9351   24.2458 O   0  0  0  0  0  0  0  0  0  0  0  0
  -19.3598  -23.8670   20.9913 O   0  0  0  0  0  0  0  0  0  0  0  0
  -18.8273  -25.9941   17.4865 O   0  0  0  0  0  0  0  0  0  0  0  0
  -19.5741  -22.0379   14.9742 O   0  0  0  0  0  0  0  0  0  0  0  0
  -28.6455  -13.7863   18.9647 O   0  0  0  0  0  0  0  0  0  0  0  0
  -28.6703  -26.7928   19.8554 O   0  0  0  0  0  0  0  0  0  0  0  0
  -23.1623  -19.1530   19.9895 O   0  0  0  0  0  0  0  0  0  1  0  0
  -24.0611  -29.8145   19.6849 F   0  0  0  0  0  0  0  0  0  0  0  0
  -26.0627  -10.0955   19.7480 F   0  0  0  0  0  0  0  0  0  0  0  0
  -27.1129  -27.1329   22.1141 F   0  0  0  0  0  0  0  0  0  0  0  0
  1  2  1  0  0  0  0
  1  5  2  0  0  0  0
  2  6  2  0  0  0  0
  3  8  2  0  0  0  0
  3 17  1  0  0  0  0
  4  9  1  0  0  0  0
  4 17  2  0  0  0  0
  5 19  1  0  0  0  0
  6 21  1  0  0  0  0
  7 10  2  0  0  0  0
  7 20  1  0  0  0  0
  8 26  1  0  0  0  0
  9 26  2  0  0  0  0
 10 27  1  0  0  0  0
 11 12  2  0  0  0  0
 11 28  1  0  0  0  0
 12 29  1  0  0  0  0
 13 22  1  0  0  0  0
 13 27  2  0  0  0  0
 14 23  1  0  0  0  0
 14 24  2  0  0  0  0
 15 25  1  0  0  0  0
 15 30  2  0  0  0  0
 16 29  2  0  0  0  0
 16 31  1  0  0  0  0
 17 32  1  0  0  0  0
 18 32  1  0  0  0  0
 18 33  2  0  0  0  0
 18 35  1  0  0  0  0
 19 21  2  0  0  0  0
 19 40  1  0  0  0  0
 20 22  2  0  0  0  0
 20 41  1  0  0  0  0
 21 51  1  0  0  0  0
 22 42  1  0  0  0  0
 23 25  2  0  0  0  0
 23 66  1  0  0  0  0
 24 30  1  0  0  0  0
 24 69  1  0  0  0  0
 25 72  1  0  0  0  0
 26 82  1  0  0  0  0
 27 83  1  0  0  0  0
 28 31  2  0  0  0  0
 28 82  1  0  0  0  0
 29 84  1  0  0  0  0
 30 85  1  0  0  0  0
 31 86  1  0  0  0  0
 32 64  2  0  0  0  0
 33 65  1  0  0  0  0
 33 70  1  0  0  0  0
 34 52  1  0  0  0  0
 34 66  1  0  0  0  0
 34 76  2  0  0  0  0
 35 71  1  0  0  0  0
 35 77  2  0  0  0  0
 36 53  1  0  0  0  0
 36 73  1  0  0  0  0
 36 78  2  0  0  0  0
 37 61  1  0  0  0  0
 37 67  1  0  0  0  0
 37 79  2  0  0  0  0
 38 62  1  0  0  0  0
 38 74  1  0  0  0  0
 38 80  2  0  0  0  0
 39 68  1  0  0  0  0
 39 72  1  0  0  0  0
 39 81  2  0  0  0  0
 40 43  1  0  0  0  0
 41 53  1  0  0  0  0
 42 67  1  0  0  0  0
 43 45  1  0  0  0  0
 44 46  1  0  0  0  0
 44 48  1  0  0  0  0
 45 51  1  0  0  0  0
 46 54  1  0  0  0  0
 47 49  1  0  0  0  0
 47 52  1  0  0  0  0
 48 68  1  0  0  0  0
 49 66  1  0  0  0  0
 50 54  1  0  0  0  0
 50 68  1  0  0  0  0
 51 73  1  0  0  0  0
 52 60  1  0  0  0  0
 53 67  1  0  0  0  0
 54 65  1  0  0  0  0
 55 62  1  0  0  0  0
 56 63  1  0  0  0  0
 57 63  1  0  0  0  0
 58 63  1  0  0  0  0
 59 75  1  0  0  0  0
 60 83  1  0  0  0  0
 61 63  1  0  0  0  0
 61 74  1  0  0  0  0
 62 75  1  0  0  0  0
 64 65  1  0  0  0  0
M  CHG  1  75   1
M  ISO  4  39 100  60 101  72 100  83 101
M  END
> <Batch ID>
0070

> <Smiles>
CNC(C)C(=O)NC(C(=O)N1Cc2cc([101O:1][101CH2:1]C3CCN(c4cc(N)c(F)cc4[100NH:0][100C:0](=O)N4CCCC(n5nc(-c6ccc(Oc7ccc(F)cc7F)cc6)c(C(N)=O)c5N)C4)C3=O)ccc2CC1C(=O)NC1CCCc2ccccc21)C(C)(C)C

> <Shape>
0.203

> <Color>
0.070

> <Negative vol penalty>
0.000

$$$$

  -OEChem-04042323323D

 87 96  0     1  0  0  0  0  0999 V2000
  -32.4711  -28.5387   14.7066 C   0  0  0  0  0  0  0  0  0  0  0  0
  -31.9482  -27.4351   15.3730 C   0  0  0  0  0  0  0  0  0  0  0  0
  -23.0313   -9.8376   20.1552 C   0  0  0  0  0  0  0  0  0  0  0  0
  -23.6065  -10.2261   22.4693 C   0  0  0  0  0  0  0  0  0  0  0  0
  -32.5052  -29.7813   15.3381 C   0  0  0  0  0  0  0  0  0  0  0  0
  -31.4599  -27.5733   16.6719 C   0  0  0  0  0  0  0  0  0  0  0  0
  -26.7189  -24.5992   19.1585 C   0  0  0  0  0  0  0  0  0  0  0  0
  -22.2505   -8.7451   20.5326 C   0  0  0  0  0  0  0  0  0  0  0  0
  -22.8257   -9.1336   22.8468 C   0  0  0  0  0  0  0  0  0  0  0  0
  -26.6437  -23.4803   19.9868 C   0  0  0  0  0  0  0  0  0  0  0  0
  -23.1037   -5.7642   22.8764 C   0  0  0  0  0  0  0  0  0  0  0  0
  -23.6428   -4.8716   23.8028 C   0  0  0  0  0  0  0  0  0  0  0  0
  -26.5155  -24.9239   21.9152 C   0  0  0  0  0  0  0  0  0  0  0  0
  -29.6859  -17.8329   22.5847 C   0  0  0  0  0  0  0  0  0  0  0  0
  -31.8953  -16.8906   22.3248 C   0  0  0  0  0  0  0  0  0  0  0  0
  -21.8143   -5.3343   25.3126 C   0  0  0  0  0  0  0  0  0  0  0  0
  -23.7094  -10.5781   21.1235 C   0  0  0  0  0  0  0  0  0  0  0  0
  -24.1023  -13.0463   20.6124 C   0  0  0  0  0  0  0  0  0  0  0  0
  -32.0083  -29.9368   16.6418 C   0  0  0  0  0  0  0  0  0  0  0  0
  -26.7040  -25.8910   19.7041 C   0  0  0  0  0  0  0  0  0  0  0  0
  -31.4886  -28.8189   17.3219 C   0  0  0  0  0  0  0  0  0  0  0  0
  -26.5881  -26.0577   21.0915 C   0  0  0  0  0  0  0  0  0  0  0  0
  -31.5832  -18.8936   23.6391 C   0  0  0  0  0  0  0  0  0  0  0  0
  -30.2143  -18.8541   23.3743 C   0  0  0  0  0  0  0  0  0  0  0  0
  -30.5264  -16.8511   22.0600 C   0  0  0  0  0  0  0  0  0  0  0  0
  -22.1477   -8.3931   21.8784 C   0  0  0  0  0  0  0  0  0  0  0  0
  -26.5448  -23.6425   21.3656 C   0  0  0  0  0  0  0  0  0  0  0  0
  -21.9200   -6.4420   23.1681 C   0  0  0  0  0  0  0  0  0  0  0  0
  -22.9980   -4.6566   25.0209 C   0  0  0  0  0  0  0  0  0  0  0  0
  -32.4238  -17.9119   23.1143 C   0  0  0  0  0  0  0  0  0  0  0  0
  -21.2752   -6.2270   24.3862 C   0  0  0  0  0  0  0  0  0  0  0  0
  -24.5165  -11.7063   20.7342 C   0  0  0  0  0  0  0  0  0  0  0  0
  -25.2324  -13.7206   20.2192 C   0  0  0  0  0  0  0  0  0  0  0  0
  -29.1215  -20.1433   25.2637 C   0  0  0  0  0  0  0  0  0  0  0  0
  -22.8114  -13.6292   20.8349 C   0  0  0  0  0  0  0  0  0  0  0  0
  -28.7365  -28.3346   19.7394 C   0  0  0  0  0  0  0  0  0  0  0  0
  -26.2614  -29.8676   21.1698 C   0  0  0  0  0  0  0  0  0  0  0  0
  -23.3844  -29.6519   22.9928 C   0  0  0  0  0  0  0  0  0  0  0  0
  -30.6843  -14.7623   20.6605 C   0  0  0  0  0  0  0  0  0  0  0  0
  -32.1097  -31.2896   17.3007 C   0  0  0  0  0  0  0  0  0  0  0  0
  -26.7591  -27.0880   18.7950 C   0  0  0  0  0  0  0  0  0  0  0  0
  -26.5476  -27.4233   21.7255 C   0  0  0  0  0  0  0  0  0  0  0  0
  -31.2291  -31.4313   18.5396 C   0  0  0  0  0  0  0  0  0  0  0  0
  -29.7210  -11.9896   18.6452 C   0  0  0  0  0  0  0  0  0  0  0  0
  -31.3774  -30.2107   19.4423 C   0  0  0  0  0  0  0  0  0  0  0  0
  -28.2471  -11.7790   18.9990 C   0  0  0  0  0  0  0  0  0  0  0  0
  -30.5415  -12.4134   19.8622 C   0  0  0  0  0  0  0  0  0  0  0  0
  -28.5859  -20.7473   23.0449 C   0  0  0  0  0  0  0  0  0  0  0  0
  -28.5433  -13.3654   20.9439 C   0  0  0  0  0  0  0  0  0  0  0  0
  -30.9267  -28.9340   18.7223 C   0  0  1  0  0  0  0  0  0  0  0  0
  -28.2088  -21.3598   25.3176 C   0  0  1  0  0  0  0  0  0  0  0  0
  -27.2537  -28.3490   19.4969 C   0  0  1  0  0  0  0  0  0  0  0  0
  -27.5110  -21.3224   23.9572 C   0  0  1  0  0  0  0  0  0  0  0  0
  -27.6644  -13.0006   19.7363 C   0  0  2  0  0  0  0  0  0  0  0  0
  -32.1738  -19.9782   24.4808 C   0  0  0  0  0  0  0  0  0  0  0  0
  -27.2471  -21.3138   26.4929 C   0  0  0  0  0  0  0  0  0  0  0  0
  -21.6053  -31.0775   24.0415 C   0  0  0  0  0  0  0  0  0  0  0  0
  -28.1828  -30.6038   23.4229 C   0  0  0  0  0  0  0  0  0  0  0  0
  -26.1964  -31.1685   24.8384 C   0  0  0  0  0  0  0  0  0  0  0  0
  -26.6289  -32.4389   22.7356 C   0  0  0  0  0  0  0  0  0  0  0  0
  -21.2616  -28.4265   21.3341 C   0  0  0  0  0  0  0  0  0  0  0  0
  -27.0145  -22.6818   23.4898 C   0  0  0  0  0  0  0  0  0  1  0  0
  -25.7997  -30.0546   22.5949 C   0  0  1  0  0  0  0  0  0  0  0  0
  -22.0225  -30.2959   22.8055 C   0  0  2  0  0  0  0  0  0  0  0  0
  -26.7046  -31.0406   23.3865 C   0  0  0  0  0  0  0  0  0  0  0  0
  -25.8088  -11.5375   20.4419 N   0  0  0  0  0  0  0  0  0  0  0  0
  -26.2164  -12.7802   20.1324 N   0  0  0  0  0  0  0  0  0  0  0  0
  -29.3380  -19.8496   23.9021 N   0  0  0  0  0  0  0  0  0  0  0  0
  -26.6108  -28.5625   20.7951 N   0  0  0  0  0  0  0  0  0  0  0  0
  -29.9320  -13.5785   20.5071 N   0  0  0  0  0  0  0  0  0  0  0  0
  -25.4704  -15.0203   19.9426 N   0  0  0  0  0  0  0  0  0  0  0  0
  -21.7607  -12.7928   21.2357 N   0  0  0  0  0  0  0  0  0  0  0  0
  -29.9897  -15.8135   21.2580 N   0  0  0  0  0  0  0  0  0  0  0  0
  -29.4821  -28.8511   18.6969 N   0  0  0  0  0  0  0  0  0  0  0  0
  -24.3994  -30.4571   22.5209 N   0  0  0  0  0  0  0  0  0  0  0  0
  -20.9900  -29.2554   22.5366 N   0  3  0  0  0  0  0  0  0  0  0  0
  -29.5905  -19.6144   26.2613 O   0  0  0  0  0  0  0  0  0  0  0  0
  -22.5922  -14.8528   20.6670 O   0  0  0  0  0  0  0  0  0  0  0  0
  -29.1718  -27.8893   20.7948 O   0  0  0  0  0  0  0  0  0  0  0  0
  -26.3034  -30.8422   20.4149 O   0  0  0  0  0  0  0  0  0  0  0  0
  -23.5332  -28.5468   23.5097 O   0  0  0  0  0  0  0  0  0  0  0  0
  -31.8497  -14.8465   20.2646 O   0  0  0  0  0  0  0  0  0  0  0  0
  -21.3857   -7.3273   22.2471 O   0  0  0  0  0  0  0  0  0  0  0  0
  -26.4719  -22.5520   22.1764 O   0  0  0  0  0  0  0  0  0  1  0  0
  -23.5150   -3.7982   25.9098 F   0  0  0  0  0  0  0  0  0  0  0  0
  -33.7409  -17.9416   23.3615 F   0  0  0  0  0  0  0  0  0  0  0  0
  -20.1371   -6.8743   24.6716 F   0  0  0  0  0  0  0  0  0  0  0  0
  1  2  1  0  0  0  0
  1  5  2  0  0  0  0
  2  6  2  0  0  0  0
  3  8  2  0  0  0  0
  3 17  1  0  0  0  0
  4  9  1  0  0  0  0
  4 17  2  0  0  0  0
  5 19  1  0  0  0  0
  6 21  1  0  0  0  0
  7 10  2  0  0  0  0
  7 20  1  0  0  0  0
  8 26  1  0  0  0  0
  9 26  2  0  0  0  0
 10 27  1  0  0  0  0
 11 12  2  0  0  0  0
 11 28  1  0  0  0  0
 12 29  1  0  0  0  0
 13 22  1  0  0  0  0
 13 27  2  0  0  0  0
 14 24  1  0  0  0  0
 14 25  2  0  0  0  0
 15 25  1  0  0  0  0
 15 30  2  0  0  0  0
 16 29  2  0  0  0  0
 16 31  1  0  0  0  0
 17 32  1  0  0  0  0
 18 32  1  0  0  0  0
 18 33  2  0  0  0  0
 18 35  1  0  0  0  0
 19 21  2  0  0  0  0
 19 40  1  0  0  0  0
 20 22  2  0  0  0  0
 20 41  1  0  0  0  0
 21 50  1  0  0  0  0
 22 42  1  0  0  0  0
 23 24  2  0  0  0  0
 23 30  1  0  0  0  0
 23 55  1  0  0  0  0
 24 68  1  0  0  0  0
 25 73  1  0  0  0  0
 26 83  1  0  0  0  0
 27 84  1  0  0  0  0
 28 31  2  0  0  0  0
 28 83  1  0  0  0  0
 29 85  1  0  0  0  0
 30 86  1  0  0  0  0
 31 87  1  0  0  0  0
 32 66  2  0  0  0  0
 33 67  1  0  0  0  0
 33 71  1  0  0  0  0
 34 51  1  0  0  0  0
 34 68  1  0  0  0  0
 34 77  2  0  0  0  0
 35 72  1  0  0  0  0
 35 78  2  0  0  0  0
 36 52  1  0  0  0  0
 36 74  1  0  0  0  0
 36 79  2  0  0  0  0
 37 63  1  0  0  0  0
 37 69  1  0  0  0  0
 37 80  2  0  0  0  0
 38 64  1  0  0  0  0
 38 75  1  0  0  0  0
 38 81  2  0  0  0  0
 39 70  1  0  0  0  0
 39 73  1  0  0  0  0
 39 82  2  0  0  0  0
 40 43  1  0  0  0  0
 41 52  1  0  0  0  0
 42 69  1  0  0  0  0
 43 45  1  0  0  0  0
 44 46  1  0  0  0  0
 44 47  1  0  0  0  0
 45 50  1  0  0  0  0
 46 54  1  0  0  0  0
 47 70  1  0  0  0  0
 48 53  1  0  0  0  0
 48 68  1  0  0  0  0
 49 54  1  0  0  0  0
 49 70  1  0  0  0  0
 50 74  1  0  0  0  0
 51 53  1  0  0  0  0
 51 56  1  0  0  0  0
 52 69  1  0  0  0  0
 53 62  1  0  0  0  0
 54 67  1  0  0  0  0
 57 64  1  0  0  0  0
 58 65  1  0  0  0  0
 59 65  1  0  0  0  0
 60 65  1  0  0  0  0
 61 76  1  0  0  0  0
 62 84  1  0  0  0  0
 63 65  1  0  0  0  0
 63 75  1  0  0  0  0
 64 76  1  0  0  0  0
 66 67  1  0  0  0  0
M  CHG  1  76   1
M  ISO  4  39 100  62 101  73 100  84 101
M  END
> <Batch ID>
0070

> <Smiles>
CNC(C)C(=O)NC(C(=O)N1Cc2cc([101O:1][101CH2:1]C3CN(c4cc([100NH:0][100C:0](=O)N5CCCC(n6nc(-c7ccc(Oc8ccc(F)cc8F)cc7)c(C(N)=O)c6N)C5)cc(F)c4C)C(=O)C3C)ccc2CC1C(=O)NC1CCCc2ccccc21)C(C)(C)C

> <Shape>
0.294

> <Color>
0.225

> <Negative vol penalty>
0.000

$$$$

  -OEChem-04042323323D

 84 92  0     1  0  0  0  0  0999 V2000
  -44.1554  -25.2587   30.8078 C   0  0  0  0  0  0  0  0  0  0  0  0
  -43.8174  -23.9148   30.6852 C   0  0  0  0  0  0  0  0  0  0  0  0
  -23.0758   -9.8689   19.9419 C   0  0  0  0  0  0  0  0  0  0  0  0
  -23.8350   -9.8772   22.2356 C   0  0  0  0  0  0  0  0  0  0  0  0
  -31.8952  -18.3467   24.1862 C   0  0  0  0  0  0  0  0  0  0  0  0
  -43.1766  -26.1952   31.1379 C   0  0  0  0  0  0  0  0  0  0  0  0
  -42.5005  -23.5064   30.8937 C   0  0  0  0  0  0  0  0  0  0  0  0
  -38.8100  -20.1062   25.7255 C   0  0  0  0  0  0  0  0  0  0  0  0
  -30.5076  -18.3462   24.0440 C   0  0  0  0  0  0  0  0  0  0  0  0
  -22.3317   -8.7161   20.1924 C   0  0  0  0  0  0  0  0  0  0  0  0
  -23.0907   -8.7244   22.4861 C   0  0  0  0  0  0  0  0  0  0  0  0
  -38.1081  -19.2646   24.8622 C   0  0  0  0  0  0  0  0  0  0  0  0
  -19.8622   -7.9277   23.0880 C   0  0  0  0  0  0  0  0  0  0  0  0
  -19.1048   -7.8886   24.2587 C   0  0  0  0  0  0  0  0  0  0  0  0
  -32.0654  -16.5931   22.5331 C   0  0  0  0  0  0  0  0  0  0  0  0
  -36.2103  -19.2924   26.3607 C   0  0  0  0  0  0  0  0  0  0  0  0
  -20.3456   -5.9514   24.9968 C   0  0  0  0  0  0  0  0  0  0  0  0
  -23.8276  -10.4495   20.9635 C   0  0  0  0  0  0  0  0  0  0  0  0
  -32.6741  -17.4702   23.4308 C   0  0  0  0  0  0  0  0  0  0  0  0
  -24.1700  -12.9745   20.8420 C   0  0  0  0  0  0  0  0  0  0  0  0
  -41.8452  -25.7994   31.3411 C   0  0  0  0  0  0  0  0  0  0  0  0
  -38.2082  -20.5571   26.9037 C   0  0  0  0  0  0  0  0  0  0  0  0
  -41.5033  -24.4382   31.2282 C   0  0  0  0  0  0  0  0  0  0  0  0
  -36.9038  -20.1456   27.2232 C   0  0  0  0  0  0  0  0  0  0  0  0
  -29.8989  -17.4690   23.1464 C   0  0  0  0  0  0  0  0  0  0  0  0
  -30.6778  -16.5925   22.3909 C   0  0  0  0  0  0  0  0  0  0  0  0
  -22.3391   -8.1438   21.4644 C   0  0  0  0  0  0  0  0  0  0  0  0
  -36.8116  -18.8585   25.1792 C   0  0  0  0  0  0  0  0  0  0  0  0
  -20.8612   -6.9785   22.8716 C   0  0  0  0  0  0  0  0  0  0  0  0
  -19.3465   -6.9005   25.2131 C   0  0  0  0  0  0  0  0  0  0  0  0
  -21.1029   -5.9904   23.8260 C   0  0  0  0  0  0  0  0  0  0  0  0
  -24.5970  -11.6400   20.7053 C   0  0  0  0  0  0  0  0  0  0  0  0
  -25.2624  -13.7235   20.4786 C   0  0  0  0  0  0  0  0  0  0  0  0
  -34.1381  -17.4717   23.5821 C   0  0  0  0  0  0  0  0  0  0  0  0
  -22.8995  -13.4908   21.2602 C   0  0  0  0  0  0  0  0  0  0  0  0
  -38.5169  -22.6328   30.0136 C   0  0  0  0  0  0  0  0  0  0  0  0
  -35.6736  -23.0521   28.9412 C   0  0  0  0  0  0  0  0  0  0  0  0
  -32.7828  -23.5706   27.2058 C   0  0  0  0  0  0  0  0  0  0  0  0
  -30.7288  -14.7680   20.6545 C   0  0  0  0  0  0  0  0  0  0  0  0
  -40.8313  -26.8413   31.7427 C   0  0  0  0  0  0  0  0  0  0  0  0
  -38.9490  -21.4150   27.8930 C   0  0  0  0  0  0  0  0  0  0  0  0
  -36.3092  -20.6277   28.5182 C   0  0  0  0  0  0  0  0  0  0  0  0
  -39.3856  -26.3791   31.5797 C   0  0  0  0  0  0  0  0  0  0  0  0
  -29.6146  -12.3529   18.2874 C   0  0  0  0  0  0  0  0  0  0  0  0
  -39.2041  -24.9797   32.1589 C   0  0  0  0  0  0  0  0  0  0  0  0
  -28.1748  -12.0619   18.7167 C   0  0  0  0  0  0  0  0  0  0  0  0
  -30.5294  -12.5823   19.4892 C   0  0  0  0  0  0  0  0  0  0  0  0
  -28.6221  -13.3081   20.8694 C   0  0  0  0  0  0  0  0  0  0  0  0
  -40.0808  -23.9597   31.4224 C   0  0  1  0  0  0  0  0  0  0  0  0
  -38.0429  -22.4364   28.6036 C   0  0  1  0  0  0  0  0  0  0  0  0
  -27.6497  -13.1343   19.6913 C   0  0  2  0  0  0  0  0  0  0  0  0
  -30.6212  -24.8406   27.3140 C   0  0  0  0  0  0  0  0  0  0  0  0
  -34.6229  -21.0795   31.0169 C   0  0  0  0  0  0  0  0  0  0  0  0
  -32.2984  -21.7623   30.3853 C   0  0  0  0  0  0  0  0  0  0  0  0
  -33.8717  -23.4418   31.3481 C   0  0  0  0  0  0  0  0  0  0  0  0
  -33.3867  -25.0396   24.7085 C   0  0  0  0  0  0  0  0  0  0  0  0
  -28.0420  -18.4474   20.5466 C   0  0  0  0  0  0  0  0  0  0  0  0
  -34.2294  -22.6212   28.9836 C   0  0  1  0  0  0  0  0  0  0  0  0
  -32.0575  -24.8454   26.8143 C   0  0  2  0  0  0  0  0  0  0  0  0
  -33.7735  -22.2161   30.4138 C   0  0  0  0  0  0  0  0  0  0  0  0
  -25.8620  -11.5436   20.2875 N   0  0  0  0  0  0  0  0  0  0  0  0
  -34.7447  -18.2668   24.4019 N   0  0  0  0  0  0  0  0  0  1  0  0
  -26.2392  -12.8271   20.1585 N   0  0  0  0  0  0  0  0  0  0  0  0
  -36.6262  -22.0505   28.7176 N   0  0  0  0  0  0  0  0  0  0  0  0
  -29.9703  -13.6138   20.3657 N   0  0  0  0  0  0  0  0  0  0  0  0
  -25.4731  -15.0549   20.4048 N   0  0  0  0  0  0  0  0  0  0  0  0
  -21.8872  -12.5821   21.5977 N   0  0  0  0  0  0  0  0  0  0  0  0
  -30.0813  -15.6937   21.4721 N   0  0  0  0  0  0  0  0  0  0  0  0
  -28.4739  -17.4888   23.0172 N   0  0  0  0  0  0  0  0  0  0  0  0
  -39.4867  -23.6076   30.1505 N   0  0  0  0  0  0  0  0  0  0  0  0
  -33.4600  -23.7139   28.3983 N   0  0  0  0  0  0  0  0  0  0  0  0
  -32.0389  -24.9963   25.3318 N   0  3  0  0  0  0  0  0  0  0  0  0
  -22.6635  -14.7215   21.3166 O   0  0  0  0  0  0  0  0  0  0  0  0
  -38.0377  -21.9517   30.9126 O   0  0  0  0  0  0  0  0  0  0  0  0
  -35.9529  -24.2428   29.1070 O   0  0  0  0  0  0  0  0  0  0  0  0
  -32.7487  -22.5486   26.5239 O   0  0  0  0  0  0  0  0  0  0  0  0
  -31.8581  -14.9362   20.1872 O   0  0  0  0  0  0  0  0  0  0  0  0
  -26.3138  -18.7784   22.4626 O   0  0  0  0  0  0  0  0  0  0  0  0
  -28.4771  -20.0654   22.5566 O   0  0  0  0  0  0  0  0  0  0  0  0
  -21.6128   -7.0190   21.7092 O   0  0  0  0  0  0  0  0  0  0  0  0
  -36.1305  -18.0405   24.3297 O   0  0  0  0  0  0  0  0  0  1  0  0
  -18.6202   -6.8641   26.3379 F   0  0  0  0  0  0  0  0  0  0  0  0
  -22.0621   -5.0766   23.6243 F   0  0  0  0  0  0  0  0  0  0  0  0
  -27.7481  -18.8497   22.2542 S   0  0  0  0  0  0  0  0  0  0  0  0
  1  2  1  0  0  0  0
  1  6  2  0  0  0  0
  2  7  2  0  0  0  0
  3 10  2  0  0  0  0
  3 18  1  0  0  0  0
  4 11  1  0  0  0  0
  4 18  2  0  0  0  0
  5  9  2  0  0  0  0
  5 19  1  0  0  0  0
  6 21  1  0  0  0  0
  7 23  1  0  0  0  0
  8 12  2  0  0  0  0
  8 22  1  0  0  0  0
  9 25  1  0  0  0  0
 10 27  1  0  0  0  0
 11 27  2  0  0  0  0
 12 28  1  0  0  0  0
 13 14  2  0  0  0  0
 13 29  1  0  0  0  0
 14 30  1  0  0  0  0
 15 19  2  0  0  0  0
 15 26  1  0  0  0  0
 16 24  1  0  0  0  0
 16 28  2  0  0  0  0
 17 30  2  0  0  0  0
 17 31  1  0  0  0  0
 18 32  1  0  0  0  0
 19 34  1  0  0  0  0
 20 32  1  0  0  0  0
 20 33  2  0  0  0  0
 20 35  1  0  0  0  0
 21 23  2  0  0  0  0
 21 40  1  0  0  0  0
 22 24  2  0  0  0  0
 22 41  1  0  0  0  0
 23 49  1  0  0  0  0
 24 42  1  0  0  0  0
 25 26  2  0  0  0  0
 25 69  1  0  0  0  0
 26 68  1  0  0  0  0
 27 80  1  0  0  0  0
 28 81  1  0  0  0  0
 29 31  2  0  0  0  0
 29 80  1  0  0  0  0
 30 82  1  0  0  0  0
 31 83  1  0  0  0  0
 32 61  2  0  0  0  0
 33 63  1  0  0  0  0
 33 66  1  0  0  0  0
 34 62  2  0  0  0  0
 35 67  1  0  0  0  0
 35 73  2  0  0  0  0
 36 50  1  0  0  0  0
 36 70  1  0  0  0  0
 36 74  2  0  0  0  0
 37 58  1  0  0  0  0
 37 64  1  0  0  0  0
 37 75  2  0  0  0  0
 38 59  1  0  0  0  0
 38 71  1  0  0  0  0
 38 76  2  0  0  0  0
 39 65  1  0  0  0  0
 39 68  1  0  0  0  0
 39 77  2  0  0  0  0
 40 43  1  0  0  0  0
 41 50  1  0  0  0  0
 42 64  1  0  0  0  0
 43 45  1  0  0  0  0
 44 46  1  0  0  0  0
 44 47  1  0  0  0  0
 45 49  1  0  0  0  0
 46 51  1  0  0  0  0
 47 65  1  0  0  0  0
 48 51  1  0  0  0  0
 48 65  1  0  0  0  0
 49 70  1  0  0  0  0
 50 64  1  0  0  0  0
 51 63  1  0  0  0  0
 52 59  1  0  0  0  0
 53 60  1  0  0  0  0
 54 60  1  0  0  0  0
 55 60  1  0  0  0  0
 56 72  1  0  0  0  0
 57 84  1  0  0  0  0
 58 60  1  0  0  0  0
 58 71  1  0  0  0  0
 59 72  1  0  0  0  0
 61 63  1  0  0  0  0
 62 81  1  0  0  0  0
 69 84  1  0  0  0  0
 78 84  2  0  0  0  0
 79 84  2  0  0  0  0
M  CHG  1  72   1
M  ISO  4  39 100  62 101  68 100  81 101
M  END
> <Batch ID>
0070

> <Smiles>
CNC(C)C(=O)NC(C(=O)N1Cc2cc([101O:1][101N:1]=Cc3ccc(NS(C)(=O)=O)c([100NH:0][100C:0](=O)N4CCCC(n5nc(-c6ccc(Oc7ccc(F)cc7F)cc6)c(C(N)=O)c5N)C4)c3)ccc2CC1C(=O)NC1CCCc2ccccc21)C(C)(C)C

> <Shape>
0.176

> <Color>
0.188

> <Negative vol penalty>
0.000

$$$$

  -OEChem-04042323323D

 86 95  0     1  0  0  0  0  0999 V2000
  -22.9444  -10.8532   18.9592 C   0  0  0  0  0  0  0  0  0  0  0  0
  -22.3098  -12.0905   19.0021 C   0  0  0  0  0  0  0  0  0  0  0  0
  -28.9499  -26.7028   23.4014 C   0  0  0  0  0  0  0  0  0  0  0  0
  -29.3748  -28.9014   24.3085 C   0  0  0  0  0  0  0  0  0  0  0  0
  -24.1686  -10.6762   19.6027 C   0  0  0  0  0  0  0  0  0  0  0  0
  -22.8985  -13.1512   19.6896 C   0  0  0  0  0  0  0  0  0  0  0  0
  -22.6761  -19.0852   18.1913 C   0  0  0  0  0  0  0  0  0  0  0  0
  -29.7887  -26.1431   24.3651 C   0  0  0  0  0  0  0  0  0  0  0  0
  -30.2135  -28.3417   25.2723 C   0  0  0  0  0  0  0  0  0  0  0  0
  -21.8804  -20.1373   18.6425 C   0  0  0  0  0  0  0  0  0  0  0  0
  -29.6178  -25.3175   27.6396 C   0  0  0  0  0  0  0  0  0  0  0  0
  -29.1724  -24.1729   28.3006 C   0  0  0  0  0  0  0  0  0  0  0  0
  -23.6173  -20.7797   20.1885 C   0  0  0  0  0  0  0  0  0  0  0  0
  -20.3122  -26.9831   22.4687 C   0  0  0  0  0  0  0  0  0  0  0  0
  -18.9970  -29.0093   22.5136 C   0  0  0  0  0  0  0  0  0  0  0  0
  -31.0866  -22.9515   27.4753 C   0  0  0  0  0  0  0  0  0  0  0  0
  -28.7430  -28.0820   23.3730 C   0  0  0  0  0  0  0  0  0  0  0  0
  -28.0253  -28.5933   20.9791 C   0  0  0  0  0  0  0  0  0  0  0  0
  -24.7772  -11.7380   20.2902 C   0  0  0  0  0  0  0  0  0  0  0  0
  -23.9461  -18.8654   18.7439 C   0  0  0  0  0  0  0  0  0  0  0  0
  -24.1313  -12.9879   20.3441 C   0  0  0  0  0  0  0  0  0  0  0  0
  -24.4281  -19.7256   19.7407 C   0  0  0  0  0  0  0  0  0  0  0  0
  -17.9010  -26.8604   22.3788 C   0  0  0  0  0  0  0  0  0  0  0  0
  -19.1432  -26.2259   22.3938 C   0  0  0  0  0  0  0  0  0  0  0  0
  -20.2391  -28.3748   22.5286 C   0  0  0  0  0  0  0  0  0  0  0  0
  -30.4205  -26.9625   25.3006 C   0  0  0  0  0  0  0  0  0  0  0  0
  -22.3498  -20.9831   19.6433 C   0  0  0  0  0  0  0  0  0  0  0  0
  -30.7975  -25.2792   26.8963 C   0  0  0  0  0  0  0  0  0  0  0  0
  -29.9068  -22.9898   28.2185 C   0  0  0  0  0  0  0  0  0  0  0  0
  -17.8279  -28.2521   22.4387 C   0  0  0  0  0  0  0  0  0  0  0  0
  -31.5320  -24.0962   26.8142 C   0  0  0  0  0  0  0  0  0  0  0  0
  -27.8772  -28.6609   22.3774 C   0  0  0  0  0  0  0  0  0  0  0  0
  -26.9527  -29.2953   20.4859 C   0  0  0  0  0  0  0  0  0  0  0  0
  -19.9217  -22.7076   21.6481 C   0  0  0  0  0  0  0  0  0  0  0  0
  -18.6968  -23.8870   23.2541 C   0  0  0  0  0  0  0  0  0  0  0  0
  -20.7279  -21.7731   21.1319 C   0  0  0  0  0  0  0  0  0  1  0  0
  -29.0414  -27.9530   20.1960 C   0  0  0  0  0  0  0  0  0  0  0  0
  -25.3105  -16.4897   20.3556 C   0  0  0  0  0  0  0  0  0  0  0  0
  -27.9717  -18.3154   20.0282 C   0  0  0  0  0  0  0  0  0  0  0  0
  -28.8050  -21.8189   20.2482 C   0  0  0  0  0  0  0  0  0  0  0  0
  -21.5306  -30.5331   22.6708 C   0  0  0  0  0  0  0  0  0  0  0  0
  -26.0781  -11.4857   21.0105 C   0  0  0  0  0  0  0  0  0  0  0  0
  -24.8028  -17.7422   18.2274 C   0  0  0  0  0  0  0  0  0  0  0  0
  -25.7925  -19.5448   20.3524 C   0  0  0  0  0  0  0  0  0  0  0  0
  -18.9887  -22.4803   22.7859 C   0  0  0  0  0  0  0  0  0  0  0  0
  -19.9130  -24.1376   21.2340 C   0  0  0  0  0  0  0  0  0  0  0  0
  -26.8159  -12.7637   21.4011 C   0  0  0  0  0  0  0  0  0  0  0  0
  -23.9874  -32.8830   21.6127 C   0  0  0  0  0  0  0  0  0  0  0  0
  -25.8547  -13.7608   22.0406 C   0  0  0  0  0  0  0  0  0  0  0  0
  -25.2760  -32.0593   21.5556 C   0  0  0  0  0  0  0  0  0  0  0  0
  -23.0954  -32.4604   22.7788 C   0  0  0  0  0  0  0  0  0  0  0  0
  -24.0788  -30.2017   22.7815 C   0  0  0  0  0  0  0  0  0  0  0  0
  -24.7501  -14.1697   21.0587 C   0  0  1  0  0  0  0  0  0  0  0  0
  -25.8720  -17.3003   19.2219 C   0  0  1  0  0  0  0  0  0  0  0  0
  -24.9800  -30.5470   21.5847 C   0  0  2  0  0  0  0  0  0  0  0  0
  -16.6343  -26.0715   22.2975 C   0  0  0  0  0  0  0  0  0  0  0  0
  -30.6393  -23.1318   19.1488 C   0  0  0  0  0  0  0  0  0  0  0  0
  -29.5163  -17.7594   22.6002 C   0  0  0  0  0  0  0  0  0  0  0  0
  -30.4529  -20.0768   22.4564 C   0  0  0  0  0  0  0  0  0  0  0  0
  -30.9376  -18.4233   20.6526 C   0  0  0  0  0  0  0  0  0  0  0  0
  -26.8853  -23.7475   19.0845 C   0  0  0  0  0  0  0  0  0  0  0  0
  -28.6193  -19.4155   20.8341 C   0  0  1  0  0  0  0  0  0  0  0  0
  -29.1708  -22.7400   19.0984 C   0  0  2  0  0  0  0  0  0  0  0  0
  -29.8534  -18.9145   21.6363 C   0  0  0  0  0  0  0  0  0  0  0  0
  -26.7958  -29.3515   22.7486 N   0  0  0  0  0  0  0  0  0  0  0  0
  -26.2548  -29.7243   21.5763 N   0  0  0  0  0  0  0  0  0  0  0  0
  -19.2389  -24.7991   22.3332 N   0  0  0  0  0  0  0  0  0  0  0  0
  -26.5900  -18.4285   19.8183 N   0  0  0  0  0  0  0  0  0  0  0  0
  -22.8544  -31.0164   22.7389 N   0  0  0  0  0  0  0  0  0  0  0  0
  -26.5480  -29.5814   19.2302 N   0  0  0  0  0  0  0  0  0  0  0  0
  -30.1830  -28.6897   19.8518 N   0  0  0  0  0  0  0  0  0  0  0  0
  -21.4266  -29.1440   22.6048 N   0  0  0  0  0  0  0  0  0  0  0  0
  -25.2544  -15.1323   20.1029 N   0  0  0  0  0  0  0  0  0  0  0  0
  -28.9144  -20.4909   19.8936 N   0  0  0  0  0  0  0  0  0  0  0  0
  -28.3506  -23.9832   19.1495 N   0  3  0  0  0  0  0  0  0  0  0  0
  -18.0533  -24.0987   24.2741 O   0  0  0  0  0  0  0  0  0  0  0  0
  -28.9326  -26.7681   19.7990 O   0  0  0  0  0  0  0  0  0  0  0  0
  -24.9560  -17.0538   21.3841 O   0  0  0  0  0  0  0  0  0  0  0  0
  -28.6673  -17.3936   19.5947 O   0  0  0  0  0  0  0  0  0  0  0  0
  -28.4604  -22.2358   21.3519 O   0  0  0  0  0  0  0  0  0  0  0  0
  -20.5617  -31.2963   22.6435 O   0  0  0  0  0  0  0  0  0  0  0  0
  -31.2388  -26.4167   26.2413 O   0  0  0  0  0  0  0  0  0  0  0  0
  -21.5750  -22.0104   20.0860 O   0  0  0  0  0  0  0  0  0  1  0  0
  -29.4798  -21.8911   28.8546 F   0  0  0  0  0  0  0  0  0  0  0  0
  -16.6394  -28.8717   22.4232 F   0  0  0  0  0  0  0  0  0  0  0  0
  -32.6667  -24.0535   26.1027 F   0  0  0  0  0  0  0  0  0  0  0  0
  1  2  1  0  0  0  0
  1  5  2  0  0  0  0
  2  6  2  0  0  0  0
  3  8  2  0  0  0  0
  3 17  1  0  0  0  0
  4  9  1  0  0  0  0
  4 17  2  0  0  0  0
  5 19  1  0  0  0  0
  6 21  1  0  0  0  0
  7 10  2  0  0  0  0
  7 20  1  0  0  0  0
  8 26  1  0  0  0  0
  9 26  2  0  0  0  0
 10 27  1  0  0  0  0
 11 12  2  0  0  0  0
 11 28  1  0  0  0  0
 12 29  1  0  0  0  0
 13 22  1  0  0  0  0
 13 27  2  0  0  0  0
 14 24  1  0  0  0  0
 14 25  2  0  0  0  0
 15 25  1  0  0  0  0
 15 30  2  0  0  0  0
 16 29  2  0  0  0  0
 16 31  1  0  0  0  0
 17 32  1  0  0  0  0
 18 32  1  0  0  0  0
 18 33  2  0  0  0  0
 18 37  1  0  0  0  0
 19 21  2  0  0  0  0
 19 42  1  0  0  0  0
 20 22  2  0  0  0  0
 20 43  1  0  0  0  0
 21 53  1  0  0  0  0
 22 44  1  0  0  0  0
 23 24  2  0  0  0  0
 23 30  1  0  0  0  0
 23 56  1  0  0  0  0
 24 67  1  0  0  0  0
 25 72  1  0  0  0  0
 26 82  1  0  0  0  0
 27 83  1  0  0  0  0
 28 31  2  0  0  0  0
 28 82  1  0  0  0  0
 29 84  1  0  0  0  0
 30 85  1  0  0  0  0
 31 86  1  0  0  0  0
 32 65  2  0  0  0  0
 33 66  1  0  0  0  0
 33 70  1  0  0  0  0
 34 36  2  0  0  0  0
 34 45  1  0  0  0  0
 34 46  1  0  0  0  0
 35 45  1  0  0  0  0
 35 67  1  0  0  0  0
 35 76  2  0  0  0  0
 36 83  1  0  0  0  0
 37 71  1  0  0  0  0
 37 77  2  0  0  0  0
 38 54  1  0  0  0  0
 38 73  1  0  0  0  0
 38 78  2  0  0  0  0
 39 62  1  0  0  0  0
 39 68  1  0  0  0  0
 39 79  2  0  0  0  0
 40 63  1  0  0  0  0
 40 74  1  0  0  0  0
 40 80  2  0  0  0  0
 41 69  1  0  0  0  0
 41 72  1  0  0  0  0
 41 81  2  0  0  0  0
 42 47  1  0  0  0  0
 43 54  1  0  0  0  0
 44 68  1  0  0  0  0
 46 67  1  0  0  0  0
 47 49  1  0  0  0  0
 48 50  1  0  0  0  0
 48 51  1  0  0  0  0
 49 53  1  0  0  0  0
 50 55  1  0  0  0  0
 51 69  1  0  0  0  0
 52 55  1  0  0  0  0
 52 69  1  0  0  0  0
 53 73  1  0  0  0  0
 54 68  1  0  0  0  0
 55 66  1  0  0  0  0
 57 63  1  0  0  0  0
 58 64  1  0  0  0  0
 59 64  1  0  0  0  0
 60 64  1  0  0  0  0
 61 75  1  0  0  0  0
 62 64  1  0  0  0  0
 62 74  1  0  0  0  0
 63 75  1  0  0  0  0
 65 66  1  0  0  0  0
M  CHG  1  75   1
M  ISO  4  36 101  41 100  72 100  83 101
M  END
> <Batch ID>
0070

> <Smiles>
CNC(C)C(=O)NC(C(=O)N1Cc2cc([101O:1][101CH:1]=C3CC(=O)N(c4cc([100NH:0][100C:0](=O)N5CCCC(n6nc(-c7ccc(Oc8ccc(F)cc8F)cc7)c(C(N)=O)c6N)C5)cc(F)c4C)C3)ccc2CC1C(=O)NC1CCCc2ccccc21)C(C)(C)C

> <Shape>
0.237

> <Color>
0.085

> <Negative vol penalty>
0.000

$$$$

  -OEChem-04042323323D

 85 93  0     1  0  0  0  0  0999 V2000
  -27.8171  -33.5477   14.4102 C   0  0  0  0  0  0  0  0  0  0  0  0
  -28.5510  -32.5895   15.1022 C   0  0  0  0  0  0  0  0  0  0  0  0
  -23.0400   -9.9848   19.8807 C   0  0  0  0  0  0  0  0  0  0  0  0
  -23.9232   -9.7729   22.1195 C   0  0  0  0  0  0  0  0  0  0  0  0
  -26.6808  -34.1081   14.9920 C   0  0  0  0  0  0  0  0  0  0  0  0
  -28.1494  -32.1920   16.3770 C   0  0  0  0  0  0  0  0  0  0  0  0
  -28.6527  -26.5979   18.8181 C   0  0  0  0  0  0  0  0  0  0  0  0
  -22.3114   -8.8085   20.0568 C   0  0  0  0  0  0  0  0  0  0  0  0
  -23.1945   -8.5966   22.2956 C   0  0  0  0  0  0  0  0  0  0  0  0
  -29.5855  -26.0344   19.6876 C   0  0  0  0  0  0  0  0  0  0  0  0
  -20.0042   -7.7254   22.9907 C   0  0  0  0  0  0  0  0  0  0  0  0
  -19.3119   -7.5673   24.1913 C   0  0  0  0  0  0  0  0  0  0  0  0
  -28.1319  -26.5184   21.5510 C   0  0  0  0  0  0  0  0  0  0  0  0
  -30.3402  -19.0677   23.0915 C   0  0  0  0  0  0  0  0  0  0  0  0
  -30.7419  -19.2184   20.7139 C   0  0  0  0  0  0  0  0  0  0  0  0
  -20.5924   -5.5746   24.6673 C   0  0  0  0  0  0  0  0  0  0  0  0
  -23.8460  -10.4670   20.9120 C   0  0  0  0  0  0  0  0  0  0  0  0
  -24.1796  -12.9938   21.0205 C   0  0  0  0  0  0  0  0  0  0  0  0
  -26.2596  -33.7102   16.2707 C   0  0  0  0  0  0  0  0  0  0  0  0
  -27.4553  -27.1366   19.3105 C   0  0  0  0  0  0  0  0  0  0  0  0
  -27.0071  -32.7486   16.9771 C   0  0  0  0  0  0  0  0  0  0  0  0
  -27.1844  -27.0859   20.6853 C   0  0  0  0  0  0  0  0  0  0  0  0
  -30.1694  -17.6883   22.9752 C   0  0  0  0  0  0  0  0  0  0  0  0
  -30.6264  -19.8328   21.9608 C   0  0  0  0  0  0  0  0  0  0  0  0
  -30.2848  -17.0739   21.7282 C   0  0  0  0  0  0  0  0  0  0  0  0
  -22.3886   -8.1145   21.2642 C   0  0  0  0  0  0  0  0  0  0  0  0
  -29.3265  -25.9972   21.0546 C   0  0  0  0  0  0  0  0  0  0  0  0
  -20.9905   -6.8080   22.6284 C   0  0  0  0  0  0  0  0  0  0  0  0
  -19.6060   -6.4919   25.0296 C   0  0  0  0  0  0  0  0  0  0  0  0
  -30.5711  -17.8390   20.5976 C   0  0  0  0  0  0  0  0  0  0  0  0
  -21.2846   -5.7326   23.4667 C   0  0  0  0  0  0  0  0  0  0  0  0
  -24.5994  -11.6817   20.7305 C   0  0  0  0  0  0  0  0  0  0  0  0
  -25.2501  -13.7813   20.6736 C   0  0  0  0  0  0  0  0  0  0  0  0
  -30.1368  -24.1129   22.1786 C   0  0  0  0  0  0  0  0  0  1  0  0
  -22.9335  -13.4590   21.5556 C   0  0  0  0  0  0  0  0  0  0  0  0
  -30.9680  -23.4544   22.9977 C   0  0  0  0  0  0  0  0  0  0  0  0
  -30.7367  -21.9936   23.2388 C   0  0  0  0  0  0  0  0  0  0  0  0
  -26.1310  -30.0263   19.3168 C   0  0  0  0  0  0  0  0  0  0  0  0
  -23.6086  -28.4404   20.5993 C   0  0  0  0  0  0  0  0  0  0  0  0
  -22.4671  -25.7298   22.3302 C   0  0  0  0  0  0  0  0  0  0  0  0
  -30.7172  -14.8365   20.6543 C   0  0  0  0  0  0  0  0  0  0  0  0
  -25.0517  -34.3787   16.8778 C   0  0  0  0  0  0  0  0  0  0  0  0
  -26.4475  -27.7169   18.3564 C   0  0  0  0  0  0  0  0  0  0  0  0
  -25.9049  -27.6323   21.2621 C   0  0  0  0  0  0  0  0  0  0  0  0
  -24.4806  -33.6299   18.0792 C   0  0  0  0  0  0  0  0  0  0  0  0
  -29.4771  -12.6582   18.1256 C   0  0  0  0  0  0  0  0  0  0  0  0
  -25.5977  -33.2229   19.0348 C   0  0  0  0  0  0  0  0  0  0  0  0
  -28.0630  -12.3179   18.6017 C   0  0  0  0  0  0  0  0  0  0  0  0
  -30.4560  -12.7743   19.2927 C   0  0  0  0  0  0  0  0  0  0  0  0
  -28.6264  -13.3498   20.8388 C   0  0  0  0  0  0  0  0  0  0  0  0
  -26.5894  -32.2734   18.3517 C   0  0  1  0  0  0  0  0  0  0  0  0
  -25.4899  -28.6994   19.0235 C   0  0  1  0  0  0  0  0  0  0  0  0
  -27.5912  -13.2864   19.7039 C   0  0  2  0  0  0  0  0  0  0  0  0
  -29.8622  -16.8939   24.2033 C   0  0  0  0  0  0  0  0  0  0  0  0
  -32.0970  -24.0804   23.7561 C   0  0  0  0  0  0  0  0  0  0  0  0
  -20.3614  -24.7298   23.2595 C   0  0  0  0  0  0  0  0  0  0  0  0
  -23.6608  -30.4608   22.8851 C   0  0  0  0  0  0  0  0  0  0  0  0
  -22.2221  -28.8963   24.2082 C   0  0  0  0  0  0  0  0  0  0  0  0
  -21.3722  -29.8644   22.0720 C   0  0  0  0  0  0  0  0  0  0  0  0
  -22.7381  -23.3081   20.6507 C   0  0  0  0  0  0  0  0  0  0  0  0
  -23.1681  -28.0863   21.9991 C   0  0  1  0  0  0  0  0  0  0  0  0
  -21.3085  -24.7839   22.0709 C   0  0  2  0  0  0  0  0  0  0  0  0
  -22.6309  -29.3184   22.7808 C   0  0  0  0  0  0  0  0  0  0  0  0
  -25.8398  -11.6343   20.2372 N   0  0  0  0  0  0  0  0  0  0  0  0
  -26.2085  -12.9265   20.2145 N   0  0  0  0  0  0  0  0  0  0  0  0
  -24.9538  -28.1951   20.2894 N   0  0  0  0  0  0  0  0  0  0  0  0
  -29.9449  -13.7116   20.2953 N   0  0  0  0  0  0  0  0  0  0  0  0
  -25.4556  -15.1148   20.7195 N   0  0  0  0  0  0  0  0  0  0  0  0
  -21.9418  -12.5155   21.8567 N   0  0  0  0  0  0  0  0  0  0  0  0
  -30.7986  -21.2335   22.0795 N   0  0  0  0  0  0  0  0  0  0  0  0
  -30.1148  -15.6737   21.5928 N   0  0  0  0  0  0  0  0  0  0  0  0
  -26.0412  -30.9359   18.2805 N   0  0  0  0  0  0  0  0  0  0  0  0
  -22.2046  -26.9996   21.8612 N   0  0  0  0  0  0  0  0  0  0  0  0
  -21.8131  -23.4063   21.8090 N   0  3  0  0  0  0  0  0  0  0  0  0
  -22.7001  -14.6768   21.7453 O   0  0  0  0  0  0  0  0  0  0  0  0
  -30.5735  -21.5979   24.3888 O   0  0  0  0  0  0  0  0  0  0  0  0
  -26.6662  -30.2116   20.4035 O   0  0  0  0  0  0  0  0  0  0  0  0
  -22.7876  -28.9105   19.8076 O   0  0  0  0  0  0  0  0  0  0  0  0
  -23.5001  -25.3784   22.8959 O   0  0  0  0  0  0  0  0  0  0  0  0
  -31.8192  -15.0564   20.1452 O   0  0  0  0  0  0  0  0  0  0  0  0
  -21.6775   -6.9668   21.4365 O   0  0  0  0  0  0  0  0  0  0  0  0
  -30.2355  -25.4483   21.9056 O   0  0  0  0  0  0  0  0  0  1  0  0
  -18.9422   -6.3411   26.1831 F   0  0  0  0  0  0  0  0  0  0  0  0
  -30.6842  -17.2598   19.3937 F   0  0  0  0  0  0  0  0  0  0  0  0
  -22.2320   -4.8488   23.1245 F   0  0  0  0  0  0  0  0  0  0  0  0
  1  2  1  0  0  0  0
  1  5  2  0  0  0  0
  2  6  2  0  0  0  0
  3  8  2  0  0  0  0
  3 17  1  0  0  0  0
  4  9  1  0  0  0  0
  4 17  2  0  0  0  0
  5 19  1  0  0  0  0
  6 21  1  0  0  0  0
  7 10  2  0  0  0  0
  7 20  1  0  0  0  0
  8 26  1  0  0  0  0
  9 26  2  0  0  0  0
 10 27  1  0  0  0  0
 11 12  2  0  0  0  0
 11 28  1  0  0  0  0
 12 29  1  0  0  0  0
 13 22  1  0  0  0  0
 13 27  2  0  0  0  0
 14 23  2  0  0  0  0
 14 24  1  0  0  0  0
 15 24  2  0  0  0  0
 15 30  1  0  0  0  0
 16 29  2  0  0  0  0
 16 31  1  0  0  0  0
 17 32  1  0  0  0  0
 18 32  1  0  0  0  0
 18 33  2  0  0  0  0
 18 35  1  0  0  0  0
 19 21  2  0  0  0  0
 19 42  1  0  0  0  0
 20 22  2  0  0  0  0
 20 43  1  0  0  0  0
 21 51  1  0  0  0  0
 22 44  1  0  0  0  0
 23 25  1  0  0  0  0
 23 54  1  0  0  0  0
 24 70  1  0  0  0  0
 25 30  2  0  0  0  0
 25 71  1  0  0  0  0
 26 81  1  0  0  0  0
 27 82  1  0  0  0  0
 28 31  2  0  0  0  0
 28 81  1  0  0  0  0
 29 83  1  0  0  0  0
 30 84  1  0  0  0  0
 31 85  1  0  0  0  0
 32 64  2  0  0  0  0
 33 65  1  0  0  0  0
 33 68  1  0  0  0  0
 34 36  2  0  0  0  0
 34 82  1  0  0  0  0
 35 69  1  0  0  0  0
 35 75  2  0  0  0  0
 36 37  1  0  0  0  0
 36 55  1  0  0  0  0
 37 70  1  0  0  0  0
 37 76  2  0  0  0  0
 38 52  1  0  0  0  0
 38 72  1  0  0  0  0
 38 77  2  0  0  0  0
 39 61  1  0  0  0  0
 39 66  1  0  0  0  0
 39 78  2  0  0  0  0
 40 62  1  0  0  0  0
 40 73  1  0  0  0  0
 40 79  2  0  0  0  0
 41 67  1  0  0  0  0
 41 71  1  0  0  0  0
 41 80  2  0  0  0  0
 42 45  1  0  0  0  0
 43 52  1  0  0  0  0
 44 66  1  0  0  0  0
 45 47  1  0  0  0  0
 46 48  1  0  0  0  0
 46 49  1  0  0  0  0
 47 51  1  0  0  0  0
 48 53  1  0  0  0  0
 49 67  1  0  0  0  0
 50 53  1  0  0  0  0
 50 67  1  0  0  0  0
 51 72  1  0  0  0  0
 52 66  1  0  0  0  0
 53 65  1  0  0  0  0
 56 62  1  0  0  0  0
 57 63  1  0  0  0  0
 58 63  1  0  0  0  0
 59 63  1  0  0  0  0
 60 74  1  0  0  0  0
 61 63  1  0  0  0  0
 61 73  1  0  0  0  0
 62 74  1  0  0  0  0
 64 65  1  0  0  0  0
M  CHG  1  74   1
M  ISO  4  34 101  41 100  71 100  82 101
M  END
> <Batch ID>
0070

> <Smiles>
CNC(C)C(=O)NC(C(=O)N1Cc2cc([101O:1][101CH:1]=C(C)C(=O)Nc3cc(C)c([100NH:0][100C:0](=O)N4CCCC(n5nc(-c6ccc(Oc7ccc(F)cc7F)cc6)c(C(N)=O)c5N)C4)c(F)c3)ccc2CC1C(=O)NC1CCCc2ccccc21)C(C)(C)C

> <Shape>
0.296

> <Color>
0.195

> <Negative vol penalty>
0.000

$$$$

  -OEChem-04042323323D

 86 94  0     1  0  0  0  0  0999 V2000
  -32.0859  -13.4000   21.3553 C   0  0  0  0  0  0  0  0  0  0  0  0
  -31.5001  -14.6161   21.6919 C   0  0  0  0  0  0  0  0  0  0  0  0
  -27.2358  -24.2160   23.1840 C   0  0  0  0  0  0  0  0  0  0  0  0
  -29.2367  -25.3501   22.4440 C   0  0  0  0  0  0  0  0  0  0  0  0
  -31.3929  -12.4909   20.5571 C   0  0  0  0  0  0  0  0  0  0  0  0
  -30.2212  -14.9243   21.2294 C   0  0  0  0  0  0  0  0  0  0  0  0
  -24.2924  -18.4583   23.1466 C   0  0  0  0  0  0  0  0  0  0  0  0
  -18.8437  -25.4982   23.7692 C   0  0  0  0  0  0  0  0  0  0  0  0
  -18.5876  -26.7827   24.2488 C   0  0  0  0  0  0  0  0  0  0  0  0
  -27.8169  -22.9870   22.8717 C   0  0  0  0  0  0  0  0  0  0  0  0
  -29.8178  -24.1211   22.1317 C   0  0  0  0  0  0  0  0  0  0  0  0
  -23.4144  -19.4291   22.6665 C   0  0  0  0  0  0  0  0  0  0  0  0
  -28.6386  -19.5714   21.9327 C   0  0  0  0  0  0  0  0  0  0  0  0
  -27.8591  -18.6391   21.2480 C   0  0  0  0  0  0  0  0  0  0  0  0
  -19.9880  -26.4390   21.8607 C   0  0  0  0  0  0  0  0  0  0  0  0
  -22.2802  -17.7483   21.3596 C   0  0  0  0  0  0  0  0  0  0  0  0
  -27.6036  -20.1963   19.4185 C   0  0  0  0  0  0  0  0  0  0  0  0
  -27.9457  -25.3976   22.9701 C   0  0  0  0  0  0  0  0  0  0  0  0
  -19.7318  -27.7236   22.3403 C   0  0  0  0  0  0  0  0  0  0  0  0
  -27.4123  -27.3521   24.5202 C   0  0  0  0  0  0  0  0  0  0  0  0
  -30.1011  -12.7840   20.0925 C   0  0  0  0  0  0  0  0  0  0  0  0
  -24.1775  -17.1250   22.7277 C   0  0  0  0  0  0  0  0  0  0  0  0
  -29.5108  -14.0188   20.4230 C   0  0  0  0  0  0  0  0  0  0  0  0
  -23.1564  -16.7621   21.8379 C   0  0  0  0  0  0  0  0  0  0  0  0
  -19.5441  -25.3264   22.5752 C   0  0  0  0  0  0  0  0  0  0  0  0
  -19.0315  -27.8954   23.5344 C   0  0  0  0  0  0  0  0  0  0  0  0
  -29.1078  -22.9395   22.3456 C   0  0  0  0  0  0  0  0  0  0  0  0
  -22.4099  -19.0747   21.7706 C   0  0  0  0  0  0  0  0  0  0  0  0
  -28.9005  -20.8162   21.3603 C   0  0  0  0  0  0  0  0  0  0  0  0
  -27.3417  -18.9515   19.9909 C   0  0  0  0  0  0  0  0  0  0  0  0
  -28.3831  -21.1286   20.1033 C   0  0  0  0  0  0  0  0  0  0  0  0
  -27.3458  -26.6675   23.2920 C   0  0  0  0  0  0  0  0  0  0  0  0
  -26.6864  -28.4997   24.3134 C   0  0  0  0  0  0  0  0  0  0  0  0
  -20.2191  -28.8876   21.5564 C   0  0  0  0  0  0  0  0  0  0  0  0
  -28.0713  -26.9838   25.7391 C   0  0  0  0  0  0  0  0  0  0  0  0
  -19.8817  -21.6449   21.8738 C   0  0  0  0  0  0  0  0  0  0  0  0
  -19.4335  -22.8323   22.6757 C   0  0  0  0  0  0  0  0  0  0  0  0
  -26.0534  -15.0988   21.1532 C   0  0  0  0  0  0  0  0  0  0  0  0
  -23.7069  -12.9774   21.8713 C   0  0  0  0  0  0  0  0  0  0  0  0
  -20.4332  -12.4391   22.6710 C   0  0  0  0  0  0  0  0  0  0  0  0
  -22.2560  -29.9354   20.6199 C   0  0  0  0  0  0  0  0  0  0  0  0
  -29.4100  -11.7898   19.1932 C   0  0  0  0  0  0  0  0  0  0  0  0
  -25.1157  -16.0849   23.2756 C   0  0  0  0  0  0  0  0  0  0  0  0
  -22.9778  -15.3407   21.3729 C   0  0  0  0  0  0  0  0  0  0  0  0
  -27.9097  -12.0346   19.0540 C   0  0  0  0  0  0  0  0  0  0  0  0
  -25.3972  -31.5419   20.8405 C   0  0  0  0  0  0  0  0  0  0  0  0
  -27.6317  -13.5116   18.7928 C   0  0  0  0  0  0  0  0  0  0  0  0
  -26.2588  -30.5448   21.6202 C   0  0  0  0  0  0  0  0  0  0  0  0
  -24.4432  -30.8361   19.8779 C   0  0  0  0  0  0  0  0  0  0  0  0
  -24.4690  -28.7984   21.2583 C   0  0  0  0  0  0  0  0  0  0  0  0
  -28.1154  -14.3790   19.9612 C   0  0  1  0  0  0  0  0  0  0  0  0
  -25.2276  -14.8520   22.3840 C   0  0  1  0  0  0  0  0  0  0  0  0
  -25.3970  -29.4568   22.2919 C   0  0  1  0  0  0  0  0  0  0  0  0
  -18.8023  -10.5957   23.1605 C   0  0  0  0  0  0  0  0  0  0  0  0
  -23.5727  -12.3097   18.8971 C   0  0  0  0  0  0  0  0  0  0  0  0
  -21.3564  -11.2217   19.3126 C   0  0  0  0  0  0  0  0  0  0  0  0
  -23.4076  -10.3319   20.4187 C   0  0  0  0  0  0  0  0  0  0  0  0
  -19.9061  -13.4711   25.3943 C   0  0  0  0  0  0  0  0  0  0  0  0
  -21.2658  -21.1231   22.1592 C   0  0  0  0  0  0  0  0  0  1  0  0
  -22.4305  -12.5281   21.2022 C   0  0  1  0  0  0  0  0  0  0  0  0
  -19.7865  -11.5926   23.7525 C   0  0  2  0  0  0  0  0  0  0  0  0
  -22.6961  -11.6251   19.9647 C   0  0  0  0  0  0  0  0  0  0  0  0
  -26.6338  -27.3251   22.3730 N   0  0  0  0  0  0  0  0  0  0  0  0
  -26.2461  -28.4349   23.0242 N   0  0  0  0  0  0  0  0  0  0  0  0
  -23.9241  -14.3612   21.9321 N   0  0  0  0  0  0  0  0  0  0  0  0
  -23.6575  -29.8288   20.5930 N   0  0  0  0  0  0  0  0  0  0  0  0
  -18.7610  -29.1877   24.0371 N   0  0  0  0  0  0  0  0  0  0  0  0
  -26.3881  -29.5476   25.1104 N   0  0  0  0  0  0  0  0  0  0  0  0
  -28.7727  -25.7710   25.7793 N   0  0  0  0  0  0  0  0  0  0  0  0
  -19.8035  -24.0235   22.0896 N   0  0  0  0  0  0  0  0  0  0  0  0
  -21.5996  -28.9490   21.3645 N   0  0  0  0  0  0  0  0  0  0  0  0
  -27.1820  -14.3064   21.0648 N   0  0  0  0  0  0  0  0  0  0  0  0
  -21.6254  -11.8957   22.2416 N   0  0  0  0  0  0  0  0  0  0  0  0
  -19.0541  -12.4584   24.7194 N   0  3  0  0  0  0  0  0  0  0  0  0
  -19.4041  -29.6850   21.1006 O   0  0  0  0  0  0  0  0  0  0  0  0
  -28.0255  -27.7009   26.7673 O   0  0  0  0  0  0  0  0  0  0  0  0
  -19.1075  -21.2012   21.0394 O   0  0  0  0  0  0  0  0  0  0  0  0
  -18.8443  -22.5971   23.7176 O   0  0  0  0  0  0  0  0  0  0  0  0
  -25.6926  -15.9445   20.3431 O   0  0  0  0  0  0  0  0  0  0  0  0
  -24.4794  -12.1319   22.3297 O   0  0  0  0  0  0  0  0  0  0  0  0
  -19.9291  -13.4766   22.2467 O   0  0  0  0  0  0  0  0  0  0  0  0
  -21.6438  -30.8511   20.0613 O   0  0  0  0  0  0  0  0  0  0  0  0
  -29.6752  -21.7404   22.0410 O   0  0  0  0  0  0  0  0  0  0  0  0
  -21.5520  -20.0204   21.2999 O   0  0  0  0  0  0  0  0  0  1  0  0
  -26.5944  -18.0555   19.3329 F   0  0  0  0  0  0  0  0  0  0  0  0
  -28.6323  -22.3224   19.5478 F   0  0  0  0  0  0  0  0  0  0  0  0
  1  2  1  0  0  0  0
  1  5  2  0  0  0  0
  2  6  2  0  0  0  0
  3 10  2  0  0  0  0
  3 18  1  0  0  0  0
  4 11  1  0  0  0  0
  4 18  2  0  0  0  0
  5 21  1  0  0  0  0
  6 23  1  0  0  0  0
  7 12  2  0  0  0  0
  7 22  1  0  0  0  0
  8  9  2  0  0  0  0
  8 25  1  0  0  0  0
  9 26  1  0  0  0  0
 10 27  1  0  0  0  0
 11 27  2  0  0  0  0
 12 28  1  0  0  0  0
 13 14  2  0  0  0  0
 13 29  1  0  0  0  0
 14 30  1  0  0  0  0
 15 19  1  0  0  0  0
 15 25  2  0  0  0  0
 16 24  1  0  0  0  0
 16 28  2  0  0  0  0
 17 30  2  0  0  0  0
 17 31  1  0  0  0  0
 18 32  1  0  0  0  0
 19 26  2  0  0  0  0
 19 34  1  0  0  0  0
 20 32  1  0  0  0  0
 20 33  2  0  0  0  0
 20 35  1  0  0  0  0
 21 23  2  0  0  0  0
 21 42  1  0  0  0  0
 22 24  2  0  0  0  0
 22 43  1  0  0  0  0
 23 51  1  0  0  0  0
 24 44  1  0  0  0  0
 25 70  1  0  0  0  0
 26 67  1  0  0  0  0
 27 83  1  0  0  0  0
 28 84  1  0  0  0  0
 29 31  2  0  0  0  0
 29 83  1  0  0  0  0
 30 85  1  0  0  0  0
 31 86  1  0  0  0  0
 32 63  2  0  0  0  0
 33 64  1  0  0  0  0
 33 68  1  0  0  0  0
 34 71  1  0  0  0  0
 34 75  2  0  0  0  0
 35 69  1  0  0  0  0
 35 76  2  0  0  0  0
 36 37  1  0  0  0  0
 36 59  1  0  0  0  0
 36 77  2  0  0  0  0
 37 70  1  0  0  0  0
 37 78  2  0  0  0  0
 38 52  1  0  0  0  0
 38 72  1  0  0  0  0
 38 79  2  0  0  0  0
 39 60  1  0  0  0  0
 39 65  1  0  0  0  0
 39 80  2  0  0  0  0
 40 61  1  0  0  0  0
 40 73  1  0  0  0  0
 40 81  2  0  0  0  0
 41 66  1  0  0  0  0
 41 71  1  0  0  0  0
 41 82  2  0  0  0  0
 42 45  1  0  0  0  0
 43 52  1  0  0  0  0
 44 65  1  0  0  0  0
 45 47  1  0  0  0  0
 46 48  1  0  0  0  0
 46 49  1  0  0  0  0
 47 51  1  0  0  0  0
 48 53  1  0  0  0  0
 49 66  1  0  0  0  0
 50 53  1  0  0  0  0
 50 66  1  0  0  0  0
 51 72  1  0  0  0  0
 52 65  1  0  0  0  0
 53 64  1  0  0  0  0
 54 61  1  0  0  0  0
 55 62  1  0  0  0  0
 56 62  1  0  0  0  0
 57 62  1  0  0  0  0
 58 74  1  0  0  0  0
 59 84  1  0  0  0  0
 60 62  1  0  0  0  0
 60 73  1  0  0  0  0
 61 74  1  0  0  0  0
 63 64  1  0  0  0  0
M  CHG  1  74   1
M  ISO  4  41 100  59 101  71 100  84 101
M  END
> <Batch ID>
0070

> <Smiles>
CNC(C)C(=O)NC(C(=O)N1Cc2cc([101O:1][101CH2:1]C(=O)C(=O)Nc3ccc(N)c(C(=O)[100NH:0][100C:0](=O)N4CCCC(n5nc(-c6ccc(Oc7ccc(F)cc7F)cc6)c(C(N)=O)c5N)C4)c3)ccc2CC1C(=O)NC1CCCc2ccccc21)C(C)(C)C

> <Shape>
0.237

> <Color>
0.057

> <Negative vol penalty>
0.000

$$$$

  -OEChem-04042323323D

 89 98  0     1  0  0  0  0  0999 V2000
  -30.7901  -34.9172   19.8796 C   0  0  0  0  0  0  0  0  0  0  0  0
  -30.5805  -33.5490   20.0187 C   0  0  0  0  0  0  0  0  0  0  0  0
  -22.8875  -13.5127   23.1728 C   0  0  0  0  0  0  0  0  0  0  0  0
  -24.5090  -11.9373   24.0248 C   0  0  0  0  0  0  0  0  0  0  0  0
  -30.0342  -35.8169   20.6300 C   0  0  0  0  0  0  0  0  0  0  0  0
  -29.6156  -33.0795   20.9092 C   0  0  0  0  0  0  0  0  0  0  0  0
  -26.7614  -29.4003   18.9189 C   0  0  0  0  0  0  0  0  0  0  0  0
  -30.7699  -20.0663   19.6264 C   0  0  0  0  0  0  0  0  0  0  0  0
  -30.5331  -18.6947   19.5366 C   0  0  0  0  0  0  0  0  0  0  0  0
  -22.2704  -13.5537   24.4230 C   0  0  0  0  0  0  0  0  0  0  0  0
  -23.8919  -11.9783   25.2750 C   0  0  0  0  0  0  0  0  0  0  0  0
  -27.3183  -28.1235   18.8606 C   0  0  0  0  0  0  0  0  0  0  0  0
  -21.1564  -10.6449   26.7480 C   0  0  0  0  0  0  0  0  0  0  0  0
  -20.9348   -9.4327   27.4014 C   0  0  0  0  0  0  0  0  0  0  0  0
  -26.0859  -27.5021   20.8391 C   0  0  0  0  0  0  0  0  0  0  0  0
  -28.3944  -20.4853   19.4914 C   0  0  0  0  0  0  0  0  0  0  0  0
  -22.3052  -10.1768   29.2468 C   0  0  0  0  0  0  0  0  0  0  0  0
  -24.0068  -12.7045   22.9736 C   0  0  0  0  0  0  0  0  0  0  0  0
  -24.0659  -12.2652   20.4614 C   0  0  0  0  0  0  0  0  0  0  0  0
  -29.0528  -35.3586   21.5230 C   0  0  0  0  0  0  0  0  0  0  0  0
  -25.8695  -29.7415   19.9458 C   0  0  0  0  0  0  0  0  0  0  0  0
  -28.8468  -33.9739   21.6733 C   0  0  0  0  0  0  0  0  0  0  0  0
  -25.5171  -28.7831   20.9067 C   0  0  0  0  0  0  0  0  0  0  0  0
  -29.7005  -20.9617   19.6038 C   0  0  0  0  0  0  0  0  0  0  0  0
  -29.2269  -18.2183   19.4241 C   0  0  0  0  0  0  0  0  0  0  0  0
  -28.1575  -19.1136   19.4016 C   0  0  0  0  0  0  0  0  0  0  0  0
  -22.7726  -12.7865   25.4742 C   0  0  0  0  0  0  0  0  0  0  0  0
  -26.9828  -27.1750   19.8224 C   0  0  0  0  0  0  0  0  0  0  0  0
  -21.9524  -11.6231   27.3440 C   0  0  0  0  0  0  0  0  0  0  0  0
  -21.5092   -9.1986   28.6508 C   0  0  0  0  0  0  0  0  0  0  0  0
  -22.5268  -11.3891   28.5933 C   0  0  0  0  0  0  0  0  0  0  0  0
  -24.6444  -12.6613   21.6822 C   0  0  0  0  0  0  0  0  0  0  0  0
  -25.0770  -12.4022   19.5420 C   0  0  0  0  0  0  0  0  0  0  0  0
  -29.5257  -24.6409   19.7981 C   0  0  0  0  0  0  0  0  0  0  0  0
  -31.1964  -22.9930   19.8123 C   0  0  0  0  0  0  0  0  0  0  0  0
  -23.2367  -19.1070   19.0675 C   0  0  0  0  0  0  0  0  0  0  0  0
  -28.8854  -25.8147   19.8414 C   0  0  0  0  0  0  0  0  0  1  0  0
  -24.4563  -18.5623   19.1209 C   0  0  0  0  0  0  0  0  0  0  0  0
  -22.7337  -11.8139   20.1834 C   0  0  0  0  0  0  0  0  0  0  0  0
  -25.6673  -19.4240   19.2494 C   0  0  0  0  0  0  0  0  0  0  0  0
  -25.8728  -31.8736   22.3033 C   0  0  0  0  0  0  0  0  0  0  0  0
  -22.8444  -30.8017   22.7535 C   0  0  0  0  0  0  0  0  0  0  0  0
  -21.1487  -27.6171   22.7380 C   0  0  0  0  0  0  0  0  0  0  0  0
  -29.9778  -15.8150   19.3416 C   0  0  0  0  0  0  0  0  0  0  0  0
  -28.2934  -36.3677   22.3474 C   0  0  0  0  0  0  0  0  0  0  0  0
  -25.2568  -31.1148   19.9793 C   0  0  0  0  0  0  0  0  0  0  0  0
  -24.5487  -29.0930   22.0179 C   0  0  0  0  0  0  0  0  0  0  0  0
  -31.0042  -24.4897   19.8759 C   0  0  0  0  0  0  0  0  0  0  0  0
  -28.8507  -23.3206   19.6728 C   0  0  0  0  0  0  0  0  0  0  0  0
  -27.0316  -35.8009   22.9931 C   0  0  0  0  0  0  0  0  0  0  0  0
  -29.8499  -12.2607   19.1755 C   0  0  0  0  0  0  0  0  0  0  0  0
  -27.3255  -34.4550   23.6481 C   0  0  0  0  0  0  0  0  0  0  0  0
  -28.4456  -11.9244   19.6826 C   0  0  0  0  0  0  0  0  0  0  0  0
  -30.4544  -13.4469   19.9246 C   0  0  0  0  0  0  0  0  0  0  0  0
  -28.2133  -14.3169   20.4631 C   0  0  0  0  0  0  0  0  0  0  0  0
  -27.7922  -33.4267   22.6106 C   0  0  1  0  0  0  0  0  0  0  0  0
  -24.7565  -31.5122   21.3647 C   0  0  1  0  0  0  0  0  0  0  0  0
  -27.5375  -13.1696   19.6945 C   0  0  2  0  0  0  0  0  0  0  0  0
  -18.7554  -27.0455   22.2453 C   0  0  0  0  0  0  0  0  0  0  0  0
  -22.4744  -31.0139   25.7747 C   0  0  0  0  0  0  0  0  0  0  0  0
  -20.9109  -29.0625   25.6502 C   0  0  0  0  0  0  0  0  0  0  0  0
  -20.3593  -31.1789   24.4505 C   0  0  0  0  0  0  0  0  0  0  0  0
  -21.9225  -25.6762   20.6421 C   0  0  0  0  0  0  0  0  0  0  0  0
  -22.2103  -29.7001   23.5679 C   0  0  1  0  0  0  0  0  0  0  0  0
  -20.1704  -27.1136   21.6922 C   0  0  2  0  0  0  0  0  0  0  0  0
  -21.5154  -30.2367   24.8511 C   0  0  0  0  0  0  0  0  0  0  0  0
  -25.9238  -13.0226   21.5534 N   0  0  0  0  0  0  0  0  0  0  0  0
  -26.1576  -12.8540   20.2408 N   0  0  0  0  0  0  0  0  0  0  0  0
  -29.9442  -22.3700   19.6958 N   0  0  0  0  0  0  0  0  0  0  0  0
  -23.9814  -30.4515   22.0114 N   0  0  0  0  0  0  0  0  0  0  0  0
  -29.5405  -14.5908   19.8902 N   0  0  0  0  0  0  0  0  0  0  0  0
  -25.1383  -12.1789   18.2120 N   0  0  0  0  0  0  0  0  0  0  0  0
  -21.8210  -11.7323   21.2438 N   0  0  0  0  0  0  0  0  0  0  0  0
  -26.8399  -18.6603   19.2878 N   0  0  0  0  0  0  0  0  0  0  0  0
  -29.0118  -16.8207   19.3331 N   0  0  0  0  0  0  0  0  0  0  0  0
  -26.6639  -32.9168   21.8613 N   0  0  0  0  0  0  0  0  0  0  0  0
  -21.3199  -28.9832   22.6615 N   0  0  0  0  0  0  0  0  0  0  0  0
  -20.5607  -25.7512   21.2311 N   0  3  0  0  0  0  0  0  0  0  0  0
  -32.3136  -22.4939   19.8603 O   0  0  0  0  0  0  0  0  0  0  0  0
  -22.3684  -11.4770   19.0316 O   0  0  0  0  0  0  0  0  0  0  0  0
  -25.5752  -20.6444   19.3093 O   0  0  0  0  0  0  0  0  0  0  0  0
  -26.0055  -31.2530   23.3516 O   0  0  0  0  0  0  0  0  0  0  0  0
  -22.3451  -31.9296   22.7693 O   0  0  0  0  0  0  0  0  0  0  0  0
  -21.7026  -26.8736   23.5448 O   0  0  0  0  0  0  0  0  0  0  0  0
  -31.1161  -15.9524   18.8863 O   0  0  0  0  0  0  0  0  0  0  0  0
  -22.1708  -12.8265   26.6943 O   0  0  0  0  0  0  0  0  0  0  0  0
  -27.5254  -25.9282   19.7681 O   0  0  0  0  0  0  0  0  0  1  0  0
  -21.2950   -8.0351   29.2788 F   0  0  0  0  0  0  0  0  0  0  0  0
  -23.2915  -12.3255   29.1714 F   0  0  0  0  0  0  0  0  0  0  0  0
  1  2  1  0  0  0  0
  1  5  2  0  0  0  0
  2  6  2  0  0  0  0
  3 10  2  0  0  0  0
  3 18  1  0  0  0  0
  4 11  1  0  0  0  0
  4 18  2  0  0  0  0
  5 20  1  0  0  0  0
  6 22  1  0  0  0  0
  7 12  2  0  0  0  0
  7 21  1  0  0  0  0
  8  9  2  0  0  0  0
  8 24  1  0  0  0  0
  9 25  1  0  0  0  0
 10 27  1  0  0  0  0
 11 27  2  0  0  0  0
 12 28  1  0  0  0  0
 13 14  2  0  0  0  0
 13 29  1  0  0  0  0
 14 30  1  0  0  0  0
 15 23  1  0  0  0  0
 15 28  2  0  0  0  0
 16 24  2  0  0  0  0
 16 26  1  0  0  0  0
 17 30  2  0  0  0  0
 17 31  1  0  0  0  0
 18 32  1  0  0  0  0
 19 32  1  0  0  0  0
 19 33  2  0  0  0  0
 19 39  1  0  0  0  0
 20 22  2  0  0  0  0
 20 45  1  0  0  0  0
 21 23  2  0  0  0  0
 21 46  1  0  0  0  0
 22 56  1  0  0  0  0
 23 47  1  0  0  0  0
 24 69  1  0  0  0  0
 25 26  2  0  0  0  0
 25 75  1  0  0  0  0
 26 74  1  0  0  0  0
 27 86  1  0  0  0  0
 28 87  1  0  0  0  0
 29 31  2  0  0  0  0
 29 86  1  0  0  0  0
 30 88  1  0  0  0  0
 31 89  1  0  0  0  0
 32 67  2  0  0  0  0
 33 68  1  0  0  0  0
 33 72  1  0  0  0  0
 34 37  2  0  0  0  0
 34 48  1  0  0  0  0
 34 49  1  0  0  0  0
 35 48  1  0  0  0  0
 35 69  1  0  0  0  0
 35 79  2  0  0  0  0
 36 38  2  0  0  0  0
 37 87  1  0  0  0  0
 38 40  1  0  0  0  0
 39 73  1  0  0  0  0
 39 80  2  0  0  0  0
 40 74  1  0  0  0  0
 40 81  2  0  0  0  0
 41 57  1  0  0  0  0
 41 76  1  0  0  0  0
 41 82  2  0  0  0  0
 42 64  1  0  0  0  0
 42 70  1  0  0  0  0
 42 83  2  0  0  0  0
 43 65  1  0  0  0  0
 43 77  1  0  0  0  0
 43 84  2  0  0  0  0
 44 71  1  0  0  0  0
 44 75  1  0  0  0  0
 44 85  2  0  0  0  0
 45 50  1  0  0  0  0
 46 57  1  0  0  0  0
 47 70  1  0  0  0  0
 49 69  1  0  0  0  0
 50 52  1  0  0  0  0
 51 53  1  0  0  0  0
 51 54  1  0  0  0  0
 52 56  1  0  0  0  0
 53 58  1  0  0  0  0
 54 71  1  0  0  0  0
 55 58  1  0  0  0  0
 55 71  1  0  0  0  0
 56 76  1  0  0  0  0
 57 70  1  0  0  0  0
 58 68  1  0  0  0  0
 59 65  1  0  0  0  0
 60 66  1  0  0  0  0
 61 66  1  0  0  0  0
 62 66  1  0  0  0  0
 63 78  1  0  0  0  0
 64 66  1  0  0  0  0
 64 77  1  0  0  0  0
 65 78  1  0  0  0  0
 67 68  1  0  0  0  0
M  CHG  1  78   1
M  ISO  4  37 101  44 100  75 100  87 101
M  END
> <Batch ID>
0070

> <Smiles>
C=CC(=O)Nc1cc(N2CC(=[101CH:1][101O:1]c3ccc4c(c3)CN(C(=O)C(NC(=O)C(C)NC)C(C)(C)C)C(C(=O)NC3CCCc5ccccc53)C4)CC2=O)ccc1[100NH:0][100C:0](=O)N1CCCC(n2nc(-c3ccc(Oc4ccc(F)cc4F)cc3)c(C(N)=O)c2N)C1

> <Shape>
0.272

> <Color>
0.089

> <Negative vol penalty>
0.000

$$$$

  -OEChem-04042323323D

 88 97  0     1  0  0  0  0  0999 V2000
  -28.5414  -33.9798   24.4502 C   0  0  0  0  0  0  0  0  0  0  0  0
  -28.6054  -32.7054   23.8960 C   0  0  0  0  0  0  0  0  0  0  0  0
  -24.9056  -16.2863   22.8460 C   0  0  0  0  0  0  0  0  0  0  0  0
  -24.6337  -17.5830   20.8257 C   0  0  0  0  0  0  0  0  0  0  0  0
  -27.3825  -34.3972   25.1035 C   0  0  0  0  0  0  0  0  0  0  0  0
  -27.5110  -31.8472   23.9957 C   0  0  0  0  0  0  0  0  0  0  0  0
  -26.4859  -29.4910   19.6319 C   0  0  0  0  0  0  0  0  0  0  0  0
  -24.6927  -17.4331   23.6108 C   0  0  0  0  0  0  0  0  0  0  0  0
  -24.4208  -18.7299   21.5905 C   0  0  0  0  0  0  0  0  0  0  0  0
  -27.2943  -28.4085   19.2876 C   0  0  0  0  0  0  0  0  0  0  0  0
  -26.4628  -20.1448   24.5792 C   0  0  0  0  0  0  0  0  0  0  0  0
  -27.3207  -20.3741   25.6548 C   0  0  0  0  0  0  0  0  0  0  0  0
  -25.5916  -26.8934   20.0780 C   0  0  0  0  0  0  0  0  0  0  0  0
  -29.0502  -19.8456   20.5475 C   0  0  0  0  0  0  0  0  0  0  0  0
  -29.3764  -20.2370   18.1859 C   0  0  0  0  0  0  0  0  0  0  0  0
  -25.4381  -20.3187   27.1681 C   0  0  0  0  0  0  0  0  0  0  0  0
  -24.8762  -16.3612   21.4534 C   0  0  0  0  0  0  0  0  0  0  0  0
  -24.1251  -14.2653   20.2082 C   0  0  0  0  0  0  0  0  0  0  0  0
  -26.2698  -33.5471   25.2028 C   0  0  0  0  0  0  0  0  0  0  0  0
  -25.2267  -29.2827   20.2128 C   0  0  0  0  0  0  0  0  0  0  0  0
  -26.3366  -32.2531   24.6521 C   0  0  0  0  0  0  0  0  0  0  0  0
  -24.7681  -27.9749   20.4264 C   0  0  0  0  0  0  0  0  0  0  0  0
  -29.1549  -20.7282   19.4725 C   0  0  0  0  0  0  0  0  0  0  0  0
  -29.3887  -17.9806   19.0494 C   0  0  0  0  0  0  0  0  0  0  0  0
  -24.4502  -18.6549   22.9831 C   0  0  0  0  0  0  0  0  0  0  0  0
  -26.8484  -27.1095   19.5133 C   0  0  0  0  0  0  0  0  0  0  0  0
  -25.0925  -20.0026   24.7980 C   0  0  0  0  0  0  0  0  0  0  0  0
  -26.8084  -20.4610   26.9493 C   0  0  0  0  0  0  0  0  0  0  0  0
  -29.1671  -18.4718   20.3360 C   0  0  0  0  0  0  0  0  0  0  0  0
  -29.4934  -18.8632   17.9744 C   0  0  0  0  0  0  0  0  0  0  0  0
  -24.5802  -20.0894   26.0924 C   0  0  0  0  0  0  0  0  0  0  0  0
  -25.0967  -15.1770   20.6628 C   0  0  0  0  0  0  0  0  0  0  0  0
  -24.8387  -13.3242   19.5071 C   0  0  0  0  0  0  0  0  0  0  0  0
  -28.8285  -22.8195   20.8022 C   0  0  0  0  0  0  0  0  0  0  0  0
  -22.7045  -14.2689   20.4022 C   0  0  0  0  0  0  0  0  0  0  0  0
  -30.0043  -25.0205   20.4234 C   0  0  0  0  0  0  0  0  0  0  0  0
  -23.8872  -30.0379   22.9948 C   0  0  0  0  0  0  0  0  0  0  0  0
  -21.2263  -28.8115   21.6028 C   0  0  0  0  0  0  0  0  0  0  0  0
  -19.8812  -26.7375   19.2499 C   0  0  0  0  0  0  0  0  0  0  0  0
  -29.9942  -15.6312   19.7271 C   0  0  0  0  0  0  0  0  0  0  0  0
  -25.0561  -34.0255   25.9596 C   0  0  0  0  0  0  0  0  0  0  0  0
  -24.3557  -30.4606   20.5539 C   0  0  0  0  0  0  0  0  0  0  0  0
  -23.4159  -27.6972   21.0287 C   0  0  0  0  0  0  0  0  0  0  0  0
  -23.8054  -33.1911   25.6952 C   0  0  0  0  0  0  0  0  0  0  0  0
  -28.7467  -12.4304   21.0083 C   0  0  0  0  0  0  0  0  0  0  0  0
  -24.1291  -31.7028   25.7790 C   0  0  0  0  0  0  0  0  0  0  0  0
  -27.8719  -11.8936   19.8822 C   0  0  0  0  0  0  0  0  0  0  0  0
  -29.8902  -13.2675   20.4553 C   0  0  0  0  0  0  0  0  0  0  0  0
  -28.4920  -13.9464   18.5052 C   0  0  0  0  0  0  0  0  0  0  0  0
  -29.0668  -23.2005   18.7461 C   0  0  0  0  0  0  0  0  0  0  0  0
  -25.1612  -31.3021   24.7180 C   0  0  1  0  0  0  0  0  0  0  0  0
  -23.3056  -30.1403   21.6132 C   0  0  1  0  0  0  0  0  0  0  0  0
  -27.3516  -13.0144   18.9693 C   0  0  2  0  0  0  0  0  0  0  0  0
  -28.8245  -24.1331   19.9706 C   0  0  1  0  0  0  0  0  0  0  0  0
  -30.0184  -25.4424   21.8677 C   0  0  0  0  0  0  0  0  0  0  0  0
  -17.6764  -25.9162   18.3771 C   0  0  0  0  0  0  0  0  0  0  0  0
  -20.9416  -26.9951   24.0379 C   0  0  0  0  0  0  0  0  0  0  0  0
  -19.3480  -25.5882   22.7153 C   0  0  0  0  0  0  0  0  0  0  0  0
  -18.7938  -27.9702   23.2071 C   0  0  0  0  0  0  0  0  0  0  0  0
  -20.4055  -27.8413   16.5544 C   0  0  0  0  0  0  0  0  0  0  0  0
  -27.4968  -24.8656   19.9609 C   0  0  0  0  0  0  0  0  0  1  0  0
  -20.5991  -27.4409   21.5180 C   0  0  1  0  0  0  0  0  0  0  0  0
  -18.7787  -26.9534   18.2289 C   0  0  2  0  0  0  0  0  0  0  0  0
  -19.9470  -27.0035   22.8600 C   0  0  0  0  0  0  0  0  0  0  0  0
  -26.3333  -14.8449   20.2827 N   0  0  0  0  0  0  0  0  0  0  0  0
  -26.1436  -13.7140   19.5818 N   0  0  0  0  0  0  0  0  0  0  0  0
  -29.0402  -22.0829   19.6809 N   0  0  0  0  0  0  0  0  0  0  0  0
  -22.6038  -28.8822   21.3510 N   0  0  0  0  0  0  0  0  0  0  0  0
  -29.4230  -14.3432   19.5776 N   0  0  0  0  0  0  0  0  0  0  0  0
  -24.4711  -12.2095   18.8402 N   0  0  0  0  0  0  0  0  0  0  0  0
  -22.1346  -15.3098   21.1479 N   0  0  0  0  0  0  0  0  0  0  0  0
  -29.5062  -16.5852   18.8338 N   0  0  0  0  0  0  0  0  0  0  0  0
  -24.5320  -31.1837   23.4201 N   0  0  0  0  0  0  0  0  0  0  0  0
  -19.6743  -27.4843   20.3905 N   0  0  0  0  0  0  0  0  0  0  0  0
  -19.3278  -26.8614   16.8465 N   0  3  0  0  0  0  0  0  0  0  0  0
  -28.6934  -22.5217   21.9675 O   0  0  0  0  0  0  0  0  0  0  0  0
  -21.9644  -13.3666   19.9422 O   0  0  0  0  0  0  0  0  0  0  0  0
  -30.8903  -25.3639   19.6422 O   0  0  0  0  0  0  0  0  0  0  0  0
  -23.7592  -28.9970   23.6286 O   0  0  0  0  0  0  0  0  0  0  0  0
  -20.5187  -29.7845   21.8752 O   0  0  0  0  0  0  0  0  0  0  0  0
  -20.8289  -25.9792   19.0567 O   0  0  0  0  0  0  0  0  0  0  0  0
  -30.8652  -15.8634   20.5694 O   0  0  0  0  0  0  0  0  0  0  0  0
  -24.2421  -19.7742   23.7291 O   0  0  0  0  0  0  0  0  0  0  0  0
  -27.6356  -26.0511   19.1788 O   0  0  0  0  0  0  0  0  0  1  0  0
  -27.6325  -20.6796   27.9823 F   0  0  0  0  0  0  0  0  0  0  0  0
  -29.0652  -17.6329   21.3770 F   0  0  0  0  0  0  0  0  0  0  0  0
  -29.7068  -18.4026   16.7334 F   0  0  0  0  0  0  0  0  0  0  0  0
  -23.2648  -19.9524   26.3090 F   0  0  0  0  0  0  0  0  0  0  0  0
  1  2  1  0  0  0  0
  1  5  2  0  0  0  0
  2  6  2  0  0  0  0
  3  8  2  0  0  0  0
  3 17  1  0  0  0  0
  4  9  1  0  0  0  0
  4 17  2  0  0  0  0
  5 19  1  0  0  0  0
  6 21  1  0  0  0  0
  7 10  2  0  0  0  0
  7 20  1  0  0  0  0
  8 25  1  0  0  0  0
  9 25  2  0  0  0  0
 10 26  1  0  0  0  0
 11 12  2  0  0  0  0
 11 27  1  0  0  0  0
 12 28  1  0  0  0  0
 13 22  1  0  0  0  0
 13 26  2  0  0  0  0
 14 23  1  0  0  0  0
 14 29  2  0  0  0  0
 15 23  2  0  0  0  0
 15 30  1  0  0  0  0
 16 28  2  0  0  0  0
 16 31  1  0  0  0  0
 17 32  1  0  0  0  0
 18 32  1  0  0  0  0
 18 33  2  0  0  0  0
 18 35  1  0  0  0  0
 19 21  2  0  0  0  0
 19 41  1  0  0  0  0
 20 22  2  0  0  0  0
 20 42  1  0  0  0  0
 21 51  1  0  0  0  0
 22 43  1  0  0  0  0
 23 67  1  0  0  0  0
 24 29  1  0  0  0  0
 24 30  2  0  0  0  0
 24 72  1  0  0  0  0
 25 83  1  0  0  0  0
 26 84  1  0  0  0  0
 27 31  2  0  0  0  0
 27 83  1  0  0  0  0
 28 85  1  0  0  0  0
 29 86  1  0  0  0  0
 30 87  1  0  0  0  0
 31 88  1  0  0  0  0
 32 65  2  0  0  0  0
 33 66  1  0  0  0  0
 33 70  1  0  0  0  0
 34 54  1  0  0  0  0
 34 67  1  0  0  0  0
 34 76  2  0  0  0  0
 35 71  1  0  0  0  0
 35 77  2  0  0  0  0
 36 54  1  0  0  0  0
 36 55  1  0  0  0  0
 36 78  2  0  0  0  0
 37 52  1  0  0  0  0
 37 73  1  0  0  0  0
 37 79  2  0  0  0  0
 38 62  1  0  0  0  0
 38 68  1  0  0  0  0
 38 80  2  0  0  0  0
 39 63  1  0  0  0  0
 39 74  1  0  0  0  0
 39 81  2  0  0  0  0
 40 69  1  0  0  0  0
 40 72  1  0  0  0  0
 40 82  2  0  0  0  0
 41 44  1  0  0  0  0
 42 52  1  0  0  0  0
 43 68  1  0  0  0  0
 44 46  1  0  0  0  0
 45 47  1  0  0  0  0
 45 48  1  0  0  0  0
 46 51  1  0  0  0  0
 47 53  1  0  0  0  0
 48 69  1  0  0  0  0
 49 53  1  0  0  0  0
 49 69  1  0  0  0  0
 50 54  1  0  0  0  0
 50 67  1  0  0  0  0
 51 73  1  0  0  0  0
 52 68  1  0  0  0  0
 53 66  1  0  0  0  0
 54 61  1  0  0  0  0
 56 63  1  0  0  0  0
 57 64  1  0  0  0  0
 58 64  1  0  0  0  0
 59 64  1  0  0  0  0
 60 75  1  0  0  0  0
 61 84  1  0  0  0  0
 62 64  1  0  0  0  0
 62 74  1  0  0  0  0
 63 75  1  0  0  0  0
 65 66  1  0  0  0  0
M  CHG  1  75   1
M  ISO  4  40 100  61 101  72 100  84 101
M  END
> <Batch ID>
0070

> <Smiles>
CNC(C)C(=O)NC(C(=O)N1Cc2cc([101O:1][101CH2:1]C3(C(C)=O)CN(c4cc(F)c([100NH:0][100C:0](=O)N5CCCC(n6nc(-c7ccc(Oc8ccc(F)cc8F)cc7)c(C(N)=O)c6N)C5)c(F)c4)C3=O)ccc2CC1C(=O)NC1CCCc2ccccc21)C(C)(C)C

> <Shape>
0.320

> <Color>
0.083

> <Negative vol penalty>
0.000

$$$$

  -OEChem-04042323323D

 87 96  0     1  0  0  0  0  0999 V2000
  -30.1315  -33.1885   24.8035 C   0  0  0  0  0  0  0  0  0  0  0  0
  -29.7147  -31.9007   24.4820 C   0  0  0  0  0  0  0  0  0  0  0  0
  -22.9018  -10.0029   19.9975 C   0  0  0  0  0  0  0  0  0  0  0  0
  -24.6063   -9.2091   21.5145 C   0  0  0  0  0  0  0  0  0  0  0  0
  -29.1877  -34.1909   25.0232 C   0  0  0  0  0  0  0  0  0  0  0  0
  -28.3538  -31.6144   24.3811 C   0  0  0  0  0  0  0  0  0  0  0  0
  -27.2515  -28.8321   20.2959 C   0  0  0  0  0  0  0  0  0  0  0  0
  -21.9163   -9.4512   20.8159 C   0  0  0  0  0  0  0  0  0  0  0  0
  -23.6208   -8.6573   22.3331 C   0  0  0  0  0  0  0  0  0  0  0  0
  -27.5265  -27.4669   20.3622 C   0  0  0  0  0  0  0  0  0  0  0  0
  -21.6698   -5.8963   22.3683 C   0  0  0  0  0  0  0  0  0  0  0  0
  -21.8758   -4.6033   22.8491 C   0  0  0  0  0  0  0  0  0  0  0  0
  -25.2015  -27.0276   20.8320 C   0  0  0  0  0  0  0  0  0  0  0  0
  -25.5231  -20.3593   19.9516 C   0  0  0  0  0  0  0  0  0  0  0  0
  -27.3829  -18.8603   20.3136 C   0  0  0  0  0  0  0  0  0  0  0  0
  -25.4472  -18.1076   19.0793 C   0  0  0  0  0  0  0  0  0  0  0  0
  -21.7815   -5.4315   25.1167 C   0  0  0  0  0  0  0  0  0  0  0  0
  -24.2469   -9.8818   20.3467 C   0  0  0  0  0  0  0  0  0  0  0  0
  -25.5245  -10.1377   18.1536 C   0  0  0  0  0  0  0  0  0  0  0  0
  -27.8147  -33.9190   24.9154 C   0  0  0  0  0  0  0  0  0  0  0  0
  -25.9493  -29.3070   20.5083 C   0  0  0  0  0  0  0  0  0  0  0  0
  -27.3906  -32.6138   24.6009 C   0  0  0  0  0  0  0  0  0  0  0  0
  -24.9121  -28.3991   20.7653 C   0  0  0  0  0  0  0  0  0  0  0  0
  -26.7883  -20.1106   20.4837 C   0  0  0  0  0  0  0  0  0  0  0  0
  -24.8526  -19.3578   19.2494 C   0  0  0  0  0  0  0  0  0  0  0  0
  -26.7124  -17.8588   19.6114 C   0  0  0  0  0  0  0  0  0  0  0  0
  -22.2758   -8.7784   21.9837 C   0  0  0  0  0  0  0  0  0  0  0  0
  -26.5019  -26.5647   20.6332 C   0  0  0  0  0  0  0  0  0  0  0  0
  -21.5197   -6.9570   23.2617 C   0  0  0  0  0  0  0  0  0  0  0  0
  -21.9316   -4.3709   24.2233 C   0  0  0  0  0  0  0  0  0  0  0  0
  -21.5755   -6.7246   24.6359 C   0  0  0  0  0  0  0  0  0  0  0  0
  -25.2654  -10.4511   19.5013 C   0  0  0  0  0  0  0  0  0  0  0  0
  -26.5815  -10.9448   17.8105 C   0  0  0  0  0  0  0  0  0  0  0  0
  -28.0046  -23.5079   21.7888 C   0  0  0  0  0  0  0  0  0  0  0  0
  -28.9612  -23.0555   22.7853 C   0  0  0  0  0  0  0  0  0  0  0  0
  -27.2849  -22.5113   20.9065 C   0  0  0  0  0  0  0  0  0  0  0  0
  -30.0499  -23.7445   23.1633 C   0  0  0  0  0  0  0  0  0  0  0  0
  -27.6663  -24.8002   21.6341 C   0  0  0  0  0  0  0  0  0  1  0  0
  -24.8684   -9.2008   17.2891 C   0  0  0  0  0  0  0  0  0  0  0  0
  -24.5822  -31.2287   22.6395 C   0  0  0  0  0  0  0  0  0  0  0  0
  -21.9892  -30.8655   20.7246 C   0  0  0  0  0  0  0  0  0  0  0  0
  -20.3406  -28.9794   18.4069 C   0  0  0  0  0  0  0  0  0  0  0  0
  -28.5674  -16.1789   19.9000 C   0  0  0  0  0  0  0  0  0  0  0  0
  -26.8307  -35.0239   25.2083 C   0  0  0  0  0  0  0  0  0  0  0  0
  -25.6641  -30.7804   20.4069 C   0  0  0  0  0  0  0  0  0  0  0  0
  -23.4933  -28.8561   20.9807 C   0  0  0  0  0  0  0  0  0  0  0  0
  -28.6640  -21.6964   23.3326 C   0  0  0  0  0  0  0  0  0  0  0  0
  -25.4171  -34.7274   24.7141 C   0  0  0  0  0  0  0  0  0  0  0  0
  -30.3959  -13.1297   19.7108 C   0  0  0  0  0  0  0  0  0  0  0  0
  -25.0018  -33.3119   25.1025 C   0  0  0  0  0  0  0  0  0  0  0  0
  -29.3118  -12.0689   19.5068 C   0  0  0  0  0  0  0  0  0  0  0  0
  -28.5102  -20.7218   22.1778 C   0  0  0  0  0  0  0  0  0  0  0  0
  -29.9317  -14.2419   20.6495 C   0  0  0  0  0  0  0  0  0  0  0  0
  -27.5741  -13.8130   20.0774 C   0  0  0  0  0  0  0  0  0  0  0  0
  -25.9239  -32.2699   24.4579 C   0  0  1  0  0  0  0  0  0  0  0  0
  -24.3976  -31.1963   21.1487 C   0  0  1  0  0  0  0  0  0  0  0  0
  -27.9721  -12.7056   19.0881 C   0  0  2  0  0  0  0  0  0  0  0  0
  -18.2257  -28.9220   17.0574 C   0  0  0  0  0  0  0  0  0  0  0  0
  -20.4315  -30.0146   23.2065 C   0  0  0  0  0  0  0  0  0  0  0  0
  -18.6683  -29.0806   21.6943 C   0  0  0  0  0  0  0  0  0  0  0  0
  -19.1779  -31.5222   21.6540 C   0  0  0  0  0  0  0  0  0  0  0  0
  -21.8323  -29.0408   15.8515 C   0  0  0  0  0  0  0  0  0  0  0  0
  -20.8361  -29.8933   20.6594 C   0  0  1  0  0  0  0  0  0  0  0  0
  -19.6847  -29.3498   17.0889 C   0  0  2  0  0  0  0  0  0  0  0  0
  -19.8055  -30.1189   21.8014 C   0  0  0  0  0  0  0  0  0  0  0  0
  -26.0913  -11.3844   19.9817 N   0  0  0  0  0  0  0  0  0  0  0  0
  -26.8799  -11.6643   18.9301 N   0  0  0  0  0  0  0  0  0  0  0  0
  -27.4847  -21.1489   21.2107 N   0  0  0  0  0  0  0  0  0  0  0  0
  -23.2661  -30.3071   20.8778 N   0  0  0  0  0  0  0  0  0  0  0  0
  -28.6591  -14.8006   20.1876 N   0  0  0  0  0  0  0  0  0  0  0  0
  -23.5733  -19.6087   18.7111 N   0  0  0  0  0  0  0  0  0  0  0  0
  -27.2757  -11.1021   16.6634 N   0  0  0  0  0  0  0  0  0  0  0  0
  -25.3492   -7.8852   17.2419 N   0  0  0  0  0  0  0  0  0  0  0  0
  -27.3175  -16.5894   19.4375 N   0  0  0  0  0  0  0  0  0  0  0  0
  -25.5806  -32.0844   23.0643 N   0  0  0  0  0  0  0  0  0  0  0  0
  -20.2767  -30.0130   19.3174 N   0  0  0  0  0  0  0  0  0  0  0  0
  -20.3923  -28.6906   15.9550 N   0  3  0  0  0  0  0  0  0  0  0  0
  -26.6012  -22.9272   19.9691 O   0  0  0  0  0  0  0  0  0  0  0  0
  -23.8951   -9.5250   16.5671 O   0  0  0  0  0  0  0  0  0  0  0  0
  -23.8705  -30.5302   23.3518 O   0  0  0  0  0  0  0  0  0  0  0  0
  -21.7659  -32.0754   20.6355 O   0  0  0  0  0  0  0  0  0  0  0  0
  -20.8547  -27.8817   18.6099 O   0  0  0  0  0  0  0  0  0  0  0  0
  -29.5346  -16.9341   20.0268 O   0  0  0  0  0  0  0  0  0  0  0  0
  -21.3144   -8.2400   22.7828 O   0  0  0  0  0  0  0  0  0  0  0  0
  -26.7677  -25.2317   20.6991 O   0  0  0  0  0  0  0  0  0  1  0  0
  -22.1280   -3.1289   24.6849 F   0  0  0  0  0  0  0  0  0  0  0  0
  -21.4308   -7.7393   25.4991 F   0  0  0  0  0  0  0  0  0  0  0  0
  1  2  1  0  0  0  0
  1  5  2  0  0  0  0
  2  6  2  0  0  0  0
  3  8  2  0  0  0  0
  3 18  1  0  0  0  0
  4  9  1  0  0  0  0
  4 18  2  0  0  0  0
  5 20  1  0  0  0  0
  6 22  1  0  0  0  0
  7 10  2  0  0  0  0
  7 21  1  0  0  0  0
  8 27  1  0  0  0  0
  9 27  2  0  0  0  0
 10 28  1  0  0  0  0
 11 12  2  0  0  0  0
 11 29  1  0  0  0  0
 12 30  1  0  0  0  0
 13 23  1  0  0  0  0
 13 28  2  0  0  0  0
 14 24  1  0  0  0  0
 14 25  2  0  0  0  0
 15 24  2  0  0  0  0
 15 26  1  0  0  0  0
 16 25  1  0  0  0  0
 16 26  2  0  0  0  0
 17 30  2  0  0  0  0
 17 31  1  0  0  0  0
 18 32  1  0  0  0  0
 19 32  1  0  0  0  0
 19 33  2  0  0  0  0
 19 39  1  0  0  0  0
 20 22  2  0  0  0  0
 20 44  1  0  0  0  0
 21 23  2  0  0  0  0
 21 45  1  0  0  0  0
 22 55  1  0  0  0  0
 23 46  1  0  0  0  0
 24 68  1  0  0  0  0
 25 71  1  0  0  0  0
 26 74  1  0  0  0  0
 27 84  1  0  0  0  0
 28 85  1  0  0  0  0
 29 31  2  0  0  0  0
 29 84  1  0  0  0  0
 30 86  1  0  0  0  0
 31 87  1  0  0  0  0
 32 66  2  0  0  0  0
 33 67  1  0  0  0  0
 33 72  1  0  0  0  0
 34 35  1  0  0  0  0
 34 36  1  0  0  0  0
 34 38  2  0  0  0  0
 35 37  2  0  0  0  0
 35 47  1  0  0  0  0
 36 68  1  0  0  0  0
 36 78  2  0  0  0  0
 38 85  1  0  0  0  0
 39 73  1  0  0  0  0
 39 79  2  0  0  0  0
 40 56  1  0  0  0  0
 40 75  1  0  0  0  0
 40 80  2  0  0  0  0
 41 63  1  0  0  0  0
 41 69  1  0  0  0  0
 41 81  2  0  0  0  0
 42 64  1  0  0  0  0
 42 76  1  0  0  0  0
 42 82  2  0  0  0  0
 43 70  1  0  0  0  0
 43 74  1  0  0  0  0
 43 83  2  0  0  0  0
 44 48  1  0  0  0  0
 45 56  1  0  0  0  0
 46 69  1  0  0  0  0
 47 52  1  0  0  0  0
 48 50  1  0  0  0  0
 49 51  1  0  0  0  0
 49 53  1  0  0  0  0
 50 55  1  0  0  0  0
 51 57  1  0  0  0  0
 52 68  1  0  0  0  0
 53 70  1  0  0  0  0
 54 57  1  0  0  0  0
 54 70  1  0  0  0  0
 55 75  1  0  0  0  0
 56 69  1  0  0  0  0
 57 67  1  0  0  0  0
 58 64  1  0  0  0  0
 59 65  1  0  0  0  0
 60 65  1  0  0  0  0
 61 65  1  0  0  0  0
 62 77  1  0  0  0  0
 63 65  1  0  0  0  0
 63 76  1  0  0  0  0
 64 77  1  0  0  0  0
 66 67  1  0  0  0  0
M  CHG  1  77   1
M  ISO  4  38 101  43 100  74 100  85 101
M  END
> <Batch ID>
0070

> <Smiles>
C=C1CCN(c2cc(N)cc([100NH:0][100C:0](=O)N3CCCC(n4nc(-c5ccc(Oc6ccc(F)cc6F)cc5)c(C(N)=O)c4N)C3)c2)C(=O)C1=[101CH:1][101O:1]c1ccc2c(c1)CN(C(=O)C(NC(=O)C(C)NC)C(C)(C)C)C(C(=O)NC1CCCc3ccccc31)C2

> <Shape>
0.287

> <Color>
0.094

> <Negative vol penalty>
0.000

$$$$

  -OEChem-04042323323D

 89 98  0     1  0  0  0  0  0999 V2000
  -19.2814  -24.2441   22.5700 C   0  0  0  0  0  0  0  0  0  0  0  0
  -20.5169  -24.5090   21.9879 C   0  0  0  0  0  0  0  0  0  0  0  0
  -26.6347  -11.3978   20.5643 C   0  0  0  0  0  0  0  0  0  0  0  0
  -25.3199  -13.3047   19.8771 C   0  0  0  0  0  0  0  0  0  0  0  0
  -18.4209  -25.2949   22.8850 C   0  0  0  0  0  0  0  0  0  0  0  0
  -20.8922  -25.8249   21.7195 C   0  0  0  0  0  0  0  0  0  0  0  0
  -25.6661  -26.8031   23.0971 C   0  0  0  0  0  0  0  0  0  0  0  0
  -30.7386  -22.7188   19.5051 C   0  0  0  0  0  0  0  0  0  0  0  0
  -30.9754  -21.3740   19.7898 C   0  0  0  0  0  0  0  0  0  0  0  0
  -25.5302  -10.8800   21.2407 C   0  0  0  0  0  0  0  0  0  0  0  0
  -24.2153  -12.7868   20.5535 C   0  0  0  0  0  0  0  0  0  0  0  0
  -26.6782  -26.3497   22.2521 C   0  0  0  0  0  0  0  0  0  0  0  0
  -22.6925   -9.2122   20.4669 C   0  0  0  0  0  0  0  0  0  0  0  0
  -22.4111   -7.8555   20.3057 C   0  0  0  0  0  0  0  0  0  0  0  0
  -28.7635  -20.8160   18.9943 C   0  0  0  0  0  0  0  0  0  0  0  0
  -26.8841  -28.5651   21.3200 C   0  0  0  0  0  0  0  0  0  0  0  0
  -22.6729   -7.5187   22.6837 C   0  0  0  0  0  0  0  0  0  0  0  0
  -26.5296  -12.6102   19.8825 C   0  0  0  0  0  0  0  0  0  0  0  0
  -28.5266  -22.1608   18.7095 C   0  0  0  0  0  0  0  0  0  0  0  0
  -28.0328  -12.9131   17.8439 C   0  0  0  0  0  0  0  0  0  0  0  0
  -18.7898  -26.6250   22.6292 C   0  0  0  0  0  0  0  0  0  0  0  0
  -25.2472  -28.1406   23.0521 C   0  0  0  0  0  0  0  0  0  0  0  0
  -20.0352  -26.8944   22.0302 C   0  0  0  0  0  0  0  0  0  0  0  0
  -25.8682  -29.0335   22.1672 C   0  0  0  0  0  0  0  0  0  0  0  0
  -29.5142  -23.1122   18.9649 C   0  0  0  0  0  0  0  0  0  0  0  0
  -29.9879  -20.4226   19.5344 C   0  0  0  0  0  0  0  0  0  0  0  0
  -24.3205  -11.5745   21.2353 C   0  0  0  0  0  0  0  0  0  0  0  0
  -27.2854  -27.2301   21.3614 C   0  0  0  0  0  0  0  0  0  0  0  0
  -22.9641   -9.7221   21.7365 C   0  0  0  0  0  0  0  0  0  0  0  0
  -22.4013   -7.0088   21.4141 C   0  0  0  0  0  0  0  0  0  0  0  0
  -22.9543   -8.8754   22.8449 C   0  0  0  0  0  0  0  0  0  0  0  0
  -27.6703  -13.1459   19.1841 C   0  0  0  0  0  0  0  0  0  0  0  0
  -29.1826  -13.6434   17.6674 C   0  0  0  0  0  0  0  0  0  0  0  0
  -30.0859  -25.5426   18.8454 C   0  0  0  0  0  0  0  0  0  0  0  0
  -27.2367  -22.5390   18.1457 C   0  0  0  0  0  0  0  0  0  0  0  0
  -27.3879  -12.1088   16.8475 C   0  0  0  0  0  0  0  0  0  0  0  0
  -22.5140  -29.6133   22.3705 C   0  0  0  0  0  0  0  0  0  0  0  0
  -24.1486  -32.2489   23.3216 C   0  0  0  0  0  0  0  0  0  0  0  0
  -27.1647  -33.7766   23.7859 C   0  0  0  0  0  0  0  0  0  0  0  0
  -31.3886  -18.4992   20.3619 C   0  0  0  0  0  0  0  0  0  0  0  0
  -17.8065  -27.7244   22.9438 C   0  0  0  0  0  0  0  0  0  0  0  0
  -24.1725  -28.6201   23.9888 C   0  0  0  0  0  0  0  0  0  0  0  0
  -25.4690  -30.4839   22.0941 C   0  0  0  0  0  0  0  0  0  0  0  0
  -18.4357  -29.1150   22.9711 C   0  0  0  0  0  0  0  0  0  0  0  0
  -32.9632  -15.3179   20.0835 C   0  0  0  0  0  0  0  0  0  0  0  0
  -19.3334  -29.3187   21.7548 C   0  0  0  0  0  0  0  0  0  0  0  0
  -31.8187  -14.3798   19.6934 C   0  0  0  0  0  0  0  0  0  0  0  0
  -32.5047  -16.3937   21.0665 C   0  0  0  0  0  0  0  0  0  0  0  0
  -30.1868  -16.2279   20.2486 C   0  0  0  0  0  0  0  0  0  0  0  0
  -28.1451  -25.1340   18.1345 C   0  0  0  0  0  0  0  0  0  0  0  0
  -20.4884  -28.3101   21.7465 C   0  0  1  0  0  0  0  0  0  0  0  0
  -23.4710  -29.8825   23.4972 C   0  0  1  0  0  0  0  0  0  0  0  0
  -30.5849  -15.1668   19.2097 C   0  0  2  0  0  0  0  0  0  0  0  0
  -28.9631  -26.4534   18.2703 C   0  0  2  0  0  0  0  0  0  0  0  0
  -29.3247  -27.1164   16.9457 C   0  0  0  0  0  0  0  0  0  0  0  0
  -28.1796  -35.9443   24.5399 C   0  0  0  0  0  0  0  0  0  0  0  0
  -23.3863  -33.5291   20.6590 C   0  0  0  0  0  0  0  0  0  0  0  0
  -25.1663  -35.2449   21.0539 C   0  0  0  0  0  0  0  0  0  0  0  0
  -23.2428  -35.0598   22.6315 C   0  0  0  0  0  0  0  0  0  0  0  0
  -28.5960  -32.4636   26.0190 C   0  0  0  0  0  0  0  0  0  0  0  0
  -28.4033  -27.4434   19.2732 C   0  0  0  0  0  0  0  0  0  1  0  0
  -26.0662  -22.9138   19.0495 C   0  0  0  0  0  0  0  0  0  0  0  0
  -25.0263  -33.2678   22.6359 C   0  0  1  0  0  0  0  0  0  0  0  0
  -27.7299  -34.5539   24.9610 C   0  0  2  0  0  0  0  0  0  0  0  0
  -24.2118  -34.2477   21.7448 C   0  0  0  0  0  0  0  0  0  0  0  0
  -28.5210  -13.9602   19.8144 N   0  0  0  0  0  0  0  0  0  0  0  0
  -27.0270  -22.5699   16.8509 N   0  0  0  0  0  0  0  0  0  0  0  0
  -29.4295  -14.2454   18.8661 N   0  0  0  0  0  0  0  0  0  0  0  0
  -29.3026  -24.4435   18.6920 N   0  0  0  0  0  0  0  0  0  0  0  0
  -24.4091  -30.9033   23.0259 N   0  0  0  0  0  0  0  0  0  0  0  0
  -31.3352  -17.1005   20.5396 N   0  0  0  0  0  0  0  0  0  0  0  0
  -29.9965  -13.8227   16.6054 N   0  0  0  0  0  0  0  0  0  0  0  0
  -26.2152  -11.4252   17.1970 N   0  0  0  0  0  0  0  0  0  0  0  0
  -30.2291  -19.0567   19.8240 N   0  0  0  0  0  0  0  0  0  0  0  0
  -21.5159  -28.7105   22.6837 N   0  0  0  0  0  0  0  0  0  0  0  0
  -25.7966  -33.9186   23.6902 N   0  0  0  0  0  0  0  0  0  0  0  0
  -28.9004  -33.8370   25.5414 N   0  3  0  0  0  0  0  0  0  0  0  0
  -31.2088  -25.7010   19.2676 O   0  0  0  0  0  0  0  0  0  0  0  0
  -27.8471  -11.9863   15.6867 O   0  0  0  0  0  0  0  0  0  0  0  0
  -22.6688  -30.1837   21.2970 O   0  0  0  0  0  0  0  0  0  0  0  0
  -23.2690  -32.6323   24.0968 O   0  0  0  0  0  0  0  0  0  0  0  0
  -27.8672  -33.1130   23.0265 O   0  0  0  0  0  0  0  0  0  0  0  0
  -32.3990  -19.1504   20.6392 O   0  0  0  0  0  0  0  0  0  0  0  0
  -23.2424  -11.0694   21.8950 O   0  0  0  0  0  0  0  0  0  0  0  0
  -28.2731  -26.7900   20.5351 O   0  0  0  0  0  0  0  0  0  1  0  0
  -22.1296   -5.7064   21.2594 F   0  0  0  0  0  0  0  0  0  0  0  0
  -23.2133   -9.3597   24.0673 F   0  0  0  0  0  0  0  0  0  0  0  0
  -25.2569  -23.8244   18.4466 F   0  0  0  0  0  0  0  0  0  0  0  0
  -26.4654  -23.4824   20.2198 F   0  0  0  0  0  0  0  0  0  0  0  0
  1  2  1  0  0  0  0
  1  5  2  0  0  0  0
  2  6  2  0  0  0  0
  3 10  2  0  0  0  0
  3 18  1  0  0  0  0
  4 11  1  0  0  0  0
  4 18  2  0  0  0  0
  5 21  1  0  0  0  0
  6 23  1  0  0  0  0
  7 12  2  0  0  0  0
  7 22  1  0  0  0  0
  8  9  2  0  0  0  0
  8 25  1  0  0  0  0
  9 26  1  0  0  0  0
 10 27  1  0  0  0  0
 11 27  2  0  0  0  0
 12 28  1  0  0  0  0
 13 14  2  0  0  0  0
 13 29  1  0  0  0  0
 14 30  1  0  0  0  0
 15 19  1  0  0  0  0
 15 26  2  0  0  0  0
 16 24  1  0  0  0  0
 16 28  2  0  0  0  0
 17 30  2  0  0  0  0
 17 31  1  0  0  0  0
 18 32  1  0  0  0  0
 19 25  2  0  0  0  0
 19 35  1  0  0  0  0
 20 32  1  0  0  0  0
 20 33  2  0  0  0  0
 20 36  1  0  0  0  0
 21 23  2  0  0  0  0
 21 41  1  0  0  0  0
 22 24  2  0  0  0  0
 22 42  1  0  0  0  0
 23 51  1  0  0  0  0
 24 43  1  0  0  0  0
 25 69  1  0  0  0  0
 26 74  1  0  0  0  0
 27 84  1  0  0  0  0
 28 85  1  0  0  0  0
 29 31  2  0  0  0  0
 29 84  1  0  0  0  0
 30 86  1  0  0  0  0
 31 87  1  0  0  0  0
 32 66  2  0  0  0  0
 33 68  1  0  0  0  0
 33 72  1  0  0  0  0
 34 54  1  0  0  0  0
 34 69  1  0  0  0  0
 34 78  2  0  0  0  0
 35 62  1  0  0  0  0
 35 67  2  0  0  0  0
 36 73  1  0  0  0  0
 36 79  2  0  0  0  0
 37 52  1  0  0  0  0
 37 75  1  0  0  0  0
 37 80  2  0  0  0  0
 38 63  1  0  0  0  0
 38 70  1  0  0  0  0
 38 81  2  0  0  0  0
 39 64  1  0  0  0  0
 39 76  1  0  0  0  0
 39 82  2  0  0  0  0
 40 71  1  0  0  0  0
 40 74  1  0  0  0  0
 40 83  2  0  0  0  0
 41 44  1  0  0  0  0
 42 52  1  0  0  0  0
 43 70  1  0  0  0  0
 44 46  1  0  0  0  0
 45 47  1  0  0  0  0
 45 48  1  0  0  0  0
 46 51  1  0  0  0  0
 47 53  1  0  0  0  0
 48 71  1  0  0  0  0
 49 53  1  0  0  0  0
 49 71  1  0  0  0  0
 50 54  1  0  0  0  0
 50 69  1  0  0  0  0
 51 75  1  0  0  0  0
 52 70  1  0  0  0  0
 53 68  1  0  0  0  0
 54 55  1  0  0  0  0
 54 61  1  0  0  0  0
 56 64  1  0  0  0  0
 57 65  1  0  0  0  0
 58 65  1  0  0  0  0
 59 65  1  0  0  0  0
 60 77  1  0  0  0  0
 61 85  1  0  0  0  0
 62 88  1  0  0  0  0
 62 89  1  0  0  0  0
 63 65  1  0  0  0  0
 63 76  1  0  0  0  0
 64 77  1  0  0  0  0
 66 68  1  0  0  0  0
M  CHG  1  77   1
M  ISO  4  40 100  61 101  74 100  85 101
M  END
> <Batch ID>
0070

> <Smiles>
CNC(C)C(=O)NC(C(=O)N1Cc2cc([101O:1][101CH2:1]C3(C)CN(c4ccc([100NH:0][100C:0](=O)N5CCCC(n6nc(-c7ccc(Oc8ccc(F)cc8F)cc7)c(C(N)=O)c6N)C5)cc4C(=N)C(F)F)C3=O)ccc2CC1C(=O)NC1CCCc2ccccc21)C(C)(C)C

> <Shape>
0.338

> <Color>
0.104

> <Negative vol penalty>
0.000

$$$$

  -OEChem-04042323323D

 85 93  0     1  0  0  0  0  0999 V2000
  -23.6356  -30.8044   20.2910 C   0  0  0  0  0  0  0  0  0  0  0  0
  -23.7986  -29.4299   20.4306 C   0  0  0  0  0  0  0  0  0  0  0  0
  -22.9670   -9.8603   20.0462 C   0  0  0  0  0  0  0  0  0  0  0  0
  -23.6147  -10.0621   22.3650 C   0  0  0  0  0  0  0  0  0  0  0  0
  -24.3857  -31.6777   21.0776 C   0  0  0  0  0  0  0  0  0  0  0  0
  -24.7127  -28.9278   21.3563 C   0  0  0  0  0  0  0  0  0  0  0  0
  -24.1653  -23.8015   24.6620 C   0  0  0  0  0  0  0  0  0  0  0  0
  -22.1717   -8.7595   20.3641 C   0  0  0  0  0  0  0  0  0  0  0  0
  -22.8193   -8.9612   22.6829 C   0  0  0  0  0  0  0  0  0  0  0  0
  -24.6793  -22.5167   24.4924 C   0  0  0  0  0  0  0  0  0  0  0  0
  -23.0196   -5.5940   22.4541 C   0  0  0  0  0  0  0  0  0  0  0  0
  -23.5630   -4.6232   23.2954 C   0  0  0  0  0  0  0  0  0  0  0  0
  -26.5063  -23.0589   25.9713 C   0  0  0  0  0  0  0  0  0  0  0  0
  -31.8200  -18.4454   23.9434 C   0  0  0  0  0  0  0  0  0  0  0  0
  -32.0495  -16.5418   22.4736 C   0  0  0  0  0  0  0  0  0  0  0  0
  -29.8703  -17.5075   22.8682 C   0  0  0  0  0  0  0  0  0  0  0  0
  -21.7881   -5.0102   24.8883 C   0  0  0  0  0  0  0  0  0  0  0  0
  -23.6886  -10.5117   21.0466 C   0  0  0  0  0  0  0  0  0  0  0  0
  -24.1247  -13.0023   20.7090 C   0  0  0  0  0  0  0  0  0  0  0  0
  -25.3024  -31.1859   22.0202 C   0  0  0  0  0  0  0  0  0  0  0  0
  -24.8250  -24.7297   25.4803 C   0  0  0  0  0  0  0  0  0  0  0  0
  -25.4767  -29.7953   22.1553 C   0  0  0  0  0  0  0  0  0  0  0  0
  -25.9972  -24.3540   26.1517 C   0  0  0  0  0  0  0  0  0  0  0  0
  -32.6229  -17.4889   23.3220 C   0  0  0  0  0  0  0  0  0  0  0  0
  -30.4437  -18.4547   23.7166 C   0  0  0  0  0  0  0  0  0  0  0  0
  -30.6732  -16.5511   22.2466 C   0  0  0  0  0  0  0  0  0  0  0  0
  -22.0978   -8.3099   21.6824 C   0  0  0  0  0  0  0  0  0  0  0  0
  -25.8515  -22.1461   25.1448 C   0  0  0  0  0  0  0  0  0  0  0  0
  -21.8604   -6.2729   22.8298 C   0  0  0  0  0  0  0  0  0  0  0  0
  -22.9473   -4.3313   24.5125 C   0  0  0  0  0  0  0  0  0  0  0  0
  -21.2447   -5.9810   24.0469 C   0  0  0  0  0  0  0  0  0  0  0  0
  -24.5108  -11.6486   20.7188 C   0  0  0  0  0  0  0  0  0  0  0  0
  -25.2589  -13.6802   20.3341 C   0  0  0  0  0  0  0  0  0  0  0  0
  -22.8544  -13.5942   21.0119 C   0  0  0  0  0  0  0  0  0  0  0  0
  -26.1896  -27.5620   25.0114 C   0  0  0  0  0  0  0  0  0  0  0  0
  -26.4817  -27.5203   28.2418 C   0  0  0  0  0  0  0  0  0  0  0  0
  -28.2519  -19.5778   24.2349 C   0  0  0  0  0  0  0  0  0  0  0  0
  -26.6603  -25.6814   31.1111 C   0  0  0  0  0  0  0  0  0  0  0  0
  -30.7437  -14.5701   20.6919 C   0  0  0  0  0  0  0  0  0  0  0  0
  -26.1249  -32.1693   22.8146 C   0  0  0  0  0  0  0  0  0  0  0  0
  -24.2431  -26.1032   25.6740 C   0  0  0  0  0  0  0  0  0  0  0  0
  -26.7325  -25.3068   27.0573 C   0  0  0  0  0  0  0  0  0  0  0  0
  -26.8008  -31.5516   24.0360 C   0  0  0  0  0  0  0  0  0  0  0  0
  -29.6609  -11.9773   18.5052 C   0  0  0  0  0  0  0  0  0  0  0  0
  -27.4704  -30.2321   23.6653 C   0  0  0  0  0  0  0  0  0  0  0  0
  -28.1927  -11.7720   18.8853 C   0  0  0  0  0  0  0  0  0  0  0  0
  -30.5242  -12.2912   19.7258 C   0  0  0  0  0  0  0  0  0  0  0  0
  -28.5793  -13.2016   20.9332 C   0  0  0  0  0  0  0  0  0  0  0  0
  -26.4403  -29.2118   23.1659 C   0  0  1  0  0  0  0  0  0  0  0  0
  -25.2760  -27.1317   26.1240 C   0  0  1  0  0  0  0  0  0  0  0  0
  -27.6592  -12.9470   19.7281 C   0  0  2  0  0  0  0  0  0  0  0  0
  -26.9367  -25.9255   33.5933 C   0  0  0  0  0  0  0  0  0  0  0  0
  -34.5719  -16.1520   24.1859 C   0  0  0  0  0  0  0  0  0  0  0  0
  -34.8985  -17.7671   22.2843 C   0  0  0  0  0  0  0  0  0  0  0  0
  -29.4591  -28.0637   27.8543 C   0  0  0  0  0  0  0  0  0  0  0  0
  -29.8254  -27.3597   30.2289 C   0  0  0  0  0  0  0  0  0  0  0  0
  -28.3997  -29.3434   29.7237 C   0  0  0  0  0  0  0  0  0  0  0  0
  -24.0288  -24.4361   31.6435 C   0  0  0  0  0  0  0  0  0  0  0  0
  -27.7717  -20.7445   25.0779 C   0  0  0  0  0  0  0  0  0  1  0  0
  -27.5252  -27.0264   29.2146 C   0  0  1  0  0  0  0  0  0  0  0  0
  -25.9467  -25.8218   32.4436 C   0  0  2  0  0  0  0  0  0  0  0  0
  -34.0944  -17.4786   23.5660 C   0  0  0  0  0  0  0  0  0  0  0  0
  -28.7898  -27.9308   29.2368 C   0  0  0  0  0  0  0  0  0  0  0  0
  -25.7902  -11.4748   20.3770 N   0  0  0  0  0  0  0  0  0  0  0  0
  -26.2180  -12.7283   20.1489 N   0  0  0  0  0  0  0  0  0  0  0  0
  -26.1272  -26.6402   27.2095 N   0  0  0  0  0  0  0  0  0  0  0  0
  -29.9601  -13.4174   20.4730 N   0  0  0  0  0  0  0  0  0  0  0  0
  -25.5195  -14.9916   20.1480 N   0  0  0  0  0  0  0  0  0  0  0  0
  -21.7959  -12.7526   21.3800 N   0  0  0  0  0  0  0  0  0  0  0  0
  -29.6297  -19.4251   24.3475 N   0  0  0  0  0  0  0  0  0  0  0  0
  -30.0905  -15.5881   21.3858 N   0  0  0  0  0  0  0  0  0  0  0  0
  -25.7185  -28.6356   24.2801 N   0  0  0  0  0  0  0  0  0  0  0  0
  -26.8552  -26.9043   30.5047 N   0  0  0  0  0  0  0  0  0  0  0  0
  -25.0662  -24.6442   32.6863 N   0  3  0  0  0  0  0  0  0  0  0  0
  -22.6592  -14.8313   20.9418 O   0  0  0  0  0  0  0  0  0  0  0  0
  -27.2445  -26.9651   24.8308 O   0  0  0  0  0  0  0  0  0  0  0  0
  -25.9938  -28.6426   28.3964 O   0  0  0  0  0  0  0  0  0  0  0  0
  -27.4738  -18.9034   23.5684 O   0  0  0  0  0  0  0  0  0  0  0  0
  -27.0131  -24.5957   30.6557 O   0  0  0  0  0  0  0  0  0  0  0  0
  -31.8994  -14.6591   20.2694 O   0  0  0  0  0  0  0  0  0  0  0  0
  -21.3217   -7.2358   21.9931 O   0  0  0  0  0  0  0  0  0  0  0  0
  -26.3557  -20.8929   24.9805 O   0  0  0  0  0  0  0  0  0  1  0  0
  -23.4684   -3.3980   25.3197 F   0  0  0  0  0  0  0  0  0  0  0  0
  -20.1303   -6.6290   24.4128 F   0  0  0  0  0  0  0  0  0  0  0  0
  -34.4971  -18.4530   24.4626 F   0  0  0  0  0  0  0  0  0  0  0  0
  1  2  1  0  0  0  0
  1  5  2  0  0  0  0
  2  6  2  0  0  0  0
  3  8  2  0  0  0  0
  3 18  1  0  0  0  0
  4  9  1  0  0  0  0
  4 18  2  0  0  0  0
  5 20  1  0  0  0  0
  6 22  1  0  0  0  0
  7 10  2  0  0  0  0
  7 21  1  0  0  0  0
  8 27  1  0  0  0  0
  9 27  2  0  0  0  0
 10 28  1  0  0  0  0
 11 12  2  0  0  0  0
 11 29  1  0  0  0  0
 12 30  1  0  0  0  0
 13 23  1  0  0  0  0
 13 28  2  0  0  0  0
 14 24  1  0  0  0  0
 14 25  2  0  0  0  0
 15 24  2  0  0  0  0
 15 26  1  0  0  0  0
 16 25  1  0  0  0  0
 16 26  2  0  0  0  0
 17 30  2  0  0  0  0
 17 31  1  0  0  0  0
 18 32  1  0  0  0  0
 19 32  1  0  0  0  0
 19 33  2  0  0  0  0
 19 34  1  0  0  0  0
 20 22  2  0  0  0  0
 20 40  1  0  0  0  0
 21 23  2  0  0  0  0
 21 41  1  0  0  0  0
 22 49  1  0  0  0  0
 23 42  1  0  0  0  0
 24 62  1  0  0  0  0
 25 70  1  0  0  0  0
 26 71  1  0  0  0  0
 27 81  1  0  0  0  0
 28 82  1  0  0  0  0
 29 31  2  0  0  0  0
 29 81  1  0  0  0  0
 30 83  1  0  0  0  0
 31 84  1  0  0  0  0
 32 64  2  0  0  0  0
 33 65  1  0  0  0  0
 33 68  1  0  0  0  0
 34 69  1  0  0  0  0
 34 75  2  0  0  0  0
 35 50  1  0  0  0  0
 35 72  1  0  0  0  0
 35 76  2  0  0  0  0
 36 60  1  0  0  0  0
 36 66  1  0  0  0  0
 36 77  2  0  0  0  0
 37 59  1  0  0  0  0
 37 70  1  0  0  0  0
 37 78  2  0  0  0  0
 38 61  1  0  0  0  0
 38 73  1  0  0  0  0
 38 79  2  0  0  0  0
 39 67  1  0  0  0  0
 39 71  1  0  0  0  0
 39 80  2  0  0  0  0
 40 43  1  0  0  0  0
 41 50  1  0  0  0  0
 42 66  1  0  0  0  0
 43 45  1  0  0  0  0
 44 46  1  0  0  0  0
 44 47  1  0  0  0  0
 45 49  1  0  0  0  0
 46 51  1  0  0  0  0
 47 67  1  0  0  0  0
 48 51  1  0  0  0  0
 48 67  1  0  0  0  0
 49 72  1  0  0  0  0
 50 66  1  0  0  0  0
 51 65  1  0  0  0  0
 52 61  1  0  0  0  0
 53 62  1  0  0  0  0
 54 62  1  0  0  0  0
 55 63  1  0  0  0  0
 56 63  1  0  0  0  0
 57 63  1  0  0  0  0
 58 74  1  0  0  0  0
 59 82  1  0  0  0  0
 60 63  1  0  0  0  0
 60 73  1  0  0  0  0
 61 74  1  0  0  0  0
 62 85  1  0  0  0  0
 64 65  1  0  0  0  0
M  CHG  1  74   1
M  ISO  4  39 100  59 101  71 100  82 101
M  END
> <Batch ID>
0070

> <Smiles>
CNC(C)C(=O)NC(C(=O)N1Cc2cc([101O:1][101CH2:1]C(=O)Nc3cc([100NH:0][100C:0](=O)N4CCCC(n5nc(-c6ccc(Oc7ccc(F)cc7F)cc6)c(C(N)=O)c5N)C4)cc(C(C)(C)F)c3)ccc2CC1C(=O)NC1CCCc2ccccc21)C(C)(C)C

> <Shape>
0.237

> <Color>
0.209

> <Negative vol penalty>
0.000

$$$$

  -OEChem-04042323323D

 89 98  0     1  0  0  0  0  0999 V2000
  -18.2353  -25.0058   24.2905 C   0  0  0  0  0  0  0  0  0  0  0  0
  -19.5872  -24.6792   24.2546 C   0  0  0  0  0  0  0  0  0  0  0  0
  -24.1381   -9.6202   21.7723 C   0  0  0  0  0  0  0  0  0  0  0  0
  -24.6367  -10.9626   23.7182 C   0  0  0  0  0  0  0  0  0  0  0  0
  -17.7910  -26.1946   23.7132 C   0  0  0  0  0  0  0  0  0  0  0  0
  -20.4954  -25.5407   23.6403 C   0  0  0  0  0  0  0  0  0  0  0  0
  -26.2847  -26.6027   25.3321 C   0  0  0  0  0  0  0  0  0  0  0  0
  -30.7145  -20.4524   20.5193 C   0  0  0  0  0  0  0  0  0  0  0  0
  -30.4952  -19.1122   20.2009 C   0  0  0  0  0  0  0  0  0  0  0  0
  -23.7388   -8.5701   22.5990 C   0  0  0  0  0  0  0  0  0  0  0  0
  -24.2374   -9.9125   24.5449 C   0  0  0  0  0  0  0  0  0  0  0  0
  -27.5027  -26.1033   24.8730 C   0  0  0  0  0  0  0  0  0  0  0  0
  -21.0202   -7.7350   24.4279 C   0  0  0  0  0  0  0  0  0  0  0  0
  -19.8362   -7.0714   24.1067 C   0  0  0  0  0  0  0  0  0  0  0  0
  -27.7541  -28.0378   23.4539 C   0  0  0  0  0  0  0  0  0  0  0  0
  -21.0596   -5.0010   23.8747 C   0  0  0  0  0  0  0  0  0  0  0  0
  -24.5871  -10.8165   22.3319 C   0  0  0  0  0  0  0  0  0  0  0  0
  -28.3328  -20.7877   20.7482 C   0  0  0  0  0  0  0  0  0  0  0  0
  -24.1942  -12.9377   20.9704 C   0  0  0  0  0  0  0  0  0  0  0  0
  -18.6955  -27.0757   23.1000 C   0  0  0  0  0  0  0  0  0  0  0  0
  -25.7862  -27.8202   24.8466 C   0  0  0  0  0  0  0  0  0  0  0  0
  -20.0625  -26.7418   23.0531 C   0  0  0  0  0  0  0  0  0  0  0  0
  -26.5307  -28.5517   23.9104 C   0  0  0  0  0  0  0  0  0  0  0  0
  -29.6333  -21.2902   20.7930 C   0  0  0  0  0  0  0  0  0  0  0  0
  -29.1948  -18.6097   20.1562 C   0  0  0  0  0  0  0  0  0  0  0  0
  -23.7884   -8.7162   23.9853 C   0  0  0  0  0  0  0  0  0  0  0  0
  -28.2362  -26.8194   23.9316 C   0  0  0  0  0  0  0  0  0  0  0  0
  -22.2240   -7.0317   24.4724 C   0  0  0  0  0  0  0  0  0  0  0  0
  -19.8559   -5.7043   23.8301 C   0  0  0  0  0  0  0  0  0  0  0  0
  -22.2437   -5.6647   24.1958 C   0  0  0  0  0  0  0  0  0  0  0  0
  -28.1135  -19.4475   20.4298 C   0  0  0  0  0  0  0  0  0  0  0  0
  -25.0003  -11.9014   21.4785 C   0  0  0  0  0  0  0  0  0  0  0  0
  -25.0529  -13.7051   20.2220 C   0  0  0  0  0  0  0  0  0  0  0  0
  -29.4295  -23.7815   20.4336 C   0  0  0  0  0  0  0  0  0  0  0  0
  -27.1844  -21.6409   21.0283 C   0  0  0  0  0  0  0  0  0  0  0  0
  -22.7944  -13.1846   21.1582 C   0  0  0  0  0  0  0  0  0  0  0  0
  -23.1918  -28.6983   23.2336 C   0  0  0  0  0  0  0  0  0  0  0  0
  -24.3387  -31.6832   23.7790 C   0  0  0  0  0  0  0  0  0  0  0  0
  -27.0258  -33.6759   24.4539 C   0  0  0  0  0  0  0  0  0  0  0  0
  -29.9393  -16.2847   19.5347 C   0  0  0  0  0  0  0  0  0  0  0  0
  -18.1617  -28.3265   22.4479 C   0  0  0  0  0  0  0  0  0  0  0  0
  -24.4835  -28.3582   25.3718 C   0  0  0  0  0  0  0  0  0  0  0  0
  -26.0493  -29.8737   23.3727 C   0  0  0  0  0  0  0  0  0  0  0  0
  -19.2401  -29.3639   22.1461 C   0  0  0  0  0  0  0  0  0  0  0  0
  -29.8062  -12.8204   18.7235 C   0  0  0  0  0  0  0  0  0  0  0  0
  -20.4470  -28.7032   21.4876 C   0  0  0  0  0  0  0  0  0  0  0  0
  -28.4777  -12.3577   19.3262 C   0  0  0  0  0  0  0  0  0  0  0  0
  -30.4947  -13.8636   19.6019 C   0  0  0  0  0  0  0  0  0  0  0  0
  -28.3348  -14.5571   20.5627 C   0  0  0  0  0  0  0  0  0  0  0  0
  -30.7501  -23.0534   22.1904 C   0  0  0  0  0  0  0  0  0  0  0  0
  -21.0818  -27.6623   22.4177 C   0  0  1  0  0  0  0  0  0  0  0  0
  -23.8251  -29.3579   24.4259 C   0  0  1  0  0  0  0  0  0  0  0  0
  -27.5730  -13.5539   19.6813 C   0  0  2  0  0  0  0  0  0  0  0  0
  -30.5124  -24.5438   22.3075 C   0  0  2  0  0  0  0  0  0  0  0  0
  -23.7062  -22.1137   20.2091 C   0  0  0  0  0  0  0  0  0  0  0  0
  -27.6572  -36.0790   24.8057 C   0  0  0  0  0  0  0  0  0  0  0  0
  -24.1434  -32.1719   20.7735 C   0  0  0  0  0  0  0  0  0  0  0  0
  -25.6367  -34.1595   21.0701 C   0  0  0  0  0  0  0  0  0  0  0  0
  -23.4101  -34.0959   22.1931 C   0  0  0  0  0  0  0  0  0  0  0  0
  -27.9744  -33.1444   27.2065 C   0  0  0  0  0  0  0  0  0  0  0  0
  -29.5765  -24.9153   23.4477 C   0  0  0  0  0  0  0  0  0  1  0  0
  -25.0139  -22.4212   20.9092 C   0  0  0  0  0  0  0  0  0  0  0  0
  -25.2738  -32.6186   23.0513 C   0  0  1  0  0  0  0  0  0  0  0  0
  -27.2288  -34.7818   25.4739 C   0  0  2  0  0  0  0  0  0  0  0  0
  -24.6244  -33.2357   21.7805 C   0  0  0  0  0  0  0  0  0  0  0  0
  -26.2732  -11.9986   21.0858 N   0  0  0  0  0  0  0  0  0  0  0  0
  -26.0194  -21.4487   20.4902 N   0  0  0  0  0  0  0  0  0  0  0  0
  -26.2735  -13.1050   20.3231 N   0  0  0  0  0  0  0  0  0  0  0  0
  -29.8819  -22.6558   21.1148 N   0  0  0  0  0  0  0  0  0  0  0  0
  -24.7668  -30.3547   23.9124 N   0  0  0  0  0  0  0  0  0  0  0  0
  -29.5790  -14.9686   19.8937 N   0  0  0  0  0  0  0  0  0  0  0  0
  -24.8754  -14.8279   19.4938 N   0  0  0  0  0  0  0  0  0  0  0  0
  -22.0608  -12.2972   21.9574 N   0  0  0  0  0  0  0  0  0  0  0  0
  -28.9757  -17.2478   19.8323 N   0  0  0  0  0  0  0  0  0  0  0  0
  -21.8800  -28.3131   23.4345 N   0  0  0  0  0  0  0  0  0  0  0  0
  -25.7143  -33.6021   24.0348 N   0  0  0  0  0  0  0  0  0  0  0  0
  -28.2771  -34.3920   26.4588 N   0  3  0  0  0  0  0  0  0  0  0  0
  -28.7487  -23.8551   19.4205 O   0  0  0  0  0  0  0  0  0  0  0  0
  -22.2080  -14.1538   20.6196 O   0  0  0  0  0  0  0  0  0  0  0  0
  -23.8444  -28.5513   22.2069 O   0  0  0  0  0  0  0  0  0  0  0  0
  -23.2712  -32.1169   24.2192 O   0  0  0  0  0  0  0  0  0  0  0  0
  -27.9401  -32.9524   24.0649 O   0  0  0  0  0  0  0  0  0  0  0  0
  -31.0112  -16.5350   18.9777 O   0  0  0  0  0  0  0  0  0  0  0  0
  -29.8961  -24.9113   21.0644 O   0  0  0  0  0  0  0  0  0  0  0  0
  -23.3986   -7.6918   24.7922 O   0  0  0  0  0  0  0  0  0  0  0  0
  -29.4251  -26.3339   23.4813 O   0  0  0  0  0  0  0  0  0  1  0  0
  -18.7185   -5.0668   23.5232 F   0  0  0  0  0  0  0  0  0  0  0  0
  -23.3969   -4.9834   24.2382 F   0  0  0  0  0  0  0  0  0  0  0  0
  -26.8630  -18.9625   20.3860 F   0  0  0  0  0  0  0  0  0  0  0  0
  1  2  1  0  0  0  0
  1  5  2  0  0  0  0
  2  6  2  0  0  0  0
  3 10  2  0  0  0  0
  3 17  1  0  0  0  0
  4 11  1  0  0  0  0
  4 17  2  0  0  0  0
  5 20  1  0  0  0  0
  6 22  1  0  0  0  0
  7 12  2  0  0  0  0
  7 21  1  0  0  0  0
  8  9  1  0  0  0  0
  8 24  2  0  0  0  0
  9 25  2  0  0  0  0
 10 26  1  0  0  0  0
 11 26  2  0  0  0  0
 12 27  1  0  0  0  0
 13 14  2  0  0  0  0
 13 28  1  0  0  0  0
 14 29  1  0  0  0  0
 15 23  1  0  0  0  0
 15 27  2  0  0  0  0
 16 29  2  0  0  0  0
 16 30  1  0  0  0  0
 17 32  1  0  0  0  0
 18 24  1  0  0  0  0
 18 31  2  0  0  0  0
 18 35  1  0  0  0  0
 19 32  1  0  0  0  0
 19 33  2  0  0  0  0
 19 36  1  0  0  0  0
 20 22  2  0  0  0  0
 20 41  1  0  0  0  0
 21 23  2  0  0  0  0
 21 42  1  0  0  0  0
 22 51  1  0  0  0  0
 23 43  1  0  0  0  0
 24 69  1  0  0  0  0
 25 31  1  0  0  0  0
 25 74  1  0  0  0  0
 26 85  1  0  0  0  0
 27 86  1  0  0  0  0
 28 30  2  0  0  0  0
 28 85  1  0  0  0  0
 29 87  1  0  0  0  0
 30 88  1  0  0  0  0
 31 89  1  0  0  0  0
 32 66  2  0  0  0  0
 33 68  1  0  0  0  0
 33 72  1  0  0  0  0
 34 69  1  0  0  0  0
 34 78  2  0  0  0  0
 34 84  1  0  0  0  0
 35 67  2  0  0  0  0
 36 73  1  0  0  0  0
 36 79  2  0  0  0  0
 37 52  1  0  0  0  0
 37 75  1  0  0  0  0
 37 80  2  0  0  0  0
 38 63  1  0  0  0  0
 38 70  1  0  0  0  0
 38 81  2  0  0  0  0
 39 64  1  0  0  0  0
 39 76  1  0  0  0  0
 39 82  2  0  0  0  0
 40 71  1  0  0  0  0
 40 74  1  0  0  0  0
 40 83  2  0  0  0  0
 41 44  1  0  0  0  0
 42 52  1  0  0  0  0
 43 70  1  0  0  0  0
 44 46  1  0  0  0  0
 45 47  1  0  0  0  0
 45 48  1  0  0  0  0
 46 51  1  0  0  0  0
 47 53  1  0  0  0  0
 48 71  1  0  0  0  0
 49 53  1  0  0  0  0
 49 71  1  0  0  0  0
 50 54  1  0  0  0  0
 50 69  1  0  0  0  0
 51 75  1  0  0  0  0
 52 70  1  0  0  0  0
 53 68  1  0  0  0  0
 54 61  1  0  0  0  0
 54 84  1  0  0  0  0
 55 62  1  0  0  0  0
 56 64  1  0  0  0  0
 57 65  1  0  0  0  0
 58 65  1  0  0  0  0
 59 65  1  0  0  0  0
 60 77  1  0  0  0  0
 61 86  1  0  0  0  0
 62 67  1  0  0  0  0
 63 65  1  0  0  0  0
 63 76  1  0  0  0  0
 64 77  1  0  0  0  0
 66 68  1  0  0  0  0
M  CHG  1  77   1
M  ISO  4  40 100  61 101  74 100  86 101
M  END
> <Batch ID>
0070

> <Smiles>
CCN=Cc1c(N2CC([101CH2:1][101O:1]c3ccc4c(c3)CN(C(=O)C(NC(=O)C(C)NC)C(C)(C)C)C(C(=O)NC3CCCc5ccccc53)C4)OC2=O)ccc([100NH:0][100C:0](=O)N2CCCC(n3nc(-c4ccc(Oc5ccc(F)cc5F)cc4)c(C(N)=O)c3N)C2)c1F

> <Shape>
0.313

> <Color>
0.152

> <Negative vol penalty>
0.000

$$$$

  -OEChem-04042323323D

 92101  0     1  0  0  0  0  0999 V2000
  -28.1988  -31.2790   27.8692 C   0  0  0  0  0  0  0  0  0  0  0  0
  -28.2002  -30.3205   26.8609 C   0  0  0  0  0  0  0  0  0  0  0  0
  -25.1052   -8.7990   20.3337 C   0  0  0  0  0  0  0  0  0  0  0  0
  -25.3970   -9.4573   22.6399 C   0  0  0  0  0  0  0  0  0  0  0  0
  -27.0200  -31.9517   28.1884 C   0  0  0  0  0  0  0  0  0  0  0  0
  -27.0223  -30.0333   26.1719 C   0  0  0  0  0  0  0  0  0  0  0  0
  -27.7281  -29.7111   21.1676 C   0  0  0  0  0  0  0  0  0  0  0  0
  -25.0942   -7.4581   20.7178 C   0  0  0  0  0  0  0  0  0  0  0  0
  -25.3860   -8.1164   23.0241 C   0  0  0  0  0  0  0  0  0  0  0  0
  -28.2927  -28.5338   20.6787 C   0  0  0  0  0  0  0  0  0  0  0  0
  -24.6275   -3.8769   21.1326 C   0  0  0  0  0  0  0  0  0  0  0  0
  -23.6511   -3.0508   20.5760 C   0  0  0  0  0  0  0  0  0  0  0  0
  -26.0999  -27.7517   20.0469 C   0  0  0  0  0  0  0  0  0  0  0  0
  -27.9719  -20.0536   21.2865 C   0  0  0  0  0  0  0  0  0  0  0  0
  -21.9258   -4.4488   21.5278 C   0  0  0  0  0  0  0  0  0  0  0  0
  -25.2566   -9.7986   21.2948 C   0  0  0  0  0  0  0  0  0  0  0  0
  -24.1618  -12.0473   20.7924 C   0  0  0  0  0  0  0  0  0  0  0  0
  -25.8293  -31.6794   27.4965 C   0  0  0  0  0  0  0  0  0  0  0  0
  -26.3417  -29.9132   21.1097 C   0  0  0  0  0  0  0  0  0  0  0  0
  -25.8262  -30.7020   26.4831 C   0  0  0  0  0  0  0  0  0  0  0  0
  -25.5205  -28.9336   20.5335 C   0  0  0  0  0  0  0  0  0  0  0  0
  -25.5533  -20.6589   22.5382 C   0  0  0  0  0  0  0  0  0  0  0  0
  -27.6428  -21.3805   21.5632 C   0  0  0  0  0  0  0  0  0  0  0  0
  -27.0917  -19.0293   21.6355 C   0  0  0  0  0  0  0  0  0  0  0  0
  -25.2346   -7.1168   22.0630 C   0  0  0  0  0  0  0  0  0  0  0  0
  -27.4782  -27.5527   20.1209 C   0  0  0  0  0  0  0  0  0  0  0  0
  -24.2531   -4.9889   21.8869 C   0  0  0  0  0  0  0  0  0  0  0  0
  -22.3003   -3.3368   20.7735 C   0  0  0  0  0  0  0  0  0  0  0  0
  -22.9022   -5.2749   22.0844 C   0  0  0  0  0  0  0  0  0  0  0  0
  -26.4335  -21.6832   22.1891 C   0  0  0  0  0  0  0  0  0  0  0  0
  -25.8824  -19.3320   22.2614 C   0  0  0  0  0  0  0  0  0  0  0  0
  -25.2686  -11.1839   20.8986 C   0  0  0  0  0  0  0  0  0  0  0  0
  -24.6979  -13.2440   20.3838 C   0  0  0  0  0  0  0  0  0  0  0  0
  -29.9517  -22.3370   21.1319 C   0  0  0  0  0  0  0  0  0  0  0  0
  -22.7733  -11.7905   21.0409 C   0  0  0  0  0  0  0  0  0  0  0  0
  -24.0457  -30.3447   23.2651 C   0  0  0  0  0  0  0  0  0  0  0  0
  -22.2112  -30.8484   20.6377 C   0  0  0  0  0  0  0  0  0  0  0  0
  -21.7281  -30.3317   17.2991 C   0  0  0  0  0  0  0  0  0  0  0  0
  -28.5876  -17.2124   20.7369 C   0  0  0  0  0  0  0  0  0  0  0  0
  -24.5693  -32.3984   27.9091 C   0  0  0  0  0  0  0  0  0  0  0  0
  -25.7511  -31.2001   21.6171 C   0  0  0  0  0  0  0  0  0  0  0  0
  -24.0284  -29.1106   20.4291 C   0  0  0  0  0  0  0  0  0  0  0  0
  -23.4482  -32.3033   26.8774 C   0  0  0  0  0  0  0  0  0  0  0  0
  -29.3428  -14.3762   18.7213 C   0  0  0  0  0  0  0  0  0  0  0  0
  -23.2945  -30.8671   26.3868 C   0  0  0  0  0  0  0  0  0  0  0  0
  -28.2591  -13.3639   19.0993 C   0  0  0  0  0  0  0  0  0  0  0  0
  -29.7963  -15.1982   19.9265 C   0  0  0  0  0  0  0  0  0  0  0  0
  -28.0851  -23.7705   20.9082 C   0  0  0  0  0  0  0  0  0  0  0  0
  -27.6318  -14.8450   21.0486 C   0  0  0  0  0  0  0  0  0  0  0  0
  -24.5742  -30.3802   25.6962 C   0  0  1  0  0  0  0  0  0  0  0  0
  -24.2728  -31.0793   21.9742 C   0  0  1  0  0  0  0  0  0  0  0  0
  -29.2668  -24.4225   20.2009 C   0  0  2  0  0  0  0  0  0  0  0  0
  -27.0968  -14.0381   19.8543 C   0  0  2  0  0  0  0  0  0  0  0  0
  -30.4883  -23.7437   20.8523 C   0  0  0  0  0  0  0  0  0  0  0  0
  -30.9139  -24.3645   22.1903 C   0  0  0  0  0  0  0  0  0  0  0  0
  -31.6824  -23.6938   19.8976 C   0  0  0  0  0  0  0  0  0  0  0  0
  -20.1192  -30.8354   15.4403 C   0  0  0  0  0  0  0  0  0  0  0  0
  -20.3047  -28.7239   21.7155 C   0  0  0  0  0  0  0  0  0  0  0  0
  -19.2760  -28.5907   19.4369 C   0  0  0  0  0  0  0  0  0  0  0  0
  -19.1820  -30.7261   20.7229 C   0  0  0  0  0  0  0  0  0  0  0  0
  -23.7802  -31.8176   15.7695 C   0  0  0  0  0  0  0  0  0  0  0  0
  -29.2216  -25.9423   20.2735 C   0  0  0  0  0  0  0  0  0  1  0  0
  -21.3816  -29.9734   19.7293 C   0  0  1  0  0  0  0  0  0  0  0  0
  -21.3733  -31.2860   16.1731 C   0  0  2  0  0  0  0  0  0  0  0  0
  -24.2604  -20.9836   23.2075 C   0  0  0  0  0  0  0  0  0  0  0  0
  -20.0640  -29.4991   20.4047 C   0  0  0  0  0  0  0  0  0  0  0  0
  -26.4207  -11.7812   20.5828 N   0  0  0  0  0  0  0  0  0  0  0  0
  -26.0408  -13.0328   20.2741 N   0  0  0  0  0  0  0  0  0  0  0  0
  -28.5459  -22.4266   21.2040 N   0  0  0  0  0  0  0  0  0  0  0  0
  -23.4978  -30.3834   20.9450 N   0  0  0  0  0  0  0  0  0  0  0  0
  -28.6426  -15.8103   20.5891 N   0  0  0  0  0  0  0  0  0  0  0  0
  -24.1468  -14.4459   20.1113 N   0  0  0  0  0  0  0  0  0  0  0  0
  -22.3950  -10.5060   21.4547 N   0  0  0  0  0  0  0  0  0  0  0  0
  -23.1849  -21.2063   22.2391 N   0  0  0  0  0  0  0  0  0  0  0  0
  -27.4281  -17.6822   21.3529 N   0  0  0  0  0  0  0  0  0  0  0  0
  -24.6638  -30.9227   24.3575 N   0  0  0  0  0  0  0  0  0  0  0  0
  -21.1830  -30.7337   18.5001 N   0  0  0  0  0  0  0  0  0  0  0  0
  -22.4899  -31.3642   15.1892 N   0  3  0  0  0  0  0  0  0  0  0  0
  -30.6790  -21.3700   21.3127 O   0  0  0  0  0  0  0  0  0  0  0  0
  -21.8921  -12.6695   20.8844 O   0  0  0  0  0  0  0  0  0  0  0  0
  -23.3592  -29.3296   23.2700 O   0  0  0  0  0  0  0  0  0  0  0  0
  -21.7379  -31.9089   21.0534 O   0  0  0  0  0  0  0  0  0  0  0  0
  -22.4167  -29.3279   17.1294 O   0  0  0  0  0  0  0  0  0  0  0  0
  -29.4893  -17.9447   20.3213 O   0  0  0  0  0  0  0  0  0  0  0  0
  -25.2237   -5.8085   22.4382 O   0  0  0  0  0  0  0  0  0  0  0  0
  -28.0266  -26.4023   19.6435 O   0  0  0  0  0  0  0  0  0  1  0  0
  -21.3627   -2.5443   20.2377 F   0  0  0  0  0  0  0  0  0  0  0  0
  -22.5364   -6.3424   22.8071 F   0  0  0  0  0  0  0  0  0  0  0  0
  -26.1158  -22.9590   22.4558 F   0  0  0  0  0  0  0  0  0  0  0  0
  -25.0344  -18.3483   22.5978 F   0  0  0  0  0  0  0  0  0  0  0  0
  -23.8422  -19.9931   24.0585 F   0  0  0  0  0  0  0  0  0  0  0  0
  -24.3330  -22.0996   24.0004 F   0  0  0  0  0  0  0  0  0  0  0  0
  1  2  1  0  0  0  0
  1  5  2  0  0  0  0
  2  6  2  0  0  0  0
  3  8  2  0  0  0  0
  3 16  1  0  0  0  0
  4  9  1  0  0  0  0
  4 16  2  0  0  0  0
  5 18  1  0  0  0  0
  6 20  1  0  0  0  0
  7 10  2  0  0  0  0
  7 19  1  0  0  0  0
  8 25  1  0  0  0  0
  9 25  2  0  0  0  0
 10 26  1  0  0  0  0
 11 12  2  0  0  0  0
 11 27  1  0  0  0  0
 12 28  1  0  0  0  0
 13 21  1  0  0  0  0
 13 26  2  0  0  0  0
 14 23  1  0  0  0  0
 14 24  2  0  0  0  0
 15 28  2  0  0  0  0
 15 29  1  0  0  0  0
 16 32  1  0  0  0  0
 17 32  1  0  0  0  0
 17 33  2  0  0  0  0
 17 35  1  0  0  0  0
 18 20  2  0  0  0  0
 18 40  1  0  0  0  0
 19 21  2  0  0  0  0
 19 41  1  0  0  0  0
 20 50  1  0  0  0  0
 21 42  1  0  0  0  0
 22 30  1  0  0  0  0
 22 31  2  0  0  0  0
 22 65  1  0  0  0  0
 23 30  2  0  0  0  0
 23 69  1  0  0  0  0
 24 31  1  0  0  0  0
 24 75  1  0  0  0  0
 25 85  1  0  0  0  0
 26 86  1  0  0  0  0
 27 29  2  0  0  0  0
 27 85  1  0  0  0  0
 28 87  1  0  0  0  0
 29 88  1  0  0  0  0
 30 89  1  0  0  0  0
 31 90  1  0  0  0  0
 32 67  2  0  0  0  0
 33 68  1  0  0  0  0
 33 72  1  0  0  0  0
 34 54  1  0  0  0  0
 34 69  1  0  0  0  0
 34 79  2  0  0  0  0
 35 73  1  0  0  0  0
 35 80  2  0  0  0  0
 36 51  1  0  0  0  0
 36 76  1  0  0  0  0
 36 81  2  0  0  0  0
 37 63  1  0  0  0  0
 37 70  1  0  0  0  0
 37 82  2  0  0  0  0
 38 64  1  0  0  0  0
 38 77  1  0  0  0  0
 38 83  2  0  0  0  0
 39 71  1  0  0  0  0
 39 75  1  0  0  0  0
 39 84  2  0  0  0  0
 40 43  1  0  0  0  0
 41 51  1  0  0  0  0
 42 70  1  0  0  0  0
 43 45  1  0  0  0  0
 44 46  1  0  0  0  0
 44 47  1  0  0  0  0
 45 50  1  0  0  0  0
 46 53  1  0  0  0  0
 47 71  1  0  0  0  0
 48 52  1  0  0  0  0
 48 69  1  0  0  0  0
 49 53  1  0  0  0  0
 49 71  1  0  0  0  0
 50 76  1  0  0  0  0
 51 70  1  0  0  0  0
 52 54  1  0  0  0  0
 52 62  1  0  0  0  0
 53 68  1  0  0  0  0
 54 55  1  0  0  0  0
 54 56  1  0  0  0  0
 57 64  1  0  0  0  0
 58 66  1  0  0  0  0
 59 66  1  0  0  0  0
 60 66  1  0  0  0  0
 61 78  1  0  0  0  0
 62 86  1  0  0  0  0
 63 66  1  0  0  0  0
 63 77  1  0  0  0  0
 64 78  1  0  0  0  0
 65 74  1  0  0  0  0
 65 91  1  0  0  0  0
 65 92  1  0  0  0  0
 67 68  1  0  0  0  0
M  CHG  1  78   1
M  ISO  4  39 100  62 101  75 100  86 101
M  END
> <Batch ID>
0070

> <Smiles>
CNC(C)C(=O)NC(C(=O)N1Cc2cc([101O:1][101CH2:1]C3CN(c4cc([100NH:0][100C:0](=O)N5CCCC(n6nc(-c7ccc(Oc8ccc(F)cc8F)cc7)c(C(N)=O)c6N)C5)c(F)c(C(N)(F)F)c4F)C(=O)C3(C)C)ccc2CC1C(=O)NC1CCCc2ccccc21)C(C)(C)C

> <Shape>
0.271

> <Color>
0.093

> <Negative vol penalty>
0.000

$$$$

  -OEChem-04042323323D

 90 99  0     1  0  0  0  0  0999 V2000
  -28.7256   -2.6185   33.7684 C   0  0  0  0  0  0  0  0  0  0  0  0
  -28.4802   -3.3459   32.6082 C   0  0  0  0  0  0  0  0  0  0  0  0
  -23.0662   -9.8765   19.9696 C   0  0  0  0  0  0  0  0  0  0  0  0
  -23.9239   -9.8785   22.2282 C   0  0  0  0  0  0  0  0  0  0  0  0
  -28.6777   -3.2514   35.0098 C   0  0  0  0  0  0  0  0  0  0  0  0
  -28.1857   -4.7064   32.6889 C   0  0  0  0  0  0  0  0  0  0  0  0
  -29.7780   -9.0613   28.6882 C   0  0  0  0  0  0  0  0  0  0  0  0
  -32.9691  -16.1524   25.3821 C   0  0  0  0  0  0  0  0  0  0  0  0
  -31.6730  -15.7227   25.6670 C   0  0  0  0  0  0  0  0  0  0  0  0
  -22.3511   -8.7104   20.2421 C   0  0  0  0  0  0  0  0  0  0  0  0
  -23.2087   -8.7124   22.5008 C   0  0  0  0  0  0  0  0  0  0  0  0
  -29.0850   -9.6771   27.6468 C   0  0  0  0  0  0  0  0  0  0  0  0
  -20.0217   -7.8612   23.2350 C   0  0  0  0  0  0  0  0  0  0  0  0
  -19.3165   -7.8013   24.4370 C   0  0  0  0  0  0  0  0  0  0  0  0
  -28.5024  -11.4972   29.1189 C   0  0  0  0  0  0  0  0  0  0  0  0
  -32.6789  -15.4979   23.0746 C   0  0  0  0  0  0  0  0  0  0  0  0
  -20.6172   -5.8777   25.1042 C   0  0  0  0  0  0  0  0  0  0  0  0
  -23.8527  -10.4606   20.9626 C   0  0  0  0  0  0  0  0  0  0  0  0
  -24.1514  -12.9914   20.8479 C   0  0  0  0  0  0  0  0  0  0  0  0
  -28.3920   -4.6225   35.1050 C   0  0  0  0  0  0  0  0  0  0  0  0
  -29.8293   -9.6545   29.9578 C   0  0  0  0  0  0  0  0  0  0  0  0
  -28.1326   -5.3580   33.9328 C   0  0  0  0  0  0  0  0  0  0  0  0
  -29.1989  -10.8882   30.1740 C   0  0  0  0  0  0  0  0  0  0  0  0
  -33.4720  -16.0401   24.0858 C   0  0  0  0  0  0  0  0  0  0  0  0
  -30.8799  -15.1806   24.6557 C   0  0  0  0  0  0  0  0  0  0  0  0
  -31.3828  -15.0682   23.3595 C   0  0  0  0  0  0  0  0  0  0  0  0
  -22.4223   -8.1284   21.5078 C   0  0  0  0  0  0  0  0  0  0  0  0
  -28.4447  -10.8938   27.8629 C   0  0  0  0  0  0  0  0  0  0  0  0
  -21.0246   -6.9293   22.9676 C   0  0  0  0  0  0  0  0  0  0  0  0
  -19.6143   -6.8096   25.3716 C   0  0  0  0  0  0  0  0  0  0  0  0
  -21.3224   -5.9376   23.9022 C   0  0  0  0  0  0  0  0  0  0  0  0
  -24.5922  -11.6648   20.6815 C   0  0  0  0  0  0  0  0  0  0  0  0
  -25.2156  -13.7601   20.4440 C   0  0  0  0  0  0  0  0  0  0  0  0
  -29.0431  -13.4410   24.8299 C   0  0  0  0  0  0  0  0  0  0  0  0
  -22.8926  -13.4848   21.3250 C   0  0  0  0  0  0  0  0  0  0  0  0
  -28.8468   -8.8221   32.8639 C   0  0  0  0  0  0  0  0  0  0  0  0
  -30.4190  -11.5197   33.7434 C   0  0  0  0  0  0  0  0  0  0  0  0
  -31.6311  -14.5852   32.8599 C   0  0  0  0  0  0  0  0  0  0  0  0
  -30.9571  -14.3459   20.9768 C   0  0  0  0  0  0  0  0  0  0  0  0
  -28.3048   -5.2526   36.4725 C   0  0  0  0  0  0  0  0  0  0  0  0
  -30.6034   -8.9906   31.0634 C   0  0  0  0  0  0  0  0  0  0  0  0
  -29.2411  -11.5764   31.5130 C   0  0  0  0  0  0  0  0  0  0  0  0
  -28.3546   -6.7780   36.4446 C   0  0  0  0  0  0  0  0  0  0  0  0
  -29.5706  -12.2150   18.2944 C   0  0  0  0  0  0  0  0  0  0  0  0
  -27.4169   -7.3232   35.3720 C   0  0  0  0  0  0  0  0  0  0  0  0
  -28.0591  -12.1740   18.5243 C   0  0  0  0  0  0  0  0  0  0  0  0
  -27.2526  -14.9183   25.3712 C   0  0  0  0  0  0  0  0  0  0  0  0
  -30.2053  -13.5183   18.7597 C   0  0  0  0  0  0  0  0  0  0  0  0
  -28.5729  -15.6434   25.5484 C   0  0  0  0  0  0  0  0  0  0  0  0
  -28.5987  -13.4163   20.6779 C   0  0  0  0  0  0  0  0  0  0  0  0
  -27.8341   -6.8409   33.9775 C   0  0  1  0  0  0  0  0  0  0  0  0
  -30.1573   -9.4321   32.4538 C   0  0  1  0  0  0  0  0  0  0  0  0
  -27.5760  -13.2142   19.5488 C   0  0  2  0  0  0  0  0  0  0  0  0
  -27.6353  -13.4370   25.4236 C   0  0  1  0  0  0  0  0  0  0  0  0
  -25.3027  -12.5723   25.1749 C   0  0  0  0  0  0  0  0  0  0  0  0
  -32.8352  -16.5742   33.8039 C   0  0  0  0  0  0  0  0  0  0  0  0
  -27.8495  -12.4179   35.1222 C   0  0  0  0  0  0  0  0  0  0  0  0
  -28.7880  -14.7374   35.2066 C   0  0  0  0  0  0  0  0  0  0  0  0
  -29.9420  -12.8823   36.4106 C   0  0  0  0  0  0  0  0  0  0  0  0
  -33.9026  -14.2414   30.9942 C   0  0  0  0  0  0  0  0  0  0  0  0
  -26.6804  -12.5786   24.5974 C   0  0  0  0  0  0  0  0  0  0  0  0
  -27.7045  -12.9222   26.8661 C   0  0  0  0  0  0  0  0  0  1  0  0
  -30.0466  -12.9757   33.8863 C   0  0  1  0  0  0  0  0  0  0  0  0
  -32.9815  -15.2391   33.0905 C   0  0  2  0  0  0  0  0  0  0  0  0
  -34.8571  -16.5013   23.7812 C   0  0  0  0  0  0  0  0  0  0  0  0
  -29.1539  -13.2397   35.1316 C   0  0  0  0  0  0  0  0  0  0  0  0
  -25.8392  -11.5913   20.2085 N   0  0  0  0  0  0  0  0  0  0  0  0
  -26.1910  -12.8813   20.0743 N   0  0  0  0  0  0  0  0  0  0  0  0
  -29.5569  -14.7467   24.9720 N   0  0  0  0  0  0  0  0  0  0  0  0
  -30.0053  -10.8844   32.5640 N   0  0  0  0  0  0  0  0  0  0  0  0
  -29.9391  -13.7687   20.1792 N   0  0  0  0  0  0  0  0  0  0  0  0
  -25.4029  -15.0951   20.3725 N   0  0  0  0  0  0  0  0  0  0  0  0
  -21.9098  -12.5579   21.6982 N   0  0  0  0  0  0  0  0  0  0  0  0
  -35.8413  -15.4321   23.9617 N   0  0  0  0  0  0  0  0  0  0  0  0
  -30.5962  -14.5217   22.3151 N   0  0  0  0  0  0  0  0  0  0  0  0
  -28.9689   -7.6007   33.4985 N   0  0  0  0  0  0  0  0  0  0  0  0
  -31.3012  -13.7203   33.8818 N   0  0  0  0  0  0  0  0  0  0  0  0
  -33.6721  -15.4738   31.7910 N   0  3  0  0  0  0  0  0  0  0  0  0
  -29.5820  -12.4361   24.3871 O   0  0  0  0  0  0  0  0  0  0  0  0
  -22.6407  -14.7112   21.4021 O   0  0  0  0  0  0  0  0  0  0  0  0
  -27.8023   -9.4163   32.6238 O   0  0  0  0  0  0  0  0  0  0  0  0
  -31.0597  -10.9684   34.6418 O   0  0  0  0  0  0  0  0  0  0  0  0
  -30.9365  -14.8211   31.8737 O   0  0  0  0  0  0  0  0  0  0  0  0
  -32.0581  -14.6418   20.5073 O   0  0  0  0  0  0  0  0  0  0  0  0
  -21.7244   -6.9906   21.7742 O   0  0  0  0  0  0  0  0  0  0  0  0
  -27.7671  -11.4967   26.8483 O   0  0  0  0  0  0  0  0  0  1  0  0
  -18.9381   -6.7532   26.5264 F   0  0  0  0  0  0  0  0  0  0  0  0
  -22.2856   -5.0403   23.6514 F   0  0  0  0  0  0  0  0  0  0  0  0
  -34.9904  -16.9633   22.4969 F   0  0  0  0  0  0  0  0  0  0  0  0
  -35.2543  -17.5570   24.5607 F   0  0  0  0  0  0  0  0  0  0  0  0
  1  2  1  0  0  0  0
  1  5  2  0  0  0  0
  2  6  2  0  0  0  0
  3 10  2  0  0  0  0
  3 18  1  0  0  0  0
  4 11  1  0  0  0  0
  4 18  2  0  0  0  0
  5 20  1  0  0  0  0
  6 22  1  0  0  0  0
  7 12  2  0  0  0  0
  7 21  1  0  0  0  0
  8  9  2  0  0  0  0
  8 24  1  0  0  0  0
  9 25  1  0  0  0  0
 10 27  1  0  0  0  0
 11 27  2  0  0  0  0
 12 28  1  0  0  0  0
 13 14  2  0  0  0  0
 13 29  1  0  0  0  0
 14 30  1  0  0  0  0
 15 23  1  0  0  0  0
 15 28  2  0  0  0  0
 16 24  2  0  0  0  0
 16 26  1  0  0  0  0
 17 30  2  0  0  0  0
 17 31  1  0  0  0  0
 18 32  1  0  0  0  0
 19 32  1  0  0  0  0
 19 33  2  0  0  0  0
 19 35  1  0  0  0  0
 20 22  2  0  0  0  0
 20 40  1  0  0  0  0
 21 23  2  0  0  0  0
 21 41  1  0  0  0  0
 22 51  1  0  0  0  0
 23 42  1  0  0  0  0
 24 65  1  0  0  0  0
 25 26  2  0  0  0  0
 25 69  1  0  0  0  0
 26 75  1  0  0  0  0
 27 85  1  0  0  0  0
 28 86  1  0  0  0  0
 29 31  2  0  0  0  0
 29 85  1  0  0  0  0
 30 87  1  0  0  0  0
 31 88  1  0  0  0  0
 32 67  2  0  0  0  0
 33 68  1  0  0  0  0
 33 72  1  0  0  0  0
 34 54  1  0  0  0  0
 34 69  1  0  0  0  0
 34 79  2  0  0  0  0
 35 73  1  0  0  0  0
 35 80  2  0  0  0  0
 36 52  1  0  0  0  0
 36 76  1  0  0  0  0
 36 81  2  0  0  0  0
 37 63  1  0  0  0  0
 37 70  1  0  0  0  0
 37 82  2  0  0  0  0
 38 64  1  0  0  0  0
 38 77  1  0  0  0  0
 38 83  2  0  0  0  0
 39 71  1  0  0  0  0
 39 75  1  0  0  0  0
 39 84  2  0  0  0  0
 40 43  1  0  0  0  0
 41 52  1  0  0  0  0
 42 70  1  0  0  0  0
 43 45  1  0  0  0  0
 44 46  1  0  0  0  0
 44 48  1  0  0  0  0
 45 51  1  0  0  0  0
 46 53  1  0  0  0  0
 47 49  1  0  0  0  0
 47 54  1  0  0  0  0
 48 71  1  0  0  0  0
 49 69  1  0  0  0  0
 50 53  1  0  0  0  0
 50 71  1  0  0  0  0
 51 76  1  0  0  0  0
 52 70  1  0  0  0  0
 53 68  1  0  0  0  0
 54 61  1  0  0  0  0
 54 62  1  0  0  0  0
 55 61  1  0  0  0  0
 56 64  1  0  0  0  0
 57 66  1  0  0  0  0
 58 66  1  0  0  0  0
 59 66  1  0  0  0  0
 60 78  1  0  0  0  0
 62 86  1  0  0  0  0
 63 66  1  0  0  0  0
 63 77  1  0  0  0  0
 64 78  1  0  0  0  0
 65 74  1  0  0  0  0
 65 89  1  0  0  0  0
 65 90  1  0  0  0  0
 67 68  1  0  0  0  0
M  CHG  1  78   1
M  ISO  4  39 100  62 101  75 100  86 101
M  END
> <Batch ID>
0070

> <Smiles>
CCC1([101CH2:1][101O:1]c2ccc3c(c2)CN(C(=O)C(NC(=O)C(C)NC)C(C)(C)C)C(C(=O)NC2CCCc4ccccc42)C3)CCN(c2ccc(C(N)(F)F)cc2[100NH:0][100C:0](=O)N2CCCC(n3nc(-c4ccc(Oc5ccc(F)cc5F)cc4)c(C(N)=O)c3N)C2)C1=O

> <Shape>
0.148

> <Color>
0.172

> <Negative vol penalty>
0.000

$$$$

  -OEChem-04042323323D

 85 93  0     1  0  0  0  0  0999 V2000
  -26.2950  -35.1881   23.5936 C   0  0  0  0  0  0  0  0  0  0  0  0
  -26.7941  -33.9206   23.3115 C   0  0  0  0  0  0  0  0  0  0  0  0
  -20.9343  -13.8545   21.5886 C   0  0  0  0  0  0  0  0  0  0  0  0
  -22.7833  -14.9731   22.6688 C   0  0  0  0  0  0  0  0  0  0  0  0
  -27.3193  -22.4368   17.0873 C   0  0  0  0  0  0  0  0  0  0  0  0
  -24.9896  -35.3338   24.0612 C   0  0  0  0  0  0  0  0  0  0  0  0
  -25.9885  -32.7978   23.4979 C   0  0  0  0  0  0  0  0  0  0  0  0
  -26.2660  -29.5433   19.6281 C   0  0  0  0  0  0  0  0  0  0  0  0
  -26.0218  -21.9252   17.1042 C   0  0  0  0  0  0  0  0  0  0  0  0
  -21.4566  -12.6196   21.9733 C   0  0  0  0  0  0  0  0  0  0  0  0
  -23.3056  -13.7383   23.0535 C   0  0  0  0  0  0  0  0  0  0  0  0
  -27.3888  -28.7188   19.5687 C   0  0  0  0  0  0  0  0  0  0  0  0
  -22.4945   -9.1563   22.3627 C   0  0  0  0  0  0  0  0  0  0  0  0
  -22.5259   -8.1384   21.4096 C   0  0  0  0  0  0  0  0  0  0  0  0
  -26.1033  -26.9103   20.5154 C   0  0  0  0  0  0  0  0  0  0  0  0
  -26.1560  -21.6643   19.5024 C   0  0  0  0  0  0  0  0  0  0  0  0
  -23.9355   -9.5025   19.9991 C   0  0  0  0  0  0  0  0  0  0  0  0
  -21.5976  -15.0312   21.9363 C   0  0  0  0  0  0  0  0  0  0  0  0
  -28.0352  -22.5621   18.2779 C   0  0  0  0  0  0  0  0  0  0  0  0
  -20.1533  -17.1091   22.2586 C   0  0  0  0  0  0  0  0  0  0  0  0
  -24.1643  -34.2131   24.2443 C   0  0  0  0  0  0  0  0  0  0  0  0
  -25.0544  -29.0598   20.1425 C   0  0  0  0  0  0  0  0  0  0  0  0
  -24.6713  -32.9285   23.9697 C   0  0  0  0  0  0  0  0  0  0  0  0
  -24.9660  -27.7299   20.5777 C   0  0  0  0  0  0  0  0  0  0  0  0
  -25.4401  -21.5389   18.3118 C   0  0  0  0  0  0  0  0  0  0  0  0
  -22.6422  -12.5615   22.7058 C   0  0  0  0  0  0  0  0  0  0  0  0
  -27.3084  -27.4030   20.0151 C   0  0  0  0  0  0  0  0  0  0  0  0
  -23.1835  -10.3474   22.1340 C   0  0  0  0  0  0  0  0  0  0  0  0
  -23.2464   -8.3115   20.2279 C   0  0  0  0  0  0  0  0  0  0  0  0
  -27.4535  -22.1759   19.4854 C   0  0  0  0  0  0  0  0  0  0  0  0
  -23.9040  -10.5205   20.9522 C   0  0  0  0  0  0  0  0  0  0  0  0
  -21.0589  -16.3071   21.5386 C   0  0  0  0  0  0  0  0  0  0  0  0
  -19.9568  -18.2081   21.4586 C   0  0  0  0  0  0  0  0  0  0  0  0
  -29.4132  -23.1053   18.2565 C   0  0  0  0  0  0  0  0  0  0  0  0
  -19.5442  -16.8811   23.5364 C   0  0  0  0  0  0  0  0  0  0  0  0
  -23.2004  -29.8242   22.6086 C   0  0  0  0  0  0  0  0  0  0  0  0
  -21.2103  -27.6260   21.2934 C   0  0  0  0  0  0  0  0  0  0  0  0
  -20.8384  -24.8755   19.3077 C   0  0  0  0  0  0  0  0  0  0  0  0
  -30.8220  -24.9974   19.1839 C   0  0  0  0  0  0  0  0  0  0  0  0
  -23.2749  -20.8298   17.2369 C   0  0  0  0  0  0  0  0  0  0  0  0
  -22.7758  -34.4165   24.7968 C   0  0  0  0  0  0  0  0  0  0  0  0
  -23.8452  -29.9539   20.1749 C   0  0  0  0  0  0  0  0  0  0  0  0
  -23.6831  -27.1565   21.1198 C   0  0  0  0  0  0  0  0  0  0  0  0
  -21.8631  -33.2071   24.6110 C   0  0  0  0  0  0  0  0  0  0  0  0
  -19.9762  -19.5439   16.8597 C   0  0  0  0  0  0  0  0  0  0  0  0
  -22.5859  -31.9258   25.0144 C   0  0  0  0  0  0  0  0  0  0  0  0
  -19.7949  -18.6457   18.0855 C   0  0  0  0  0  0  0  0  0  0  0  0
  -21.4024  -19.4803   16.3161 C   0  0  0  0  0  0  0  0  0  0  0  0
  -22.2747  -18.8444   18.5306 C   0  0  0  0  0  0  0  0  0  0  0  0
  -23.8199  -31.6885   24.1356 C   0  0  1  0  0  0  0  0  0  0  0  0
  -22.8010  -29.5099   21.1946 C   0  0  1  0  0  0  0  0  0  0  0  0
  -20.8711  -18.9248   19.1529 C   0  0  2  0  0  0  0  0  0  0  0  0
  -32.1781  -24.3660   19.1899 C   0  0  0  0  0  0  0  0  0  0  0  0
  -19.0966  -23.2838   18.4531 C   0  0  0  0  0  0  0  0  0  0  0  0
  -21.1402  -26.2458   24.0138 C   0  0  0  0  0  0  0  0  0  0  0  0
  -20.2055  -24.2172   22.8826 C   0  0  0  0  0  0  0  0  0  0  0  0
  -18.9319  -26.3618   22.8456 C   0  0  0  0  0  0  0  0  0  0  0  0
  -21.3745  -25.6177   16.4934 C   0  0  0  0  0  0  0  0  0  0  0  0
  -29.6113  -27.1568   19.4303 C   0  0  0  0  0  0  0  0  0  1  0  0
  -21.0192  -26.1354   21.4371 C   0  0  1  0  0  0  0  0  0  0  0  0
  -19.8648  -24.5685   18.1841 C   0  0  2  0  0  0  0  0  0  0  0  0
  -20.3491  -25.7511   22.7864 C   0  0  0  0  0  0  0  0  0  0  0  0
  -21.4131  -16.8502   20.3709 N   0  0  0  0  0  0  0  0  0  0  0  0
  -20.7265  -18.0053   20.3511 N   0  0  0  0  0  0  0  0  0  0  0  0
  -22.5303  -28.0720   21.1370 N   0  0  0  0  0  0  0  0  0  0  0  0
  -22.3671  -19.7594   17.3821 N   0  0  0  0  0  0  0  0  0  0  0  0
  -19.2025  -19.3185   21.6015 N   0  0  0  0  0  0  0  0  0  0  0  0
  -30.3010  -22.4272   17.5292 N   0  0  0  0  0  0  0  0  0  0  0  0
  -19.8559  -15.7003   24.2240 N   0  0  0  0  0  0  0  0  0  0  0  0
  -24.1219  -21.0194   18.3283 N   0  0  0  0  0  0  0  0  0  0  0  0
  -23.4277  -31.1667   22.8439 N   0  0  0  0  0  0  0  0  0  0  0  0
  -20.2778  -25.7033   20.2573 N   0  0  0  0  0  0  0  0  0  0  0  0
  -29.6250  -24.2242   18.9653 N   0  3  0  0  0  0  0  0  0  0  0  0
  -30.8073  -26.2717   19.3834 N   0  3  0  0  0  0  0  0  0  0  0  0
  -20.5943  -24.4184   16.8933 N   0  3  0  0  0  0  0  0  0  0  0  0
  -18.7344  -17.6925   24.0457 O   0  0  0  0  0  0  0  0  0  0  0  0
  -23.2938  -28.9161   23.4261 O   0  0  0  0  0  0  0  0  0  0  0  0
  -20.2240  -28.3667   21.3120 O   0  0  0  0  0  0  0  0  0  0  0  0
  -21.9805  -24.4229   19.3417 O   0  0  0  0  0  0  0  0  0  0  0  0
  -23.2808  -21.5438   16.2309 O   0  0  0  0  0  0  0  0  0  0  0  0
  -23.1520  -11.3568   23.0815 O   0  0  0  0  0  0  0  0  0  0  0  0
  -28.4029  -26.5964   19.9589 O   0  0  0  0  0  0  0  0  0  1  0  0
  -23.2778   -7.3332   19.3134 F   0  0  0  0  0  0  0  0  0  0  0  0
  -28.1342  -22.2908   20.6344 F   0  0  0  0  0  0  0  0  0  0  0  0
  -24.5689  -11.6621   20.7274 F   0  0  0  0  0  0  0  0  0  0  0  0
  1  2  1  0  0  0  0
  1  6  2  0  0  0  0
  2  7  2  0  0  0  0
  3 10  2  0  0  0  0
  3 18  1  0  0  0  0
  4 11  1  0  0  0  0
  4 18  2  0  0  0  0
  5  9  2  0  0  0  0
  5 19  1  0  0  0  0
  6 21  1  0  0  0  0
  7 23  1  0  0  0  0
  8 12  2  0  0  0  0
  8 22  1  0  0  0  0
  9 25  1  0  0  0  0
 10 26  1  0  0  0  0
 11 26  2  0  0  0  0
 12 27  1  0  0  0  0
 13 14  2  0  0  0  0
 13 28  1  0  0  0  0
 14 29  1  0  0  0  0
 15 24  1  0  0  0  0
 15 27  2  0  0  0  0
 16 25  2  0  0  0  0
 16 30  1  0  0  0  0
 17 29  2  0  0  0  0
 17 31  1  0  0  0  0
 18 32  1  0  0  0  0
 19 30  2  0  0  0  0
 19 34  1  0  0  0  0
 20 32  1  0  0  0  0
 20 33  2  0  0  0  0
 20 35  1  0  0  0  0
 21 23  2  0  0  0  0
 21 41  1  0  0  0  0
 22 24  2  0  0  0  0
 22 42  1  0  0  0  0
 23 50  1  0  0  0  0
 24 43  1  0  0  0  0
 25 70  1  0  0  0  0
 26 81  1  0  0  0  0
 27 82  1  0  0  0  0
 28 31  2  0  0  0  0
 28 81  1  0  0  0  0
 29 83  1  0  0  0  0
 30 84  1  0  0  0  0
 31 85  1  0  0  0  0
 32 63  2  0  0  0  0
 33 64  1  0  0  0  0
 33 67  1  0  0  0  0
 34 68  1  0  0  0  0
 34 73  2  0  0  0  0
 35 69  1  0  0  0  0
 35 76  2  0  0  0  0
 36 51  1  0  0  0  0
 36 71  1  0  0  0  0
 36 77  2  0  0  0  0
 37 60  1  0  0  0  0
 37 65  1  0  0  0  0
 37 78  2  0  0  0  0
 38 61  1  0  0  0  0
 38 72  1  0  0  0  0
 38 79  2  0  0  0  0
 39 53  1  0  0  0  0
 39 73  1  0  0  0  0
 39 74  2  0  0  0  0
 40 66  1  0  0  0  0
 40 70  1  0  0  0  0
 40 80  2  0  0  0  0
 41 44  1  0  0  0  0
 42 51  1  0  0  0  0
 43 65  1  0  0  0  0
 44 46  1  0  0  0  0
 45 47  1  0  0  0  0
 45 48  1  0  0  0  0
 46 50  1  0  0  0  0
 47 52  1  0  0  0  0
 48 66  1  0  0  0  0
 49 52  1  0  0  0  0
 49 66  1  0  0  0  0
 50 71  1  0  0  0  0
 51 65  1  0  0  0  0
 52 64  1  0  0  0  0
 54 61  1  0  0  0  0
 55 62  1  0  0  0  0
 56 62  1  0  0  0  0
 57 62  1  0  0  0  0
 58 75  1  0  0  0  0
 59 74  1  0  0  0  0
 59 82  1  0  0  0  0
 60 62  1  0  0  0  0
 60 72  1  0  0  0  0
 61 75  1  0  0  0  0
 63 64  1  0  0  0  0
M  CHG  3  73   1  74   1  75   1
M  ISO  4  40 100  59 101  70 100  82 101
M  END
> <Batch ID>
0070

> <Smiles>
CNC(C)C(=O)NC(C(=O)N1Cc2cc([101O:1][101CH2:1]NC(C)=NC(=N)c3ccc([100NH:0][100C:0](=O)N4CCCC(n5nc(-c6ccc(Oc7ccc(F)cc7F)cc6)c(C(N)=O)c5N)C4)cc3F)ccc2CC1C(=O)NC1CCCc2ccccc21)C(C)(C)C

> <Shape>
0.230

> <Color>
0.072

> <Negative vol penalty>
0.000

$$$$

  -OEChem-04042323323D

 86 95  0     1  0  0  0  0  0999 V2000
  -29.0457  -12.7914   19.0041 C   0  0  0  0  0  0  0  0  0  0  0  0
  -28.6288  -14.0634   18.6251 C   0  0  0  0  0  0  0  0  0  0  0  0
  -29.3901  -25.4953   19.4573 C   0  0  0  0  0  0  0  0  0  0  0  0
  -27.3807  -24.4997   20.3562 C   0  0  0  0  0  0  0  0  0  0  0  0
  -28.1751  -11.9516   19.6975 C   0  0  0  0  0  0  0  0  0  0  0  0
  -27.3407  -14.4959   18.9383 C   0  0  0  0  0  0  0  0  0  0  0  0
  -23.7027  -20.4276   20.6402 C   0  0  0  0  0  0  0  0  0  0  0  0
  -30.1249  -24.3832   19.8680 C   0  0  0  0  0  0  0  0  0  0  0  0
  -28.1155  -23.3875   20.7669 C   0  0  0  0  0  0  0  0  0  0  0  0
  -22.5735  -21.1472   20.2518 C   0  0  0  0  0  0  0  0  0  0  0  0
  -29.4044  -20.5980   19.3606 C   0  0  0  0  0  0  0  0  0  0  0  0
  -28.8654  -19.3370   19.1060 C   0  0  0  0  0  0  0  0  0  0  0  0
  -21.1831  -19.6398   21.5221 C   0  0  0  0  0  0  0  0  0  0  0  0
  -19.7873  -28.6888   23.2903 C   0  0  0  0  0  0  0  0  0  0  0  0
  -19.9509  -26.9841   21.5861 C   0  0  0  0  0  0  0  0  0  0  0  0
  -28.8571  -18.8623   21.4749 C   0  0  0  0  0  0  0  0  0  0  0  0
  -28.0180  -25.5536   19.7014 C   0  0  0  0  0  0  0  0  0  0  0  0
  -27.1064  -27.1837   17.9637 C   0  0  0  0  0  0  0  0  0  0  0  0
  -26.8789  -12.3776   20.0277 C   0  0  0  0  0  0  0  0  0  0  0  0
  -23.5792  -19.3002   21.4651 C   0  0  0  0  0  0  0  0  0  0  0  0
  -26.4515  -13.6605   19.6355 C   0  0  0  0  0  0  0  0  0  0  0  0
  -22.3125  -18.9091   21.9217 C   0  0  0  0  0  0  0  0  0  0  0  0
  -18.6383  -28.0774   23.7917 C   0  0  0  0  0  0  0  0  0  0  0  0
  -18.1455  -26.9192   23.1904 C   0  0  0  0  0  0  0  0  0  0  0  0
  -18.8018  -26.3726   22.0876 C   0  0  0  0  0  0  0  0  0  0  0  0
  -20.4436  -28.1422   22.1875 C   0  0  0  0  0  0  0  0  0  0  0  0
  -29.4876  -23.3292   20.5228 C   0  0  0  0  0  0  0  0  0  0  0  0
  -21.3133  -20.7517   20.6903 C   0  0  0  0  0  0  0  0  0  0  0  0
  -29.6699  -20.9911   20.6723 C   0  0  0  0  0  0  0  0  0  0  0  0
  -28.5917  -18.4691   20.1631 C   0  0  0  0  0  0  0  0  0  0  0  0
  -29.3962  -20.1233   21.7295 C   0  0  0  0  0  0  0  0  0  0  0  0
  -27.2584  -26.7025   19.2779 C   0  0  0  0  0  0  0  0  0  0  0  0
  -26.2985  -28.2869   18.0933 C   0  0  0  0  0  0  0  0  0  0  0  0
  -17.0702  -22.8154   20.7641 C   0  0  0  0  0  0  0  0  0  0  0  0
  -18.3695  -22.7706   21.1023 C   0  0  0  0  0  0  0  0  0  0  0  0
  -27.6470  -26.6785   16.7356 C   0  0  0  0  0  0  0  0  0  0  0  0
  -24.2471  -16.2083   21.1528 C   0  0  0  0  0  0  0  0  0  0  0  0
  -23.4117  -16.1106   24.2856 C   0  0  0  0  0  0  0  0  0  0  0  0
  -21.6767  -17.5159   26.8666 C   0  0  0  0  0  0  0  0  0  0  0  0
  -22.2334  -29.9147   22.1590 C   0  0  0  0  0  0  0  0  0  0  0  0
  -25.9576  -11.4168   20.7368 C   0  0  0  0  0  0  0  0  0  0  0  0
  -24.8096  -18.5505   21.8969 C   0  0  0  0  0  0  0  0  0  0  0  0
  -22.1281  -17.7181   22.8250 C   0  0  0  0  0  0  0  0  0  0  0  0
  -16.3182  -24.1003   20.6112 C   0  0  0  0  0  0  0  0  0  0  0  0
  -19.1723  -24.0157   21.4035 C   0  0  0  0  0  0  0  0  0  0  0  0
  -24.7367  -12.0901   21.3583 C   0  0  0  0  0  0  0  0  0  0  0  0
  -25.1413  -31.7359   21.2077 C   0  0  0  0  0  0  0  0  0  0  0  0
  -24.0965  -13.0555   20.3658 C   0  0  0  0  0  0  0  0  0  0  0  0
  -25.9977  -30.6971   20.4799 C   0  0  0  0  0  0  0  0  0  0  0  0
  -17.2423  -25.3106   20.4878 C   0  0  0  0  0  0  0  0  0  0  0  0
  -24.3915  -31.1249   22.3902 C   0  0  0  0  0  0  0  0  0  0  0  0
  -24.4496  -28.8956   21.3431 C   0  0  0  0  0  0  0  0  0  0  0  0
  -25.0703  -14.1749   19.9786 C   0  0  1  0  0  0  0  0  0  0  0  0
  -24.5163  -17.1146   22.3206 C   0  0  1  0  0  0  0  0  0  0  0  0
  -25.1734  -29.4498   20.1051 C   0  0  2  0  0  0  0  0  0  0  0  0
  -17.9538  -28.6837   24.9728 C   0  0  0  0  0  0  0  0  0  0  0  0
  -16.9124  -26.2661   23.7312 C   0  0  0  0  0  0  0  0  0  0  0  0
  -21.1558  -17.1884   29.2995 C   0  0  0  0  0  0  0  0  0  0  0  0
  -21.4488  -13.8889   23.5638 C   0  0  0  0  0  0  0  0  0  0  0  0
  -20.3200  -14.2658   25.7665 C   0  0  0  0  0  0  0  0  0  0  0  0
  -22.7003  -13.5225   25.6978 C   0  0  0  0  0  0  0  0  0  0  0  0
  -22.9288  -20.0949   27.6011 C   0  0  0  0  0  0  0  0  0  0  0  0
  -19.1088  -21.4698   21.2202 C   0  0  0  0  0  0  0  0  0  1  0  0
  -22.1233  -15.8952   25.0423 C   0  0  1  0  0  0  0  0  0  0  0  0
  -22.0833  -17.8482   28.2909 C   0  0  2  0  0  0  0  0  0  0  0  0
  -21.6510  -14.4144   24.9990 C   0  0  0  0  0  0  0  0  0  0  0  0
  -26.6001  -27.4397   20.1763 N   0  0  0  0  0  0  0  0  0  0  0  0
  -26.0267  -28.3954   19.4254 N   0  0  0  0  0  0  0  0  0  0  0  0
  -18.3240  -25.2136   21.4719 N   0  0  2  0  0  0  0  0  0  0  0  0
  -23.3609  -17.0138   23.2145 N   0  0  0  0  0  0  0  0  0  0  0  0
  -23.6297  -29.9508   21.9589 N   0  0  0  0  0  0  0  0  0  0  0  0
  -25.8014  -29.1650   17.1966 N   0  0  0  0  0  0  0  0  0  0  0  0
  -26.9038  -25.7316   16.0179 N   0  0  0  0  0  0  0  0  0  0  0  0
  -21.6117  -28.7625   21.6791 N   0  0  0  0  0  0  0  0  0  0  0  0
  -25.1457  -15.1657   21.0309 N   0  0  0  0  0  0  0  0  0  0  0  0
  -22.3490  -16.4113   26.3880 N   0  0  0  0  0  0  0  0  0  0  0  0
  -22.0443  -19.3217   28.5104 N   0  3  0  0  0  0  0  0  0  0  0  0
  -28.7639  -27.0436   16.2963 O   0  0  0  0  0  0  0  0  0  0  0  0
  -23.2938  -16.4372   20.4176 O   0  0  0  0  0  0  0  0  0  0  0  0
  -24.4276  -15.5052   24.6366 O   0  0  0  0  0  0  0  0  0  0  0  0
  -20.8430  -18.1685   26.2424 O   0  0  0  0  0  0  0  0  0  0  0  0
  -21.6297  -30.8500   22.6907 O   0  0  0  0  0  0  0  0  0  0  0  0
  -30.2043  -22.2437   20.9235 O   0  0  0  0  0  0  0  0  0  0  0  0
  -20.2094  -21.4520   20.3121 O   0  0  0  0  0  0  0  0  0  1  0  0
  -28.0726  -17.2588   19.9186 F   0  0  0  0  0  0  0  0  0  0  0  0
  -29.6480  -20.4959   22.9919 F   0  0  0  0  0  0  0  0  0  0  0  0
  1  2  1  0  0  0  0
  1  5  2  0  0  0  0
  2  6  2  0  0  0  0
  3  8  2  0  0  0  0
  3 17  1  0  0  0  0
  4  9  1  0  0  0  0
  4 17  2  0  0  0  0
  5 19  1  0  0  0  0
  6 21  1  0  0  0  0
  7 10  2  0  0  0  0
  7 20  1  0  0  0  0
  8 27  1  0  0  0  0
  9 27  2  0  0  0  0
 10 28  1  0  0  0  0
 11 12  2  0  0  0  0
 11 29  1  0  0  0  0
 12 30  1  0  0  0  0
 13 22  1  0  0  0  0
 13 28  2  0  0  0  0
 14 23  2  0  0  0  0
 14 26  1  0  0  0  0
 15 25  1  0  0  0  0
 15 26  2  0  0  0  0
 16 30  2  0  0  0  0
 16 31  1  0  0  0  0
 17 32  1  0  0  0  0
 18 32  1  0  0  0  0
 18 33  2  0  0  0  0
 18 36  1  0  0  0  0
 19 21  2  0  0  0  0
 19 41  1  0  0  0  0
 20 22  2  0  0  0  0
 20 42  1  0  0  0  0
 21 53  1  0  0  0  0
 22 43  1  0  0  0  0
 23 24  1  0  0  0  0
 23 56  1  0  0  0  0
 24 25  2  0  0  0  0
 24 57  1  0  0  0  0
 25 69  1  0  0  0  0
 26 74  1  0  0  0  0
 27 83  1  0  0  0  0
 28 84  1  0  0  0  0
 29 31  2  0  0  0  0
 29 83  1  0  0  0  0
 30 85  1  0  0  0  0
 31 86  1  0  0  0  0
 32 67  2  0  0  0  0
 33 68  1  0  0  0  0
 33 72  1  0  0  0  0
 34 35  2  0  0  0  0
 34 44  1  0  0  0  0
 35 45  1  0  0  0  0
 35 63  1  0  0  0  0
 36 73  1  0  0  0  0
 36 78  2  0  0  0  0
 37 54  1  0  0  0  0
 37 75  1  0  0  0  0
 37 79  2  0  0  0  0
 38 64  1  0  0  0  0
 38 70  1  0  0  0  0
 38 80  2  0  0  0  0
 39 65  1  0  0  0  0
 39 76  1  0  0  0  0
 39 81  2  0  0  0  0
 40 71  1  0  0  0  0
 40 74  1  0  0  0  0
 40 82  2  0  0  0  0
 41 46  1  0  0  0  0
 42 54  1  0  0  0  0
 43 70  1  0  0  0  0
 44 50  1  0  0  0  0
 45 69  1  0  0  0  0
 46 48  1  0  0  0  0
 47 49  1  0  0  0  0
 47 51  1  0  0  0  0
 48 53  1  0  0  0  0
 49 55  1  0  0  0  0
 50 69  1  0  0  0  0
 51 71  1  0  0  0  0
 52 55  1  0  0  0  0
 52 71  1  0  0  0  0
 53 75  1  0  0  0  0
 54 70  1  0  0  0  0
 55 68  1  0  0  0  0
 58 65  1  0  0  0  0
 59 66  1  0  0  0  0
 60 66  1  0  0  0  0
 61 66  1  0  0  0  0
 62 77  1  0  0  0  0
 63 84  1  0  0  0  0
 64 66  1  0  0  0  0
 64 76  1  0  0  0  0
 65 77  1  0  0  0  0
 67 68  1  0  0  0  0
M  CHG  1  77   1
M  ISO  4  40 100  63 101  74 100  84 101
M  END
> <Batch ID>
0070

> <Smiles>
CNC(C)C(=O)NC(C(=O)N1Cc2cc([101O:1][101CH2:1]C3=CCCN(c4cc([100NH:0][100C:0](=O)N5CCCC(n6nc(-c7ccc(Oc8ccc(F)cc8F)cc7)c(C(N)=O)c6N)C5)cc(C)c4C)C3)ccc2CC1C(=O)NC1CCCc2ccccc21)C(C)(C)C

> <Shape>
0.237

> <Color>
0.080

> <Negative vol penalty>
0.000

$$$$

  -OEChem-04042323323D

 88 97  0     1  0  0  0  0  0999 V2000
  -31.9282  -23.9564   23.7054 C   0  0  0  0  0  0  0  0  0  0  0  0
  -30.7832  -24.3018   22.9946 C   0  0  0  0  0  0  0  0  0  0  0  0
  -26.2201  -12.8279   21.5243 C   0  0  0  0  0  0  0  0  0  0  0  0
  -25.3084  -13.9896   19.6121 C   0  0  0  0  0  0  0  0  0  0  0  0
  -32.1643  -24.5174   24.9598 C   0  0  0  0  0  0  0  0  0  0  0  0
  -29.8731  -25.2076   23.5384 C   0  0  0  0  0  0  0  0  0  0  0  0
  -28.3256  -28.6628   20.1751 C   0  0  0  0  0  0  0  0  0  0  0  0
  -25.0938  -12.0059   21.5620 C   0  0  0  0  0  0  0  0  0  0  0  0
  -24.1821  -13.1676   19.6498 C   0  0  0  0  0  0  0  0  0  0  0  0
  -27.3634  -28.2632   19.2487 C   0  0  0  0  0  0  0  0  0  0  0  0
  -23.9298   -9.2977   19.9056 C   0  0  0  0  0  0  0  0  0  0  0  0
  -24.1320   -7.9286   20.0789 C   0  0  0  0  0  0  0  0  0  0  0  0
  -25.6529  -29.3282   20.5751 C   0  0  0  0  0  0  0  0  0  0  0  0
  -26.3205  -22.4883   14.5152 C   0  0  0  0  0  0  0  0  0  0  0  0
  -26.9903  -22.5492   16.8357 C   0  0  0  0  0  0  0  0  0  0  0  0
  -22.8267   -7.9930   22.1109 C   0  0  0  0  0  0  0  0  0  0  0  0
  -26.3274  -13.8197   20.5494 C   0  0  0  0  0  0  0  0  0  0  0  0
  -28.8293  -14.2704   20.3381 C   0  0  0  0  0  0  0  0  0  0  0  0
  -31.2615  -25.4378   25.5150 C   0  0  0  0  0  0  0  0  0  0  0  0
  -27.9566  -29.3899   21.3160 C   0  0  0  0  0  0  0  0  0  0  0  0
  -30.0967  -25.7803   24.8020 C   0  0  0  0  0  0  0  0  0  0  0  0
  -26.6127  -29.7380   21.5131 C   0  0  0  0  0  0  0  0  0  0  0  0
  -26.4537  -23.1851   15.7162 C   0  0  0  0  0  0  0  0  0  0  0  0
  -26.7239  -21.1554   14.4338 C   0  0  0  0  0  0  0  0  0  0  0  0
  -27.3937  -21.2164   16.7543 C   0  0  0  0  0  0  0  0  0  0  0  0
  -24.0748  -12.1758   20.6248 C   0  0  0  0  0  0  0  0  0  0  0  0
  -26.0264  -28.5934   19.4501 C   0  0  0  0  0  0  0  0  0  0  0  0
  -23.1761  -10.0146   20.8350 C   0  0  0  0  0  0  0  0  0  0  0  0
  -23.5804   -7.2762   21.1815 C   0  0  0  0  0  0  0  0  0  0  0  0
  -22.6246   -9.3623   21.9376 C   0  0  0  0  0  0  0  0  0  0  0  0
  -27.2605  -20.5196   15.5533 C   0  0  0  0  0  0  0  0  0  0  0  0
  -27.4904  -14.6695   20.5103 C   0  0  0  0  0  0  0  0  0  0  0  0
  -29.5443  -15.4426   20.3739 C   0  0  0  0  0  0  0  0  0  0  0  0
  -25.1158  -26.3671   17.0894 C   0  0  0  0  0  0  0  0  0  0  0  0
  -25.4952  -27.3162   16.0053 C   0  0  0  0  0  0  0  0  0  0  0  0
  -29.3778  -12.9575   20.1614 C   0  0  0  0  0  0  0  0  0  0  0  0
  -24.9280  -26.8660   18.3185 C   0  0  0  0  0  0  0  0  0  1  0  0
  -28.1205  -28.8824   24.4496 C   0  0  0  0  0  0  0  0  0  0  0  0
  -27.0559  -31.9426   24.6070 C   0  0  0  0  0  0  0  0  0  0  0  0
  -25.6732  -35.0216   24.1025 C   0  0  0  0  0  0  0  0  0  0  0  0
  -28.1365  -21.1214   19.1596 C   0  0  0  0  0  0  0  0  0  0  0  0
  -31.5358  -25.9817   26.8947 C   0  0  0  0  0  0  0  0  0  0  0  0
  -29.0102  -29.8364   22.2922 C   0  0  0  0  0  0  0  0  0  0  0  0
  -26.1674  -30.5347   22.7112 C   0  0  0  0  0  0  0  0  0  0  0  0
  -25.0044  -24.9083   16.7533 C   0  0  0  0  0  0  0  0  0  0  0  0
  -26.4502  -26.7913   14.9597 C   0  0  0  0  0  0  0  0  0  0  0  0
  -30.7098  -27.2189   27.2371 C   0  0  0  0  0  0  0  0  0  0  0  0
  -29.4122  -19.8542   22.2327 C   0  0  0  0  0  0  0  0  0  0  0  0
  -29.2479  -27.0069   26.8565 C   0  0  0  0  0  0  0  0  0  0  0  0
  -29.1915  -18.3438   22.1215 C   0  0  0  0  0  0  0  0  0  0  0  0
  -26.1576  -25.3443   14.5887 C   0  0  0  0  0  0  0  0  0  0  0  0
  -28.2700  -20.6427   21.5943 C   0  0  0  0  0  0  0  0  0  0  0  0
  -27.7364  -18.7601   20.0975 C   0  0  0  0  0  0  0  0  0  0  0  0
  -29.0982  -26.7781   25.3476 C   0  0  1  0  0  0  0  0  0  0  0  0
  -28.4517  -30.1304   23.6811 C   0  0  1  0  0  0  0  0  0  0  0  0
  -28.8926  -17.9234   20.6691 C   0  0  2  0  0  0  0  0  0  0  0  0
  -24.5456  -26.0340   19.5001 C   0  0  0  0  0  0  0  0  0  0  0  0
  -24.7698  -37.0035   25.3489 C   0  0  0  0  0  0  0  0  0  0  0  0
  -24.5060  -30.3863   25.2285 C   0  0  0  0  0  0  0  0  0  0  0  0
  -23.3389  -32.5737   25.5766 C   0  0  0  0  0  0  0  0  0  0  0  0
  -25.2518  -31.9352   27.0449 C   0  0  0  0  0  0  0  0  0  0  0  0
  -27.7039  -36.8292   22.9329 C   0  0  0  0  0  0  0  0  0  0  0  0
  -25.6982  -32.6014   24.6472 C   0  0  1  0  0  0  0  0  0  0  0  0
  -25.9950  -36.3802   24.6984 C   0  0  2  0  0  0  0  0  0  0  0  0
  -24.7118  -31.8685   25.5996 C   0  0  0  0  0  0  0  0  0  0  0  0
  -27.3597  -15.9918   20.6456 N   0  0  0  0  0  0  0  0  0  0  0  0
  -28.6259  -16.4339   20.5586 N   0  0  0  0  0  0  0  0  0  0  0  0
  -26.0481  -24.5213   15.7988 N   0  0  2  0  0  0  0  0  0  0  0  0
  -27.2340  -30.9426   23.6404 N   0  0  0  0  0  0  0  0  0  0  0  0
  -28.0470  -20.1932   20.2184 N   0  0  0  0  0  0  0  0  0  0  0  0
  -26.5885  -20.4532   13.2178 N   0  0  0  0  0  0  0  0  0  0  0  0
  -30.8627  -15.7118   20.2652 N   0  0  0  0  0  0  0  0  0  0  0  0
  -29.5100  -12.4584   18.8584 N   0  0  0  0  0  0  0  0  0  0  0  0
  -27.9376  -20.5725   17.8932 N   0  0  0  0  0  0  0  0  0  0  0  0
  -29.1950  -28.0334   24.6340 N   0  0  0  0  0  0  0  0  0  0  0  0
  -25.9331  -33.9997   24.9910 N   0  0  0  0  0  0  0  0  0  0  0  0
  -26.4877  -37.3065   23.6400 N   0  3  0  0  0  0  0  0  0  0  0  0
  -25.1144  -28.4844   16.0007 O   0  0  0  0  0  0  0  0  0  0  0  0
  -29.7248  -12.2416   21.1312 O   0  0  0  0  0  0  0  0  0  0  0  0
  -26.9752  -28.7038   24.8471 O   0  0  0  0  0  0  0  0  0  0  0  0
  -27.9286  -32.3068   25.3991 O   0  0  0  0  0  0  0  0  0  0  0  0
  -25.2316  -34.8812   22.9642 O   0  0  0  0  0  0  0  0  0  0  0  0
  -28.3993  -22.3102   19.3591 O   0  0  0  0  0  0  0  0  0  0  0  0
  -22.9757  -11.3738   20.6611 O   0  0  0  0  0  0  0  0  0  0  0  0
  -25.0851  -28.2041   18.5477 O   0  0  0  0  0  0  0  0  0  1  0  0
  -23.7733   -5.9611   21.3470 F   0  0  0  0  0  0  0  0  0  0  0  0
  -21.8986  -10.0454   22.8332 F   0  0  0  0  0  0  0  0  0  0  0  0
  -27.6484  -19.2374   15.4744 F   0  0  0  0  0  0  0  0  0  0  0  0
  1  2  1  0  0  0  0
  1  5  2  0  0  0  0
  2  6  2  0  0  0  0
  3  8  2  0  0  0  0
  3 17  1  0  0  0  0
  4  9  1  0  0  0  0
  4 17  2  0  0  0  0
  5 19  1  0  0  0  0
  6 21  1  0  0  0  0
  7 10  2  0  0  0  0
  7 20  1  0  0  0  0
  8 26  1  0  0  0  0
  9 26  2  0  0  0  0
 10 27  1  0  0  0  0
 11 12  2  0  0  0  0
 11 28  1  0  0  0  0
 12 29  1  0  0  0  0
 13 22  1  0  0  0  0
 13 27  2  0  0  0  0
 14 23  1  0  0  0  0
 14 24  2  0  0  0  0
 15 23  2  0  0  0  0
 15 25  1  0  0  0  0
 16 29  2  0  0  0  0
 16 30  1  0  0  0  0
 17 32  1  0  0  0  0
 18 32  1  0  0  0  0
 18 33  2  0  0  0  0
 18 36  1  0  0  0  0
 19 21  2  0  0  0  0
 19 42  1  0  0  0  0
 20 22  2  0  0  0  0
 20 43  1  0  0  0  0
 21 54  1  0  0  0  0
 22 44  1  0  0  0  0
 23 68  1  0  0  0  0
 24 31  1  0  0  0  0
 24 71  1  0  0  0  0
 25 31  2  0  0  0  0
 25 74  1  0  0  0  0
 26 84  1  0  0  0  0
 27 85  1  0  0  0  0
 28 30  2  0  0  0  0
 28 84  1  0  0  0  0
 29 86  1  0  0  0  0
 30 87  1  0  0  0  0
 31 88  1  0  0  0  0
 32 66  2  0  0  0  0
 33 67  1  0  0  0  0
 33 72  1  0  0  0  0
 34 35  1  0  0  0  0
 34 37  2  0  0  0  0
 34 45  1  0  0  0  0
 35 46  1  0  0  0  0
 35 78  2  0  0  0  0
 36 73  1  0  0  0  0
 36 79  2  0  0  0  0
 37 57  1  0  0  0  0
 37 85  1  0  0  0  0
 38 55  1  0  0  0  0
 38 75  1  0  0  0  0
 38 80  2  0  0  0  0
 39 63  1  0  0  0  0
 39 69  1  0  0  0  0
 39 81  2  0  0  0  0
 40 64  1  0  0  0  0
 40 76  1  0  0  0  0
 40 82  2  0  0  0  0
 41 70  1  0  0  0  0
 41 74  1  0  0  0  0
 41 83  2  0  0  0  0
 42 47  1  0  0  0  0
 43 55  1  0  0  0  0
 44 69  1  0  0  0  0
 45 68  1  0  0  0  0
 46 51  1  0  0  0  0
 47 49  1  0  0  0  0
 48 50  1  0  0  0  0
 48 52  1  0  0  0  0
 49 54  1  0  0  0  0
 50 56  1  0  0  0  0
 51 68  1  0  0  0  0
 52 70  1  0  0  0  0
 53 56  1  0  0  0  0
 53 70  1  0  0  0  0
 54 75  1  0  0  0  0
 55 69  1  0  0  0  0
 56 67  1  0  0  0  0
 58 64  1  0  0  0  0
 59 65  1  0  0  0  0
 60 65  1  0  0  0  0
 61 65  1  0  0  0  0
 62 77  1  0  0  0  0
 63 65  1  0  0  0  0
 63 76  1  0  0  0  0
 64 77  1  0  0  0  0
 66 67  1  0  0  0  0
M  CHG  1  77   1
M  ISO  4  37 101  41 100  74 100  85 101
M  END
> <Batch ID>
0070

> <Smiles>
CNC(C)C(=O)NC(C(=O)N1Cc2cc([101O:1][101C:1](C)=C3CN(c4cc(N)c(F)c([100NH:0][100C:0](=O)N5CCCC(n6nc(-c7ccc(Oc8ccc(F)cc8F)cc7)c(C(N)=O)c6N)C5)c4)CCC3=O)ccc2CC1C(=O)NC1CCCc2ccccc21)C(C)(C)C

> <Shape>
0.276

> <Color>
0.089

> <Negative vol penalty>
0.000

$$$$

  -OEChem-04042323323D

 88 96  0     1  0  0  0  0  0999 V2000
  -16.8200  -29.9185   24.2733 C   0  0  0  0  0  0  0  0  0  0  0  0
  -18.0164  -30.2579   24.8967 C   0  0  0  0  0  0  0  0  0  0  0  0
  -25.2186  -13.7527   20.3619 C   0  0  0  0  0  0  0  0  0  0  0  0
  -23.3379  -15.0095   21.2107 C   0  0  0  0  0  0  0  0  0  0  0  0
  -16.8216  -29.0226   23.2049 C   0  0  0  0  0  0  0  0  0  0  0  0
  -19.2152  -29.7009   24.4528 C   0  0  0  0  0  0  0  0  0  0  0  0
  -26.1729  -31.2558   23.7537 C   0  0  0  0  0  0  0  0  0  0  0  0
  -24.7940  -12.6336   21.0780 C   0  0  0  0  0  0  0  0  0  0  0  0
  -22.9132  -13.8903   21.9268 C   0  0  0  0  0  0  0  0  0  0  0  0
  -27.4286  -30.7461   24.0808 C   0  0  0  0  0  0  0  0  0  0  0  0
  -22.4560  -10.2118   20.7588 C   0  0  0  0  0  0  0  0  0  0  0  0
  -22.4571   -8.9821   20.1004 C   0  0  0  0  0  0  0  0  0  0  0  0
  -24.1943  -24.4922   24.9241 C   0  0  0  0  0  0  0  0  0  0  0  0
  -26.1737  -23.6689   23.8103 C   0  0  0  0  0  0  0  0  0  0  0  0
  -27.3195  -29.2708   22.1754 C   0  0  0  0  0  0  0  0  0  0  0  0
  -23.9914  -22.8869   23.1300 C   0  0  0  0  0  0  0  0  0  0  0  0
  -24.0045   -8.1073   21.7367 C   0  0  0  0  0  0  0  0  0  0  0  0
  -24.4906  -14.9407   20.4283 C   0  0  0  0  0  0  0  0  0  0  0  0
  -25.5816  -24.4784   24.7797 C   0  0  0  0  0  0  0  0  0  0  0  0
  -24.5720  -16.4514   18.3743 C   0  0  0  0  0  0  0  0  0  0  0  0
  -18.0221  -28.4617   22.7415 C   0  0  0  0  0  0  0  0  0  0  0  0
  -25.4751  -30.7683   22.6393 C   0  0  0  0  0  0  0  0  0  0  0  0
  -19.2327  -28.7956   23.3781 C   0  0  0  0  0  0  0  0  0  0  0  0
  -26.0562  -29.7778   21.8347 C   0  0  0  0  0  0  0  0  0  0  0  0
  -23.3992  -23.6965   24.0994 C   0  0  0  0  0  0  0  0  0  0  0  0
  -25.3786  -22.8731   22.9855 C   0  0  0  0  0  0  0  0  0  0  0  0
  -23.6413  -12.7024   21.8604 C   0  0  0  0  0  0  0  0  0  0  0  0
  -28.0008  -29.7513   23.2934 C   0  0  0  0  0  0  0  0  0  0  0  0
  -23.2292  -10.3893   21.9061 C   0  0  0  0  0  0  0  0  0  0  0  0
  -23.2313   -7.9299   20.5893 C   0  0  0  0  0  0  0  0  0  0  0  0
  -24.0034   -9.3370   22.3951 C   0  0  0  0  0  0  0  0  0  0  0  0
  -24.9290  -16.0973   19.6892 C   0  0  0  0  0  0  0  0  0  0  0  0
  -25.2480  -17.6236   18.1389 C   0  0  0  0  0  0  0  0  0  0  0  0
  -21.5135  -22.8468   25.0734 C   0  0  0  0  0  0  0  0  0  0  0  0
  -26.4277  -25.3257   25.6581 C   0  0  0  0  0  0  0  0  0  0  0  0
  -23.7067  -15.7808   17.4485 C   0  0  0  0  0  0  0  0  0  0  0  0
  -22.7044  -29.2718   22.2061 C   0  0  0  0  0  0  0  0  0  0  0  0
  -23.4163  -29.6866   19.0687 C   0  0  0  0  0  0  0  0  0  0  0  0
  -28.6051  -26.4848   25.7966 C   0  0  0  0  0  0  0  0  0  0  0  0
  -25.8038  -30.1742   16.6794 C   0  0  0  0  0  0  0  0  0  0  0  0
  -27.3411  -21.9200   21.7258 C   0  0  0  0  0  0  0  0  0  0  0  0
  -17.9684  -27.4616   21.6138 C   0  0  0  0  0  0  0  0  0  0  0  0
  -24.1331  -31.3476   22.2844 C   0  0  0  0  0  0  0  0  0  0  0  0
  -25.3571  -29.2349   20.6161 C   0  0  0  0  0  0  0  0  0  0  0  0
  -19.3250  -27.2042   20.9629 C   0  0  0  0  0  0  0  0  0  0  0  0
  -29.2213  -19.9754   19.4105 C   0  0  0  0  0  0  0  0  0  0  0  0
  -20.3955  -26.9873   22.0277 C   0  0  0  0  0  0  0  0  0  0  0  0
  -28.2990  -18.7956   19.0949 C   0  0  0  0  0  0  0  0  0  0  0  0
  -29.1149  -20.4029   20.8732 C   0  0  0  0  0  0  0  0  0  0  0  0
  -26.8285  -19.4985   21.0264 C   0  0  0  0  0  0  0  0  0  0  0  0
  -20.5565  -28.2315   22.9095 C   0  0  1  0  0  0  0  0  0  0  0  0
  -23.2881  -30.4138   21.4233 C   0  0  1  0  0  0  0  0  0  0  0  0
  -26.8526  -19.0738   19.5490 C   0  0  2  0  0  0  0  0  0  0  0  0
  -20.0386  -22.7678   25.3122 C   0  0  0  0  0  0  0  0  0  0  0  0
  -26.0844  -30.4362   14.1995 C   0  0  0  0  0  0  0  0  0  0  0  0
  -23.0066  -26.6846   18.7078 C   0  0  0  0  0  0  0  0  0  0  0  0
  -24.1980  -26.8566   16.5125 C   0  0  0  0  0  0  0  0  0  0  0  0
  -22.0623  -28.0947   16.8708 C   0  0  0  0  0  0  0  0  0  0  0  0
  -26.9516  -32.8857   16.9787 C   0  0  0  0  0  0  0  0  0  0  0  0
  -29.8283  -26.7349   24.9314 C   0  0  0  0  0  0  0  0  0  0  0  0
  -30.5081  -28.0612   25.2525 C   0  0  0  0  0  0  0  0  0  0  0  0
  -29.5864  -29.2435   24.9916 C   0  0  0  0  0  0  0  0  0  1  0  0
  -24.1649  -28.8896   18.0279 C   0  0  1  0  0  0  0  0  0  0  0  0
  -25.8875  -31.1560   15.5246 C   0  0  2  0  0  0  0  0  0  0  0  0
  -23.3705  -27.6400   17.5537 C   0  0  0  0  0  0  0  0  0  0  0  0
  -25.7669  -16.9735   20.2498 N   0  0  0  0  0  0  0  0  0  0  0  0
  -22.0081  -23.7107   24.2441 N   0  0  0  0  0  0  0  0  0  0  0  0
  -25.9421  -17.8898   19.2824 N   0  0  0  0  0  0  0  0  0  0  0  0
  -24.0443  -29.8289   20.3142 N   0  0  0  0  0  0  0  0  0  0  0  0
  -27.7170  -20.6533   21.2307 N   0  0  0  0  0  0  0  0  0  0  0  0
  -25.3106  -18.4423   17.0674 N   0  0  0  0  0  0  0  0  0  0  0  0
  -23.0924  -14.5875   17.8523 N   0  0  0  0  0  0  0  0  0  0  0  0
  -25.9802  -22.0510   22.0006 N   0  0  0  0  0  0  0  0  0  0  0  0
  -27.6540  -25.7151   25.1221 N   0  0  0  0  0  0  0  0  0  0  0  0
  -21.3229  -29.2456   22.2177 N   0  0  0  0  0  0  0  0  0  0  0  0
  -24.4996  -29.8256   16.9599 N   0  0  0  0  0  0  0  0  0  0  0  0
  -27.0281  -32.0942   15.7238 N   0  3  0  0  0  0  0  0  0  0  0  0
  -26.0267  -25.6063   26.7844 O   0  0  0  0  0  0  0  0  0  0  0  0
  -23.4976  -16.2180   16.2915 O   0  0  0  0  0  0  0  0  0  0  0  0
  -23.4522  -28.4728   22.7576 O   0  0  0  0  0  0  0  0  0  0  0  0
  -22.3181  -30.1713   18.7847 O   0  0  0  0  0  0  0  0  0  0  0  0
  -28.4900  -26.9172   26.9400 O   0  0  0  0  0  0  0  0  0  0  0  0
  -26.7965  -29.7555   17.2710 O   0  0  0  0  0  0  0  0  0  0  0  0
  -28.1611  -22.8307   21.8678 O   0  0  0  0  0  0  0  0  0  0  0  0
  -23.2265  -11.6104   22.5591 O   0  0  0  0  0  0  0  0  0  0  0  0
  -29.2261  -29.2516   23.6108 O   0  0  0  0  0  0  0  0  0  1  0  0
  -23.2310   -6.7486   19.9578 F   0  0  0  0  0  0  0  0  0  0  0  0
  -24.7473   -9.5012   23.4976 F   0  0  0  0  0  0  0  0  0  0  0  0
  1  2  1  0  0  0  0
  1  5  2  0  0  0  0
  2  6  2  0  0  0  0
  3  8  2  0  0  0  0
  3 18  1  0  0  0  0
  4  9  1  0  0  0  0
  4 18  2  0  0  0  0
  5 21  1  0  0  0  0
  6 23  1  0  0  0  0
  7 10  2  0  0  0  0
  7 22  1  0  0  0  0
  8 27  1  0  0  0  0
  9 27  2  0  0  0  0
 10 28  1  0  0  0  0
 11 12  2  0  0  0  0
 11 29  1  0  0  0  0
 12 30  1  0  0  0  0
 13 19  1  0  0  0  0
 13 25  2  0  0  0  0
 14 19  2  0  0  0  0
 14 26  1  0  0  0  0
 15 24  1  0  0  0  0
 15 28  2  0  0  0  0
 16 25  1  0  0  0  0
 16 26  2  0  0  0  0
 17 30  2  0  0  0  0
 17 31  1  0  0  0  0
 18 32  1  0  0  0  0
 19 35  1  0  0  0  0
 20 32  1  0  0  0  0
 20 33  2  0  0  0  0
 20 36  1  0  0  0  0
 21 23  2  0  0  0  0
 21 42  1  0  0  0  0
 22 24  2  0  0  0  0
 22 43  1  0  0  0  0
 23 51  1  0  0  0  0
 24 44  1  0  0  0  0
 25 67  1  0  0  0  0
 26 73  1  0  0  0  0
 27 85  1  0  0  0  0
 28 86  1  0  0  0  0
 29 31  2  0  0  0  0
 29 85  1  0  0  0  0
 30 87  1  0  0  0  0
 31 88  1  0  0  0  0
 32 66  2  0  0  0  0
 33 68  1  0  0  0  0
 33 71  1  0  0  0  0
 34 54  1  0  0  0  0
 34 67  2  0  0  0  0
 35 74  1  0  0  0  0
 35 78  2  0  0  0  0
 36 72  1  0  0  0  0
 36 79  2  0  0  0  0
 37 52  1  0  0  0  0
 37 75  1  0  0  0  0
 37 80  2  0  0  0  0
 38 63  1  0  0  0  0
 38 69  1  0  0  0  0
 38 81  2  0  0  0  0
 39 60  1  0  0  0  0
 39 74  1  0  0  0  0
 39 82  2  0  0  0  0
 40 64  1  0  0  0  0
 40 76  1  0  0  0  0
 40 83  2  0  0  0  0
 41 70  1  0  0  0  0
 41 73  1  0  0  0  0
 41 84  2  0  0  0  0
 42 45  1  0  0  0  0
 43 52  1  0  0  0  0
 44 69  1  0  0  0  0
 45 47  1  0  0  0  0
 46 48  1  0  0  0  0
 46 49  1  0  0  0  0
 47 51  1  0  0  0  0
 48 53  1  0  0  0  0
 49 70  1  0  0  0  0
 50 53  1  0  0  0  0
 50 70  1  0  0  0  0
 51 75  1  0  0  0  0
 52 69  1  0  0  0  0
 53 68  1  0  0  0  0
 55 64  1  0  0  0  0
 56 65  1  0  0  0  0
 57 65  1  0  0  0  0
 58 65  1  0  0  0  0
 59 77  1  0  0  0  0
 60 61  1  0  0  0  0
 61 62  1  0  0  0  0
 62 86  1  0  0  0  0
 63 65  1  0  0  0  0
 63 76  1  0  0  0  0
 64 77  1  0  0  0  0
 66 68  1  0  0  0  0
M  CHG  1  77   1
M  ISO  4  41 100  62 101  73 100  86 101
M  END
> <Batch ID>
0070

> <Smiles>
C=CNc1cc([100NH:0][100C:0](=O)N2CCCC(n3nc(-c4ccc(Oc5ccc(F)cc5F)cc4)c(C(N)=O)c3N)C2)cc(C(=O)NC(=O)CC[101CH2:1][101O:1]c2ccc3c(c2)CN(C(=O)C(NC(=O)C(C)NC)C(C)(C)C)C(C(=O)NC2CCCc4ccccc42)C3)c1

> <Shape>
0.243

> <Color>
0.098

> <Negative vol penalty>
0.000

$$$$

  -OEChem-04042323323D

 85 94  0     1  0  0  0  0  0999 V2000
  -31.6476  -34.8580   15.6330 C   0  0  0  0  0  0  0  0  0  0  0  0
  -31.4080  -33.4896   15.7057 C   0  0  0  0  0  0  0  0  0  0  0  0
  -24.9625   -8.3417   21.5842 C   0  0  0  0  0  0  0  0  0  0  0  0
  -23.6067   -9.5295   19.9755 C   0  0  0  0  0  0  0  0  0  0  0  0
  -31.5089  -35.6504   16.7718 C   0  0  0  0  0  0  0  0  0  0  0  0
  -31.0304  -32.9124   16.9177 C   0  0  0  0  0  0  0  0  0  0  0  0
  -27.1947  -28.2056   17.7172 C   0  0  0  0  0  0  0  0  0  0  0  0
  -23.8084   -7.9035   22.2334 C   0  0  0  0  0  0  0  0  0  0  0  0
  -22.4525   -9.0912   20.6247 C   0  0  0  0  0  0  0  0  0  0  0  0
  -27.4112  -26.8444   17.9269 C   0  0  0  0  0  0  0  0  0  0  0  0
  -21.2122   -6.1760   24.1017 C   0  0  0  0  0  0  0  0  0  0  0  0
  -21.1491   -4.8342   24.4771 C   0  0  0  0  0  0  0  0  0  0  0  0
  -27.2017  -27.1836   20.3060 C   0  0  0  0  0  0  0  0  0  0  0  0
  -25.5361  -19.1392   17.0777 C   0  0  0  0  0  0  0  0  0  0  0  0
  -25.8746  -16.7486   16.9914 C   0  0  0  0  0  0  0  0  0  0  0  0
  -27.2851  -18.1184   18.3954 C   0  0  0  0  0  0  0  0  0  0  0  0
  -21.3895   -4.1759   22.1650 C   0  0  0  0  0  0  0  0  0  0  0  0
  -24.8617   -9.1548   20.4552 C   0  0  0  0  0  0  0  0  0  0  0  0
  -26.7352   -8.9646   18.7344 C   0  0  0  0  0  0  0  0  0  0  0  0
  -31.1201  -35.0842   17.9961 C   0  0  0  0  0  0  0  0  0  0  0  0
  -26.9906  -29.0694   18.8029 C   0  0  0  0  0  0  0  0  0  0  0  0
  -30.8877  -33.6977   18.0742 C   0  0  0  0  0  0  0  0  0  0  0  0
  -26.9803  -28.5550   20.1073 C   0  0  0  0  0  0  0  0  0  0  0  0
  -25.1788  -17.8857   16.5809 C   0  0  0  0  0  0  0  0  0  0  0  0
  -26.5893  -19.2555   17.9849 C   0  0  0  0  0  0  0  0  0  0  0  0
  -26.9278  -16.8650   17.8986 C   0  0  0  0  0  0  0  0  0  0  0  0
  -22.5534   -8.2782   21.7537 C   0  0  0  0  0  0  0  0  0  0  0  0
  -27.4176  -26.3337   19.2216 C   0  0  0  0  0  0  0  0  0  0  0  0
  -21.3638   -6.5179   22.7578 C   0  0  0  0  0  0  0  0  0  0  0  0
  -21.2378   -3.8341   23.5088 C   0  0  0  0  0  0  0  0  0  0  0  0
  -21.4524   -5.5178   21.7895 C   0  0  0  0  0  0  0  0  0  0  0  0
  -26.0536   -9.6083   19.7845 C   0  0  0  0  0  0  0  0  0  0  0  0
  -27.7936   -9.7935   18.4530 C   0  0  0  0  0  0  0  0  0  0  0  0
  -27.9704  -20.8311   19.3959 C   0  0  0  0  0  0  0  0  0  0  0  0
  -26.4382   -7.7280   18.0724 C   0  0  0  0  0  0  0  0  0  0  0  0
  -28.5222  -31.5938   19.9798 C   0  0  0  0  0  0  0  0  0  0  0  0
  -25.9537  -31.7424   21.9553 C   0  0  0  0  0  0  0  0  0  0  0  0
  -23.3583  -30.1158   23.4604 C   0  0  0  0  0  0  0  0  0  0  0  0
  -28.7047  -15.6505   19.2078 C   0  0  0  0  0  0  0  0  0  0  0  0
  -31.0292  -35.9735   19.2108 C   0  0  0  0  0  0  0  0  0  0  0  0
  -26.7319  -30.5308   18.5583 C   0  0  0  0  0  0  0  0  0  0  0  0
  -26.7458  -29.4368   21.3056 C   0  0  0  0  0  0  0  0  0  0  0  0
  -30.2617  -35.3439   20.3705 C   0  0  0  0  0  0  0  0  0  0  0  0
  -30.6901  -13.0006   20.5168 C   0  0  0  0  0  0  0  0  0  0  0  0
  -30.7230  -33.9080   20.5990 C   0  0  0  0  0  0  0  0  0  0  0  0
  -29.7907  -11.7703   20.3764 C   0  0  0  0  0  0  0  0  0  0  0  0
  -29.8898  -14.2493   20.8832 C   0  0  0  0  0  0  0  0  0  0  0  0
  -27.8558  -13.3111   19.8576 C   0  0  0  0  0  0  0  0  0  0  0  0
  -26.3475  -21.7554   18.0302 C   0  0  0  0  0  0  0  0  0  0  0  0
  -30.4523  -33.0387   19.3651 C   0  0  1  0  0  0  0  0  0  0  0  0
  -27.0467  -31.4041   19.7689 C   0  0  1  0  0  0  0  0  0  0  0  0
  -28.6085  -12.0421   19.4256 C   0  0  2  0  0  0  0  0  0  0  0  0
  -26.8309  -22.7801   19.0319 C   0  0  2  0  0  0  0  0  0  0  0  0
  -24.0534  -17.7619   15.6098 C   0  0  0  0  0  0  0  0  0  0  0  0
  -21.4533  -30.4930   25.0497 C   0  0  0  0  0  0  0  0  0  0  0  0
  -27.9116  -31.7546   24.2955 C   0  0  0  0  0  0  0  0  0  0  0  0
  -26.0010  -31.1765   25.8066 C   0  0  0  0  0  0  0  0  0  0  0  0
  -25.9820  -33.3264   24.5415 C   0  0  0  0  0  0  0  0  0  0  0  0
  -21.3528  -29.3668   21.4168 C   0  0  0  0  0  0  0  0  0  0  0  0
  -27.1982  -24.1112   18.4040 C   0  0  0  0  0  0  0  0  0  1  0  0
  -25.6052  -31.1554   23.3018 C   0  0  1  0  0  0  0  0  0  0  0  0
  -21.8882  -30.4705   23.5926 C   0  0  2  0  0  0  0  0  0  0  0  0
  -26.3813  -31.8367   24.4641 C   0  0  0  0  0  0  0  0  0  0  0  0
  -26.6306  -10.7574   20.1459 N   0  0  0  0  0  0  0  0  0  0  0  0
  -27.6860  -10.8422   19.3183 N   0  0  0  0  0  0  0  0  0  0  0  0
  -26.9539  -20.5360   18.4918 N   0  0  0  0  0  0  0  0  0  0  0  0
  -26.5038  -30.8596   21.0151 N   0  0  0  0  0  0  0  0  0  0  0  0
  -28.7896  -14.4455   19.9367 N   0  0  0  0  0  0  0  0  0  0  0  0
  -28.7966   -9.7202   17.5525 N   0  0  0  0  0  0  0  0  0  0  0  0
  -25.3128   -7.0022   18.4861 N   0  0  0  0  0  0  0  0  0  0  0  0
  -27.6355  -15.7100   18.3146 N   0  0  0  0  0  0  0  0  0  0  0  0
  -29.0533  -32.6738   19.3009 N   0  0  0  0  0  0  0  0  0  0  0  0
  -24.1537  -31.2414   23.4213 N   0  0  0  0  0  0  0  0  0  0  0  0
  -21.0482  -29.4763   22.8667 N   0  3  0  0  0  0  0  0  0  0  0  0
  -28.7754  -20.0820   19.9311 O   0  0  0  0  0  0  0  0  0  0  0  0
  -27.1589   -7.2718   17.1526 O   0  0  0  0  0  0  0  0  0  0  0  0
  -29.1334  -30.8186   20.7060 O   0  0  0  0  0  0  0  0  0  0  0  0
  -25.7389  -32.9384   21.7431 O   0  0  0  0  0  0  0  0  0  0  0  0
  -23.7611  -28.9561   23.4016 O   0  0  0  0  0  0  0  0  0  0  0  0
  -29.5362  -16.5516   19.3446 O   0  0  0  0  0  0  0  0  0  0  0  0
  -27.9957  -22.1880   19.6231 O   0  0  0  0  0  0  0  0  0  0  0  0
  -21.4270   -7.8506   22.3868 O   0  0  0  0  0  0  0  0  0  0  0  0
  -27.6293  -25.0055   19.4291 O   0  0  0  0  0  0  0  0  0  1  0  0
  -21.1788   -2.5455   23.8697 F   0  0  0  0  0  0  0  0  0  0  0  0
  -21.5994   -5.8401   20.4971 F   0  0  0  0  0  0  0  0  0  0  0  0
  1  2  1  0  0  0  0
  1  5  2  0  0  0  0
  2  6  2  0  0  0  0
  3  8  2  0  0  0  0
  3 18  1  0  0  0  0
  4  9  1  0  0  0  0
  4 18  2  0  0  0  0
  5 20  1  0  0  0  0
  6 22  1  0  0  0  0
  7 10  2  0  0  0  0
  7 21  1  0  0  0  0
  8 27  1  0  0  0  0
  9 27  2  0  0  0  0
 10 28  1  0  0  0  0
 11 12  2  0  0  0  0
 11 29  1  0  0  0  0
 12 30  1  0  0  0  0
 13 23  1  0  0  0  0
 13 28  2  0  0  0  0
 14 24  2  0  0  0  0
 14 25  1  0  0  0  0
 15 24  1  0  0  0  0
 15 26  2  0  0  0  0
 16 25  2  0  0  0  0
 16 26  1  0  0  0  0
 17 30  2  0  0  0  0
 17 31  1  0  0  0  0
 18 32  1  0  0  0  0
 19 32  1  0  0  0  0
 19 33  2  0  0  0  0
 19 35  1  0  0  0  0
 20 22  2  0  0  0  0
 20 40  1  0  0  0  0
 21 23  2  0  0  0  0
 21 41  1  0  0  0  0
 22 50  1  0  0  0  0
 23 42  1  0  0  0  0
 24 54  1  0  0  0  0
 25 66  1  0  0  0  0
 26 71  1  0  0  0  0
 27 82  1  0  0  0  0
 28 83  1  0  0  0  0
 29 31  2  0  0  0  0
 29 82  1  0  0  0  0
 30 84  1  0  0  0  0
 31 85  1  0  0  0  0
 32 64  2  0  0  0  0
 33 65  1  0  0  0  0
 33 69  1  0  0  0  0
 34 66  1  0  0  0  0
 34 75  2  0  0  0  0
 34 81  1  0  0  0  0
 35 70  1  0  0  0  0
 35 76  2  0  0  0  0
 36 51  1  0  0  0  0
 36 72  1  0  0  0  0
 36 77  2  0  0  0  0
 37 61  1  0  0  0  0
 37 67  1  0  0  0  0
 37 78  2  0  0  0  0
 38 62  1  0  0  0  0
 38 73  1  0  0  0  0
 38 79  2  0  0  0  0
 39 68  1  0  0  0  0
 39 71  1  0  0  0  0
 39 80  2  0  0  0  0
 40 43  1  0  0  0  0
 41 51  1  0  0  0  0
 42 67  1  0  0  0  0
 43 45  1  0  0  0  0
 44 46  1  0  0  0  0
 44 47  1  0  0  0  0
 45 50  1  0  0  0  0
 46 52  1  0  0  0  0
 47 68  1  0  0  0  0
 48 52  1  0  0  0  0
 48 68  1  0  0  0  0
 49 53  1  0  0  0  0
 49 66  1  0  0  0  0
 50 72  1  0  0  0  0
 51 67  1  0  0  0  0
 52 65  1  0  0  0  0
 53 60  1  0  0  0  0
 53 81  1  0  0  0  0
 55 62  1  0  0  0  0
 56 63  1  0  0  0  0
 57 63  1  0  0  0  0
 58 63  1  0  0  0  0
 59 74  1  0  0  0  0
 60 83  1  0  0  0  0
 61 63  1  0  0  0  0
 61 73  1  0  0  0  0
 62 74  1  0  0  0  0
 64 65  1  0  0  0  0
M  CHG  1  74   1
M  ISO  4  39 100  60 101  71 100  83 101
M  END
> <Batch ID>
0070

> <Smiles>
CNC(C)C(=O)NC(C(=O)N1Cc2cc([101O:1][101CH2:1]C3CN(c4cc(C)cc([100NH:0][100C:0](=O)N5CCCC(n6nc(-c7ccc(Oc8ccc(F)cc8F)cc7)c(C(N)=O)c6N)C5)c4)C(=O)O3)ccc2CC1C(=O)NC1CCCc2ccccc21)C(C)(C)C

> <Shape>
0.242

> <Color>
0.101

> <Negative vol penalty>
0.000

$$$$

  -OEChem-04042323323D

 87 95  0     1  0  0  0  0  0999 V2000
  -20.0622  -24.4150   23.1041 C   0  0  0  0  0  0  0  0  0  0  0  0
  -21.2825  -24.8252   22.5769 C   0  0  0  0  0  0  0  0  0  0  0  0
  -24.3939  -14.0962   21.7970 C   0  0  0  0  0  0  0  0  0  0  0  0
  -26.1018  -14.2119   20.0921 C   0  0  0  0  0  0  0  0  0  0  0  0
  -18.9918  -25.3069   23.1570 C   0  0  0  0  0  0  0  0  0  0  0  0
  -21.4329  -26.1274   22.1014 C   0  0  0  0  0  0  0  0  0  0  0  0
  -25.7622  -28.2654   23.6280 C   0  0  0  0  0  0  0  0  0  0  0  0
  -23.9219  -12.9060   21.2434 C   0  0  0  0  0  0  0  0  0  0  0  0
  -25.6299  -13.0217   19.5386 C   0  0  0  0  0  0  0  0  0  0  0  0
  -26.9269  -27.8939   22.9577 C   0  0  0  0  0  0  0  0  0  0  0  0
  -22.4939   -9.6483   20.4932 C   0  0  0  0  0  0  0  0  0  0  0  0
  -22.1980   -8.6002   21.3647 C   0  0  0  0  0  0  0  0  0  0  0  0
  -26.8164  -29.9208   21.6545 C   0  0  0  0  0  0  0  0  0  0  0  0
  -30.4263  -23.4606   17.3497 C   0  0  0  0  0  0  0  0  0  0  0  0
  -28.3361  -23.5748   18.5560 C   0  0  0  0  0  0  0  0  0  0  0  0
  -24.4902   -8.5881   22.1283 C   0  0  0  0  0  0  0  0  0  0  0  0
  -25.4838  -14.7492   21.2213 C   0  0  0  0  0  0  0  0  0  0  0  0
  -26.9560  -16.1221   22.7882 C   0  0  0  0  0  0  0  0  0  0  0  0
  -19.1320  -26.6235   22.6907 C   0  0  0  0  0  0  0  0  0  0  0  0
  -25.1087  -29.4643   23.3085 C   0  0  0  0  0  0  0  0  0  0  0  0
  -20.3630  -27.0373   22.1468 C   0  0  0  0  0  0  0  0  0  0  0  0
  -25.6450  -30.3066   22.3240 C   0  0  0  0  0  0  0  0  0  0  0  0
  -30.1880  -22.1163   17.0641 C   0  0  0  0  0  0  0  0  0  0  0  0
  -29.5003  -24.1899   18.0958 C   0  0  0  0  0  0  0  0  0  0  0  0
  -28.0978  -22.2304   18.2704 C   0  0  0  0  0  0  0  0  0  0  0  0
  -24.5400  -12.3688   20.1142 C   0  0  0  0  0  0  0  0  0  0  0  0
  -27.4525  -28.7202   21.9688 C   0  0  0  0  0  0  0  0  0  0  0  0
  -23.7879  -10.1663   20.4392 C   0  0  0  0  0  0  0  0  0  0  0  0
  -23.1962   -8.0701   22.1823 C   0  0  0  0  0  0  0  0  0  0  0  0
  -24.7861   -9.6362   21.2567 C   0  0  0  0  0  0  0  0  0  0  0  0
  -29.0238  -21.5012   17.5244 C   0  0  0  0  0  0  0  0  0  0  0  0
  -25.9714  -15.9789   21.7923 C   0  0  0  0  0  0  0  0  0  0  0  0
  -27.0562  -17.4785   22.9795 C   0  0  0  0  0  0  0  0  0  0  0  0
  -27.7125  -15.1187   23.4786 C   0  0  0  0  0  0  0  0  0  0  0  0
  -22.2396  -30.2202   22.1681 C   0  0  0  0  0  0  0  0  0  0  0  0
  -23.2410  -33.2520   22.7406 C   0  0  0  0  0  0  0  0  0  0  0  0
  -28.9323  -26.4242   19.1102 C   0  0  0  0  0  0  0  0  0  0  0  0
  -25.8509  -35.4142   23.1409 C   0  0  0  0  0  0  0  0  0  0  0  0
  -25.8951  -22.1896   19.4921 C   0  0  0  0  0  0  0  0  0  0  0  0
  -17.9327  -27.5374   22.7252 C   0  0  0  0  0  0  0  0  0  0  0  0
  -23.8681  -29.8637   24.0593 C   0  0  0  0  0  0  0  0  0  0  0  0
  -24.9928  -31.6138   21.9577 C   0  0  0  0  0  0  0  0  0  0  0  0
  -18.2850  -29.0117   22.5448 C   0  0  0  0  0  0  0  0  0  0  0  0
  -24.4766  -21.5025   22.6847 C   0  0  0  0  0  0  0  0  0  0  0  0
  -19.2558  -29.1902   21.3819 C   0  0  0  0  0  0  0  0  0  0  0  0
  -24.7938  -20.0226   22.9115 C   0  0  0  0  0  0  0  0  0  0  0  0
  -24.1538  -21.7954   21.2206 C   0  0  0  0  0  0  0  0  0  0  0  0
  -25.4794  -19.8536   20.4849 C   0  0  0  0  0  0  0  0  0  0  0  0
  -20.5726  -28.4491   21.6438 C   0  0  1  0  0  0  0  0  0  0  0  0
  -23.0014  -30.8593   23.2946 C   0  0  1  0  0  0  0  0  0  0  0  0
  -25.8743  -19.5216   21.9332 C   0  0  2  0  0  0  0  0  0  0  0  0
  -26.3558  -37.8365   23.5596 C   0  0  0  0  0  0  0  0  0  0  0  0
  -22.5476  -33.8955   19.8397 C   0  0  0  0  0  0  0  0  0  0  0  0
  -23.9230  -35.9773   20.0458 C   0  0  0  0  0  0  0  0  0  0  0  0
  -21.9078  -35.6686   21.4832 C   0  0  0  0  0  0  0  0  0  0  0  0
  -27.2502  -34.8041   25.6763 C   0  0  0  0  0  0  0  0  0  0  0  0
  -29.5686  -27.8075   19.1847 C   0  0  0  0  0  0  0  0  0  0  0  0
  -28.7315  -28.8091   19.9658 C   0  0  0  0  0  0  0  0  0  1  0  0
  -23.9827  -34.3007   21.9474 C   0  0  1  0  0  0  0  0  0  0  0  0
  -26.1300  -36.4724   24.1929 C   0  0  2  0  0  0  0  0  0  0  0  0
  -31.1802  -21.3400   16.2652 C   0  0  0  0  0  0  0  0  0  0  0  0
  -23.1017  -34.9350   20.8343 C   0  0  0  0  0  0  0  0  0  0  0  0
  -25.4810  -17.1508   21.3799 N   0  0  0  0  0  0  0  0  0  0  0  0
  -26.1602  -18.0433   22.1203 N   0  0  0  0  0  0  0  0  0  0  0  0
  -23.7784  -31.9573   22.7158 N   0  0  0  0  0  0  0  0  0  0  0  0
  -25.2231  -21.2964   20.3532 N   0  0  0  0  0  0  0  0  0  0  0  0
  -27.8224  -18.2312   23.7972 N   0  0  0  0  0  0  0  0  0  0  0  0
  -27.4846  -13.7730   23.1601 N   0  0  0  0  0  0  0  0  0  0  0  0
  -30.9019  -21.4124   14.8295 N   0  0  0  0  0  0  0  0  0  0  0  0
  -29.7420  -25.5539   18.3853 N   0  0  0  0  0  0  0  0  0  0  0  0
  -26.9145  -21.6077   18.7393 N   0  0  0  0  0  0  0  0  0  0  0  0
  -21.3992  -29.1980   22.5659 N   0  0  0  0  0  0  0  0  0  0  0  0
  -24.4989  -35.2584   22.9194 N   0  0  0  0  0  0  0  0  0  0  0  0
  -27.3434  -36.1130   24.9799 N   0  3  0  0  0  0  0  0  0  0  0  0
  -28.5535  -15.4061   24.3639 O   0  0  0  0  0  0  0  0  0  0  0  0
  -22.4012  -30.6256   21.0230 O   0  0  0  0  0  0  0  0  0  0  0  0
  -22.2263  -33.5715   23.3652 O   0  0  0  0  0  0  0  0  0  0  0  0
  -27.8531  -26.1729   19.6359 O   0  0  0  0  0  0  0  0  0  0  0  0
  -26.7431  -34.7910   22.5698 O   0  0  0  0  0  0  0  0  0  0  0  0
  -25.6068  -23.3883   19.4471 O   0  0  0  0  0  0  0  0  0  0  0  0
  -24.0799  -11.2073   19.5740 O   0  0  0  0  0  0  0  0  0  0  0  0
  -28.5888  -28.3596   21.3126 O   0  0  0  0  0  0  0  0  0  1  0  0
  -22.9116   -7.0646   23.0203 F   0  0  0  0  0  0  0  0  0  0  0  0
  -26.0308  -10.1304   21.2101 F   0  0  0  0  0  0  0  0  0  0  0  0
  -28.7971  -20.2079   17.2488 F   0  0  0  0  0  0  0  0  0  0  0  0
  -32.4667  -21.7758   16.4523 F   0  0  0  0  0  0  0  0  0  0  0  0
  -31.2219  -20.0128   16.6064 F   0  0  0  0  0  0  0  0  0  0  0  0
  1  2  1  0  0  0  0
  1  5  2  0  0  0  0
  2  6  2  0  0  0  0
  3  8  2  0  0  0  0
  3 17  1  0  0  0  0
  4  9  1  0  0  0  0
  4 17  2  0  0  0  0
  5 19  1  0  0  0  0
  6 21  1  0  0  0  0
  7 10  2  0  0  0  0
  7 20  1  0  0  0  0
  8 26  1  0  0  0  0
  9 26  2  0  0  0  0
 10 27  1  0  0  0  0
 11 12  2  0  0  0  0
 11 28  1  0  0  0  0
 12 29  1  0  0  0  0
 13 22  1  0  0  0  0
 13 27  2  0  0  0  0
 14 23  1  0  0  0  0
 14 24  2  0  0  0  0
 15 24  1  0  0  0  0
 15 25  2  0  0  0  0
 16 29  2  0  0  0  0
 16 30  1  0  0  0  0
 17 32  1  0  0  0  0
 18 32  1  0  0  0  0
 18 33  2  0  0  0  0
 18 34  1  0  0  0  0
 19 21  2  0  0  0  0
 19 40  1  0  0  0  0
 20 22  2  0  0  0  0
 20 41  1  0  0  0  0
 21 49  1  0  0  0  0
 22 42  1  0  0  0  0
 23 31  2  0  0  0  0
 23 61  1  0  0  0  0
 24 70  1  0  0  0  0
 25 31  1  0  0  0  0
 25 71  1  0  0  0  0
 26 81  1  0  0  0  0
 27 82  1  0  0  0  0
 28 30  2  0  0  0  0
 28 81  1  0  0  0  0
 29 83  1  0  0  0  0
 30 84  1  0  0  0  0
 31 85  1  0  0  0  0
 32 63  2  0  0  0  0
 33 64  1  0  0  0  0
 33 67  1  0  0  0  0
 34 68  1  0  0  0  0
 34 75  2  0  0  0  0
 35 50  1  0  0  0  0
 35 72  1  0  0  0  0
 35 76  2  0  0  0  0
 36 59  1  0  0  0  0
 36 65  1  0  0  0  0
 36 77  2  0  0  0  0
 37 57  1  0  0  0  0
 37 70  1  0  0  0  0
 37 78  2  0  0  0  0
 38 60  1  0  0  0  0
 38 73  1  0  0  0  0
 38 79  2  0  0  0  0
 39 66  1  0  0  0  0
 39 71  1  0  0  0  0
 39 80  2  0  0  0  0
 40 43  1  0  0  0  0
 41 50  1  0  0  0  0
 42 65  1  0  0  0  0
 43 45  1  0  0  0  0
 44 46  1  0  0  0  0
 44 47  1  0  0  0  0
 45 49  1  0  0  0  0
 46 51  1  0  0  0  0
 47 66  1  0  0  0  0
 48 51  1  0  0  0  0
 48 66  1  0  0  0  0
 49 72  1  0  0  0  0
 50 65  1  0  0  0  0
 51 64  1  0  0  0  0
 52 60  1  0  0  0  0
 53 62  1  0  0  0  0
 54 62  1  0  0  0  0
 55 62  1  0  0  0  0
 56 74  1  0  0  0  0
 57 58  1  0  0  0  0
 58 82  1  0  0  0  0
 59 62  1  0  0  0  0
 59 73  1  0  0  0  0
 60 74  1  0  0  0  0
 61 69  1  0  0  0  0
 61 86  1  0  0  0  0
 61 87  1  0  0  0  0
 63 64  1  0  0  0  0
M  CHG  1  74   1
M  ISO  4  39 100  58 101  71 100  82 101
M  END
> <Batch ID>
0070

> <Smiles>
CNC(C)C(=O)NC(C(=O)N1Cc2cc([101O:1][101CH2:1]CC(=O)Nc3cc([100NH:0][100C:0](=O)N4CCCC(n5nc(-c6ccc(Oc7ccc(F)cc7F)cc6)c(C(N)=O)c5N)C4)c(F)c(C(N)(F)F)c3)ccc2CC1C(=O)NC1CCCc2ccccc21)C(C)(C)C

> <Shape>
0.267

> <Color>
0.085

> <Negative vol penalty>
0.000

$$$$

  -OEChem-04042323323D

 95105  0     1  0  0  0  0  0999 V2000
  -29.0089  -33.9752   25.0306 C   0  0  0  0  0  0  0  0  0  0  0  0
  -29.6551  -33.0868   24.1770 C   0  0  0  0  0  0  0  0  0  0  0  0
  -19.1396  -15.7048   21.4400 C   0  0  0  0  0  0  0  0  0  0  0  0
  -20.9629  -17.2896   21.4089 C   0  0  0  0  0  0  0  0  0  0  0  0
  -27.8015  -33.6139   25.6268 C   0  0  0  0  0  0  0  0  0  0  0  0
  -29.0948  -31.8361   23.9200 C   0  0  0  0  0  0  0  0  0  0  0  0
  -28.5220  -26.9359   18.7262 C   0  0  0  0  0  0  0  0  0  0  0  0
  -18.3885  -16.5842   22.2198 C   0  0  0  0  0  0  0  0  0  0  0  0
  -20.2118  -18.1690   22.1886 C   0  0  0  0  0  0  0  0  0  0  0  0
  -28.7278  -25.5754   18.5016 C   0  0  0  0  0  0  0  0  0  0  0  0
  -17.6947  -20.3763   21.7274 C   0  0  0  0  0  0  0  0  0  0  0  0
  -17.6778  -21.7197   21.3525 C   0  0  0  0  0  0  0  0  0  0  0  0
  -26.5980  -25.0904   19.5254 C   0  0  0  0  0  0  0  0  0  0  0  0
  -28.9841  -20.7535   16.6552 C   0  0  0  0  0  0  0  0  0  0  0  0
  -30.7449  -17.7970   19.5884 C   0  0  0  0  0  0  0  0  0  0  0  0
  -29.8978  -15.6442   20.2846 C   0  0  0  0  0  0  0  0  0  0  0  0
  -18.6214  -22.3286   23.4917 C   0  0  0  0  0  0  0  0  0  0  0  0
  -20.4269  -16.0575   21.0345 C   0  0  0  0  0  0  0  0  0  0  0  0
  -20.8742  -14.6481   18.9558 C   0  0  0  0  0  0  0  0  0  0  0  0
  -27.2212  -32.3618   25.3694 C   0  0  0  0  0  0  0  0  0  0  0  0
  -27.3556  -27.3837   19.3630 C   0  0  0  0  0  0  0  0  0  0  0  0
  -27.8791  -31.4572   24.5144 C   0  0  0  0  0  0  0  0  0  0  0  0
  -26.3787  -26.4573   19.7546 C   0  0  0  0  0  0  0  0  0  0  0  0
  -29.1998  -21.4555   17.8667 C   0  0  0  0  0  0  0  0  0  0  0  0
  -29.5374  -18.0635   18.9431 C   0  0  0  0  0  0  0  0  0  0  0  0
  -30.9252  -16.5873   20.2592 C   0  0  0  0  0  0  0  0  0  0  0  0
  -28.6902  -15.9107   19.6393 C   0  0  0  0  0  0  0  0  0  0  0  0
  -18.9246  -17.8163   22.5941 C   0  0  0  0  0  0  0  0  0  0  0  0
  -27.7670  -24.6521   18.9037 C   0  0  0  0  0  0  0  0  0  0  0  0
  -18.1750  -20.0090   22.9844 C   0  0  0  0  0  0  0  0  0  0  0  0
  -18.1411  -22.6959   22.2346 C   0  0  0  0  0  0  0  0  0  0  0  0
  -18.6383  -20.9851   23.8666 C   0  0  0  0  0  0  0  0  0  0  0  0
  -28.5101  -17.1204   18.9685 C   0  0  0  0  0  0  0  0  0  0  0  0
  -21.2035  -15.1492   20.2295 C   0  0  0  0  0  0  0  0  0  0  0  0
  -21.9289  -13.8330   18.6244 C   0  0  0  0  0  0  0  0  0  0  0  0
  -29.0889  -19.4088   16.9346 C   0  0  0  0  0  0  0  0  0  0  0  0
  -29.4301  -20.5184   18.8496 C   0  0  0  0  0  0  0  0  0  0  0  0
  -33.8712  -15.2425   21.9460 C   0  0  0  0  0  0  0  0  0  0  0  0
  -32.6544  -15.1111   21.0709 C   0  0  0  0  0  0  0  0  0  0  0  0
  -34.7791  -14.2932   22.1995 C   0  0  0  0  0  0  0  0  0  0  0  0
  -19.7184  -14.8971   18.1448 C   0  0  0  0  0  0  0  0  0  0  0  0
  -26.7309  -28.9446   22.0606 C   0  0  0  0  0  0  0  0  0  0  0  0
  -23.6981  -28.9288   20.9098 C   0  0  0  0  0  0  0  0  0  0  0  0
  -21.3774  -27.4666   18.8793 C   0  0  0  0  0  0  0  0  0  0  0  0
  -27.6666  -13.7020   20.2876 C   0  0  0  0  0  0  0  0  0  0  0  0
  -25.9385  -31.9975   26.0742 C   0  0  0  0  0  0  0  0  0  0  0  0
  -27.1366  -28.8568   19.5739 C   0  0  0  0  0  0  0  0  0  0  0  0
  -25.1001  -26.8883   20.4239 C   0  0  0  0  0  0  0  0  0  0  0  0
  -25.2228  -30.7994   25.4557 C   0  0  0  0  0  0  0  0  0  0  0  0
  -25.2940  -11.0675   20.6151 C   0  0  0  0  0  0  0  0  0  0  0  0
  -26.2098  -29.6673   25.1892 C   0  0  0  0  0  0  0  0  0  0  0  0
  -23.9461  -11.7687   20.4314 C   0  0  0  0  0  0  0  0  0  0  0  0
  -26.2894  -11.9424   21.3749 C   0  0  0  0  0  0  0  0  0  0  0  0
  -25.1346  -13.9895   20.6367 C   0  0  0  0  0  0  0  0  0  0  0  0
  -32.9738  -17.3942   21.4405 C   0  0  0  0  0  0  0  0  0  0  0  0
  -27.2904  -30.1010   24.1914 C   0  0  1  0  0  0  0  0  0  0  0  0
  -26.1455  -29.1592   20.6935 C   0  0  1  0  0  0  0  0  0  0  0  0
  -24.1199  -13.1728   19.8200 C   0  0  2  0  0  0  0  0  0  0  0  0
  -33.8881  -16.6760   22.4555 C   0  0  0  0  0  0  0  0  0  0  0  0
  -35.2765  -17.3254   22.4703 C   0  0  0  0  0  0  0  0  0  0  0  0
  -33.2684  -16.7320   23.8608 C   0  0  0  0  0  0  0  0  0  0  0  0
  -18.9750  -27.6545   18.1789 C   0  0  0  0  0  0  0  0  0  0  0  0
  -22.8306  -27.6994   23.5643 C   0  0  0  0  0  0  0  0  0  0  0  0
  -20.6726  -27.0454   22.4764 C   0  0  0  0  0  0  0  0  0  0  0  0
  -21.2878  -29.4548   22.6740 C   0  0  0  0  0  0  0  0  0  0  0  0
  -22.1173  -27.9300   16.0514 C   0  0  0  0  0  0  0  0  0  0  0  0
  -29.1810  -22.9456   18.0409 C   0  0  0  0  0  0  0  0  0  1  0  0
  -22.5184  -27.9931   21.0183 C   0  0  1  0  0  0  0  0  0  0  0  0
  -20.4089  -28.0553   17.8693 C   0  0  2  0  0  0  0  0  0  0  0  0
  -21.8522  -28.0396   22.4224 C   0  0  0  0  0  0  0  0  0  0  0  0
  -22.3755  -14.6908   20.6768 N   0  0  0  0  0  0  0  0  0  0  0  0
  -29.3606  -19.2777   18.2715 N   0  0  0  0  0  0  0  0  0  0  0  0
  -22.7919  -13.8929   19.6788 N   0  0  0  0  0  0  0  0  0  0  0  0
  -32.1159  -16.3241   20.8951 N   0  0  0  0  0  0  0  0  0  0  0  0
  -24.9351  -28.3389   20.6138 N   0  0  0  0  0  0  0  0  0  0  0  0
  -26.4057  -13.2551   20.7360 N   0  0  0  0  0  0  0  0  0  0  0  0
  -22.1929  -13.0779   17.5369 N   0  0  0  0  0  0  0  0  0  0  0  0
  -18.7303  -15.7606   18.6369 N   0  0  0  0  0  0  0  0  0  0  0  0
  -27.6485  -14.9506   19.6669 N   0  0  0  0  0  0  0  0  0  0  0  0
  -26.7684  -30.0838   22.8417 N   0  0  0  0  0  0  0  0  0  0  0  0
  -21.6220  -28.3375   19.9200 N   0  0  0  0  0  0  0  0  0  0  0  0
  -32.2972  -13.9164   20.6143 N   0  3  0  0  0  0  0  0  0  0  0  0
  -20.7427  -27.5833   16.4956 N   0  3  0  0  0  0  0  0  0  0  0  0
  -19.5587  -14.3567   17.0241 O   0  0  0  0  0  0  0  0  0  0  0  0
  -27.1185  -27.8277   22.3833 O   0  0  0  0  0  0  0  0  0  0  0  0
  -23.5270  -30.1392   21.0745 O   0  0  0  0  0  0  0  0  0  0  0  0
  -21.8650  -26.3449   18.7591 O   0  0  0  0  0  0  0  0  0  0  0  0
  -28.6828  -13.0149   20.4185 O   0  0  0  0  0  0  0  0  0  0  0  0
  -28.9692  -18.3524   16.1394 O   0  0  0  0  0  0  0  0  0  0  0  0
  -29.6848  -20.6681   20.1446 O   0  0  0  0  0  0  0  0  0  0  0  0
  -18.1919  -18.6748   23.3548 O   0  0  0  0  0  0  0  0  0  0  0  0
  -27.9657  -23.3236   18.6863 O   0  0  0  0  0  0  0  0  0  1  0  0
  -18.1262  -23.9858   21.8739 F   0  0  0  0  0  0  0  0  0  0  0  0
  -19.1019  -20.6382   25.0751 F   0  0  0  0  0  0  0  0  0  0  0  0
  -27.3473  -17.3742   18.3477 F   0  0  0  0  0  0  0  0  0  0  0  0
  1  2  1  0  0  0  0
  1  5  2  0  0  0  0
  2  6  2  0  0  0  0
  3  8  2  0  0  0  0
  3 18  1  0  0  0  0
  4  9  1  0  0  0  0
  4 18  2  0  0  0  0
  5 20  1  0  0  0  0
  6 22  1  0  0  0  0
  7 10  2  0  0  0  0
  7 21  1  0  0  0  0
  8 28  1  0  0  0  0
  9 28  2  0  0  0  0
 10 29  1  0  0  0  0
 11 12  2  0  0  0  0
 11 30  1  0  0  0  0
 12 31  1  0  0  0  0
 13 23  1  0  0  0  0
 13 29  2  0  0  0  0
 14 24  1  0  0  0  0
 14 36  2  0  0  0  0
 15 25  1  0  0  0  0
 15 26  2  0  0  0  0
 16 26  1  0  0  0  0
 16 27  2  0  0  0  0
 17 31  2  0  0  0  0
 17 32  1  0  0  0  0
 18 34  1  0  0  0  0
 19 34  1  0  0  0  0
 19 35  2  0  0  0  0
 19 41  1  0  0  0  0
 20 22  2  0  0  0  0
 20 46  1  0  0  0  0
 21 23  2  0  0  0  0
 21 47  1  0  0  0  0
 22 56  1  0  0  0  0
 23 48  1  0  0  0  0
 24 37  2  0  0  0  0
 24 67  1  0  0  0  0
 25 33  2  0  0  0  0
 25 72  1  0  0  0  0
 26 74  1  0  0  0  0
 27 33  1  0  0  0  0
 27 79  1  0  0  0  0
 28 91  1  0  0  0  0
 29 92  1  0  0  0  0
 30 32  2  0  0  0  0
 30 91  1  0  0  0  0
 31 93  1  0  0  0  0
 32 94  1  0  0  0  0
 33 95  1  0  0  0  0
 34 71  2  0  0  0  0
 35 73  1  0  0  0  0
 35 77  1  0  0  0  0
 36 72  1  0  0  0  0
 36 89  1  0  0  0  0
 37 72  1  0  0  0  0
 37 90  1  0  0  0  0
 38 39  1  0  0  0  0
 38 40  2  0  0  0  0
 38 59  1  0  0  0  0
 39 74  1  0  0  0  0
 39 82  2  0  0  0  0
 41 78  1  0  0  0  0
 41 84  2  0  0  0  0
 42 57  1  0  0  0  0
 42 80  1  0  0  0  0
 42 85  2  0  0  0  0
 43 68  1  0  0  0  0
 43 75  1  0  0  0  0
 43 86  2  0  0  0  0
 44 69  1  0  0  0  0
 44 81  1  0  0  0  0
 44 87  2  0  0  0  0
 45 76  1  0  0  0  0
 45 79  1  0  0  0  0
 45 88  2  0  0  0  0
 46 49  1  0  0  0  0
 47 57  1  0  0  0  0
 48 75  1  0  0  0  0
 49 51  1  0  0  0  0
 50 52  1  0  0  0  0
 50 53  1  0  0  0  0
 51 56  1  0  0  0  0
 52 58  1  0  0  0  0
 53 76  1  0  0  0  0
 54 58  1  0  0  0  0
 54 76  1  0  0  0  0
 55 59  1  0  0  0  0
 55 74  1  0  0  0  0
 56 80  1  0  0  0  0
 57 75  1  0  0  0  0
 58 73  1  0  0  0  0
 59 60  1  0  0  0  0
 59 61  1  0  0  0  0
 62 69  1  0  0  0  0
 63 70  1  0  0  0  0
 64 70  1  0  0  0  0
 65 70  1  0  0  0  0
 66 83  1  0  0  0  0
 67 92  1  0  0  0  0
 68 70  1  0  0  0  0
 68 81  1  0  0  0  0
 69 83  1  0  0  0  0
 71 73  1  0  0  0  0
M  CHG  2  82   1  83   1
M  ISO  4  45 100  67 101  79 100  92 101
M  END
> <Batch ID>
0070

> <Smiles>
C=C1C(=N)N(c2cc([100NH:0][100C:0](=O)N3CCCC(n4nc(-c5ccc(Oc6ccc(F)cc6F)cc5)c(C(N)=O)c4N)C3)c(F)c(N3C(=O)CC([101CH2:1][101O:1]c4ccc5c(c4)CN(C(=O)C(NC(=O)C(C)NC)C(C)(C)C)C(C(=O)NC4CCCc6ccccc64)C5)C3=O)c2)CC1(C)C

> <Shape>
0.240

> <Color>
0.067

> <Negative vol penalty>
0.000

$$$$

  -OEChem-04042323323D

 85 94  0     1  0  0  0  0  0999 V2000
  -31.6352  -34.8474   15.6359 C   0  0  0  0  0  0  0  0  0  0  0  0
  -31.3935  -33.4791   15.7068 C   0  0  0  0  0  0  0  0  0  0  0  0
  -24.9382   -8.3314   21.5610 C   0  0  0  0  0  0  0  0  0  0  0  0
  -23.5780   -9.5212   19.9574 C   0  0  0  0  0  0  0  0  0  0  0  0
  -31.4996  -35.6380   16.7763 C   0  0  0  0  0  0  0  0  0  0  0  0
  -31.0172  -32.9006   16.9184 C   0  0  0  0  0  0  0  0  0  0  0  0
  -27.1755  -28.1984   17.7166 C   0  0  0  0  0  0  0  0  0  0  0  0
  -23.7858   -7.8927   22.2129 C   0  0  0  0  0  0  0  0  0  0  0  0
  -22.4256   -9.0824   20.6094 C   0  0  0  0  0  0  0  0  0  0  0  0
  -27.3902  -26.8365   17.9236 C   0  0  0  0  0  0  0  0  0  0  0  0
  -21.1945   -6.1636   24.0866 C   0  0  0  0  0  0  0  0  0  0  0  0
  -21.1323   -4.8213   24.4608 C   0  0  0  0  0  0  0  0  0  0  0  0
  -27.1852  -27.1721   20.3036 C   0  0  0  0  0  0  0  0  0  0  0  0
  -25.5019  -19.1343   17.0647 C   0  0  0  0  0  0  0  0  0  0  0  0
  -27.2529  -18.1109   18.3776 C   0  0  0  0  0  0  0  0  0  0  0  0
  -25.8398  -16.7438   16.9736 C   0  0  0  0  0  0  0  0  0  0  0  0
  -21.3660   -4.1656   22.1472 C   0  0  0  0  0  0  0  0  0  0  0  0
  -24.8343   -9.1457   20.4332 C   0  0  0  0  0  0  0  0  0  0  0  0
  -26.7029   -8.9571   18.7069 C   0  0  0  0  0  0  0  0  0  0  0  0
  -31.1120  -35.0704   18.0003 C   0  0  0  0  0  0  0  0  0  0  0  0
  -26.9745  -29.0607   18.8041 C   0  0  0  0  0  0  0  0  0  0  0  0
  -30.8776  -33.6842   18.0765 C   0  0  0  0  0  0  0  0  0  0  0  0
  -26.9656  -28.5441   20.1076 C   0  0  0  0  0  0  0  0  0  0  0  0
  -26.5565  -19.2489   17.9703 C   0  0  0  0  0  0  0  0  0  0  0  0
  -25.1435  -17.8817   16.5664 C   0  0  0  0  0  0  0  0  0  0  0  0
  -26.8945  -16.8583   17.8792 C   0  0  0  0  0  0  0  0  0  0  0  0
  -22.5295   -8.2681   21.7371 C   0  0  0  0  0  0  0  0  0  0  0  0
  -27.3979  -26.3236   19.2174 C   0  0  0  0  0  0  0  0  0  0  0  0
  -21.3424   -6.5069   22.7427 C   0  0  0  0  0  0  0  0  0  0  0  0
  -21.2181   -3.8223   23.4911 C   0  0  0  0  0  0  0  0  0  0  0  0
  -21.4282   -5.5079   21.7731 C   0  0  0  0  0  0  0  0  0  0  0  0
  -26.0243   -9.5998   19.7596 C   0  0  0  0  0  0  0  0  0  0  0  0
  -27.7607   -9.7861   18.4235 C   0  0  0  0  0  0  0  0  0  0  0  0
  -27.9425  -20.8199   19.3816 C   0  0  0  0  0  0  0  0  0  0  0  0
  -26.4038   -7.7213   18.0444 C   0  0  0  0  0  0  0  0  0  0  0  0
  -28.5121  -31.5807   19.9826 C   0  0  0  0  0  0  0  0  0  0  0  0
  -25.9471  -31.7300   21.9627 C   0  0  0  0  0  0  0  0  0  0  0  0
  -23.3517  -30.1050   23.4694 C   0  0  0  0  0  0  0  0  0  0  0  0
  -28.6749  -15.6422   19.1821 C   0  0  0  0  0  0  0  0  0  0  0  0
  -31.0245  -35.9578   19.2167 C   0  0  0  0  0  0  0  0  0  0  0  0
  -26.7177  -30.5229   18.5623 C   0  0  0  0  0  0  0  0  0  0  0  0
  -26.7345  -29.4243   21.3078 C   0  0  0  0  0  0  0  0  0  0  0  0
  -30.2580  -35.3275   20.3766 C   0  0  0  0  0  0  0  0  0  0  0  0
  -30.6635  -12.9905   20.4826 C   0  0  0  0  0  0  0  0  0  0  0  0
  -30.7174  -33.8905   20.6019 C   0  0  0  0  0  0  0  0  0  0  0  0
  -29.7635  -11.7605   20.3434 C   0  0  0  0  0  0  0  0  0  0  0  0
  -29.8645  -14.2389   20.8526 C   0  0  0  0  0  0  0  0  0  0  0  0
  -27.8275  -13.3022   19.8316 C   0  0  0  0  0  0  0  0  0  0  0  0
  -26.3188  -21.7490   18.0202 C   0  0  0  0  0  0  0  0  0  0  0  0
  -30.4434  -33.0236   19.3670 C   0  0  1  0  0  0  0  0  0  0  0  0
  -27.0359  -31.3937   19.7739 C   0  0  1  0  0  0  0  0  0  0  0  0
  -28.5787  -12.0335   19.3962 C   0  0  2  0  0  0  0  0  0  0  0  0
  -26.8054  -22.7713   19.0228 C   0  0  2  0  0  0  0  0  0  0  0  0
  -21.4500  -30.4825   25.0625 C   0  0  0  0  0  0  0  0  0  0  0  0
  -27.9090  -31.7352   24.2995 C   0  0  0  0  0  0  0  0  0  0  0  0
  -26.0000  -31.1576   25.8129 C   0  0  0  0  0  0  0  0  0  0  0  0
  -25.9823  -33.3096   24.5515 C   0  0  0  0  0  0  0  0  0  0  0  0
  -21.3416  -29.3625   21.4280 C   0  0  0  0  0  0  0  0  0  0  0  0
  -27.1737  -24.1029   18.3965 C   0  0  0  0  0  0  0  0  0  1  0  0
  -25.5999  -31.1413   23.3088 C   0  0  1  0  0  0  0  0  0  0  0  0
  -21.8824  -30.4617   23.6047 C   0  0  2  0  0  0  0  0  0  0  0  0
  -26.3791  -31.8194   24.4709 C   0  0  0  0  0  0  0  0  0  0  0  0
  -26.6026  -10.7484   20.1206 N   0  0  0  0  0  0  0  0  0  0  0  0
  -27.6557  -10.8339   19.2902 N   0  0  0  0  0  0  0  0  0  0  0  0
  -26.9240  -20.5279   18.4788 N   0  0  0  0  0  0  0  0  0  0  0  0
  -26.4942  -30.8480   21.0201 N   0  0  0  0  0  0  0  0  0  0  0  0
  -28.7616  -14.4363   19.9094 N   0  0  0  0  0  0  0  0  0  0  0  0
  -24.0772  -17.7652   15.6506 N   0  0  0  0  0  0  0  0  0  0  0  0
  -28.7612   -9.7136   17.5200 N   0  0  0  0  0  0  0  0  0  0  0  0
  -25.2795   -6.9952   18.4604 N   0  0  0  0  0  0  0  0  0  0  0  0
  -27.6032  -15.7028   18.2919 N   0  0  0  0  0  0  0  0  0  0  0  0
  -29.0437  -32.6611   19.3045 N   0  0  0  0  0  0  0  0  0  0  0  0
  -24.1488  -31.2294   23.4309 N   0  0  0  0  0  0  0  0  0  0  0  0
  -21.0396  -29.4701   22.8786 N   0  3  0  0  0  0  0  0  0  0  0  0
  -28.7472  -20.0687   19.9143 O   0  0  0  0  0  0  0  0  0  0  0  0
  -27.1218   -7.2659   17.1221 O   0  0  0  0  0  0  0  0  0  0  0  0
  -29.1232  -30.8034   20.7064 O   0  0  0  0  0  0  0  0  0  0  0  0
  -25.7338  -32.9267   21.7528 O   0  0  0  0  0  0  0  0  0  0  0  0
  -23.7526  -28.9448   23.4080 O   0  0  0  0  0  0  0  0  0  0  0  0
  -29.5069  -16.5430   19.3175 O   0  0  0  0  0  0  0  0  0  0  0  0
  -27.9703  -22.1764   19.6111 O   0  0  0  0  0  0  0  0  0  0  0  0
  -21.4048   -7.8400   22.3729 O   0  0  0  0  0  0  0  0  0  0  0  0
  -27.6079  -24.9948   19.4223 O   0  0  0  0  0  0  0  0  0  1  0  0
  -21.1599   -2.5334   23.8507 F   0  0  0  0  0  0  0  0  0  0  0  0
  -21.5715   -5.8315   20.4806 F   0  0  0  0  0  0  0  0  0  0  0  0
  1  2  1  0  0  0  0
  1  5  2  0  0  0  0
  2  6  2  0  0  0  0
  3  8  2  0  0  0  0
  3 18  1  0  0  0  0
  4  9  1  0  0  0  0
  4 18  2  0  0  0  0
  5 20  1  0  0  0  0
  6 22  1  0  0  0  0
  7 10  2  0  0  0  0
  7 21  1  0  0  0  0
  8 27  1  0  0  0  0
  9 27  2  0  0  0  0
 10 28  1  0  0  0  0
 11 12  2  0  0  0  0
 11 29  1  0  0  0  0
 12 30  1  0  0  0  0
 13 23  1  0  0  0  0
 13 28  2  0  0  0  0
 14 24  1  0  0  0  0
 14 25  2  0  0  0  0
 15 24  2  0  0  0  0
 15 26  1  0  0  0  0
 16 25  1  0  0  0  0
 16 26  2  0  0  0  0
 17 30  2  0  0  0  0
 17 31  1  0  0  0  0
 18 32  1  0  0  0  0
 19 32  1  0  0  0  0
 19 33  2  0  0  0  0
 19 35  1  0  0  0  0
 20 22  2  0  0  0  0
 20 40  1  0  0  0  0
 21 23  2  0  0  0  0
 21 41  1  0  0  0  0
 22 50  1  0  0  0  0
 23 42  1  0  0  0  0
 24 65  1  0  0  0  0
 25 68  1  0  0  0  0
 26 71  1  0  0  0  0
 27 82  1  0  0  0  0
 28 83  1  0  0  0  0
 29 31  2  0  0  0  0
 29 82  1  0  0  0  0
 30 84  1  0  0  0  0
 31 85  1  0  0  0  0
 32 63  2  0  0  0  0
 33 64  1  0  0  0  0
 33 69  1  0  0  0  0
 34 65  1  0  0  0  0
 34 75  2  0  0  0  0
 34 81  1  0  0  0  0
 35 70  1  0  0  0  0
 35 76  2  0  0  0  0
 36 51  1  0  0  0  0
 36 72  1  0  0  0  0
 36 77  2  0  0  0  0
 37 60  1  0  0  0  0
 37 66  1  0  0  0  0
 37 78  2  0  0  0  0
 38 61  1  0  0  0  0
 38 73  1  0  0  0  0
 38 79  2  0  0  0  0
 39 67  1  0  0  0  0
 39 71  1  0  0  0  0
 39 80  2  0  0  0  0
 40 43  1  0  0  0  0
 41 51  1  0  0  0  0
 42 66  1  0  0  0  0
 43 45  1  0  0  0  0
 44 46  1  0  0  0  0
 44 47  1  0  0  0  0
 45 50  1  0  0  0  0
 46 52  1  0  0  0  0
 47 67  1  0  0  0  0
 48 52  1  0  0  0  0
 48 67  1  0  0  0  0
 49 53  1  0  0  0  0
 49 65  1  0  0  0  0
 50 72  1  0  0  0  0
 51 66  1  0  0  0  0
 52 64  1  0  0  0  0
 53 59  1  0  0  0  0
 53 81  1  0  0  0  0
 54 61  1  0  0  0  0
 55 62  1  0  0  0  0
 56 62  1  0  0  0  0
 57 62  1  0  0  0  0
 58 74  1  0  0  0  0
 59 83  1  0  0  0  0
 60 62  1  0  0  0  0
 60 73  1  0  0  0  0
 61 74  1  0  0  0  0
 63 64  1  0  0  0  0
M  CHG  1  74   1
M  ISO  4  39 100  59 101  71 100  83 101
M  END
> <Batch ID>
0070

> <Smiles>
CNC(C)C(=O)NC(C(=O)N1Cc2cc([101O:1][101CH2:1]C3CN(c4cc(N)cc([100NH:0][100C:0](=O)N5CCCC(n6nc(-c7ccc(Oc8ccc(F)cc8F)cc7)c(C(N)=O)c6N)C5)c4)C(=O)O3)ccc2CC1C(=O)NC1CCCc2ccccc21)C(C)(C)C

> <Shape>
0.241

> <Color>
0.097

> <Negative vol penalty>
0.000

$$$$

  -OEChem-04042323323D

 85 94  0     1  0  0  0  0  0999 V2000
  -30.1605  -13.7291   21.4395 C   0  0  0  0  0  0  0  0  0  0  0  0
  -29.8100  -15.0754   21.4499 C   0  0  0  0  0  0  0  0  0  0  0  0
  -18.4185  -26.3090   23.1585 C   0  0  0  0  0  0  0  0  0  0  0  0
  -18.7224  -27.5781   23.6510 C   0  0  0  0  0  0  0  0  0  0  0  0
  -29.8903  -26.4273   20.7157 C   0  0  0  0  0  0  0  0  0  0  0  0
  -28.1781  -24.7405   20.4700 C   0  0  0  0  0  0  0  0  0  0  0  0
  -29.3638  -12.8077   20.7610 C   0  0  0  0  0  0  0  0  0  0  0  0
  -28.6631  -15.5012   20.7809 C   0  0  0  0  0  0  0  0  0  0  0  0
  -24.8806  -20.0138   22.4647 C   0  0  0  0  0  0  0  0  0  0  0  0
  -19.2025  -25.7455   22.1517 C   0  0  0  0  0  0  0  0  0  0  0  0
  -19.8102  -28.2838   23.1368 C   0  0  0  0  0  0  0  0  0  0  0  0
  -30.7461  -25.4774   21.2732 C   0  0  0  0  0  0  0  0  0  0  0  0
  -29.0340  -23.7906   21.0274 C   0  0  0  0  0  0  0  0  0  0  0  0
  -24.7726  -21.3452   22.0654 C   0  0  0  0  0  0  0  0  0  0  0  0
  -30.8947  -20.8405   22.0538 C   0  0  0  0  0  0  0  0  0  0  0  0
  -30.9776  -19.5958   21.4299 C   0  0  0  0  0  0  0  0  0  0  0  0
  -23.0460  -20.7288   20.4976 C   0  0  0  0  0  0  0  0  0  0  0  0
  -31.7414  -20.6633   19.4015 C   0  0  0  0  0  0  0  0  0  0  0  0
  -28.6062  -26.0589   20.3142 C   0  0  0  0  0  0  0  0  0  0  0  0
  -27.5902  -27.3713   18.3769 C   0  0  0  0  0  0  0  0  0  0  0  0
  -28.2013  -13.2211   20.0915 C   0  0  0  0  0  0  0  0  0  0  0  0
  -24.0784  -19.0265   21.8746 C   0  0  0  0  0  0  0  0  0  0  0  0
  -27.8508  -14.5847   20.0917 C   0  0  0  0  0  0  0  0  0  0  0  0
  -23.1439  -19.3860   20.8930 C   0  0  0  0  0  0  0  0  0  0  0  0
  -20.2902  -26.4511   21.6375 C   0  0  0  0  0  0  0  0  0  0  0  0
  -20.5941  -27.7203   22.1299 C   0  0  0  0  0  0  0  0  0  0  0  0
  -30.3180  -24.1590   21.4290 C   0  0  0  0  0  0  0  0  0  0  0  0
  -23.8573  -21.7025   21.0797 C   0  0  0  0  0  0  0  0  0  0  0  0
  -31.2351  -21.9967   21.3516 C   0  0  0  0  0  0  0  0  0  0  0  0
  -31.4009  -19.5072   20.1038 C   0  0  0  0  0  0  0  0  0  0  0  0
  -31.6584  -21.9081   20.0255 C   0  0  0  0  0  0  0  0  0  0  0  0
  -27.7215  -27.0398   19.7388 C   0  0  0  0  0  0  0  0  0  0  0  0
  -26.6275  -28.3507   18.3532 C   0  0  0  0  0  0  0  0  0  0  0  0
  -22.4550  -25.5563   20.6661 C   0  0  0  0  0  0  0  0  0  0  0  0
  -28.2769  -26.8412   17.2354 C   0  0  0  0  0  0  0  0  0  0  0  0
  -24.6392  -16.4107   20.1581 C   0  0  0  0  0  0  0  0  0  0  0  0
  -21.4388  -15.9879   20.4757 C   0  0  0  0  0  0  0  0  0  0  0  0
  -18.3727  -17.3821   21.0254 C   0  0  0  0  0  0  0  0  0  0  0  0
  -22.1130  -29.7270   22.0179 C   0  0  0  0  0  0  0  0  0  0  0  0
  -27.3974  -12.1955   19.3322 C   0  0  0  0  0  0  0  0  0  0  0  0
  -24.1882  -17.5989   22.3354 C   0  0  0  0  0  0  0  0  0  0  0  0
  -22.2452  -18.3672   20.2427 C   0  0  0  0  0  0  0  0  0  0  0  0
  -25.9952  -12.6725   18.9627 C   0  0  0  0  0  0  0  0  0  0  0  0
  -24.7904  -31.8617   21.0424 C   0  0  0  0  0  0  0  0  0  0  0  0
  -26.0470  -14.0803   18.3778 C   0  0  0  0  0  0  0  0  0  0  0  0
  -25.8314  -30.8982   20.4679 C   0  0  0  0  0  0  0  0  0  0  0  0
  -21.6881  -25.2134   18.4356 C   0  0  0  0  0  0  0  0  0  0  0  0
  -24.0580  -31.2576   22.2392 C   0  0  0  0  0  0  0  0  0  0  0  0
  -20.4961  -25.4228   19.3498 C   0  0  0  0  0  0  0  0  0  0  0  0
  -24.5001  -28.9750   21.4249 C   0  0  0  0  0  0  0  0  0  0  0  0
  -26.6008  -15.0818   19.3985 C   0  0  1  0  0  0  0  0  0  0  0  0
  -23.6828  -16.5969   21.3019 C   0  0  1  0  0  0  0  0  0  0  0  0
  -25.2185  -29.5142   20.1771 C   0  0  2  0  0  0  0  0  0  0  0  0
  -22.8149  -24.8025   19.3867 C   0  0  1  0  0  0  0  0  0  0  0  0
  -24.1830  -25.2221   18.8544 C   0  0  0  0  0  0  0  0  0  0  0  0
  -15.9399  -16.7890   21.1898 C   0  0  0  0  0  0  0  0  0  0  0  0
  -21.2965  -15.7398   17.4379 C   0  0  0  0  0  0  0  0  0  0  0  0
  -18.8244  -16.1043   17.5936 C   0  0  0  0  0  0  0  0  0  0  0  0
  -19.8613  -14.1156   18.6856 C   0  0  0  0  0  0  0  0  0  0  0  0
  -18.2124  -18.3267   23.8256 C   0  0  0  0  0  0  0  0  0  0  0  0
  -22.7916  -23.2965   19.6727 C   0  0  0  0  0  0  0  0  0  1  0  0
  -20.2215  -16.4085   19.6880 C   0  0  1  0  0  0  0  0  0  0  0  0
  -17.2390  -16.9881   21.9549 C   0  0  2  0  0  0  0  0  0  0  0  0
  -20.0691  -15.6112   18.3620 C   0  0  0  0  0  0  0  0  0  0  0  0
  -26.9075  -27.7511   20.5234 N   0  0  0  0  0  0  0  0  0  0  0  0
  -26.2555  -28.5392   19.6517 N   0  0  0  0  0  0  0  0  0  0  0  0
  -21.0774  -25.8530   20.6073 N   0  0  0  0  0  0  0  0  0  0  0  0
  -22.3946  -16.9834   20.7228 N   0  0  0  0  0  0  0  0  0  0  0  0
  -23.5002  -29.9497   21.8883 N   0  0  0  0  0  0  0  0  0  0  0  0
  -26.0715  -29.0604   17.3484 N   0  0  0  0  0  0  0  0  0  0  0  0
  -29.2358  -25.8393   17.4383 N   0  0  0  0  0  0  0  0  0  0  0  0
  -21.6937  -28.4568   21.6238 N   0  0  0  0  0  0  0  0  0  0  0  0
  -25.5855  -15.4264   20.3705 N   0  0  0  0  0  0  0  0  0  0  0  0
  -19.0854  -16.2831   20.5946 N   0  0  0  0  0  0  0  0  0  0  0  0
  -17.0216  -18.0444   22.9834 N   0  3  0  0  0  0  0  0  0  0  0  0
  -23.2599  -25.7698   21.5621 O   0  0  0  0  0  0  0  0  0  0  0  0
  -28.0587  -27.2555   16.0717 O   0  0  0  0  0  0  0  0  0  0  0  0
  -24.5260  -17.1073   19.1563 O   0  0  0  0  0  0  0  0  0  0  0  0
  -21.5345  -14.8209   20.8636 O   0  0  0  0  0  0  0  0  0  0  0  0
  -18.6007  -18.5478   20.7098 O   0  0  0  0  0  0  0  0  0  0  0  0
  -21.3492  -30.6078   22.4212 O   0  0  0  0  0  0  0  0  0  0  0  0
  -31.1530  -23.2317   21.9726 O   0  0  0  0  0  0  0  0  0  0  0  0
  -23.7503  -23.0012   20.6877 O   0  0  0  0  0  0  0  0  0  1  0  0
  -31.4819  -18.3116   19.5052 F   0  0  0  0  0  0  0  0  0  0  0  0
  -31.9879  -23.0152   19.3461 F   0  0  0  0  0  0  0  0  0  0  0  0
  1  2  1  0  0  0  0
  1  7  2  0  0  0  0
  2  8  2  0  0  0  0
  3  4  1  0  0  0  0
  3 10  2  0  0  0  0
  4 11  2  0  0  0  0
  5 12  2  0  0  0  0
  5 19  1  0  0  0  0
  6 13  1  0  0  0  0
  6 19  2  0  0  0  0
  7 21  1  0  0  0  0
  8 23  1  0  0  0  0
  9 14  2  0  0  0  0
  9 22  1  0  0  0  0
 10 25  1  0  0  0  0
 11 26  1  0  0  0  0
 12 27  1  0  0  0  0
 13 27  2  0  0  0  0
 14 28  1  0  0  0  0
 15 16  2  0  0  0  0
 15 29  1  0  0  0  0
 16 30  1  0  0  0  0
 17 24  1  0  0  0  0
 17 28  2  0  0  0  0
 18 30  2  0  0  0  0
 18 31  1  0  0  0  0
 19 32  1  0  0  0  0
 20 32  1  0  0  0  0
 20 33  2  0  0  0  0
 20 35  1  0  0  0  0
 21 23  2  0  0  0  0
 21 40  1  0  0  0  0
 22 24  2  0  0  0  0
 22 41  1  0  0  0  0
 23 51  1  0  0  0  0
 24 42  1  0  0  0  0
 25 26  2  0  0  0  0
 25 67  1  0  0  0  0
 26 72  1  0  0  0  0
 27 82  1  0  0  0  0
 28 83  1  0  0  0  0
 29 31  2  0  0  0  0
 29 82  1  0  0  0  0
 30 84  1  0  0  0  0
 31 85  1  0  0  0  0
 32 65  2  0  0  0  0
 33 66  1  0  0  0  0
 33 70  1  0  0  0  0
 34 54  1  0  0  0  0
 34 67  1  0  0  0  0
 34 76  2  0  0  0  0
 35 71  1  0  0  0  0
 35 77  2  0  0  0  0
 36 52  1  0  0  0  0
 36 73  1  0  0  0  0
 36 78  2  0  0  0  0
 37 62  1  0  0  0  0
 37 68  1  0  0  0  0
 37 79  2  0  0  0  0
 38 63  1  0  0  0  0
 38 74  1  0  0  0  0
 38 80  2  0  0  0  0
 39 69  1  0  0  0  0
 39 72  1  0  0  0  0
 39 81  2  0  0  0  0
 40 43  1  0  0  0  0
 41 52  1  0  0  0  0
 42 68  1  0  0  0  0
 43 45  1  0  0  0  0
 44 46  1  0  0  0  0
 44 48  1  0  0  0  0
 45 51  1  0  0  0  0
 46 53  1  0  0  0  0
 47 49  1  0  0  0  0
 47 54  1  0  0  0  0
 48 69  1  0  0  0  0
 49 67  1  0  0  0  0
 50 53  1  0  0  0  0
 50 69  1  0  0  0  0
 51 73  1  0  0  0  0
 52 68  1  0  0  0  0
 53 66  1  0  0  0  0
 54 55  1  0  0  0  0
 54 61  1  0  0  0  0
 56 63  1  0  0  0  0
 57 64  1  0  0  0  0
 58 64  1  0  0  0  0
 59 64  1  0  0  0  0
 60 75  1  0  0  0  0
 61 83  1  0  0  0  0
 62 64  1  0  0  0  0
 62 74  1  0  0  0  0
 63 75  1  0  0  0  0
 65 66  1  0  0  0  0
M  CHG  1  75   1
M  ISO  4  39 100  61 101  72 100  83 101
M  END
> <Batch ID>
0070

> <Smiles>
CNC(C)C(=O)NC(C(=O)N1Cc2cc([101O:1][101CH2:1]C3(C)CCN(c4ccccc4[100NH:0][100C:0](=O)N4CCCC(n5nc(-c6ccc(Oc7ccc(F)cc7F)cc6)c(C(N)=O)c5N)C4)C3=O)ccc2CC1C(=O)NC1CCCc2ccccc21)C(C)(C)C

> <Shape>
0.196

> <Color>
0.064

> <Negative vol penalty>
0.000

$$$$

  -OEChem-04042323323D

 89 98  0     1  0  0  0  0  0999 V2000
  -30.0199  -36.3245   23.7067 C   0  0  0  0  0  0  0  0  0  0  0  0
  -30.3264  -34.9676   23.6909 C   0  0  0  0  0  0  0  0  0  0  0  0
  -24.7184   -8.8795   21.4311 C   0  0  0  0  0  0  0  0  0  0  0  0
  -23.1646  -10.7070   21.1426 C   0  0  0  0  0  0  0  0  0  0  0  0
  -28.7787  -36.7521   24.1763 C   0  0  0  0  0  0  0  0  0  0  0  0
  -29.3923  -34.0375   24.1456 C   0  0  0  0  0  0  0  0  0  0  0  0
  -28.4661  -28.3864   21.9746 C   0  0  0  0  0  0  0  0  0  0  0  0
  -23.8695   -8.3074   22.3785 C   0  0  0  0  0  0  0  0  0  0  0  0
  -22.3157  -10.1348   22.0900 C   0  0  0  0  0  0  0  0  0  0  0  0
  -28.8985  -27.1332   22.4063 C   0  0  0  0  0  0  0  0  0  0  0  0
  -21.0233   -6.4821   22.3934 C   0  0  0  0  0  0  0  0  0  0  0  0
  -20.7828   -5.1110   22.3043 C   0  0  0  0  0  0  0  0  0  0  0  0
  -26.8150  -26.8264   23.5827 C   0  0  0  0  0  0  0  0  0  0  0  0
  -27.9043  -18.9000   20.7960 C   0  0  0  0  0  0  0  0  0  0  0  0
  -26.1070  -20.5111   20.8983 C   0  0  0  0  0  0  0  0  0  0  0  0
  -21.6999   -4.8063   24.5186 C   0  0  0  0  0  0  0  0  0  0  0  0
  -24.3659  -10.0794   20.8132 C   0  0  0  0  0  0  0  0  0  0  0  0
  -25.2388  -10.4487   18.4447 C   0  0  0  0  0  0  0  0  0  0  0  0
  -27.8252  -35.8261   24.6280 C   0  0  0  0  0  0  0  0  0  0  0  0
  -27.2073  -28.8745   22.3534 C   0  0  0  0  0  0  0  0  0  0  0  0
  -28.1377  -34.4533   24.6229 C   0  0  0  0  0  0  0  0  0  0  0  0
  -26.3680  -28.0850   23.1524 C   0  0  0  0  0  0  0  0  0  0  0  0
  -25.7305  -18.3432   19.9007 C   0  0  0  0  0  0  0  0  0  0  0  0
  -27.4307  -20.1597   21.1626 C   0  0  0  0  0  0  0  0  0  0  0  0
  -27.0542  -17.9917   20.1650 C   0  0  0  0  0  0  0  0  0  0  0  0
  -22.6682   -8.9350   22.7080 C   0  0  0  0  0  0  0  0  0  0  0  0
  -28.0740  -26.3542   23.2128 C   0  0  0  0  0  0  0  0  0  0  0  0
  -21.6021   -7.0153   23.5451 C   0  0  0  0  0  0  0  0  0  0  0  0
  -21.1211   -4.2731   23.3669 C   0  0  0  0  0  0  0  0  0  0  0  0
  -25.2569  -19.6029   20.2674 C   0  0  0  0  0  0  0  0  0  0  0  0
  -21.9404   -6.1774   24.6077 C   0  0  0  0  0  0  0  0  0  0  0  0
  -25.2426  -10.6713   19.8348 C   0  0  0  0  0  0  0  0  0  0  0  0
  -26.2557  -11.2391   17.9676 C   0  0  0  0  0  0  0  0  0  0  0  0
  -27.9723  -22.3916   22.2369 C   0  0  0  0  0  0  0  0  0  0  0  0
  -24.3916   -9.6032   17.6553 C   0  0  0  0  0  0  0  0  0  0  0  0
  -26.1812  -31.3765   24.0239 C   0  0  0  0  0  0  0  0  0  0  0  0
  -23.2643  -30.3189   23.0777 C   0  0  0  0  0  0  0  0  0  0  0  0
  -21.3318  -27.7152   22.0131 C   0  0  0  0  0  0  0  0  0  0  0  0
  -28.8446  -16.2273   19.9977 C   0  0  0  0  0  0  0  0  0  0  0  0
  -26.5150  -36.3395   25.1707 C   0  0  0  0  0  0  0  0  0  0  0  0
  -26.7448  -30.2170   21.8574 C   0  0  0  0  0  0  0  0  0  0  0  0
  -24.9992  -28.5546   23.5703 C   0  0  0  0  0  0  0  0  0  0  0  0
  -25.4392  -35.2625   25.2850 C   0  0  0  0  0  0  0  0  0  0  0  0
  -30.4544  -13.1345   19.2764 C   0  0  0  0  0  0  0  0  0  0  0  0
  -26.0096  -34.0049   25.9330 C   0  0  0  0  0  0  0  0  0  0  0  0
  -29.2996  -12.1327   19.2053 C   0  0  0  0  0  0  0  0  0  0  0  0
  -30.3253  -22.0898   22.4279 C   0  0  0  0  0  0  0  0  0  0  0  0
  -30.2230  -14.1909   20.3554 C   0  0  0  0  0  0  0  0  0  0  0  0
  -29.6684  -20.7514   22.1552 C   0  0  0  0  0  0  0  0  0  0  0  0
  -27.7825  -13.8933   20.1981 C   0  0  0  0  0  0  0  0  0  0  0  0
  -27.1413  -33.4121   25.0848 C   0  0  1  0  0  0  0  0  0  0  0  0
  -29.1835  -22.9301   22.9811 C   0  0  1  0  0  0  0  0  0  0  0  0
  -25.6526  -30.8316   22.7273 C   0  0  1  0  0  0  0  0  0  0  0  0
  -27.9399  -12.8479   19.0818 C   0  0  2  0  0  0  0  0  0  0  0  0
  -18.9767  -27.1496   21.3568 C   0  0  0  0  0  0  0  0  0  0  0  0
  -22.4447  -30.3321   26.0168 C   0  0  0  0  0  0  0  0  0  0  0  0
  -20.4875  -28.8956   25.4054 C   0  0  0  0  0  0  0  0  0  0  0  0
  -20.6992  -31.1873   24.4432 C   0  0  0  0  0  0  0  0  0  0  0  0
  -22.1577  -26.9337   19.2807 C   0  0  0  0  0  0  0  0  0  0  0  0
  -29.3890  -24.4200   22.7819 C   0  0  0  0  0  0  0  0  0  1  0  0
  -22.2437  -29.3561   23.6349 C   0  0  1  0  0  0  0  0  0  0  0  0
  -20.3448  -27.5966   20.8658 C   0  0  2  0  0  0  0  0  0  0  0  0
  -24.7998  -17.3873   19.2272 C   0  0  0  0  0  0  0  0  0  0  0  0
  -21.4953  -29.9345   24.8690 C   0  0  0  0  0  0  0  0  0  0  0  0
  -26.1872  -11.5352   20.2161 N   0  0  0  0  0  0  0  0  0  0  0  0
  -26.7864  -11.8625   19.0585 N   0  0  0  0  0  0  0  0  0  0  0  0
  -28.3005  -21.0890   21.8081 N   0  0  0  0  0  0  0  0  0  0  0  0
  -24.5948  -29.8769   23.0649 N   0  0  0  0  0  0  0  0  0  0  0  0
  -28.9176  -14.8291   20.1723 N   0  0  0  0  0  0  0  0  0  0  0  0
  -26.7388  -11.4547   16.7256 N   0  0  0  0  0  0  0  0  0  0  0  0
  -23.3973   -8.8595   18.3054 N   0  0  0  0  0  0  0  0  0  0  0  0
  -27.5539  -16.7170   19.8000 N   0  0  0  0  0  0  0  0  0  0  0  0
  -26.6001  -32.6914   23.9525 N   0  0  0  0  0  0  0  0  0  0  0  0
  -21.3719  -28.9961   22.5220 N   0  0  0  0  0  0  0  0  0  0  0  0
  -20.8314  -26.6061   19.8643 N   0  3  0  0  0  0  0  0  0  0  0  0
  -26.9232  -23.0100   22.1294 O   0  0  0  0  0  0  0  0  0  0  0  0
  -24.5234   -9.4975   16.4124 O   0  0  0  0  0  0  0  0  0  0  0  0
  -26.2058  -30.6577   25.0161 O   0  0  0  0  0  0  0  0  0  0  0  0
  -22.8936  -31.4196   22.6623 O   0  0  0  0  0  0  0  0  0  0  0  0
  -21.9977  -26.7657   22.4198 O   0  0  0  0  0  0  0  0  0  0  0  0
  -29.8554  -16.9346   19.9945 O   0  0  0  0  0  0  0  0  0  0  0  0
  -21.8395   -8.3768   23.6323 O   0  0  0  0  0  0  0  0  0  0  0  0
  -28.4938  -25.1309   23.6361 O   0  0  0  0  0  0  0  0  0  1  0  0
  -20.8887   -2.9567   23.2818 F   0  0  0  0  0  0  0  0  0  0  0  0
  -23.9861  -19.9499   20.0194 F   0  0  0  0  0  0  0  0  0  0  0  0
  -22.4957   -6.6840   25.7171 F   0  0  0  0  0  0  0  0  0  0  0  0
  -25.3779  -16.1900   18.9194 F   0  0  0  0  0  0  0  0  0  0  0  0
  -23.7046  -17.0742   19.9787 F   0  0  0  0  0  0  0  0  0  0  0  0
  -24.3125  -17.8748   18.0505 F   0  0  0  0  0  0  0  0  0  0  0  0
  1  2  1  0  0  0  0
  1  5  2  0  0  0  0
  2  6  2  0  0  0  0
  3  8  2  0  0  0  0
  3 17  1  0  0  0  0
  4  9  1  0  0  0  0
  4 17  2  0  0  0  0
  5 19  1  0  0  0  0
  6 21  1  0  0  0  0
  7 10  2  0  0  0  0
  7 20  1  0  0  0  0
  8 26  1  0  0  0  0
  9 26  2  0  0  0  0
 10 27  1  0  0  0  0
 11 12  2  0  0  0  0
 11 28  1  0  0  0  0
 12 29  1  0  0  0  0
 13 22  1  0  0  0  0
 13 27  2  0  0  0  0
 14 24  2  0  0  0  0
 14 25  1  0  0  0  0
 15 24  1  0  0  0  0
 15 30  2  0  0  0  0
 16 29  2  0  0  0  0
 16 31  1  0  0  0  0
 17 32  1  0  0  0  0
 18 32  1  0  0  0  0
 18 33  2  0  0  0  0
 18 35  1  0  0  0  0
 19 21  2  0  0  0  0
 19 40  1  0  0  0  0
 20 22  2  0  0  0  0
 20 41  1  0  0  0  0
 21 51  1  0  0  0  0
 22 42  1  0  0  0  0
 23 25  2  0  0  0  0
 23 30  1  0  0  0  0
 23 63  1  0  0  0  0
 24 67  1  0  0  0  0
 25 72  1  0  0  0  0
 26 82  1  0  0  0  0
 27 83  1  0  0  0  0
 28 31  2  0  0  0  0
 28 82  1  0  0  0  0
 29 84  1  0  0  0  0
 30 85  1  0  0  0  0
 31 86  1  0  0  0  0
 32 65  2  0  0  0  0
 33 66  1  0  0  0  0
 33 70  1  0  0  0  0
 34 52  1  0  0  0  0
 34 67  1  0  0  0  0
 34 76  2  0  0  0  0
 35 71  1  0  0  0  0
 35 77  2  0  0  0  0
 36 53  1  0  0  0  0
 36 73  1  0  0  0  0
 36 78  2  0  0  0  0
 37 61  1  0  0  0  0
 37 68  1  0  0  0  0
 37 79  2  0  0  0  0
 38 62  1  0  0  0  0
 38 74  1  0  0  0  0
 38 80  2  0  0  0  0
 39 69  1  0  0  0  0
 39 72  1  0  0  0  0
 39 81  2  0  0  0  0
 40 43  1  0  0  0  0
 41 53  1  0  0  0  0
 42 68  1  0  0  0  0
 43 45  1  0  0  0  0
 44 46  1  0  0  0  0
 44 48  1  0  0  0  0
 45 51  1  0  0  0  0
 46 54  1  0  0  0  0
 47 49  1  0  0  0  0
 47 52  1  0  0  0  0
 48 69  1  0  0  0  0
 49 67  1  0  0  0  0
 50 54  1  0  0  0  0
 50 69  1  0  0  0  0
 51 73  1  0  0  0  0
 52 60  1  0  0  0  0
 53 68  1  0  0  0  0
 54 66  1  0  0  0  0
 55 62  1  0  0  0  0
 56 64  1  0  0  0  0
 57 64  1  0  0  0  0
 58 64  1  0  0  0  0
 59 75  1  0  0  0  0
 60 83  1  0  0  0  0
 61 64  1  0  0  0  0
 61 74  1  0  0  0  0
 62 75  1  0  0  0  0
 63 87  1  0  0  0  0
 63 88  1  0  0  0  0
 63 89  1  0  0  0  0
 65 66  1  0  0  0  0
M  CHG  1  75   1
M  ISO  4  39 100  60 101  72 100  83 101
M  END
> <Batch ID>
0070

> <Smiles>
CNC(C)C(=O)NC(C(=O)N1Cc2cc([101O:1][101CH2:1]C3CCN(c4cc(F)c(C(F)(F)F)c([100NH:0][100C:0](=O)N5CCCC(n6nc(-c7ccc(Oc8ccc(F)cc8F)cc7)c(C(N)=O)c6N)C5)c4)C3=O)ccc2CC1C(=O)NC1CCCc2ccccc21)C(C)(C)C

> <Shape>
0.278

> <Color>
0.081

> <Negative vol penalty>
0.000

$$$$

  -OEChem-04042323323D

 87 96  0     1  0  0  0  0  0999 V2000
  -44.7410  -28.2636   22.4381 C   0  0  0  0  0  0  0  0  0  0  0  0
  -44.5972  -27.0248   23.0546 C   0  0  0  0  0  0  0  0  0  0  0  0
  -23.2549  -10.1346   22.1663 C   0  0  0  0  0  0  0  0  0  0  0  0
  -23.5037   -9.5607   19.8327 C   0  0  0  0  0  0  0  0  0  0  0  0
  -43.9201  -28.6063   21.3645 C   0  0  0  0  0  0  0  0  0  0  0  0
  -43.6314  -26.1283   22.5985 C   0  0  0  0  0  0  0  0  0  0  0  0
  -42.4424  -19.1032   21.8565 C   0  0  0  0  0  0  0  0  0  0  0  0
  -33.5459  -15.1248   24.2587 C   0  0  0  0  0  0  0  0  0  0  0  0
  -34.7078  -15.5854   23.6395 C   0  0  0  0  0  0  0  0  0  0  0  0
  -22.4952   -8.9824   22.3687 C   0  0  0  0  0  0  0  0  0  0  0  0
  -22.7439   -8.4085   20.0350 C   0  0  0  0  0  0  0  0  0  0  0  0
  -41.4925  -18.1325   22.1714 C   0  0  0  0  0  0  0  0  0  0  0  0
  -20.7937   -6.0062   23.5779 C   0  0  0  0  0  0  0  0  0  0  0  0
  -21.0764   -5.2325   24.7035 C   0  0  0  0  0  0  0  0  0  0  0  0
  -33.3712  -16.7613   22.0062 C   0  0  0  0  0  0  0  0  0  0  0  0
  -40.1841  -18.8010   20.2582 C   0  0  0  0  0  0  0  0  0  0  0  0
  -23.3327   -4.8980   23.9071 C   0  0  0  0  0  0  0  0  0  0  0  0
  -23.7591  -10.4237   20.8983 C   0  0  0  0  0  0  0  0  0  0  0  0
  -24.1396  -12.9462   20.8980 C   0  0  0  0  0  0  0  0  0  0  0  0
  -42.9503  -27.7097   20.8889 C   0  0  0  0  0  0  0  0  0  0  0  0
  -42.2645  -19.9388   20.7446 C   0  0  0  0  0  0  0  0  0  0  0  0
  -42.7958  -26.4598   21.5184 C   0  0  0  0  0  0  0  0  0  0  0  0
  -32.2093  -16.3007   22.6254 C   0  0  0  0  0  0  0  0  0  0  0  0
  -41.1344  -19.7798   19.9299 C   0  0  0  0  0  0  0  0  0  0  0  0
  -32.2966  -15.4825   23.7517 C   0  0  0  0  0  0  0  0  0  0  0  0
  -34.6205  -16.4036   22.5132 C   0  0  0  0  0  0  0  0  0  0  0  0
  -22.2397   -8.1194   21.3031 C   0  0  0  0  0  0  0  0  0  0  0  0
  -40.3617  -17.9831   21.3738 C   0  0  0  0  0  0  0  0  0  0  0  0
  -21.7805   -6.2258   22.6168 C   0  0  0  0  0  0  0  0  0  0  0  0
  -22.3458   -4.6784   24.8681 C   0  0  0  0  0  0  0  0  0  0  0  0
  -23.0500   -5.6717   22.7814 C   0  0  0  0  0  0  0  0  0  0  0  0
  -24.5435  -11.6140   20.6884 C   0  0  0  0  0  0  0  0  0  0  0  0
  -25.2385  -13.6960   20.5563 C   0  0  0  0  0  0  0  0  0  0  0  0
  -22.8834  -13.4600   21.3603 C   0  0  0  0  0  0  0  0  0  0  0  0
  -41.9319  -23.0718   20.3234 C   0  0  0  0  0  0  0  0  0  0  0  0
  -42.0722  -22.2707   17.1832 C   0  0  0  0  0  0  0  0  0  0  0  0
  -37.1149  -16.6169   22.2559 C   0  0  0  0  0  0  0  0  0  0  0  0
  -41.6393  -19.8875   14.7791 C   0  0  0  0  0  0  0  0  0  0  0  0
  -30.7399  -14.6206   20.7149 C   0  0  0  0  0  0  0  0  0  0  0  0
  -42.0543  -28.1434   19.7558 C   0  0  0  0  0  0  0  0  0  0  0  0
  -43.3116  -20.9633   20.4031 C   0  0  0  0  0  0  0  0  0  0  0  0
  -40.9066  -20.6381   18.7134 C   0  0  0  0  0  0  0  0  0  0  0  0
  -41.3078  -26.9884   19.0933 C   0  0  0  0  0  0  0  0  0  0  0  0
  -28.9153  -18.1883   22.1792 C   0  0  0  0  0  0  0  0  0  0  0  0
  -29.5416  -18.3392   20.7971 C   0  0  0  0  0  0  0  0  0  0  0  0
  -29.5315  -12.3750   18.2302 C   0  0  0  0  0  0  0  0  0  0  0  0
  -40.6931  -26.0747   20.1487 C   0  0  0  0  0  0  0  0  0  0  0  0
  -28.0957  -12.0821   18.6690 C   0  0  0  0  0  0  0  0  0  0  0  0
  -29.9638  -17.4896   23.0409 C   0  0  0  0  0  0  0  0  0  0  0  0
  -30.9359  -17.7265   20.8998 C   0  0  0  0  0  0  0  0  0  0  0  0
  -30.4685  -12.5219   19.4271 C   0  0  0  0  0  0  0  0  0  0  0  0
  -28.5980  -13.2124   20.8756 C   0  0  0  0  0  0  0  0  0  0  0  0
  -41.7764  -25.4505   21.0366 C   0  0  1  0  0  0  0  0  0  0  0  0
  -42.7744  -22.1029   19.5429 C   0  0  1  0  0  0  0  0  0  0  0  0
  -27.6050  -13.1113   19.7051 C   0  0  2  0  0  0  0  0  0  0  0  0
  -30.8571  -16.7059   22.0554 C   0  0  0  0  0  0  0  0  0  0  0  0
  -31.0667  -14.9765   24.4313 C   0  0  0  0  0  0  0  0  0  0  0  0
  -41.7960  -19.5403   12.2987 C   0  0  0  0  0  0  0  0  0  0  0  0
  -39.4518  -23.7881   16.8078 C   0  0  0  0  0  0  0  0  0  0  0  0
  -39.1780  -22.6307   14.6047 C   0  0  0  0  0  0  0  0  0  0  0  0
  -41.1295  -24.1369   14.9862 C   0  0  0  0  0  0  0  0  0  0  0  0
  -43.7119  -17.7971   15.0856 C   0  0  0  0  0  0  0  0  0  0  0  0
  -38.0808  -17.3123   21.3146 C   0  0  0  0  0  0  0  0  0  1  0  0
  -41.0597  -21.8844   16.1321 C   0  0  1  0  0  0  0  0  0  0  0  0
  -42.5258  -19.4438   13.6294 C   0  0  2  0  0  0  0  0  0  0  0  0
  -40.2078  -23.0950   15.6567 C   0  0  0  0  0  0  0  0  0  0  0  0
  -25.8008  -11.5197   20.2476 N   0  0  0  0  0  0  0  0  0  0  0  0
  -26.1964  -12.8022   20.1773 N   0  0  0  0  0  0  0  0  0  0  0  0
  -41.9558  -21.6297   18.4248 N   0  0  0  0  0  0  0  0  0  0  0  0
  -29.9467  -13.5136   20.3706 N   0  0  0  0  0  0  0  0  0  0  0  0
  -25.4691  -15.0261   20.5461 N   0  0  0  0  0  0  0  0  0  0  0  0
  -21.8949  -13.7601   20.4131 N   0  0  0  0  0  0  0  0  0  0  0  0
  -35.7990  -16.8727   21.8858 N   0  0  0  0  0  0  0  0  0  0  0  0
  -42.4305  -24.3604   20.3451 N   0  0  0  0  0  0  0  0  0  0  0  0
  -41.8080  -21.2253   15.0672 N   0  0  0  0  0  0  0  0  0  0  0  0
  -30.1673  -15.5155   21.6104 N   0  0  0  0  0  0  0  0  0  0  0  0
  -42.9607  -18.0319   13.8256 N   0  3  0  0  0  0  0  0  0  0  0  0
  -22.6504  -13.6628   22.5761 O   0  0  0  0  0  0  0  0  0  0  0  0
  -40.9047  -22.6797   20.8645 O   0  0  0  0  0  0  0  0  0  0  0  0
  -42.9389  -23.1049   16.9103 O   0  0  0  0  0  0  0  0  0  0  0  0
  -37.5117  -15.9366   23.1962 O   0  0  0  0  0  0  0  0  0  0  0  0
  -40.8711  -19.1245   15.3607 O   0  0  0  0  0  0  0  0  0  0  0  0
  -31.8721  -14.8009   20.2540 O   0  0  0  0  0  0  0  0  0  0  0  0
  -21.4986   -6.9949   21.5003 O   0  0  0  0  0  0  0  0  0  0  0  0
  -39.4327  -17.0368   21.6792 O   0  0  0  0  0  0  0  0  0  1  0  0
  -22.6175   -3.9366   25.9499 F   0  0  0  0  0  0  0  0  0  0  0  0
  -24.0025   -5.8802   21.8621 F   0  0  0  0  0  0  0  0  0  0  0  0
  1  2  1  0  0  0  0
  1  5  2  0  0  0  0
  2  6  2  0  0  0  0
  3 10  2  0  0  0  0
  3 18  1  0  0  0  0
  4 11  1  0  0  0  0
  4 18  2  0  0  0  0
  5 20  1  0  0  0  0
  6 22  1  0  0  0  0
  7 12  2  0  0  0  0
  7 21  1  0  0  0  0
  8  9  2  0  0  0  0
  8 25  1  0  0  0  0
  9 26  1  0  0  0  0
 10 27  1  0  0  0  0
 11 27  2  0  0  0  0
 12 28  1  0  0  0  0
 13 14  2  0  0  0  0
 13 29  1  0  0  0  0
 14 30  1  0  0  0  0
 15 23  1  0  0  0  0
 15 26  2  0  0  0  0
 16 24  1  0  0  0  0
 16 28  2  0  0  0  0
 17 30  2  0  0  0  0
 17 31  1  0  0  0  0
 18 32  1  0  0  0  0
 19 32  1  0  0  0  0
 19 33  2  0  0  0  0
 19 34  1  0  0  0  0
 20 22  2  0  0  0  0
 20 40  1  0  0  0  0
 21 24  2  0  0  0  0
 21 41  1  0  0  0  0
 22 53  1  0  0  0  0
 23 25  2  0  0  0  0
 23 56  1  0  0  0  0
 24 42  1  0  0  0  0
 25 57  1  0  0  0  0
 26 73  1  0  0  0  0
 27 84  1  0  0  0  0
 28 85  1  0  0  0  0
 29 31  2  0  0  0  0
 29 84  1  0  0  0  0
 30 86  1  0  0  0  0
 31 87  1  0  0  0  0
 32 67  2  0  0  0  0
 33 68  1  0  0  0  0
 33 71  1  0  0  0  0
 34 72  1  0  0  0  0
 34 78  2  0  0  0  0
 35 54  1  0  0  0  0
 35 74  1  0  0  0  0
 35 79  2  0  0  0  0
 36 64  1  0  0  0  0
 36 69  1  0  0  0  0
 36 80  2  0  0  0  0
 37 63  1  0  0  0  0
 37 73  1  0  0  0  0
 37 81  2  0  0  0  0
 38 65  1  0  0  0  0
 38 75  1  0  0  0  0
 38 82  2  0  0  0  0
 39 70  1  0  0  0  0
 39 76  1  0  0  0  0
 39 83  2  0  0  0  0
 40 43  1  0  0  0  0
 41 54  1  0  0  0  0
 42 69  1  0  0  0  0
 43 47  1  0  0  0  0
 44 45  1  0  0  0  0
 44 49  1  0  0  0  0
 45 50  1  0  0  0  0
 46 48  1  0  0  0  0
 46 51  1  0  0  0  0
 47 53  1  0  0  0  0
 48 55  1  0  0  0  0
 49 56  1  0  0  0  0
 50 56  1  0  0  0  0
 51 70  1  0  0  0  0
 52 55  1  0  0  0  0
 52 70  1  0  0  0  0
 53 74  1  0  0  0  0
 54 69  1  0  0  0  0
 55 68  1  0  0  0  0
 56 76  1  0  0  0  0
 58 65  1  0  0  0  0
 59 66  1  0  0  0  0
 60 66  1  0  0  0  0
 61 66  1  0  0  0  0
 62 77  1  0  0  0  0
 63 85  1  0  0  0  0
 64 66  1  0  0  0  0
 64 75  1  0  0  0  0
 65 77  1  0  0  0  0
 67 68  1  0  0  0  0
M  CHG  1  77   1
M  ISO  4  39 100  63 101  76 100  85 101
M  END
> <Batch ID>
0070

> <Smiles>
CNC(C)C(=O)NC(C(=O)N1Cc2cc([101O:1][101CH2:1]C(=O)Nc3ccc(C)c(C4([100NH:0][100C:0](=O)N5CCCC(n6nc(-c7ccc(Oc8ccc(F)cc8F)cc7)c(C(N)=O)c6N)C5)CCCC4)c3)ccc2CC1C(=O)NC1CCCc2ccccc21)C(C)(C)C

> <Shape>
0.182

> <Color>
0.173

> <Negative vol penalty>
0.000

$$$$

  -OEChem-04042323323D

 88 97  0     1  0  0  0  0  0999 V2000
  -16.6075  -30.0442   23.5469 C   0  0  0  0  0  0  0  0  0  0  0  0
  -17.7064  -30.7561   24.0172 C   0  0  0  0  0  0  0  0  0  0  0  0
  -27.4210  -15.5106   16.5445 C   0  0  0  0  0  0  0  0  0  0  0  0
  -26.4349  -17.5297   15.6568 C   0  0  0  0  0  0  0  0  0  0  0  0
  -31.5150  -25.9591   21.0853 C   0  0  0  0  0  0  0  0  0  0  0  0
  -16.7877  -28.7891   22.9670 C   0  0  0  0  0  0  0  0  0  0  0  0
  -18.9860  -30.2127   23.9088 C   0  0  0  0  0  0  0  0  0  0  0  0
  -25.8103  -32.1542   22.9207 C   0  0  0  0  0  0  0  0  0  0  0  0
  -31.4634  -26.5380   22.3533 C   0  0  0  0  0  0  0  0  0  0  0  0
  -26.6345  -14.7472   15.6818 C   0  0  0  0  0  0  0  0  0  0  0  0
  -25.6484  -16.7663   14.7941 C   0  0  0  0  0  0  0  0  0  0  0  0
  -27.0715  -31.9850   23.4904 C   0  0  0  0  0  0  0  0  0  0  0  0
  -24.6243  -12.2505   13.9643 C   0  0  0  0  0  0  0  0  0  0  0  0
  -23.9883  -11.1254   14.4888 C   0  0  0  0  0  0  0  0  0  0  0  0
  -27.2706  -29.8431   22.3986 C   0  0  0  0  0  0  0  0  0  0  0  0
  -29.9690  -24.7888   23.0911 C   0  0  0  0  0  0  0  0  0  0  0  0
  -22.8016  -12.5277   16.0580 C   0  0  0  0  0  0  0  0  0  0  0  0
  -27.3212  -16.9018   16.5320 C   0  0  0  0  0  0  0  0  0  0  0  0
  -30.7936  -24.7951   20.8201 C   0  0  0  0  0  0  0  0  0  0  0  0
  -29.4179  -18.2073   17.1701 C   0  0  0  0  0  0  0  0  0  0  0  0
  -18.0712  -28.2343   22.8427 C   0  0  0  0  0  0  0  0  0  0  0  0
  -25.2643  -31.1626   22.0931 C   0  0  0  0  0  0  0  0  0  0  0  0
  -19.1834  -28.9485   23.3279 C   0  0  0  0  0  0  0  0  0  0  0  0
  -26.0034  -30.0033   21.8176 C   0  0  0  0  0  0  0  0  0  0  0  0
  -30.6904  -25.9529   23.3562 C   0  0  0  0  0  0  0  0  0  0  0  0
  -30.0206  -24.2099   21.8230 C   0  0  0  0  0  0  0  0  0  0  0  0
  -25.7482  -15.3750   14.8066 C   0  0  0  0  0  0  0  0  0  0  0  0
  -27.8007  -30.8280   23.2317 C   0  0  0  0  0  0  0  0  0  0  0  0
  -24.3491  -13.5143   14.4867 C   0  0  0  0  0  0  0  0  0  0  0  0
  -23.0769  -11.2640   15.5356 C   0  0  0  0  0  0  0  0  0  0  0  0
  -23.4377  -13.6529   15.5336 C   0  0  0  0  0  0  0  0  0  0  0  0
  -28.1330  -17.6909   17.4233 C   0  0  0  0  0  0  0  0  0  0  0  0
  -29.7516  -18.8775   18.3216 C   0  0  0  0  0  0  0  0  0  0  0  0
  -29.9074  -26.0758   25.7604 C   0  0  0  0  0  0  0  0  0  0  0  0
  -30.5340  -24.8729   18.3825 C   0  0  0  0  0  0  0  0  0  0  0  0
  -30.8725  -24.2191   19.4828 C   0  0  0  0  0  0  0  0  0  0  0  0
  -30.2365  -18.0916   15.9988 C   0  0  0  0  0  0  0  0  0  0  0  0
  -22.6909  -29.3011   22.2206 C   0  0  0  0  0  0  0  0  0  0  0  0
  -23.6470  -28.4384   19.2434 C   0  0  0  0  0  0  0  0  0  0  0  0
  -26.1898  -28.1580   16.9846 C   0  0  0  0  0  0  0  0  0  0  0  0
  -28.4675  -22.3412   22.4878 C   0  0  0  0  0  0  0  0  0  0  0  0
  -18.2112  -26.8539   22.2515 C   0  0  0  0  0  0  0  0  0  0  0  0
  -23.9138  -31.3722   21.4649 C   0  0  0  0  0  0  0  0  0  0  0  0
  -25.4706  -28.9178   20.9197 C   0  0  0  0  0  0  0  0  0  0  0  0
  -30.2393  -26.9674   26.9367 C   0  0  0  0  0  0  0  0  0  0  0  0
  -19.6393  -26.5117   21.8348 C   0  0  0  0  0  0  0  0  0  0  0  0
  -27.5237  -18.9290   22.8664 C   0  0  0  0  0  0  0  0  0  0  0  0
  -20.6229  -26.8942   22.9362 C   0  0  0  0  0  0  0  0  0  0  0  0
  -27.7037  -18.3452   21.4633 C   0  0  0  0  0  0  0  0  0  0  0  0
  -27.0003  -20.3635   22.8210 C   0  0  0  0  0  0  0  0  0  0  0  0
  -27.9579  -20.6979   20.5759 C   0  0  0  0  0  0  0  0  0  0  0  0
  -31.4291  -27.7144   24.9995 C   0  0  0  0  0  0  0  0  0  0  0  0
  -20.5898  -28.4034   23.2058 C   0  0  1  0  0  0  0  0  0  0  0  0
  -23.2387  -30.0683   21.0506 C   0  0  1  0  0  0  0  0  0  0  0  0
  -28.5449  -19.2769   20.5689 C   0  0  2  0  0  0  0  0  0  0  0  0
  -30.8167  -28.2148   26.2931 C   0  0  1  0  0  0  0  0  0  0  0  0
  -26.6717  -27.3828   14.6470 C   0  0  0  0  0  0  0  0  0  0  0  0
  -23.5438  -25.5384   20.1865 C   0  0  0  0  0  0  0  0  0  0  0  0
  -24.9110  -24.9118   18.1848 C   0  0  0  0  0  0  0  0  0  0  0  0
  -22.6487  -25.9185   17.8824 C   0  0  0  0  0  0  0  0  0  0  0  0
  -27.0568  -30.8598   16.1432 C   0  0  0  0  0  0  0  0  0  0  0  0
  -29.2632  -31.2777   25.0523 C   0  0  0  0  0  0  0  0  0  1  0  0
  -30.2760  -30.4564   25.8264 C   0  0  0  0  0  0  0  0  0  0  0  0
  -24.5565  -27.3738   18.6792 C   0  0  1  0  0  0  0  0  0  0  0  0
  -26.2903  -28.5643   15.5254 C   0  0  2  0  0  0  0  0  0  0  0  0
  -23.9245  -25.9550   18.7517 C   0  0  0  0  0  0  0  0  0  0  0  0
  -27.6813  -18.0059   18.6402 N   0  0  0  0  0  0  0  0  0  0  0  0
  -28.6879  -18.7274   19.1619 N   0  0  0  0  0  0  0  0  0  0  0  0
  -30.6375  -26.5463   24.6535 N   0  0  0  0  0  0  0  0  0  0  0  0
  -24.1429  -29.1664   20.3342 N   0  0  0  0  0  0  0  0  0  0  0  0
  -27.8491  -21.1887   21.9587 N   0  0  0  0  0  0  0  0  0  0  0  0
  -30.8483  -19.5747   18.6872 N   0  0  0  0  0  0  0  0  0  0  0  0
  -29.7405  -17.3680   14.9058 N   0  0  0  0  0  0  0  0  0  0  0  0
  -29.2768  -23.0280   21.5834 N   0  0  0  0  0  0  0  0  0  0  0  0
  -21.3221  -29.1160   22.1808 N   0  0  0  0  0  0  0  0  0  0  0  0
  -24.9021  -27.8056   17.3292 N   0  0  0  0  0  0  0  0  0  0  0  0
  -27.3188  -29.6289   15.3537 N   0  3  0  0  0  0  0  0  0  0  0  0
  -29.1714  -25.1049   25.8626 O   0  0  0  0  0  0  0  0  0  0  0  0
  -31.3810  -18.6006   15.9296 O   0  0  0  0  0  0  0  0  0  0  0  0
  -23.4538  -28.9051   23.0940 O   0  0  0  0  0  0  0  0  0  0  0  0
  -22.5403  -28.6222   18.7305 O   0  0  0  0  0  0  0  0  0  0  0  0
  -27.1577  -28.1503   17.7420 O   0  0  0  0  0  0  0  0  0  0  0  0
  -28.3138  -22.6779   23.6647 O   0  0  0  0  0  0  0  0  0  0  0  0
  -24.9808  -14.6305   13.9644 O   0  0  0  0  0  0  0  0  0  0  0  0
  -29.0317  -30.6601   23.7869 O   0  0  0  0  0  0  0  0  0  1  0  0
  -29.7734  -29.1362   25.9933 O   0  0  0  0  0  0  0  0  0  0  0  0
  -22.4650  -10.1836   16.0381 F   0  0  0  0  0  0  0  0  0  0  0  0
  -23.1683  -14.8645   16.0388 F   0  0  0  0  0  0  0  0  0  0  0  0
  1  2  1  0  0  0  0
  1  6  2  0  0  0  0
  2  7  2  0  0  0  0
  3 10  2  0  0  0  0
  3 18  1  0  0  0  0
  4 11  1  0  0  0  0
  4 18  2  0  0  0  0
  5  9  2  0  0  0  0
  5 19  1  0  0  0  0
  6 21  1  0  0  0  0
  7 23  1  0  0  0  0
  8 12  2  0  0  0  0
  8 22  1  0  0  0  0
  9 25  1  0  0  0  0
 10 27  1  0  0  0  0
 11 27  2  0  0  0  0
 12 28  1  0  0  0  0
 13 14  2  0  0  0  0
 13 29  1  0  0  0  0
 14 30  1  0  0  0  0
 15 24  1  0  0  0  0
 15 28  2  0  0  0  0
 16 25  2  0  0  0  0
 16 26  1  0  0  0  0
 17 30  2  0  0  0  0
 17 31  1  0  0  0  0
 18 32  1  0  0  0  0
 19 26  2  0  0  0  0
 19 36  1  0  0  0  0
 20 32  1  0  0  0  0
 20 33  2  0  0  0  0
 20 37  1  0  0  0  0
 21 23  2  0  0  0  0
 21 42  1  0  0  0  0
 22 24  2  0  0  0  0
 22 43  1  0  0  0  0
 23 53  1  0  0  0  0
 24 44  1  0  0  0  0
 25 69  1  0  0  0  0
 26 74  1  0  0  0  0
 27 84  1  0  0  0  0
 28 85  1  0  0  0  0
 29 31  2  0  0  0  0
 29 84  1  0  0  0  0
 30 87  1  0  0  0  0
 31 88  1  0  0  0  0
 32 67  2  0  0  0  0
 33 68  1  0  0  0  0
 33 72  1  0  0  0  0
 34 45  1  0  0  0  0
 34 69  1  0  0  0  0
 34 78  2  0  0  0  0
 35 36  2  0  0  0  0
 37 73  1  0  0  0  0
 37 79  2  0  0  0  0
 38 54  1  0  0  0  0
 38 75  1  0  0  0  0
 38 80  2  0  0  0  0
 39 64  1  0  0  0  0
 39 70  1  0  0  0  0
 39 81  2  0  0  0  0
 40 65  1  0  0  0  0
 40 76  1  0  0  0  0
 40 82  2  0  0  0  0
 41 71  1  0  0  0  0
 41 74  1  0  0  0  0
 41 83  2  0  0  0  0
 42 46  1  0  0  0  0
 43 54  1  0  0  0  0
 44 70  1  0  0  0  0
 45 56  1  0  0  0  0
 46 48  1  0  0  0  0
 47 49  1  0  0  0  0
 47 50  1  0  0  0  0
 48 53  1  0  0  0  0
 49 55  1  0  0  0  0
 50 71  1  0  0  0  0
 51 55  1  0  0  0  0
 51 71  1  0  0  0  0
 52 56  1  0  0  0  0
 52 69  1  0  0  0  0
 53 75  1  0  0  0  0
 54 70  1  0  0  0  0
 55 68  1  0  0  0  0
 56 86  1  0  0  0  0
 57 65  1  0  0  0  0
 58 66  1  0  0  0  0
 59 66  1  0  0  0  0
 60 66  1  0  0  0  0
 61 77  1  0  0  0  0
 62 63  1  0  0  0  0
 62 85  1  0  0  0  0
 63 86  1  0  0  0  0
 64 66  1  0  0  0  0
 64 76  1  0  0  0  0
 65 77  1  0  0  0  0
 67 68  1  0  0  0  0
M  CHG  1  77   1
M  ISO  4  41 100  62 101  74 100  85 101
M  END
> <Batch ID>
0070

> <Smiles>
C=Cc1ccc(N2CC(OC[101CH2:1][101O:1]c3ccc4c(c3)CN(C(=O)C(NC(=O)C(C)NC)C(C)(C)C)C(C(=O)NC3CCCc5ccccc53)C4)CC2=O)cc1[100NH:0][100C:0](=O)N1CCCC(n2nc(-c3ccc(Oc4ccc(F)cc4F)cc3)c(C(N)=O)c2N)C1

> <Shape>
0.213

> <Color>
0.089

> <Negative vol penalty>
0.000

$$$$

  -OEChem-04042323323D

 84 92  0     1  0  0  0  0  0999 V2000
  -20.9382  -31.4240   22.8088 C   0  0  0  0  0  0  0  0  0  0  0  0
  -21.6238  -30.3215   23.3087 C   0  0  0  0  0  0  0  0  0  0  0  0
  -23.2505   -9.6691   20.1483 C   0  0  0  0  0  0  0  0  0  0  0  0
  -23.7134  -10.1329   22.4737 C   0  0  0  0  0  0  0  0  0  0  0  0
  -19.5443  -31.4214   22.7780 C   0  0  0  0  0  0  0  0  0  0  0  0
  -20.9157  -29.2161   23.7791 C   0  0  0  0  0  0  0  0  0  0  0  0
  -22.8582  -24.8303   22.1555 C   0  0  0  0  0  0  0  0  0  0  0  0
  -22.5268   -8.5356   20.5184 C   0  0  0  0  0  0  0  0  0  0  0  0
  -22.9896   -8.9994   22.8439 C   0  0  0  0  0  0  0  0  0  0  0  0
  -24.0023  -24.3629   22.8008 C   0  0  0  0  0  0  0  0  0  0  0  0
  -19.7450   -8.1247   23.2011 C   0  0  0  0  0  0  0  0  0  0  0  0
  -18.8481   -8.2482   24.2622 C   0  0  0  0  0  0  0  0  0  0  0  0
  -22.6439  -22.8537   24.1032 C   0  0  0  0  0  0  0  0  0  0  0  0
  -29.2916  -18.1135   22.6610 C   0  0  0  0  0  0  0  0  0  0  0  0
  -31.0778  -19.3105   23.7625 C   0  0  0  0  0  0  0  0  0  0  0  0
  -31.5641  -17.3094   22.4992 C   0  0  0  0  0  0  0  0  0  0  0  0
  -20.0614   -6.5540   25.4848 C   0  0  0  0  0  0  0  0  0  0  0  0
  -23.8439  -10.4677   21.1259 C   0  0  0  0  0  0  0  0  0  0  0  0
  -24.0988  -12.9469   20.5816 C   0  0  0  0  0  0  0  0  0  0  0  0
  -18.8190  -30.3115   23.2392 C   0  0  0  0  0  0  0  0  0  0  0  0
  -21.5951  -24.3197   22.4875 C   0  0  0  0  0  0  0  0  0  0  0  0
  -19.5108  -29.1992   23.7556 C   0  0  0  0  0  0  0  0  0  0  0  0
  -21.4857  -23.3144   23.4588 C   0  0  0  0  0  0  0  0  0  0  0  0
  -29.7249  -19.1795   23.4493 C   0  0  0  0  0  0  0  0  0  0  0  0
  -30.2112  -17.1784   22.1859 C   0  0  0  0  0  0  0  0  0  0  0  0
  -22.3963   -8.2007   21.8662 C   0  0  0  0  0  0  0  0  0  0  0  0
  -23.8950  -23.3766   23.7768 C   0  0  0  0  0  0  0  0  0  0  0  0
  -20.8000   -7.2158   23.2818 C   0  0  0  0  0  0  0  0  0  0  0  0
  -19.0064   -7.4629   25.4041 C   0  0  0  0  0  0  0  0  0  0  0  0
  -31.9974  -18.3754   23.2875 C   0  0  0  0  0  0  0  0  0  0  0  0
  -20.9583   -6.4305   24.4237 C   0  0  0  0  0  0  0  0  0  0  0  0
  -24.5921  -11.6385   20.7442 C   0  0  0  0  0  0  0  0  0  0  0  0
  -25.1979  -13.6852   20.2164 C   0  0  0  0  0  0  0  0  0  0  0  0
  -25.6672  -21.8526   23.8625 C   0  0  0  0  0  0  0  0  0  1  0  0
  -22.7663  -13.4500   20.7459 C   0  0  0  0  0  0  0  0  0  0  0  0
  -26.7724  -21.3214   24.3992 C   0  0  0  0  0  0  0  0  0  0  0  0
  -27.4201  -20.1511   23.7215 C   0  0  0  0  0  0  0  0  0  0  0  0
  -18.9227  -25.5519   23.6890 C   0  0  0  0  0  0  0  0  0  0  0  0
  -17.7487  -22.5878   23.0905 C   0  0  0  0  0  0  0  0  0  0  0  0
  -18.3705  -19.2639   22.6304 C   0  0  0  0  0  0  0  0  0  0  0  0
  -30.5528  -15.0804   20.8340 C   0  0  0  0  0  0  0  0  0  0  0  0
  -17.3121  -30.3741   23.2296 C   0  0  0  0  0  0  0  0  0  0  0  0
  -20.3735  -24.8154   21.7632 C   0  0  0  0  0  0  0  0  0  0  0  0
  -20.1550  -22.7190   23.8374 C   0  0  0  0  0  0  0  0  0  0  0  0
  -16.6449  -29.0117   23.4002 C   0  0  0  0  0  0  0  0  0  0  0  0
  -29.8425  -12.2179   18.8393 C   0  0  0  0  0  0  0  0  0  0  0  0
  -17.2965  -28.2373   24.5414 C   0  0  0  0  0  0  0  0  0  0  0  0
  -28.3726  -11.9196   19.1437 C   0  0  0  0  0  0  0  0  0  0  0  0
  -30.5886  -12.7139   20.0767 C   0  0  0  0  0  0  0  0  0  0  0  0
  -28.4953  -13.5547   21.0668 C   0  0  0  0  0  0  0  0  0  0  0  0
  -18.7787  -27.9713   24.2520 C   0  0  1  0  0  0  0  0  0  0  0  0
  -19.0830  -24.5908   22.5452 C   0  0  1  0  0  0  0  0  0  0  0  0
  -27.6868  -13.1139   19.8357 C   0  0  2  0  0  0  0  0  0  0  0  0
  -17.2061  -17.0835   22.1974 C   0  0  0  0  0  0  0  0  0  0  0  0
  -16.8504  -22.4916   26.0049 C   0  0  0  0  0  0  0  0  0  0  0  0
  -16.5764  -20.0145   25.7660 C   0  0  0  0  0  0  0  0  0  0  0  0
  -15.2000  -21.5598   24.3732 C   0  0  0  0  0  0  0  0  0  0  0  0
  -19.7967  -18.8785   20.0660 C   0  0  0  0  0  0  0  0  0  0  0  0
  -17.6626  -21.2954   23.8658 C   0  0  1  0  0  0  0  0  0  0  0  0
  -17.8931  -18.2870   21.5710 C   0  0  2  0  0  0  0  0  0  0  0  0
  -16.5974  -21.3527   24.9969 C   0  0  0  0  0  0  0  0  0  0  0  0
  -25.9024  -11.5476   20.5020 N   0  0  0  0  0  0  0  0  0  0  0  0
  -26.2419  -12.8082   20.1835 N   0  0  0  0  0  0  0  0  0  0  0  0
  -18.9892  -23.2411   23.1054 N   0  0  0  0  0  0  0  0  0  0  0  0
  -29.8831  -13.8485   20.6765 N   0  0  0  0  0  0  0  0  0  0  0  0
  -25.3635  -14.9926   19.9234 N   0  0  0  0  0  0  0  0  0  0  0  0
  -21.7563  -12.5551   21.1247 N   0  0  0  0  0  0  0  0  0  0  0  0
  -28.7920  -20.1288   23.9320 N   0  0  0  0  0  0  0  0  0  0  0  0
  -29.7713  -16.0952   21.3854 N   0  0  0  0  0  0  0  0  0  0  0  0
  -18.9222  -26.8811   23.3110 N   0  0  0  0  0  0  0  0  0  0  0  0
  -17.4330  -20.2434   22.8815 N   0  0  0  0  0  0  0  0  0  0  0  0
  -19.0438  -17.8010   20.7583 N   0  3  0  0  0  0  0  0  0  0  0  0
  -22.4766  -14.6540   20.5465 O   0  0  0  0  0  0  0  0  0  0  0  0
  -26.7540  -19.3496   23.0752 O   0  0  0  0  0  0  0  0  0  0  0  0
  -18.8064  -25.1196   24.8297 O   0  0  0  0  0  0  0  0  0  0  0  0
  -16.7540  -22.9988   22.4877 O   0  0  0  0  0  0  0  0  0  0  0  0
  -19.4640  -19.1656   23.1828 O   0  0  0  0  0  0  0  0  0  0  0  0
  -31.7245  -15.2321   20.4788 O   0  0  0  0  0  0  0  0  0  0  0  0
  -27.3443  -21.8101   25.5562 O   0  0  0  0  0  0  0  0  0  0  0  0
  -21.6900   -7.0949   22.2277 O   0  0  0  0  0  0  0  0  0  0  0  0
  -25.0101  -22.9191   24.4087 O   0  0  0  0  0  0  0  0  0  1  0  0
  -18.1460   -7.5827   26.4237 F   0  0  0  0  0  0  0  0  0  0  0  0
  -33.2966  -18.5006   23.5888 F   0  0  0  0  0  0  0  0  0  0  0  0
  -21.9706   -5.5564   24.5075 F   0  0  0  0  0  0  0  0  0  0  0  0
  1  2  1  0  0  0  0
  1  5  2  0  0  0  0
  2  6  2  0  0  0  0
  3  8  2  0  0  0  0
  3 18  1  0  0  0  0
  4  9  1  0  0  0  0
  4 18  2  0  0  0  0
  5 20  1  0  0  0  0
  6 22  1  0  0  0  0
  7 10  2  0  0  0  0
  7 21  1  0  0  0  0
  8 26  1  0  0  0  0
  9 26  2  0  0  0  0
 10 27  1  0  0  0  0
 11 12  2  0  0  0  0
 11 28  1  0  0  0  0
 12 29  1  0  0  0  0
 13 23  1  0  0  0  0
 13 27  2  0  0  0  0
 14 24  2  0  0  0  0
 14 25  1  0  0  0  0
 15 24  1  0  0  0  0
 15 30  2  0  0  0  0
 16 25  2  0  0  0  0
 16 30  1  0  0  0  0
 17 29  2  0  0  0  0
 17 31  1  0  0  0  0
 18 32  1  0  0  0  0
 19 32  1  0  0  0  0
 19 33  2  0  0  0  0
 19 35  1  0  0  0  0
 20 22  2  0  0  0  0
 20 42  1  0  0  0  0
 21 23  2  0  0  0  0
 21 43  1  0  0  0  0
 22 51  1  0  0  0  0
 23 44  1  0  0  0  0
 24 68  1  0  0  0  0
 25 69  1  0  0  0  0
 26 80  1  0  0  0  0
 27 81  1  0  0  0  0
 28 31  2  0  0  0  0
 28 80  1  0  0  0  0
 29 82  1  0  0  0  0
 30 83  1  0  0  0  0
 31 84  1  0  0  0  0
 32 62  2  0  0  0  0
 33 63  1  0  0  0  0
 33 66  1  0  0  0  0
 34 36  2  0  0  0  0
 34 81  1  0  0  0  0
 35 67  1  0  0  0  0
 35 73  2  0  0  0  0
 36 37  1  0  0  0  0
 36 79  1  0  0  0  0
 37 68  1  0  0  0  0
 37 74  2  0  0  0  0
 38 52  1  0  0  0  0
 38 70  1  0  0  0  0
 38 75  2  0  0  0  0
 39 59  1  0  0  0  0
 39 64  1  0  0  0  0
 39 76  2  0  0  0  0
 40 60  1  0  0  0  0
 40 71  1  0  0  0  0
 40 77  2  0  0  0  0
 41 65  1  0  0  0  0
 41 69  1  0  0  0  0
 41 78  2  0  0  0  0
 42 45  1  0  0  0  0
 43 52  1  0  0  0  0
 44 64  1  0  0  0  0
 45 47  1  0  0  0  0
 46 48  1  0  0  0  0
 46 49  1  0  0  0  0
 47 51  1  0  0  0  0
 48 53  1  0  0  0  0
 49 65  1  0  0  0  0
 50 53  1  0  0  0  0
 50 65  1  0  0  0  0
 51 70  1  0  0  0  0
 52 64  1  0  0  0  0
 53 63  1  0  0  0  0
 54 60  1  0  0  0  0
 55 61  1  0  0  0  0
 56 61  1  0  0  0  0
 57 61  1  0  0  0  0
 58 72  1  0  0  0  0
 59 61  1  0  0  0  0
 59 71  1  0  0  0  0
 60 72  1  0  0  0  0
 62 63  1  0  0  0  0
M  CHG  1  72   1
M  ISO  4  34 101  41 100  69 100  81 101
M  END
> <Batch ID>
0070

> <Smiles>
CNC(C)C(=O)NC(C(=O)N1Cc2cc([101O:1][101CH2:1]C(=O)C(=O)Nc3cc(F)cc([100NH:0][100C:0](=O)N4CCCC(n5nc(-c6ccc(Oc7ccc(F)cc7F)cc6)c(C(N)=O)c5N)C4)c3)ccc2CC1C(=O)NC1CCCc2ccccc21)C(C)(C)C

> <Shape>
0.217

> <Color>
0.176

> <Negative vol penalty>
0.000

$$$$

  -OEChem-04042323323D

 91100  0     1  0  0  0  0  0999 V2000
  -26.5652  -23.4805   17.8521 C   0  0  0  0  0  0  0  0  0  0  0  0
  -25.4498  -24.0502   18.4576 C   0  0  0  0  0  0  0  0  0  0  0  0
  -27.1006  -13.0038   20.2879 C   0  0  0  0  0  0  0  0  0  0  0  0
  -24.7865  -13.6935   20.3669 C   0  0  0  0  0  0  0  0  0  0  0  0
  -20.7669  -23.2901   20.9984 C   0  0  0  0  0  0  0  0  0  0  0  0
  -27.8403  -23.7526   18.3459 C   0  0  0  0  0  0  0  0  0  0  0  0
  -25.6089  -24.8916   19.5582 C   0  0  0  0  0  0  0  0  0  0  0  0
  -22.7668  -29.0705   19.2357 C   0  0  0  0  0  0  0  0  0  0  0  0
  -19.9207  -24.3713   21.2444 C   0  0  0  0  0  0  0  0  0  0  0  0
  -26.7710  -11.8222   20.9518 C   0  0  0  0  0  0  0  0  0  0  0  0
  -24.4569  -12.5119   21.0307 C   0  0  0  0  0  0  0  0  0  0  0  0
  -21.4117  -28.9438   19.5376 C   0  0  0  0  0  0  0  0  0  0  0  0
  -23.9290   -9.2713   20.2305 C   0  0  0  0  0  0  0  0  0  0  0  0
  -22.7968   -8.5809   19.7981 C   0  0  0  0  0  0  0  0  0  0  0  0
  -21.8243  -29.8408   21.7386 C   0  0  0  0  0  0  0  0  0  0  0  0
  -21.5183  -25.2625   22.8225 C   0  0  0  0  0  0  0  0  0  0  0  0
  -21.8120   -8.8225   21.9910 C   0  0  0  0  0  0  0  0  0  0  0  0
  -26.1083  -13.9395   19.9955 C   0  0  0  0  0  0  0  0  0  0  0  0
  -21.9888  -23.1950   21.6645 C   0  0  0  0  0  0  0  0  0  0  0  0
  -26.4654  -15.3785   17.9196 C   0  0  0  0  0  0  0  0  0  0  0  0
  -28.0158  -24.6054   19.4470 C   0  0  0  0  0  0  0  0  0  0  0  0
  -23.6643  -29.5740   20.1883 C   0  0  0  0  0  0  0  0  0  0  0  0
  -26.8875  -25.1743   20.0680 C   0  0  0  0  0  0  0  0  0  0  0  0
  -23.1900  -29.9753   21.4454 C   0  0  0  0  0  0  0  0  0  0  0  0
  -22.3645  -24.1813   22.5765 C   0  0  0  0  0  0  0  0  0  0  0  0
  -20.2964  -25.3575   22.1564 C   0  0  0  0  0  0  0  0  0  0  0  0
  -25.4492  -11.5762   21.3232 C   0  0  0  0  0  0  0  0  0  0  0  0
  -20.9407  -29.3262   20.7902 C   0  0  0  0  0  0  0  0  0  0  0  0
  -24.0028   -9.7372   21.5432 C   0  0  0  0  0  0  0  0  0  0  0  0
  -21.7383   -8.3565   20.6783 C   0  0  0  0  0  0  0  0  0  0  0  0
  -22.9443   -9.5129   22.4234 C   0  0  0  0  0  0  0  0  0  0  0  0
  -26.4481  -15.1606   19.3103 C   0  0  0  0  0  0  0  0  0  0  0  0
  -26.8507  -16.6897   17.7822 C   0  0  0  0  0  0  0  0  0  0  0  0
  -17.2421  -27.6013   22.5324 C   0  0  0  0  0  0  0  0  0  0  0  0
  -17.7735  -28.8362   22.5741 C   0  0  0  0  0  0  0  0  0  0  0  0
  -18.0306  -26.3574   22.3020 C   0  0  0  0  0  0  0  0  0  0  0  0
  -23.5684  -23.4762   24.3875 C   0  0  0  0  0  0  0  0  0  0  0  0
  -22.8699  -22.0317   21.3824 C   0  0  0  0  0  0  0  0  0  0  0  0
  -26.1604  -14.4763   16.8478 C   0  0  0  0  0  0  0  0  0  0  0  0
  -26.2163  -28.4237   21.6941 C   0  0  0  0  0  0  0  0  0  0  0  0
  -26.4370  -31.4582   22.8188 C   0  0  0  0  0  0  0  0  0  0  0  0
  -24.8691  -34.4035   23.5357 C   0  0  0  0  0  0  0  0  0  0  0  0
  -26.4572  -21.4444   21.4100 C   0  0  0  0  0  0  0  0  0  0  0  0
  -29.4104  -24.8322   19.9745 C   0  0  0  0  0  0  0  0  0  0  0  0
  -25.1187  -29.7295   19.8377 C   0  0  0  0  0  0  0  0  0  0  0  0
  -24.1090  -30.5408   22.4962 C   0  0  0  0  0  0  0  0  0  0  0  0
  -29.5194  -26.0320   20.9120 C   0  0  0  0  0  0  0  0  0  0  0  0
  -29.4187  -20.0867   19.9624 C   0  0  0  0  0  0  0  0  0  0  0  0
  -28.3885  -26.0142   21.9355 C   0  0  0  0  0  0  0  0  0  0  0  0
  -28.9971  -18.6888   19.5081 C   0  0  0  0  0  0  0  0  0  0  0  0
  -28.7370  -20.4831   21.2697 C   0  0  0  0  0  0  0  0  0  0  0  0
  -20.0039  -27.7100   22.9507 C   0  0  0  0  0  0  0  0  0  0  0  0
  -26.8391  -18.9810   20.7986 C   0  0  0  0  0  0  0  0  0  0  0  0
  -27.0210  -26.1118   21.2484 C   0  0  1  0  0  0  0  0  0  0  0  0
  -19.2789  -28.9631   22.4561 C   0  0  1  0  0  0  0  0  0  1  0  0
  -26.0271  -29.7739   21.0626 C   0  0  1  0  0  0  0  0  0  0  0  0
  -27.4635  -18.5561   19.4581 C   0  0  2  0  0  0  0  0  0  0  0  0
  -24.8139  -23.3286   25.2033 C   0  0  0  0  0  0  0  0  0  0  0  0
  -25.3035  -36.6871   24.4811 C   0  0  0  0  0  0  0  0  0  0  0  0
  -26.5116  -30.2771   25.6312 C   0  0  0  0  0  0  0  0  0  0  0  0
  -25.9887  -32.5559   26.5268 C   0  0  0  0  0  0  0  0  0  0  0  0
  -28.0990  -32.1722   25.2532 C   0  0  0  0  0  0  0  0  0  0  0  0
  -24.0674  -35.7273   21.0131 C   0  0  0  0  0  0  0  0  0  0  0  0
  -25.8930  -32.1960   24.0183 C   0  0  1  0  0  0  0  0  0  0  0  0
  -25.2345  -35.8424   23.2184 C   0  0  2  0  0  0  0  0  0  0  0  0
  -26.6058  -31.7879   25.3385 C   0  0  0  0  0  0  0  0  0  0  0  0
  -26.7950  -16.2463   20.0067 N   0  0  0  0  0  0  0  0  0  0  0  0
  -23.5873  -24.1043   23.2556 N   0  0  0  0  0  0  0  0  0  0  0  0
  -27.0339  -17.1591   19.0496 N   0  0  0  0  0  0  0  0  0  0  0  0
  -19.4217  -26.4761   22.4096 N   0  0  0  0  0  0  0  0  0  0  0  0
  -25.5234  -30.6673   22.1077 N   0  0  0  0  0  0  0  0  0  0  0  0
  -27.2836  -20.3357   21.1610 N   0  0  0  0  0  0  0  0  0  0  0  0
  -27.0473  -17.4753   16.7022 N   0  0  0  0  0  0  0  0  0  0  0  0
  -25.7812  -13.1651   17.1656 N   0  0  0  0  0  0  0  0  0  0  0  0
  -24.2266  -22.2606   21.5100 N   0  0  0  0  0  0  0  0  0  0  0  0
  -26.7545  -27.4758   20.8447 N   0  0  0  0  0  0  0  0  0  0  0  0
  -25.9893  -33.6169   23.7018 N   0  0  0  0  0  0  0  0  0  0  0  0
  -25.0959  -21.2167   21.2824 N   0  0  0  0  0  0  0  0  0  0  0  0
  -24.2225  -36.4444   22.3049 N   0  3  0  0  0  0  0  0  0  0  0  0
  -17.2102  -29.9561   22.7225 O   0  5  0  0  0  0  0  0  0  0  0  0
  -17.3965  -25.3270   22.0753 O   0  0  0  0  0  0  0  0  0  0  0  0
  -22.3652  -20.9539   21.0770 O   0  0  0  0  0  0  0  0  0  0  0  0
  -26.2382  -14.8181   15.6433 O   0  0  0  0  0  0  0  0  0  0  0  0
  -25.8990  -28.2548   22.8656 O   0  0  0  0  0  0  0  0  0  0  0  0
  -27.6269  -31.5848   22.5195 O   0  0  0  0  0  0  0  0  0  0  0  0
  -23.7064  -34.0169   23.6307 O   0  0  0  0  0  0  0  0  0  0  0  0
  -26.9051  -22.5537   21.7207 O   0  0  0  0  0  0  0  0  0  0  0  0
  -25.1273  -10.4231   21.9708 O   0  0  0  0  0  0  0  0  0  0  0  0
  -19.6185  -29.2029   21.0877 O   0  0  0  0  0  0  0  0  0  1  0  0
  -20.6504   -7.6949   20.2625 F   0  0  0  0  0  0  0  0  0  0  0  0
  -23.0089   -9.9591   23.6854 F   0  0  0  0  0  0  0  0  0  0  0  0
  1  2  1  0  0  0  0
  1  6  2  0  0  0  0
  2  7  2  0  0  0  0
  3 10  2  0  0  0  0
  3 18  1  0  0  0  0
  4 11  1  0  0  0  0
  4 18  2  0  0  0  0
  5  9  2  0  0  0  0
  5 19  1  0  0  0  0
  6 21  1  0  0  0  0
  7 23  1  0  0  0  0
  8 12  2  0  0  0  0
  8 22  1  0  0  0  0
  9 26  1  0  0  0  0
 10 27  1  0  0  0  0
 11 27  2  0  0  0  0
 12 28  1  0  0  0  0
 13 14  2  0  0  0  0
 13 29  1  0  0  0  0
 14 30  1  0  0  0  0
 15 24  1  0  0  0  0
 15 28  2  0  0  0  0
 16 25  1  0  0  0  0
 16 26  2  0  0  0  0
 17 30  2  0  0  0  0
 17 31  1  0  0  0  0
 18 32  1  0  0  0  0
 19 25  2  0  0  0  0
 19 38  1  0  0  0  0
 20 32  1  0  0  0  0
 20 33  2  0  0  0  0
 20 39  1  0  0  0  0
 21 23  2  0  0  0  0
 21 44  1  0  0  0  0
 22 24  2  0  0  0  0
 22 45  1  0  0  0  0
 23 54  1  0  0  0  0
 24 46  1  0  0  0  0
 25 68  1  0  0  0  0
 26 70  1  0  0  0  0
 27 88  1  0  0  0  0
 28 89  1  0  0  0  0
 29 31  2  0  0  0  0
 29 88  1  0  0  0  0
 30 90  1  0  0  0  0
 31 91  1  0  0  0  0
 32 67  2  0  0  0  0
 33 69  1  0  0  0  0
 33 73  1  0  0  0  0
 34 35  2  0  0  0  0
 34 36  1  0  0  0  0
 35 55  1  0  0  0  0
 35 80  1  0  0  0  0
 36 70  1  0  0  0  0
 36 81  2  0  0  0  0
 37 58  1  0  0  0  0
 37 68  2  0  0  0  0
 38 75  1  0  0  0  0
 38 82  2  0  0  0  0
 39 74  1  0  0  0  0
 39 83  2  0  0  0  0
 40 56  1  0  0  0  0
 40 76  1  0  0  0  0
 40 84  2  0  0  0  0
 41 64  1  0  0  0  0
 41 71  1  0  0  0  0
 41 85  2  0  0  0  0
 42 65  1  0  0  0  0
 42 77  1  0  0  0  0
 42 86  2  0  0  0  0
 43 72  1  0  0  0  0
 43 78  1  0  0  0  0
 43 87  2  0  0  0  0
 44 47  1  0  0  0  0
 45 56  1  0  0  0  0
 46 71  1  0  0  0  0
 47 49  1  0  0  0  0
 48 50  1  0  0  0  0
 48 51  1  0  0  0  0
 49 54  1  0  0  0  0
 50 57  1  0  0  0  0
 51 72  1  0  0  0  0
 52 55  1  0  0  0  0
 52 70  1  0  0  0  0
 53 57  1  0  0  0  0
 53 72  1  0  0  0  0
 54 76  1  0  0  0  0
 55 89  1  0  0  0  0
 56 71  1  0  0  0  0
 57 69  1  0  0  0  0
 59 65  1  0  0  0  0
 60 66  1  0  0  0  0
 61 66  1  0  0  0  0
 62 66  1  0  0  0  0
 63 79  1  0  0  0  0
 64 66  1  0  0  0  0
 64 77  1  0  0  0  0
 65 79  1  0  0  0  0
 67 69  1  0  0  0  0
 75 78  1  0  0  0  0
M  CHG  2  79   1  80  -1
M  ISO  4  43 100  55 101  78 100  89 101
M  END
> <Batch ID>
0070

> <Smiles>
C=CNc1cc(N2C[101CH:1]([101O:1]c3ccc4c(c3)CN(C(=O)C(NC(=O)C(C)NC)C(C)(C)C)C(C(=O)NC3CCCc5ccccc53)C4)C(=O)CC2=O)ccc1C(=O)N[100NH:0][100C:0](=O)N1CCCC(n2nc(-c3ccc(Oc4ccc(F)cc4F)cc3)c(C(N)=O)c2N)C1

> <Shape>
0.324

> <Color>
0.086

> <Negative vol penalty>
0.000

$$$$

  -OEChem-04042323323D

 85 93  0     1  0  0  0  0  0999 V2000
  -19.0456  -24.3604   23.2842 C   0  0  0  0  0  0  0  0  0  0  0  0
  -20.3606  -24.4727   22.8443 C   0  0  0  0  0  0  0  0  0  0  0  0
  -23.9383   -9.3375   21.7562 C   0  0  0  0  0  0  0  0  0  0  0  0
  -24.1286  -11.0398   23.4601 C   0  0  0  0  0  0  0  0  0  0  0  0
  -18.2231  -25.4858   23.3141 C   0  0  0  0  0  0  0  0  0  0  0  0
  -20.8536  -25.7104   22.4328 C   0  0  0  0  0  0  0  0  0  0  0  0
  -25.4645  -26.6793   24.2891 C   0  0  0  0  0  0  0  0  0  0  0  0
  -23.4227   -8.4499   22.7006 C   0  0  0  0  0  0  0  0  0  0  0  0
  -23.6130  -10.1522   24.4045 C   0  0  0  0  0  0  0  0  0  0  0  0
  -26.5448  -26.0515   23.6705 C   0  0  0  0  0  0  0  0  0  0  0  0
  -20.4614   -7.8845   24.2315 C   0  0  0  0  0  0  0  0  0  0  0  0
  -19.3432   -7.1325   23.8715 C   0  0  0  0  0  0  0  0  0  0  0  0
  -28.1867  -20.2443   19.2400 C   0  0  0  0  0  0  0  0  0  0  0  0
  -27.0153  -28.0779   22.4491 C   0  0  0  0  0  0  0  0  0  0  0  0
  -30.4159  -18.5707   19.3525 C   0  0  0  0  0  0  0  0  0  0  0  0
  -20.5973   -5.0981   24.2259 C   0  0  0  0  0  0  0  0  0  0  0  0
  -24.2913  -10.6325   22.1360 C   0  0  0  0  0  0  0  0  0  0  0  0
  -29.4625  -20.7905   19.3801 C   0  0  0  0  0  0  0  0  0  0  0  0
  -24.1004  -12.4433   20.3493 C   0  0  0  0  0  0  0  0  0  0  0  0
  -18.7093  -26.7399   22.9119 C   0  0  0  0  0  0  0  0  0  0  0  0
  -25.1444  -28.0100   23.9837 C   0  0  0  0  0  0  0  0  0  0  0  0
  -20.0365  -26.8535   22.4560 C   0  0  0  0  0  0  0  0  0  0  0  0
  -25.9321  -28.7211   23.0671 C   0  0  0  0  0  0  0  0  0  0  0  0
  -29.1401  -18.0245   19.2125 C   0  0  0  0  0  0  0  0  0  0  0  0
  -23.2600   -8.8572   24.0247 C   0  0  0  0  0  0  0  0  0  0  0  0
  -27.3186  -26.7498   22.7482 C   0  0  0  0  0  0  0  0  0  0  0  0
  -21.6476   -7.2434   24.5886 C   0  0  0  0  0  0  0  0  0  0  0  0
  -19.4111   -5.7393   23.8688 C   0  0  0  0  0  0  0  0  0  0  0  0
  -28.0255  -18.8613   19.1562 C   0  0  0  0  0  0  0  0  0  0  0  0
  -30.5771  -19.9538   19.4363 C   0  0  0  0  0  0  0  0  0  0  0  0
  -21.7156   -5.8502   24.5858 C   0  0  0  0  0  0  0  0  0  0  0  0
  -24.8246  -11.5497   21.1610 C   0  0  0  0  0  0  0  0  0  0  0  0
  -25.0595  -13.0839   19.6034 C   0  0  0  0  0  0  0  0  0  0  0  0
  -29.6303  -22.2556   19.4687 C   0  0  0  0  0  0  0  0  0  0  0  0
  -22.6872  -12.6738   20.2762 C   0  0  0  0  0  0  0  0  0  0  0  0
  -22.6255  -29.4770   22.7162 C   0  0  0  0  0  0  0  0  0  0  0  0
  -24.2948  -32.1540   23.4706 C   0  0  0  0  0  0  0  0  0  0  0  0
  -29.0637  -24.3230   20.7239 C   0  0  0  0  0  0  0  0  0  0  0  0
  -27.3206  -33.5984   24.1074 C   0  0  0  0  0  0  0  0  0  0  0  0
  -29.9814  -15.6504   19.1668 C   0  0  0  0  0  0  0  0  0  0  0  0
  -17.7686  -27.9188   22.9170 C   0  0  0  0  0  0  0  0  0  0  0  0
  -23.9922  -28.6812   24.6796 C   0  0  0  0  0  0  0  0  0  0  0  0
  -25.6426  -30.1577   22.7197 C   0  0  0  0  0  0  0  0  0  0  0  0
  -18.4798  -29.2659   22.8186 C   0  0  0  0  0  0  0  0  0  0  0  0
  -29.9896  -12.0927   19.0258 C   0  0  0  0  0  0  0  0  0  0  0  0
  -19.5382  -29.2319   21.7207 C   0  0  0  0  0  0  0  0  0  0  0  0
  -28.5870  -11.7078   19.5020 C   0  0  0  0  0  0  0  0  0  0  0  0
  -30.5314  -13.3059   19.7797 C   0  0  0  0  0  0  0  0  0  0  0  0
  -28.2472  -14.0954   20.2577 C   0  0  0  0  0  0  0  0  0  0  0  0
  -20.6153  -28.1837   22.0251 C   0  0  1  0  0  0  0  0  0  0  0  0
  -23.4450  -29.8792   23.9096 C   0  0  1  0  0  0  0  0  0  0  0  0
  -27.6332  -12.9184   19.4823 C   0  0  2  0  0  0  0  0  0  0  0  0
  -28.3712  -35.8106   24.6549 C   0  0  0  0  0  0  0  0  0  0  0  0
  -23.9684  -33.0254   20.5647 C   0  0  0  0  0  0  0  0  0  0  0  0
  -25.7924  -34.7000   20.9349 C   0  0  0  0  0  0  0  0  0  0  0  0
  -23.6738  -34.8566   22.2423 C   0  0  0  0  0  0  0  0  0  0  0  0
  -28.3620  -32.5958   26.6899 C   0  0  0  0  0  0  0  0  0  0  0  0
  -28.2808  -24.7291   21.9440 C   0  0  0  0  0  0  0  0  0  1  0  0
  -25.3191  -33.0095   22.7650 C   0  0  1  0  0  0  0  0  0  0  0  0
  -27.7798  -34.5271   25.2169 C   0  0  2  0  0  0  0  0  0  0  0  0
  -24.6930  -33.8702   21.6316 C   0  0  0  0  0  0  0  0  0  0  0  0
  -26.1420  -11.6138   20.9505 N   0  0  0  0  0  0  0  0  0  0  0  0
  -26.2532  -12.5553   19.9981 N   0  0  0  0  0  0  0  0  0  0  0  0
  -24.5016  -30.7681   23.4219 N   0  0  0  0  0  0  0  0  0  0  0  0
  -29.5768  -14.4146   19.7145 N   0  0  0  0  0  0  0  0  0  0  0  0
  -24.9897  -14.0420   18.6550 N   0  0  0  0  0  0  0  0  0  0  0  0
  -21.8446  -11.9294   21.1130 N   0  0  0  0  0  0  0  0  0  0  0  0
  -28.9793  -16.6193   19.1274 N   0  0  0  0  0  0  0  0  0  0  0  0
  -29.0274  -22.9009   20.4768 N   0  0  0  0  0  0  0  0  0  0  0  0
  -21.5377  -28.6819   23.0229 N   0  0  0  0  0  0  0  0  0  0  0  0
  -25.9886  -33.7850   23.8037 N   0  0  0  0  0  0  0  0  0  0  0  0
  -30.3763  -22.8517   18.5390 N   0  3  0  0  0  0  0  0  0  0  0  0
  -28.8157  -33.8600   26.0552 N   0  3  0  0  0  0  0  0  0  0  0  0
  -22.1851  -13.5033   19.4803 O   0  0  0  0  0  0  0  0  0  0  0  0
  -22.9547  -29.8609   21.6000 O   0  0  0  0  0  0  0  0  0  0  0  0
  -23.3500  -32.6958   24.0498 O   0  0  0  0  0  0  0  0  0  0  0  0
  -29.6787  -25.0886   19.9956 O   0  0  0  0  0  0  0  0  0  0  0  0
  -28.0695  -32.7909   23.5619 O   0  0  0  0  0  0  0  0  0  0  0  0
  -31.1245  -15.8269   18.7377 O   0  0  0  0  0  0  0  0  0  0  0  0
  -22.7567   -7.9914   24.9464 O   0  0  0  0  0  0  0  0  0  0  0  0
  -28.3732  -26.1392   22.1425 O   0  0  0  0  0  0  0  0  0  1  0  0
  -18.3367   -5.0172   23.5246 F   0  0  0  0  0  0  0  0  0  0  0  0
  -26.7944  -18.3472   19.0220 F   0  0  0  0  0  0  0  0  0  0  0  0
  -31.8071  -20.4692   19.5710 F   0  0  0  0  0  0  0  0  0  0  0  0
  -22.8520   -5.2286   24.9291 F   0  0  0  0  0  0  0  0  0  0  0  0
  1  2  1  0  0  0  0
  1  5  2  0  0  0  0
  2  6  2  0  0  0  0
  3  8  2  0  0  0  0
  3 17  1  0  0  0  0
  4  9  1  0  0  0  0
  4 17  2  0  0  0  0
  5 20  1  0  0  0  0
  6 22  1  0  0  0  0
  7 10  2  0  0  0  0
  7 21  1  0  0  0  0
  8 25  1  0  0  0  0
  9 25  2  0  0  0  0
 10 26  1  0  0  0  0
 11 12  2  0  0  0  0
 11 27  1  0  0  0  0
 12 28  1  0  0  0  0
 13 18  1  0  0  0  0
 13 29  2  0  0  0  0
 14 23  1  0  0  0  0
 14 26  2  0  0  0  0
 15 24  2  0  0  0  0
 15 30  1  0  0  0  0
 16 28  2  0  0  0  0
 16 31  1  0  0  0  0
 17 32  1  0  0  0  0
 18 30  2  0  0  0  0
 18 34  1  0  0  0  0
 19 32  1  0  0  0  0
 19 33  2  0  0  0  0
 19 35  1  0  0  0  0
 20 22  2  0  0  0  0
 20 41  1  0  0  0  0
 21 23  2  0  0  0  0
 21 42  1  0  0  0  0
 22 50  1  0  0  0  0
 23 43  1  0  0  0  0
 24 29  1  0  0  0  0
 24 68  1  0  0  0  0
 25 80  1  0  0  0  0
 26 81  1  0  0  0  0
 27 31  2  0  0  0  0
 27 80  1  0  0  0  0
 28 82  1  0  0  0  0
 29 83  1  0  0  0  0
 30 84  1  0  0  0  0
 31 85  1  0  0  0  0
 32 62  2  0  0  0  0
 33 63  1  0  0  0  0
 33 66  1  0  0  0  0
 34 69  1  0  0  0  0
 34 72  2  0  0  0  0
 35 67  1  0  0  0  0
 35 74  2  0  0  0  0
 36 51  1  0  0  0  0
 36 70  1  0  0  0  0
 36 75  2  0  0  0  0
 37 59  1  0  0  0  0
 37 64  1  0  0  0  0
 37 76  2  0  0  0  0
 38 58  1  0  0  0  0
 38 69  1  0  0  0  0
 38 77  2  0  0  0  0
 39 60  1  0  0  0  0
 39 71  1  0  0  0  0
 39 78  2  0  0  0  0
 40 65  1  0  0  0  0
 40 68  1  0  0  0  0
 40 79  2  0  0  0  0
 41 44  1  0  0  0  0
 42 51  1  0  0  0  0
 43 64  1  0  0  0  0
 44 46  1  0  0  0  0
 45 47  1  0  0  0  0
 45 48  1  0  0  0  0
 46 50  1  0  0  0  0
 47 52  1  0  0  0  0
 48 65  1  0  0  0  0
 49 52  1  0  0  0  0
 49 65  1  0  0  0  0
 50 70  1  0  0  0  0
 51 64  1  0  0  0  0
 52 63  1  0  0  0  0
 53 60  1  0  0  0  0
 54 61  1  0  0  0  0
 55 61  1  0  0  0  0
 56 61  1  0  0  0  0
 57 73  1  0  0  0  0
 58 81  1  0  0  0  0
 59 61  1  0  0  0  0
 59 71  1  0  0  0  0
 60 73  1  0  0  0  0
 62 63  1  0  0  0  0
M  CHG  2  72   1  73   1
M  ISO  4  40 100  58 101  68 100  81 101
M  END
> <Batch ID>
0070

> <Smiles>
CNC(C)C(=O)NC(C(=O)N1Cc2cc([101O:1][101CH2:1]C(=O)NC(=N)c3cc(F)c([100NH:0][100C:0](=O)N4CCCC(n5nc(-c6ccc(Oc7ccc(F)cc7F)cc6)c(C(N)=O)c5N)C4)cc3F)ccc2CC1C(=O)NC1CCCc2ccccc21)C(C)(C)C

> <Shape>
0.321

> <Color>
0.113

> <Negative vol penalty>
0.000

$$$$

  -OEChem-04042323323D

 84 92  0     1  0  0  0  0  0999 V2000
  -28.1984  -34.0046   25.0995 C   0  0  0  0  0  0  0  0  0  0  0  0
  -28.3125  -32.6623   24.7521 C   0  0  0  0  0  0  0  0  0  0  0  0
  -23.9412  -11.9456   23.7382 C   0  0  0  0  0  0  0  0  0  0  0  0
  -23.2287  -14.0952   22.8965 C   0  0  0  0  0  0  0  0  0  0  0  0
  -26.9373  -34.5766   25.2622 C   0  0  0  0  0  0  0  0  0  0  0  0
  -27.1655  -31.8909   24.5683 C   0  0  0  0  0  0  0  0  0  0  0  0
  -27.4155  -28.9956   20.4211 C   0  0  0  0  0  0  0  0  0  0  0  0
  -23.2402  -12.1765   24.9217 C   0  0  0  0  0  0  0  0  0  0  0  0
  -22.5275  -14.3262   24.0800 C   0  0  0  0  0  0  0  0  0  0  0  0
  -28.1772  -27.8307   20.5028 C   0  0  0  0  0  0  0  0  0  0  0  0
  -21.3420  -12.0450   28.0192 C   0  0  0  0  0  0  0  0  0  0  0  0
  -20.5652  -11.0035   28.5266 C   0  0  0  0  0  0  0  0  0  0  0  0
  -28.3129  -20.1239   18.2408 C   0  0  0  0  0  0  0  0  0  0  0  0
  -26.1631  -26.5439   20.8299 C   0  0  0  0  0  0  0  0  0  0  0  0
  -30.5167  -18.4830   18.7241 C   0  0  0  0  0  0  0  0  0  0  0  0
  -19.2570  -10.9896   26.4954 C   0  0  0  0  0  0  0  0  0  0  0  0
  -23.9356  -12.9049   22.7256 C   0  0  0  0  0  0  0  0  0  0  0  0
  -29.5871  -20.6811   18.3478 C   0  0  0  0  0  0  0  0  0  0  0  0
  -24.1759  -12.0493   20.3344 C   0  0  0  0  0  0  0  0  0  0  0  0
  -25.7742  -33.8142   25.0709 C   0  0  0  0  0  0  0  0  0  0  0  0
  -26.0205  -28.9447   20.5543 C   0  0  0  0  0  0  0  0  0  0  0  0
  -25.8877  -32.4529   24.7300 C   0  0  0  0  0  0  0  0  0  0  0  0
  -25.3858  -27.7093   20.7469 C   0  0  0  0  0  0  0  0  0  0  0  0
  -29.2424  -17.9258   18.6172 C   0  0  0  0  0  0  0  0  0  0  0  0
  -22.5333  -13.3668   25.0926 C   0  0  0  0  0  0  0  0  0  0  0  0
  -27.5512  -26.6050   20.7101 C   0  0  0  0  0  0  0  0  0  0  0  0
  -21.0763  -12.5589   26.7499 C   0  0  0  0  0  0  0  0  0  0  0  0
  -19.5227  -10.4758   27.7647 C   0  0  0  0  0  0  0  0  0  0  0  0
  -28.1405  -18.7462   18.3756 C   0  0  0  0  0  0  0  0  0  0  0  0
  -30.6890  -19.8607   18.5894 C   0  0  0  0  0  0  0  0  0  0  0  0
  -20.0338  -12.0312   25.9880 C   0  0  0  0  0  0  0  0  0  0  0  0
  -24.6601  -12.6672   21.5030 C   0  0  0  0  0  0  0  0  0  0  0  0
  -25.2432  -12.0656   19.4700 C   0  0  0  0  0  0  0  0  0  0  0  0
  -28.7545  -23.3672   19.8162 C   0  0  0  0  0  0  0  0  0  0  0  0
  -29.7665  -22.1520   18.2027 C   0  0  0  0  0  0  0  0  0  0  0  0
  -22.8775  -11.5091   20.0551 C   0  0  0  0  0  0  0  0  0  0  0  0
  -23.9164  -30.1659   22.6000 C   0  0  0  0  0  0  0  0  0  0  0  0
  -21.7595  -28.9059   20.5306 C   0  0  0  0  0  0  0  0  0  0  0  0
  -21.0693  -26.5959   18.1151 C   0  0  0  0  0  0  0  0  0  0  0  0
  -30.0580  -15.5724   18.9945 C   0  0  0  0  0  0  0  0  0  0  0  0
  -24.4335  -34.4644   25.3043 C   0  0  0  0  0  0  0  0  0  0  0  0
  -25.2109  -30.2069   20.4370 C   0  0  0  0  0  0  0  0  0  0  0  0
  -23.8893  -27.5982   20.8760 C   0  0  0  0  0  0  0  0  0  0  0  0
  -23.2637  -33.6732   24.7248 C   0  0  0  0  0  0  0  0  0  0  0  0
  -30.0320  -12.0389   19.4320 C   0  0  0  0  0  0  0  0  0  0  0  0
  -23.3871  -32.1963   25.0859 C   0  0  0  0  0  0  0  0  0  0  0  0
  -28.6056  -11.7421   19.9005 C   0  0  0  0  0  0  0  0  0  0  0  0
  -30.5540  -13.3561   20.0031 C   0  0  0  0  0  0  0  0  0  0  0  0
  -28.2602  -14.2220   20.2436 C   0  0  0  0  0  0  0  0  0  0  0  0
  -24.6667  -31.5896   24.4977 C   0  0  1  0  0  0  0  0  0  0  0  0
  -23.8413  -30.1021   21.1007 C   0  0  1  0  0  0  0  0  0  0  0  0
  -27.6674  -12.9373   19.6421 C   0  0  2  0  0  0  0  0  0  0  0  0
  -19.2088  -25.7848   16.6394 C   0  0  0  0  0  0  0  0  0  0  0  0
  -20.4968  -27.4766   22.9123 C   0  0  0  0  0  0  0  0  0  0  0  0
  -19.2990  -25.9877   21.2947 C   0  0  0  0  0  0  0  0  0  0  0  0
  -18.8594  -28.4431   21.2877 C   0  0  0  0  0  0  0  0  0  0  0  0
  -22.5705  -27.2702   15.6554 C   0  0  0  0  0  0  0  0  0  0  0  0
  -27.6746  -24.2570   20.3529 C   0  0  0  0  0  0  0  0  0  1  0  0
  -21.0596  -27.5753   20.3944 C   0  0  1  0  0  0  0  0  0  0  0  0
  -20.3975  -26.7255   16.7600 C   0  0  2  0  0  0  0  0  0  0  0  0
  -19.9571  -27.3727   21.4718 C   0  0  0  0  0  0  0  0  0  0  0  0
  -25.9357  -13.0480   21.3944 N   0  0  0  0  0  0  0  0  0  0  0  0
  -28.7358  -22.9773   18.5829 N   0  0  0  0  0  0  0  0  0  0  0  0
  -26.2621  -12.6684   20.1472 N   0  0  0  0  0  0  0  0  0  0  0  0
  -23.1419  -28.8614   20.7607 N   0  0  0  0  0  0  0  0  0  0  0  0
  -29.6158  -14.4435   19.7163 N   0  0  0  0  0  0  0  0  0  0  0  0
  -25.4001  -11.6229   18.2044 N   0  0  0  0  0  0  0  0  0  0  0  0
  -21.8974  -11.5748   21.0548 N   0  0  0  0  0  0  0  0  0  0  0  0
  -29.0696  -16.5261   18.7536 N   0  0  0  0  0  0  0  0  0  0  0  0
  -24.4965  -31.3223   23.0856 N   0  0  0  0  0  0  0  0  0  0  0  0
  -20.5723  -27.5091   19.0209 N   0  0  0  0  0  0  0  0  0  0  0  0
  -30.8300  -22.6716   17.6993 N   0  3  0  0  0  0  0  0  0  0  0  0
  -21.3628  -26.4052   15.6707 N   0  3  0  0  0  0  0  0  0  0  0  0
  -22.5998  -10.9689   18.9575 O   0  0  0  0  0  0  0  0  0  0  0  0
  -23.4790  -29.2356   23.2670 O   0  0  0  0  0  0  0  0  0  0  0  0
  -21.1051  -29.9466   20.4291 O   0  0  0  0  0  0  0  0  0  0  0  0
  -21.9445  -25.7651   18.3480 O   0  0  0  0  0  0  0  0  0  0  0  0
  -31.2207  -15.6722   18.5944 O   0  0  0  0  0  0  0  0  0  0  0  0
  -21.8488  -13.5924   26.2473 O   0  0  0  0  0  0  0  0  0  0  0  0
  -28.2923  -25.4665   20.7909 O   0  0  0  0  0  0  0  0  0  1  0  0
  -18.7779   -9.4746   28.2515 F   0  0  0  0  0  0  0  0  0  0  0  0
  -26.9111  -18.2217   18.2711 F   0  0  0  0  0  0  0  0  0  0  0  0
  -31.9188  -20.3848   18.6930 F   0  0  0  0  0  0  0  0  0  0  0  0
  -19.7745  -12.5199   24.7675 F   0  0  0  0  0  0  0  0  0  0  0  0
  1  2  1  0  0  0  0
  1  5  2  0  0  0  0
  2  6  2  0  0  0  0
  3  8  2  0  0  0  0
  3 17  1  0  0  0  0
  4  9  1  0  0  0  0
  4 17  2  0  0  0  0
  5 20  1  0  0  0  0
  6 22  1  0  0  0  0
  7 10  2  0  0  0  0
  7 21  1  0  0  0  0
  8 25  1  0  0  0  0
  9 25  2  0  0  0  0
 10 26  1  0  0  0  0
 11 12  2  0  0  0  0
 11 27  1  0  0  0  0
 12 28  1  0  0  0  0
 13 18  1  0  0  0  0
 13 29  2  0  0  0  0
 14 23  1  0  0  0  0
 14 26  2  0  0  0  0
 15 24  2  0  0  0  0
 15 30  1  0  0  0  0
 16 28  2  0  0  0  0
 16 31  1  0  0  0  0
 17 32  1  0  0  0  0
 18 30  2  0  0  0  0
 18 35  1  0  0  0  0
 19 32  1  0  0  0  0
 19 33  2  0  0  0  0
 19 36  1  0  0  0  0
 20 22  2  0  0  0  0
 20 41  1  0  0  0  0
 21 23  2  0  0  0  0
 21 42  1  0  0  0  0
 22 50  1  0  0  0  0
 23 43  1  0  0  0  0
 24 29  1  0  0  0  0
 24 69  1  0  0  0  0
 25 79  1  0  0  0  0
 26 80  1  0  0  0  0
 27 31  2  0  0  0  0
 27 79  1  0  0  0  0
 28 81  1  0  0  0  0
 29 82  1  0  0  0  0
 30 83  1  0  0  0  0
 31 84  1  0  0  0  0
 32 62  2  0  0  0  0
 33 64  1  0  0  0  0
 33 67  1  0  0  0  0
 34 58  1  0  0  0  0
 34 63  2  0  0  0  0
 35 63  1  0  0  0  0
 35 72  2  0  0  0  0
 36 68  1  0  0  0  0
 36 74  2  0  0  0  0
 37 51  1  0  0  0  0
 37 70  1  0  0  0  0
 37 75  2  0  0  0  0
 38 59  1  0  0  0  0
 38 65  1  0  0  0  0
 38 76  2  0  0  0  0
 39 60  1  0  0  0  0
 39 71  1  0  0  0  0
 39 77  2  0  0  0  0
 40 66  1  0  0  0  0
 40 69  1  0  0  0  0
 40 78  2  0  0  0  0
 41 44  1  0  0  0  0
 42 51  1  0  0  0  0
 43 65  1  0  0  0  0
 44 46  1  0  0  0  0
 45 47  1  0  0  0  0
 45 48  1  0  0  0  0
 46 50  1  0  0  0  0
 47 52  1  0  0  0  0
 48 66  1  0  0  0  0
 49 52  1  0  0  0  0
 49 66  1  0  0  0  0
 50 70  1  0  0  0  0
 51 65  1  0  0  0  0
 52 64  1  0  0  0  0
 53 60  1  0  0  0  0
 54 61  1  0  0  0  0
 55 61  1  0  0  0  0
 56 61  1  0  0  0  0
 57 73  1  0  0  0  0
 58 80  1  0  0  0  0
 59 61  1  0  0  0  0
 59 71  1  0  0  0  0
 60 73  1  0  0  0  0
 62 64  1  0  0  0  0
M  CHG  2  72   1  73   1
M  ISO  4  40 100  58 101  69 100  80 101
M  END
> <Batch ID>
0070

> <Smiles>
CNC(C)C(=O)NC(C(=O)N1Cc2cc([101O:1][101CH2:1]C=NC(=N)c3cc(F)c([100NH:0][100C:0](=O)N4CCCC(n5nc(-c6ccc(Oc7ccc(F)cc7F)cc6)c(C(N)=O)c5N)C4)cc3F)ccc2CC1C(=O)NC1CCCc2ccccc21)C(C)(C)C

> <Shape>
0.273

> <Color>
0.085

> <Negative vol penalty>
0.000

$$$$

  -OEChem-04042323323D

 87 96  0     1  0  0  0  0  0999 V2000
  -18.8353  -16.3095   20.4080 C   0  0  0  0  0  0  0  0  0  0  0  0
  -20.2028  -16.5385   20.5214 C   0  0  0  0  0  0  0  0  0  0  0  0
  -21.5025  -29.8771   21.2684 C   0  0  0  0  0  0  0  0  0  0  0  0
  -22.6555  -28.2496   22.6319 C   0  0  0  0  0  0  0  0  0  0  0  0
  -18.2573  -15.2153   21.0504 C   0  0  0  0  0  0  0  0  0  0  0  0
  -20.9930  -15.6739   21.2780 C   0  0  0  0  0  0  0  0  0  0  0  0
  -25.3102  -14.4377   18.9374 C   0  0  0  0  0  0  0  0  0  0  0  0
  -20.2769  -29.3788   21.7101 C   0  0  0  0  0  0  0  0  0  0  0  0
  -21.4298  -27.7514   23.0736 C   0  0  0  0  0  0  0  0  0  0  0  0
  -26.3370  -15.3807   18.9557 C   0  0  0  0  0  0  0  0  0  0  0  0
  -18.3281  -29.6379   24.4611 C   0  0  0  0  0  0  0  0  0  0  0  0
  -17.3527  -30.5596   24.8414 C   0  0  0  0  0  0  0  0  0  0  0  0
  -27.4009  -14.1782   20.7560 C   0  0  0  0  0  0  0  0  0  0  0  0
  -15.8721  -29.6950   23.1392 C   0  0  0  0  0  0  0  0  0  0  0  0
  -29.0034  -23.1774   21.5808 C   0  0  0  0  0  0  0  0  0  0  0  0
  -22.6919  -29.3124   21.7293 C   0  0  0  0  0  0  0  0  0  0  0  0
  -24.7189  -30.8558   21.8590 C   0  0  0  0  0  0  0  0  0  0  0  0
  -19.0423  -14.3314   21.8074 C   0  0  0  0  0  0  0  0  0  0  0  0
  -25.3154  -13.3621   19.8371 C   0  0  0  0  0  0  0  0  0  0  0  0
  -20.4247  -14.5676   21.9322 C   0  0  0  0  0  0  0  0  0  0  0  0
  -26.3744  -13.2215   20.7453 C   0  0  0  0  0  0  0  0  0  0  0  0
  -20.2405  -28.3160   22.6127 C   0  0  0  0  0  0  0  0  0  0  0  0
  -27.3811  -15.2526   19.8670 C   0  0  0  0  0  0  0  0  0  0  0  0
  -18.0756  -28.7447   23.4199 C   0  0  0  0  0  0  0  0  0  0  0  0
  -16.1247  -30.5882   24.1804 C   0  0  0  0  0  0  0  0  0  0  0  0
  -16.8476  -28.7732   22.7590 C   0  0  0  0  0  0  0  0  0  0  0  0
  -29.2916  -24.4523   21.0137 C   0  0  0  0  0  0  0  0  0  0  0  0
  -23.9583  -29.8263   21.2730 C   0  0  0  0  0  0  0  0  0  0  0  0
  -29.5495  -24.3714   19.6629 C   0  0  0  0  0  0  0  0  0  0  0  0
  -25.8265  -30.9651   21.0542 C   0  0  0  0  0  0  0  0  0  0  0  0
  -29.0518  -22.1705   20.6418 C   0  0  0  0  0  0  0  0  0  0  0  0
  -28.4580  -18.7298   21.6411 C   0  0  0  0  0  0  0  0  0  0  0  0
  -28.5193  -20.1945   21.9522 C   0  0  0  0  0  0  0  0  0  0  0  0
  -24.4484  -31.6429   23.0264 C   0  0  0  0  0  0  0  0  0  0  0  0
  -23.3927  -12.3795   22.1697 C   0  0  0  0  0  0  0  0  0  0  0  0
  -25.3978   -9.8302   22.2195 C   0  0  0  0  0  0  0  0  0  0  0  0
  -28.4905   -8.5627   21.5297 C   0  0  0  0  0  0  0  0  0  0  0  0
  -28.6046  -27.1231   17.3974 C   0  0  0  0  0  0  0  0  0  0  0  0
  -18.3650  -13.1892   22.5223 C   0  0  0  0  0  0  0  0  0  0  0  0
  -24.2142  -12.3388   19.7866 C   0  0  0  0  0  0  0  0  0  0  0  0
  -26.4373  -12.0738   21.7186 C   0  0  0  0  0  0  0  0  0  0  0  0
  -19.3327  -12.1084   22.9974 C   0  0  0  0  0  0  0  0  0  0  0  0
  -27.2520  -30.3017   16.5355 C   0  0  0  0  0  0  0  0  0  0  0  0
  -20.5383  -12.7377   23.6884 C   0  0  0  0  0  0  0  0  0  0  0  0
  -26.3231  -30.6332   17.7047 C   0  0  0  0  0  0  0  0  0  0  0  0
  -27.2361  -28.8104   16.2073 C   0  0  0  0  0  0  0  0  0  0  0  0
  -28.9344  -19.8842   19.6518 C   0  0  0  0  0  0  0  0  0  0  0  0
  -26.5896  -28.2533   18.5193 C   0  0  0  0  0  0  0  0  0  0  0  0
  -21.3192  -13.6383   22.7237 C   0  0  1  0  0  0  0  0  0  0  0  0
  -28.9410  -18.4732   20.2461 C   0  0  2  0  0  0  0  0  0  0  0  0
  -24.0551  -11.5673   21.0931 C   0  0  1  0  0  0  0  0  0  0  0  0
  -26.6143  -29.7373   18.9236 C   0  0  2  0  0  0  0  0  0  0  0  0
  -31.1818  -26.2089   19.0965 C   0  0  0  0  0  0  0  0  0  0  0  0
  -29.8433   -6.4574   21.7172 C   0  0  0  0  0  0  0  0  0  0  0  0
  -25.7589  -10.3311   25.2076 C   0  0  0  0  0  0  0  0  0  0  0  0
  -27.7833   -8.8597   25.1388 C   0  0  0  0  0  0  0  0  0  0  0  0
  -25.5422   -7.9219   24.5724 C   0  0  0  0  0  0  0  0  0  0  0  0
  -28.8500   -8.3948   18.5969 C   0  0  0  0  0  0  0  0  0  0  0  0
  -28.0529  -17.5036   19.4962 C   0  0  0  0  0  0  0  0  0  1  0  0
  -29.8868  -25.4627   18.7234 C   0  0  2  0  0  0  0  0  0  0  0  0
  -26.6768   -9.4900   22.9458 C   0  0  1  0  0  0  0  0  0  0  0  0
  -28.9231   -7.2851   20.8334 C   0  0  2  0  0  0  0  0  0  0  0  0
  -26.4384   -9.1735   24.4492 C   0  0  0  0  0  0  0  0  0  0  0  0
  -24.5340  -29.3179   20.1802 N   0  0  0  0  0  0  0  0  0  0  0  0
  -25.6681  -30.0310   20.0731 N   0  0  0  0  0  0  0  0  0  0  0  0
  -28.8429  -20.8248   20.7616 N   0  0  0  0  0  0  0  0  0  0  0  0
  -25.3339  -11.1027   21.6345 N   0  0  0  0  0  0  0  0  0  0  0  0
  -27.5209  -28.0167   17.4051 N   0  0  0  0  0  0  0  0  0  0  0  0
  -26.9108  -31.7681   21.0971 N   0  0  0  0  0  0  0  0  0  0  0  0
  -23.2646  -31.4002   23.7364 N   0  0  0  0  0  0  0  0  0  0  0  0
  -22.1336  -12.8391   21.8335 N   0  0  0  0  0  0  0  0  0  0  0  0
  -27.2945   -8.4011   22.1965 N   0  0  0  0  0  0  0  0  0  0  0  0
  -28.8085  -26.4146   18.5752 N   0  0  0  0  0  0  0  0  0  0  0  0
  -29.6462   -7.6032   19.5697 N   0  3  0  0  0  0  0  0  0  0  0  0
  -28.0865  -17.9228   22.4692 O   0  0  0  0  0  0  0  0  0  0  0  0
  -28.3047  -20.6213   23.0681 O   0  0  0  0  0  0  0  0  0  0  0  0
  -25.2253  -32.5463   23.4188 O   0  0  0  0  0  0  0  0  0  0  0  0
  -23.9797  -12.5735   23.2277 O   0  0  0  0  0  0  0  0  0  0  0  0
  -24.4917   -8.9948   22.1670 O   0  0  0  0  0  0  0  0  0  0  0  0
  -29.1496   -9.5993   21.4895 O   0  0  0  0  0  0  0  0  0  0  0  0
  -29.3395  -26.9720   16.4155 O   0  0  0  0  0  0  0  0  0  0  0  0
  -19.0447  -27.8297   23.0441 O   0  0  0  0  0  0  0  0  0  0  0  0
  -28.3842  -16.1719   19.8875 O   0  0  0  0  0  0  0  0  0  1  0  0
  -15.1876  -31.4723   24.5467 F   0  0  0  0  0  0  0  0  0  0  0  0
  -16.5987  -27.9169   21.7587 F   0  0  0  0  0  0  0  0  0  0  0  0
  -29.3080  -25.5892   21.7123 F   0  0  0  0  0  0  0  0  0  0  0  0
  -29.4437  -22.7634   19.0838 S   0  0  0  0  0  0  0  0  0  0  0  0
  1  2  1  0  0  0  0
  1  5  2  0  0  0  0
  2  6  2  0  0  0  0
  3  8  2  0  0  0  0
  3 16  1  0  0  0  0
  4  9  1  0  0  0  0
  4 16  2  0  0  0  0
  5 18  1  0  0  0  0
  6 20  1  0  0  0  0
  7 10  2  0  0  0  0
  7 19  1  0  0  0  0
  8 22  1  0  0  0  0
  9 22  2  0  0  0  0
 10 23  1  0  0  0  0
 11 12  2  0  0  0  0
 11 24  1  0  0  0  0
 12 25  1  0  0  0  0
 13 21  1  0  0  0  0
 13 23  2  0  0  0  0
 14 25  2  0  0  0  0
 14 26  1  0  0  0  0
 15 27  1  0  0  0  0
 15 31  2  0  0  0  0
 16 28  1  0  0  0  0
 17 28  1  0  0  0  0
 17 30  2  0  0  0  0
 17 34  1  0  0  0  0
 18 20  2  0  0  0  0
 18 39  1  0  0  0  0
 19 21  2  0  0  0  0
 19 40  1  0  0  0  0
 20 49  1  0  0  0  0
 21 41  1  0  0  0  0
 22 82  1  0  0  0  0
 23 83  1  0  0  0  0
 24 26  2  0  0  0  0
 24 82  1  0  0  0  0
 25 84  1  0  0  0  0
 26 85  1  0  0  0  0
 27 29  2  0  0  0  0
 27 86  1  0  0  0  0
 28 64  2  0  0  0  0
 29 60  1  0  0  0  0
 29 87  1  0  0  0  0
 30 65  1  0  0  0  0
 30 69  1  0  0  0  0
 31 66  1  0  0  0  0
 31 87  1  0  0  0  0
 32 33  1  0  0  0  0
 32 50  1  0  0  0  0
 32 75  2  0  0  0  0
 33 66  1  0  0  0  0
 33 76  2  0  0  0  0
 34 70  1  0  0  0  0
 34 77  2  0  0  0  0
 35 51  1  0  0  0  0
 35 71  1  0  0  0  0
 35 78  2  0  0  0  0
 36 61  1  0  0  0  0
 36 67  1  0  0  0  0
 36 79  2  0  0  0  0
 37 62  1  0  0  0  0
 37 72  1  0  0  0  0
 37 80  2  0  0  0  0
 38 68  1  0  0  0  0
 38 73  1  0  0  0  0
 38 81  2  0  0  0  0
 39 42  1  0  0  0  0
 40 51  1  0  0  0  0
 41 67  1  0  0  0  0
 42 44  1  0  0  0  0
 43 45  1  0  0  0  0
 43 46  1  0  0  0  0
 44 49  1  0  0  0  0
 45 52  1  0  0  0  0
 46 68  1  0  0  0  0
 47 50  1  0  0  0  0
 47 66  1  0  0  0  0
 48 52  1  0  0  0  0
 48 68  1  0  0  0  0
 49 71  1  0  0  0  0
 50 59  1  0  0  0  0
 51 67  1  0  0  0  0
 52 65  1  0  0  0  0
 53 60  1  0  0  0  0
 54 62  1  0  0  0  0
 55 63  1  0  0  0  0
 56 63  1  0  0  0  0
 57 63  1  0  0  0  0
 58 74  1  0  0  0  0
 59 83  1  0  0  0  0
 60 73  1  0  0  0  0
 61 63  1  0  0  0  0
 61 72  1  0  0  0  0
 62 74  1  0  0  0  0
 64 65  1  0  0  0  0
M  CHG  1  74   1
M  ISO  4  38 100  59 101  73 100  83 101
M  END
> <Batch ID>
0070

> <Smiles>
CNC(C)C(=O)NC(C(=O)N1Cc2cc([101O:1][101CH2:1]C3CN(c4cc(F)c(C(C)[100NH:0][100C:0](=O)N5CCCC(n6nc(-c7ccc(Oc8ccc(F)cc8F)cc7)c(C(N)=O)c6N)C5)s4)C(=O)C3=O)ccc2CC1C(=O)NC1CCCc2ccccc21)C(C)(C)C

> <Shape>
0.283

> <Color>
0.062

> <Negative vol penalty>
0.000

$$$$

  -OEChem-04042323323D

 86 95  0     1  0  0  0  0  0999 V2000
  -26.9508  -37.8864   24.4443 C   0  0  0  0  0  0  0  0  0  0  0  0
  -27.6326  -37.0631   23.5539 C   0  0  0  0  0  0  0  0  0  0  0  0
  -24.6361   -9.9952   23.0023 C   0  0  0  0  0  0  0  0  0  0  0  0
  -23.9092  -12.1849   23.7193 C   0  0  0  0  0  0  0  0  0  0  0  0
  -26.1147  -37.3263   25.4092 C   0  0  0  0  0  0  0  0  0  0  0  0
  -27.4795  -35.6791   23.6287 C   0  0  0  0  0  0  0  0  0  0  0  0
  -27.3542  -29.8435   19.4759 C   0  0  0  0  0  0  0  0  0  0  0  0
  -24.2295   -9.4600   24.2245 C   0  0  0  0  0  0  0  0  0  0  0  0
  -23.5026  -11.6497   24.9415 C   0  0  0  0  0  0  0  0  0  0  0  0
  -27.9438  -28.5846   19.3693 C   0  0  0  0  0  0  0  0  0  0  0  0
  -21.3326   -8.5133   25.6891 C   0  0  0  0  0  0  0  0  0  0  0  0
  -20.6116   -7.3195   25.6663 C   0  0  0  0  0  0  0  0  0  0  0  0
  -26.4113  -27.7332   21.0263 C   0  0  0  0  0  0  0  0  0  0  0  0
  -30.0438  -19.0388   20.1834 C   0  0  0  0  0  0  0  0  0  0  0  0
  -27.8858  -19.0569   21.2694 C   0  0  0  0  0  0  0  0  0  0  0  0
  -22.3278   -6.2575   26.9944 C   0  0  0  0  0  0  0  0  0  0  0  0
  -24.4760  -11.3577   22.7497 C   0  0  0  0  0  0  0  0  0  0  0  0
  -24.1256  -12.0390   20.3164 C   0  0  0  0  0  0  0  0  0  0  0  0
  -25.9438  -35.9353   25.4897 C   0  0  0  0  0  0  0  0  0  0  0  0
  -26.2941  -30.0597   20.3680 C   0  0  0  0  0  0  0  0  0  0  0  0
  -26.6414  -35.0999   24.5966 C   0  0  0  0  0  0  0  0  0  0  0  0
  -25.8083  -28.9951   21.1405 C   0  0  0  0  0  0  0  0  0  0  0  0
  -29.0725  -21.1297   20.9056 C   0  0  0  0  0  0  0  0  0  0  0  0
  -28.9289  -18.3539   20.6667 C   0  0  0  0  0  0  0  0  0  0  0  0
  -23.6627  -10.2873   25.1941 C   0  0  0  0  0  0  0  0  0  0  0  0
  -27.4742  -27.5299   20.1466 C   0  0  0  0  0  0  0  0  0  0  0  0
  -22.5513   -8.5792   26.3644 C   0  0  0  0  0  0  0  0  0  0  0  0
  -21.1091   -6.1916   26.3189 C   0  0  0  0  0  0  0  0  0  0  0  0
  -30.1156  -20.4267   20.3029 C   0  0  0  0  0  0  0  0  0  0  0  0
  -27.9576  -20.4449   21.3889 C   0  0  0  0  0  0  0  0  0  0  0  0
  -23.0489   -7.4513   27.0171 C   0  0  0  0  0  0  0  0  0  0  0  0
  -24.8963  -11.9112   21.4875 C   0  0  0  0  0  0  0  0  0  0  0  0
  -24.9759  -12.6198   19.4075 C   0  0  0  0  0  0  0  0  0  0  0  0
  -29.1289  -23.3243   22.1008 C   0  0  0  0  0  0  0  0  0  0  0  0
  -22.7629  -11.6662   20.0721 C   0  0  0  0  0  0  0  0  0  0  0  0
  -25.8487  -31.9054   22.9173 C   0  0  0  0  0  0  0  0  0  0  0  0
  -22.8147  -30.7745   22.7218 C   0  0  0  0  0  0  0  0  0  0  0  0
  -20.7032  -28.3125   21.6602 C   0  0  0  0  0  0  0  0  0  0  0  0
  -29.8036  -16.0948   19.9755 C   0  0  0  0  0  0  0  0  0  0  0  0
  -25.0661  -35.3737   26.5801 C   0  0  0  0  0  0  0  0  0  0  0  0
  -25.6515  -31.4171   20.4518 C   0  0  0  0  0  0  0  0  0  0  0  0
  -24.6594  -29.1701   22.0986 C   0  0  0  0  0  0  0  0  0  0  0  0
  -24.6672  -33.9180   26.3517 C   0  0  0  0  0  0  0  0  0  0  0  0
  -29.6258  -12.9523   18.3111 C   0  0  0  0  0  0  0  0  0  0  0  0
  -25.8819  -33.0887   25.9472 C   0  0  0  0  0  0  0  0  0  0  0  0
  -28.3196  -12.3429   18.8256 C   0  0  0  0  0  0  0  0  0  0  0  0
  -30.3516  -13.7403   19.4002 C   0  0  0  0  0  0  0  0  0  0  0  0
  -28.2330  -14.1522   20.5880 C   0  0  0  0  0  0  0  0  0  0  0  0
  -29.2575  -23.5408   20.0090 C   0  0  0  0  0  0  0  0  0  0  0  0
  -26.4820  -33.5954   24.6301 C   0  0  1  0  0  0  0  0  0  0  0  0
  -24.9156  -31.6495   21.7677 C   0  0  1  0  0  0  0  0  0  0  0  0
  -27.4339  -13.4032   19.5091 C   0  0  2  0  0  0  0  0  0  0  0  0
  -29.2505  -24.5712   21.1781 C   0  0  2  0  0  0  0  0  0  0  0  0
  -30.5537  -25.3432   21.3529 C   0  0  0  0  0  0  0  0  0  0  0  0
  -18.2834  -27.6483   21.6809 C   0  0  0  0  0  0  0  0  0  0  0  0
  -23.0728  -29.9346   25.6438 C   0  0  0  0  0  0  0  0  0  0  0  0
  -21.0648  -28.4729   25.3286 C   0  0  0  0  0  0  0  0  0  0  0  0
  -20.8653  -30.9425   25.0392 C   0  0  0  0  0  0  0  0  0  0  0  0
  -20.5440  -28.3636   18.7053 C   0  0  0  0  0  0  0  0  0  0  0  0
  -28.0369  -25.4796   21.2123 C   0  0  0  0  0  0  0  0  0  1  0  0
  -22.0793  -29.5833   23.2868 C   0  0  1  0  0  0  0  0  0  0  0  0
  -19.3814  -28.3708   20.9160 C   0  0  2  0  0  0  0  0  0  0  0  0
  -21.7935  -29.7302   24.8080 C   0  0  0  0  0  0  0  0  0  0  0  0
  -26.1406  -12.3734   21.3389 N   0  0  0  0  0  0  0  0  0  0  0  0
  -26.1583  -12.7973   20.0637 N   0  0  0  0  0  0  0  0  0  0  0  0
  -29.1422  -22.4983   21.0225 N   0  0  0  0  0  0  0  0  0  0  0  0
  -24.0685  -30.5176   22.1492 N   0  0  0  0  0  0  0  0  0  0  0  0
  -29.4521  -14.7285   19.9995 N   0  0  0  0  0  0  0  0  0  0  0  0
  -24.8200  -12.9908   18.1189 N   0  0  0  0  0  0  0  0  0  0  0  0
  -22.0328  -11.0813   21.1158 N   0  0  0  0  0  0  0  0  0  0  0  0
  -28.8560  -16.9440   20.5460 N   0  0  0  0  0  0  0  0  0  0  0  0
  -25.6884  -33.1448   23.5069 N   0  0  0  0  0  0  0  0  0  0  0  0
  -20.8838  -29.4155   22.4677 N   0  0  0  0  0  0  0  0  0  0  0  0
  -19.5142  -27.7371   19.5737 N   0  3  0  0  0  0  0  0  0  0  0  0
  -29.0515  -23.1229   23.2914 O   0  0  0  0  0  0  0  0  0  0  0  0
  -22.2140  -11.8313   18.9563 O   0  0  0  0  0  0  0  0  0  0  0  0
  -26.6535  -31.0417   23.2460 O   0  0  0  0  0  0  0  0  0  0  0  0
  -22.2927  -31.8906   22.7798 O   0  0  0  0  0  0  0  0  0  0  0  0
  -21.4946  -27.3799   21.5402 O   0  0  0  0  0  0  0  0  0  0  0  0
  -30.8544  -16.4856   19.4606 O   0  0  0  0  0  0  0  0  0  0  0  0
  -23.2656   -9.7653   26.3868 O   0  0  0  0  0  0  0  0  0  0  0  0
  -28.0483  -26.3003   20.0449 O   0  0  0  0  0  0  0  0  0  1  0  0
  -20.4159   -5.0457   26.2982 F   0  0  0  0  0  0  0  0  0  0  0  0
  -31.1924  -21.0743   19.8351 F   0  0  0  0  0  0  0  0  0  0  0  0
  -26.9491  -21.1099   21.9706 F   0  0  0  0  0  0  0  0  0  0  0  0
  -24.2186   -7.5089   27.6686 F   0  0  0  0  0  0  0  0  0  0  0  0
  1  2  1  0  0  0  0
  1  5  2  0  0  0  0
  2  6  2  0  0  0  0
  3  8  2  0  0  0  0
  3 17  1  0  0  0  0
  4  9  1  0  0  0  0
  4 17  2  0  0  0  0
  5 19  1  0  0  0  0
  6 21  1  0  0  0  0
  7 10  2  0  0  0  0
  7 20  1  0  0  0  0
  8 25  1  0  0  0  0
  9 25  2  0  0  0  0
 10 26  1  0  0  0  0
 11 12  2  0  0  0  0
 11 27  1  0  0  0  0
 12 28  1  0  0  0  0
 13 22  1  0  0  0  0
 13 26  2  0  0  0  0
 14 24  1  0  0  0  0
 14 29  2  0  0  0  0
 15 24  2  0  0  0  0
 15 30  1  0  0  0  0
 16 28  2  0  0  0  0
 16 31  1  0  0  0  0
 17 32  1  0  0  0  0
 18 32  1  0  0  0  0
 18 33  2  0  0  0  0
 18 35  1  0  0  0  0
 19 21  2  0  0  0  0
 19 40  1  0  0  0  0
 20 22  2  0  0  0  0
 20 41  1  0  0  0  0
 21 50  1  0  0  0  0
 22 42  1  0  0  0  0
 23 29  1  0  0  0  0
 23 30  2  0  0  0  0
 23 66  1  0  0  0  0
 24 71  1  0  0  0  0
 25 81  1  0  0  0  0
 26 82  1  0  0  0  0
 27 31  2  0  0  0  0
 27 81  1  0  0  0  0
 28 83  1  0  0  0  0
 29 84  1  0  0  0  0
 30 85  1  0  0  0  0
 31 86  1  0  0  0  0
 32 64  2  0  0  0  0
 33 65  1  0  0  0  0
 33 69  1  0  0  0  0
 34 53  1  0  0  0  0
 34 66  1  0  0  0  0
 34 75  2  0  0  0  0
 35 70  1  0  0  0  0
 35 76  2  0  0  0  0
 36 51  1  0  0  0  0
 36 72  1  0  0  0  0
 36 77  2  0  0  0  0
 37 61  1  0  0  0  0
 37 67  1  0  0  0  0
 37 78  2  0  0  0  0
 38 62  1  0  0  0  0
 38 73  1  0  0  0  0
 38 79  2  0  0  0  0
 39 68  1  0  0  0  0
 39 71  1  0  0  0  0
 39 80  2  0  0  0  0
 40 43  1  0  0  0  0
 41 51  1  0  0  0  0
 42 67  1  0  0  0  0
 43 45  1  0  0  0  0
 44 46  1  0  0  0  0
 44 47  1  0  0  0  0
 45 50  1  0  0  0  0
 46 52  1  0  0  0  0
 47 68  1  0  0  0  0
 48 52  1  0  0  0  0
 48 68  1  0  0  0  0
 49 53  1  0  0  0  0
 49 66  1  0  0  0  0
 50 72  1  0  0  0  0
 51 67  1  0  0  0  0
 52 65  1  0  0  0  0
 53 54  1  0  0  0  0
 53 60  1  0  0  0  0
 55 62  1  0  0  0  0
 56 63  1  0  0  0  0
 57 63  1  0  0  0  0
 58 63  1  0  0  0  0
 59 74  1  0  0  0  0
 60 82  1  0  0  0  0
 61 63  1  0  0  0  0
 61 73  1  0  0  0  0
 62 74  1  0  0  0  0
 64 65  1  0  0  0  0
M  CHG  1  74   1
M  ISO  4  39 100  60 101  71 100  82 101
M  END
> <Batch ID>
0070

> <Smiles>
CNC(C)C(=O)NC(C(=O)N1Cc2cc([101O:1][101CH2:1]C3(C)CN(c4c(F)cc([100NH:0][100C:0](=O)N5CCCC(n6nc(-c7ccc(Oc8ccc(F)cc8F)cc7)c(C(N)=O)c6N)C5)cc4F)C3=O)ccc2CC1C(=O)NC1CCCc2ccccc21)C(C)(C)C

> <Shape>
0.319

> <Color>
0.095

> <Negative vol penalty>
0.000

$$$$

  -OEChem-04042323323D

 90 99  0     1  0  0  0  0  0999 V2000
  -31.5824  -27.7006   18.1781 C   0  0  0  0  0  0  0  0  0  0  0  0
  -30.7911  -26.6242   18.5663 C   0  0  0  0  0  0  0  0  0  0  0  0
  -24.6266  -11.8667   19.7804 C   0  0  0  0  0  0  0  0  0  0  0  0
  -25.5126  -12.1749   22.0069 C   0  0  0  0  0  0  0  0  0  0  0  0
  -31.4404  -28.9336   18.8133 C   0  0  0  0  0  0  0  0  0  0  0  0
  -29.8580  -26.7800   19.5908 C   0  0  0  0  0  0  0  0  0  0  0  0
  -24.3834  -24.0700   20.0277 C   0  0  0  0  0  0  0  0  0  0  0  0
  -27.1908  -22.8457   24.4498 C   0  0  0  0  0  0  0  0  0  0  0  0
  -28.5306  -23.1098   24.1654 C   0  0  0  0  0  0  0  0  0  0  0  0
  -24.9019  -10.5016   19.8598 C   0  0  0  0  0  0  0  0  0  0  0  0
  -25.7879  -10.8097   22.0863 C   0  0  0  0  0  0  0  0  0  0  0  0
  -23.9446  -22.9505   20.7333 C   0  0  0  0  0  0  0  0  0  0  0  0
  -25.0398   -6.8772   19.6161 C   0  0  0  0  0  0  0  0  0  0  0  0
  -24.0543   -5.9906   19.1823 C   0  0  0  0  0  0  0  0  0  0  0  0
  -23.1752  -24.3828   22.5154 C   0  0  0  0  0  0  0  0  0  0  0  0
  -27.4528  -20.5999   23.5983 C   0  0  0  0  0  0  0  0  0  0  0  0
  -22.5324   -6.8716   20.8390 C   0  0  0  0  0  0  0  0  0  0  0  0
  -24.9321  -12.7034   20.8540 C   0  0  0  0  0  0  0  0  0  0  0  0
  -23.4608  -14.7656   21.1550 C   0  0  0  0  0  0  0  0  0  0  0  0
  -30.4984  -29.1071   19.8395 C   0  0  0  0  0  0  0  0  0  0  0  0
  -24.2310  -25.3557   20.5664 C   0  0  0  0  0  0  0  0  0  0  0  0
  -29.7042  -28.0161   20.2412 C   0  0  0  0  0  0  0  0  0  0  0  0
  -23.6106  -25.5172   21.8134 C   0  0  0  0  0  0  0  0  0  0  0  0
  -28.7926  -20.8641   23.3139 C   0  0  0  0  0  0  0  0  0  0  0  0
  -26.6519  -21.5907   24.1662 C   0  0  0  0  0  0  0  0  0  0  0  0
  -29.3315  -22.1190   23.5975 C   0  0  0  0  0  0  0  0  0  0  0  0
  -25.4825   -9.9731   21.0127 C   0  0  0  0  0  0  0  0  0  0  0  0
  -23.3430  -23.1066   21.9787 C   0  0  0  0  0  0  0  0  0  0  0  0
  -24.7717   -7.7609   20.6615 C   0  0  0  0  0  0  0  0  0  0  0  0
  -22.8006   -5.9878   19.7937 C   0  0  0  0  0  0  0  0  0  0  0  0
  -23.5180   -7.7581   21.2730 C   0  0  0  0  0  0  0  0  0  0  0  0
  -24.6485  -14.1137   20.7724 C   0  0  0  0  0  0  0  0  0  0  0  0
  -23.6928  -16.0911   20.8801 C   0  0  0  0  0  0  0  0  0  0  0  0
  -23.3617  -19.8705   25.0147 C   0  0  0  0  0  0  0  0  0  0  0  0
  -22.4401  -20.7892   24.6746 C   0  0  0  0  0  0  0  0  0  0  0  0
  -24.8266  -20.0307   24.7904 C   0  0  0  0  0  0  0  0  0  0  0  0
  -22.2557  -14.2215   21.7094 C   0  0  0  0  0  0  0  0  0  0  0  0
  -26.2240  -27.6747   21.4346 C   0  0  0  0  0  0  0  0  0  0  0  0
  -23.4751  -29.3389   21.8779 C   0  0  0  0  0  0  0  0  0  0  0  0
  -20.1168  -29.2781   22.4817 C   0  0  0  0  0  0  0  0  0  0  0  0
  -28.6970  -19.3500   20.4454 C   0  0  0  0  0  0  0  0  0  0  0  0
  -30.4141  -30.4460   20.5287 C   0  0  0  0  0  0  0  0  0  0  0  0
  -24.6855  -26.5551   19.7807 C   0  0  0  0  0  0  0  0  0  0  0  0
  -23.4050  -26.8774   22.4267 C   0  0  0  0  0  0  0  0  0  0  0  0
  -29.1408  -30.6289   21.3506 C   0  0  0  0  0  0  0  0  0  0  0  0
  -26.1953  -18.9250   17.9479 C   0  0  0  0  0  0  0  0  0  0  0  0
  -28.8756  -29.3940   22.2060 C   0  0  0  0  0  0  0  0  0  0  0  0
  -25.4080  -17.7025   18.4231 C   0  0  0  0  0  0  0  0  0  0  0  0
  -27.6853  -18.7908   18.2545 C   0  0  0  0  0  0  0  0  0  0  0  0
  -24.3404  -22.4516   24.5736 C   0  0  0  0  0  0  0  0  0  0  0  0
  -27.2162  -17.2740   20.1394 C   0  0  0  0  0  0  0  0  0  0  0  0
  -28.6637  -28.1523   21.3316 C   0  0  1  0  0  0  0  0  0  0  0  0
  -22.9292  -22.1020   24.0973 C   0  0  1  0  0  0  0  0  0  1  0  0
  -24.9441  -27.7787   20.6543 C   0  0  1  0  0  0  0  0  0  0  0  0
  -25.7005  -17.3876   19.9025 C   0  0  2  0  0  0  0  0  0  0  0  0
  -18.1499  -30.7973   22.8290 C   0  0  0  0  0  0  0  0  0  0  0  0
  -29.3518  -18.1533   24.6721 C   0  0  0  0  0  0  0  0  0  0  0  0
  -31.1949  -17.7900   23.0319 C   0  0  0  0  0  0  0  0  0  0  0  0
  -24.4433  -29.9413   24.7081 C   0  0  0  0  0  0  0  0  0  0  0  0
  -22.1024  -30.6103   25.2917 C   0  0  0  0  0  0  0  0  0  0  0  0
  -23.3588  -31.8707   23.5437 C   0  0  0  0  0  0  0  0  0  0  0  0
  -18.7136  -28.1942   20.1120 C   0  0  0  0  0  0  0  0  0  0  0  0
  -29.6275  -19.7851   22.7046 C   0  0  1  0  0  0  0  0  0  0  0  0
  -22.5217  -29.5409   23.0308 C   0  0  1  0  0  0  0  0  0  0  0  0
  -18.9605  -30.0029   21.8168 C   0  0  2  0  0  0  0  0  0  0  0  0
  -30.3457  -18.8563   23.7363 C   0  0  0  0  0  0  0  0  0  0  0  0
  -23.1120  -30.4649   24.1332 C   0  0  0  0  0  0  0  0  0  0  0  0
  -25.5668  -14.9558   20.2910 N   0  0  0  0  0  0  0  0  0  0  0  0
  -24.9560  -16.1503   20.3692 N   0  0  0  0  0  0  0  0  0  0  0  0
  -25.2662  -21.3185   24.4599 N   0  0  0  0  0  0  0  0  0  0  0  0
  -23.8721  -28.0187   21.6225 N   0  0  0  0  0  0  0  0  0  0  0  0
  -27.8941  -18.4939   19.6737 N   0  0  0  0  0  0  0  0  0  0  0  0
  -30.6858  -22.4042   23.3168 N   0  0  0  0  0  0  0  0  0  0  0  0
  -22.9375  -17.2002   21.0280 N   0  0  0  0  0  0  0  0  0  0  0  0
  -22.1855  -12.8389   21.9278 N   0  0  0  0  0  0  0  0  0  0  0  0
  -27.3325  -28.1551   20.7639 N   0  0  0  0  0  0  0  0  0  0  0  0
  -21.2748  -30.0259   22.4492 N   0  0  0  0  0  0  0  0  0  0  0  0
  -28.8378  -18.9995   21.7826 N   0  0  0  0  0  0  0  0  0  0  0  0
  -18.0528  -29.0275   21.1493 N   0  3  0  0  0  0  0  0  0  0  0  0
  -21.1825  -20.7521   24.7779 O   0  5  0  0  0  0  0  0  0  0  0  0
  -25.5295  -19.0329   24.9504 O   0  0  0  0  0  0  0  0  0  0  0  0
  -21.2642  -14.9380   21.9870 O   0  0  0  0  0  0  0  0  0  0  0  0
  -26.2068  -27.1956   22.5624 O   0  0  0  0  0  0  0  0  0  0  0  0
  -23.8481  -30.3158   21.2235 O   0  0  0  0  0  0  0  0  0  0  0  0
  -20.0031  -28.1618   22.9832 O   0  0  0  0  0  0  0  0  0  0  0  0
  -29.2432  -20.3553   19.9786 O   0  0  0  0  0  0  0  0  0  0  0  0
  -25.7510   -8.6410   21.0906 O   0  0  0  0  0  0  0  0  0  0  0  0
  -22.9144  -22.0155   22.6698 O   0  0  0  0  0  0  0  0  0  1  0  0
  -21.8538   -5.1374   19.3759 F   0  0  0  0  0  0  0  0  0  0  0  0
  -23.2542   -8.6056   22.2769 F   0  0  0  0  0  0  0  0  0  0  0  0
  1  2  1  0  0  0  0
  1  5  2  0  0  0  0
  2  6  2  0  0  0  0
  3 10  2  0  0  0  0
  3 18  1  0  0  0  0
  4 11  1  0  0  0  0
  4 18  2  0  0  0  0
  5 20  1  0  0  0  0
  6 22  1  0  0  0  0
  7 12  2  0  0  0  0
  7 21  1  0  0  0  0
  8  9  2  0  0  0  0
  8 25  1  0  0  0  0
  9 26  1  0  0  0  0
 10 27  1  0  0  0  0
 11 27  2  0  0  0  0
 12 28  1  0  0  0  0
 13 14  2  0  0  0  0
 13 29  1  0  0  0  0
 14 30  1  0  0  0  0
 15 23  1  0  0  0  0
 15 28  2  0  0  0  0
 16 24  1  0  0  0  0
 16 25  2  0  0  0  0
 17 30  2  0  0  0  0
 17 31  1  0  0  0  0
 18 32  1  0  0  0  0
 19 32  1  0  0  0  0
 19 33  2  0  0  0  0
 19 37  1  0  0  0  0
 20 22  2  0  0  0  0
 20 42  1  0  0  0  0
 21 23  2  0  0  0  0
 21 43  1  0  0  0  0
 22 52  1  0  0  0  0
 23 44  1  0  0  0  0
 24 26  2  0  0  0  0
 24 63  1  0  0  0  0
 25 70  1  0  0  0  0
 26 73  1  0  0  0  0
 27 87  1  0  0  0  0
 28 88  1  0  0  0  0
 29 31  2  0  0  0  0
 29 87  1  0  0  0  0
 30 89  1  0  0  0  0
 31 90  1  0  0  0  0
 32 68  2  0  0  0  0
 33 69  1  0  0  0  0
 33 74  1  0  0  0  0
 34 35  2  0  0  0  0
 34 36  1  0  0  0  0
 35 53  1  0  0  0  0
 35 80  1  0  0  0  0
 36 70  1  0  0  0  0
 36 81  2  0  0  0  0
 37 75  1  0  0  0  0
 37 82  2  0  0  0  0
 38 54  1  0  0  0  0
 38 76  1  0  0  0  0
 38 83  2  0  0  0  0
 39 64  1  0  0  0  0
 39 71  1  0  0  0  0
 39 84  2  0  0  0  0
 40 65  1  0  0  0  0
 40 77  1  0  0  0  0
 40 85  2  0  0  0  0
 41 72  1  0  0  0  0
 41 78  1  0  0  0  0
 41 86  2  0  0  0  0
 42 45  1  0  0  0  0
 43 54  1  0  0  0  0
 44 71  1  0  0  0  0
 45 47  1  0  0  0  0
 46 48  1  0  0  0  0
 46 49  1  0  0  0  0
 47 52  1  0  0  0  0
 48 55  1  0  0  0  0
 49 72  1  0  0  0  0
 50 53  1  0  0  0  0
 50 70  1  0  0  0  0
 51 55  1  0  0  0  0
 51 72  1  0  0  0  0
 52 76  1  0  0  0  0
 53 88  1  0  0  0  0
 54 71  1  0  0  0  0
 55 69  1  0  0  0  0
 56 65  1  0  0  0  0
 57 66  1  0  0  0  0
 58 66  1  0  0  0  0
 59 67  1  0  0  0  0
 60 67  1  0  0  0  0
 61 67  1  0  0  0  0
 62 79  1  0  0  0  0
 63 66  1  0  0  0  0
 63 78  1  0  0  0  0
 64 67  1  0  0  0  0
 64 77  1  0  0  0  0
 65 79  1  0  0  0  0
 68 69  1  0  0  0  0
M  CHG  2  79   1  80  -1
M  ISO  4  41 100  53 101  78 100  88 101
M  END
> <Batch ID>
0070

> <Smiles>
CNC(C)C(=O)NC(C(=O)N1Cc2cc([101O:1][101CH:1]3CN(c4ccc(N)c(C([100NH:0][100C:0](=O)N5CCCC(n6nc(-c7ccc(Oc8ccc(F)cc8F)cc7)c(C(N)=O)c6N)C5)C(C)C)c4)C(=O)CC3=O)ccc2CC1C(=O)NC1CCCc2ccccc21)C(C)(C)C

> <Shape>
0.202

> <Color>
0.067

> <Negative vol penalty>
0.000

$$$$

  -OEChem-04042323323D

 88 97  0     1  0  0  0  0  0999 V2000
  -30.4388  -25.6468   17.5738 C   0  0  0  0  0  0  0  0  0  0  0  0
  -29.0490  -25.6560   17.6359 C   0  0  0  0  0  0  0  0  0  0  0  0
  -23.9480  -13.3943   18.3924 C   0  0  0  0  0  0  0  0  0  0  0  0
  -23.2716  -13.8082   20.6745 C   0  0  0  0  0  0  0  0  0  0  0  0
  -31.1867  -26.1236   18.6495 C   0  0  0  0  0  0  0  0  0  0  0  0
  -28.4063  -26.1411   18.7743 C   0  0  0  0  0  0  0  0  0  0  0  0
  -23.0982  -29.1882   18.9886 C   0  0  0  0  0  0  0  0  0  0  0  0
  -25.0319  -12.6449   18.8495 C   0  0  0  0  0  0  0  0  0  0  0  0
  -24.3555  -13.0587   21.1317 C   0  0  0  0  0  0  0  0  0  0  0  0
  -21.7940  -28.7817   19.2669 C   0  0  0  0  0  0  0  0  0  0  0  0
  -28.1055  -13.2341   20.1264 C   0  0  0  0  0  0  0  0  0  0  0  0
  -29.3457  -13.4588   19.5291 C   0  0  0  0  0  0  0  0  0  0  0  0
  -19.6450  -20.9578   22.8608 C   0  0  0  0  0  0  0  0  0  0  0  0
  -22.0745  -29.4732   21.5609 C   0  0  0  0  0  0  0  0  0  0  0  0
  -19.5696  -22.9089   21.4379 C   0  0  0  0  0  0  0  0  0  0  0  0
  -29.4249  -11.1492   18.8245 C   0  0  0  0  0  0  0  0  0  0  0  0
  -23.0678  -13.9760   19.3049 C   0  0  0  0  0  0  0  0  0  0  0  0
  -19.1405  -21.7112   23.9207 C   0  0  0  0  0  0  0  0  0  0  0  0
  -20.6549  -14.2815   18.5353 C   0  0  0  0  0  0  0  0  0  0  0  0
  -30.5527  -26.6237   19.7978 C   0  0  0  0  0  0  0  0  0  0  0  0
  -23.9055  -29.7310   19.9986 C   0  0  0  0  0  0  0  0  0  0  0  0
  -29.1465  -26.6238   19.8670 C   0  0  0  0  0  0  0  0  0  0  0  0
  -23.3878  -29.8881   21.2922 C   0  0  0  0  0  0  0  0  0  0  0  0
  -19.0650  -23.6623   22.4978 C   0  0  0  0  0  0  0  0  0  0  0  0
  -19.8596  -21.5566   21.6194 C   0  0  0  0  0  0  0  0  0  0  0  0
  -25.2357  -12.4770   20.2192 C   0  0  0  0  0  0  0  0  0  0  0  0
  -21.2829  -28.9215   20.5539 C   0  0  0  0  0  0  0  0  0  0  0  0
  -27.5249  -11.9669   20.0728 C   0  0  0  0  0  0  0  0  0  0  0  0
  -30.0055  -12.4164   18.8781 C   0  0  0  0  0  0  0  0  0  0  0  0
  -28.1846  -10.9244   19.4219 C   0  0  0  0  0  0  0  0  0  0  0  0
  -18.8504  -23.0635   23.7392 C   0  0  0  0  0  0  0  0  0  0  0  0
  -21.9482  -14.7508   18.8333 C   0  0  0  0  0  0  0  0  0  0  0  0
  -19.9687  -15.4000   18.1299 C   0  0  0  0  0  0  0  0  0  0  0  0
  -18.8961  -25.8038   21.2307 C   0  0  0  0  0  0  0  0  0  0  0  0
  -18.9181  -21.0832   25.2137 C   0  0  0  0  0  0  0  0  0  0  0  0
  -20.1215  -12.9532   18.6176 C   0  0  0  0  0  0  0  0  0  0  0  0
  -26.6494  -28.8959   21.3687 C   0  0  0  0  0  0  0  0  0  0  0  0
  -26.3345  -31.7657   22.8477 C   0  0  0  0  0  0  0  0  0  0  0  0
  -24.2704  -34.2704   23.9026 C   0  0  0  0  0  0  0  0  0  0  0  0
  -20.6430  -21.2311   19.2474 C   0  0  0  0  0  0  0  0  0  0  0  0
  -31.4039  -27.0846   20.9544 C   0  0  0  0  0  0  0  0  0  0  0  0
  -25.3013  -30.1893   19.6759 C   0  0  0  0  0  0  0  0  0  0  0  0
  -24.2067  -30.4837   22.4071 C   0  0  0  0  0  0  0  0  0  0  0  0
  -30.6421  -27.9288   21.9729 C   0  0  0  0  0  0  0  0  0  0  0  0
  -20.6466  -19.6610   16.0518 C   0  0  0  0  0  0  0  0  0  0  0  0
  -29.3067  -27.2759   22.3154 C   0  0  0  0  0  0  0  0  0  0  0  0
  -20.8570  -18.1802   16.3757 C   0  0  0  0  0  0  0  0  0  0  0  0
  -21.4427  -20.5656   16.9907 C   0  0  0  0  0  0  0  0  0  0  0  0
  -18.5262  -26.0557   23.2844 C   0  0  0  0  0  0  0  0  0  0  0  0
  -21.4379  -18.8369   18.7459 C   0  0  0  0  0  0  0  0  0  0  0  0
  -28.4125  -27.1650   21.0746 C   0  0  1  0  0  0  0  0  0  0  0  0
  -18.6214  -27.0507   22.0997 C   0  0  1  0  0  0  0  0  0  0  0  0
  -26.2073  -30.2538   20.9015 C   0  0  1  0  0  0  0  0  0  0  0  0
  -20.6053  -17.8884   17.8680 C   0  0  2  0  0  0  0  0  0  0  0  0
  -24.2990  -36.4673   25.1150 C   0  0  0  0  0  0  0  0  0  0  0  0
  -26.6705  -30.2949   25.4998 C   0  0  0  0  0  0  0  0  0  0  0  0
  -25.7579  -32.3185   26.6577 C   0  0  0  0  0  0  0  0  0  0  0  0
  -27.8807  -32.4788   25.3575 C   0  0  0  0  0  0  0  0  0  0  0  0
  -18.8793  -21.4156   27.6980 C   0  0  0  0  0  0  0  0  0  0  0  0
  -23.1986  -35.7138   21.5517 C   0  0  0  0  0  0  0  0  0  0  0  0
  -19.7440  -28.0687   22.1540 C   0  0  0  0  0  0  0  0  0  1  0  0
  -25.6863  -32.2453   24.1239 C   0  0  1  0  0  0  0  0  0  0  0  0
  -24.3629  -35.7790   23.7605 C   0  0  2  0  0  0  0  0  0  0  0  0
  -26.4838  -31.8213   25.3894 C   0  0  0  0  0  0  0  0  0  0  0  0
  -22.0785  -16.0651   18.6340 N   0  0  0  0  0  0  0  0  0  0  0  0
  -20.8581  -16.4312   18.2064 N   0  0  0  0  0  0  0  0  0  0  0  0
  -18.7801  -24.9964   22.3163 N   0  0  0  0  0  0  0  0  0  0  0  0
  -25.5678  -30.9109   22.0432 N   0  0  0  0  0  0  0  0  0  0  0  0
  -21.1502  -20.2345   18.3870 N   0  0  0  0  0  0  0  0  0  0  0  0
  -18.6972  -15.5923   17.7190 N   0  0  0  0  0  0  0  0  0  0  0  0
  -20.9634  -11.9209   19.0535 N   0  0  0  0  0  0  0  0  0  0  0  0
  -20.3720  -20.7913   20.5426 N   0  0  0  0  0  0  0  0  0  0  0  0
  -19.0463  -21.8967   26.3455 N   0  0  0  0  0  0  0  0  0  0  0  0
  -27.8102  -28.4452   20.7697 N   0  0  0  0  0  0  0  0  0  0  0  0
  -25.5175  -33.6872   23.9791 N   0  0  0  0  0  0  0  0  0  0  0  0
  -23.2430  -36.2897   22.9204 N   0  3  0  0  0  0  0  0  0  0  0  0
  -19.1548  -25.5917   20.0679 O   0  0  0  0  0  0  0  0  0  0  0  0
  -18.6476  -19.8716   25.2886 O   0  0  0  0  0  0  0  0  0  0  0  0
  -18.9382  -12.6866   18.2979 O   0  0  0  0  0  0  0  0  0  0  0  0
  -25.9872  -28.3017   22.2114 O   0  0  0  0  0  0  0  0  0  0  0  0
  -27.4764  -32.1416   22.5711 O   0  0  0  0  0  0  0  0  0  0  0  0
  -23.1990  -33.6698   23.9454 O   0  0  0  0  0  0  0  0  0  0  0  0
  -20.4366  -22.3827   18.8559 O   0  0  0  0  0  0  0  0  0  0  0  0
  -26.2931  -11.7456   20.6656 O   0  0  0  0  0  0  0  0  0  0  0  0
  -20.0104  -28.5250   20.8284 O   0  0  0  0  0  0  0  0  0  1  0  0
  -31.1958  -12.6327   18.3033 F   0  0  0  0  0  0  0  0  0  0  0  0
  -27.6313   -9.7052   19.3661 F   0  0  0  0  0  0  0  0  0  0  0  0
  -18.3652  -23.7881   24.7590 F   0  0  0  0  0  0  0  0  0  0  0  0
  1  2  1  0  0  0  0
  1  5  2  0  0  0  0
  2  6  2  0  0  0  0
  3  8  2  0  0  0  0
  3 17  1  0  0  0  0
  4  9  1  0  0  0  0
  4 17  2  0  0  0  0
  5 20  1  0  0  0  0
  6 22  1  0  0  0  0
  7 10  2  0  0  0  0
  7 21  1  0  0  0  0
  8 26  1  0  0  0  0
  9 26  2  0  0  0  0
 10 27  1  0  0  0  0
 11 12  2  0  0  0  0
 11 28  1  0  0  0  0
 12 29  1  0  0  0  0
 13 18  1  0  0  0  0
 13 25  2  0  0  0  0
 14 23  1  0  0  0  0
 14 27  2  0  0  0  0
 15 24  2  0  0  0  0
 15 25  1  0  0  0  0
 16 29  2  0  0  0  0
 16 30  1  0  0  0  0
 17 32  1  0  0  0  0
 18 31  2  0  0  0  0
 18 35  1  0  0  0  0
 19 32  1  0  0  0  0
 19 33  2  0  0  0  0
 19 36  1  0  0  0  0
 20 22  2  0  0  0  0
 20 41  1  0  0  0  0
 21 23  2  0  0  0  0
 21 42  1  0  0  0  0
 22 51  1  0  0  0  0
 23 43  1  0  0  0  0
 24 31  1  0  0  0  0
 24 67  1  0  0  0  0
 25 72  1  0  0  0  0
 26 84  1  0  0  0  0
 27 85  1  0  0  0  0
 28 30  2  0  0  0  0
 28 84  1  0  0  0  0
 29 86  1  0  0  0  0
 30 87  1  0  0  0  0
 31 88  1  0  0  0  0
 32 65  2  0  0  0  0
 33 66  1  0  0  0  0
 33 70  1  0  0  0  0
 34 52  1  0  0  0  0
 34 67  1  0  0  0  0
 34 77  2  0  0  0  0
 35 73  1  0  0  0  0
 35 78  2  0  0  0  0
 36 71  1  0  0  0  0
 36 79  2  0  0  0  0
 37 53  1  0  0  0  0
 37 74  1  0  0  0  0
 37 80  2  0  0  0  0
 38 62  1  0  0  0  0
 38 68  1  0  0  0  0
 38 81  2  0  0  0  0
 39 63  1  0  0  0  0
 39 75  1  0  0  0  0
 39 82  2  0  0  0  0
 40 69  1  0  0  0  0
 40 72  1  0  0  0  0
 40 83  2  0  0  0  0
 41 44  1  0  0  0  0
 42 53  1  0  0  0  0
 43 68  1  0  0  0  0
 44 46  1  0  0  0  0
 45 47  1  0  0  0  0
 45 48  1  0  0  0  0
 46 51  1  0  0  0  0
 47 54  1  0  0  0  0
 48 69  1  0  0  0  0
 49 52  1  0  0  0  0
 49 67  1  0  0  0  0
 50 54  1  0  0  0  0
 50 69  1  0  0  0  0
 51 74  1  0  0  0  0
 52 61  1  0  0  0  0
 53 68  1  0  0  0  0
 54 66  1  0  0  0  0
 55 63  1  0  0  0  0
 56 64  1  0  0  0  0
 57 64  1  0  0  0  0
 58 64  1  0  0  0  0
 59 73  1  0  0  0  0
 60 76  1  0  0  0  0
 61 85  1  0  0  0  0
 62 64  1  0  0  0  0
 62 75  1  0  0  0  0
 63 76  1  0  0  0  0
 65 66  1  0  0  0  0
M  CHG  1  76   1
M  ISO  4  40 100  61 101  72 100  85 101
M  END
> <Batch ID>
0070

> <Smiles>
CNC(=O)c1cc([100NH:0][100C:0](=O)N2CCCC(n3nc(-c4ccc(Oc5ccc(F)cc5F)cc4)c(C(N)=O)c3N)C2)cc(N2CC([101CH2:1][101O:1]c3ccc4c(c3)CN(C(=O)C(NC(=O)C(C)NC)C(C)(C)C)C(C(=O)NC3CCCc5ccccc53)C4)C2=O)c1F

> <Shape>
0.279

> <Color>
0.083

> <Negative vol penalty>
0.000

$$$$

  -OEChem-04042323323D

 86 95  0     1  0  0  0  0  0999 V2000
  -29.9435  -35.3728   27.0906 C   0  0  0  0  0  0  0  0  0  0  0  0
  -30.2642  -34.4427   26.1070 C   0  0  0  0  0  0  0  0  0  0  0  0
  -24.3447   -8.5905   19.6161 C   0  0  0  0  0  0  0  0  0  0  0  0
  -24.5709   -9.1702   21.9506 C   0  0  0  0  0  0  0  0  0  0  0  0
  -28.8228  -35.1752   27.8963 C   0  0  0  0  0  0  0  0  0  0  0  0
  -29.4651  -33.3139   25.9292 C   0  0  0  0  0  0  0  0  0  0  0  0
  -28.2017  -30.4935   20.6420 C   0  0  0  0  0  0  0  0  0  0  0  0
  -26.4523  -19.8244   16.9544 C   0  0  0  0  0  0  0  0  0  0  0  0
  -26.6847  -18.6629   17.6910 C   0  0  0  0  0  0  0  0  0  0  0  0
  -23.1408   -7.9429   19.8935 C   0  0  0  0  0  0  0  0  0  0  0  0
  -23.3669   -8.5227   22.2280 C   0  0  0  0  0  0  0  0  0  0  0  0
  -28.7386  -29.3609   20.0314 C   0  0  0  0  0  0  0  0  0  0  0  0
  -22.2872   -5.3477   22.6582 C   0  0  0  0  0  0  0  0  0  0  0  0
  -22.2436   -4.5105   23.7730 C   0  0  0  0  0  0  0  0  0  0  0  0
  -26.9586  -28.0237   20.9602 C   0  0  0  0  0  0  0  0  0  0  0  0
  -28.2790  -19.8519   19.0627 C   0  0  0  0  0  0  0  0  0  0  0  0
  -20.4915   -5.8728   24.7276 C   0  0  0  0  0  0  0  0  0  0  0  0
  -25.0598   -9.2040   20.6446 C   0  0  0  0  0  0  0  0  0  0  0  0
  -27.4674   -9.3038   19.8073 C   0  0  0  0  0  0  0  0  0  0  0  0
  -28.0041  -34.0484   27.7218 C   0  0  0  0  0  0  0  0  0  0  0  0
  -27.0434  -30.3976   21.4266 C   0  0  0  0  0  0  0  0  0  0  0  0
  -28.3332  -33.1004   26.7342 C   0  0  0  0  0  0  0  0  0  0  0  0
  -26.4076  -29.1570   21.5776 C   0  0  0  0  0  0  0  0  0  0  0  0
  -27.1333  -20.9996   17.2719 C   0  0  0  0  0  0  0  0  0  0  0  0
  -28.0466  -21.0134   18.3261 C   0  0  0  0  0  0  0  0  0  0  0  0
  -27.5980  -18.6767   18.7451 C   0  0  0  0  0  0  0  0  0  0  0  0
  -22.6519   -7.9090   21.1994 C   0  0  0  0  0  0  0  0  0  0  0  0
  -28.1187  -28.1253   20.1928 C   0  0  0  0  0  0  0  0  0  0  0  0
  -21.4331   -6.4476   22.5782 C   0  0  0  0  0  0  0  0  0  0  0  0
  -21.3457   -4.7730   24.8076 C   0  0  0  0  0  0  0  0  0  0  0  0
  -20.5352   -6.7101   23.6128 C   0  0  0  0  0  0  0  0  0  0  0  0
  -26.3037   -9.8726   20.3588 C   0  0  0  0  0  0  0  0  0  0  0  0
  -28.3588  -10.3463   19.7364 C   0  0  0  0  0  0  0  0  0  0  0  0
  -30.1648  -22.2817   18.6331 C   0  0  0  0  0  0  0  0  0  0  0  0
  -27.7199   -7.9538   19.3958 C   0  0  0  0  0  0  0  0  0  0  0  0
  -26.3504  -30.9465   24.4798 C   0  0  0  0  0  0  0  0  0  0  0  0
  -23.3188  -30.3436   23.4959 C   0  0  0  0  0  0  0  0  0  0  0  0
  -21.2519  -28.8485   21.2289 C   0  0  0  0  0  0  0  0  0  0  0  0
  -27.2464  -16.2406   19.3166 C   0  0  0  0  0  0  0  0  0  0  0  0
  -26.8300  -33.8537   28.6482 C   0  0  0  0  0  0  0  0  0  0  0  0
  -26.4618  -31.6334   22.0566 C   0  0  0  0  0  0  0  0  0  0  0  0
  -25.1505  -29.0043   22.3931 C   0  0  0  0  0  0  0  0  0  0  0  0
  -30.7614  -23.6699   18.8211 C   0  0  0  0  0  0  0  0  0  0  0  0
  -25.8228  -32.8220   28.1466 C   0  0  0  0  0  0  0  0  0  0  0  0
  -28.7458  -14.4088   22.3366 C   0  0  0  0  0  0  0  0  0  0  0  0
  -26.5406  -31.5641   27.6680 C   0  0  0  0  0  0  0  0  0  0  0  0
  -28.9884  -13.0389   21.7073 C   0  0  0  0  0  0  0  0  0  0  0  0
  -28.6829  -15.5195   21.2957 C   0  0  0  0  0  0  0  0  0  0  0  0
  -27.1447  -13.9043   20.1638 C   0  0  0  0  0  0  0  0  0  0  0  0
  -27.9964  -23.3343   19.2480 C   0  0  0  0  0  0  0  0  0  0  0  0
  -27.4769  -31.8760   26.4942 C   0  0  1  0  0  0  0  0  0  0  0  0
  -25.5684  -31.3291   23.2552 C   0  0  1  0  0  0  0  0  0  0  0  0
  -28.2386  -12.8458   20.3743 C   0  0  2  0  0  0  0  0  0  0  0  0
  -28.6814  -24.6796   19.0525 C   0  0  1  0  0  0  0  0  0  0  0  0
  -26.8644  -22.2287   16.4657 C   0  0  0  0  0  0  0  0  0  0  0  0
  -18.8217  -28.5002   20.7088 C   0  0  0  0  0  0  0  0  0  0  0  0
  -23.1423  -28.2662   25.7237 C   0  0  0  0  0  0  0  0  0  0  0  0
  -21.1263  -27.3162   24.5830 C   0  0  0  0  0  0  0  0  0  0  0  0
  -21.0871  -29.6611   25.4329 C   0  0  0  0  0  0  0  0  0  0  0  0
  -21.4924  -30.2292   18.6223 C   0  0  0  0  0  0  0  0  0  0  0  0
  -27.9544  -25.7845   19.8061 C   0  0  0  0  0  0  0  0  0  1  0  0
  -22.4576  -29.1091   23.3813 C   0  0  1  0  0  0  0  0  0  0  0  0
  -20.0460  -29.3697   20.4683 C   0  0  2  0  0  0  0  0  0  0  0  0
  -21.9781  -28.5903   24.7664 C   0  0  0  0  0  0  0  0  0  0  0  0
  -26.4405  -11.1754   20.6199 N   0  0  0  0  0  0  0  0  0  0  0  0
  -27.7006  -11.4338   20.2308 N   0  0  0  0  0  0  0  0  0  0  0  0
  -28.7617  -22.2201   18.6703 N   0  0  0  0  0  0  0  0  0  0  0  0
  -24.6241  -30.2407   22.9944 N   0  0  0  0  0  0  0  0  0  0  0  0
  -27.6985  -15.2614   20.2347 N   0  0  0  0  0  0  0  0  0  0  0  0
  -29.6335  -10.4298   19.3000 N   0  0  0  0  0  0  0  0  0  0  0  0
  -28.2425   -7.0553   20.3360 N   0  0  0  0  0  0  0  0  0  0  0  0
  -27.8338  -17.4962   19.4933 N   0  0  0  0  0  0  0  0  0  0  0  0
  -26.7206  -32.0190   25.2687 N   0  0  0  0  0  0  0  0  0  0  0  0
  -21.3758  -29.4497   22.4636 N   0  0  0  0  0  0  0  0  0  0  0  0
  -20.3266  -29.3917   19.0048 N   0  3  0  0  0  0  0  0  0  0  0  0
  -30.9300  -21.3368   18.4318 O   0  0  0  0  0  0  0  0  0  0  0  0
  -27.5044   -7.5602   18.2244 O   0  0  0  0  0  0  0  0  0  0  0  0
  -26.5984  -29.7657   24.6939 O   0  0  0  0  0  0  0  0  0  0  0  0
  -22.8484  -31.3640   24.0050 O   0  0  0  0  0  0  0  0  0  0  0  0
  -22.0061  -27.9909   20.7749 O   0  0  0  0  0  0  0  0  0  0  0  0
  -26.4182  -15.9758   18.4426 O   0  0  0  0  0  0  0  0  0  0  0  0
  -29.9975  -24.5763   19.5800 O   0  0  0  0  0  0  0  0  0  0  0  0
  -21.4771   -7.2775   21.4704 O   0  0  0  0  0  0  0  0  0  0  0  0
  -28.6410  -27.0181   19.5985 O   0  0  0  0  0  0  0  0  0  1  0  0
  -21.3028   -3.9680   25.8773 F   0  0  0  0  0  0  0  0  0  0  0  0
  -19.7113   -7.7646   23.5410 F   0  0  0  0  0  0  0  0  0  0  0  0
  1  2  1  0  0  0  0
  1  5  2  0  0  0  0
  2  6  2  0  0  0  0
  3 10  2  0  0  0  0
  3 18  1  0  0  0  0
  4 11  1  0  0  0  0
  4 18  2  0  0  0  0
  5 20  1  0  0  0  0
  6 22  1  0  0  0  0
  7 12  2  0  0  0  0
  7 21  1  0  0  0  0
  8  9  2  0  0  0  0
  8 24  1  0  0  0  0
  9 26  1  0  0  0  0
 10 27  1  0  0  0  0
 11 27  2  0  0  0  0
 12 28  1  0  0  0  0
 13 14  2  0  0  0  0
 13 29  1  0  0  0  0
 14 30  1  0  0  0  0
 15 23  1  0  0  0  0
 15 28  2  0  0  0  0
 16 25  1  0  0  0  0
 16 26  2  0  0  0  0
 17 30  2  0  0  0  0
 17 31  1  0  0  0  0
 18 32  1  0  0  0  0
 19 32  1  0  0  0  0
 19 33  2  0  0  0  0
 19 35  1  0  0  0  0
 20 22  2  0  0  0  0
 20 40  1  0  0  0  0
 21 23  2  0  0  0  0
 21 41  1  0  0  0  0
 22 51  1  0  0  0  0
 23 42  1  0  0  0  0
 24 25  2  0  0  0  0
 24 55  1  0  0  0  0
 25 67  1  0  0  0  0
 26 72  1  0  0  0  0
 27 83  1  0  0  0  0
 28 84  1  0  0  0  0
 29 31  2  0  0  0  0
 29 83  1  0  0  0  0
 30 85  1  0  0  0  0
 31 86  1  0  0  0  0
 32 65  2  0  0  0  0
 33 66  1  0  0  0  0
 33 70  1  0  0  0  0
 34 43  1  0  0  0  0
 34 67  1  0  0  0  0
 34 76  2  0  0  0  0
 35 71  1  0  0  0  0
 35 77  2  0  0  0  0
 36 52  1  0  0  0  0
 36 73  1  0  0  0  0
 36 78  2  0  0  0  0
 37 62  1  0  0  0  0
 37 68  1  0  0  0  0
 37 79  2  0  0  0  0
 38 63  1  0  0  0  0
 38 74  1  0  0  0  0
 38 80  2  0  0  0  0
 39 69  1  0  0  0  0
 39 72  1  0  0  0  0
 39 81  2  0  0  0  0
 40 44  1  0  0  0  0
 41 52  1  0  0  0  0
 42 68  1  0  0  0  0
 43 82  1  0  0  0  0
 44 46  1  0  0  0  0
 45 47  1  0  0  0  0
 45 48  1  0  0  0  0
 46 51  1  0  0  0  0
 47 53  1  0  0  0  0
 48 69  1  0  0  0  0
 49 53  1  0  0  0  0
 49 69  1  0  0  0  0
 50 54  1  0  0  0  0
 50 67  1  0  0  0  0
 51 73  1  0  0  0  0
 52 68  1  0  0  0  0
 53 66  1  0  0  0  0
 54 61  1  0  0  0  0
 54 82  1  0  0  0  0
 56 63  1  0  0  0  0
 57 64  1  0  0  0  0
 58 64  1  0  0  0  0
 59 64  1  0  0  0  0
 60 75  1  0  0  0  0
 61 84  1  0  0  0  0
 62 64  1  0  0  0  0
 62 74  1  0  0  0  0
 63 75  1  0  0  0  0
 65 66  1  0  0  0  0
M  CHG  1  75   1
M  ISO  4  39 100  61 101  72 100  84 101
M  END
> <Batch ID>
0070

> <Smiles>
CNC(C)C(=O)NC(C(=O)N1Cc2cc([101O:1][101CH2:1]C3CN(c4cc([100NH:0][100C:0](=O)N5CCCC(n6nc(-c7ccc(Oc8ccc(F)cc8F)cc7)c(C(N)=O)c6N)C5)ccc4C)C(=O)CO3)ccc2CC1C(=O)NC1CCCc2ccccc21)C(C)(C)C

> <Shape>
0.282

> <Color>
0.098

> <Negative vol penalty>
0.000

$$$$

  -OEChem-04042323323D

 82 90  0     1  0  0  0  0  0999 V2000
  -29.8414  -30.2024   26.5800 C   0  0  0  0  0  0  0  0  0  0  0  0
  -29.4326  -29.4504   25.4834 C   0  0  0  0  0  0  0  0  0  0  0  0
  -24.4100   -8.8771   21.8415 C   0  0  0  0  0  0  0  0  0  0  0  0
  -22.9405   -9.5074   20.0304 C   0  0  0  0  0  0  0  0  0  0  0  0
  -28.8959  -30.8688   27.3584 C   0  0  0  0  0  0  0  0  0  0  0  0
  -28.0777  -29.3634   25.1651 C   0  0  0  0  0  0  0  0  0  0  0  0
  -27.2051  -29.9417   20.2104 C   0  0  0  0  0  0  0  0  0  0  0  0
  -23.7340   -7.6636   21.9678 C   0  0  0  0  0  0  0  0  0  0  0  0
  -22.2645   -8.2939   20.1566 C   0  0  0  0  0  0  0  0  0  0  0  0
  -27.4616  -28.8466   19.3866 C   0  0  0  0  0  0  0  0  0  0  0  0
  -20.8466   -6.5512   23.3278 C   0  0  0  0  0  0  0  0  0  0  0  0
  -20.5142   -6.1261   24.6140 C   0  0  0  0  0  0  0  0  0  0  0  0
  -25.1074  -28.3206   19.3632 C   0  0  0  0  0  0  0  0  0  0  0  0
  -25.5543  -20.2260   18.9826 C   0  0  0  0  0  0  0  0  0  0  0  0
  -21.8323   -4.1268   24.2939 C   0  0  0  0  0  0  0  0  0  0  0  0
  -26.0777  -18.6589   17.4528 C   0  0  0  0  0  0  0  0  0  0  0  0
  -24.0132   -9.7991   20.8729 C   0  0  0  0  0  0  0  0  0  0  0  0
  -25.8281  -11.3238   19.9298 C   0  0  0  0  0  0  0  0  0  0  0  0
  -27.5297  -30.7979   27.0438 C   0  0  0  0  0  0  0  0  0  0  0  0
  -25.8971  -30.2287   20.6263 C   0  0  0  0  0  0  0  0  0  0  0  0
  -27.1129  -30.0284   25.9408 C   0  0  0  0  0  0  0  0  0  0  0  0
  -24.8367  -29.4215   20.1902 C   0  0  0  0  0  0  0  0  0  0  0  0
  -25.5294  -18.8372   18.7038 C   0  0  0  0  0  0  0  0  0  0  0  0
  -22.6612   -7.3720   21.1253 C   0  0  0  0  0  0  0  0  0  0  0  0
  -26.4130  -28.0341   18.9653 C   0  0  0  0  0  0  0  0  0  0  0  0
  -21.6718   -5.7640   22.5245 C   0  0  0  0  0  0  0  0  0  0  0  0
  -21.0071   -4.9139   25.0971 C   0  0  0  0  0  0  0  0  0  0  0  0
  -22.1647   -4.5519   23.0076 C   0  0  0  0  0  0  0  0  0  0  0  0
  -24.7108  -11.0531   20.7424 C   0  0  0  0  0  0  0  0  0  0  0  0
  -26.1168  -20.8542   17.8934 C   0  0  0  0  0  0  0  0  0  0  0  0
  -26.1086  -12.6481   20.1619 C   0  0  0  0  0  0  0  0  0  0  0  0
  -26.5029  -24.5870   17.9389 C   0  0  0  0  0  0  0  0  0  0  0  0
  -26.3182  -25.7228   18.6195 C   0  0  0  0  0  0  0  0  0  1  0  0
  -26.5479  -10.4557   19.0443 C   0  0  0  0  0  0  0  0  0  0  0  0
  -26.0897  -23.2842   18.5373 C   0  0  0  0  0  0  0  0  0  0  0  0
  -24.4189  -30.3787   23.4363 C   0  0  0  0  0  0  0  0  0  0  0  0
  -21.9472  -31.4661   21.6389 C   0  0  0  0  0  0  0  0  0  0  0  0
  -20.4279  -31.6096   18.5864 C   0  0  0  0  0  0  0  0  0  0  0  0
  -24.4770  -17.9325   20.8063 C   0  0  0  0  0  0  0  0  0  0  0  0
  -26.5405  -31.4968   27.9425 C   0  0  0  0  0  0  0  0  0  0  0  0
  -25.6338  -31.4294   21.4932 C   0  0  0  0  0  0  0  0  0  0  0  0
  -23.4119  -29.6985   20.5921 C   0  0  0  0  0  0  0  0  0  0  0  0
  -25.1577  -31.6591   27.3166 C   0  0  0  0  0  0  0  0  0  0  0  0
  -24.3237  -15.8270   23.6734 C   0  0  0  0  0  0  0  0  0  0  0  0
  -24.7045  -30.3507   26.6767 C   0  0  0  0  0  0  0  0  0  0  0  0
  -24.5026  -14.4196   23.0996 C   0  0  0  0  0  0  0  0  0  0  0  0
  -23.5028  -16.7185   22.7433 C   0  0  0  0  0  0  0  0  0  0  0  0
  -24.1683  -15.3792   20.7856 C   0  0  0  0  0  0  0  0  0  0  0  0
  -25.6546  -29.9301   25.5488 C   0  0  1  0  0  0  0  0  0  0  0  0
  -24.3276  -31.3273   22.2747 C   0  0  1  0  0  0  0  0  0  0  0  0
  -25.0436  -14.4637   21.6570 C   0  0  2  0  0  0  0  0  0  0  0  0
  -18.4011  -32.5409   17.4366 C   0  0  0  0  0  0  0  0  0  0  0  0
  -20.2287  -29.2884   22.9094 C   0  0  0  0  0  0  0  0  0  0  0  0
  -18.5542  -29.6408   21.0818 C   0  0  0  0  0  0  0  0  0  0  0  0
  -19.0901  -31.5005   22.6557 C   0  0  0  0  0  0  0  0  0  0  0  0
  -27.0417  -20.1193   15.6778 C   0  0  0  0  0  0  0  0  0  0  0  0
  -22.0771  -33.2372   16.7453 C   0  0  0  0  0  0  0  0  0  0  0  0
  -20.7907  -30.8241   20.9114 C   0  0  1  0  0  0  0  0  0  0  0  0
  -19.8595  -32.7756   17.7979 C   0  0  2  0  0  0  0  0  0  0  0  0
  -19.6929  -30.3068   21.8834 C   0  0  0  0  0  0  0  0  0  0  0  0
  -24.3092  -12.1197   21.4388 N   0  0  0  0  0  0  0  0  0  0  0  0
  -26.4308  -19.8918   16.9696 N   0  0  0  0  0  0  0  0  0  0  0  0
  -25.1788  -13.0735   21.0645 N   0  0  0  0  0  0  0  0  0  0  0  0
  -23.2063  -30.8804   21.4456 N   0  0  0  0  0  0  0  0  0  0  0  0
  -24.0768  -16.7148   21.3959 N   0  0  0  0  0  0  0  0  0  0  0  0
  -27.0576  -13.4786   19.6800 N   0  0  0  0  0  0  0  0  0  0  0  0
  -26.1259   -9.1246   18.9244 N   0  0  0  0  0  0  0  0  0  0  0  0
  -25.0387  -17.8012   19.5367 N   0  0  0  0  0  0  0  0  0  0  0  0
  -26.3659  -22.2315   17.6750 N   0  0  0  0  0  0  0  0  0  0  0  0
  -25.3973  -30.7069   24.3552 N   0  0  0  0  0  0  0  0  0  0  0  0
  -20.3176  -31.8103   19.9461 N   0  0  0  0  0  0  0  0  0  0  0  0
  -20.6300  -32.9733   16.5376 N   0  3  0  0  0  0  0  0  0  0  0  0
  -27.5460  -10.8446   18.3915 O   0  0  0  0  0  0  0  0  0  0  0  0
  -25.5795  -23.2297   19.6501 O   0  0  0  0  0  0  0  0  0  0  0  0
  -23.6570  -29.4207   23.4954 O   0  0  0  0  0  0  0  0  0  0  0  0
  -21.7422  -32.4553   22.3467 O   0  0  0  0  0  0  0  0  0  0  0  0
  -20.9171  -30.6180   18.0498 O   0  0  0  0  0  0  0  0  0  0  0  0
  -24.3571  -19.0095   21.3961 O   0  0  0  0  0  0  0  0  0  0  0  0
  -22.0015   -6.1878   21.2481 O   0  0  0  0  0  0  0  0  0  0  0  0
  -26.6606  -26.9641   18.1617 O   0  0  0  0  0  0  0  0  0  1  0  0
  -20.6890   -4.5066   26.3328 F   0  0  0  0  0  0  0  0  0  0  0  0
  -22.9588   -3.7920   22.2410 F   0  0  0  0  0  0  0  0  0  0  0  0
  1  2  1  0  0  0  0
  1  5  2  0  0  0  0
  2  6  2  0  0  0  0
  3  8  2  0  0  0  0
  3 17  1  0  0  0  0
  4  9  1  0  0  0  0
  4 17  2  0  0  0  0
  5 19  1  0  0  0  0
  6 21  1  0  0  0  0
  7 10  2  0  0  0  0
  7 20  1  0  0  0  0
  8 24  1  0  0  0  0
  9 24  2  0  0  0  0
 10 25  1  0  0  0  0
 11 12  2  0  0  0  0
 11 26  1  0  0  0  0
 12 27  1  0  0  0  0
 13 22  1  0  0  0  0
 13 25  2  0  0  0  0
 14 23  1  0  0  0  0
 14 30  2  0  0  0  0
 15 27  2  0  0  0  0
 15 28  1  0  0  0  0
 16 23  2  0  0  0  0
 16 62  1  0  0  0  0
 17 29  1  0  0  0  0
 18 29  1  0  0  0  0
 18 31  2  0  0  0  0
 18 34  1  0  0  0  0
 19 21  2  0  0  0  0
 19 40  1  0  0  0  0
 20 22  2  0  0  0  0
 20 41  1  0  0  0  0
 21 49  1  0  0  0  0
 22 42  1  0  0  0  0
 23 68  1  0  0  0  0
 24 79  1  0  0  0  0
 25 80  1  0  0  0  0
 26 28  2  0  0  0  0
 26 79  1  0  0  0  0
 27 81  1  0  0  0  0
 28 82  1  0  0  0  0
 29 61  2  0  0  0  0
 30 62  1  0  0  0  0
 30 69  1  0  0  0  0
 31 63  1  0  0  0  0
 31 66  1  0  0  0  0
 32 33  2  0  0  0  0
 32 35  1  0  0  0  0
 33 80  1  0  0  0  0
 34 67  1  0  0  0  0
 34 73  2  0  0  0  0
 35 69  1  0  0  0  0
 35 74  2  0  0  0  0
 36 50  1  0  0  0  0
 36 70  1  0  0  0  0
 36 75  2  0  0  0  0
 37 58  1  0  0  0  0
 37 64  1  0  0  0  0
 37 76  2  0  0  0  0
 38 59  1  0  0  0  0
 38 71  1  0  0  0  0
 38 77  2  0  0  0  0
 39 65  1  0  0  0  0
 39 68  1  0  0  0  0
 39 78  2  0  0  0  0
 40 43  1  0  0  0  0
 41 50  1  0  0  0  0
 42 64  1  0  0  0  0
 43 45  1  0  0  0  0
 44 46  1  0  0  0  0
 44 47  1  0  0  0  0
 45 49  1  0  0  0  0
 46 51  1  0  0  0  0
 47 65  1  0  0  0  0
 48 51  1  0  0  0  0
 48 65  1  0  0  0  0
 49 70  1  0  0  0  0
 50 64  1  0  0  0  0
 51 63  1  0  0  0  0
 52 59  1  0  0  0  0
 53 60  1  0  0  0  0
 54 60  1  0  0  0  0
 55 60  1  0  0  0  0
 56 62  1  0  0  0  0
 57 72  1  0  0  0  0
 58 60  1  0  0  0  0
 58 71  1  0  0  0  0
 59 72  1  0  0  0  0
 61 63  1  0  0  0  0
M  CHG  1  72   1
M  ISO  4  33 101  39 100  68 100  80 101
M  END
> <Batch ID>
0070

> <Smiles>
CNC(C)C(=O)NC(C(=O)N1Cc2cc([101O:1][101CH:1]=CC(=O)Nc3cc([100NH:0][100C:0](=O)N4CCCC(n5nc(-c6ccc(Oc7ccc(F)cc7F)cc6)c(C(N)=O)c5N)C4)cn3C)ccc2CC1C(=O)NC1CCCc2ccccc21)C(C)(C)C

> <Shape>
0.239

> <Color>
0.090

> <Negative vol penalty>
0.000

$$$$

  -OEChem-04042323323D

 88 97  0     1  0  0  0  0  0999 V2000
  -40.8114  -31.6743   25.3983 C   0  0  0  0  0  0  0  0  0  0  0  0
  -40.1170  -30.4801   25.2337 C   0  0  0  0  0  0  0  0  0  0  0  0
  -23.0764   -9.8657   19.9422 C   0  0  0  0  0  0  0  0  0  0  0  0
  -23.8344   -9.8759   22.2362 C   0  0  0  0  0  0  0  0  0  0  0  0
  -40.4107  -32.8141   24.7024 C   0  0  0  0  0  0  0  0  0  0  0  0
  -39.0206  -30.4253   24.3738 C   0  0  0  0  0  0  0  0  0  0  0  0
  -37.3083  -25.6892   20.8891 C   0  0  0  0  0  0  0  0  0  0  0  0
  -22.3326   -8.7128   20.1931 C   0  0  0  0  0  0  0  0  0  0  0  0
  -23.0905   -8.7230   22.4871 C   0  0  0  0  0  0  0  0  0  0  0  0
  -36.3468  -24.6950   21.0644 C   0  0  0  0  0  0  0  0  0  0  0  0
  -19.8619   -7.9254   23.0880 C   0  0  0  0  0  0  0  0  0  0  0  0
  -19.1040   -7.8869   24.2583 C   0  0  0  0  0  0  0  0  0  0  0  0
  -34.7820  -25.9866   19.7596 C   0  0  0  0  0  0  0  0  0  0  0  0
  -29.7066  -19.2888   22.3470 C   0  0  0  0  0  0  0  0  0  0  0  0
  -31.1541  -17.6791   20.5873 C   0  0  0  0  0  0  0  0  0  0  0  0
  -20.3452   -5.9507   24.9984 C   0  0  0  0  0  0  0  0  0  0  0  0
  -23.8274  -10.4473   20.9637 C   0  0  0  0  0  0  0  0  0  0  0  0
  -24.1689  -12.9723   20.8406 C   0  0  0  0  0  0  0  0  0  0  0  0
  -39.3147  -32.7708   23.8262 C   0  0  0  0  0  0  0  0  0  0  0  0
  -37.0099  -26.8466   20.1556 C   0  0  0  0  0  0  0  0  0  0  0  0
  -38.6040  -31.5659   23.6666 C   0  0  0  0  0  0  0  0  0  0  0  0
  -35.7423  -26.9929   19.5743 C   0  0  0  0  0  0  0  0  0  0  0  0
  -29.5254  -17.9059   22.3573 C   0  0  0  0  0  0  0  0  0  0  0  0
  -30.6116  -19.8670   21.4568 C   0  0  0  0  0  0  0  0  0  0  0  0
  -30.2491  -17.1010   21.4775 C   0  0  0  0  0  0  0  0  0  0  0  0
  -22.3395   -8.1414   21.4655 C   0  0  0  0  0  0  0  0  0  0  0  0
  -35.0825  -24.8449   20.5020 C   0  0  0  0  0  0  0  0  0  0  0  0
  -20.8615   -6.9765   22.8728 C   0  0  0  0  0  0  0  0  0  0  0  0
  -19.3456   -6.8996   25.2135 C   0  0  0  0  0  0  0  0  0  0  0  0
  -31.3354  -19.0622   20.5770 C   0  0  0  0  0  0  0  0  0  0  0  0
  -21.1031   -5.9891   23.8280 C   0  0  0  0  0  0  0  0  0  0  0  0
  -24.5965  -11.6379   20.7050 C   0  0  0  0  0  0  0  0  0  0  0  0
  -25.2612  -13.7215   20.4772 C   0  0  0  0  0  0  0  0  0  0  0  0
  -29.8311  -22.2565   21.7749 C   0  0  0  0  0  0  0  0  0  0  0  0
  -22.8979  -13.4885   21.2577 C   0  0  0  0  0  0  0  0  0  0  0  0
  -36.8906  -29.9532   20.8176 C   0  0  0  0  0  0  0  0  0  0  0  0
  -36.3927  -30.2176   17.6232 C   0  0  0  0  0  0  0  0  0  0  0  0
  -35.3229  -28.7624   14.7275 C   0  0  0  0  0  0  0  0  0  0  0  0
  -30.7270  -14.7683   20.6551 C   0  0  0  0  0  0  0  0  0  0  0  0
  -38.8899  -34.0404   23.1318 C   0  0  0  0  0  0  0  0  0  0  0  0
  -38.0667  -27.8976   19.9532 C   0  0  0  0  0  0  0  0  0  0  0  0
  -35.3783  -28.2071   18.7609 C   0  0  0  0  0  0  0  0  0  0  0  0
  -37.9477  -33.8045   21.9542 C   0  0  0  0  0  0  0  0  0  0  0  0
  -29.6151  -12.3511   18.2891 C   0  0  0  0  0  0  0  0  0  0  0  0
  -36.8430  -32.8267   22.3418 C   0  0  0  0  0  0  0  0  0  0  0  0
  -28.1751  -12.0598   18.7179 C   0  0  0  0  0  0  0  0  0  0  0  0
  -30.5291  -12.5817   19.4912 C   0  0  0  0  0  0  0  0  0  0  0  0
  -28.6209  -13.3077   20.8699 C   0  0  0  0  0  0  0  0  0  0  0  0
  -32.0410  -21.8973   21.0209 C   0  0  0  0  0  0  0  0  0  0  0  0
  -37.4248  -31.4603   22.7240 C   0  0  1  0  0  0  0  0  0  0  0  0
  -30.4590  -23.6151   21.4914 C   0  0  2  0  0  0  0  0  0  0  0  0
  -37.4887  -29.2698   19.6206 C   0  0  1  0  0  0  0  0  0  0  0  0
  -27.6491  -13.1327   19.6915 C   0  0  2  0  0  0  0  0  0  0  0  0
  -31.9730  -23.3294   21.5687 C   0  0  1  0  0  0  0  0  0  0  0  0
  -28.5491  -17.3136   23.3214 C   0  0  0  0  0  0  0  0  0  0  0  0
  -29.9290  -24.7065   22.4081 C   0  0  0  0  0  0  0  0  0  0  0  0
  -32.5287  -23.3744   23.0044 C   0  0  0  0  0  0  0  0  0  0  0  0
  -35.0003  -29.2398   12.2851 C   0  0  0  0  0  0  0  0  0  0  0  0
  -33.8949  -31.8448   18.2737 C   0  0  0  0  0  0  0  0  0  0  0  0
  -33.1274  -31.4778   15.9190 C   0  0  0  0  0  0  0  0  0  0  0  0
  -35.2433  -32.7236   16.3595 C   0  0  0  0  0  0  0  0  0  0  0  0
  -37.2201  -26.6312   13.9415 C   0  0  0  0  0  0  0  0  0  0  0  0
  -32.7770  -24.2922   20.6893 C   0  0  0  0  0  0  0  0  0  1  0  0
  -35.1776  -30.2231   16.7274 C   0  0  1  0  0  0  0  0  0  0  0  0
  -35.9452  -28.6945   13.3446 C   0  0  2  0  0  0  0  0  0  0  0  0
  -34.3667  -31.5452   16.8368 C   0  0  0  0  0  0  0  0  0  0  0  0
  -25.8617  -11.5418   20.2879 N   0  0  0  0  0  0  0  0  0  0  0  0
  -26.2385  -12.8252   20.1582 N   0  0  0  0  0  0  0  0  0  0  0  0
  -30.7955  -21.2824   21.4475 N   0  0  0  0  0  0  0  0  0  0  0  0
  -36.4437  -29.2098   18.5967 N   0  0  0  0  0  0  0  0  0  0  0  0
  -29.9692  -13.6136   20.3668 N   0  0  0  0  0  0  0  0  0  0  0  0
  -25.4714  -15.0529   20.4026 N   0  0  0  0  0  0  0  0  0  0  0  0
  -21.8859  -12.5796   21.5954 N   0  0  0  0  0  0  0  0  0  0  0  0
  -30.0788  -15.6943   21.4717 N   0  0  0  0  0  0  0  0  0  0  0  0
  -37.7899  -30.7167   21.5373 N   0  0  0  0  0  0  0  0  0  0  0  0
  -35.6603  -29.9277   15.3828 N   0  0  0  0  0  0  0  0  0  0  0  0
  -36.2793  -27.2847   12.9955 N   0  3  0  0  0  0  0  0  0  0  0  0
  -28.6763  -22.1172   22.1516 O   0  0  0  0  0  0  0  0  0  0  0  0
  -22.6614  -14.7191   21.3132 O   0  0  0  0  0  0  0  0  0  0  0  0
  -35.7009  -29.8005   21.0688 O   0  0  0  0  0  0  0  0  0  0  0  0
  -37.2680  -31.0714   17.4603 O   0  0  0  0  0  0  0  0  0  0  0  0
  -34.6059  -27.8724   15.1798 O   0  0  0  0  0  0  0  0  0  0  0  0
  -31.8565  -14.9366   20.1882 O   0  0  0  0  0  0  0  0  0  0  0  0
  -21.6136   -7.0165   21.7108 O   0  0  0  0  0  0  0  0  0  0  0  0
  -34.1419  -23.8763   20.6722 O   0  0  0  0  0  0  0  0  0  1  0  0
  -18.6188   -6.8637   26.3380 F   0  0  0  0  0  0  0  0  0  0  0  0
  -32.2082  -19.6078   19.7180 F   0  0  0  0  0  0  0  0  0  0  0  0
  -22.0627   -5.0756   23.6275 F   0  0  0  0  0  0  0  0  0  0  0  0
  1  2  1  0  0  0  0
  1  5  2  0  0  0  0
  2  6  2  0  0  0  0
  3  8  2  0  0  0  0
  3 17  1  0  0  0  0
  4  9  1  0  0  0  0
  4 17  2  0  0  0  0
  5 19  1  0  0  0  0
  6 21  1  0  0  0  0
  7 10  2  0  0  0  0
  7 20  1  0  0  0  0
  8 26  1  0  0  0  0
  9 26  2  0  0  0  0
 10 27  1  0  0  0  0
 11 12  2  0  0  0  0
 11 28  1  0  0  0  0
 12 29  1  0  0  0  0
 13 22  1  0  0  0  0
 13 27  2  0  0  0  0
 14 23  2  0  0  0  0
 14 24  1  0  0  0  0
 15 25  2  0  0  0  0
 15 30  1  0  0  0  0
 16 29  2  0  0  0  0
 16 31  1  0  0  0  0
 17 32  1  0  0  0  0
 18 32  1  0  0  0  0
 18 33  2  0  0  0  0
 18 35  1  0  0  0  0
 19 21  2  0  0  0  0
 19 40  1  0  0  0  0
 20 22  2  0  0  0  0
 20 41  1  0  0  0  0
 21 50  1  0  0  0  0
 22 42  1  0  0  0  0
 23 25  1  0  0  0  0
 23 55  1  0  0  0  0
 24 30  2  0  0  0  0
 24 69  1  0  0  0  0
 25 74  1  0  0  0  0
 26 84  1  0  0  0  0
 27 85  1  0  0  0  0
 28 31  2  0  0  0  0
 28 84  1  0  0  0  0
 29 86  1  0  0  0  0
 30 87  1  0  0  0  0
 31 88  1  0  0  0  0
 32 67  2  0  0  0  0
 33 68  1  0  0  0  0
 33 72  1  0  0  0  0
 34 51  1  0  0  0  0
 34 69  1  0  0  0  0
 34 78  2  0  0  0  0
 35 73  1  0  0  0  0
 35 79  2  0  0  0  0
 36 52  1  0  0  0  0
 36 75  1  0  0  0  0
 36 80  2  0  0  0  0
 37 64  1  0  0  0  0
 37 70  1  0  0  0  0
 37 81  2  0  0  0  0
 38 65  1  0  0  0  0
 38 76  1  0  0  0  0
 38 82  2  0  0  0  0
 39 71  1  0  0  0  0
 39 74  1  0  0  0  0
 39 83  2  0  0  0  0
 40 43  1  0  0  0  0
 41 52  1  0  0  0  0
 42 70  1  0  0  0  0
 43 45  1  0  0  0  0
 44 46  1  0  0  0  0
 44 47  1  0  0  0  0
 45 50  1  0  0  0  0
 46 53  1  0  0  0  0
 47 71  1  0  0  0  0
 48 53  1  0  0  0  0
 48 71  1  0  0  0  0
 49 54  1  0  0  0  0
 49 69  1  0  0  0  0
 50 75  1  0  0  0  0
 51 54  1  0  0  0  0
 51 56  1  0  0  0  0
 52 70  1  0  0  0  0
 53 68  1  0  0  0  0
 54 57  1  0  0  0  0
 54 63  1  0  0  0  0
 58 65  1  0  0  0  0
 59 66  1  0  0  0  0
 60 66  1  0  0  0  0
 61 66  1  0  0  0  0
 62 77  1  0  0  0  0
 63 85  1  0  0  0  0
 64 66  1  0  0  0  0
 64 76  1  0  0  0  0
 65 77  1  0  0  0  0
 67 68  1  0  0  0  0
M  CHG  1  77   1
M  ISO  4  39 100  63 101  74 100  85 101
M  END
> <Batch ID>
0070

> <Smiles>
CNC(C)C(=O)NC(C(=O)N1Cc2cc([101O:1][101CH2:1]C3(C)CN(c4cc(C)c([100NH:0][100C:0](=O)N5CCCC(n6nc(-c7ccc(Oc8ccc(F)cc8F)cc7)c(C(N)=O)c6N)C5)cc4F)C(=O)C3C)ccc2CC1C(=O)NC1CCCc2ccccc21)C(C)(C)C

> <Shape>
0.186

> <Color>
0.192

> <Negative vol penalty>
0.000

$$$$

  -OEChem-04042323323D

 85 93  0     1  0  0  0  0  0999 V2000
  -16.9371  -28.1770   28.3717 C   0  0  0  0  0  0  0  0  0  0  0  0
  -18.2151  -27.7859   27.9856 C   0  0  0  0  0  0  0  0  0  0  0  0
  -23.0748   -9.8687   19.9402 C   0  0  0  0  0  0  0  0  0  0  0  0
  -23.8344   -9.8746   22.2337 C   0  0  0  0  0  0  0  0  0  0  0  0
  -32.6520  -17.4887   23.4580 C   0  0  0  0  0  0  0  0  0  0  0  0
  -16.2336  -27.4255   29.3121 C   0  0  0  0  0  0  0  0  0  0  0  0
  -18.7909  -26.6435   28.5406 C   0  0  0  0  0  0  0  0  0  0  0  0
  -22.5423  -22.6862   25.7527 C   0  0  0  0  0  0  0  0  0  0  0  0
  -32.0644  -16.6055   22.5523 C   0  0  0  0  0  0  0  0  0  0  0  0
  -22.3304   -8.7157   20.1897 C   0  0  0  0  0  0  0  0  0  0  0  0
  -23.0899   -8.7216   22.4832 C   0  0  0  0  0  0  0  0  0  0  0  0
  -23.9296  -22.5480   25.7551 C   0  0  0  0  0  0  0  0  0  0  0  0
  -19.8614   -7.9250   23.0851 C   0  0  0  0  0  0  0  0  0  0  0  0
  -19.1043   -7.8850   24.2559 C   0  0  0  0  0  0  0  0  0  0  0  0
  -23.7544  -20.8801   27.4890 C   0  0  0  0  0  0  0  0  0  0  0  0
  -29.8805  -17.4540   23.1418 C   0  0  0  0  0  0  0  0  0  0  0  0
  -20.3447   -5.9468   24.9918 C   0  0  0  0  0  0  0  0  0  0  0  0
  -23.8268  -10.4480   20.9622 C   0  0  0  0  0  0  0  0  0  0  0  0
  -31.8538  -18.3545   24.2057 C   0  0  0  0  0  0  0  0  0  0  0  0
  -24.1698  -12.9731   20.8431 C   0  0  0  0  0  0  0  0  0  0  0  0
  -16.7972  -26.2680   29.8716 C   0  0  0  0  0  0  0  0  0  0  0  0
  -21.7501  -21.9290   26.6275 C   0  0  0  0  0  0  0  0  0  0  0  0
  -18.0949  -25.8766   29.4903 C   0  0  0  0  0  0  0  0  0  0  0  0
  -22.3571  -21.0087   27.4939 C   0  0  0  0  0  0  0  0  0  0  0  0
  -30.6787  -16.5882   22.3941 C   0  0  0  0  0  0  0  0  0  0  0  0
  -30.4681  -18.3371   24.0476 C   0  0  0  0  0  0  0  0  0  0  0  0
  -22.3379   -8.1422   21.4612 C   0  0  0  0  0  0  0  0  0  0  0  0
  -24.5361  -21.6470   26.6254 C   0  0  0  0  0  0  0  0  0  0  0  0
  -20.8601   -6.9759   22.8676 C   0  0  0  0  0  0  0  0  0  0  0  0
  -19.3459   -6.8960   25.2093 C   0  0  0  0  0  0  0  0  0  0  0  0
  -21.1018   -5.9868   23.8210 C   0  0  0  0  0  0  0  0  0  0  0  0
  -24.5965  -11.6387   20.7050 C   0  0  0  0  0  0  0  0  0  0  0  0
  -25.2623  -13.7222   20.4802 C   0  0  0  0  0  0  0  0  0  0  0  0
  -27.7577  -20.3415   25.6972 C   0  0  0  0  0  0  0  0  0  0  0  0
  -26.4462  -20.5818   25.7962 C   0  0  0  0  0  0  0  0  0  1  0  0
  -32.4880  -19.2620   25.1399 C   0  0  0  0  0  0  0  0  0  0  0  0
  -22.8994  -13.4893   21.2620 C   0  0  0  0  0  0  0  0  0  0  0  0
  -28.2552  -19.3015   24.7502 C   0  0  0  0  0  0  0  0  0  0  0  0
  -19.7537  -22.6107   29.0052 C   0  0  0  0  0  0  0  0  0  0  0  0
  -19.1878  -19.4176   28.9266 C   0  0  0  0  0  0  0  0  0  0  0  0
  -20.2971  -16.2982   28.0985 C   0  0  0  0  0  0  0  0  0  0  0  0
  -30.7289  -14.7654   20.6559 C   0  0  0  0  0  0  0  0  0  0  0  0
  -16.0172  -25.5144   30.9196 C   0  0  0  0  0  0  0  0  0  0  0  0
  -20.2530  -22.0703   26.5939 C   0  0  0  0  0  0  0  0  0  0  0  0
  -21.5500  -20.1574   28.4386 C   0  0  0  0  0  0  0  0  0  0  0  0
  -16.5499  -24.1079   31.1814 C   0  0  0  0  0  0  0  0  0  0  0  0
  -29.6138  -12.3528   18.2867 C   0  0  0  0  0  0  0  0  0  0  0  0
  -18.0674  -24.1318   31.3344 C   0  0  0  0  0  0  0  0  0  0  0  0
  -28.1739  -12.0617   18.7160 C   0  0  0  0  0  0  0  0  0  0  0  0
  -30.5288  -12.5809   19.4886 C   0  0  0  0  0  0  0  0  0  0  0  0
  -28.6220  -13.3057   20.8698 C   0  0  0  0  0  0  0  0  0  0  0  0
  -18.7435  -24.6297   30.0512 C   0  0  1  0  0  0  0  0  0  0  0  0
  -19.5811  -21.6212   27.8878 C   0  0  1  0  0  0  0  0  0  0  0  0
  -27.6493  -13.1332   19.6918 C   0  0  2  0  0  0  0  0  0  0  0  0
  -19.6290  -13.8811   28.1907 C   0  0  0  0  0  0  0  0  0  0  0  0
  -19.8239  -19.3581   31.9102 C   0  0  0  0  0  0  0  0  0  0  0  0
  -20.0741  -16.8730   31.7363 C   0  0  0  0  0  0  0  0  0  0  0  0
  -17.8779  -17.9421   31.2299 C   0  0  0  0  0  0  0  0  0  0  0  0
  -20.3897  -16.0403   25.1517 C   0  0  0  0  0  0  0  0  0  0  0  0
  -19.7912  -18.2081   29.5989 C   0  0  1  0  0  0  0  0  0  0  0  0
  -19.6270  -15.1543   27.3590 C   0  0  2  0  0  0  0  0  0  0  0  0
  -19.4074  -18.1126   31.1025 C   0  0  0  0  0  0  0  0  0  0  0  0
  -25.8613  -11.5424   20.2868 N   0  0  0  0  0  0  0  0  0  0  0  0
  -26.2388  -12.8259   20.1590 N   0  0  0  0  0  0  0  0  0  0  0  0
  -20.0902  -20.3366   28.3726 N   0  0  0  0  0  0  0  0  0  0  0  0
  -29.9702  -13.6116   20.3662 N   0  0  0  0  0  0  0  0  0  0  0  0
  -25.4733  -15.0536   20.4076 N   0  0  0  0  0  0  0  0  0  0  0  0
  -32.6998  -18.8880   26.4116 N   0  0  0  0  0  0  0  0  0  0  0  0
  -21.8871  -12.5805   21.5988 N   0  0  0  0  0  0  0  0  0  0  0  0
  -29.6397  -19.2071   24.7984 N   0  0  0  0  0  0  0  0  0  0  0  0
  -30.0818  -15.6905   21.4746 N   0  0  0  0  0  0  0  0  0  0  0  0
  -18.7708  -23.5807   29.0545 N   0  0  0  0  0  0  0  0  0  0  0  0
  -19.3849  -17.0541   28.8040 N   0  0  0  0  0  0  0  0  0  0  0  0
  -32.8719  -20.4855   24.7429 N   0  3  0  0  0  0  0  0  0  0  0  0
  -20.3366  -14.8797   26.0776 N   0  3  0  0  0  0  0  0  0  0  0  0
  -22.6637  -14.7200   21.3197 O   0  0  0  0  0  0  0  0  0  0  0  0
  -27.4819  -18.6550   24.0533 O   0  0  0  0  0  0  0  0  0  0  0  0
  -20.7072  -22.5014   29.7672 O   0  0  0  0  0  0  0  0  0  0  0  0
  -17.9609  -19.5389   28.8881 O   0  0  0  0  0  0  0  0  0  0  0  0
  -21.5089  -16.4987   28.0577 O   0  0  0  0  0  0  0  0  0  0  0  0
  -31.8581  -14.9338   20.1885 O   0  0  0  0  0  0  0  0  0  0  0  0
  -21.6115   -7.0174   21.7051 O   0  0  0  0  0  0  0  0  0  0  0  0
  -25.8901  -21.5107   26.6302 O   0  0  0  0  0  0  0  0  0  1  0  0
  -18.6198   -6.8586   26.3342 F   0  0  0  0  0  0  0  0  0  0  0  0
  -22.0608   -5.0730   23.6182 F   0  0  0  0  0  0  0  0  0  0  0  0
  1  2  1  0  0  0  0
  1  6  2  0  0  0  0
  2  7  2  0  0  0  0
  3 10  2  0  0  0  0
  3 18  1  0  0  0  0
  4 11  1  0  0  0  0
  4 18  2  0  0  0  0
  5  9  2  0  0  0  0
  5 19  1  0  0  0  0
  6 21  1  0  0  0  0
  7 23  1  0  0  0  0
  8 12  2  0  0  0  0
  8 22  1  0  0  0  0
  9 25  1  0  0  0  0
 10 27  1  0  0  0  0
 11 27  2  0  0  0  0
 12 28  1  0  0  0  0
 13 14  2  0  0  0  0
 13 29  1  0  0  0  0
 14 30  1  0  0  0  0
 15 24  1  0  0  0  0
 15 28  2  0  0  0  0
 16 25  2  0  0  0  0
 16 26  1  0  0  0  0
 17 30  2  0  0  0  0
 17 31  1  0  0  0  0
 18 32  1  0  0  0  0
 19 26  2  0  0  0  0
 19 36  1  0  0  0  0
 20 32  1  0  0  0  0
 20 33  2  0  0  0  0
 20 37  1  0  0  0  0
 21 23  2  0  0  0  0
 21 43  1  0  0  0  0
 22 24  2  0  0  0  0
 22 44  1  0  0  0  0
 23 52  1  0  0  0  0
 24 45  1  0  0  0  0
 25 71  1  0  0  0  0
 26 70  1  0  0  0  0
 27 82  1  0  0  0  0
 28 83  1  0  0  0  0
 29 31  2  0  0  0  0
 29 82  1  0  0  0  0
 30 84  1  0  0  0  0
 31 85  1  0  0  0  0
 32 63  2  0  0  0  0
 33 64  1  0  0  0  0
 33 67  1  0  0  0  0
 34 35  2  0  0  0  0
 34 38  1  0  0  0  0
 35 83  1  0  0  0  0
 36 68  1  0  0  0  0
 36 74  2  0  0  0  0
 37 69  1  0  0  0  0
 37 76  2  0  0  0  0
 38 70  1  0  0  0  0
 38 77  2  0  0  0  0
 39 53  1  0  0  0  0
 39 72  1  0  0  0  0
 39 78  2  0  0  0  0
 40 60  1  0  0  0  0
 40 65  1  0  0  0  0
 40 79  2  0  0  0  0
 41 61  1  0  0  0  0
 41 73  1  0  0  0  0
 41 80  2  0  0  0  0
 42 66  1  0  0  0  0
 42 71  1  0  0  0  0
 42 81  2  0  0  0  0
 43 46  1  0  0  0  0
 44 53  1  0  0  0  0
 45 65  1  0  0  0  0
 46 48  1  0  0  0  0
 47 49  1  0  0  0  0
 47 50  1  0  0  0  0
 48 52  1  0  0  0  0
 49 54  1  0  0  0  0
 50 66  1  0  0  0  0
 51 54  1  0  0  0  0
 51 66  1  0  0  0  0
 52 72  1  0  0  0  0
 53 65  1  0  0  0  0
 54 64  1  0  0  0  0
 55 61  1  0  0  0  0
 56 62  1  0  0  0  0
 57 62  1  0  0  0  0
 58 62  1  0  0  0  0
 59 75  1  0  0  0  0
 60 62  1  0  0  0  0
 60 73  1  0  0  0  0
 61 75  1  0  0  0  0
 63 64  1  0  0  0  0
M  CHG  2  74   1  75   1
M  ISO  4  35 101  42 100  71 100  83 101
M  END
> <Batch ID>
0070

> <Smiles>
CNC(C)C(=O)NC(C(=O)N1Cc2cc([101O:1][101CH:1]=CC(=O)Nc3cc([100NH:0][100C:0](=O)N4CCCC(n5nc(-c6ccc(Oc7ccc(F)cc7F)cc6)c(C(N)=O)c5N)C4)ccc3C(=N)N)ccc2CC1C(=O)NC1CCCc2ccccc21)C(C)(C)C

> <Shape>
0.165

> <Color>
0.180

> <Negative vol penalty>
0.000

$$$$

  -OEChem-04042323323D

 86 95  0     1  0  0  0  0  0999 V2000
  -22.3515  -11.0038   21.8743 C   0  0  0  0  0  0  0  0  0  0  0  0
  -22.0794  -12.3038   22.2885 C   0  0  0  0  0  0  0  0  0  0  0  0
  -29.9867  -27.7484   21.5041 C   0  0  0  0  0  0  0  0  0  0  0  0
  -28.5190  -25.8510   21.7916 C   0  0  0  0  0  0  0  0  0  0  0  0
  -23.5642  -10.7111   21.2519 C   0  0  0  0  0  0  0  0  0  0  0  0
  -23.0206  -13.3116   22.0815 C   0  0  0  0  0  0  0  0  0  0  0  0
  -20.9456  -17.5687   20.2880 C   0  0  0  0  0  0  0  0  0  0  0  0
  -17.9989  -28.3231   22.9500 C   0  0  0  0  0  0  0  0  0  0  0  0
  -19.2184  -28.9666   22.7393 C   0  0  0  0  0  0  0  0  0  0  0  0
  -30.9721  -27.0988   22.2475 C   0  0  0  0  0  0  0  0  0  0  0  0
  -29.5044  -25.2014   22.5349 C   0  0  0  0  0  0  0  0  0  0  0  0
  -20.2811  -18.3867   21.2007 C   0  0  0  0  0  0  0  0  0  0  0  0
  -31.7656  -22.8945   24.2033 C   0  0  0  0  0  0  0  0  0  0  0  0
  -32.0102  -21.5502   23.9227 C   0  0  0  0  0  0  0  0  0  0  0  0
  -22.2186  -19.8190   21.3185 C   0  0  0  0  0  0  0  0  0  0  0  0
  -20.2891  -26.8271   22.4024 C   0  0  0  0  0  0  0  0  0  0  0  0
  -32.5933  -22.1305   21.6511 C   0  0  0  0  0  0  0  0  0  0  0  0
  -28.7601  -27.1245   21.2762 C   0  0  0  0  0  0  0  0  0  0  0  0
  -27.5480  -27.7337   19.1158 C   0  0  0  0  0  0  0  0  0  0  0  0
  -24.5167  -11.7178   21.0284 C   0  0  0  0  0  0  0  0  0  0  0  0
  -22.2578  -17.8642   19.8914 C   0  0  0  0  0  0  0  0  0  0  0  0
  -24.2478  -13.0319   21.4567 C   0  0  0  0  0  0  0  0  0  0  0  0
  -22.8966  -19.0046   20.3987 C   0  0  0  0  0  0  0  0  0  0  0  0
  -17.9245  -26.9316   22.8870 C   0  0  0  0  0  0  0  0  0  0  0  0
  -19.0695  -26.1837   22.6132 C   0  0  0  0  0  0  0  0  0  0  0  0
  -20.3634  -28.2186   22.4654 C   0  0  0  0  0  0  0  0  0  0  0  0
  -30.7310  -25.8253   22.7629 C   0  0  0  0  0  0  0  0  0  0  0  0
  -20.9186  -19.5105   21.7183 C   0  0  0  0  0  0  0  0  0  0  0  0
  -31.9348  -23.8568   23.2078 C   0  0  0  0  0  0  0  0  0  0  0  0
  -32.4240  -21.1682   22.6466 C   0  0  0  0  0  0  0  0  0  0  0  0
  -32.3487  -23.4748   21.9317 C   0  0  0  0  0  0  0  0  0  0  0  0
  -27.7416  -27.7952   20.5088 C   0  0  0  0  0  0  0  0  0  0  0  0
  -26.4598  -28.5393   18.8844 C   0  0  0  0  0  0  0  0  0  0  0  0
  -18.2613  -24.0433   21.6959 C   0  0  0  0  0  0  0  0  0  0  0  0
  -18.4306  -22.7311   21.8961 C   0  0  0  0  0  0  0  0  0  0  0  0
  -28.2857  -27.0127   18.1200 C   0  0  0  0  0  0  0  0  0  0  0  0
  -25.0601  -16.3827   20.1281 C   0  0  0  0  0  0  0  0  0  0  0  0
  -26.0791  -18.8484   18.2831 C   0  0  0  0  0  0  0  0  0  0  0  0
  -25.6142  -22.0589   17.2232 C   0  0  0  0  0  0  0  0  0  0  0  0
  -21.8483  -30.2453   22.2797 C   0  0  0  0  0  0  0  0  0  0  0  0
  -25.8330  -11.3439   20.3942 C   0  0  0  0  0  0  0  0  0  0  0  0
  -22.9512  -16.9866   18.8856 C   0  0  0  0  0  0  0  0  0  0  0  0
  -24.2975  -19.3769   19.9895 C   0  0  0  0  0  0  0  0  0  0  0  0
  -26.6215  -12.5434   19.8749 C   0  0  0  0  0  0  0  0  0  0  0  0
  -24.1943  -32.3710   20.6506 C   0  0  0  0  0  0  0  0  0  0  0  0
  -26.6490  -13.6562   20.9179 C   0  0  0  0  0  0  0  0  0  0  0  0
  -25.3499  -31.4320   20.2971 C   0  0  0  0  0  0  0  0  0  0  0  0
  -23.5677  -32.0170   21.9981 C   0  0  0  0  0  0  0  0  0  0  0  0
  -19.8049  -23.9525   23.4423 C   0  0  0  0  0  0  0  0  0  0  0  0
  -24.3079  -29.6768   21.7872 C   0  0  0  0  0  0  0  0  0  0  0  0
  -25.2332  -14.1573   21.2275 C   0  0  1  0  0  0  0  0  0  0  0  0
  -19.4113  -22.5062   23.0236 C   0  0  2  0  0  0  0  0  0  0  0  0
  -24.4717  -17.0967   18.9442 C   0  0  1  0  0  0  0  0  0  0  0  0
  -24.9289  -29.9535   20.4082 C   0  0  2  0  0  0  0  0  0  0  0  0
  -16.6054  -26.2686   23.1165 C   0  0  0  0  0  0  0  0  0  0  0  0
  -16.7980  -22.1554   20.1329 C   0  0  0  0  0  0  0  0  0  0  0  0
  -26.6320  -23.8119   15.7439 C   0  0  0  0  0  0  0  0  0  0  0  0
  -28.2369  -19.3608   20.3787 C   0  0  0  0  0  0  0  0  0  0  0  0
  -28.5878  -21.6222   19.3635 C   0  0  0  0  0  0  0  0  0  0  0  0
  -29.0122  -19.5700   18.0103 C   0  0  0  0  0  0  0  0  0  0  0  0
  -23.1980  -22.1892   15.5192 C   0  0  0  0  0  0  0  0  0  0  0  0
  -17.7569  -21.6190   21.1795 C   0  0  0  0  0  0  0  0  0  0  0  0
  -20.6207  -21.6941   22.6122 C   0  0  0  0  0  0  0  0  0  1  0  0
  -26.6317  -20.2274   18.5516 C   0  0  1  0  0  0  0  0  0  0  0  0
  -25.6279  -22.6734   15.8352 C   0  0  2  0  0  0  0  0  0  0  0  0
  -28.0915  -20.1873   19.0854 C   0  0  0  0  0  0  0  0  0  0  0  0
  -26.8482  -28.5781   21.1195 N   0  0  0  0  0  0  0  0  0  0  0  0
  -26.0827  -29.0160   20.1054 N   0  0  0  0  0  0  0  0  0  0  0  0
  -19.0140  -24.8143   22.5485 N   0  0  0  0  0  0  0  0  0  0  0  0
  -24.9358  -18.4840   19.0084 N   0  0  0  0  0  0  0  0  0  0  0  0
  -23.1900  -30.6024   22.0286 N   0  0  0  0  0  0  0  0  0  0  0  0
  -25.7984  -28.8793   17.7578 N   0  0  0  0  0  0  0  0  0  0  0  0
  -29.3756  -26.2328   18.5301 N   0  0  0  0  0  0  0  0  0  0  0  0
  -21.6020  -28.8730   22.2520 N   0  0  0  0  0  0  0  0  0  0  0  0
  -24.7657  -15.0334   20.1747 N   0  0  0  0  0  0  0  0  0  0  0  0
  -26.4690  -20.9807   17.3129 N   0  0  0  0  0  0  0  0  0  0  0  0
  -24.2795  -23.2073   15.4918 N   0  3  0  0  0  0  0  0  0  0  0  0
  -27.9973  -27.0718   16.9006 O   0  0  0  0  0  0  0  0  0  0  0  0
  -25.7327  -17.0092   20.9385 O   0  0  0  0  0  0  0  0  0  0  0  0
  -26.6370  -18.1241   17.4551 O   0  0  0  0  0  0  0  0  0  0  0  0
  -24.9179  -22.4944   18.1376 O   0  0  0  0  0  0  0  0  0  0  0  0
  -20.9762  -31.0956   22.4761 O   0  0  0  0  0  0  0  0  0  0  0  0
  -31.6924  -25.1911   23.4881 O   0  0  0  0  0  0  0  0  0  0  0  0
  -20.2725  -20.3102   22.6098 O   0  0  0  0  0  0  0  0  0  1  0  0
  -32.6603  -19.8775   22.3777 F   0  0  0  0  0  0  0  0  0  0  0  0
  -32.5141  -24.3949   20.9715 F   0  0  0  0  0  0  0  0  0  0  0  0
  1  2  1  0  0  0  0
  1  5  2  0  0  0  0
  2  6  2  0  0  0  0
  3 10  2  0  0  0  0
  3 18  1  0  0  0  0
  4 11  1  0  0  0  0
  4 18  2  0  0  0  0
  5 20  1  0  0  0  0
  6 22  1  0  0  0  0
  7 12  2  0  0  0  0
  7 21  1  0  0  0  0
  8  9  2  0  0  0  0
  8 24  1  0  0  0  0
  9 26  1  0  0  0  0
 10 27  1  0  0  0  0
 11 27  2  0  0  0  0
 12 28  1  0  0  0  0
 13 14  2  0  0  0  0
 13 29  1  0  0  0  0
 14 30  1  0  0  0  0
 15 23  1  0  0  0  0
 15 28  2  0  0  0  0
 16 25  1  0  0  0  0
 16 26  2  0  0  0  0
 17 30  2  0  0  0  0
 17 31  1  0  0  0  0
 18 32  1  0  0  0  0
 19 32  1  0  0  0  0
 19 33  2  0  0  0  0
 19 36  1  0  0  0  0
 20 22  2  0  0  0  0
 20 41  1  0  0  0  0
 21 23  2  0  0  0  0
 21 42  1  0  0  0  0
 22 51  1  0  0  0  0
 23 43  1  0  0  0  0
 24 25  2  0  0  0  0
 24 55  1  0  0  0  0
 25 69  1  0  0  0  0
 26 74  1  0  0  0  0
 27 83  1  0  0  0  0
 28 84  1  0  0  0  0
 29 31  2  0  0  0  0
 29 83  1  0  0  0  0
 30 85  1  0  0  0  0
 31 86  1  0  0  0  0
 32 67  2  0  0  0  0
 33 68  1  0  0  0  0
 33 72  1  0  0  0  0
 34 35  2  0  0  0  0
 34 69  1  0  0  0  0
 35 52  1  0  0  0  0
 35 62  1  0  0  0  0
 36 73  1  0  0  0  0
 36 78  2  0  0  0  0
 37 53  1  0  0  0  0
 37 75  1  0  0  0  0
 37 79  2  0  0  0  0
 38 64  1  0  0  0  0
 38 70  1  0  0  0  0
 38 80  2  0  0  0  0
 39 65  1  0  0  0  0
 39 76  1  0  0  0  0
 39 81  2  0  0  0  0
 40 71  1  0  0  0  0
 40 74  1  0  0  0  0
 40 82  2  0  0  0  0
 41 44  1  0  0  0  0
 42 53  1  0  0  0  0
 43 70  1  0  0  0  0
 44 46  1  0  0  0  0
 45 47  1  0  0  0  0
 45 48  1  0  0  0  0
 46 51  1  0  0  0  0
 47 54  1  0  0  0  0
 48 71  1  0  0  0  0
 49 52  1  0  0  0  0
 49 69  1  0  0  0  0
 50 54  1  0  0  0  0
 50 71  1  0  0  0  0
 51 75  1  0  0  0  0
 52 63  1  0  0  0  0
 53 70  1  0  0  0  0
 54 68  1  0  0  0  0
 56 62  1  0  0  0  0
 57 65  1  0  0  0  0
 58 66  1  0  0  0  0
 59 66  1  0  0  0  0
 60 66  1  0  0  0  0
 61 77  1  0  0  0  0
 63 84  1  0  0  0  0
 64 66  1  0  0  0  0
 64 76  1  0  0  0  0
 65 77  1  0  0  0  0
 67 68  1  0  0  0  0
M  CHG  1  77   1
M  ISO  4  40 100  63 101  74 100  84 101
M  END
> <Batch ID>
0070

> <Smiles>
CCC1=CN(c2cc([100NH:0][100C:0](=O)N3CCCC(n4nc(-c5ccc(Oc6ccc(F)cc6F)cc5)c(C(N)=O)c4N)C3)ccc2C)CC1[101CH2:1][101O:1]c1ccc2c(c1)CN(C(=O)C(NC(=O)C(C)NC)C(C)(C)C)C(C(=O)NC1CCCc3ccccc31)C2

> <Shape>
0.211

> <Color>
0.078

> <Negative vol penalty>
0.000

$$$$

  -OEChem-04042323323D

 90 99  0     1  0  0  0  0  0999 V2000
  -26.3356  -36.0724   16.1681 C   0  0  0  0  0  0  0  0  0  0  0  0
  -26.5067  -34.6932   16.1049 C   0  0  0  0  0  0  0  0  0  0  0  0
  -24.7870   -8.6990   21.6423 C   0  0  0  0  0  0  0  0  0  0  0  0
  -23.2368   -9.8986   20.2299 C   0  0  0  0  0  0  0  0  0  0  0  0
  -26.4456  -36.7320   17.3915 C   0  0  0  0  0  0  0  0  0  0  0  0
  -26.7891  -33.9730   17.2650 C   0  0  0  0  0  0  0  0  0  0  0  0
  -24.9227  -28.3002   18.6223 C   0  0  0  0  0  0  0  0  0  0  0  0
  -23.7307   -8.2955   22.4590 C   0  0  0  0  0  0  0  0  0  0  0  0
  -22.1804   -9.4951   21.0466 C   0  0  0  0  0  0  0  0  0  0  0  0
  -25.5486  -27.0583   18.5246 C   0  0  0  0  0  0  0  0  0  0  0  0
  -21.2841   -5.9624   22.3962 C   0  0  0  0  0  0  0  0  0  0  0  0
  -21.2462   -4.6260   22.7941 C   0  0  0  0  0  0  0  0  0  0  0  0
  -26.1913  -27.2065   20.8450 C   0  0  0  0  0  0  0  0  0  0  0  0
  -24.9251  -19.4249   16.9390 C   0  0  0  0  0  0  0  0  0  0  0  0
  -26.8264  -18.3803   18.0024 C   0  0  0  0  0  0  0  0  0  0  0  0
  -25.1986  -17.0265   16.8386 C   0  0  0  0  0  0  0  0  0  0  0  0
  -21.3592   -5.3117   25.1080 C   0  0  0  0  0  0  0  0  0  0  0  0
  -24.5400   -9.5006   20.5278 C   0  0  0  0  0  0  0  0  0  0  0  0
  -26.1384   -9.2464   18.5559 C   0  0  0  0  0  0  0  0  0  0  0  0
  -26.7198  -36.0183   18.5687 C   0  0  0  0  0  0  0  0  0  0  0  0
  -24.9357  -29.0108   19.8312 C   0  0  0  0  0  0  0  0  0  0  0  0
  -26.9042  -34.6238   18.5051 C   0  0  0  0  0  0  0  0  0  0  0  0
  -25.5626  -28.4561   20.9561 C   0  0  0  0  0  0  0  0  0  0  0  0
  -26.1015  -19.5280   17.6814 C   0  0  0  0  0  0  0  0  0  0  0  0
  -24.4736  -18.1742   16.5177 C   0  0  0  0  0  0  0  0  0  0  0  0
  -26.3750  -17.1296   17.5810 C   0  0  0  0  0  0  0  0  0  0  0  0
  -22.4274   -8.6935   22.1612 C   0  0  0  0  0  0  0  0  0  0  0  0
  -26.1855  -26.5125   19.6353 C   0  0  0  0  0  0  0  0  0  0  0  0
  -21.3596   -6.9734   23.3543 C   0  0  0  0  0  0  0  0  0  0  0  0
  -21.2837   -4.3007   24.1499 C   0  0  0  0  0  0  0  0  0  0  0  0
  -21.3971   -6.6481   24.7101 C   0  0  0  0  0  0  0  0  0  0  0  0
  -25.6308   -9.9183   19.6841 C   0  0  0  0  0  0  0  0  0  0  0  0
  -27.1619  -10.0470   18.1111 C   0  0  0  0  0  0  0  0  0  0  0  0
  -27.9077  -22.4983   18.8077 C   0  0  0  0  0  0  0  0  0  0  0  0
  -27.8869  -21.0933   18.2867 C   0  0  0  0  0  0  0  0  0  0  0  0
  -20.3583  -19.4120   14.0973 C   0  0  0  0  0  0  0  0  0  0  0  0
  -21.2854  -18.5789   14.5803 C   0  0  0  0  0  0  0  0  0  0  0  0
  -25.7219   -8.0092   17.9630 C   0  0  0  0  0  0  0  0  0  0  0  0
  -22.4443  -19.1028   15.3599 C   0  0  0  0  0  0  0  0  0  0  0  0
  -26.0898  -31.8199   20.7696 C   0  0  0  0  0  0  0  0  0  0  0  0
  -24.5375  -31.0979   23.5248 C   0  0  0  0  0  0  0  0  0  0  0  0
  -23.2412  -28.6988   25.5767 C   0  0  0  0  0  0  0  0  0  0  0  0
  -28.2975  -15.8900   18.6362 C   0  0  0  0  0  0  0  0  0  0  0  0
  -26.8762  -36.7810   19.8604 C   0  0  0  0  0  0  0  0  0  0  0  0
  -24.2329  -30.3371   19.9273 C   0  0  0  0  0  0  0  0  0  0  0  0
  -25.5875  -29.1694   22.2824 C   0  0  0  0  0  0  0  0  0  0  0  0
  -26.8068  -35.8963   21.1025 C   0  0  0  0  0  0  0  0  0  0  0  0
  -30.3956  -13.2105   19.6829 C   0  0  0  0  0  0  0  0  0  0  0  0
  -27.6761  -34.6557   20.9235 C   0  0  0  0  0  0  0  0  0  0  0  0
  -29.4594  -11.9998   19.6935 C   0  0  0  0  0  0  0  0  0  0  0  0
  -29.6840  -14.4817   20.1427 C   0  0  0  0  0  0  0  0  0  0  0  0
  -25.6739  -21.9002   18.3963 C   0  0  0  0  0  0  0  0  0  0  0  0
  -27.5028  -13.5789   19.4380 C   0  0  0  0  0  0  0  0  0  0  0  0
  -27.1870  -33.8045   19.7456 C   0  0  1  0  0  0  0  0  0  0  0  0
  -26.5153  -22.9627   19.1087 C   0  0  2  0  0  0  0  0  0  0  0  0
  -24.7512  -31.2066   21.0688 C   0  0  1  0  0  0  0  0  0  0  0  0
  -28.1574  -12.2876   18.9206 C   0  0  2  0  0  0  0  0  0  0  0  0
  -22.0684  -28.4118   27.7766 C   0  0  0  0  0  0  0  0  0  0  0  0
  -27.1695  -31.5864   24.9890 C   0  0  0  0  0  0  0  0  0  0  0  0
  -26.2096  -30.3914   26.9685 C   0  0  0  0  0  0  0  0  0  0  0  0
  -25.1473  -32.4937   26.1474 C   0  0  0  0  0  0  0  0  0  0  0  0
  -20.8727  -27.4800   24.2869 C   0  0  0  0  0  0  0  0  0  0  0  0
  -26.2536  -24.3677   18.6100 C   0  0  0  0  0  0  0  0  0  1  0  0
  -24.8999  -30.3707   24.7971 C   0  0  1  0  0  0  0  0  0  0  0  0
  -21.8982  -28.5895   26.2759 C   0  0  2  0  0  0  0  0  0  0  0  0
  -25.8580  -31.1977   25.7001 C   0  0  0  0  0  0  0  0  0  0  0  0
  -26.2786  -11.0579   19.9402 N   0  0  0  0  0  0  0  0  0  0  0  0
  -27.2038  -11.1083   18.9668 N   0  0  0  0  0  0  0  0  0  0  0  0
  -26.5515  -20.7746   18.1007 N   0  0  0  0  0  0  0  0  0  0  0  0
  -24.8918  -30.4662   22.3243 N   0  0  0  0  0  0  0  0  0  0  0  0
  -28.4620  -14.6920   19.3633 N   0  0  0  0  0  0  0  0  0  0  0  0
  -28.0213   -9.9397   17.0755 N   0  0  0  0  0  0  0  0  0  0  0  0
  -24.6537   -7.3147   18.5469 N   0  0  0  0  0  0  0  0  0  0  0  0
  -23.2973  -18.0707   15.7744 N   0  0  0  0  0  0  0  0  0  0  0  0
  -27.1111  -15.9636   17.9072 N   0  0  0  0  0  0  0  0  0  0  0  0
  -26.0181  -33.0403   20.1253 N   0  0  0  0  0  0  0  0  0  0  0  0
  -23.6382  -30.0117   25.4356 N   0  0  0  0  0  0  0  0  0  0  0  0
  -21.1329  -27.4246   25.7485 N   0  3  0  0  0  0  0  0  0  0  0  0
  -28.9520  -23.0977   18.9662 O   0  0  0  0  0  0  0  0  0  0  0  0
  -28.9044  -20.4594   18.0993 O   0  0  0  0  0  0  0  0  0  0  0  0
  -26.2911   -7.5254   16.9553 O   0  0  0  0  0  0  0  0  0  0  0  0
  -22.5745  -20.3019   15.5762 O   0  0  0  0  0  0  0  0  0  0  0  0
  -27.1120  -31.2304   21.1001 O   0  0  0  0  0  0  0  0  0  0  0  0
  -23.9549  -32.1831   23.5935 O   0  0  0  0  0  0  0  0  0  0  0  0
  -23.8764  -27.7174   25.1973 O   0  0  0  0  0  0  0  0  0  0  0  0
  -29.1589  -16.7731   18.6370 O   0  0  0  0  0  0  0  0  0  0  0  0
  -21.3964   -8.2997   22.9577 O   0  0  0  0  0  0  0  0  0  0  0  0
  -26.7978  -25.3008   19.5425 O   0  0  0  0  0  0  0  0  0  1  0  0
  -21.2458   -3.0174   24.5319 F   0  0  0  0  0  0  0  0  0  0  0  0
  -21.4685   -7.6151   25.6352 F   0  0  0  0  0  0  0  0  0  0  0  0
  1  2  1  0  0  0  0
  1  5  2  0  0  0  0
  2  6  2  0  0  0  0
  3  8  2  0  0  0  0
  3 18  1  0  0  0  0
  4  9  1  0  0  0  0
  4 18  2  0  0  0  0
  5 20  1  0  0  0  0
  6 22  1  0  0  0  0
  7 10  2  0  0  0  0
  7 21  1  0  0  0  0
  8 27  1  0  0  0  0
  9 27  2  0  0  0  0
 10 28  1  0  0  0  0
 11 12  2  0  0  0  0
 11 29  1  0  0  0  0
 12 30  1  0  0  0  0
 13 23  1  0  0  0  0
 13 28  2  0  0  0  0
 14 24  1  0  0  0  0
 14 25  2  0  0  0  0
 15 24  2  0  0  0  0
 15 26  1  0  0  0  0
 16 25  1  0  0  0  0
 16 26  2  0  0  0  0
 17 30  2  0  0  0  0
 17 31  1  0  0  0  0
 18 32  1  0  0  0  0
 19 32  1  0  0  0  0
 19 33  2  0  0  0  0
 19 38  1  0  0  0  0
 20 22  2  0  0  0  0
 20 44  1  0  0  0  0
 21 23  2  0  0  0  0
 21 45  1  0  0  0  0
 22 54  1  0  0  0  0
 23 46  1  0  0  0  0
 24 69  1  0  0  0  0
 25 74  1  0  0  0  0
 26 75  1  0  0  0  0
 27 87  1  0  0  0  0
 28 88  1  0  0  0  0
 29 31  2  0  0  0  0
 29 87  1  0  0  0  0
 30 89  1  0  0  0  0
 31 90  1  0  0  0  0
 32 67  2  0  0  0  0
 33 68  1  0  0  0  0
 33 72  1  0  0  0  0
 34 35  1  0  0  0  0
 34 55  1  0  0  0  0
 34 79  2  0  0  0  0
 35 69  1  0  0  0  0
 35 80  2  0  0  0  0
 36 37  2  0  0  0  0
 37 39  1  0  0  0  0
 38 73  1  0  0  0  0
 38 81  2  0  0  0  0
 39 74  1  0  0  0  0
 39 82  2  0  0  0  0
 40 56  1  0  0  0  0
 40 76  1  0  0  0  0
 40 83  2  0  0  0  0
 41 64  1  0  0  0  0
 41 70  1  0  0  0  0
 41 84  2  0  0  0  0
 42 65  1  0  0  0  0
 42 77  1  0  0  0  0
 42 85  2  0  0  0  0
 43 71  1  0  0  0  0
 43 75  1  0  0  0  0
 43 86  2  0  0  0  0
 44 47  1  0  0  0  0
 45 56  1  0  0  0  0
 46 70  1  0  0  0  0
 47 49  1  0  0  0  0
 48 50  1  0  0  0  0
 48 51  1  0  0  0  0
 49 54  1  0  0  0  0
 50 57  1  0  0  0  0
 51 71  1  0  0  0  0
 52 55  1  0  0  0  0
 52 69  1  0  0  0  0
 53 57  1  0  0  0  0
 53 71  1  0  0  0  0
 54 76  1  0  0  0  0
 55 63  1  0  0  0  0
 56 70  1  0  0  0  0
 57 68  1  0  0  0  0
 58 65  1  0  0  0  0
 59 66  1  0  0  0  0
 60 66  1  0  0  0  0
 61 66  1  0  0  0  0
 62 78  1  0  0  0  0
 63 88  1  0  0  0  0
 64 66  1  0  0  0  0
 64 77  1  0  0  0  0
 65 78  1  0  0  0  0
 67 68  1  0  0  0  0
M  CHG  1  78   1
M  ISO  4  43 100  63 101  75 100  88 101
M  END
> <Batch ID>
0070

> <Smiles>
C=CC(=O)Nc1cc([100NH:0][100C:0](=O)N2CCCC(n3nc(-c4ccc(Oc5ccc(F)cc5F)cc4)c(C(N)=O)c3N)C2)cc(N2CC([101CH2:1][101O:1]c3ccc4c(c3)CN(C(=O)C(NC(=O)C(C)NC)C(C)(C)C)C(C(=O)NC3CCCc5ccccc53)C4)C(=O)C2=O)c1

> <Shape>
0.235

> <Color>
0.121

> <Negative vol penalty>
0.000

$$$$

  -OEChem-04042323323D

 85 94  0     1  0  0  0  0  0999 V2000
  -24.9246  -35.9634   15.8584 C   0  0  0  0  0  0  0  0  0  0  0  0
  -25.1303  -34.5891   15.7922 C   0  0  0  0  0  0  0  0  0  0  0  0
  -23.9490   -8.8036   20.1296 C   0  0  0  0  0  0  0  0  0  0  0  0
  -23.1273  -10.7194   21.3508 C   0  0  0  0  0  0  0  0  0  0  0  0
  -25.2199  -36.6555   17.0321 C   0  0  0  0  0  0  0  0  0  0  0  0
  -25.6325  -33.9063   16.8994 C   0  0  0  0  0  0  0  0  0  0  0  0
  -24.2254  -28.2127   18.6628 C   0  0  0  0  0  0  0  0  0  0  0  0
  -28.0099  -19.8392   17.9007 C   0  0  0  0  0  0  0  0  0  0  0  0
  -28.0245  -18.4496   18.0200 C   0  0  0  0  0  0  0  0  0  0  0  0
  -23.1018   -7.9728   20.8628 C   0  0  0  0  0  0  0  0  0  0  0  0
  -22.2800   -9.8886   22.0840 C   0  0  0  0  0  0  0  0  0  0  0  0
  -24.8682  -26.9889   18.4817 C   0  0  0  0  0  0  0  0  0  0  0  0
  -19.8268   -7.1320   20.8645 C   0  0  0  0  0  0  0  0  0  0  0  0
  -19.1015   -6.1667   20.1661 C   0  0  0  0  0  0  0  0  0  0  0  0
  -25.8940  -27.2131   20.6535 C   0  0  0  0  0  0  0  0  0  0  0  0
  -30.0104  -18.5879   19.3890 C   0  0  0  0  0  0  0  0  0  0  0  0
  -20.1657   -4.4284   21.4633 C   0  0  0  0  0  0  0  0  0  0  0  0
  -23.9618  -10.1769   20.3736 C   0  0  0  0  0  0  0  0  0  0  0  0
  -24.5484  -11.6861   18.4023 C   0  0  0  0  0  0  0  0  0  0  0  0
  -25.7169  -35.9794   18.1575 C   0  0  0  0  0  0  0  0  0  0  0  0
  -24.4210  -28.9524   19.8380 C   0  0  0  0  0  0  0  0  0  0  0  0
  -25.9360  -34.5902   18.0889 C   0  0  0  0  0  0  0  0  0  0  0  0
  -25.2506  -28.4449   20.8481 C   0  0  0  0  0  0  0  0  0  0  0  0
  -29.9958  -19.9776   19.2696 C   0  0  0  0  0  0  0  0  0  0  0  0
  -28.9956  -20.6033   18.5255 C   0  0  0  0  0  0  0  0  0  0  0  0
  -29.0247  -17.8239   18.7642 C   0  0  0  0  0  0  0  0  0  0  0  0
  -22.2673   -8.5153   21.8400 C   0  0  0  0  0  0  0  0  0  0  0  0
  -25.7049  -26.4902   19.4759 C   0  0  0  0  0  0  0  0  0  0  0  0
  -20.7216   -6.7454   21.8624 C   0  0  0  0  0  0  0  0  0  0  0  0
  -19.2710   -4.8149   20.4654 C   0  0  0  0  0  0  0  0  0  0  0  0
  -20.8910   -5.3936   22.1618 C   0  0  0  0  0  0  0  0  0  0  0  0
  -24.8372  -11.0355   19.6169 C   0  0  0  0  0  0  0  0  0  0  0  0
  -25.6982  -12.3735   18.0992 C   0  0  0  0  0  0  0  0  0  0  0  0
  -29.9335  -22.7866   17.8531 C   0  0  0  0  0  0  0  0  0  0  0  0
  -29.5895  -24.0815   17.8818 C   0  0  0  0  0  0  0  0  0  0  0  0
  -28.2745  -24.1899   18.4951 C   0  0  0  0  0  0  0  0  0  0  0  0
  -27.5684  -25.2990   18.7149 C   0  0  0  0  0  0  0  0  0  1  0  0
  -23.3481  -11.6705   17.6183 C   0  0  0  0  0  0  0  0  0  0  0  0
  -25.6205  -31.8180   20.5113 C   0  0  0  0  0  0  0  0  0  0  0  0
  -24.5903  -31.1150   23.5057 C   0  0  0  0  0  0  0  0  0  0  0  0
  -23.7498  -28.7270   25.7944 C   0  0  0  0  0  0  0  0  0  0  0  0
  -29.9595  -15.6340   19.5868 C   0  0  0  0  0  0  0  0  0  0  0  0
  -26.0660  -36.7777   19.3885 C   0  0  0  0  0  0  0  0  0  0  0  0
  -23.6994  -30.2582   20.0293 C   0  0  0  0  0  0  0  0  0  0  0  0
  -25.4779  -29.1905   22.1369 C   0  0  0  0  0  0  0  0  0  0  0  0
  -27.8256  -22.7831   18.8548 C   0  0  0  0  0  0  0  0  0  0  0  0
  -26.2416  -35.9216   20.6401 C   0  0  0  0  0  0  0  0  0  0  0  0
  -30.3166  -12.1377   20.1574 C   0  0  0  0  0  0  0  0  0  0  0  0
  -27.1100  -34.7047   20.3371 C   0  0  0  0  0  0  0  0  0  0  0  0
  -28.8991  -11.5928   19.9678 C   0  0  0  0  0  0  0  0  0  0  0  0
  -30.3115  -13.5103   20.8281 C   0  0  0  0  0  0  0  0  0  0  0  0
  -28.0406  -13.9697   19.9908 C   0  0  0  0  0  0  0  0  0  0  0  0
  -26.4559  -33.8103   19.2770 C   0  0  1  0  0  0  0  0  0  0  0  0
  -24.3753  -31.1707   21.0481 C   0  0  1  0  0  0  0  0  0  0  0  0
  -27.9913  -12.6179   19.2602 C   0  0  2  0  0  0  0  0  0  0  0  0
  -31.0643  -20.7718   19.9479 C   0  0  0  0  0  0  0  0  0  0  0  0
  -30.3862  -25.2308   17.3816 C   0  0  0  0  0  0  0  0  0  0  0  0
  -22.9827  -28.4571   28.1685 C   0  0  0  0  0  0  0  0  0  0  0  0
  -27.4159  -31.7205   24.4850 C   0  0  0  0  0  0  0  0  0  0  0  0
  -26.8523  -30.5444   26.6222 C   0  0  0  0  0  0  0  0  0  0  0  0
  -25.5922  -32.5922   25.9577 C   0  0  0  0  0  0  0  0  0  0  0  0
  -21.2389  -27.4043   24.9549 C   0  0  0  0  0  0  0  0  0  0  0  0
  -25.1908  -30.4304   24.7098 C   0  0  1  0  0  0  0  0  0  0  0  0
  -22.5513  -28.5930   26.7165 C   0  0  2  0  0  0  0  0  0  0  0  0
  -26.2603  -31.3085   25.4187 C   0  0  0  0  0  0  0  0  0  0  0  0
  -26.0735  -11.2870   20.0553 N   0  0  0  0  0  0  0  0  0  0  0  0
  -26.5718  -12.1032   19.1110 N   0  0  0  0  0  0  0  0  0  0  0  0
  -28.9666  -21.9689   18.3969 N   0  0  0  0  0  0  0  0  0  0  0  0
  -24.7550  -30.4657   22.2740 N   0  0  0  0  0  0  0  0  0  0  0  0
  -29.4338  -14.4298   20.1008 N   0  0  0  0  0  0  0  0  0  0  0  0
  -26.0370  -13.1768   17.0685 N   0  0  0  0  0  0  0  0  0  0  0  0
  -22.2615  -10.9123   18.0751 N   0  0  0  0  0  0  0  0  0  0  0  0
  -29.0389  -16.4123   18.8858 N   0  0  0  0  0  0  0  0  0  0  0  0
  -25.3969  -33.0196   19.8666 N   0  0  0  0  0  0  0  0  0  0  0  0
  -24.0707  -30.0478   25.5627 N   0  0  0  0  0  0  0  0  0  0  0  0
  -21.7479  -27.3924   26.3506 N   0  3  0  0  0  0  0  0  0  0  0  0
  -23.2480  -12.2968   16.5360 O   0  0  0  0  0  0  0  0  0  0  0  0
  -26.7042  -31.2687   20.6716 O   0  0  0  0  0  0  0  0  0  0  0  0
  -23.9907  -32.1828   23.6537 O   0  0  0  0  0  0  0  0  0  0  0  0
  -24.3442  -27.7570   25.3294 O   0  0  0  0  0  0  0  0  0  0  0  0
  -31.1461  -15.9386   19.7327 O   0  0  0  0  0  0  0  0  0  0  0  0
  -21.4403   -7.7050   22.5555 O   0  0  0  0  0  0  0  0  0  0  0  0
  -26.3340  -25.2962   19.3014 O   0  0  0  0  0  0  0  0  0  1  0  0
  -18.5733   -3.8882   19.7956 F   0  0  0  0  0  0  0  0  0  0  0  0
  -21.7483   -5.0163   23.1202 F   0  0  0  0  0  0  0  0  0  0  0  0
  1  2  1  0  0  0  0
  1  5  2  0  0  0  0
  2  6  2  0  0  0  0
  3 10  2  0  0  0  0
  3 18  1  0  0  0  0
  4 11  1  0  0  0  0
  4 18  2  0  0  0  0
  5 20  1  0  0  0  0
  6 22  1  0  0  0  0
  7 12  2  0  0  0  0
  7 21  1  0  0  0  0
  8  9  2  0  0  0  0
  8 25  1  0  0  0  0
  9 26  1  0  0  0  0
 10 27  1  0  0  0  0
 11 27  2  0  0  0  0
 12 28  1  0  0  0  0
 13 14  2  0  0  0  0
 13 29  1  0  0  0  0
 14 30  1  0  0  0  0
 15 23  1  0  0  0  0
 15 28  2  0  0  0  0
 16 24  1  0  0  0  0
 16 26  2  0  0  0  0
 17 30  2  0  0  0  0
 17 31  1  0  0  0  0
 18 32  1  0  0  0  0
 19 32  1  0  0  0  0
 19 33  2  0  0  0  0
 19 38  1  0  0  0  0
 20 22  2  0  0  0  0
 20 43  1  0  0  0  0
 21 23  2  0  0  0  0
 21 44  1  0  0  0  0
 22 53  1  0  0  0  0
 23 45  1  0  0  0  0
 24 25  2  0  0  0  0
 24 56  1  0  0  0  0
 25 68  1  0  0  0  0
 26 73  1  0  0  0  0
 27 82  1  0  0  0  0
 28 83  1  0  0  0  0
 29 31  2  0  0  0  0
 29 82  1  0  0  0  0
 30 84  1  0  0  0  0
 31 85  1  0  0  0  0
 32 66  2  0  0  0  0
 33 67  1  0  0  0  0
 33 71  1  0  0  0  0
 34 35  2  0  0  0  0
 34 68  1  0  0  0  0
 35 36  1  0  0  0  0
 35 57  1  0  0  0  0
 36 37  2  0  0  0  0
 36 46  1  0  0  0  0
 37 83  1  0  0  0  0
 38 72  1  0  0  0  0
 38 77  2  0  0  0  0
 39 54  1  0  0  0  0
 39 74  1  0  0  0  0
 39 78  2  0  0  0  0
 40 63  1  0  0  0  0
 40 69  1  0  0  0  0
 40 79  2  0  0  0  0
 41 64  1  0  0  0  0
 41 75  1  0  0  0  0
 41 80  2  0  0  0  0
 42 70  1  0  0  0  0
 42 73  1  0  0  0  0
 42 81  2  0  0  0  0
 43 47  1  0  0  0  0
 44 54  1  0  0  0  0
 45 69  1  0  0  0  0
 46 68  1  0  0  0  0
 47 49  1  0  0  0  0
 48 50  1  0  0  0  0
 48 51  1  0  0  0  0
 49 53  1  0  0  0  0
 50 55  1  0  0  0  0
 51 70  1  0  0  0  0
 52 55  1  0  0  0  0
 52 70  1  0  0  0  0
 53 74  1  0  0  0  0
 54 69  1  0  0  0  0
 55 67  1  0  0  0  0
 58 64  1  0  0  0  0
 59 65  1  0  0  0  0
 60 65  1  0  0  0  0
 61 65  1  0  0  0  0
 62 76  1  0  0  0  0
 63 65  1  0  0  0  0
 63 75  1  0  0  0  0
 64 76  1  0  0  0  0
 66 67  1  0  0  0  0
M  CHG  1  76   1
M  ISO  4  37 101  42 100  73 100  83 101
M  END
> <Batch ID>
0070

> <Smiles>
CNC(C)C(=O)NC(C(=O)N1Cc2cc([101O:1][101CH:1]=C3CN(c4ccc([100NH:0][100C:0](=O)N5CCCC(n6nc(-c7ccc(Oc8ccc(F)cc8F)cc7)c(C(N)=O)c6N)C5)cc4C)C=C3C)ccc2CC1C(=O)NC1CCCc2ccccc21)C(C)(C)C

> <Shape>
0.268

> <Color>
0.111

> <Negative vol penalty>
0.000

$$$$

  -OEChem-04042323323D

 85 93  0     1  0  0  0  0  0999 V2000
  -36.3095  -11.1177   17.1706 C   0  0  0  0  0  0  0  0  0  0  0  0
  -35.7035  -12.1001   17.9472 C   0  0  0  0  0  0  0  0  0  0  0  0
  -19.8213  -28.9141   22.9651 C   0  0  0  0  0  0  0  0  0  0  0  0
  -20.5248  -26.6054   23.0735 C   0  0  0  0  0  0  0  0  0  0  0  0
  -35.6066  -10.5289   16.1203 C   0  0  0  0  0  0  0  0  0  0  0  0
  -34.3946  -12.4951   17.6731 C   0  0  0  0  0  0  0  0  0  0  0  0
  -30.1426  -14.2164   21.7307 C   0  0  0  0  0  0  0  0  0  0  0  0
  -18.5872  -28.5141   22.4528 C   0  0  0  0  0  0  0  0  0  0  0  0
  -19.2907  -26.2053   22.5612 C   0  0  0  0  0  0  0  0  0  0  0  0
  -29.7009  -15.4699   22.1517 C   0  0  0  0  0  0  0  0  0  0  0  0
  -15.6979  -27.2206   23.6409 C   0  0  0  0  0  0  0  0  0  0  0  0
  -14.5522  -27.8089   24.1764 C   0  0  0  0  0  0  0  0  0  0  0  0
  -29.6617  -23.4064   19.7970 C   0  0  0  0  0  0  0  0  0  0  0  0
  -29.4190  -25.8077   19.9046 C   0  0  0  0  0  0  0  0  0  0  0  0
  -27.8834  -15.3541   20.5697 C   0  0  0  0  0  0  0  0  0  0  0  0
  -28.1790  -24.3988   21.4259 C   0  0  0  0  0  0  0  0  0  0  0  0
  -13.9709  -28.6644   21.9930 C   0  0  0  0  0  0  0  0  0  0  0  0
  -20.7902  -27.9598   23.2755 C   0  0  0  0  0  0  0  0  0  0  0  0
  -29.9941  -24.6764   19.3257 C   0  0  0  0  0  0  0  0  0  0  0  0
  -22.4098  -28.5408   25.1588 C   0  0  0  0  0  0  0  0  0  0  0  0
  -34.2850  -10.9100   15.8393 C   0  0  0  0  0  0  0  0  0  0  0  0
  -29.4633  -13.5260   20.7167 C   0  0  0  0  0  0  0  0  0  0  0  0
  -33.6738  -11.9118   16.6172 C   0  0  0  0  0  0  0  0  0  0  0  0
  -28.3171  -14.0909   20.1394 C   0  0  0  0  0  0  0  0  0  0  0  0
  -28.7541  -23.2676   20.8471 C   0  0  0  0  0  0  0  0  0  0  0  0
  -28.5114  -25.6689   20.9547 C   0  0  0  0  0  0  0  0  0  0  0  0
  -18.3219  -27.1596   22.2508 C   0  0  0  0  0  0  0  0  0  0  0  0
  -28.5728  -16.0403   21.5692 C   0  0  0  0  0  0  0  0  0  0  0  0
  -15.9802  -27.3542   22.2814 C   0  0  0  0  0  0  0  0  0  0  0  0
  -13.6887  -28.5308   23.3525 C   0  0  0  0  0  0  0  0  0  0  0  0
  -15.1167  -28.0761   21.4575 C   0  0  0  0  0  0  0  0  0  0  0  0
  -22.0654  -28.3725   23.8042 C   0  0  0  0  0  0  0  0  0  0  0  0
  -23.7240  -28.9391   25.1320 C   0  0  0  0  0  0  0  0  0  0  0  0
  -28.2943  -19.6267   21.6331 C   0  0  0  0  0  0  0  0  0  0  0  0
  -28.6308  -18.3670   21.3375 C   0  0  0  0  0  0  0  0  0  1  0  0
  -30.9405  -24.8210   18.2311 C   0  0  0  0  0  0  0  0  0  0  0  0
  -21.6130  -28.3537   26.3360 C   0  0  0  0  0  0  0  0  0  0  0  0
  -28.8936  -20.7575   20.8661 C   0  0  0  0  0  0  0  0  0  0  0  0
  -30.2247  -12.4908   17.8094 C   0  0  0  0  0  0  0  0  0  0  0  0
  -27.2818  -11.1332   17.9465 C   0  0  0  0  0  0  0  0  0  0  0  0
  -24.1451  -11.1461   19.2909 C   0  0  0  0  0  0  0  0  0  0  0  0
  -28.1491  -28.1503   21.1949 C   0  0  0  0  0  0  0  0  0  0  0  0
  -33.5818  -10.2787   14.6639 C   0  0  0  0  0  0  0  0  0  0  0  0
  -29.9370  -12.1629   20.2924 C   0  0  0  0  0  0  0  0  0  0  0  0
  -27.5404  -13.3817   19.0613 C   0  0  0  0  0  0  0  0  0  0  0  0
  -32.0696  -10.4871   14.6752 C   0  0  0  0  0  0  0  0  0  0  0  0
  -26.8782  -31.2598   22.3752 C   0  0  0  0  0  0  0  0  0  0  0  0
  -31.7337  -11.9435   14.9800 C   0  0  0  0  0  0  0  0  0  0  0  0
  -25.5339  -30.8866   23.0043 C   0  0  0  0  0  0  0  0  0  0  0  0
  -27.1681  -30.4323   21.1242 C   0  0  0  0  0  0  0  0  0  0  0  0
  -25.7281  -28.6051   21.9347 C   0  0  0  0  0  0  0  0  0  0  0  0
  -32.2470  -12.3495   16.3667 C   0  0  1  0  0  0  0  0  0  0  0  0
  -29.4682  -11.7761   18.8931 C   0  0  1  0  0  0  0  0  0  0  0  0
  -25.4220  -29.3668   23.2347 C   0  0  2  0  0  0  0  0  0  0  0  0
  -21.9489   -9.9370   19.1789 C   0  0  0  0  0  0  0  0  0  0  0  0
  -26.6570  -12.5180   15.3004 C   0  0  0  0  0  0  0  0  0  0  0  0
  -24.2295  -12.0720   15.7203 C   0  0  0  0  0  0  0  0  0  0  0  0
  -25.8207  -10.1673   15.4706 C   0  0  0  0  0  0  0  0  0  0  0  0
  -24.2965  -10.3670   22.1420 C   0  0  0  0  0  0  0  0  0  0  0  0
  -25.8852  -11.5686   17.5739 C   0  0  1  0  0  0  0  0  0  0  0  0
  -23.2962  -10.0329   19.8779 C   0  0  2  0  0  0  0  0  0  0  0  0
  -25.6636  -11.5959   16.0352 C   0  0  0  0  0  0  0  0  0  0  0  0
  -23.0790  -28.6420   22.9771 N   0  0  0  0  0  0  0  0  0  0  0  0
  -24.0732  -28.9837   23.8143 N   0  0  0  0  0  0  0  0  0  0  0  0
  -28.0469  -12.0540   18.6763 N   0  0  0  0  0  0  0  0  0  0  0  0
  -27.0475  -29.0029   21.4193 N   0  0  0  0  0  0  0  0  0  0  0  0
  -24.6034  -29.2521   26.1072 N   0  0  0  0  0  0  0  0  0  0  0  0
  -31.2381  -26.1100   17.7983 N   0  0  0  0  0  0  0  0  0  0  0  0
  -20.2821  -27.9418   26.1835 N   0  0  0  0  0  0  0  0  0  0  0  0
  -28.4165  -21.9778   21.3257 N   0  0  0  0  0  0  0  0  0  0  0  0
  -27.9276  -26.8183   21.5428 N   0  0  0  0  0  0  0  0  0  0  0  0
  -31.3715  -11.8380   17.3994 N   0  0  0  0  0  0  0  0  0  0  0  0
  -24.9760  -10.6826   18.2929 N   0  0  0  0  0  0  0  0  0  0  0  0
  -23.0567  -10.2742   21.3289 N   0  3  0  0  0  0  0  0  0  0  0  0
  -31.4567  -23.8301   17.6850 O   0  0  0  0  0  0  0  0  0  0  0  0
  -22.0630  -28.5620   27.4882 O   0  0  0  0  0  0  0  0  0  0  0  0
  -29.6958  -20.5570   19.9617 O   0  0  0  0  0  0  0  0  0  0  0  0
  -29.7986  -13.5550   17.3761 O   0  0  0  0  0  0  0  0  0  0  0  0
  -27.6768  -10.0144   17.6089 O   0  0  0  0  0  0  0  0  0  0  0  0
  -24.0751  -12.3110   19.6763 O   0  0  0  0  0  0  0  0  0  0  0  0
  -29.2199  -28.5759   20.7539 O   0  0  0  0  0  0  0  0  0  0  0  0
  -17.1177  -26.7689   21.7511 O   0  0  0  0  0  0  0  0  0  0  0  0
  -28.1399  -17.2640   21.9779 O   0  0  0  0  0  0  0  0  0  1  0  0
  -12.5877  -29.0944   23.8666 F   0  0  0  0  0  0  0  0  0  0  0  0
  -15.3820  -28.2069   20.1504 F   0  0  0  0  0  0  0  0  0  0  0  0
  1  2  1  0  0  0  0
  1  5  2  0  0  0  0
  2  6  2  0  0  0  0
  3  8  2  0  0  0  0
  3 18  1  0  0  0  0
  4  9  1  0  0  0  0
  4 18  2  0  0  0  0
  5 21  1  0  0  0  0
  6 23  1  0  0  0  0
  7 10  2  0  0  0  0
  7 22  1  0  0  0  0
  8 27  1  0  0  0  0
  9 27  2  0  0  0  0
 10 28  1  0  0  0  0
 11 12  2  0  0  0  0
 11 29  1  0  0  0  0
 12 30  1  0  0  0  0
 13 19  1  0  0  0  0
 13 25  2  0  0  0  0
 14 19  2  0  0  0  0
 14 26  1  0  0  0  0
 15 24  1  0  0  0  0
 15 28  2  0  0  0  0
 16 25  1  0  0  0  0
 16 26  2  0  0  0  0
 17 30  2  0  0  0  0
 17 31  1  0  0  0  0
 18 32  1  0  0  0  0
 19 36  1  0  0  0  0
 20 32  1  0  0  0  0
 20 33  2  0  0  0  0
 20 37  1  0  0  0  0
 21 23  2  0  0  0  0
 21 43  1  0  0  0  0
 22 24  2  0  0  0  0
 22 44  1  0  0  0  0
 23 52  1  0  0  0  0
 24 45  1  0  0  0  0
 25 70  1  0  0  0  0
 26 71  1  0  0  0  0
 27 82  1  0  0  0  0
 28 83  1  0  0  0  0
 29 31  2  0  0  0  0
 29 82  1  0  0  0  0
 30 84  1  0  0  0  0
 31 85  1  0  0  0  0
 32 63  2  0  0  0  0
 33 64  1  0  0  0  0
 33 67  1  0  0  0  0
 34 35  2  0  0  0  0
 34 38  1  0  0  0  0
 35 83  1  0  0  0  0
 36 68  1  0  0  0  0
 36 75  2  0  0  0  0
 37 69  1  0  0  0  0
 37 76  2  0  0  0  0
 38 70  1  0  0  0  0
 38 77  2  0  0  0  0
 39 53  1  0  0  0  0
 39 72  1  0  0  0  0
 39 78  2  0  0  0  0
 40 60  1  0  0  0  0
 40 65  1  0  0  0  0
 40 79  2  0  0  0  0
 41 61  1  0  0  0  0
 41 73  1  0  0  0  0
 41 80  2  0  0  0  0
 42 66  1  0  0  0  0
 42 71  1  0  0  0  0
 42 81  2  0  0  0  0
 43 46  1  0  0  0  0
 44 53  1  0  0  0  0
 45 65  1  0  0  0  0
 46 48  1  0  0  0  0
 47 49  1  0  0  0  0
 47 50  1  0  0  0  0
 48 52  1  0  0  0  0
 49 54  1  0  0  0  0
 50 66  1  0  0  0  0
 51 54  1  0  0  0  0
 51 66  1  0  0  0  0
 52 72  1  0  0  0  0
 53 65  1  0  0  0  0
 54 64  1  0  0  0  0
 55 61  1  0  0  0  0
 56 62  1  0  0  0  0
 57 62  1  0  0  0  0
 58 62  1  0  0  0  0
 59 74  1  0  0  0  0
 60 62  1  0  0  0  0
 60 73  1  0  0  0  0
 61 74  1  0  0  0  0
 63 64  1  0  0  0  0
M  CHG  1  74   1
M  ISO  4  35 101  42 100  71 100  83 101
M  END
> <Batch ID>
0070

> <Smiles>
CNC(C)C(=O)NC(C(=O)N1Cc2cc([101O:1][101CH:1]=CC(=O)Nc3cc([100NH:0][100C:0](=O)N4CCCC(n5nc(-c6ccc(Oc7ccc(F)cc7F)cc6)c(C(N)=O)c5N)C4)cc(C(N)=O)c3)ccc2CC1C(=O)NC1CCCc2ccccc21)C(C)(C)C

> <Shape>
0.270

> <Color>
0.065

> <Negative vol penalty>
0.000

$$$$

  -OEChem-04042323323D

 88 97  0     1  0  0  0  0  0999 V2000
  -28.7313  -37.0663   21.8985 C   0  0  0  0  0  0  0  0  0  0  0  0
  -29.0542  -35.7155   21.8174 C   0  0  0  0  0  0  0  0  0  0  0  0
  -23.8179   -9.6396   19.7571 C   0  0  0  0  0  0  0  0  0  0  0  0
  -24.5958   -9.6344   22.0445 C   0  0  0  0  0  0  0  0  0  0  0  0
  -27.4792  -37.4554   22.3724 C   0  0  0  0  0  0  0  0  0  0  0  0
  -28.1253  -34.7530   22.2113 C   0  0  0  0  0  0  0  0  0  0  0  0
  -27.2947  -29.2107   19.7416 C   0  0  0  0  0  0  0  0  0  0  0  0
  -29.8322  -20.1618   23.8680 C   0  0  0  0  0  0  0  0  0  0  0  0
  -29.9588  -18.7937   23.6278 C   0  0  0  0  0  0  0  0  0  0  0  0
  -23.4216   -8.3087   19.8888 C   0  0  0  0  0  0  0  0  0  0  0  0
  -24.1994   -8.3035   22.1762 C   0  0  0  0  0  0  0  0  0  0  0  0
  -27.7363  -27.9419   20.1145 C   0  0  0  0  0  0  0  0  0  0  0  0
  -21.3241   -6.6008   22.6795 C   0  0  0  0  0  0  0  0  0  0  0  0
  -20.6317   -6.2439   23.8365 C   0  0  0  0  0  0  0  0  0  0  0  0
  -25.6415  -27.5518   21.2453 C   0  0  0  0  0  0  0  0  0  0  0  0
  -28.6470  -20.4191   21.7785 C   0  0  0  0  0  0  0  0  0  0  0  0
  -22.3691   -4.6578   24.3870 C   0  0  0  0  0  0  0  0  0  0  0  0
  -24.4051  -10.3024   20.8349 C   0  0  0  0  0  0  0  0  0  0  0  0
  -24.0438  -12.8244   20.9644 C   0  0  0  0  0  0  0  0  0  0  0  0
  -26.5310  -36.4968   22.7632 C   0  0  0  0  0  0  0  0  0  0  0  0
  -26.0253  -29.6645   20.1278 C   0  0  0  0  0  0  0  0  0  0  0  0
  -26.8598  -35.1296   22.6921 C   0  0  0  0  0  0  0  0  0  0  0  0
  -25.1852  -28.8258   20.8739 C   0  0  0  0  0  0  0  0  0  0  0  0
  -29.1763  -20.9745   22.9434 C   0  0  0  0  0  0  0  0  0  0  0  0
  -29.4295  -18.2382   22.4629 C   0  0  0  0  0  0  0  0  0  0  0  0
  -23.6124   -7.6407   21.0984 C   0  0  0  0  0  0  0  0  0  0  0  0
  -26.9108  -27.1134   20.8689 C   0  0  0  0  0  0  0  0  0  0  0  0
  -22.5389   -5.9862   22.3761 C   0  0  0  0  0  0  0  0  0  0  0  0
  -21.1541   -5.2725   24.6903 C   0  0  0  0  0  0  0  0  0  0  0  0
  -28.7737  -19.0509   21.5382 C   0  0  0  0  0  0  0  0  0  0  0  0
  -23.0614   -5.0147   23.2299 C   0  0  0  0  0  0  0  0  0  0  0  0
  -24.8152  -11.6770   20.6992 C   0  0  0  0  0  0  0  0  0  0  0  0
  -24.8826  -13.8748   20.6823 C   0  0  0  0  0  0  0  0  0  0  0  0
  -29.1879  -24.4466   24.1517 C   0  0  0  0  0  0  0  0  0  0  0  0
  -28.4706  -24.5859   22.8775 C   0  0  0  0  0  0  0  0  0  0  0  0
  -29.5411  -22.9931   24.3089 C   0  0  0  0  0  0  0  0  0  0  0  0
  -29.0134  -16.0793   24.4223 C   0  0  0  0  0  0  0  0  0  0  0  0
  -28.0066  -25.7491   22.4209 C   0  0  0  0  0  0  0  0  0  1  0  0
  -29.6208  -15.8946   23.2480 C   0  0  0  0  0  0  0  0  0  0  0  0
  -22.6901  -12.9312   21.4245 C   0  0  0  0  0  0  0  0  0  0  0  0
  -24.9480  -32.0659   21.9100 C   0  0  0  0  0  0  0  0  0  0  0  0
  -22.0564  -31.0256   20.8714 C   0  0  0  0  0  0  0  0  0  0  0  0
  -20.1690  -28.4585   19.6489 C   0  0  0  0  0  0  0  0  0  0  0  0
  -29.7989  -16.3730   20.8890 C   0  0  0  0  0  0  0  0  0  0  0  0
  -25.2078  -36.9669   23.3136 C   0  0  0  0  0  0  0  0  0  0  0  0
  -25.5534  -31.0255   19.6948 C   0  0  0  0  0  0  0  0  0  0  0  0
  -23.8056  -29.2579   21.2966 C   0  0  0  0  0  0  0  0  0  0  0  0
  -28.3762  -23.2384   22.2452 C   0  0  0  0  0  0  0  0  0  0  0  0
  -24.1435  -35.8735   23.3580 C   0  0  0  0  0  0  0  0  0  0  0  0
  -29.3738  -13.9868   18.3763 C   0  0  0  0  0  0  0  0  0  0  0  0
  -24.7204  -34.5908   23.9485 C   0  0  0  0  0  0  0  0  0  0  0  0
  -28.0908  -13.2573   18.7735 C   0  0  0  0  0  0  0  0  0  0  0  0
  -30.2284  -14.2962   19.6001 C   0  0  0  0  0  0  0  0  0  0  0  0
  -28.2291  -14.3693   21.0565 C   0  0  0  0  0  0  0  0  0  0  0  0
  -25.8700  -34.0550   23.0866 C   0  0  1  0  0  0  0  0  0  0  0  0
  -24.4427  -31.5823   20.5801 C   0  0  1  0  0  0  0  0  0  0  0  0
  -27.3227  -14.0391   19.8536 C   0  0  2  0  0  0  0  0  0  0  0  0
  -17.8294  -27.9009   18.9326 C   0  0  0  0  0  0  0  0  0  0  0  0
  -21.1986  -30.8788   23.7959 C   0  0  0  0  0  0  0  0  0  0  0  0
  -19.2666  -29.4537   23.0853 C   0  0  0  0  0  0  0  0  0  0  0  0
  -19.4637  -31.7940   22.2445 C   0  0  0  0  0  0  0  0  0  0  0  0
  -21.0396  -27.8275   16.8915 C   0  0  0  0  0  0  0  0  0  0  0  0
  -21.0402  -30.0241   21.3647 C   0  0  1  0  0  0  0  0  0  0  0  0
  -19.1984  -28.3878   18.4837 C   0  0  2  0  0  0  0  0  0  0  0  0
  -20.2690  -30.5300   22.6165 C   0  0  0  0  0  0  0  0  0  0  0  0
  -26.0491  -11.9706   20.2808 N   0  0  0  0  0  0  0  0  0  0  0  0
  -26.0595  -13.3145   20.2808 N   0  0  0  0  0  0  0  0  0  0  0  0
  -29.0504  -22.3392   23.1824 N   0  0  0  0  0  0  0  0  0  0  0  0
  -23.3921  -30.5998   20.8541 N   0  0  0  0  0  0  0  0  0  0  0  0
  -29.4619  -15.0348   20.6042 N   0  0  0  0  0  0  0  0  0  0  0  0
  -24.7210  -15.2137   20.7411 N   0  0  0  0  0  0  0  0  0  0  0  0
  -21.9713  -11.7523   21.6654 N   0  0  0  0  0  0  0  0  0  0  0  0
  -25.3521  -33.3873   21.9117 N   0  0  0  0  0  0  0  0  0  0  0  0
  -20.1872  -29.7120   20.2231 N   0  0  0  0  0  0  0  0  0  0  0  0
  -29.5631  -16.8172   22.2161 N   0  0  0  0  0  0  0  0  0  0  0  0
  -19.7097  -27.4556   17.4395 N   0  3  0  0  0  0  0  0  0  0  0  0
  -29.4735  -25.2918   24.9690 O   0  0  0  0  0  0  0  0  0  0  0  0
  -30.1443  -22.5827   25.2793 O   0  0  0  0  0  0  0  0  0  0  0  0
  -22.1289  -14.0392   21.6005 O   0  0  0  0  0  0  0  0  0  0  0  0
  -24.9682  -31.2975   22.8644 O   0  0  0  0  0  0  0  0  0  0  0  0
  -21.6781  -32.1419   20.5078 O   0  0  0  0  0  0  0  0  0  0  0  0
  -20.8408  -27.4968   20.0154 O   0  0  0  0  0  0  0  0  0  0  0  0
  -30.2946  -17.1162   20.0321 O   0  0  0  0  0  0  0  0  0  0  0  0
  -23.2256   -6.3421   21.2274 O   0  0  0  0  0  0  0  0  0  0  0  0
  -27.3395  -25.8747   21.2347 O   0  0  0  0  0  0  0  0  0  1  0  0
  -20.4899   -4.9310   25.8022 F   0  0  0  0  0  0  0  0  0  0  0  0
  -28.2624  -18.5282   20.4143 F   0  0  0  0  0  0  0  0  0  0  0  0
  -24.2287   -4.4216   22.9444 F   0  0  0  0  0  0  0  0  0  0  0  0
  1  2  1  0  0  0  0
  1  5  2  0  0  0  0
  2  6  2  0  0  0  0
  3 10  2  0  0  0  0
  3 18  1  0  0  0  0
  4 11  1  0  0  0  0
  4 18  2  0  0  0  0
  5 20  1  0  0  0  0
  6 22  1  0  0  0  0
  7 12  2  0  0  0  0
  7 21  1  0  0  0  0
  8  9  2  0  0  0  0
  8 24  1  0  0  0  0
  9 25  1  0  0  0  0
 10 26  1  0  0  0  0
 11 26  2  0  0  0  0
 12 27  1  0  0  0  0
 13 14  2  0  0  0  0
 13 28  1  0  0  0  0
 14 29  1  0  0  0  0
 15 23  1  0  0  0  0
 15 27  2  0  0  0  0
 16 24  2  0  0  0  0
 16 30  1  0  0  0  0
 17 29  2  0  0  0  0
 17 31  1  0  0  0  0
 18 32  1  0  0  0  0
 19 32  1  0  0  0  0
 19 33  2  0  0  0  0
 19 40  1  0  0  0  0
 20 22  2  0  0  0  0
 20 45  1  0  0  0  0
 21 23  2  0  0  0  0
 21 46  1  0  0  0  0
 22 55  1  0  0  0  0
 23 47  1  0  0  0  0
 24 68  1  0  0  0  0
 25 30  2  0  0  0  0
 25 75  1  0  0  0  0
 26 84  1  0  0  0  0
 27 85  1  0  0  0  0
 28 31  2  0  0  0  0
 28 84  1  0  0  0  0
 29 86  1  0  0  0  0
 30 87  1  0  0  0  0
 31 88  1  0  0  0  0
 32 66  2  0  0  0  0
 33 67  1  0  0  0  0
 33 71  1  0  0  0  0
 34 35  1  0  0  0  0
 34 36  1  0  0  0  0
 34 77  2  0  0  0  0
 35 38  2  0  0  0  0
 35 48  1  0  0  0  0
 36 68  1  0  0  0  0
 36 78  2  0  0  0  0
 37 39  2  0  0  0  0
 38 85  1  0  0  0  0
 39 75  1  0  0  0  0
 40 72  1  0  0  0  0
 40 79  2  0  0  0  0
 41 56  1  0  0  0  0
 41 73  1  0  0  0  0
 41 80  2  0  0  0  0
 42 63  1  0  0  0  0
 42 69  1  0  0  0  0
 42 81  2  0  0  0  0
 43 64  1  0  0  0  0
 43 74  1  0  0  0  0
 43 82  2  0  0  0  0
 44 70  1  0  0  0  0
 44 75  1  0  0  0  0
 44 83  2  0  0  0  0
 45 49  1  0  0  0  0
 46 56  1  0  0  0  0
 47 69  1  0  0  0  0
 48 68  1  0  0  0  0
 49 51  1  0  0  0  0
 50 52  1  0  0  0  0
 50 53  1  0  0  0  0
 51 55  1  0  0  0  0
 52 57  1  0  0  0  0
 53 70  1  0  0  0  0
 54 57  1  0  0  0  0
 54 70  1  0  0  0  0
 55 73  1  0  0  0  0
 56 69  1  0  0  0  0
 57 67  1  0  0  0  0
 58 64  1  0  0  0  0
 59 65  1  0  0  0  0
 60 65  1  0  0  0  0
 61 65  1  0  0  0  0
 62 76  1  0  0  0  0
 63 65  1  0  0  0  0
 63 74  1  0  0  0  0
 64 76  1  0  0  0  0
 66 67  1  0  0  0  0
M  CHG  1  76   1
M  ISO  4  38 101  44 100  75 100  85 101
M  END
> <Batch ID>
0070

> <Smiles>
C=C[100N:0](c1ccc(N2CC(=[101CH:1][101O:1]c3ccc4c(c3)CN(C(=O)C(NC(=O)C(C)NC)C(C)(C)C)C(C(=O)NC3CCCc5ccccc53)C4)C(=O)C2=O)cc1F)[100C:0](=O)N1CCCC(n2nc(-c3ccc(Oc4ccc(F)cc4F)cc3)c(C(N)=O)c2N)C1

> <Shape>
0.313

> <Color>
0.149

> <Negative vol penalty>
0.000

$$$$

  -OEChem-04042323323D

 86 95  0     1  0  0  0  0  0999 V2000
  -26.3453  -36.0766   16.1768 C   0  0  0  0  0  0  0  0  0  0  0  0
  -26.5157  -34.6974   16.1128 C   0  0  0  0  0  0  0  0  0  0  0  0
  -24.7856   -8.7037   21.6436 C   0  0  0  0  0  0  0  0  0  0  0  0
  -23.2358   -9.9009   20.2287 C   0  0  0  0  0  0  0  0  0  0  0  0
  -26.4543  -36.7353   17.4008 C   0  0  0  0  0  0  0  0  0  0  0  0
  -26.7962  -33.9761   17.2727 C   0  0  0  0  0  0  0  0  0  0  0  0
  -24.9246  -28.3035   18.6237 C   0  0  0  0  0  0  0  0  0  0  0  0
  -24.9234  -19.4294   16.9340 C   0  0  0  0  0  0  0  0  0  0  0  0
  -23.7288   -8.2998   22.4595 C   0  0  0  0  0  0  0  0  0  0  0  0
  -22.1790   -9.4970   21.0445 C   0  0  0  0  0  0  0  0  0  0  0  0
  -25.5498  -27.0613   18.5259 C   0  0  0  0  0  0  0  0  0  0  0  0
  -21.3955   -6.6552   24.7102 C   0  0  0  0  0  0  0  0  0  0  0  0
  -24.4713  -18.1792   16.5118 C   0  0  0  0  0  0  0  0  0  0  0  0
  -21.3601   -5.3200   25.1121 C   0  0  0  0  0  0  0  0  0  0  0  0
  -26.1898  -27.2074   20.8472 C   0  0  0  0  0  0  0  0  0  0  0  0
  -26.8224  -18.3828   17.9997 C   0  0  0  0  0  0  0  0  0  0  0  0
  -21.2500   -4.6269   22.8003 C   0  0  0  0  0  0  0  0  0  0  0  0
  -24.5391   -9.5042   20.5282 C   0  0  0  0  0  0  0  0  0  0  0  0
  -26.1398   -9.2499   18.5582 C   0  0  0  0  0  0  0  0  0  0  0  0
  -26.7267  -36.0205   18.5778 C   0  0  0  0  0  0  0  0  0  0  0  0
  -24.9366  -29.0132   19.8331 C   0  0  0  0  0  0  0  0  0  0  0  0
  -26.9102  -34.6260   18.5135 C   0  0  0  0  0  0  0  0  0  0  0  0
  -25.5617  -28.4573   20.9584 C   0  0  0  0  0  0  0  0  0  0  0  0
  -26.0990  -19.5312   17.6779 C   0  0  0  0  0  0  0  0  0  0  0  0
  -26.3703  -17.1326   17.5775 C   0  0  0  0  0  0  0  0  0  0  0  0
  -22.4255   -8.6964   22.1600 C   0  0  0  0  0  0  0  0  0  0  0  0
  -26.1851  -26.5143   19.6369 C   0  0  0  0  0  0  0  0  0  0  0  0
  -21.3581   -6.9763   23.3532 C   0  0  0  0  0  0  0  0  0  0  0  0
  -21.2874   -4.3059   24.1572 C   0  0  0  0  0  0  0  0  0  0  0  0
  -25.1947  -17.0308   16.8336 C   0  0  0  0  0  0  0  0  0  0  0  0
  -21.2854   -5.9622   22.3983 C   0  0  0  0  0  0  0  0  0  0  0  0
  -25.6304   -9.9222   19.6853 C   0  0  0  0  0  0  0  0  0  0  0  0
  -27.1631  -10.0512   18.1139 C   0  0  0  0  0  0  0  0  0  0  0  0
  -27.9057  -22.4996   18.8085 C   0  0  0  0  0  0  0  0  0  0  0  0
  -27.8846  -21.0950   18.2865 C   0  0  0  0  0  0  0  0  0  0  0  0
  -25.7250   -8.0119   17.9658 C   0  0  0  0  0  0  0  0  0  0  0  0
  -26.0913  -31.8209   20.7749 C   0  0  0  0  0  0  0  0  0  0  0  0
  -24.5352  -31.0980   23.5277 C   0  0  0  0  0  0  0  0  0  0  0  0
  -23.2349  -28.6981   25.5764 C   0  0  0  0  0  0  0  0  0  0  0  0
  -28.2928  -15.8955   18.6357 C   0  0  0  0  0  0  0  0  0  0  0  0
  -26.8820  -36.7822   19.8702 C   0  0  0  0  0  0  0  0  0  0  0  0
  -24.2345  -30.3399   19.9294 C   0  0  0  0  0  0  0  0  0  0  0  0
  -25.5855  -29.1696   22.2852 C   0  0  0  0  0  0  0  0  0  0  0  0
  -26.8104  -35.8966   21.1116 C   0  0  0  0  0  0  0  0  0  0  0  0
  -30.3922  -13.2187   19.6867 C   0  0  0  0  0  0  0  0  0  0  0  0
  -27.6792  -34.6557   20.9328 C   0  0  0  0  0  0  0  0  0  0  0  0
  -29.4571  -12.0072   19.6971 C   0  0  0  0  0  0  0  0  0  0  0  0
  -29.6790  -14.4896   20.1447 C   0  0  0  0  0  0  0  0  0  0  0  0
  -25.6720  -21.9032   18.3940 C   0  0  0  0  0  0  0  0  0  0  0  0
  -27.4993  -13.5843   19.4384 C   0  0  0  0  0  0  0  0  0  0  0  0
  -27.1910  -33.8055   19.7537 C   0  0  1  0  0  0  0  0  0  0  0  0
  -26.5132  -22.9646   19.1081 C   0  0  2  0  0  0  0  0  0  0  0  0
  -24.7519  -31.2082   21.0720 C   0  0  1  0  0  0  0  0  0  0  0  0
  -28.1556  -12.2932   18.9226 C   0  0  2  0  0  0  0  0  0  0  0  0
  -22.0592  -28.4104   27.7746 C   0  0  0  0  0  0  0  0  0  0  0  0
  -27.1657  -31.5838   24.9954 C   0  0  0  0  0  0  0  0  0  0  0  0
  -26.2027  -30.3879   26.9730 C   0  0  0  0  0  0  0  0  0  0  0  0
  -25.1427  -32.4915   26.1521 C   0  0  0  0  0  0  0  0  0  0  0  0
  -20.8672  -27.4818   24.2828 C   0  0  0  0  0  0  0  0  0  0  0  0
  -26.2530  -24.3702   18.6102 C   0  0  0  0  0  0  0  0  0  1  0  0
  -24.8956  -30.3695   24.7999 C   0  0  1  0  0  0  0  0  0  0  0  0
  -21.8910  -28.5892   26.2738 C   0  0  2  0  0  0  0  0  0  0  0  0
  -25.8531  -31.1954   25.7047 C   0  0  0  0  0  0  0  0  0  0  0  0
  -26.2769  -11.0626   19.9413 N   0  0  0  0  0  0  0  0  0  0  0  0
  -27.2031  -11.1131   18.9688 N   0  0  0  0  0  0  0  0  0  0  0  0
  -26.5492  -20.7773   18.0986 N   0  0  0  0  0  0  0  0  0  0  0  0
  -24.8905  -30.4669   22.3272 N   0  0  0  0  0  0  0  0  0  0  0  0
  -28.4576  -14.6983   19.3639 N   0  0  0  0  0  0  0  0  0  0  0  0
  -28.0236   -9.9438   17.0793 N   0  0  0  0  0  0  0  0  0  0  0  0
  -24.6568   -7.3169   18.5491 N   0  0  0  0  0  0  0  0  0  0  0  0
  -27.1071  -15.9675   17.9054 N   0  0  0  0  0  0  0  0  0  0  0  0
  -26.0212  -33.0418   20.1314 N   0  0  0  0  0  0  0  0  0  0  0  0
  -23.6329  -30.0109   25.4367 N   0  0  0  0  0  0  0  0  0  0  0  0
  -21.1256  -27.4251   25.7446 N   0  3  0  0  0  0  0  0  0  0  0  0
  -28.9502  -23.0982   18.9687 O   0  0  0  0  0  0  0  0  0  0  0  0
  -28.9019  -20.4605   18.0999 O   0  0  0  0  0  0  0  0  0  0  0  0
  -26.2957   -7.5279   16.9590 O   0  0  0  0  0  0  0  0  0  0  0  0
  -27.1127  -31.2305   21.1063 O   0  0  0  0  0  0  0  0  0  0  0  0
  -23.9532  -32.1834   23.5965 O   0  0  0  0  0  0  0  0  0  0  0  0
  -23.8700  -27.7166   25.1970 O   0  0  0  0  0  0  0  0  0  0  0  0
  -29.1535  -16.7794   18.6367 O   0  0  0  0  0  0  0  0  0  0  0  0
  -21.3940   -8.3023   22.9557 O   0  0  0  0  0  0  0  0  0  0  0  0
  -26.7967  -25.3022   19.5440 O   0  0  0  0  0  0  0  0  0  1  0  0
  -21.2550   -3.0237   24.5433 F   0  0  0  0  0  0  0  0  0  0  0  0
  -24.7503  -15.8347   16.4227 F   0  0  0  0  0  0  0  0  0  0  0  0
  -21.2504   -6.2644   21.0932 F   0  0  0  0  0  0  0  0  0  0  0  0
  1  2  1  0  0  0  0
  1  5  2  0  0  0  0
  2  6  2  0  0  0  0
  3  9  2  0  0  0  0
  3 18  1  0  0  0  0
  4 10  1  0  0  0  0
  4 18  2  0  0  0  0
  5 20  1  0  0  0  0
  6 22  1  0  0  0  0
  7 11  2  0  0  0  0
  7 21  1  0  0  0  0
  8 13  2  0  0  0  0
  8 24  1  0  0  0  0
  9 26  1  0  0  0  0
 10 26  2  0  0  0  0
 11 27  1  0  0  0  0
 12 14  2  0  0  0  0
 12 28  1  0  0  0  0
 13 30  1  0  0  0  0
 14 29  1  0  0  0  0
 15 23  1  0  0  0  0
 15 27  2  0  0  0  0
 16 24  2  0  0  0  0
 16 25  1  0  0  0  0
 17 29  2  0  0  0  0
 17 31  1  0  0  0  0
 18 32  1  0  0  0  0
 19 32  1  0  0  0  0
 19 33  2  0  0  0  0
 19 36  1  0  0  0  0
 20 22  2  0  0  0  0
 20 41  1  0  0  0  0
 21 23  2  0  0  0  0
 21 42  1  0  0  0  0
 22 51  1  0  0  0  0
 23 43  1  0  0  0  0
 24 66  1  0  0  0  0
 25 30  2  0  0  0  0
 25 71  1  0  0  0  0
 26 82  1  0  0  0  0
 27 83  1  0  0  0  0
 28 31  2  0  0  0  0
 28 82  1  0  0  0  0
 29 84  1  0  0  0  0
 30 85  1  0  0  0  0
 31 86  1  0  0  0  0
 32 64  2  0  0  0  0
 33 65  1  0  0  0  0
 33 69  1  0  0  0  0
 34 35  1  0  0  0  0
 34 52  1  0  0  0  0
 34 75  2  0  0  0  0
 35 66  1  0  0  0  0
 35 76  2  0  0  0  0
 36 70  1  0  0  0  0
 36 77  2  0  0  0  0
 37 53  1  0  0  0  0
 37 72  1  0  0  0  0
 37 78  2  0  0  0  0
 38 61  1  0  0  0  0
 38 67  1  0  0  0  0
 38 79  2  0  0  0  0
 39 62  1  0  0  0  0
 39 73  1  0  0  0  0
 39 80  2  0  0  0  0
 40 68  1  0  0  0  0
 40 71  1  0  0  0  0
 40 81  2  0  0  0  0
 41 44  1  0  0  0  0
 42 53  1  0  0  0  0
 43 67  1  0  0  0  0
 44 46  1  0  0  0  0
 45 47  1  0  0  0  0
 45 48  1  0  0  0  0
 46 51  1  0  0  0  0
 47 54  1  0  0  0  0
 48 68  1  0  0  0  0
 49 52  1  0  0  0  0
 49 66  1  0  0  0  0
 50 54  1  0  0  0  0
 50 68  1  0  0  0  0
 51 72  1  0  0  0  0
 52 60  1  0  0  0  0
 53 67  1  0  0  0  0
 54 65  1  0  0  0  0
 55 62  1  0  0  0  0
 56 63  1  0  0  0  0
 57 63  1  0  0  0  0
 58 63  1  0  0  0  0
 59 74  1  0  0  0  0
 60 83  1  0  0  0  0
 61 63  1  0  0  0  0
 61 73  1  0  0  0  0
 62 74  1  0  0  0  0
 64 65  1  0  0  0  0
M  CHG  1  74   1
M  ISO  4  40 100  60 101  71 100  83 101
M  END
> <Batch ID>
0070

> <Smiles>
CNC(C)C(=O)NC(C(=O)N1Cc2cc([101O:1][101CH2:1]C3CN(c4ccc(F)c([100NH:0][100C:0](=O)N5CCCC(n6nc(-c7ccc(Oc8ccc(F)cc8F)cc7)c(C(N)=O)c6N)C5)c4)C(=O)C3=O)ccc2CC1C(=O)NC1CCCc2ccccc21)C(C)(C)C

> <Shape>
0.241

> <Color>
0.128

> <Negative vol penalty>
0.000

$$$$

  -OEChem-04042323323D

 87 96  0     1  0  0  0  0  0999 V2000
  -31.5363  -24.0412   15.1158 C   0  0  0  0  0  0  0  0  0  0  0  0
  -30.8579  -23.6003   16.2475 C   0  0  0  0  0  0  0  0  0  0  0  0
  -23.8394   -8.6987   20.3128 C   0  0  0  0  0  0  0  0  0  0  0  0
  -23.1436  -10.7491   21.3847 C   0  0  0  0  0  0  0  0  0  0  0  0
  -31.9384  -25.3728   15.0201 C   0  0  0  0  0  0  0  0  0  0  0  0
  -30.5821  -24.4905   17.2847 C   0  0  0  0  0  0  0  0  0  0  0  0
  -25.8389  -24.0591   19.0056 C   0  0  0  0  0  0  0  0  0  0  0  0
  -23.0474   -7.9672   21.1978 C   0  0  0  0  0  0  0  0  0  0  0  0
  -22.3515  -10.0176   22.2697 C   0  0  0  0  0  0  0  0  0  0  0  0
  -25.5660  -22.9911   19.8592 C   0  0  0  0  0  0  0  0  0  0  0  0
  -23.2329   -6.8853   24.3946 C   0  0  0  0  0  0  0  0  0  0  0  0
  -23.7910   -5.7445   24.9714 C   0  0  0  0  0  0  0  0  0  0  0  0
  -25.7257  -24.4739   21.7553 C   0  0  0  0  0  0  0  0  0  0  0  0
  -28.2713  -16.9807   22.4026 C   0  0  0  0  0  0  0  0  0  0  0  0
  -30.6205  -16.4445   22.5787 C   0  0  0  0  0  0  0  0  0  0  0  0
  -22.0488   -4.3929   23.9840 C   0  0  0  0  0  0  0  0  0  0  0  0
  -23.8876  -10.0896   20.4063 C   0  0  0  0  0  0  0  0  0  0  0  0
  -24.3239  -11.3695   18.2431 C   0  0  0  0  0  0  0  0  0  0  0  0
  -31.6589  -26.2821   16.0525 C   0  0  0  0  0  0  0  0  0  0  0  0
  -26.0685  -25.3424   19.5220 C   0  0  0  0  0  0  0  0  0  0  0  0
  -30.9820  -25.8352   17.2033 C   0  0  0  0  0  0  0  0  0  0  0  0
  -25.9988  -25.5569   20.9059 C   0  0  0  0  0  0  0  0  0  0  0  0
  -29.6687  -18.1747   23.9705 C   0  0  0  0  0  0  0  0  0  0  0  0
  -28.4198  -17.9554   23.3892 C   0  0  0  0  0  0  0  0  0  0  0  0
  -29.3717  -16.2251   21.9974 C   0  0  0  0  0  0  0  0  0  0  0  0
  -22.3034   -8.6267   22.1762 C   0  0  0  0  0  0  0  0  0  0  0  0
  -25.5122  -23.1978   21.2345 C   0  0  0  0  0  0  0  0  0  0  0  0
  -22.0827   -6.7799   23.6125 C   0  0  0  0  0  0  0  0  0  0  0  0
  -23.1990   -4.4983   24.7661 C   0  0  0  0  0  0  0  0  0  0  0  0
  -30.7690  -17.4193   23.5653 C   0  0  0  0  0  0  0  0  0  0  0  0
  -21.4907   -5.5337   23.4072 C   0  0  0  0  0  0  0  0  0  0  0  0
  -24.7060  -10.8458   19.4927 C   0  0  0  0  0  0  0  0  0  0  0  0
  -25.4517  -11.9981   17.7749 C   0  0  0  0  0  0  0  0  0  0  0  0
  -25.4390  -20.3816   25.0152 C   0  0  0  0  0  0  0  0  0  0  0  0
  -26.0391  -20.8213   23.8967 C   0  0  0  0  0  0  0  0  0  0  0  0
  -23.0622  -11.2947   17.5662 C   0  0  0  0  0  0  0  0  0  0  0  0
  -28.5181  -27.3678   19.4910 C   0  0  0  0  0  0  0  0  0  0  0  0
  -26.3831  -29.3623   20.9003 C   0  0  0  0  0  0  0  0  0  0  0  0
  -23.5336  -29.7214   22.7437 C   0  0  0  0  0  0  0  0  0  0  0  0
  -30.2092  -14.3968   20.4801 C   0  0  0  0  0  0  0  0  0  0  0  0
  -32.1551  -27.7005   15.9246 C   0  0  0  0  0  0  0  0  0  0  0  0
  -26.3352  -26.4892   18.5859 C   0  0  0  0  0  0  0  0  0  0  0  0
  -26.2177  -26.9195   21.5093 C   0  0  0  0  0  0  0  0  0  0  0  0
  -25.6212  -18.9910   25.5371 C   0  0  0  0  0  0  0  0  0  0  0  0
  -26.9880  -19.9610   23.0937 C   0  0  0  0  0  0  0  0  0  0  0  0
  -31.4943  -28.6676   16.9036 C   0  0  0  0  0  0  0  0  0  0  0  0
  -30.2295  -11.8046   18.0393 C   0  0  0  0  0  0  0  0  0  0  0  0
  -31.4654  -28.0700   18.3067 C   0  0  0  0  0  0  0  0  0  0  0  0
  -28.7793  -11.3164   18.0169 C   0  0  0  0  0  0  0  0  0  0  0  0
  -26.2068  -18.0435   24.4916 C   0  0  0  0  0  0  0  0  0  0  0  0
  -30.6782  -12.1849   19.4492 C   0  0  0  0  0  0  0  0  0  0  0  0
  -28.3541  -12.6519   20.1199 C   0  0  0  0  0  0  0  0  0  0  0  0
  -30.6426  -26.7764   18.3387 C   0  0  1  0  0  0  0  0  0  0  0  0
  -27.0613  -27.6514   19.2565 C   0  0  1  0  0  0  0  0  0  0  0  0
  -27.8364  -12.3187   18.7112 C   0  0  2  0  0  0  0  0  0  0  0  0
  -22.0591  -31.4735   23.7700 C   0  0  0  0  0  0  0  0  0  0  0  0
  -28.4292  -29.7774   23.1255 C   0  0  0  0  0  0  0  0  0  0  0  0
  -26.5953  -30.7298   24.5390 C   0  0  0  0  0  0  0  0  0  0  0  0
  -27.2350  -31.8535   22.4057 C   0  0  0  0  0  0  0  0  0  0  0  0
  -21.2049  -28.8755   21.1249 C   0  0  0  0  0  0  0  0  0  0  0  0
  -29.8532  -19.2131   25.0292 C   0  0  0  0  0  0  0  0  0  0  0  0
  -25.8165  -22.2118   23.3772 C   0  0  0  0  0  0  0  0  0  1  0  0
  -25.9778  -29.6616   22.3234 C   0  0  1  0  0  0  0  0  0  0  0  0
  -22.3126  -30.6023   22.5495 C   0  0  2  0  0  0  0  0  0  0  0  0
  -27.0571  -30.4794   23.0875 C   0  0  0  0  0  0  0  0  0  0  0  0
  -25.9773  -11.1178   19.7988 N   0  0  0  0  0  0  0  0  0  0  0  0
  -26.4039  -11.8192   18.7349 N   0  0  0  0  0  0  0  0  0  0  0  0
  -27.3072  -18.7027   23.7826 N   0  0  1  0  0  0  0  0  0  0  0  0
  -26.4815  -28.0074   20.5531 N   0  0  0  0  0  0  0  0  0  0  0  0
  -29.7399  -13.1402   20.0424 N   0  0  0  0  0  0  0  0  0  0  0  0
  -25.7121  -12.6807   16.6397 N   0  0  0  0  0  0  0  0  0  0  0  0
  -22.0093  -10.6108   18.1892 N   0  0  0  0  0  0  0  0  0  0  0  0
  -29.2204  -15.2336   20.9965 N   0  0  0  0  0  0  0  0  0  0  0  0
  -29.2271  -27.0778   18.3409 N   0  0  0  0  0  0  0  0  0  0  0  0
  -24.6754  -30.3146   22.2481 N   0  0  0  0  0  0  0  0  0  0  0  0
  -29.6417  -18.6924   26.4069 N   0  3  0  0  0  0  0  0  0  0  0  0
  -21.1030  -29.7655   22.3099 N   0  3  0  0  0  0  0  0  0  0  0  0
  -22.8788  -11.8046   16.4349 O   0  0  0  0  0  0  0  0  0  0  0  0
  -28.9661  -27.4105   20.6308 O   0  0  0  0  0  0  0  0  0  0  0  0
  -26.5974  -30.2961   20.1234 O   0  0  0  0  0  0  0  0  0  0  0  0
  -23.4804  -28.6190   23.2845 O   0  0  0  0  0  0  0  0  0  0  0  0
  -31.3959  -14.7180   20.3775 O   0  0  0  0  0  0  0  0  0  0  0  0
  -21.5303   -7.9132   23.0398 O   0  0  0  0  0  0  0  0  0  0  0  0
  -25.2466  -22.1571   22.0701 O   0  0  0  0  0  0  0  0  0  1  0  0
  -23.7359   -3.4027   25.3189 F   0  0  0  0  0  0  0  0  0  0  0  0
  -31.9735  -17.6226   24.1173 F   0  0  0  0  0  0  0  0  0  0  0  0
  -20.3863   -5.4260   22.6559 F   0  0  0  0  0  0  0  0  0  0  0  0
  1  2  1  0  0  0  0
  1  5  2  0  0  0  0
  2  6  2  0  0  0  0
  3  8  2  0  0  0  0
  3 17  1  0  0  0  0
  4  9  1  0  0  0  0
  4 17  2  0  0  0  0
  5 19  1  0  0  0  0
  6 21  1  0  0  0  0
  7 10  2  0  0  0  0
  7 20  1  0  0  0  0
  8 26  1  0  0  0  0
  9 26  2  0  0  0  0
 10 27  1  0  0  0  0
 11 12  2  0  0  0  0
 11 28  1  0  0  0  0
 12 29  1  0  0  0  0
 13 22  1  0  0  0  0
 13 27  2  0  0  0  0
 14 24  1  0  0  0  0
 14 25  2  0  0  0  0
 15 25  1  0  0  0  0
 15 30  2  0  0  0  0
 16 29  2  0  0  0  0
 16 31  1  0  0  0  0
 17 32  1  0  0  0  0
 18 32  1  0  0  0  0
 18 33  2  0  0  0  0
 18 36  1  0  0  0  0
 19 21  2  0  0  0  0
 19 41  1  0  0  0  0
 20 22  2  0  0  0  0
 20 42  1  0  0  0  0
 21 53  1  0  0  0  0
 22 43  1  0  0  0  0
 23 24  2  0  0  0  0
 23 30  1  0  0  0  0
 23 61  1  0  0  0  0
 24 68  1  0  0  0  0
 25 73  1  0  0  0  0
 26 83  1  0  0  0  0
 27 84  1  0  0  0  0
 28 31  2  0  0  0  0
 28 83  1  0  0  0  0
 29 85  1  0  0  0  0
 30 86  1  0  0  0  0
 31 87  1  0  0  0  0
 32 66  2  0  0  0  0
 33 67  1  0  0  0  0
 33 71  1  0  0  0  0
 34 35  2  0  0  0  0
 34 44  1  0  0  0  0
 35 45  1  0  0  0  0
 35 62  1  0  0  0  0
 36 72  1  0  0  0  0
 36 78  2  0  0  0  0
 37 54  1  0  0  0  0
 37 74  1  0  0  0  0
 37 79  2  0  0  0  0
 38 63  1  0  0  0  0
 38 69  1  0  0  0  0
 38 80  2  0  0  0  0
 39 64  1  0  0  0  0
 39 75  1  0  0  0  0
 39 81  2  0  0  0  0
 40 70  1  0  0  0  0
 40 73  1  0  0  0  0
 40 82  2  0  0  0  0
 41 46  1  0  0  0  0
 42 54  1  0  0  0  0
 43 69  1  0  0  0  0
 44 50  1  0  0  0  0
 45 68  1  0  0  0  0
 46 48  1  0  0  0  0
 47 49  1  0  0  0  0
 47 51  1  0  0  0  0
 48 53  1  0  0  0  0
 49 55  1  0  0  0  0
 50 68  1  0  0  0  0
 51 70  1  0  0  0  0
 52 55  1  0  0  0  0
 52 70  1  0  0  0  0
 53 74  1  0  0  0  0
 54 69  1  0  0  0  0
 55 67  1  0  0  0  0
 56 64  1  0  0  0  0
 57 65  1  0  0  0  0
 58 65  1  0  0  0  0
 59 65  1  0  0  0  0
 60 77  1  0  0  0  0
 61 76  1  0  0  0  0
 62 84  1  0  0  0  0
 63 65  1  0  0  0  0
 63 75  1  0  0  0  0
 64 77  1  0  0  0  0
 66 67  1  0  0  0  0
M  CHG  2  76   1  77   1
M  ISO  4  40 100  62 101  73 100  84 101
M  END
> <Batch ID>
0070

> <Smiles>
CNC(C)C(=O)NC(C(=O)N1Cc2cc([101O:1][101CH2:1]C3=CCCN(c4cc([100NH:0][100C:0](=O)N5CCCC(n6nc(-c7ccc(Oc8ccc(F)cc8F)cc7)c(C(N)=O)c6N)C5)cc(F)c4CN)C3)ccc2CC1C(=O)NC1CCCc2ccccc21)C(C)(C)C

> <Shape>
0.251

> <Color>
0.097

> <Negative vol penalty>
0.000

$$$$

  -OEChem-04042323323D

 88 97  0     1  0  0  0  0  0999 V2000
  -18.6083  -15.6314   17.8446 C   0  0  0  0  0  0  0  0  0  0  0  0
  -19.6023  -15.8469   18.7938 C   0  0  0  0  0  0  0  0  0  0  0  0
  -22.9986   -9.8944   19.9821 C   0  0  0  0  0  0  0  0  0  0  0  0
  -23.7216   -9.9479   22.2867 C   0  0  0  0  0  0  0  0  0  0  0  0
  -18.2483  -16.6552   16.9692 C   0  0  0  0  0  0  0  0  0  0  0  0
  -20.2376  -17.0860   18.8674 C   0  0  0  0  0  0  0  0  0  0  0  0
  -22.2685  -19.8876   23.9204 C   0  0  0  0  0  0  0  0  0  0  0  0
  -22.2313   -8.7606   20.2491 C   0  0  0  0  0  0  0  0  0  0  0  0
  -22.9543   -8.8141   22.5538 C   0  0  0  0  0  0  0  0  0  0  0  0
  -23.5338  -19.9775   24.4988 C   0  0  0  0  0  0  0  0  0  0  0  0
  -21.4702   -5.7232   23.7596 C   0  0  0  0  0  0  0  0  0  0  0  0
  -22.0550   -4.7081   24.5166 C   0  0  0  0  0  0  0  0  0  0  0  0
  -23.8769  -22.0995   23.4039 C   0  0  0  0  0  0  0  0  0  0  0  0
  -30.6548  -19.8062   21.4060 C   0  0  0  0  0  0  0  0  0  0  0  0
  -31.1940  -17.6039   20.5719 C   0  0  0  0  0  0  0  0  0  0  0  0
  -29.5390  -17.8646   22.3126 C   0  0  0  0  0  0  0  0  0  0  0  0
  -23.7829   -4.4581   22.8465 C   0  0  0  0  0  0  0  0  0  0  0  0
  -23.7439  -10.4881   21.0009 C   0  0  0  0  0  0  0  0  0  0  0  0
  -24.1305  -13.0033   20.8221 C   0  0  0  0  0  0  0  0  0  0  0  0
  -18.8728  -17.9105   17.0384 C   0  0  0  0  0  0  0  0  0  0  0  0
  -21.8014  -20.8994   23.0693 C   0  0  0  0  0  0  0  0  0  0  0  0
  -19.8866  -18.1270   17.9912 C   0  0  0  0  0  0  0  0  0  0  0  0
  -22.6042  -22.0213   22.8180 C   0  0  0  0  0  0  0  0  0  0  0  0
  -31.3862  -18.9852   20.5478 C   0  0  0  0  0  0  0  0  0  0  0  0
  -29.7312  -19.2459   22.2885 C   0  0  0  0  0  0  0  0  0  0  0  0
  -30.2704  -17.0435   21.4543 C   0  0  0  0  0  0  0  0  0  0  0  0
  -22.2091   -8.2205   21.5349 C   0  0  0  0  0  0  0  0  0  0  0  0
  -24.3394  -21.0822   24.2383 C   0  0  0  0  0  0  0  0  0  0  0  0
  -22.0417   -6.1057   22.5459 C   0  0  0  0  0  0  0  0  0  0  0  0
  -23.2114   -4.0756   24.0601 C   0  0  0  0  0  0  0  0  0  0  0  0
  -23.1980   -5.4732   22.0894 C   0  0  0  0  0  0  0  0  0  0  0  0
  -24.5371  -11.6590   20.7256 C   0  0  0  0  0  0  0  0  0  0  0  0
  -25.2409  -13.7249   20.4579 C   0  0  0  0  0  0  0  0  0  0  0  0
  -28.0672  -19.7855   24.0740 C   0  0  0  0  0  0  0  0  0  0  0  0
  -22.8624  -13.5507   21.2067 C   0  0  0  0  0  0  0  0  0  0  0  0
  -20.9287  -21.0369   20.0159 C   0  0  0  0  0  0  0  0  0  0  0  0
  -20.0836  -24.0695   20.7981 C   0  0  0  0  0  0  0  0  0  0  0  0
  -20.5030  -26.7521   22.8656 C   0  0  0  0  0  0  0  0  0  0  0  0
  -30.7206  -14.6837   20.6960 C   0  0  0  0  0  0  0  0  0  0  0  0
  -18.4829  -18.9713   16.0398 C   0  0  0  0  0  0  0  0  0  0  0  0
  -20.4234  -20.8003   22.4745 C   0  0  0  0  0  0  0  0  0  0  0  0
  -22.1412  -23.1444   21.9276 C   0  0  0  0  0  0  0  0  0  0  0  0
  -18.9430  -20.3736   16.4299 C   0  0  0  0  0  0  0  0  0  0  0  0
  -29.6035  -12.2285   18.3720 C   0  0  0  0  0  0  0  0  0  0  0  0
  -20.4003  -20.3513   16.8801 C   0  0  0  0  0  0  0  0  0  0  0  0
  -28.1524  -11.9720   18.7851 C   0  0  0  0  0  0  0  0  0  0  0  0
  -30.5029  -12.4730   19.5824 C   0  0  0  0  0  0  0  0  0  0  0  0
  -28.5866  -13.2644   20.9131 C   0  0  0  0  0  0  0  0  0  0  0  0
  -29.0185  -21.5037   23.3112 C   0  0  0  0  0  0  0  0  0  0  0  0
  -20.5817  -19.4652   18.1185 C   0  0  1  0  0  0  0  0  0  0  0  0
  -20.2546  -21.6431   21.2141 C   0  0  1  0  0  0  0  0  0  0  0  0
  -27.6301  -13.0770   19.7242 C   0  0  2  0  0  0  0  0  0  0  0  0
  -27.9307  -21.2989   24.4081 C   0  0  2  0  0  0  0  0  0  0  0  0
  -28.3760  -21.6614   25.8206 C   0  0  0  0  0  0  0  0  0  0  0  0
  -19.7002  -29.1013   23.2321 C   0  0  0  0  0  0  0  0  0  0  0  0
  -21.7959  -25.0172   18.4572 C   0  0  0  0  0  0  0  0  0  0  0  0
  -21.7313  -27.3218   19.4334 C   0  0  0  0  0  0  0  0  0  0  0  0
  -19.6158  -26.2166   18.7079 C   0  0  0  0  0  0  0  0  0  0  0  0
  -19.4463  -26.0956   25.5510 C   0  0  0  0  0  0  0  0  0  0  0  0
  -26.5727  -21.8816   24.0676 C   0  0  0  0  0  0  0  0  0  1  0  0
  -20.7827  -25.4075   20.7997 C   0  0  1  0  0  0  0  0  0  0  0  0
  -19.5002  -27.6357   23.5853 C   0  0  2  0  0  0  0  0  0  0  0  0
  -32.3747  -19.5848   19.6052 C   0  0  0  0  0  0  0  0  0  0  0  0
  -20.9912  -25.9688   19.3648 C   0  0  0  0  0  0  0  0  0  0  0  0
  -25.8067  -11.5314   20.3308 N   0  0  0  0  0  0  0  0  0  0  0  0
  -26.2074  -12.8048   20.1760 N   0  0  0  0  0  0  0  0  0  0  0  0
  -29.0105  -20.0559   23.1346 N   0  0  0  0  0  0  0  0  0  0  0  0
  -20.7888  -22.9982   21.3646 N   0  0  0  0  0  0  0  0  0  0  0  0
  -29.9476  -13.5352   20.4238 N   0  0  0  0  0  0  0  0  0  0  0  0
  -25.4751  -15.0503   20.3544 N   0  0  0  0  0  0  0  0  0  0  0  0
  -21.8299  -12.6675   21.5504 N   0  0  0  0  0  0  0  0  0  0  0  0
  -30.0760  -15.6402   21.4798 N   0  0  0  0  0  0  0  0  0  0  0  0
  -20.1319  -20.1587   19.3064 N   0  0  0  0  0  0  0  0  0  0  0  0
  -20.0007  -26.2757   21.6732 N   0  0  0  0  0  0  0  0  0  0  0  0
  -19.6418  -27.4844   25.0611 N   0  3  0  0  0  0  0  0  0  0  0  0
  -27.5637  -18.7561   24.4627 O   0  0  0  0  0  0  0  0  0  0  0  0
  -22.6463  -14.7862   21.2288 O   0  0  0  0  0  0  0  0  0  0  0  0
  -22.0855  -21.3444   19.7535 O   0  0  0  0  0  0  0  0  0  0  0  0
  -18.9506  -23.9797   20.3187 O   0  0  0  0  0  0  0  0  0  0  0  0
  -21.6217  -26.5118   23.3145 O   0  0  0  0  0  0  0  0  0  0  0  0
  -31.8598  -14.8216   20.2429 O   0  0  0  0  0  0  0  0  0  0  0  0
  -21.4603   -7.1143   21.7959 O   0  0  0  0  0  0  0  0  0  0  0  0
  -25.5752  -21.1722   24.8011 O   0  0  0  0  0  0  0  0  0  1  0  0
  -23.7737   -3.1018   24.7879 F   0  0  0  0  0  0  0  0  0  0  0  0
  -23.7522   -5.8371   20.9249 F   0  0  0  0  0  0  0  0  0  0  0  0
  -32.4583  -20.9454   19.6922 F   0  0  0  0  0  0  0  0  0  0  0  0
  -33.6511  -19.1369   19.7940 F   0  0  0  0  0  0  0  0  0  0  0  0
  -32.0826  -19.3187   18.2989 F   0  0  0  0  0  0  0  0  0  0  0  0
  1  2  1  0  0  0  0
  1  5  2  0  0  0  0
  2  6  2  0  0  0  0
  3  8  2  0  0  0  0
  3 18  1  0  0  0  0
  4  9  1  0  0  0  0
  4 18  2  0  0  0  0
  5 20  1  0  0  0  0
  6 22  1  0  0  0  0
  7 10  2  0  0  0  0
  7 21  1  0  0  0  0
  8 27  1  0  0  0  0
  9 27  2  0  0  0  0
 10 28  1  0  0  0  0
 11 12  2  0  0  0  0
 11 29  1  0  0  0  0
 12 30  1  0  0  0  0
 13 23  1  0  0  0  0
 13 28  2  0  0  0  0
 14 24  1  0  0  0  0
 14 25  2  0  0  0  0
 15 24  2  0  0  0  0
 15 26  1  0  0  0  0
 16 25  1  0  0  0  0
 16 26  2  0  0  0  0
 17 30  2  0  0  0  0
 17 31  1  0  0  0  0
 18 32  1  0  0  0  0
 19 32  1  0  0  0  0
 19 33  2  0  0  0  0
 19 35  1  0  0  0  0
 20 22  2  0  0  0  0
 20 40  1  0  0  0  0
 21 23  2  0  0  0  0
 21 41  1  0  0  0  0
 22 50  1  0  0  0  0
 23 42  1  0  0  0  0
 24 63  1  0  0  0  0
 25 67  1  0  0  0  0
 26 72  1  0  0  0  0
 27 82  1  0  0  0  0
 28 83  1  0  0  0  0
 29 31  2  0  0  0  0
 29 82  1  0  0  0  0
 30 84  1  0  0  0  0
 31 85  1  0  0  0  0
 32 65  2  0  0  0  0
 33 66  1  0  0  0  0
 33 70  1  0  0  0  0
 34 53  1  0  0  0  0
 34 67  1  0  0  0  0
 34 76  2  0  0  0  0
 35 71  1  0  0  0  0
 35 77  2  0  0  0  0
 36 51  1  0  0  0  0
 36 73  1  0  0  0  0
 36 78  2  0  0  0  0
 37 61  1  0  0  0  0
 37 68  1  0  0  0  0
 37 79  2  0  0  0  0
 38 62  1  0  0  0  0
 38 74  1  0  0  0  0
 38 80  2  0  0  0  0
 39 69  1  0  0  0  0
 39 72  1  0  0  0  0
 39 81  2  0  0  0  0
 40 43  1  0  0  0  0
 41 51  1  0  0  0  0
 42 68  1  0  0  0  0
 43 45  1  0  0  0  0
 44 46  1  0  0  0  0
 44 47  1  0  0  0  0
 45 50  1  0  0  0  0
 46 52  1  0  0  0  0
 47 69  1  0  0  0  0
 48 52  1  0  0  0  0
 48 69  1  0  0  0  0
 49 53  1  0  0  0  0
 49 67  1  0  0  0  0
 50 73  1  0  0  0  0
 51 68  1  0  0  0  0
 52 66  1  0  0  0  0
 53 54  1  0  0  0  0
 53 60  1  0  0  0  0
 55 62  1  0  0  0  0
 56 64  1  0  0  0  0
 57 64  1  0  0  0  0
 58 64  1  0  0  0  0
 59 75  1  0  0  0  0
 60 83  1  0  0  0  0
 61 64  1  0  0  0  0
 61 74  1  0  0  0  0
 62 75  1  0  0  0  0
 63 86  1  0  0  0  0
 63 87  1  0  0  0  0
 63 88  1  0  0  0  0
 65 66  1  0  0  0  0
M  CHG  1  75   1
M  ISO  4  39 100  60 101  72 100  83 101
M  END
> <Batch ID>
0070

> <Smiles>
CNC(C)C(=O)NC(C(=O)N1Cc2cc([101O:1][101CH2:1]C3(C)CN(c4cc([100NH:0][100C:0](=O)N5CCCC(n6nc(-c7ccc(Oc8ccc(F)cc8F)cc7)c(C(N)=O)c6N)C5)cc(C(F)(F)F)c4)C3=O)ccc2CC1C(=O)NC1CCCc2ccccc21)C(C)(C)C

> <Shape>
0.218

> <Color>
0.198

> <Negative vol penalty>
0.000

$$$$

  -OEChem-04042323323D

 91100  0     1  0  0  0  0  0999 V2000
  -27.8262  -36.8109   23.1288 C   0  0  0  0  0  0  0  0  0  0  0  0
  -28.2980  -35.5457   22.7940 C   0  0  0  0  0  0  0  0  0  0  0  0
  -24.1055  -10.2704   22.9188 C   0  0  0  0  0  0  0  0  0  0  0  0
  -22.8367  -12.1047   21.9901 C   0  0  0  0  0  0  0  0  0  0  0  0
  -26.5701  -36.9521   23.7171 C   0  0  0  0  0  0  0  0  0  0  0  0
  -27.5142  -34.4208   23.0482 C   0  0  0  0  0  0  0  0  0  0  0  0
  -27.1774  -29.3273   19.6645 C   0  0  0  0  0  0  0  0  0  0  0  0
  -27.4190  -18.6237   19.7087 C   0  0  0  0  0  0  0  0  0  0  0  0
  -27.4749  -19.7104   20.5814 C   0  0  0  0  0  0  0  0  0  0  0  0
  -23.2848  -10.2737   24.0467 C   0  0  0  0  0  0  0  0  0  0  0  0
  -22.0160  -12.1080   23.1180 C   0  0  0  0  0  0  0  0  0  0  0  0
  -27.7862  -28.0789   19.7854 C   0  0  0  0  0  0  0  0  0  0  0  0
  -20.2054   -9.1607   24.8899 C   0  0  0  0  0  0  0  0  0  0  0  0
  -19.7439   -7.9310   25.3595 C   0  0  0  0  0  0  0  0  0  0  0  0
  -25.8272  -27.2398   20.9156 C   0  0  0  0  0  0  0  0  0  0  0  0
  -28.7785  -20.9428   18.9630 C   0  0  0  0  0  0  0  0  0  0  0  0
  -20.8360   -8.3300   27.4774 C   0  0  0  0  0  0  0  0  0  0  0  0
  -23.8815  -11.1859   21.8905 C   0  0  0  0  0  0  0  0  0  0  0  0
  -24.5398  -10.4513   19.5380 C   0  0  0  0  0  0  0  0  0  0  0  0
  -25.7664  -35.8292   23.9698 C   0  0  0  0  0  0  0  0  0  0  0  0
  -25.8911  -29.5448   20.1787 C   0  0  0  0  0  0  0  0  0  0  0  0
  -26.2466  -34.5469   23.6416 C   0  0  0  0  0  0  0  0  0  0  0  0
  -25.2033  -28.4912   20.7976 C   0  0  0  0  0  0  0  0  0  0  0  0
  -28.0428  -18.6965   18.4632 C   0  0  0  0  0  0  0  0  0  0  0  0
  -28.1547  -20.8699   20.2085 C   0  0  0  0  0  0  0  0  0  0  0  0
  -28.7225  -19.8560   18.0904 C   0  0  0  0  0  0  0  0  0  0  0  0
  -22.2401  -11.1925   24.1463 C   0  0  0  0  0  0  0  0  0  0  0  0
  -27.1122  -27.0357   20.4137 C   0  0  0  0  0  0  0  0  0  0  0  0
  -20.9822   -9.9751   25.7140 C   0  0  0  0  0  0  0  0  0  0  0  0
  -20.0592   -7.5157   26.6532 C   0  0  0  0  0  0  0  0  0  0  0  0
  -21.2975   -9.5597   27.0077 C   0  0  0  0  0  0  0  0  0  0  0  0
  -24.7292  -11.1833   20.7255 C   0  0  0  0  0  0  0  0  0  0  0  0
  -25.6107  -10.7937   18.7491 C   0  0  0  0  0  0  0  0  0  0  0  0
  -28.8560  -23.2151   20.8709 C   0  0  0  0  0  0  0  0  0  0  0  0
  -26.7773  -17.4878   15.3277 C   0  0  0  0  0  0  0  0  0  0  0  0
  -26.7397  -17.5264   16.6650 C   0  0  0  0  0  0  0  0  0  0  0  0
  -30.0663  -21.0228   16.3280 C   0  0  0  0  0  0  0  0  0  0  0  0
  -23.4897   -9.5431   19.1800 C   0  0  0  0  0  0  0  0  0  0  0  0
  -24.6578  -31.4485   22.4055 C   0  0  0  0  0  0  0  0  0  0  0  0
  -21.8464  -30.2480   21.3205 C   0  0  0  0  0  0  0  0  0  0  0  0
  -20.1959  -27.7137   19.7393 C   0  0  0  0  0  0  0  0  0  0  0  0
  -29.1717  -15.6040   18.5720 C   0  0  0  0  0  0  0  0  0  0  0  0
  -24.4354  -36.0275   24.6506 C   0  0  0  0  0  0  0  0  0  0  0  0
  -25.2377  -30.8898   20.0164 C   0  0  0  0  0  0  0  0  0  0  0  0
  -23.8126  -28.6673   21.3485 C   0  0  0  0  0  0  0  0  0  0  0  0
  -23.5103  -34.8179   24.5437 C   0  0  0  0  0  0  0  0  0  0  0  0
  -30.1693  -12.2179   19.0362 C   0  0  0  0  0  0  0  0  0  0  0  0
  -24.2686  -33.5353   24.8704 C   0  0  0  0  0  0  0  0  0  0  0  0
  -28.8711  -11.5027   19.4146 C   0  0  0  0  0  0  0  0  0  0  0  0
  -28.1460  -23.1320   23.1447 C   0  0  0  0  0  0  0  0  0  0  0  0
  -30.2296  -13.6262   19.6235 C   0  0  0  0  0  0  0  0  0  0  0  0
  -27.5339  -21.9709   22.3848 C   0  0  0  0  0  0  0  0  0  0  0  0
  -27.7697  -13.7636   19.6872 C   0  0  0  0  0  0  0  0  0  0  0  0
  -25.4155  -33.3048   23.8789 C   0  0  1  0  0  0  0  0  0  0  0  0
  -24.1285  -31.1418   21.0331 C   0  0  1  0  0  0  0  0  0  0  0  0
  -27.6380  -12.3601   19.0715 C   0  0  2  0  0  0  0  0  0  0  0  0
  -28.5263  -24.1308   22.0487 C   0  0  1  0  0  0  0  0  0  0  0  0
  -29.7288  -24.9802   22.4528 C   0  0  0  0  0  0  0  0  0  0  0  0
  -17.8962  -26.9986   19.0341 C   0  0  0  0  0  0  0  0  0  0  0  0
  -21.1994  -29.4928   24.2051 C   0  0  0  0  0  0  0  0  0  0  0  0
  -19.4047  -27.9804   23.3332 C   0  0  0  0  0  0  0  0  0  0  0  0
  -19.2746  -30.4366   22.9170 C   0  0  0  0  0  0  0  0  0  0  0  0
  -20.9566  -27.6817   16.8793 C   0  0  0  0  0  0  0  0  0  0  0  0
  -27.3428  -25.0274   21.6664 C   0  0  0  0  0  0  0  0  0  1  0  0
  -27.9665  -17.5171   17.5489 C   0  0  2  0  0  0  0  0  0  0  0  0
  -20.9869  -29.0569   21.6692 C   0  0  1  0  0  0  0  0  0  0  0  0
  -19.1680  -27.7236   18.6223 C   0  0  2  0  0  0  0  0  0  0  0  0
  -20.2434  -29.2386   23.0226 C   0  0  0  0  0  0  0  0  0  0  0  0
  -25.8336  -11.9339   20.6979 N   0  0  0  0  0  0  0  0  0  0  0  0
  -26.3479  -11.6754   19.4835 N   0  0  0  0  0  0  0  0  0  0  0  0
  -28.2117  -21.9820   21.1022 N   0  0  0  0  0  0  0  0  0  0  0  0
  -23.2187  -30.0027   21.1710 N   0  0  0  0  0  0  0  0  0  0  0  0
  -29.0319  -14.3874   19.2599 N   0  0  0  0  0  0  0  0  0  0  0  0
  -25.9843  -10.4236   17.5057 N   0  0  0  0  0  0  0  0  0  0  0  0
  -22.4671   -9.3048   20.1083 N   0  0  0  0  0  0  0  0  0  0  0  0
  -29.3536  -19.9478   16.8472 N   0  0  0  0  0  0  0  0  0  0  0  0
  -24.9049  -32.7899   22.6264 N   0  0  0  0  0  0  0  0  0  0  0  0
  -20.1049  -28.8416   20.5271 N   0  0  0  0  0  0  0  0  0  0  0  0
  -27.9862  -16.2584   18.2601 N   0  0  0  0  0  0  0  0  0  0  0  0
  -19.7166  -27.0570   17.4075 N   0  3  0  0  0  0  0  0  0  0  0  0
  -29.5151  -23.5805   19.9074 O   0  0  0  0  0  0  0  0  0  0  0  0
  -30.3036  -22.1152   16.8242 O   0  0  0  0  0  0  0  0  0  0  0  0
  -23.4678   -8.9476   18.0762 O   0  0  0  0  0  0  0  0  0  0  0  0
  -24.8279  -30.5358   23.2053 O   0  0  0  0  0  0  0  0  0  0  0  0
  -21.3186  -31.3539   21.1787 O   0  0  0  0  0  0  0  0  0  0  0  0
  -20.9969  -26.7953   19.8993 O   0  0  0  0  0  0  0  0  0  0  0  0
  -30.2712  -16.0699   18.2543 O   0  0  0  0  0  0  0  0  0  0  0  0
  -21.4389  -11.1960   25.2466 O   0  0  0  0  0  0  0  0  0  0  0  0
  -27.7044  -25.8164   20.5336 O   0  0  0  0  0  0  0  0  0  1  0  0
  -19.6147   -6.3355   27.1046 F   0  0  0  0  0  0  0  0  0  0  0  0
  -22.0424  -10.3382   27.8045 F   0  0  0  0  0  0  0  0  0  0  0  0
  1  2  1  0  0  0  0
  1  5  2  0  0  0  0
  2  6  2  0  0  0  0
  3 10  2  0  0  0  0
  3 18  1  0  0  0  0
  4 11  1  0  0  0  0
  4 18  2  0  0  0  0
  5 20  1  0  0  0  0
  6 22  1  0  0  0  0
  7 12  2  0  0  0  0
  7 21  1  0  0  0  0
  8  9  2  0  0  0  0
  8 24  1  0  0  0  0
  9 25  1  0  0  0  0
 10 27  1  0  0  0  0
 11 27  2  0  0  0  0
 12 28  1  0  0  0  0
 13 14  2  0  0  0  0
 13 29  1  0  0  0  0
 14 30  1  0  0  0  0
 15 23  1  0  0  0  0
 15 28  2  0  0  0  0
 16 25  2  0  0  0  0
 16 26  1  0  0  0  0
 17 30  2  0  0  0  0
 17 31  1  0  0  0  0
 18 32  1  0  0  0  0
 19 32  1  0  0  0  0
 19 33  2  0  0  0  0
 19 38  1  0  0  0  0
 20 22  2  0  0  0  0
 20 43  1  0  0  0  0
 21 23  2  0  0  0  0
 21 44  1  0  0  0  0
 22 54  1  0  0  0  0
 23 45  1  0  0  0  0
 24 26  2  0  0  0  0
 24 65  1  0  0  0  0
 25 71  1  0  0  0  0
 26 76  1  0  0  0  0
 27 88  1  0  0  0  0
 28 89  1  0  0  0  0
 29 31  2  0  0  0  0
 29 88  1  0  0  0  0
 30 90  1  0  0  0  0
 31 91  1  0  0  0  0
 32 69  2  0  0  0  0
 33 70  1  0  0  0  0
 33 74  1  0  0  0  0
 34 57  1  0  0  0  0
 34 71  1  0  0  0  0
 34 81  2  0  0  0  0
 35 36  2  0  0  0  0
 36 65  1  0  0  0  0
 37 76  1  0  0  0  0
 37 82  2  0  0  0  0
 38 75  1  0  0  0  0
 38 83  2  0  0  0  0
 39 55  1  0  0  0  0
 39 77  1  0  0  0  0
 39 84  2  0  0  0  0
 40 66  1  0  0  0  0
 40 72  1  0  0  0  0
 40 85  2  0  0  0  0
 41 67  1  0  0  0  0
 41 78  1  0  0  0  0
 41 86  2  0  0  0  0
 42 73  1  0  0  0  0
 42 79  1  0  0  0  0
 42 87  2  0  0  0  0
 43 46  1  0  0  0  0
 44 55  1  0  0  0  0
 45 72  1  0  0  0  0
 46 48  1  0  0  0  0
 47 49  1  0  0  0  0
 47 51  1  0  0  0  0
 48 54  1  0  0  0  0
 49 56  1  0  0  0  0
 50 52  1  0  0  0  0
 50 57  1  0  0  0  0
 51 73  1  0  0  0  0
 52 71  1  0  0  0  0
 53 56  1  0  0  0  0
 53 73  1  0  0  0  0
 54 77  1  0  0  0  0
 55 72  1  0  0  0  0
 56 70  1  0  0  0  0
 57 58  1  0  0  0  0
 57 64  1  0  0  0  0
 59 67  1  0  0  0  0
 60 68  1  0  0  0  0
 61 68  1  0  0  0  0
 62 68  1  0  0  0  0
 63 80  1  0  0  0  0
 64 89  1  0  0  0  0
 65 79  1  0  0  0  0
 66 68  1  0  0  0  0
 66 78  1  0  0  0  0
 67 80  1  0  0  0  0
 69 70  1  0  0  0  0
M  CHG  1  80   1
M  ISO  4  42 100  64 101  79 100  89 101
M  END
> <Batch ID>
0070

> <Smiles>
C=CC([100NH:0][100C:0](=O)N1CCCC(n2nc(-c3ccc(Oc4ccc(F)cc4F)cc3)c(C(N)=O)c2N)C1)c1ccc(N2CCC(C)([101CH2:1][101O:1]c3ccc4c(c3)CN(C(=O)C(NC(=O)C(C)NC)C(C)(C)C)C(C(=O)NC3CCCc5ccccc53)C4)C2=O)cc1NC=O

> <Shape>
0.292

> <Color>
0.071

> <Negative vol penalty>
0.000

$$$$

  -OEChem-04042323323D

 85 93  0     1  0  0  0  0  0999 V2000
  -19.0456  -24.3604   23.2842 C   0  0  0  0  0  0  0  0  0  0  0  0
  -20.3606  -24.4727   22.8443 C   0  0  0  0  0  0  0  0  0  0  0  0
  -23.9383   -9.3375   21.7562 C   0  0  0  0  0  0  0  0  0  0  0  0
  -24.1286  -11.0398   23.4601 C   0  0  0  0  0  0  0  0  0  0  0  0
  -18.2231  -25.4858   23.3141 C   0  0  0  0  0  0  0  0  0  0  0  0
  -20.8536  -25.7104   22.4328 C   0  0  0  0  0  0  0  0  0  0  0  0
  -25.4645  -26.6793   24.2891 C   0  0  0  0  0  0  0  0  0  0  0  0
  -23.4227   -8.4499   22.7006 C   0  0  0  0  0  0  0  0  0  0  0  0
  -23.6130  -10.1522   24.4045 C   0  0  0  0  0  0  0  0  0  0  0  0
  -26.5448  -26.0515   23.6705 C   0  0  0  0  0  0  0  0  0  0  0  0
  -20.4614   -7.8845   24.2315 C   0  0  0  0  0  0  0  0  0  0  0  0
  -19.3432   -7.1325   23.8715 C   0  0  0  0  0  0  0  0  0  0  0  0
  -28.1867  -20.2443   19.2400 C   0  0  0  0  0  0  0  0  0  0  0  0
  -27.0153  -28.0779   22.4491 C   0  0  0  0  0  0  0  0  0  0  0  0
  -30.4159  -18.5707   19.3525 C   0  0  0  0  0  0  0  0  0  0  0  0
  -20.5973   -5.0981   24.2259 C   0  0  0  0  0  0  0  0  0  0  0  0
  -24.2913  -10.6325   22.1360 C   0  0  0  0  0  0  0  0  0  0  0  0
  -29.4625  -20.7905   19.3801 C   0  0  0  0  0  0  0  0  0  0  0  0
  -24.1004  -12.4433   20.3493 C   0  0  0  0  0  0  0  0  0  0  0  0
  -18.7093  -26.7399   22.9119 C   0  0  0  0  0  0  0  0  0  0  0  0
  -25.1444  -28.0100   23.9837 C   0  0  0  0  0  0  0  0  0  0  0  0
  -20.0365  -26.8535   22.4560 C   0  0  0  0  0  0  0  0  0  0  0  0
  -25.9321  -28.7211   23.0671 C   0  0  0  0  0  0  0  0  0  0  0  0
  -29.1401  -18.0245   19.2125 C   0  0  0  0  0  0  0  0  0  0  0  0
  -23.2600   -8.8572   24.0247 C   0  0  0  0  0  0  0  0  0  0  0  0
  -27.3186  -26.7498   22.7482 C   0  0  0  0  0  0  0  0  0  0  0  0
  -21.6476   -7.2434   24.5886 C   0  0  0  0  0  0  0  0  0  0  0  0
  -19.4111   -5.7393   23.8688 C   0  0  0  0  0  0  0  0  0  0  0  0
  -28.0255  -18.8613   19.1562 C   0  0  0  0  0  0  0  0  0  0  0  0
  -30.5771  -19.9538   19.4363 C   0  0  0  0  0  0  0  0  0  0  0  0
  -21.7156   -5.8502   24.5858 C   0  0  0  0  0  0  0  0  0  0  0  0
  -24.8246  -11.5497   21.1610 C   0  0  0  0  0  0  0  0  0  0  0  0
  -25.0595  -13.0839   19.6034 C   0  0  0  0  0  0  0  0  0  0  0  0
  -29.6303  -22.2556   19.4687 C   0  0  0  0  0  0  0  0  0  0  0  0
  -22.6872  -12.6738   20.2762 C   0  0  0  0  0  0  0  0  0  0  0  0
  -22.6255  -29.4770   22.7162 C   0  0  0  0  0  0  0  0  0  0  0  0
  -24.2948  -32.1540   23.4706 C   0  0  0  0  0  0  0  0  0  0  0  0
  -29.0637  -24.3230   20.7239 C   0  0  0  0  0  0  0  0  0  0  0  0
  -27.3206  -33.5984   24.1074 C   0  0  0  0  0  0  0  0  0  0  0  0
  -29.9814  -15.6504   19.1668 C   0  0  0  0  0  0  0  0  0  0  0  0
  -17.7686  -27.9188   22.9170 C   0  0  0  0  0  0  0  0  0  0  0  0
  -23.9922  -28.6812   24.6796 C   0  0  0  0  0  0  0  0  0  0  0  0
  -25.6426  -30.1577   22.7197 C   0  0  0  0  0  0  0  0  0  0  0  0
  -18.4798  -29.2659   22.8186 C   0  0  0  0  0  0  0  0  0  0  0  0
  -29.9896  -12.0927   19.0258 C   0  0  0  0  0  0  0  0  0  0  0  0
  -19.5382  -29.2319   21.7207 C   0  0  0  0  0  0  0  0  0  0  0  0
  -28.5870  -11.7078   19.5020 C   0  0  0  0  0  0  0  0  0  0  0  0
  -30.5314  -13.3059   19.7797 C   0  0  0  0  0  0  0  0  0  0  0  0
  -28.2472  -14.0954   20.2577 C   0  0  0  0  0  0  0  0  0  0  0  0
  -20.6153  -28.1837   22.0251 C   0  0  1  0  0  0  0  0  0  0  0  0
  -23.4450  -29.8792   23.9096 C   0  0  1  0  0  0  0  0  0  0  0  0
  -27.6332  -12.9184   19.4823 C   0  0  2  0  0  0  0  0  0  0  0  0
  -28.3712  -35.8106   24.6549 C   0  0  0  0  0  0  0  0  0  0  0  0
  -23.9684  -33.0254   20.5647 C   0  0  0  0  0  0  0  0  0  0  0  0
  -25.7924  -34.7000   20.9349 C   0  0  0  0  0  0  0  0  0  0  0  0
  -23.6738  -34.8566   22.2423 C   0  0  0  0  0  0  0  0  0  0  0  0
  -28.3620  -32.5958   26.6899 C   0  0  0  0  0  0  0  0  0  0  0  0
  -28.2808  -24.7291   21.9440 C   0  0  0  0  0  0  0  0  0  1  0  0
  -25.3191  -33.0095   22.7650 C   0  0  1  0  0  0  0  0  0  0  0  0
  -27.7798  -34.5271   25.2169 C   0  0  2  0  0  0  0  0  0  0  0  0
  -24.6930  -33.8702   21.6316 C   0  0  0  0  0  0  0  0  0  0  0  0
  -26.1420  -11.6138   20.9505 N   0  0  0  0  0  0  0  0  0  0  0  0
  -26.2532  -12.5553   19.9981 N   0  0  0  0  0  0  0  0  0  0  0  0
  -24.5016  -30.7681   23.4219 N   0  0  0  0  0  0  0  0  0  0  0  0
  -29.5768  -14.4146   19.7145 N   0  0  0  0  0  0  0  0  0  0  0  0
  -24.9897  -14.0420   18.6550 N   0  0  0  0  0  0  0  0  0  0  0  0
  -21.8446  -11.9294   21.1130 N   0  0  0  0  0  0  0  0  0  0  0  0
  -28.9793  -16.6193   19.1274 N   0  0  0  0  0  0  0  0  0  0  0  0
  -29.0274  -22.9009   20.4768 N   0  0  0  0  0  0  0  0  0  0  0  0
  -21.5377  -28.6819   23.0229 N   0  0  0  0  0  0  0  0  0  0  0  0
  -25.9886  -33.7850   23.8037 N   0  0  0  0  0  0  0  0  0  0  0  0
  -30.3763  -22.8517   18.5390 N   0  3  0  0  0  0  0  0  0  0  0  0
  -28.8157  -33.8600   26.0552 N   0  3  0  0  0  0  0  0  0  0  0  0
  -22.1851  -13.5033   19.4803 O   0  0  0  0  0  0  0  0  0  0  0  0
  -22.9547  -29.8609   21.6000 O   0  0  0  0  0  0  0  0  0  0  0  0
  -23.3500  -32.6958   24.0498 O   0  0  0  0  0  0  0  0  0  0  0  0
  -29.6787  -25.0886   19.9956 O   0  0  0  0  0  0  0  0  0  0  0  0
  -28.0695  -32.7909   23.5619 O   0  0  0  0  0  0  0  0  0  0  0  0
  -31.1245  -15.8269   18.7377 O   0  0  0  0  0  0  0  0  0  0  0  0
  -22.7567   -7.9914   24.9464 O   0  0  0  0  0  0  0  0  0  0  0  0
  -28.3732  -26.1392   22.1425 O   0  0  0  0  0  0  0  0  0  1  0  0
  -18.3367   -5.0172   23.5246 F   0  0  0  0  0  0  0  0  0  0  0  0
  -26.7944  -18.3472   19.0220 F   0  0  0  0  0  0  0  0  0  0  0  0
  -31.8071  -20.4692   19.5710 F   0  0  0  0  0  0  0  0  0  0  0  0
  -22.8520   -5.2286   24.9291 F   0  0  0  0  0  0  0  0  0  0  0  0
  1  2  1  0  0  0  0
  1  5  2  0  0  0  0
  2  6  2  0  0  0  0
  3  8  2  0  0  0  0
  3 17  1  0  0  0  0
  4  9  1  0  0  0  0
  4 17  2  0  0  0  0
  5 20  1  0  0  0  0
  6 22  1  0  0  0  0
  7 10  2  0  0  0  0
  7 21  1  0  0  0  0
  8 25  1  0  0  0  0
  9 25  2  0  0  0  0
 10 26  1  0  0  0  0
 11 12  2  0  0  0  0
 11 27  1  0  0  0  0
 12 28  1  0  0  0  0
 13 18  1  0  0  0  0
 13 29  2  0  0  0  0
 14 23  1  0  0  0  0
 14 26  2  0  0  0  0
 15 24  2  0  0  0  0
 15 30  1  0  0  0  0
 16 28  2  0  0  0  0
 16 31  1  0  0  0  0
 17 32  1  0  0  0  0
 18 30  2  0  0  0  0
 18 34  1  0  0  0  0
 19 32  1  0  0  0  0
 19 33  2  0  0  0  0
 19 35  1  0  0  0  0
 20 22  2  0  0  0  0
 20 41  1  0  0  0  0
 21 23  2  0  0  0  0
 21 42  1  0  0  0  0
 22 50  1  0  0  0  0
 23 43  1  0  0  0  0
 24 29  1  0  0  0  0
 24 68  1  0  0  0  0
 25 80  1  0  0  0  0
 26 81  1  0  0  0  0
 27 31  2  0  0  0  0
 27 80  1  0  0  0  0
 28 82  1  0  0  0  0
 29 83  1  0  0  0  0
 30 84  1  0  0  0  0
 31 85  1  0  0  0  0
 32 62  2  0  0  0  0
 33 63  1  0  0  0  0
 33 66  1  0  0  0  0
 34 69  1  0  0  0  0
 34 72  2  0  0  0  0
 35 67  1  0  0  0  0
 35 74  2  0  0  0  0
 36 51  1  0  0  0  0
 36 70  1  0  0  0  0
 36 75  2  0  0  0  0
 37 59  1  0  0  0  0
 37 64  1  0  0  0  0
 37 76  2  0  0  0  0
 38 58  1  0  0  0  0
 38 69  1  0  0  0  0
 38 77  2  0  0  0  0
 39 60  1  0  0  0  0
 39 71  1  0  0  0  0
 39 78  2  0  0  0  0
 40 65  1  0  0  0  0
 40 68  1  0  0  0  0
 40 79  2  0  0  0  0
 41 44  1  0  0  0  0
 42 51  1  0  0  0  0
 43 64  1  0  0  0  0
 44 46  1  0  0  0  0
 45 47  1  0  0  0  0
 45 48  1  0  0  0  0
 46 50  1  0  0  0  0
 47 52  1  0  0  0  0
 48 65  1  0  0  0  0
 49 52  1  0  0  0  0
 49 65  1  0  0  0  0
 50 70  1  0  0  0  0
 51 64  1  0  0  0  0
 52 63  1  0  0  0  0
 53 60  1  0  0  0  0
 54 61  1  0  0  0  0
 55 61  1  0  0  0  0
 56 61  1  0  0  0  0
 57 73  1  0  0  0  0
 58 81  1  0  0  0  0
 59 61  1  0  0  0  0
 59 71  1  0  0  0  0
 60 73  1  0  0  0  0
 62 63  1  0  0  0  0
M  CHG  2  72   1  73   1
M  ISO  4  40 100  58 101  68 100  81 101
M  END
> <Batch ID>
0070

> <Smiles>
CNC(C)C(=O)NC(C(=O)N1Cc2cc([101O:1][101CH2:1]C(=O)NC(=N)c3cc(F)c([100NH:0][100C:0](=O)N4CCCC(n5nc(-c6ccc(Oc7ccc(F)cc7F)cc6)c(C(N)=O)c5N)C4)cc3F)ccc2CC1C(=O)NC1CCCc2ccccc21)C(C)(C)C

> <Shape>
0.321

> <Color>
0.113

> <Negative vol penalty>
0.000

$$$$

  -OEChem-04042323323D

 84 92  0     1  0  0  0  0  0999 V2000
  -34.0771  -31.4064   26.4861 C   0  0  0  0  0  0  0  0  0  0  0  0
  -33.7748  -30.0901   26.1520 C   0  0  0  0  0  0  0  0  0  0  0  0
  -23.0759   -9.8672   19.9394 C   0  0  0  0  0  0  0  0  0  0  0  0
  -23.8360   -9.8720   22.2327 C   0  0  0  0  0  0  0  0  0  0  0  0
  -33.5110  -32.4555   25.7631 C   0  0  0  0  0  0  0  0  0  0  0  0
  -32.9052  -29.8223   25.0953 C   0  0  0  0  0  0  0  0  0  0  0  0
  -34.6014  -26.1314   22.0713 C   0  0  0  0  0  0  0  0  0  0  0  0
  -22.3323   -8.7136   20.1883 C   0  0  0  0  0  0  0  0  0  0  0  0
  -23.0923   -8.7185   22.4816 C   0  0  0  0  0  0  0  0  0  0  0  0
  -34.4487  -24.8202   22.5198 C   0  0  0  0  0  0  0  0  0  0  0  0
  -19.8644   -7.9194   23.0836 C   0  0  0  0  0  0  0  0  0  0  0  0
  -19.1076   -7.8781   24.2545 C   0  0  0  0  0  0  0  0  0  0  0  0
  -30.4685  -18.3394   24.0494 C   0  0  0  0  0  0  0  0  0  0  0  0
  -32.5038  -24.5724   21.1143 C   0  0  0  0  0  0  0  0  0  0  0  0
  -32.0620  -16.6065   22.5526 C   0  0  0  0  0  0  0  0  0  0  0  0
  -20.3494   -5.9402   24.9889 C   0  0  0  0  0  0  0  0  0  0  0  0
  -23.8278  -10.4464   20.9616 C   0  0  0  0  0  0  0  0  0  0  0  0
  -31.8545  -18.3560   24.2058 C   0  0  0  0  0  0  0  0  0  0  0  0
  -24.1691  -12.9717   20.8441 C   0  0  0  0  0  0  0  0  0  0  0  0
  -32.6416  -32.2003   24.6908 C   0  0  0  0  0  0  0  0  0  0  0  0
  -33.6986  -26.6774   21.1476 C   0  0  0  0  0  0  0  0  0  0  0  0
  -32.3259  -30.8691   24.3581 C   0  0  0  0  0  0  0  0  0  0  0  0
  -32.6488  -25.8899   20.6538 C   0  0  0  0  0  0  0  0  0  0  0  0
  -32.6512  -17.4896   23.4574 C   0  0  0  0  0  0  0  0  0  0  0  0
  -30.6760  -16.5899   22.3961 C   0  0  0  0  0  0  0  0  0  0  0  0
  -22.3405   -8.1393   21.4593 C   0  0  0  0  0  0  0  0  0  0  0  0
  -33.3981  -24.0414   22.0435 C   0  0  0  0  0  0  0  0  0  0  0  0
  -20.8637   -6.9710   22.8653 C   0  0  0  0  0  0  0  0  0  0  0  0
  -19.3501   -6.8886   25.2072 C   0  0  0  0  0  0  0  0  0  0  0  0
  -29.8793  -17.4563   23.1446 C   0  0  0  0  0  0  0  0  0  0  0  0
  -21.1062   -5.9814   23.8179 C   0  0  0  0  0  0  0  0  0  0  0  0
  -24.5966  -11.6377   20.7050 C   0  0  0  0  0  0  0  0  0  0  0  0
  -25.2610  -13.7218   20.4815 C   0  0  0  0  0  0  0  0  0  0  0  0
  -32.8262  -21.3730   24.3419 C   0  0  0  0  0  0  0  0  0  0  0  0
  -32.4513  -19.3093   25.1816 C   0  0  0  0  0  0  0  0  0  0  0  0
  -22.8985  -13.4868   21.2636 C   0  0  0  0  0  0  0  0  0  0  0  0
  -31.6496  -29.1073   21.1814 C   0  0  0  0  0  0  0  0  0  0  0  0
  -31.2909  -28.3404   18.0500 C   0  0  0  0  0  0  0  0  0  0  0  0
  -31.5248  -25.9749   15.6013 C   0  0  0  0  0  0  0  0  0  0  0  0
  -30.7270  -14.7683   20.6567 C   0  0  0  0  0  0  0  0  0  0  0  0
  -32.0171  -33.3679   23.9689 C   0  0  0  0  0  0  0  0  0  0  0  0
  -33.8928  -28.0847   20.6535 C   0  0  0  0  0  0  0  0  0  0  0  0
  -31.6642  -26.4224   19.6460 C   0  0  0  0  0  0  0  0  0  0  0  0
  -31.3990  -32.9927   22.6244 C   0  0  0  0  0  0  0  0  0  0  0  0
  -29.6129  -12.3567   18.2861 C   0  0  0  0  0  0  0  0  0  0  0  0
  -30.5519  -31.7314   22.7597 C   0  0  0  0  0  0  0  0  0  0  0  0
  -28.1734  -12.0644   18.7155 C   0  0  0  0  0  0  0  0  0  0  0  0
  -30.5281  -12.5845   19.4879 C   0  0  0  0  0  0  0  0  0  0  0  0
  -28.6211  -13.3071   20.8701 C   0  0  0  0  0  0  0  0  0  0  0  0
  -31.4065  -30.5378   23.2027 C   0  0  1  0  0  0  0  0  0  0  0  0
  -32.6136  -28.7059   20.1010 C   0  0  1  0  0  0  0  0  0  0  0  0
  -27.6482  -13.1349   19.6922 C   0  0  2  0  0  0  0  0  0  0  0  0
  -31.1264  -25.6339   13.1473 C   0  0  0  0  0  0  0  0  0  0  0  0
  -28.2872  -28.1808   18.5623 C   0  0  0  0  0  0  0  0  0  0  0  0
  -28.0546  -26.9417   16.3993 C   0  0  0  0  0  0  0  0  0  0  0  0
  -28.9210  -29.2810   16.4077 C   0  0  0  0  0  0  0  0  0  0  0  0
  -34.3759  -25.3538   15.1065 C   0  0  0  0  0  0  0  0  0  0  0  0
  -33.6946  -22.4690   23.8030 C   0  0  0  0  0  0  0  0  0  1  0  0
  -30.3882  -27.4127   17.2732 C   0  0  1  0  0  0  0  0  0  0  0  0
  -32.1397  -26.0185   14.2141 C   0  0  2  0  0  0  0  0  0  0  0  0
  -28.9300  -27.9444   17.1811 C   0  0  0  0  0  0  0  0  0  0  0  0
  -25.8614  -11.5425   20.2865 N   0  0  0  0  0  0  0  0  0  0  0  0
  -33.3416  -20.2477   24.7182 N   0  0  0  0  0  0  0  0  0  0  0  0
  -26.2381  -12.8263   20.1594 N   0  0  0  0  0  0  0  0  0  0  0  0
  -31.8926  -27.8062   19.1982 N   0  0  0  0  0  0  0  0  0  0  0  0
  -29.9690  -13.6143   20.3664 N   0  0  0  0  0  0  0  0  0  0  0  0
  -34.0567  -17.4903   23.6017 N   0  0  0  0  0  0  0  0  0  0  0  0
  -25.4712  -15.0534   20.4098 N   0  0  0  0  0  0  0  0  0  0  0  0
  -21.8868  -12.5771   21.6001 N   0  0  0  0  0  0  0  0  0  0  0  0
  -30.0795  -15.6924   21.4761 N   0  0  0  0  0  0  0  0  0  0  0  0
  -32.1646  -30.0167   22.0855 N   0  0  0  0  0  0  0  0  0  0  0  0
  -31.0314  -27.2054   15.9802 N   0  0  0  0  0  0  0  0  0  0  0  0
  -32.1951  -19.2591   26.4410 N   0  3  0  0  0  0  0  0  0  0  0  0
  -33.2923  -25.0776   14.1285 N   0  3  0  0  0  0  0  0  0  0  0  0
  -22.6620  -14.7174   21.3222 O   0  0  0  0  0  0  0  0  0  0  0  0
  -30.5216  -28.6287   21.1931 O   0  0  0  0  0  0  0  0  0  0  0  0
  -31.4617  -29.4943   17.6488 O   0  0  0  0  0  0  0  0  0  0  0  0
  -31.4829  -24.9507   16.2794 O   0  0  0  0  0  0  0  0  0  0  0  0
  -31.8560  -14.9378   20.1892 O   0  0  0  0  0  0  0  0  0  0  0  0
  -21.6148   -7.0138   21.7026 O   0  0  0  0  0  0  0  0  0  0  0  0
  -33.2464  -22.7614   22.4801 O   0  0  0  0  0  0  0  0  0  1  0  0
  -18.6243   -6.8500   26.3323 F   0  0  0  0  0  0  0  0  0  0  0  0
  -28.5462  -17.4486   23.0029 F   0  0  0  0  0  0  0  0  0  0  0  0
  -22.0657   -5.0684   23.6143 F   0  0  0  0  0  0  0  0  0  0  0  0
  1  2  1  0  0  0  0
  1  5  2  0  0  0  0
  2  6  2  0  0  0  0
  3  8  2  0  0  0  0
  3 17  1  0  0  0  0
  4  9  1  0  0  0  0
  4 17  2  0  0  0  0
  5 20  1  0  0  0  0
  6 22  1  0  0  0  0
  7 10  2  0  0  0  0
  7 21  1  0  0  0  0
  8 26  1  0  0  0  0
  9 26  2  0  0  0  0
 10 27  1  0  0  0  0
 11 12  2  0  0  0  0
 11 28  1  0  0  0  0
 12 29  1  0  0  0  0
 13 18  1  0  0  0  0
 13 30  2  0  0  0  0
 14 23  1  0  0  0  0
 14 27  2  0  0  0  0
 15 24  1  0  0  0  0
 15 25  2  0  0  0  0
 16 29  2  0  0  0  0
 16 31  1  0  0  0  0
 17 32  1  0  0  0  0
 18 24  2  0  0  0  0
 18 35  1  0  0  0  0
 19 32  1  0  0  0  0
 19 33  2  0  0  0  0
 19 36  1  0  0  0  0
 20 22  2  0  0  0  0
 20 41  1  0  0  0  0
 21 23  2  0  0  0  0
 21 42  1  0  0  0  0
 22 50  1  0  0  0  0
 23 43  1  0  0  0  0
 24 67  1  0  0  0  0
 25 30  1  0  0  0  0
 25 70  1  0  0  0  0
 26 80  1  0  0  0  0
 27 81  1  0  0  0  0
 28 31  2  0  0  0  0
 28 80  1  0  0  0  0
 29 82  1  0  0  0  0
 30 83  1  0  0  0  0
 31 84  1  0  0  0  0
 32 62  2  0  0  0  0
 33 64  1  0  0  0  0
 33 68  1  0  0  0  0
 34 58  1  0  0  0  0
 34 63  2  0  0  0  0
 35 63  1  0  0  0  0
 35 73  2  0  0  0  0
 36 69  1  0  0  0  0
 36 75  2  0  0  0  0
 37 51  1  0  0  0  0
 37 71  1  0  0  0  0
 37 76  2  0  0  0  0
 38 59  1  0  0  0  0
 38 65  1  0  0  0  0
 38 77  2  0  0  0  0
 39 60  1  0  0  0  0
 39 72  1  0  0  0  0
 39 78  2  0  0  0  0
 40 66  1  0  0  0  0
 40 70  1  0  0  0  0
 40 79  2  0  0  0  0
 41 44  1  0  0  0  0
 42 51  1  0  0  0  0
 43 65  1  0  0  0  0
 44 46  1  0  0  0  0
 45 47  1  0  0  0  0
 45 48  1  0  0  0  0
 46 50  1  0  0  0  0
 47 52  1  0  0  0  0
 48 66  1  0  0  0  0
 49 52  1  0  0  0  0
 49 66  1  0  0  0  0
 50 71  1  0  0  0  0
 51 65  1  0  0  0  0
 52 64  1  0  0  0  0
 53 60  1  0  0  0  0
 54 61  1  0  0  0  0
 55 61  1  0  0  0  0
 56 61  1  0  0  0  0
 57 74  1  0  0  0  0
 58 81  1  0  0  0  0
 59 61  1  0  0  0  0
 59 72  1  0  0  0  0
 60 74  1  0  0  0  0
 62 64  1  0  0  0  0
M  CHG  2  73   1  74   1
M  ISO  4  40 100  58 101  70 100  81 101
M  END
> <Batch ID>
0070

> <Smiles>
CNC(C)C(=O)NC(C(=O)N1Cc2cc([101O:1][101CH:1]=CNC(=N)c3cc(F)c([100NH:0][100C:0](=O)N4CCCC(n5nc(-c6ccc(Oc7ccc(F)cc7F)cc6)c(C(N)=O)c5N)C4)cc3N)ccc2CC1C(=O)NC1CCCc2ccccc21)C(C)(C)C

> <Shape>
0.191

> <Color>
0.180

> <Negative vol penalty>
0.000

$$$$

  -OEChem-04042323323D

 78 86  0     1  0  0  0  0  0999 V2000
  -30.0735  -29.7883   14.2873 C   0  0  0  0  0  0  0  0  0  0  0  0
  -30.2116  -28.4678   14.7029 C   0  0  0  0  0  0  0  0  0  0  0  0
  -23.1473   -9.7455   20.2239 C   0  0  0  0  0  0  0  0  0  0  0  0
  -23.8360  -10.0827   22.5150 C   0  0  0  0  0  0  0  0  0  0  0  0
  -29.6517  -30.7620   15.1917 C   0  0  0  0  0  0  0  0  0  0  0  0
  -29.9291  -28.1205   16.0235 C   0  0  0  0  0  0  0  0  0  0  0  0
  -27.4783  -22.8697   18.0055 C   0  0  0  0  0  0  0  0  0  0  0  0
  -22.4257   -8.6151   20.6072 C   0  0  0  0  0  0  0  0  0  0  0  0
  -23.1143   -8.9523   22.8983 C   0  0  0  0  0  0  0  0  0  0  0  0
  -28.0436  -21.7169   18.5487 C   0  0  0  0  0  0  0  0  0  0  0  0
  -19.8905   -8.1484   23.5157 C   0  0  0  0  0  0  0  0  0  0  0  0
  -19.0992   -8.2439   24.6603 C   0  0  0  0  0  0  0  0  0  0  0  0
  -27.5982  -22.5512   20.7678 C   0  0  0  0  0  0  0  0  0  0  0  0
  -20.3662   -6.4601   25.6851 C   0  0  0  0  0  0  0  0  0  0  0  0
  -23.8526  -10.4793   21.1779 C   0  0  0  0  0  0  0  0  0  0  0  0
  -24.1337  -12.9744   20.7271 C   0  0  0  0  0  0  0  0  0  0  0  0
  -29.3546  -30.4247   16.5215 C   0  0  0  0  0  0  0  0  0  0  0  0
  -26.9777  -23.8786   18.8410 C   0  0  0  0  0  0  0  0  0  0  0  0
  -29.5043  -29.0909   16.9468 C   0  0  0  0  0  0  0  0  0  0  0  0
  -27.0247  -23.7148   20.2328 C   0  0  0  0  0  0  0  0  0  0  0  0
  -22.4091   -8.2185   21.9444 C   0  0  0  0  0  0  0  0  0  0  0  0
  -28.1063  -21.5587   19.9300 C   0  0  0  0  0  0  0  0  0  0  0  0
  -20.9196   -7.2087   23.4556 C   0  0  0  0  0  0  0  0  0  0  0  0
  -19.3370   -7.3998   25.7451 C   0  0  0  0  0  0  0  0  0  0  0  0
  -21.1575   -6.3646   24.5403 C   0  0  0  0  0  0  0  0  0  0  0  0
  -24.5987  -11.6468   20.7825 C   0  0  0  0  0  0  0  0  0  0  0  0
  -25.2171  -13.7000   20.2955 C   0  0  0  0  0  0  0  0  0  0  0  0
  -31.4291  -19.6763   22.6580 C   0  0  0  0  0  0  0  0  0  0  0  0
  -31.9457  -18.5288   23.1119 C   0  0  0  0  0  0  0  0  0  0  0  0
  -30.2511  -19.6435   21.7596 C   0  0  0  0  0  0  0  0  0  0  0  0
  -22.8382  -13.5044   21.0380 C   0  0  0  0  0  0  0  0  0  0  0  0
  -27.6851  -26.9377   19.3359 C   0  0  0  0  0  0  0  0  0  0  0  0
  -25.0527  -26.8369   21.2286 C   0  0  0  0  0  0  0  0  0  0  0  0
  -22.9082  -24.9655   23.1116 C   0  0  0  0  0  0  0  0  0  0  0  0
  -30.6648  -14.8954   20.4925 C   0  0  0  0  0  0  0  0  0  0  0  0
  -28.9475  -31.5203   17.4747 C   0  0  0  0  0  0  0  0  0  0  0  0
  -26.3467  -25.1042   18.2392 C   0  0  0  0  0  0  0  0  0  0  0  0
  -26.4828  -24.7592   21.1730 C   0  0  0  0  0  0  0  0  0  0  0  0
  -31.4524  -17.1659   22.7256 C   0  0  0  0  0  0  0  0  0  0  0  0
  -29.5963  -18.3087   21.4590 C   0  0  0  0  0  0  0  0  0  0  0  0
  -28.3083  -31.0025   18.7606 C   0  0  0  0  0  0  0  0  0  0  0  0
  -29.6620  -12.1796   18.4199 C   0  0  0  0  0  0  0  0  0  0  0  0
  -29.1278  -29.8533   19.3390 C   0  0  0  0  0  0  0  0  0  0  0  0
  -28.2198  -11.9047   18.8496 C   0  0  0  0  0  0  0  0  0  0  0  0
  -30.5359  -12.5865   19.6043 C   0  0  0  0  0  0  0  0  0  0  0  0
  -28.5745  -13.4411   20.8276 C   0  0  0  0  0  0  0  0  0  0  0  0
  -29.1836  -28.6705   18.3648 C   0  0  1  0  0  0  0  0  0  0  0  0
  -26.3337  -26.2975   19.1896 C   0  0  1  0  0  0  0  0  0  0  0  0
  -27.6417  -13.0815   19.6584 C   0  0  2  0  0  0  0  0  0  0  0  0
  -30.6379  -17.1936   21.4289 C   0  0  2  0  0  0  0  0  0  0  0  0
  -20.8751  -25.1689   24.5685 C   0  0  0  0  0  0  0  0  0  0  0  0
  -26.7797  -27.9644   23.4771 C   0  0  0  0  0  0  0  0  0  0  0  0
  -25.0065  -27.2600   25.0981 C   0  0  0  0  0  0  0  0  0  0  0  0
  -24.4832  -28.9443   23.3340 C   0  0  0  0  0  0  0  0  0  0  0  0
  -21.3173  -23.2124   21.3355 C   0  0  0  0  0  0  0  0  0  0  0  0
  -24.7921  -26.5213   22.6817 C   0  0  1  0  0  0  0  0  0  0  0  0
  -21.3918  -24.9158   23.1608 C   0  0  2  0  0  0  0  0  0  0  0  0
  -25.2775  -27.6535   23.6303 C   0  0  0  0  0  0  0  0  0  0  0  0
  -25.8778  -11.5328   20.4153 N   0  0  0  0  0  0  0  0  0  0  0  0
  -29.7624  -20.7417   21.2777 N   0  0  0  0  0  0  0  0  0  1  0  0
  -26.2258  -12.7980   20.1250 N   0  0  0  0  0  0  0  0  0  0  0  0
  -25.8813  -25.9426   20.5363 N   0  0  0  0  0  0  0  0  0  0  0  0
  -29.9324  -13.7081   20.3280 N   0  0  0  0  0  0  0  0  0  0  0  0
  -25.3957  -15.0152   20.0490 N   0  0  0  0  0  0  0  0  0  0  0  0
  -21.8398  -12.6194   21.4675 N   0  0  0  0  0  0  0  0  0  0  0  0
  -27.9440  -27.9246   18.4039 N   0  0  0  0  0  0  0  0  0  0  0  0
  -23.3676  -26.2241   22.7858 N   0  0  0  0  0  0  0  0  0  0  0  0
  -30.0166  -15.9109   21.1849 N   0  0  0  0  0  0  0  0  0  0  0  0
  -20.9025  -23.5810   22.7136 N   0  3  0  0  0  0  0  0  0  0  0  0
  -22.5691  -14.7241   20.9221 O   0  0  0  0  0  0  0  0  0  0  0  0
  -28.4367  -26.5651   20.2291 O   0  0  0  0  0  0  0  0  0  0  0  0
  -24.5341  -27.8362   20.7244 O   0  0  0  0  0  0  0  0  0  0  0  0
  -23.6146  -23.9868   23.3431 O   0  0  0  0  0  0  0  0  0  0  0  0
  -31.8093  -15.0416   20.0502 O   0  0  0  0  0  0  0  0  0  0  0  0
  -21.7048   -7.1156   22.3188 O   0  0  0  0  0  0  0  0  0  0  0  0
  -28.6582  -20.4347   20.4628 O   0  0  0  0  0  0  0  0  0  1  0  0
  -18.5780   -7.4927   26.8448 F   0  0  0  0  0  0  0  0  0  0  0  0
  -22.1454   -5.4607   24.4890 F   0  0  0  0  0  0  0  0  0  0  0  0
  1  2  1  0  0  0  0
  1  5  2  0  0  0  0
  2  6  2  0  0  0  0
  3  8  2  0  0  0  0
  3 15  1  0  0  0  0
  4  9  1  0  0  0  0
  4 15  2  0  0  0  0
  5 17  1  0  0  0  0
  6 19  1  0  0  0  0
  7 10  2  0  0  0  0
  7 18  1  0  0  0  0
  8 21  1  0  0  0  0
  9 21  2  0  0  0  0
 10 22  1  0  0  0  0
 11 12  2  0  0  0  0
 11 23  1  0  0  0  0
 12 24  1  0  0  0  0
 13 20  1  0  0  0  0
 13 22  2  0  0  0  0
 14 24  2  0  0  0  0
 14 25  1  0  0  0  0
 15 26  1  0  0  0  0
 16 26  1  0  0  0  0
 16 27  2  0  0  0  0
 16 31  1  0  0  0  0
 17 19  2  0  0  0  0
 17 36  1  0  0  0  0
 18 20  2  0  0  0  0
 18 37  1  0  0  0  0
 19 47  1  0  0  0  0
 20 38  1  0  0  0  0
 21 75  1  0  0  0  0
 22 76  1  0  0  0  0
 23 25  2  0  0  0  0
 23 75  1  0  0  0  0
 24 77  1  0  0  0  0
 25 78  1  0  0  0  0
 26 59  2  0  0  0  0
 27 61  1  0  0  0  0
 27 64  1  0  0  0  0
 28 29  2  0  0  0  0
 28 30  1  0  0  0  0
 29 39  1  0  0  0  0
 30 40  1  0  0  0  0
 30 60  2  0  0  0  0
 31 65  1  0  0  0  0
 31 70  2  0  0  0  0
 32 48  1  0  0  0  0
 32 66  1  0  0  0  0
 32 71  2  0  0  0  0
 33 56  1  0  0  0  0
 33 62  1  0  0  0  0
 33 72  2  0  0  0  0
 34 57  1  0  0  0  0
 34 67  1  0  0  0  0
 34 73  2  0  0  0  0
 35 63  1  0  0  0  0
 35 68  1  0  0  0  0
 35 74  2  0  0  0  0
 36 41  1  0  0  0  0
 37 48  1  0  0  0  0
 38 62  1  0  0  0  0
 39 50  1  0  0  0  0
 40 50  1  0  0  0  0
 41 43  1  0  0  0  0
 42 44  1  0  0  0  0
 42 45  1  0  0  0  0
 43 47  1  0  0  0  0
 44 49  1  0  0  0  0
 45 63  1  0  0  0  0
 46 49  1  0  0  0  0
 46 63  1  0  0  0  0
 47 66  1  0  0  0  0
 48 62  1  0  0  0  0
 49 61  1  0  0  0  0
 50 68  1  0  0  0  0
 51 57  1  0  0  0  0
 52 58  1  0  0  0  0
 53 58  1  0  0  0  0
 54 58  1  0  0  0  0
 55 69  1  0  0  0  0
 56 58  1  0  0  0  0
 56 67  1  0  0  0  0
 57 69  1  0  0  0  0
 59 61  1  0  0  0  0
 60 76  1  0  0  0  0
M  CHG  1  69   1
M  ISO  4  35 100  60 101  68 100  76 101
M  END
> <Batch ID>
0070

> <Smiles>
CNC(C)C(=O)NC(C(=O)N1Cc2cc([101O:1][101N:1]=C3CC=CC([100NH:0][100C:0](=O)N4CCCC(n5nc(-c6ccc(Oc7ccc(F)cc7F)cc6)c(C(N)=O)c5N)C4)C3)ccc2CC1C(=O)NC1CCCc2ccccc21)C(C)(C)C

> <Shape>
0.242

> <Color>
0.211

> <Negative vol penalty>
0.000

$$$$

  -OEChem-04042323323D

 84 92  0     1  0  0  0  0  0999 V2000
  -28.0431  -18.7206   14.3575 C   0  0  0  0  0  0  0  0  0  0  0  0
  -28.4439  -18.3676   15.6421 C   0  0  0  0  0  0  0  0  0  0  0  0
  -24.7250  -30.8005   21.0737 C   0  0  0  0  0  0  0  0  0  0  0  0
  -25.0601  -29.5270   23.0993 C   0  0  0  0  0  0  0  0  0  0  0  0
  -29.0811  -18.8519   20.4345 C   0  0  0  0  0  0  0  0  0  0  0  0
  -26.6878  -18.8753   14.0692 C   0  0  0  0  0  0  0  0  0  0  0  0
  -27.4896  -18.1701   16.6394 C   0  0  0  0  0  0  0  0  0  0  0  0
  -28.3827  -14.0110   19.3869 C   0  0  0  0  0  0  0  0  0  0  0  0
  -28.2623  -19.8805   19.9685 C   0  0  0  0  0  0  0  0  0  0  0  0
  -24.0194  -31.7631   21.7956 C   0  0  0  0  0  0  0  0  0  0  0  0
  -24.3545  -30.4896   23.8212 C   0  0  0  0  0  0  0  0  0  0  0  0
  -29.3750  -14.0934   20.3628 C   0  0  0  0  0  0  0  0  0  0  0  0
  -24.7304  -34.3578   23.8437 C   0  0  0  0  0  0  0  0  0  0  0  0
  -25.0264  -35.6985   23.5979 C   0  0  0  0  0  0  0  0  0  0  0  0
  -30.7755  -20.4691   21.0269 C   0  0  0  0  0  0  0  0  0  0  0  0
  -27.6799  -14.3968   22.0521 C   0  0  0  0  0  0  0  0  0  0  0  0
  -22.7383  -36.0798   22.9223 C   0  0  0  0  0  0  0  0  0  0  0  0
  -25.2453  -29.6824   21.7255 C   0  0  0  0  0  0  0  0  0  0  0  0
  -30.3377  -19.1462   20.9638 C   0  0  0  0  0  0  0  0  0  0  0  0
  -27.3592  -28.6567   20.7319 C   0  0  0  0  0  0  0  0  0  0  0  0
  -25.7159  -18.6702   15.0611 C   0  0  0  0  0  0  0  0  0  0  0  0
  -27.0298  -14.1319   19.7355 C   0  0  0  0  0  0  0  0  0  0  0  0
  -26.1201  -18.3236   16.3644 C   0  0  0  0  0  0  0  0  0  0  0  0
  -26.6723  -14.3129   21.0792 C   0  0  0  0  0  0  0  0  0  0  0  0
  -28.7001  -21.2034   20.0316 C   0  0  0  0  0  0  0  0  0  0  0  0
  -23.8342  -31.6077   23.1693 C   0  0  0  0  0  0  0  0  0  0  0  0
  -29.0239  -14.2893   21.6952 C   0  0  0  0  0  0  0  0  0  0  0  0
  -23.4384  -33.8780   23.6288 C   0  0  0  0  0  0  0  0  0  0  0  0
  -24.0303  -36.5595   23.1372 C   0  0  0  0  0  0  0  0  0  0  0  0
  -29.9567  -21.4977   20.5608 C   0  0  0  0  0  0  0  0  0  0  0  0
  -22.4423  -34.7390   23.1682 C   0  0  0  0  0  0  0  0  0  0  0  0
  -25.9738  -28.6875   20.9802 C   0  0  0  0  0  0  0  0  0  0  0  0
  -27.5492  -27.5190   19.9862 C   0  0  0  0  0  0  0  0  0  0  0  0
  -31.2051  -18.0580   21.4576 C   0  0  0  0  0  0  0  0  0  0  0  0
  -28.3828  -29.5744   21.1390 C   0  0  0  0  0  0  0  0  0  0  0  0
  -24.6985  -16.1655   19.0054 C   0  0  0  0  0  0  0  0  0  0  0  0
  -22.8758  -14.0714   20.6832 C   0  0  0  0  0  0  0  0  0  0  0  0
  -22.7127  -11.6388   23.0712 C   0  0  0  0  0  0  0  0  0  0  0  0
  -26.5918  -22.1226   19.0037 C   0  0  0  0  0  0  0  0  0  0  0  0
  -24.2656  -18.8954   14.7138 C   0  0  0  0  0  0  0  0  0  0  0  0
  -25.9702  -14.0140   18.6745 C   0  0  0  0  0  0  0  0  0  0  0  0
  -25.2332  -14.4286   21.5082 C   0  0  0  0  0  0  0  0  0  0  0  0
  -23.2961  -18.3019   15.7327 C   0  0  0  0  0  0  0  0  0  0  0  0
  -24.2027  -24.4474   17.7528 C   0  0  0  0  0  0  0  0  0  0  0  0
  -23.7294  -18.6567   17.1515 C   0  0  0  0  0  0  0  0  0  0  0  0
  -24.5645  -25.7552   18.4605 C   0  0  0  0  0  0  0  0  0  0  0  0
  -24.3968  -23.2368   18.6643 C   0  0  0  0  0  0  0  0  0  0  0  0
  -26.0850  -24.4419   19.9936 C   0  0  0  0  0  0  0  0  0  0  0  0
  -25.1134  -18.0765   17.4670 C   0  0  1  0  0  0  0  0  0  0  0  0
  -24.6497  -14.6653   19.0738 C   0  0  1  0  0  0  0  0  0  0  0  0
  -25.9675  -25.6835   19.0946 C   0  0  2  0  0  0  0  0  0  0  0  0
  -21.0793  -10.1431   24.2512 C   0  0  0  0  0  0  0  0  0  0  0  0
  -32.3344  -13.8429   22.4494 C   0  0  0  0  0  0  0  0  0  0  0  0
  -21.9301  -16.4351   22.3650 C   0  0  0  0  0  0  0  0  0  0  0  0
  -21.0900  -14.8000   24.0647 C   0  0  0  0  0  0  0  0  0  0  0  0
  -20.1360  -14.8014   21.7598 C   0  0  0  0  0  0  0  0  0  0  0  0
  -24.0532   -9.1953   22.0755 C   0  0  0  0  0  0  0  0  0  0  0  0
  -31.5208  -16.1797   23.0288 C   0  0  0  0  0  0  0  0  0  0  0  0
  -22.4773  -13.9227   22.1317 C   0  0  1  0  0  0  0  0  0  0  0  0
  -22.0387  -10.2786   23.0790 C   0  0  2  0  0  0  0  0  0  0  0  0
  -31.2549  -14.8979   22.2501 C   0  0  2  0  0  0  0  0  0  1  0  0
  -21.4356  -14.9896   22.5723 C   0  0  0  0  0  0  0  0  0  0  0  0
  -25.3293  -27.6517   20.4362 N   0  0  0  0  0  0  0  0  0  0  0  0
  -26.3141  -26.9595   19.8386 N   0  0  0  0  0  0  0  0  0  0  0  0
  -24.2340  -14.3132   20.4330 N   0  0  0  0  0  0  0  0  0  0  0  0
  -25.7496  -23.2328   19.2251 N   0  0  0  0  0  0  0  0  0  0  0  0
  -28.6505  -26.9528   19.4488 N   0  0  0  0  0  0  0  0  0  0  0  0
  -32.3981  -17.8967   20.8849 N   0  0  0  0  0  0  0  0  0  0  0  0
  -28.0142  -30.6913   21.9013 N   0  0  0  0  0  0  0  0  0  0  0  0
  -27.8657  -22.2458   19.5574 N   0  0  0  0  0  0  0  0  0  0  0  0
  -25.0146  -16.6617   17.7551 N   0  0  0  0  0  0  0  0  0  0  0  0
  -22.0254  -12.5448   22.2913 N   0  0  0  0  0  0  0  0  0  0  0  0
  -30.7521  -17.2862   22.4524 N   0  3  0  0  0  0  0  0  0  0  0  0
  -23.0580   -9.1960   23.1785 N   0  3  0  0  0  0  0  0  0  0  0  0
  -29.5863  -29.4177   20.8219 O   0  0  0  0  0  0  0  0  0  0  0  0
  -24.4651  -16.8242   20.0121 O   0  0  0  0  0  0  0  0  0  0  0  0
  -22.0149  -13.9695   19.8056 O   0  0  0  0  0  0  0  0  0  0  0  0
  -23.7434  -11.8751   23.6974 O   0  0  0  0  0  0  0  0  0  0  0  0
  -26.2202  -21.1470   18.3465 O   0  0  0  0  0  0  0  0  0  0  0  0
  -23.1459  -32.5469   23.8741 O   0  0  0  0  0  0  0  0  0  0  0  0
  -29.9904  -14.3708   22.6497 O   0  0  0  0  0  0  0  0  0  1  0  0
  -24.3144  -37.8473   22.9026 F   0  0  0  0  0  0  0  0  0  0  0  0
  -30.3883  -22.7654   20.6251 F   0  0  0  0  0  0  0  0  0  0  0  0
  -21.1989  -34.2842   22.9610 F   0  0  0  0  0  0  0  0  0  0  0  0
  1  2  1  0  0  0  0
  1  6  2  0  0  0  0
  2  7  2  0  0  0  0
  3 10  2  0  0  0  0
  3 18  1  0  0  0  0
  4 11  1  0  0  0  0
  4 18  2  0  0  0  0
  5  9  2  0  0  0  0
  5 19  1  0  0  0  0
  6 21  1  0  0  0  0
  7 23  1  0  0  0  0
  8 12  2  0  0  0  0
  8 22  1  0  0  0  0
  9 25  1  0  0  0  0
 10 26  1  0  0  0  0
 11 26  2  0  0  0  0
 12 27  1  0  0  0  0
 13 14  2  0  0  0  0
 13 28  1  0  0  0  0
 14 29  1  0  0  0  0
 15 19  2  0  0  0  0
 15 30  1  0  0  0  0
 16 24  1  0  0  0  0
 16 27  2  0  0  0  0
 17 29  2  0  0  0  0
 17 31  1  0  0  0  0
 18 32  1  0  0  0  0
 19 34  1  0  0  0  0
 20 32  1  0  0  0  0
 20 33  2  0  0  0  0
 20 35  1  0  0  0  0
 21 23  2  0  0  0  0
 21 40  1  0  0  0  0
 22 24  2  0  0  0  0
 22 41  1  0  0  0  0
 23 49  1  0  0  0  0
 24 42  1  0  0  0  0
 25 30  2  0  0  0  0
 25 70  1  0  0  0  0
 26 80  1  0  0  0  0
 27 81  1  0  0  0  0
 28 31  2  0  0  0  0
 28 80  1  0  0  0  0
 29 82  1  0  0  0  0
 30 83  1  0  0  0  0
 31 84  1  0  0  0  0
 32 63  2  0  0  0  0
 33 64  1  0  0  0  0
 33 67  1  0  0  0  0
 34 68  1  0  0  0  0
 34 73  2  0  0  0  0
 35 69  1  0  0  0  0
 35 75  2  0  0  0  0
 36 50  1  0  0  0  0
 36 71  1  0  0  0  0
 36 76  2  0  0  0  0
 37 59  1  0  0  0  0
 37 65  1  0  0  0  0
 37 77  2  0  0  0  0
 38 60  1  0  0  0  0
 38 72  1  0  0  0  0
 38 78  2  0  0  0  0
 39 66  1  0  0  0  0
 39 70  1  0  0  0  0
 39 79  2  0  0  0  0
 40 43  1  0  0  0  0
 41 50  1  0  0  0  0
 42 65  1  0  0  0  0
 43 45  1  0  0  0  0
 44 46  1  0  0  0  0
 44 47  1  0  0  0  0
 45 49  1  0  0  0  0
 46 51  1  0  0  0  0
 47 66  1  0  0  0  0
 48 51  1  0  0  0  0
 48 66  1  0  0  0  0
 49 71  1  0  0  0  0
 50 65  1  0  0  0  0
 51 64  1  0  0  0  0
 52 60  1  0  0  0  0
 53 61  1  0  0  0  0
 54 62  1  0  0  0  0
 55 62  1  0  0  0  0
 56 62  1  0  0  0  0
 57 74  1  0  0  0  0
 58 61  1  0  0  0  0
 58 73  1  0  0  0  0
 59 62  1  0  0  0  0
 59 72  1  0  0  0  0
 60 74  1  0  0  0  0
 61 81  1  0  0  0  0
 63 64  1  0  0  0  0
M  CHG  2  73   1  74   1
M  ISO  4  39 100  61 101  70 100  81 101
M  END
> <Batch ID>
0070

> <Smiles>
CNC(C)C(=O)NC(C(=O)N1Cc2cc([101O:1][101CH:1](C)CNC(=N)c3ccc([100NH:0][100C:0](=O)N4CCCC(n5nc(-c6ccc(Oc7ccc(F)cc7F)cc6)c(C(N)=O)c5N)C4)c(F)c3)ccc2CC1C(=O)NC1CCCc2ccccc21)C(C)(C)C

> <Shape>
0.245

> <Color>
0.063

> <Negative vol penalty>
0.000

$$$$

  -OEChem-04042323323D

 84 92  0     1  0  0  0  0  0999 V2000
  -20.0584  -32.8823   15.3069 C   0  0  0  0  0  0  0  0  0  0  0  0
  -21.0164  -31.8826   15.4416 C   0  0  0  0  0  0  0  0  0  0  0  0
  -23.9697   -9.6134   21.8848 C   0  0  0  0  0  0  0  0  0  0  0  0
  -24.6592  -11.0072   23.7338 C   0  0  0  0  0  0  0  0  0  0  0  0
  -31.0472  -19.9826   19.7504 C   0  0  0  0  0  0  0  0  0  0  0  0
  -20.1773  -34.0632   16.0386 C   0  0  0  0  0  0  0  0  0  0  0  0
  -22.0945  -32.0636   16.3072 C   0  0  0  0  0  0  0  0  0  0  0  0
  -24.8819  -27.7664   19.6644 C   0  0  0  0  0  0  0  0  0  0  0  0
  -30.7381  -18.6444   19.5075 C   0  0  0  0  0  0  0  0  0  0  0  0
  -23.5633   -8.6251   22.7813 C   0  0  0  0  0  0  0  0  0  0  0  0
  -24.2527  -10.0190   24.6303 C   0  0  0  0  0  0  0  0  0  0  0  0
  -26.0519  -27.0343   19.4670 C   0  0  0  0  0  0  0  0  0  0  0  0
  -20.9181   -8.0301   24.8016 C   0  0  0  0  0  0  0  0  0  0  0  0
  -19.6816   -7.4234   24.5808 C   0  0  0  0  0  0  0  0  0  0  0  0
  -27.2654  -28.6204   20.8200 C   0  0  0  0  0  0  0  0  0  0  0  0
  -28.3957  -19.1219   19.8572 C   0  0  0  0  0  0  0  0  0  0  0  0
  -20.7715   -5.2770   24.3751 C   0  0  0  0  0  0  0  0  0  0  0  0
  -24.5177  -10.8044   22.3610 C   0  0  0  0  0  0  0  0  0  0  0  0
  -30.0306  -20.8906   20.0467 C   0  0  0  0  0  0  0  0  0  0  0  0
  -24.1620  -12.8841   20.9271 C   0  0  0  0  0  0  0  0  0  0  0  0
  -21.2522  -34.2548   16.9209 C   0  0  0  0  0  0  0  0  0  0  0  0
  -24.8971  -28.9389   20.4334 C   0  0  0  0  0  0  0  0  0  0  0  0
  -22.2285  -33.2486   17.0504 C   0  0  0  0  0  0  0  0  0  0  0  0
  -26.0938  -29.3642   21.0278 C   0  0  0  0  0  0  0  0  0  0  0  0
  -29.4124  -18.2140   19.5608 C   0  0  0  0  0  0  0  0  0  0  0  0
  -23.7047   -8.8279   24.1540 C   0  0  0  0  0  0  0  0  0  0  0  0
  -27.2445  -27.4629   20.0424 C   0  0  0  0  0  0  0  0  0  0  0  0
  -22.0813   -7.2602   24.8091 C   0  0  0  0  0  0  0  0  0  0  0  0
  -19.6083   -6.0469   24.3676 C   0  0  0  0  0  0  0  0  0  0  0  0
  -28.7049  -20.4602   20.1001 C   0  0  0  0  0  0  0  0  0  0  0  0
  -22.0080   -5.8837   24.5959 C   0  0  0  0  0  0  0  0  0  0  0  0
  -24.9383  -11.8255   21.4354 C   0  0  0  0  0  0  0  0  0  0  0  0
  -25.0153  -13.5670   20.0952 C   0  0  0  0  0  0  0  0  0  0  0  0
  -30.3648  -22.3140   20.3074 C   0  0  0  0  0  0  0  0  0  0  0  0
  -22.7920  -13.2202   21.1840 C   0  0  0  0  0  0  0  0  0  0  0  0
  -24.2758  -32.0037   19.8632 C   0  0  0  0  0  0  0  0  0  0  0  0
  -24.6968  -32.2825   23.0674 C   0  0  0  0  0  0  0  0  0  0  0  0
  -29.4887  -24.6169   20.1511 C   0  0  0  0  0  0  0  0  0  0  0  0
  -26.0814  -31.0363   25.9269 C   0  0  0  0  0  0  0  0  0  0  0  0
  -29.9872  -15.8247   19.0064 C   0  0  0  0  0  0  0  0  0  0  0  0
  -21.3636  -35.5675   17.6550 C   0  0  0  0  0  0  0  0  0  0  0  0
  -23.6211  -29.7027   20.6589 C   0  0  0  0  0  0  0  0  0  0  0  0
  -26.1593  -30.6051   21.8788 C   0  0  0  0  0  0  0  0  0  0  0  0
  -22.3349  -35.5266   18.8320 C   0  0  0  0  0  0  0  0  0  0  0  0
  -29.6125  -12.3422   18.3668 C   0  0  0  0  0  0  0  0  0  0  0  0
  -23.6401  -34.8508   18.4238 C   0  0  0  0  0  0  0  0  0  0  0  0
  -28.2992  -11.9844   19.0663 C   0  0  0  0  0  0  0  0  0  0  0  0
  -30.4099  -13.3804   19.1542 C   0  0  0  0  0  0  0  0  0  0  0  0
  -28.3542  -14.2399   20.2051 C   0  0  0  0  0  0  0  0  0  0  0  0
  -23.3991  -33.3975   17.9979 C   0  0  1  0  0  0  0  0  0  0  0  0
  -23.8570  -31.1622   21.0354 C   0  0  1  0  0  0  0  0  0  0  0  0
  -27.4857  -13.2457   19.4171 C   0  0  2  0  0  0  0  0  0  0  0  0
  -26.2816  -31.5031   28.3844 C   0  0  0  0  0  0  0  0  0  0  0  0
  -26.7371  -34.4745   22.4824 C   0  0  0  0  0  0  0  0  0  0  0  0
  -27.5698  -34.2296   24.8308 C   0  0  0  0  0  0  0  0  0  0  0  0
  -25.2188  -34.9505   24.4118 C   0  0  0  0  0  0  0  0  0  0  0  0
  -24.7442  -28.4933   26.6369 C   0  0  0  0  0  0  0  0  0  0  0  0
  -28.2524  -25.3424   19.6632 C   0  0  0  0  0  0  0  0  0  1  0  0
  -25.8759  -32.5492   23.9716 C   0  0  1  0  0  0  0  0  0  0  0  0
  -25.4930  -30.7813   27.3028 C   0  0  2  0  0  0  0  0  0  0  0  0
  -26.3499  -34.0286   23.9066 C   0  0  0  0  0  0  0  0  0  0  0  0
  -26.1886  -11.8311   20.9656 N   0  0  0  0  0  0  0  0  0  0  0  0
  -26.2044  -12.9016   20.1533 N   0  0  0  0  0  0  0  0  0  0  0  0
  -24.8864  -31.3211   22.0646 N   0  0  0  0  0  0  0  0  0  0  0  0
  -29.5765  -14.5487   19.4467 N   0  0  0  0  0  0  0  0  0  0  0  0
  -24.8569  -14.6657   19.3270 N   0  0  0  0  0  0  0  0  0  0  0  0
  -22.0598  -12.4126   22.0649 N   0  0  0  0  0  0  0  0  0  0  0  0
  -29.0986  -16.8544   19.3141 N   0  0  0  0  0  0  0  0  0  0  0  0
  -29.3818  -23.2385   19.9587 N   0  0  0  0  0  0  0  0  0  0  0  0
  -23.2210  -32.5532   19.1597 N   0  0  0  0  0  0  0  0  0  0  0  0
  -25.4771  -32.1075   25.3036 N   0  0  0  0  0  0  0  0  0  0  0  0
  -25.5030  -29.3226   27.6082 N   0  3  0  0  0  0  0  0  0  0  0  0
  -31.4438  -22.5897   20.8250 O   0  0  0  0  0  0  0  0  0  0  0  0
  -22.2291  -14.1979   20.6356 O   0  0  0  0  0  0  0  0  0  0  0  0
  -25.4677  -32.1451   19.6161 O   0  0  0  0  0  0  0  0  0  0  0  0
  -23.6439  -32.8991   23.2489 O   0  0  0  0  0  0  0  0  0  0  0  0
  -30.4489  -25.1997   20.6470 O   0  0  0  0  0  0  0  0  0  0  0  0
  -26.9891  -30.3559   25.4540 O   0  0  0  0  0  0  0  0  0  0  0  0
  -31.0358  -15.9877   18.3772 O   0  0  0  0  0  0  0  0  0  0  0  0
  -23.3080   -7.8639   25.0291 O   0  0  0  0  0  0  0  0  0  0  0  0
  -28.3880  -26.7505   19.8508 O   0  0  0  0  0  0  0  0  0  1  0  0
  -18.4207   -5.4642   24.1572 F   0  0  0  0  0  0  0  0  0  0  0  0
  -27.7196  -21.3239   20.3844 F   0  0  0  0  0  0  0  0  0  0  0  0
  -23.1219   -5.1388   24.6031 F   0  0  0  0  0  0  0  0  0  0  0  0
  1  2  1  0  0  0  0
  1  6  2  0  0  0  0
  2  7  2  0  0  0  0
  3 10  2  0  0  0  0
  3 18  1  0  0  0  0
  4 11  1  0  0  0  0
  4 18  2  0  0  0  0
  5  9  2  0  0  0  0
  5 19  1  0  0  0  0
  6 21  1  0  0  0  0
  7 23  1  0  0  0  0
  8 12  2  0  0  0  0
  8 22  1  0  0  0  0
  9 25  1  0  0  0  0
 10 26  1  0  0  0  0
 11 26  2  0  0  0  0
 12 27  1  0  0  0  0
 13 14  2  0  0  0  0
 13 28  1  0  0  0  0
 14 29  1  0  0  0  0
 15 24  1  0  0  0  0
 15 27  2  0  0  0  0
 16 25  2  0  0  0  0
 16 30  1  0  0  0  0
 17 29  2  0  0  0  0
 17 31  1  0  0  0  0
 18 32  1  0  0  0  0
 19 30  2  0  0  0  0
 19 34  1  0  0  0  0
 20 32  1  0  0  0  0
 20 33  2  0  0  0  0
 20 35  1  0  0  0  0
 21 23  2  0  0  0  0
 21 41  1  0  0  0  0
 22 24  2  0  0  0  0
 22 42  1  0  0  0  0
 23 50  1  0  0  0  0
 24 43  1  0  0  0  0
 25 68  1  0  0  0  0
 26 80  1  0  0  0  0
 27 81  1  0  0  0  0
 28 31  2  0  0  0  0
 28 80  1  0  0  0  0
 29 82  1  0  0  0  0
 30 83  1  0  0  0  0
 31 84  1  0  0  0  0
 32 62  2  0  0  0  0
 33 63  1  0  0  0  0
 33 66  1  0  0  0  0
 34 69  1  0  0  0  0
 34 73  2  0  0  0  0
 35 67  1  0  0  0  0
 35 74  2  0  0  0  0
 36 51  1  0  0  0  0
 36 70  1  0  0  0  0
 36 75  2  0  0  0  0
 37 59  1  0  0  0  0
 37 64  1  0  0  0  0
 37 76  2  0  0  0  0
 38 58  1  0  0  0  0
 38 69  1  0  0  0  0
 38 77  2  0  0  0  0
 39 60  1  0  0  0  0
 39 71  1  0  0  0  0
 39 78  2  0  0  0  0
 40 65  1  0  0  0  0
 40 68  1  0  0  0  0
 40 79  2  0  0  0  0
 41 44  1  0  0  0  0
 42 51  1  0  0  0  0
 43 64  1  0  0  0  0
 44 46  1  0  0  0  0
 45 47  1  0  0  0  0
 45 48  1  0  0  0  0
 46 50  1  0  0  0  0
 47 52  1  0  0  0  0
 48 65  1  0  0  0  0
 49 52  1  0  0  0  0
 49 65  1  0  0  0  0
 50 70  1  0  0  0  0
 51 64  1  0  0  0  0
 52 63  1  0  0  0  0
 53 60  1  0  0  0  0
 54 61  1  0  0  0  0
 55 61  1  0  0  0  0
 56 61  1  0  0  0  0
 57 72  1  0  0  0  0
 58 81  1  0  0  0  0
 59 61  1  0  0  0  0
 59 71  1  0  0  0  0
 60 72  1  0  0  0  0
 62 63  1  0  0  0  0
M  CHG  1  72   1
M  ISO  4  40 100  58 101  68 100  81 101
M  END
> <Batch ID>
0070

> <Smiles>
CNC(C)C(=O)NC(C(=O)N1Cc2cc([101O:1][101CH2:1]C(=O)NC(=O)c3ccc([100NH:0][100C:0](=O)N4CCCC(n5nc(-c6ccc(Oc7ccc(F)cc7F)cc6)c(C(N)=O)c5N)C4)cc3F)ccc2CC1C(=O)NC1CCCc2ccccc21)C(C)(C)C

> <Shape>
0.338

> <Color>
0.165

> <Negative vol penalty>
0.000

$$$$

  -OEChem-04042323323D

 86 95  0     1  0  0  0  0  0999 V2000
  -27.6261  -32.0734   27.6415 C   0  0  0  0  0  0  0  0  0  0  0  0
  -27.8381  -31.0712   26.7003 C   0  0  0  0  0  0  0  0  0  0  0  0
  -22.7600  -12.7646   22.8231 C   0  0  0  0  0  0  0  0  0  0  0  0
  -24.3663  -11.1165   23.5585 C   0  0  0  0  0  0  0  0  0  0  0  0
  -26.3276  -32.4837   27.9407 C   0  0  0  0  0  0  0  0  0  0  0  0
  -26.7517  -30.4778   26.0585 C   0  0  0  0  0  0  0  0  0  0  0  0
  -27.4804  -29.9706   21.0728 C   0  0  0  0  0  0  0  0  0  0  0  0
  -30.6550  -19.8030   20.4529 C   0  0  0  0  0  0  0  0  0  0  0  0
  -30.4695  -18.4455   20.1916 C   0  0  0  0  0  0  0  0  0  0  0  0
  -22.0861  -12.6503   24.0389 C   0  0  0  0  0  0  0  0  0  0  0  0
  -23.6923  -11.0022   24.7744 C   0  0  0  0  0  0  0  0  0  0  0  0
  -28.2939  -28.9195   20.6519 C   0  0  0  0  0  0  0  0  0  0  0  0
  -20.9144   -9.4744   25.9490 C   0  0  0  0  0  0  0  0  0  0  0  0
  -20.6829   -8.1909   26.4435 C   0  0  0  0  0  0  0  0  0  0  0  0
  -26.3313  -27.6204   20.1230 C   0  0  0  0  0  0  0  0  0  0  0  0
  -28.0897  -18.8099   19.9883 C   0  0  0  0  0  0  0  0  0  0  0  0
  -21.9557   -8.7252   28.4264 C   0  0  0  0  0  0  0  0  0  0  0  0
  -23.9001  -11.9976   22.5828 C   0  0  0  0  0  0  0  0  0  0  0  0
  -24.0806  -11.8604   20.0419 C   0  0  0  0  0  0  0  0  0  0  0  0
  -25.2252  -31.9018   27.2952 C   0  0  0  0  0  0  0  0  0  0  0  0
  -26.0839  -29.8502   21.0321 C   0  0  0  0  0  0  0  0  0  0  0  0
  -25.4371  -30.8797   26.3503 C   0  0  0  0  0  0  0  0  0  0  0  0
  -25.5023  -28.6724   20.5415 C   0  0  0  0  0  0  0  0  0  0  0  0
  -29.5579  -20.6640   20.4820 C   0  0  0  0  0  0  0  0  0  0  0  0
  -29.1869  -17.9489   19.9592 C   0  0  0  0  0  0  0  0  0  0  0  0
  -22.5522  -11.7691   25.0146 C   0  0  0  0  0  0  0  0  0  0  0  0
  -27.7194  -27.7431   20.1796 C   0  0  0  0  0  0  0  0  0  0  0  0
  -21.6666  -10.3834   26.6932 C   0  0  0  0  0  0  0  0  0  0  0  0
  -21.2035   -7.8163   27.6822 C   0  0  0  0  0  0  0  0  0  0  0  0
  -28.2753  -20.1674   20.2497 C   0  0  0  0  0  0  0  0  0  0  0  0
  -22.1872  -10.0088   27.9318 C   0  0  0  0  0  0  0  0  0  0  0  0
  -24.5964  -12.1148   21.3268 C   0  0  0  0  0  0  0  0  0  0  0  0
  -25.1302  -12.1162   19.1937 C   0  0  0  0  0  0  0  0  0  0  0  0
  -30.8127  -22.5110   21.5664 C   0  0  0  0  0  0  0  0  0  0  0  0
  -22.7699  -11.4312   19.6501 C   0  0  0  0  0  0  0  0  0  0  0  0
  -23.7636  -29.9039   23.2039 C   0  0  0  0  0  0  0  0  0  0  0  0
  -21.8461  -29.7941   20.5898 C   0  0  0  0  0  0  0  0  0  0  0  0
  -21.7952  -28.0480   17.4329 C   0  0  0  0  0  0  0  0  0  0  0  0
  -29.9793  -15.5806   19.6289 C   0  0  0  0  0  0  0  0  0  0  0  0
  -23.8377  -32.3453   27.6863 C   0  0  0  0  0  0  0  0  0  0  0  0
  -25.2204  -31.0033   21.4647 C   0  0  0  0  0  0  0  0  0  0  0  0
  -24.0083  -28.5006   20.4585 C   0  0  0  0  0  0  0  0  0  0  0  0
  -31.0952  -23.9937   21.5666 C   0  0  0  0  0  0  0  0  0  0  0  0
  -22.7607  -31.9272   26.6885 C   0  0  0  0  0  0  0  0  0  0  0  0
  -29.9164  -12.0699   19.0384 C   0  0  0  0  0  0  0  0  0  0  0  0
  -22.9333  -30.4625   26.2992 C   0  0  0  0  0  0  0  0  0  0  0  0
  -28.4962  -11.6609   19.4355 C   0  0  0  0  0  0  0  0  0  0  0  0
  -30.4670  -13.1652   19.9500 C   0  0  0  0  0  0  0  0  0  0  0  0
  -28.1900  -13.9412   20.4812 C   0  0  0  0  0  0  0  0  0  0  0  0
  -28.6945  -22.9992   20.3145 C   0  0  0  0  0  0  0  0  0  0  0  0
  -24.2856  -30.2292   25.6148 C   0  0  1  0  0  0  0  0  0  0  0  0
  -23.8102  -30.5777   21.8617 C   0  0  1  0  0  0  0  0  0  0  0  0
  -27.5685  -12.8862   19.5515 C   0  0  2  0  0  0  0  0  0  0  0  0
  -29.1574  -24.4362   20.1260 C   0  0  1  0  0  0  0  0  0  0  0  0
  -20.7776  -28.6888   15.2303 C   0  0  0  0  0  0  0  0  0  0  0  0
  -19.4480  -28.1732   21.5550 C   0  0  0  0  0  0  0  0  0  0  0  0
  -19.1581  -27.3378   19.2127 C   0  0  0  0  0  0  0  0  0  0  0  0
  -18.9465  -29.7749   19.7010 C   0  0  0  0  0  0  0  0  0  0  0  0
  -24.3738  -27.7268   16.0164 C   0  0  0  0  0  0  0  0  0  0  0  0
  -27.9931  -25.3946   19.9232 C   0  0  0  0  0  0  0  0  0  1  0  0
  -21.2305  -28.6926   19.7610 C   0  0  1  0  0  0  0  0  0  0  0  0
  -22.0511  -28.6442   16.0604 C   0  0  2  0  0  0  0  0  0  0  0  0
  -19.7204  -28.4909   20.0712 C   0  0  0  0  0  0  0  0  0  0  0  0
  -25.8744  -12.5024   21.3020 N   0  0  0  0  0  0  0  0  0  0  0  0
  -26.1704  -12.4933   19.9911 N   0  0  0  0  0  0  0  0  0  0  0  0
  -29.7534  -22.0719   20.7535 N   0  0  0  0  0  0  0  0  0  0  0  0
  -23.2065  -29.6541   20.8991 N   0  0  0  0  0  0  0  0  0  0  0  0
  -29.5374  -14.2953   20.0079 N   0  0  0  0  0  0  0  0  0  0  0  0
  -25.2556  -12.0531   17.8511 N   0  0  0  0  0  0  0  0  0  0  0  0
  -22.5174  -10.0557   19.5564 N   0  0  0  0  0  0  0  0  0  0  0  0
  -28.9987  -16.5699   19.6937 N   0  0  0  0  0  0  0  0  0  0  0  0
  -24.2416  -30.6820   24.2410 N   0  0  0  0  0  0  0  0  0  0  0  0
  -21.5158  -29.0215   18.3686 N   0  0  0  0  0  0  0  0  0  0  0  0
  -29.8881  -24.8261   21.3591 N   0  3  0  0  0  0  0  0  0  0  0  0
  -23.0635  -27.8350   15.3248 N   0  3  0  0  0  0  0  0  0  0  0  0
  -31.5569  -21.7832   22.2295 O   0  0  0  0  0  0  0  0  0  0  0  0
  -21.8546  -12.2435   19.3748 O   0  0  0  0  0  0  0  0  0  0  0  0
  -23.3249  -28.7631   23.2924 O   0  0  0  0  0  0  0  0  0  0  0  0
  -21.1475  -30.7472   20.9436 O   0  0  0  0  0  0  0  0  0  0  0  0
  -21.8352  -26.8394   17.6521 O   0  0  0  0  0  0  0  0  0  0  0  0
  -31.1348  -15.7830   19.2471 O   0  0  0  0  0  0  0  0  0  0  0  0
  -21.8950  -11.6575   26.2012 O   0  0  0  0  0  0  0  0  0  0  0  0
  -28.5111  -26.7153   19.7688 O   0  0  0  0  0  0  0  0  0  1  0  0
  -20.9797   -6.5842   28.1576 F   0  0  0  0  0  0  0  0  0  0  0  0
  -27.2133  -20.9856   20.2758 F   0  0  0  0  0  0  0  0  0  0  0  0
  -22.9096  -10.8780   28.6518 F   0  0  0  0  0  0  0  0  0  0  0  0
  1  2  1  0  0  0  0
  1  5  2  0  0  0  0
  2  6  2  0  0  0  0
  3 10  2  0  0  0  0
  3 18  1  0  0  0  0
  4 11  1  0  0  0  0
  4 18  2  0  0  0  0
  5 20  1  0  0  0  0
  6 22  1  0  0  0  0
  7 12  2  0  0  0  0
  7 21  1  0  0  0  0
  8  9  2  0  0  0  0
  8 24  1  0  0  0  0
  9 25  1  0  0  0  0
 10 26  1  0  0  0  0
 11 26  2  0  0  0  0
 12 27  1  0  0  0  0
 13 14  2  0  0  0  0
 13 28  1  0  0  0  0
 14 29  1  0  0  0  0
 15 23  1  0  0  0  0
 15 27  2  0  0  0  0
 16 25  2  0  0  0  0
 16 30  1  0  0  0  0
 17 29  2  0  0  0  0
 17 31  1  0  0  0  0
 18 32  1  0  0  0  0
 19 32  1  0  0  0  0
 19 33  2  0  0  0  0
 19 35  1  0  0  0  0
 20 22  2  0  0  0  0
 20 40  1  0  0  0  0
 21 23  2  0  0  0  0
 21 41  1  0  0  0  0
 22 51  1  0  0  0  0
 23 42  1  0  0  0  0
 24 30  2  0  0  0  0
 24 66  1  0  0  0  0
 25 71  1  0  0  0  0
 26 82  1  0  0  0  0
 27 83  1  0  0  0  0
 28 31  2  0  0  0  0
 28 82  1  0  0  0  0
 29 84  1  0  0  0  0
 30 85  1  0  0  0  0
 31 86  1  0  0  0  0
 32 64  2  0  0  0  0
 33 65  1  0  0  0  0
 33 69  1  0  0  0  0
 34 43  1  0  0  0  0
 34 66  1  0  0  0  0
 34 76  2  0  0  0  0
 35 70  1  0  0  0  0
 35 77  2  0  0  0  0
 36 52  1  0  0  0  0
 36 72  1  0  0  0  0
 36 78  2  0  0  0  0
 37 61  1  0  0  0  0
 37 67  1  0  0  0  0
 37 79  2  0  0  0  0
 38 62  1  0  0  0  0
 38 73  1  0  0  0  0
 38 80  2  0  0  0  0
 39 68  1  0  0  0  0
 39 71  1  0  0  0  0
 39 81  2  0  0  0  0
 40 44  1  0  0  0  0
 41 52  1  0  0  0  0
 42 67  1  0  0  0  0
 43 74  1  0  0  0  0
 44 46  1  0  0  0  0
 45 47  1  0  0  0  0
 45 48  1  0  0  0  0
 46 51  1  0  0  0  0
 47 53  1  0  0  0  0
 48 68  1  0  0  0  0
 49 53  1  0  0  0  0
 49 68  1  0  0  0  0
 50 54  1  0  0  0  0
 50 66  1  0  0  0  0
 51 72  1  0  0  0  0
 52 67  1  0  0  0  0
 53 65  1  0  0  0  0
 54 60  1  0  0  0  0
 54 74  1  0  0  0  0
 55 62  1  0  0  0  0
 56 63  1  0  0  0  0
 57 63  1  0  0  0  0
 58 63  1  0  0  0  0
 59 75  1  0  0  0  0
 60 83  1  0  0  0  0
 61 63  1  0  0  0  0
 61 73  1  0  0  0  0
 62 75  1  0  0  0  0
 64 65  1  0  0  0  0
M  CHG  2  74   1  75   1
M  ISO  4  39 100  60 101  71 100  83 101
M  END
> <Batch ID>
0070

> <Smiles>
CNC(C)C(=O)NC(C(=O)N1Cc2cc([101O:1][101CH2:1]C3CN(c4ccc([100NH:0][100C:0](=O)N5CCCC(n6nc(-c7ccc(Oc8ccc(F)cc8F)cc7)c(C(N)=O)c6N)C5)cc4F)C(=O)CN3)ccc2CC1C(=O)NC1CCCc2ccccc21)C(C)(C)C

> <Shape>
0.274

> <Color>
0.097

> <Negative vol penalty>
0.000

$$$$

  -OEChem-04042323323D

 83 91  0     1  0  0  0  0  0999 V2000
  -19.0425  -24.3629   23.2836 C   0  0  0  0  0  0  0  0  0  0  0  0
  -20.3576  -24.4747   22.8438 C   0  0  0  0  0  0  0  0  0  0  0  0
  -23.9367   -9.3372   21.7556 C   0  0  0  0  0  0  0  0  0  0  0  0
  -24.1270  -11.0395   23.4594 C   0  0  0  0  0  0  0  0  0  0  0  0
  -28.1838  -20.2410   19.2401 C   0  0  0  0  0  0  0  0  0  0  0  0
  -30.5747  -19.9547   19.4370 C   0  0  0  0  0  0  0  0  0  0  0  0
  -18.2205  -25.4886   23.3134 C   0  0  0  0  0  0  0  0  0  0  0  0
  -20.8511  -25.7123   22.4324 C   0  0  0  0  0  0  0  0  0  0  0  0
  -25.4622  -26.6796   24.2891 C   0  0  0  0  0  0  0  0  0  0  0  0
  -28.0250  -18.8578   19.1563 C   0  0  0  0  0  0  0  0  0  0  0  0
  -30.4159  -18.5715   19.3532 C   0  0  0  0  0  0  0  0  0  0  0  0
  -23.4207   -8.4497   22.6998 C   0  0  0  0  0  0  0  0  0  0  0  0
  -23.6110  -10.1520   24.4037 C   0  0  0  0  0  0  0  0  0  0  0  0
  -26.5423  -26.0514   23.6706 C   0  0  0  0  0  0  0  0  0  0  0  0
  -20.4589   -7.8851   24.2301 C   0  0  0  0  0  0  0  0  0  0  0  0
  -19.3406   -7.1333   23.8699 C   0  0  0  0  0  0  0  0  0  0  0  0
  -27.0136  -28.0776   22.4494 C   0  0  0  0  0  0  0  0  0  0  0  0
  -20.5942   -5.0986   24.2246 C   0  0  0  0  0  0  0  0  0  0  0  0
  -24.2900  -10.6321   22.1354 C   0  0  0  0  0  0  0  0  0  0  0  0
  -29.4586  -20.7895   19.3804 C   0  0  0  0  0  0  0  0  0  0  0  0
  -24.0999  -12.4430   20.3487 C   0  0  0  0  0  0  0  0  0  0  0  0
  -18.7071  -26.7425   22.9113 C   0  0  0  0  0  0  0  0  0  0  0  0
  -25.1425  -28.0104   23.9837 C   0  0  0  0  0  0  0  0  0  0  0  0
  -20.0344  -26.8557   22.4556 C   0  0  0  0  0  0  0  0  0  0  0  0
  -25.9305  -28.7212   23.0673 C   0  0  0  0  0  0  0  0  0  0  0  0
  -29.1411  -18.0230   19.2129 C   0  0  0  0  0  0  0  0  0  0  0  0
  -23.2578   -8.8571   24.0239 C   0  0  0  0  0  0  0  0  0  0  0  0
  -27.3164  -26.7495   22.7484 C   0  0  0  0  0  0  0  0  0  0  0  0
  -21.6449   -7.2436   24.5874 C   0  0  0  0  0  0  0  0  0  0  0  0
  -19.4082   -5.7400   23.8671 C   0  0  0  0  0  0  0  0  0  0  0  0
  -21.7125   -5.8504   24.5847 C   0  0  0  0  0  0  0  0  0  0  0  0
  -24.8236  -11.5492   21.1605 C   0  0  0  0  0  0  0  0  0  0  0  0
  -25.0592  -13.0833   19.6030 C   0  0  0  0  0  0  0  0  0  0  0  0
  -29.6269  -22.2546   19.4690 C   0  0  0  0  0  0  0  0  0  0  0  0
  -22.6867  -12.6738   20.2752 C   0  0  0  0  0  0  0  0  0  0  0  0
  -22.6242  -29.4782   22.7160 C   0  0  0  0  0  0  0  0  0  0  0  0
  -24.2944  -32.1547   23.4707 C   0  0  0  0  0  0  0  0  0  0  0  0
  -29.0609  -24.3221   20.7242 C   0  0  0  0  0  0  0  0  0  0  0  0
  -27.3206  -33.5980   24.1078 C   0  0  0  0  0  0  0  0  0  0  0  0
  -29.9819  -15.6487   19.1675 C   0  0  0  0  0  0  0  0  0  0  0  0
  -17.7668  -27.9217   22.9163 C   0  0  0  0  0  0  0  0  0  0  0  0
  -23.9905  -28.6820   24.6795 C   0  0  0  0  0  0  0  0  0  0  0  0
  -25.6416  -30.1580   22.7199 C   0  0  0  0  0  0  0  0  0  0  0  0
  -18.4784  -29.2686   22.8181 C   0  0  0  0  0  0  0  0  0  0  0  0
  -29.9892  -12.0910   19.0265 C   0  0  0  0  0  0  0  0  0  0  0  0
  -19.5370  -29.2342   21.7203 C   0  0  0  0  0  0  0  0  0  0  0  0
  -28.5864  -11.7064   19.5023 C   0  0  0  0  0  0  0  0  0  0  0  0
  -30.5312  -13.3040   19.7805 C   0  0  0  0  0  0  0  0  0  0  0  0
  -28.2471  -14.0940   20.2580 C   0  0  0  0  0  0  0  0  0  0  0  0
  -20.6137  -28.1857   22.0247 C   0  0  1  0  0  0  0  0  0  0  0  0
  -23.4438  -29.8802   23.9095 C   0  0  1  0  0  0  0  0  0  0  0  0
  -27.6329  -12.9172   19.4824 C   0  0  2  0  0  0  0  0  0  0  0  0
  -28.3719  -35.8098   24.6554 C   0  0  0  0  0  0  0  0  0  0  0  0
  -23.9686  -33.0263   20.5648 C   0  0  0  0  0  0  0  0  0  0  0  0
  -25.7931  -34.7002   20.9352 C   0  0  0  0  0  0  0  0  0  0  0  0
  -23.6744  -34.8575   22.2424 C   0  0  0  0  0  0  0  0  0  0  0  0
  -28.3615  -32.5950   26.6903 C   0  0  0  0  0  0  0  0  0  0  0  0
  -28.2780  -24.7284   21.9443 C   0  0  0  0  0  0  0  0  0  1  0  0
  -25.3191  -33.0099   22.7652 C   0  0  1  0  0  0  0  0  0  0  0  0
  -27.7801  -34.5266   25.2173 C   0  0  2  0  0  0  0  0  0  0  0  0
  -24.6933  -33.8708   21.6318 C   0  0  0  0  0  0  0  0  0  0  0  0
  -26.1411  -11.6130   20.9504 N   0  0  0  0  0  0  0  0  0  0  0  0
  -26.2528  -12.5545   19.9979 N   0  0  0  0  0  0  0  0  0  0  0  0
  -24.5007  -30.7687   23.4220 N   0  0  0  0  0  0  0  0  0  0  0  0
  -29.5768  -14.4130   19.7150 N   0  0  0  0  0  0  0  0  0  0  0  0
  -24.9899  -14.0414   18.6545 N   0  0  0  0  0  0  0  0  0  0  0  0
  -21.8438  -11.9296   21.1118 N   0  0  0  0  0  0  0  0  0  0  0  0
  -28.9800  -16.6178   19.1278 N   0  0  0  0  0  0  0  0  0  0  0  0
  -29.0241  -22.9000   20.4771 N   0  0  0  0  0  0  0  0  0  0  0  0
  -21.5361  -28.6835   23.0226 N   0  0  0  0  0  0  0  0  0  0  0  0
  -25.9887  -33.7851   23.8040 N   0  0  0  0  0  0  0  0  0  0  0  0
  -30.3732  -22.8505   18.5394 N   0  3  0  0  0  0  0  0  0  0  0  0
  -28.8157  -33.8591   26.0558 N   0  3  0  0  0  0  0  0  0  0  0  0
  -22.1850  -13.5034   19.4792 O   0  0  0  0  0  0  0  0  0  0  0  0
  -22.9537  -29.8620   21.5999 O   0  0  0  0  0  0  0  0  0  0  0  0
  -23.3498  -32.6968   24.0498 O   0  0  0  0  0  0  0  0  0  0  0  0
  -29.6762  -25.0875   19.9960 O   0  0  0  0  0  0  0  0  0  0  0  0
  -28.0693  -32.7902   23.5624 O   0  0  0  0  0  0  0  0  0  0  0  0
  -31.1251  -15.8249   18.7386 O   0  0  0  0  0  0  0  0  0  0  0  0
  -22.7541   -7.9914   24.9455 O   0  0  0  0  0  0  0  0  0  0  0  0
  -28.3708  -26.1385   22.1428 O   0  0  0  0  0  0  0  0  0  1  0  0
  -18.3337   -5.0182   23.5227 F   0  0  0  0  0  0  0  0  0  0  0  0
  -22.8488   -5.2286   24.9282 F   0  0  0  0  0  0  0  0  0  0  0  0
  1  2  1  0  0  0  0
  1  7  2  0  0  0  0
  2  8  2  0  0  0  0
  3 12  2  0  0  0  0
  3 19  1  0  0  0  0
  4 13  1  0  0  0  0
  4 19  2  0  0  0  0
  5 10  2  0  0  0  0
  5 20  1  0  0  0  0
  6 11  1  0  0  0  0
  6 20  2  0  0  0  0
  7 22  1  0  0  0  0
  8 24  1  0  0  0  0
  9 14  2  0  0  0  0
  9 23  1  0  0  0  0
 10 26  1  0  0  0  0
 11 26  2  0  0  0  0
 12 27  1  0  0  0  0
 13 27  2  0  0  0  0
 14 28  1  0  0  0  0
 15 16  2  0  0  0  0
 15 29  1  0  0  0  0
 16 30  1  0  0  0  0
 17 25  1  0  0  0  0
 17 28  2  0  0  0  0
 18 30  2  0  0  0  0
 18 31  1  0  0  0  0
 19 32  1  0  0  0  0
 20 34  1  0  0  0  0
 21 32  1  0  0  0  0
 21 33  2  0  0  0  0
 21 35  1  0  0  0  0
 22 24  2  0  0  0  0
 22 41  1  0  0  0  0
 23 25  2  0  0  0  0
 23 42  1  0  0  0  0
 24 50  1  0  0  0  0
 25 43  1  0  0  0  0
 26 68  1  0  0  0  0
 27 80  1  0  0  0  0
 28 81  1  0  0  0  0
 29 31  2  0  0  0  0
 29 80  1  0  0  0  0
 30 82  1  0  0  0  0
 31 83  1  0  0  0  0
 32 62  2  0  0  0  0
 33 63  1  0  0  0  0
 33 66  1  0  0  0  0
 34 69  1  0  0  0  0
 34 72  2  0  0  0  0
 35 67  1  0  0  0  0
 35 74  2  0  0  0  0
 36 51  1  0  0  0  0
 36 70  1  0  0  0  0
 36 75  2  0  0  0  0
 37 59  1  0  0  0  0
 37 64  1  0  0  0  0
 37 76  2  0  0  0  0
 38 58  1  0  0  0  0
 38 69  1  0  0  0  0
 38 77  2  0  0  0  0
 39 60  1  0  0  0  0
 39 71  1  0  0  0  0
 39 78  2  0  0  0  0
 40 65  1  0  0  0  0
 40 68  1  0  0  0  0
 40 79  2  0  0  0  0
 41 44  1  0  0  0  0
 42 51  1  0  0  0  0
 43 64  1  0  0  0  0
 44 46  1  0  0  0  0
 45 47  1  0  0  0  0
 45 48  1  0  0  0  0
 46 50  1  0  0  0  0
 47 52  1  0  0  0  0
 48 65  1  0  0  0  0
 49 52  1  0  0  0  0
 49 65  1  0  0  0  0
 50 70  1  0  0  0  0
 51 64  1  0  0  0  0
 52 63  1  0  0  0  0
 53 60  1  0  0  0  0
 54 61  1  0  0  0  0
 55 61  1  0  0  0  0
 56 61  1  0  0  0  0
 57 73  1  0  0  0  0
 58 81  1  0  0  0  0
 59 61  1  0  0  0  0
 59 71  1  0  0  0  0
 60 73  1  0  0  0  0
 62 63  1  0  0  0  0
M  CHG  2  72   1  73   1
M  ISO  4  40 100  58 101  68 100  81 101
M  END
> <Batch ID>
0070

> <Smiles>
CNC(C)C(=O)NC(C(=O)N1Cc2cc([101O:1][101CH2:1]C(=O)NC(=N)c3ccc([100NH:0][100C:0](=O)N4CCCC(n5nc(-c6ccc(Oc7ccc(F)cc7F)cc6)c(C(N)=O)c5N)C4)cc3)ccc2CC1C(=O)NC1CCCc2ccccc21)C(C)(C)C

> <Shape>
0.321

> <Color>
0.113

> <Negative vol penalty>
0.000

$$$$

  -OEChem-04042323323D

 89 98  0     1  0  0  0  0  0999 V2000
  -17.3903  -22.7815   23.8774 C   0  0  0  0  0  0  0  0  0  0  0  0
  -18.0174  -22.6150   22.6469 C   0  0  0  0  0  0  0  0  0  0  0  0
  -32.8012  -27.3456   24.1862 C   0  0  0  0  0  0  0  0  0  0  0  0
  -26.6836  -16.7497   23.0797 C   0  0  0  0  0  0  0  0  0  0  0  0
  -27.5127  -17.7443   21.0400 C   0  0  0  0  0  0  0  0  0  0  0  0
  -17.4884  -23.9991   24.5495 C   0  0  0  0  0  0  0  0  0  0  0  0
  -18.7423  -23.6664   22.0871 C   0  0  0  0  0  0  0  0  0  0  0  0
  -25.7313  -22.9251   20.5074 C   0  0  0  0  0  0  0  0  0  0  0  0
  -33.7552  -27.0412   23.2152 C   0  0  0  0  0  0  0  0  0  0  0  0
  -31.5766  -26.6777   24.1944 C   0  0  0  0  0  0  0  0  0  0  0  0
  -25.9006  -15.8699   22.3325 C   0  0  0  0  0  0  0  0  0  0  0  0
  -26.7297  -16.8643   20.2927 C   0  0  0  0  0  0  0  0  0  0  0  0
  -27.0172  -22.7938   19.9826 C   0  0  0  0  0  0  0  0  0  0  0  0
  -26.3448  -13.0082   20.5871 C   0  0  0  0  0  0  0  0  0  0  0  0
  -26.3406  -11.6650   20.9631 C   0  0  0  0  0  0  0  0  0  0  0  0
  -26.9933  -25.1178   19.3144 C   0  0  0  0  0  0  0  0  0  0  0  0
  -23.9555  -11.7758   21.3325 C   0  0  0  0  0  0  0  0  0  0  0  0
  -27.4896  -17.6870   22.4335 C   0  0  0  0  0  0  0  0  0  0  0  0
  -29.6204  -18.3954   23.6439 C   0  0  0  0  0  0  0  0  0  0  0  0
  -18.2229  -25.0629   24.0022 C   0  0  0  0  0  0  0  0  0  0  0  0
  -25.0768  -24.1587   20.4514 C   0  0  0  0  0  0  0  0  0  0  0  0
  -18.8493  -24.8999   22.7518 C   0  0  0  0  0  0  0  0  0  0  0  0
  -25.7101  -25.2585   19.8496 C   0  0  0  0  0  0  0  0  0  0  0  0
  -33.4846  -26.0689   22.2523 C   0  0  0  0  0  0  0  0  0  0  0  0
  -32.2600  -25.4010   22.2605 C   0  0  0  0  0  0  0  0  0  0  0  0
  -31.3061  -25.7054   23.2316 C   0  0  0  0  0  0  0  0  0  0  0  0
  -25.9237  -15.9271   20.9390 C   0  0  0  0  0  0  0  0  0  0  0  0
  -27.6465  -23.8875   19.3874 C   0  0  0  0  0  0  0  0  0  0  0  0
  -25.1543  -13.7353   20.5839 C   0  0  0  0  0  0  0  0  0  0  0  0
  -25.1460  -11.0488   21.3358 C   0  0  0  0  0  0  0  0  0  0  0  0
  -23.9597  -13.1191   20.9565 C   0  0  0  0  0  0  0  0  0  0  0  0
  -28.2981  -18.5966   23.2048 C   0  0  0  0  0  0  0  0  0  0  0  0
  -29.9329  -19.5436   24.3298 C   0  0  0  0  0  0  0  0  0  0  0  0
  -31.3894  -24.6146   20.0154 C   0  0  0  0  0  0  0  0  0  0  0  0
  -35.5789  -23.6067   22.2508 C   0  0  0  0  0  0  0  0  0  0  0  0
  -35.0026  -24.2855   21.2507 C   0  0  0  0  0  0  0  0  0  0  0  0
  -30.4887  -17.2711   23.4492 C   0  0  0  0  0  0  0  0  0  0  0  0
  -22.0012  -26.1424   21.2771 C   0  0  0  0  0  0  0  0  0  0  0  0
  -24.4092  -27.9611   21.8283 C   0  0  0  0  0  0  0  0  0  0  0  0
  -27.0855  -29.0645   23.0625 C   0  0  0  0  0  0  0  0  0  0  0  0
  -29.0137  -25.2435   24.1687 C   0  0  0  0  0  0  0  0  0  0  0  0
  -18.2613  -26.3758   24.7435 C   0  0  0  0  0  0  0  0  0  0  0  0
  -23.6672  -24.3304   20.9488 C   0  0  0  0  0  0  0  0  0  0  0  0
  -24.9541  -26.5572   19.7808 C   0  0  0  0  0  0  0  0  0  0  0  0
  -19.3603  -27.3175   24.2581 C   0  0  0  0  0  0  0  0  0  0  0  0
  -27.3053  -23.1427   26.4805 C   0  0  0  0  0  0  0  0  0  0  0  0
  -19.3713  -27.3844   22.7342 C   0  0  0  0  0  0  0  0  0  0  0  0
  -27.5155  -21.7359   25.9159 C   0  0  0  0  0  0  0  0  0  0  0  0
  -32.1799  -22.3697   20.1293 C   0  0  0  0  0  0  0  0  0  0  0  0
  -27.1190  -24.1769   25.3717 C   0  0  0  0  0  0  0  0  0  0  0  0
  -32.2508  -23.0000   21.5058 C   0  0  0  0  0  0  0  0  0  0  0  0
  -28.3826  -22.7799   23.7839 C   0  0  0  0  0  0  0  0  0  0  0  0
  -19.6653  -26.0088   22.1237 C   0  0  1  0  0  0  0  0  0  0  0  0
  -31.2031  -23.2549   19.3657 C   0  0  1  0  0  0  0  0  0  0  0  0
  -23.4102  -25.7160   21.5677 C   0  0  1  0  0  0  0  0  0  0  0  0
  -28.6397  -21.7140   24.8616 C   0  0  2  0  0  0  0  0  0  0  0  0
  -29.0095  -30.3095   24.0849 C   0  0  0  0  0  0  0  0  0  0  0  0
  -34.0049  -26.1675   19.8011 C   0  0  0  0  0  0  0  0  0  0  0  0
  -35.8689  -26.5666   21.3929 C   0  0  0  0  0  0  0  0  0  0  0  0
  -23.9345  -29.3621   19.1608 C   0  0  0  0  0  0  0  0  0  0  0  0
  -25.6315  -31.0736   19.8385 C   0  0  0  0  0  0  0  0  0  0  0  0
  -23.5439  -30.7924   21.1747 C   0  0  0  0  0  0  0  0  0  0  0  0
  -26.0605  -28.6296   25.8046 C   0  0  0  0  0  0  0  0  0  0  0  0
  -29.7575  -22.7983   19.5095 C   0  0  0  0  0  0  0  0  0  1  0  0
  -25.3425  -29.0198   21.2977 C   0  0  1  0  0  0  0  0  0  0  0  0
  -27.5586  -29.8846   24.2491 C   0  0  2  0  0  0  0  0  0  0  0  0
  -34.5269  -25.7653   21.2252 C   0  0  0  0  0  0  0  0  0  0  0  0
  -24.6199  -30.0344   20.3671 C   0  0  0  0  0  0  0  0  0  0  0  0
  -27.8045  -19.7795   23.5803 N   0  0  0  0  0  0  0  0  0  0  0  0
  -28.8220  -20.3319   24.2627 N   0  0  0  0  0  0  0  0  0  0  0  0
  -31.9869  -24.4067   21.2734 N   0  0  0  0  0  0  0  0  0  0  0  0
  -24.2612  -26.8033   21.0551 N   0  0  0  0  0  0  0  0  0  0  0  0
  -28.2233  -24.1005   24.4128 N   0  0  0  0  0  0  0  0  0  0  0  0
  -31.0469  -19.9457   24.9778 N   0  0  0  0  0  0  0  0  0  0  0  0
  -30.0085  -16.1745   22.7203 N   0  0  0  0  0  0  0  0  0  0  0  0
  -30.0543  -25.0421   23.2625 N   0  0  0  0  0  0  0  0  0  0  0  0
  -21.0785  -25.7091   22.2101 N   0  0  0  0  0  0  0  0  0  0  0  0
  -25.9776  -29.6254   22.4632 N   0  0  0  0  0  0  0  0  0  0  0  0
  -27.4401  -29.0929   25.5061 N   0  3  0  0  0  0  0  0  0  0  0  0
  -31.0027  -25.6502   19.4920 O   0  0  0  0  0  0  0  0  0  0  0  0
  -31.6499  -17.2331   23.9220 O   0  0  0  0  0  0  0  0  0  0  0  0
  -21.7672  -26.8163   20.2807 O   0  0  0  0  0  0  0  0  0  0  0  0
  -23.8217  -28.1553   22.8963 O   0  0  0  0  0  0  0  0  0  0  0  0
  -27.6451  -28.0317   22.7010 O   0  0  0  0  0  0  0  0  0  0  0  0
  -28.8011  -26.3144   24.7433 O   0  0  0  0  0  0  0  0  0  0  0  0
  -25.1600  -15.0685   20.2096 O   0  0  0  0  0  0  0  0  0  0  0  0
  -28.9037  -23.7535   18.8811 O   0  0  0  0  0  0  0  0  0  1  0  0
  -25.1419   -9.7585   21.6954 F   0  0  0  0  0  0  0  0  0  0  0  0
  -22.8128  -13.8121   20.9543 F   0  0  0  0  0  0  0  0  0  0  0  0
  1  2  1  0  0  0  0
  1  6  2  0  0  0  0
  2  7  2  0  0  0  0
  3  9  2  0  0  0  0
  3 10  1  0  0  0  0
  4 11  2  0  0  0  0
  4 18  1  0  0  0  0
  5 12  1  0  0  0  0
  5 18  2  0  0  0  0
  6 20  1  0  0  0  0
  7 22  1  0  0  0  0
  8 13  2  0  0  0  0
  8 21  1  0  0  0  0
  9 24  1  0  0  0  0
 10 26  2  0  0  0  0
 11 27  1  0  0  0  0
 12 27  2  0  0  0  0
 13 28  1  0  0  0  0
 14 15  2  0  0  0  0
 14 29  1  0  0  0  0
 15 30  1  0  0  0  0
 16 23  1  0  0  0  0
 16 28  2  0  0  0  0
 17 30  2  0  0  0  0
 17 31  1  0  0  0  0
 18 32  1  0  0  0  0
 19 32  1  0  0  0  0
 19 33  2  0  0  0  0
 19 37  1  0  0  0  0
 20 22  2  0  0  0  0
 20 42  1  0  0  0  0
 21 23  2  0  0  0  0
 21 43  1  0  0  0  0
 22 53  1  0  0  0  0
 23 44  1  0  0  0  0
 24 25  2  0  0  0  0
 24 67  1  0  0  0  0
 25 26  1  0  0  0  0
 25 71  1  0  0  0  0
 26 76  1  0  0  0  0
 27 86  1  0  0  0  0
 28 87  1  0  0  0  0
 29 31  2  0  0  0  0
 29 86  1  0  0  0  0
 30 88  1  0  0  0  0
 31 89  1  0  0  0  0
 32 69  2  0  0  0  0
 33 70  1  0  0  0  0
 33 74  1  0  0  0  0
 34 54  1  0  0  0  0
 34 71  1  0  0  0  0
 34 80  2  0  0  0  0
 35 36  2  0  0  0  0
 36 67  1  0  0  0  0
 37 75  1  0  0  0  0
 37 81  2  0  0  0  0
 38 55  1  0  0  0  0
 38 77  1  0  0  0  0
 38 82  2  0  0  0  0
 39 65  1  0  0  0  0
 39 72  1  0  0  0  0
 39 83  2  0  0  0  0
 40 66  1  0  0  0  0
 40 78  1  0  0  0  0
 40 84  2  0  0  0  0
 41 73  1  0  0  0  0
 41 76  1  0  0  0  0
 41 85  2  0  0  0  0
 42 45  1  0  0  0  0
 43 55  1  0  0  0  0
 44 72  1  0  0  0  0
 45 47  1  0  0  0  0
 46 48  1  0  0  0  0
 46 50  1  0  0  0  0
 47 53  1  0  0  0  0
 48 56  1  0  0  0  0
 49 51  1  0  0  0  0
 49 54  1  0  0  0  0
 50 73  1  0  0  0  0
 51 71  1  0  0  0  0
 52 56  1  0  0  0  0
 52 73  1  0  0  0  0
 53 77  1  0  0  0  0
 54 64  1  0  0  0  0
 55 72  1  0  0  0  0
 56 70  1  0  0  0  0
 57 66  1  0  0  0  0
 58 67  1  0  0  0  0
 59 67  1  0  0  0  0
 60 68  1  0  0  0  0
 61 68  1  0  0  0  0
 62 68  1  0  0  0  0
 63 79  1  0  0  0  0
 64 87  1  0  0  0  0
 65 68  1  0  0  0  0
 65 78  1  0  0  0  0
 66 79  1  0  0  0  0
 69 70  1  0  0  0  0
M  CHG  1  79   1
M  ISO  4  41 100  64 101  76 100  87 101
M  END
> <Batch ID>
0070

> <Smiles>
C=CC(C)(C)c1cccc([100NH:0][100C:0](=O)N2CCCC(n3nc(-c4ccc(Oc5ccc(F)cc5F)cc4)c(C(N)=O)c3N)C2)c1N1CCC([101CH2:1][101O:1]c2ccc3c(c2)CN(C(=O)C(NC(=O)C(C)NC)C(C)(C)C)C(C(=O)NC2CCCc4ccccc42)C3)C1=O

> <Shape>
0.178

> <Color>
0.067

> <Negative vol penalty>
0.000

$$$$

  -OEChem-04042323323D

 90 99  0     1  0  0  0  0  0999 V2000
  -25.8709  -38.4492   20.2309 C   0  0  0  0  0  0  0  0  0  0  0  0
  -26.5048  -37.4105   19.5565 C   0  0  0  0  0  0  0  0  0  0  0  0
  -24.3493   -9.3991   21.7711 C   0  0  0  0  0  0  0  0  0  0  0  0
  -22.5240  -10.2573   20.4411 C   0  0  0  0  0  0  0  0  0  0  0  0
  -25.3453  -38.2338   21.5042 C   0  0  0  0  0  0  0  0  0  0  0  0
  -26.6144  -36.1561   20.1555 C   0  0  0  0  0  0  0  0  0  0  0  0
  -26.7292  -29.1816   18.5247 C   0  0  0  0  0  0  0  0  0  0  0  0
  -23.6973   -8.1702   21.8730 C   0  0  0  0  0  0  0  0  0  0  0  0
  -21.8720   -9.0284   20.5430 C   0  0  0  0  0  0  0  0  0  0  0  0
  -27.4995  -28.0388   18.7352 C   0  0  0  0  0  0  0  0  0  0  0  0
  -23.2238   -5.4342   19.9436 C   0  0  0  0  0  0  0  0  0  0  0  0
  -23.9811   -4.2801   19.7433 C   0  0  0  0  0  0  0  0  0  0  0  0
  -26.4842  -27.7613   20.9057 C   0  0  0  0  0  0  0  0  0  0  0  0
  -27.0966  -21.3023   18.6638 C   0  0  0  0  0  0  0  0  0  0  0  0
  -26.1141  -20.4750   20.7101 C   0  0  0  0  0  0  0  0  0  0  0  0
  -23.4395   -3.5370   21.9775 C   0  0  0  0  0  0  0  0  0  0  0  0
  -23.7626  -10.4427   21.0553 C   0  0  0  0  0  0  0  0  0  0  0  0
  -25.3476  -12.1114   19.9550 C   0  0  0  0  0  0  0  0  0  0  0  0
  -25.4400  -36.9734   22.1152 C   0  0  0  0  0  0  0  0  0  0  0  0
  -25.8369  -29.6298   19.5093 C   0  0  0  0  0  0  0  0  0  0  0  0
  -26.0908  -35.9240   21.4387 C   0  0  0  0  0  0  0  0  0  0  0  0
  -25.7017  -28.9086   20.7043 C   0  0  0  0  0  0  0  0  0  0  0  0
  -26.9410  -21.3822   20.0476 C   0  0  0  0  0  0  0  0  0  0  0  0
  -26.4251  -20.3152   17.9423 C   0  0  0  0  0  0  0  0  0  0  0  0
  -25.4427  -19.4878   19.9886 C   0  0  0  0  0  0  0  0  0  0  0  0
  -22.4587   -7.9848   21.2589 C   0  0  0  0  0  0  0  0  0  0  0  0
  -27.3793  -27.3301   19.9270 C   0  0  0  0  0  0  0  0  0  0  0  0
  -22.5745   -5.6398   21.1609 C   0  0  0  0  0  0  0  0  0  0  0  0
  -24.0889   -3.3314   20.7602 C   0  0  0  0  0  0  0  0  0  0  0  0
  -22.6823   -4.6912   22.1778 C   0  0  0  0  0  0  0  0  0  0  0  0
  -25.5982  -19.4080   18.6047 C   0  0  0  0  0  0  0  0  0  0  0  0
  -24.4353  -11.7125   20.9501 C   0  0  0  0  0  0  0  0  0  0  0  0
  -25.6960  -13.3937   20.3027 C   0  0  0  0  0  0  0  0  0  0  0  0
  -28.4933  -23.3759   20.2623 C   0  0  0  0  0  0  0  0  0  0  0  0
  -25.8364  -11.3876   18.8180 C   0  0  0  0  0  0  0  0  0  0  0  0
  -25.5672  -32.2708   21.2574 C   0  0  0  0  0  0  0  0  0  0  0  0
  -22.7983  -30.8828   22.2213 C   0  0  0  0  0  0  0  0  0  0  0  0
  -27.3626  -21.0539   15.7288 C   0  0  0  0  0  0  0  0  0  0  0  0
  -20.9897  -28.0215   22.6554 C   0  0  0  0  0  0  0  0  0  0  0  0
  -24.3418  -18.5100   22.0327 C   0  0  0  0  0  0  0  0  0  0  0  0
  -24.8985  -36.8014   23.5122 C   0  0  0  0  0  0  0  0  0  0  0  0
  -24.9936  -30.8492   19.2560 C   0  0  0  0  0  0  0  0  0  0  0  0
  -24.7435  -29.3365   21.7846 C   0  0  0  0  0  0  0  0  0  0  0  0
  -24.7256  -35.3414   23.9230 C   0  0  0  0  0  0  0  0  0  0  0  0
  -24.7955  -16.0189   24.5358 C   0  0  0  0  0  0  0  0  0  0  0  0
  -25.9677  -34.5339   23.5596 C   0  0  0  0  0  0  0  0  0  0  0  0
  -24.8173  -14.7093   23.7443 C   0  0  0  0  0  0  0  0  0  0  0  0
  -28.6072  -23.4387   22.6423 C   0  0  0  0  0  0  0  0  0  0  0  0
  -23.8034  -17.0206   23.9476 C   0  0  0  0  0  0  0  0  0  0  0  0
  -27.4559  -22.5473   22.2181 C   0  0  0  0  0  0  0  0  0  0  0  0
  -23.9917  -15.9808   21.7222 C   0  0  0  0  0  0  0  0  0  0  0  0
  -26.2077  -34.5424   22.0451 C   0  0  1  0  0  0  0  0  0  0  0  0
  -24.4922  -31.5059   20.5384 C   0  0  1  0  0  0  0  0  0  0  0  0
  -25.0233  -14.9644   22.2383 C   0  0  2  0  0  0  0  0  0  0  0  0
  -28.8732  -24.3088   21.4112 C   0  0  1  0  0  0  0  0  0  0  0  0
  -27.2620  -20.6402   14.2821 C   0  0  0  0  0  0  0  0  0  0  0  0
  -30.3370  -24.7346   21.3275 C   0  0  0  0  0  0  0  0  0  0  0  0
  -18.7730  -27.2010   23.4986 C   0  0  0  0  0  0  0  0  0  0  0  0
  -23.7511  -31.2684   25.0942 C   0  0  0  0  0  0  0  0  0  0  0  0
  -22.0085  -29.6234   25.8192 C   0  0  0  0  0  0  0  0  0  0  0  0
  -21.3267  -31.7586   24.7244 C   0  0  0  0  0  0  0  0  0  0  0  0
  -20.2648  -26.9084   20.0107 C   0  0  0  0  0  0  0  0  0  0  0  0
  -27.9565  -25.5373   21.3791 C   0  0  0  0  0  0  0  0  0  1  0  0
  -22.4049  -29.9424   23.3348 C   0  0  1  0  0  0  0  0  0  0  0  0
  -19.5611  -27.6667   22.2842 C   0  0  2  0  0  0  0  0  0  0  0  0
  -22.3924  -30.6410   24.7238 C   0  0  0  0  0  0  0  0  0  0  0  0
  -24.2178  -12.6642   21.8617 N   0  0  0  0  0  0  0  0  0  0  0  0
  -24.9986  -13.6739   21.4408 N   0  0  0  0  0  0  0  0  0  0  0  0
  -27.6282  -22.3928   20.7860 N   0  0  0  0  0  0  0  0  0  0  0  0
  -23.9455  -30.5387   21.4924 N   0  0  0  0  0  0  0  0  0  0  0  0
  -24.0621  -17.2155   22.5194 N   0  0  0  0  0  0  0  0  0  0  0  0
  -26.5279  -14.2976   19.7429 N   0  0  0  0  0  0  0  0  0  0  0  0
  -25.3752  -10.0807   18.6091 N   0  0  0  0  0  0  0  0  0  0  0  0
  -26.5820  -20.2376   16.5580 N   0  0  0  0  0  0  0  0  0  0  0  0
  -24.6036  -18.5673   20.6642 N   0  0  0  0  0  0  0  0  0  0  0  0
  -25.3067  -33.6218   21.3854 N   0  0  0  0  0  0  0  0  0  0  0  0
  -21.1238  -29.3627   22.9460 N   0  0  0  0  0  0  0  0  0  0  0  0
  -19.5455  -26.5771   21.2676 N   0  3  0  0  0  0  0  0  0  0  0  0
  -28.8633  -23.5535   19.1100 O   0  0  0  0  0  0  0  0  0  0  0  0
  -26.6704  -11.8792   18.0202 O   0  0  0  0  0  0  0  0  0  0  0  0
  -26.5589  -31.6788   21.6671 O   0  0  0  0  0  0  0  0  0  0  0  0
  -22.1090  -31.8818   22.0016 O   0  0  0  0  0  0  0  0  0  0  0  0
  -28.0672  -22.0006   16.0638 O   0  0  0  0  0  0  0  0  0  0  0  0
  -21.8951  -27.1911   22.6883 O   0  0  0  0  0  0  0  0  0  0  0  0
  -24.3754  -19.4910   22.7800 O   0  0  0  0  0  0  0  0  0  0  0  0
  -21.8224   -6.7857   21.3579 O   0  0  0  0  0  0  0  0  0  0  0  0
  -28.1305  -26.2147   20.1352 O   0  0  0  0  0  0  0  0  0  1  0  0
  -24.8149   -2.2225   20.5672 F   0  0  0  0  0  0  0  0  0  0  0  0
  -22.0597   -4.8826   23.3490 F   0  0  0  0  0  0  0  0  0  0  0  0
  -24.9521  -18.4585   17.9104 F   0  0  0  0  0  0  0  0  0  0  0  0
  1  2  1  0  0  0  0
  1  5  2  0  0  0  0
  2  6  2  0  0  0  0
  3  8  2  0  0  0  0
  3 17  1  0  0  0  0
  4  9  1  0  0  0  0
  4 17  2  0  0  0  0
  5 19  1  0  0  0  0
  6 21  1  0  0  0  0
  7 10  2  0  0  0  0
  7 20  1  0  0  0  0
  8 26  1  0  0  0  0
  9 26  2  0  0  0  0
 10 27  1  0  0  0  0
 11 12  2  0  0  0  0
 11 28  1  0  0  0  0
 12 29  1  0  0  0  0
 13 22  1  0  0  0  0
 13 27  2  0  0  0  0
 14 23  1  0  0  0  0
 14 24  2  0  0  0  0
 15 23  2  0  0  0  0
 15 25  1  0  0  0  0
 16 29  2  0  0  0  0
 16 30  1  0  0  0  0
 17 32  1  0  0  0  0
 18 32  1  0  0  0  0
 18 33  2  0  0  0  0
 18 35  1  0  0  0  0
 19 21  2  0  0  0  0
 19 41  1  0  0  0  0
 20 22  2  0  0  0  0
 20 42  1  0  0  0  0
 21 52  1  0  0  0  0
 22 43  1  0  0  0  0
 23 69  1  0  0  0  0
 24 31  1  0  0  0  0
 24 74  1  0  0  0  0
 25 31  2  0  0  0  0
 25 75  1  0  0  0  0
 26 86  1  0  0  0  0
 27 87  1  0  0  0  0
 28 30  2  0  0  0  0
 28 86  1  0  0  0  0
 29 88  1  0  0  0  0
 30 89  1  0  0  0  0
 31 90  1  0  0  0  0
 32 67  2  0  0  0  0
 33 68  1  0  0  0  0
 33 72  1  0  0  0  0
 34 55  1  0  0  0  0
 34 69  1  0  0  0  0
 34 79  2  0  0  0  0
 35 73  1  0  0  0  0
 35 80  2  0  0  0  0
 36 53  1  0  0  0  0
 36 76  1  0  0  0  0
 36 81  2  0  0  0  0
 37 64  1  0  0  0  0
 37 70  1  0  0  0  0
 37 82  2  0  0  0  0
 38 56  1  0  0  0  0
 38 74  1  0  0  0  0
 38 83  2  0  0  0  0
 39 65  1  0  0  0  0
 39 77  1  0  0  0  0
 39 84  2  0  0  0  0
 40 71  1  0  0  0  0
 40 75  1  0  0  0  0
 40 85  2  0  0  0  0
 41 44  1  0  0  0  0
 42 53  1  0  0  0  0
 43 70  1  0  0  0  0
 44 46  1  0  0  0  0
 45 47  1  0  0  0  0
 45 49  1  0  0  0  0
 46 52  1  0  0  0  0
 47 54  1  0  0  0  0
 48 50  1  0  0  0  0
 48 55  1  0  0  0  0
 49 71  1  0  0  0  0
 50 69  1  0  0  0  0
 51 54  1  0  0  0  0
 51 71  1  0  0  0  0
 52 76  1  0  0  0  0
 53 70  1  0  0  0  0
 54 68  1  0  0  0  0
 55 57  1  0  0  0  0
 55 63  1  0  0  0  0
 58 65  1  0  0  0  0
 59 66  1  0  0  0  0
 60 66  1  0  0  0  0
 61 66  1  0  0  0  0
 62 78  1  0  0  0  0
 63 87  1  0  0  0  0
 64 66  1  0  0  0  0
 64 77  1  0  0  0  0
 65 78  1  0  0  0  0
 67 68  1  0  0  0  0
M  CHG  1  78   1
M  ISO  4  40 100  63 101  75 100  87 101
M  END
> <Batch ID>
0070

> <Smiles>
CNC(C)C(=O)NC(C(=O)N1Cc2cc([101O:1][101CH2:1]C3(C)CCN(c4cc(NC(C)=O)c(F)c([100NH:0][100C:0](=O)N5CCCC(n6nc(-c7ccc(Oc8ccc(F)cc8F)cc7)c(C(N)=O)c6N)C5)c4)C3=O)ccc2CC1C(=O)NC1CCCc2ccccc21)C(C)(C)C

> <Shape>
0.264

> <Color>
0.124

> <Negative vol penalty>
0.000

$$$$

  -OEChem-04042323323D

 84 92  0     1  0  0  0  0  0999 V2000
  -16.9958  -26.6595   25.4944 C   0  0  0  0  0  0  0  0  0  0  0  0
  -18.2645  -26.1443   25.2490 C   0  0  0  0  0  0  0  0  0  0  0  0
  -23.7021   -8.9657   19.6667 C   0  0  0  0  0  0  0  0  0  0  0  0
  -23.2905  -10.0880   21.7662 C   0  0  0  0  0  0  0  0  0  0  0  0
  -27.7870  -20.2805   20.6220 C   0  0  0  0  0  0  0  0  0  0  0  0
  -16.6498  -27.9190   25.0069 C   0  0  0  0  0  0  0  0  0  0  0  0
  -19.1877  -26.8880   24.5148 C   0  0  0  0  0  0  0  0  0  0  0  0
  -25.2567  -27.0511   25.3194 C   0  0  0  0  0  0  0  0  0  0  0  0
  -27.6607  -18.8921   20.6637 C   0  0  0  0  0  0  0  0  0  0  0  0
  -23.0230   -7.8409   20.1348 C   0  0  0  0  0  0  0  0  0  0  0  0
  -22.6114   -8.9632   22.2343 C   0  0  0  0  0  0  0  0  0  0  0  0
  -26.3063  -26.3990   24.6738 C   0  0  0  0  0  0  0  0  0  0  0  0
  -19.8131   -6.8606   20.5451 C   0  0  0  0  0  0  0  0  0  0  0  0
  -18.8966   -6.2529   19.6870 C   0  0  0  0  0  0  0  0  0  0  0  0
  -26.6250  -28.3261   23.2582 C   0  0  0  0  0  0  0  0  0  0  0  0
  -30.0666  -18.6743   20.7001 C   0  0  0  0  0  0  0  0  0  0  0  0
  -20.1659   -4.1996   19.7853 C   0  0  0  0  0  0  0  0  0  0  0  0
  -23.8359  -10.0893   20.4824 C   0  0  0  0  0  0  0  0  0  0  0  0
  -29.0531  -20.8660   20.6193 C   0  0  0  0  0  0  0  0  0  0  0  0
  -23.9908  -12.3478   19.3064 C   0  0  0  0  0  0  0  0  0  0  0  0
  -17.5725  -28.6827   24.2746 C   0  0  0  0  0  0  0  0  0  0  0  0
  -24.8756  -28.3436   24.9312 C   0  0  0  0  0  0  0  0  0  0  0  0
  -18.8533  -28.1584   24.0159 C   0  0  0  0  0  0  0  0  0  0  0  0
  -25.5718  -28.9934   23.9021 C   0  0  0  0  0  0  0  0  0  0  0  0
  -28.8005  -18.0890   20.7028 C   0  0  0  0  0  0  0  0  0  0  0  0
  -22.4776   -7.8396   21.4186 C   0  0  0  0  0  0  0  0  0  0  0  0
  -26.9888  -27.0353   23.6411 C   0  0  0  0  0  0  0  0  0  0  0  0
  -20.9061   -6.1378   21.0233 C   0  0  0  0  0  0  0  0  0  0  0  0
  -19.0729   -4.9224   19.3072 C   0  0  0  0  0  0  0  0  0  0  0  0
  -30.1929  -20.0628   20.6583 C   0  0  0  0  0  0  0  0  0  0  0  0
  -21.0825   -4.8073   20.6434 C   0  0  0  0  0  0  0  0  0  0  0  0
  -24.5377  -11.2513   19.9995 C   0  0  0  0  0  0  0  0  0  0  0  0
  -25.0615  -13.1762   19.0745 C   0  0  0  0  0  0  0  0  0  0  0  0
  -29.1835  -22.3369   20.5744 C   0  0  0  0  0  0  0  0  0  0  0  0
  -22.6359  -12.5954   18.9079 C   0  0  0  0  0  0  0  0  0  0  0  0
  -22.2274  -29.6397   23.7434 C   0  0  0  0  0  0  0  0  0  0  0  0
  -23.8680  -32.4089   24.1465 C   0  0  0  0  0  0  0  0  0  0  0  0
  -28.6504  -24.4885   21.6955 C   0  0  0  0  0  0  0  0  0  0  0  0
  -26.8885  -33.9719   24.4303 C   0  0  0  0  0  0  0  0  0  0  0  0
  -29.6994  -15.7371   20.7874 C   0  0  0  0  0  0  0  0  0  0  0  0
  -17.1369  -30.0190   23.7276 C   0  0  0  0  0  0  0  0  0  0  0  0
  -23.7586  -29.0438   25.6555 C   0  0  0  0  0  0  0  0  0  0  0  0
  -25.2150  -30.3887   23.4612 C   0  0  0  0  0  0  0  0  0  0  0  0
  -18.2988  -30.9014   23.2786 C   0  0  0  0  0  0  0  0  0  0  0  0
  -30.0272  -12.3798   19.6482 C   0  0  0  0  0  0  0  0  0  0  0  0
  -19.2843  -30.0983   22.4357 C   0  0  0  0  0  0  0  0  0  0  0  0
  -28.5833  -11.8771   19.5810 C   0  0  0  0  0  0  0  0  0  0  0  0
  -30.2478  -13.3139   20.8366 C   0  0  0  0  0  0  0  0  0  0  0  0
  -27.8643  -13.9363   20.8576 C   0  0  0  0  0  0  0  0  0  0  0  0
  -19.8907  -28.9454   23.2447 C   0  0  1  0  0  0  0  0  0  0  0  0
  -23.1208  -30.1598   24.8339 C   0  0  1  0  0  0  0  0  0  0  0  0
  -27.5773  -13.0433   19.6394 C   0  0  2  0  0  0  0  0  0  0  0  0
  -27.9108  -36.2462   24.7130 C   0  0  0  0  0  0  0  0  0  0  0  0
  -23.3018  -33.0254   21.2123 C   0  0  0  0  0  0  0  0  0  0  0  0
  -25.0978  -34.7673   21.3039 C   0  0  0  0  0  0  0  0  0  0  0  0
  -23.0780  -34.9836   22.7518 C   0  0  0  0  0  0  0  0  0  0  0  0
  -28.1474  -33.2143   26.9994 C   0  0  0  0  0  0  0  0  0  0  0  0
  -27.9482  -24.9772   22.9343 C   0  0  0  0  0  0  0  0  0  1  0  0
  -24.8115  -33.2259   23.2972 C   0  0  1  0  0  0  0  0  0  0  0  0
  -27.4009  -35.0010   25.4217 C   0  0  2  0  0  0  0  0  0  0  0  0
  -24.0780  -33.9735   22.1481 C   0  0  0  0  0  0  0  0  0  0  0  0
  -25.8537  -11.3694   20.1950 N   0  0  0  0  0  0  0  0  0  0  0  0
  -26.1427  -12.5498   19.6212 N   0  0  0  0  0  0  0  0  0  0  0  0
  -24.1116  -31.0290   24.1960 N   0  0  0  0  0  0  0  0  0  0  0  0
  -29.2614  -14.3964   20.8241 N   0  0  0  0  0  0  0  0  0  0  0  0
  -25.1742  -14.3719   18.4581 N   0  0  0  0  0  0  0  0  0  0  0  0
  -21.6607  -11.6404   19.2263 N   0  0  0  0  0  0  0  0  0  0  0  0
  -28.6715  -16.6785   20.7454 N   0  0  0  0  0  0  0  0  0  0  0  0
  -28.6380  -23.0502   21.5693 N   0  0  0  0  0  0  0  0  0  0  0  0
  -20.9179  -29.4393   24.1366 N   0  0  0  0  0  0  0  0  0  0  0  0
  -25.5327  -34.1012   24.2148 N   0  0  0  0  0  0  0  0  0  0  0  0
  -29.8406  -22.8701   19.5449 N   0  3  0  0  0  0  0  0  0  0  0  0
  -28.5153  -34.4311   26.2305 N   0  3  0  0  0  0  0  0  0  0  0  0
  -22.3029  -13.6249   18.2734 O   0  0  0  0  0  0  0  0  0  0  0  0
  -22.6914  -29.4369   22.6275 O   0  0  0  0  0  0  0  0  0  0  0  0
  -22.9530  -32.9752   24.7496 O   0  0  0  0  0  0  0  0  0  0  0  0
  -29.1869  -25.2044   20.8622 O   0  0  0  0  0  0  0  0  0  0  0  0
  -27.6186  -33.1392   23.8974 O   0  0  0  0  0  0  0  0  0  0  0  0
  -30.8981  -16.0279   20.7655 O   0  0  0  0  0  0  0  0  0  0  0  0
  -21.8147   -6.7422   21.8757 O   0  0  0  0  0  0  0  0  0  0  0  0
  -28.0132  -26.4008   23.0089 O   0  0  0  0  0  0  0  0  0  1  0  0
  -18.1919   -4.3386   18.4844 F   0  0  0  0  0  0  0  0  0  0  0  0
  -31.4138  -20.6161   20.6542 F   0  0  0  0  0  0  0  0  0  0  0  0
  -22.1299   -4.1074   21.1005 F   0  0  0  0  0  0  0  0  0  0  0  0
  1  2  1  0  0  0  0
  1  6  2  0  0  0  0
  2  7  2  0  0  0  0
  3 10  2  0  0  0  0
  3 18  1  0  0  0  0
  4 11  1  0  0  0  0
  4 18  2  0  0  0  0
  5  9  2  0  0  0  0
  5 19  1  0  0  0  0
  6 21  1  0  0  0  0
  7 23  1  0  0  0  0
  8 12  2  0  0  0  0
  8 22  1  0  0  0  0
  9 25  1  0  0  0  0
 10 26  1  0  0  0  0
 11 26  2  0  0  0  0
 12 27  1  0  0  0  0
 13 14  2  0  0  0  0
 13 28  1  0  0  0  0
 14 29  1  0  0  0  0
 15 24  1  0  0  0  0
 15 27  2  0  0  0  0
 16 25  2  0  0  0  0
 16 30  1  0  0  0  0
 17 29  2  0  0  0  0
 17 31  1  0  0  0  0
 18 32  1  0  0  0  0
 19 30  2  0  0  0  0
 19 34  1  0  0  0  0
 20 32  1  0  0  0  0
 20 33  2  0  0  0  0
 20 35  1  0  0  0  0
 21 23  2  0  0  0  0
 21 41  1  0  0  0  0
 22 24  2  0  0  0  0
 22 42  1  0  0  0  0
 23 50  1  0  0  0  0
 24 43  1  0  0  0  0
 25 68  1  0  0  0  0
 26 80  1  0  0  0  0
 27 81  1  0  0  0  0
 28 31  2  0  0  0  0
 28 80  1  0  0  0  0
 29 82  1  0  0  0  0
 30 83  1  0  0  0  0
 31 84  1  0  0  0  0
 32 62  2  0  0  0  0
 33 63  1  0  0  0  0
 33 66  1  0  0  0  0
 34 69  1  0  0  0  0
 34 72  2  0  0  0  0
 35 67  1  0  0  0  0
 35 74  2  0  0  0  0
 36 51  1  0  0  0  0
 36 70  1  0  0  0  0
 36 75  2  0  0  0  0
 37 59  1  0  0  0  0
 37 64  1  0  0  0  0
 37 76  2  0  0  0  0
 38 58  1  0  0  0  0
 38 69  1  0  0  0  0
 38 77  2  0  0  0  0
 39 60  1  0  0  0  0
 39 71  1  0  0  0  0
 39 78  2  0  0  0  0
 40 65  1  0  0  0  0
 40 68  1  0  0  0  0
 40 79  2  0  0  0  0
 41 44  1  0  0  0  0
 42 51  1  0  0  0  0
 43 64  1  0  0  0  0
 44 46  1  0  0  0  0
 45 47  1  0  0  0  0
 45 48  1  0  0  0  0
 46 50  1  0  0  0  0
 47 52  1  0  0  0  0
 48 65  1  0  0  0  0
 49 52  1  0  0  0  0
 49 65  1  0  0  0  0
 50 70  1  0  0  0  0
 51 64  1  0  0  0  0
 52 63  1  0  0  0  0
 53 60  1  0  0  0  0
 54 61  1  0  0  0  0
 55 61  1  0  0  0  0
 56 61  1  0  0  0  0
 57 73  1  0  0  0  0
 58 81  1  0  0  0  0
 59 61  1  0  0  0  0
 59 71  1  0  0  0  0
 60 73  1  0  0  0  0
 62 63  1  0  0  0  0
M  CHG  2  72   1  73   1
M  ISO  4  40 100  58 101  68 100  81 101
M  END
> <Batch ID>
0070

> <Smiles>
CNC(C)C(=O)NC(C(=O)N1Cc2cc([101O:1][101CH2:1]C(=O)NC(=N)c3ccc([100NH:0][100C:0](=O)N4CCCC(n5nc(-c6ccc(Oc7ccc(F)cc7F)cc6)c(C(N)=O)c5N)C4)cc3F)ccc2CC1C(=O)NC1CCCc2ccccc21)C(C)(C)C

> <Shape>
0.277

> <Color>
0.105

> <Negative vol penalty>
0.000

$$$$

  -OEChem-04042323323D

 87 96  0     1  0  0  0  0  0999 V2000
  -29.4916  -35.6691   23.3856 C   0  0  0  0  0  0  0  0  0  0  0  0
  -29.3439  -34.2901   23.4944 C   0  0  0  0  0  0  0  0  0  0  0  0
  -24.5549   -9.0840   21.6691 C   0  0  0  0  0  0  0  0  0  0  0  0
  -23.5663  -10.7586   23.1028 C   0  0  0  0  0  0  0  0  0  0  0  0
  -28.3663  -36.4922   23.3914 C   0  0  0  0  0  0  0  0  0  0  0  0
  -28.0707  -33.7334   23.6103 C   0  0  0  0  0  0  0  0  0  0  0  0
  -27.4436  -29.6823   20.6371 C   0  0  0  0  0  0  0  0  0  0  0  0
  -24.1298   -8.0842   22.5438 C   0  0  0  0  0  0  0  0  0  0  0  0
  -23.1412   -9.7587   23.9775 C   0  0  0  0  0  0  0  0  0  0  0  0
  -28.0007  -28.4807   21.0724 C   0  0  0  0  0  0  0  0  0  0  0  0
  -21.2589   -6.4393   23.2405 C   0  0  0  0  0  0  0  0  0  0  0  0
  -20.6656   -5.3042   22.6883 C   0  0  0  0  0  0  0  0  0  0  0  0
  -25.8361  -27.7719   21.8671 C   0  0  0  0  0  0  0  0  0  0  0  0
  -27.6237  -20.0631   19.9275 C   0  0  0  0  0  0  0  0  0  0  0  0
  -22.3952   -3.9266   23.6619 C   0  0  0  0  0  0  0  0  0  0  0  0
  -25.0943  -20.7328   18.9600 C   0  0  0  0  0  0  0  0  0  0  0  0
  -24.2732  -10.4213   21.9486 C   0  0  0  0  0  0  0  0  0  0  0  0
  -24.0069  -11.9795   19.9465 C   0  0  0  0  0  0  0  0  0  0  0  0
  -27.0781  -35.9446   23.4978 C   0  0  0  0  0  0  0  0  0  0  0  0
  -26.0784  -29.9427   20.8237 C   0  0  0  0  0  0  0  0  0  0  0  0
  -26.9271  -34.5500   23.6190 C   0  0  0  0  0  0  0  0  0  0  0  0
  -25.2636  -28.9765   21.4310 C   0  0  0  0  0  0  0  0  0  0  0  0
  -27.2345  -21.4008   19.8603 C   0  0  0  0  0  0  0  0  0  0  0  0
  -26.7483  -19.0602   19.5109 C   0  0  0  0  0  0  0  0  0  0  0  0
  -23.4229   -8.4215   23.6980 C   0  0  0  0  0  0  0  0  0  0  0  0
  -27.1976  -27.5264   21.6901 C   0  0  0  0  0  0  0  0  0  0  0  0
  -22.4204   -6.3182   24.0034 C   0  0  0  0  0  0  0  0  0  0  0  0
  -21.2337   -4.0478   22.8990 C   0  0  0  0  0  0  0  0  0  0  0  0
  -25.9697  -21.7357   19.3766 C   0  0  0  0  0  0  0  0  0  0  0  0
  -25.4836  -19.3951   19.0272 C   0  0  0  0  0  0  0  0  0  0  0  0
  -22.9885   -5.0618   24.2141 C   0  0  0  0  0  0  0  0  0  0  0  0
  -24.7126  -11.4547   21.0457 C   0  0  0  0  0  0  0  0  0  0  0  0
  -24.8485  -12.9286   19.4197 C   0  0  0  0  0  0  0  0  0  0  0  0
  -29.5369  -22.3808   20.2372 C   0  0  0  0  0  0  0  0  0  0  0  0
  -22.7069  -11.6397   19.4463 C   0  0  0  0  0  0  0  0  0  0  0  0
  -24.4091  -32.1258   22.4209 C   0  0  0  0  0  0  0  0  0  0  0  0
  -21.8888  -30.7104   20.9488 C   0  0  0  0  0  0  0  0  0  0  0  0
  -20.5975  -27.9305   19.4483 C   0  0  0  0  0  0  0  0  0  0  0  0
  -28.3654  -17.2012   20.0358 C   0  0  0  0  0  0  0  0  0  0  0  0
  -25.8944  -36.8780   23.5472 C   0  0  0  0  0  0  0  0  0  0  0  0
  -25.4875  -31.2327   20.3244 C   0  0  0  0  0  0  0  0  0  0  0  0
  -23.7883  -29.1991   21.6367 C   0  0  0  0  0  0  0  0  0  0  0  0
  -30.0499  -23.7241   20.7071 C   0  0  0  0  0  0  0  0  0  0  0  0
  -24.5591  -36.1820   23.2967 C   0  0  0  0  0  0  0  0  0  0  0  0
  -29.7133  -13.9259   20.4000 C   0  0  0  0  0  0  0  0  0  0  0  0
  -24.4626  -34.9004   24.1183 C   0  0  0  0  0  0  0  0  0  0  0  0
  -28.4744  -13.0342   20.5101 C   0  0  0  0  0  0  0  0  0  0  0  0
  -29.5095  -15.2687   21.0994 C   0  0  0  0  0  0  0  0  0  0  0  0
  -27.0692  -15.1148   20.7989 C   0  0  0  0  0  0  0  0  0  0  0  0
  -27.6624  -23.7117   20.7698 C   0  0  0  0  0  0  0  0  0  0  0  0
  -25.5612  -33.9068   23.7216 C   0  0  1  0  0  0  0  0  0  0  0  0
  -24.1868  -31.6061   21.0287 C   0  0  1  0  0  0  0  0  0  0  0  0
  -27.2032  -13.7767   20.0537 C   0  0  2  0  0  0  0  0  0  0  0  0
  -28.8720  -24.3266   21.4785 C   0  0  1  0  0  0  0  0  0  0  0  0
  -28.9165  -23.8982   22.9552 C   0  0  0  0  0  0  0  0  0  0  0  0
  -18.4988  -27.0637   18.3800 C   0  0  0  0  0  0  0  0  0  0  0  0
  -20.6260  -30.3766   23.7064 C   0  0  0  0  0  0  0  0  0  0  0  0
  -19.0494  -28.7089   22.7057 C   0  0  0  0  0  0  0  0  0  0  0  0
  -19.0341  -31.0721   21.9073 C   0  0  0  0  0  0  0  0  0  0  0  0
  -21.9590  -27.4925   16.8572 C   0  0  0  0  0  0  0  0  0  0  0  0
  -28.8609  -25.8534   21.3899 C   0  0  0  0  0  0  0  0  0  1  0  0
  -20.9637  -29.5640   21.2791 C   0  0  1  0  0  0  0  0  0  0  0  0
  -19.8359  -27.7498   18.1476 C   0  0  2  0  0  0  0  0  0  0  0  0
  -19.9464  -29.9267   22.3976 C   0  0  0  0  0  0  0  0  0  0  0  0
  -25.9103  -12.0230   21.2086 N   0  0  0  0  0  0  0  0  0  0  0  0
  -25.9638  -12.9147   20.2046 N   0  0  0  0  0  0  0  0  0  0  0  0
  -28.1320  -22.4250   20.2876 N   0  0  0  0  0  0  0  0  0  0  0  0
  -23.2587  -30.4787   21.1370 N   0  0  0  0  0  0  0  0  0  0  0  0
  -28.2890  -15.9163   20.6137 N   0  0  0  0  0  0  0  0  0  0  0  0
  -24.7360  -13.7651   18.3662 N   0  0  0  0  0  0  0  0  0  0  0  0
  -21.9767  -10.6421   20.1067 N   0  0  0  0  0  0  0  0  0  0  0  0
  -27.1461  -17.7020   19.5806 N   0  0  0  0  0  0  0  0  0  0  0  0
  -25.2191  -33.2437   22.4815 N   0  0  0  0  0  0  0  0  0  0  0  0
  -20.3481  -29.1604   20.0195 N   0  0  0  0  0  0  0  0  0  0  0  0
  -20.6286  -26.9235   17.1937 N   0  3  0  0  0  0  0  0  0  0  0  0
  -30.2834  -21.4951   19.8459 O   0  0  0  0  0  0  0  0  0  0  0  0
  -22.2144  -12.1924   18.4337 O   0  0  0  0  0  0  0  0  0  0  0  0
  -23.8833  -31.5557   23.3698 O   0  0  0  0  0  0  0  0  0  0  0  0
  -21.4139  -31.7700   20.5323 O   0  0  0  0  0  0  0  0  0  0  0  0
  -21.3367  -27.0656   19.9131 O   0  0  0  0  0  0  0  0  0  0  0  0
  -29.4379  -17.8008   19.9262 O   0  0  0  0  0  0  0  0  0  0  0  0
  -23.0077   -7.4461   24.5516 O   0  0  0  0  0  0  0  0  0  0  0  0
  -27.7389  -26.3530   22.1165 O   0  0  0  0  0  0  0  0  0  1  0  0
  -20.6630   -2.9576   22.3699 F   0  0  0  0  0  0  0  0  0  0  0  0
  -25.5846  -23.0180   19.3074 F   0  0  0  0  0  0  0  0  0  0  0  0
  -24.6337  -18.4399   18.6240 F   0  0  0  0  0  0  0  0  0  0  0  0
  -24.1036   -4.9390   24.9471 F   0  0  0  0  0  0  0  0  0  0  0  0
  1  2  1  0  0  0  0
  1  5  2  0  0  0  0
  2  6  2  0  0  0  0
  3  8  2  0  0  0  0
  3 17  1  0  0  0  0
  4  9  1  0  0  0  0
  4 17  2  0  0  0  0
  5 19  1  0  0  0  0
  6 21  1  0  0  0  0
  7 10  2  0  0  0  0
  7 20  1  0  0  0  0
  8 25  1  0  0  0  0
  9 25  2  0  0  0  0
 10 26  1  0  0  0  0
 11 12  2  0  0  0  0
 11 27  1  0  0  0  0
 12 28  1  0  0  0  0
 13 22  1  0  0  0  0
 13 26  2  0  0  0  0
 14 23  1  0  0  0  0
 14 24  2  0  0  0  0
 15 28  2  0  0  0  0
 15 31  1  0  0  0  0
 16 29  1  0  0  0  0
 16 30  2  0  0  0  0
 17 32  1  0  0  0  0
 18 32  1  0  0  0  0
 18 33  2  0  0  0  0
 18 35  1  0  0  0  0
 19 21  2  0  0  0  0
 19 40  1  0  0  0  0
 20 22  2  0  0  0  0
 20 41  1  0  0  0  0
 21 51  1  0  0  0  0
 22 42  1  0  0  0  0
 23 29  2  0  0  0  0
 23 67  1  0  0  0  0
 24 30  1  0  0  0  0
 24 72  1  0  0  0  0
 25 82  1  0  0  0  0
 26 83  1  0  0  0  0
 27 31  2  0  0  0  0
 27 82  1  0  0  0  0
 28 84  1  0  0  0  0
 29 85  1  0  0  0  0
 30 86  1  0  0  0  0
 31 87  1  0  0  0  0
 32 65  2  0  0  0  0
 33 66  1  0  0  0  0
 33 70  1  0  0  0  0
 34 43  1  0  0  0  0
 34 67  1  0  0  0  0
 34 76  2  0  0  0  0
 35 71  1  0  0  0  0
 35 77  2  0  0  0  0
 36 52  1  0  0  0  0
 36 73  1  0  0  0  0
 36 78  2  0  0  0  0
 37 62  1  0  0  0  0
 37 68  1  0  0  0  0
 37 79  2  0  0  0  0
 38 63  1  0  0  0  0
 38 74  1  0  0  0  0
 38 80  2  0  0  0  0
 39 69  1  0  0  0  0
 39 72  1  0  0  0  0
 39 81  2  0  0  0  0
 40 44  1  0  0  0  0
 41 52  1  0  0  0  0
 42 68  1  0  0  0  0
 43 54  1  0  0  0  0
 44 46  1  0  0  0  0
 45 47  1  0  0  0  0
 45 48  1  0  0  0  0
 46 51  1  0  0  0  0
 47 53  1  0  0  0  0
 48 69  1  0  0  0  0
 49 53  1  0  0  0  0
 49 69  1  0  0  0  0
 50 54  1  0  0  0  0
 50 67  1  0  0  0  0
 51 73  1  0  0  0  0
 52 68  1  0  0  0  0
 53 66  1  0  0  0  0
 54 55  1  0  0  0  0
 54 61  1  0  0  0  0
 56 63  1  0  0  0  0
 57 64  1  0  0  0  0
 58 64  1  0  0  0  0
 59 64  1  0  0  0  0
 60 75  1  0  0  0  0
 61 83  1  0  0  0  0
 62 64  1  0  0  0  0
 62 74  1  0  0  0  0
 63 75  1  0  0  0  0
 65 66  1  0  0  0  0
M  CHG  1  75   1
M  ISO  4  39 100  61 101  72 100  83 101
M  END
> <Batch ID>
0070

> <Smiles>
CNC(C)C(=O)NC(C(=O)N1Cc2cc([101O:1][101CH2:1]C3(C)CC(=O)N(c4cc([100NH:0][100C:0](=O)N5CCCC(n6nc(-c7ccc(Oc8ccc(F)cc8F)cc7)c(C(N)=O)c6N)C5)c(F)cc4F)C3)ccc2CC1C(=O)NC1CCCc2ccccc21)C(C)(C)C

> <Shape>
0.305

> <Color>
0.090

> <Negative vol penalty>
0.000

$$$$

  -OEChem-04042323323D

 88 97  0     1  0  0  0  0  0999 V2000
  -21.9287  -11.6090   19.7316 C   0  0  0  0  0  0  0  0  0  0  0  0
  -21.6203  -12.8490   20.2816 C   0  0  0  0  0  0  0  0  0  0  0  0
  -18.9350  -28.3477   22.9883 C   0  0  0  0  0  0  0  0  0  0  0  0
  -26.1107  -27.1336   13.7374 C   0  0  0  0  0  0  0  0  0  0  0  0
  -23.7559  -27.6576   13.8696 C   0  0  0  0  0  0  0  0  0  0  0  0
  -23.2541  -11.1789   19.6842 C   0  0  0  0  0  0  0  0  0  0  0  0
  -22.6372  -13.6593   20.7855 C   0  0  0  0  0  0  0  0  0  0  0  0
  -22.1581  -18.4935   19.3549 C   0  0  0  0  0  0  0  0  0  0  0  0
  -18.5480  -27.0189   22.8151 C   0  0  0  0  0  0  0  0  0  0  0  0
  -20.2022  -28.7639   22.5802 C   0  0  0  0  0  0  0  0  0  0  0  0
  -25.8700  -26.3339   12.6202 C   0  0  0  0  0  0  0  0  0  0  0  0
  -23.5152  -26.8579   12.7523 C   0  0  0  0  0  0  0  0  0  0  0  0
  -21.2161  -19.2673   20.0314 C   0  0  0  0  0  0  0  0  0  0  0  0
  -25.8227  -23.8669    9.9490 C   0  0  0  0  0  0  0  0  0  0  0  0
  -26.4377  -22.6159    9.9004 C   0  0  0  0  0  0  0  0  0  0  0  0
  -22.9762  -20.2251   21.3744 C   0  0  0  0  0  0  0  0  0  0  0  0
  -25.3023  -21.9787   11.9356 C   0  0  0  0  0  0  0  0  0  0  0  0
  -25.0536  -27.7954   14.3622 C   0  0  0  0  0  0  0  0  0  0  0  0
  -25.6077  -29.9952   15.5291 C   0  0  0  0  0  0  0  0  0  0  0  0
  -24.2887  -11.9884   20.1790 C   0  0  0  0  0  0  0  0  0  0  0  0
  -23.5173  -18.5717   19.6911 C   0  0  0  0  0  0  0  0  0  0  0  0
  -23.9775  -13.2391   20.7459 C   0  0  0  0  0  0  0  0  0  0  0  0
  -23.9338  -19.4531   20.6989 C   0  0  0  0  0  0  0  0  0  0  0  0
  -19.4282  -26.1062   22.2339 C   0  0  0  0  0  0  0  0  0  0  0  0
  -21.0825  -27.8513   21.9989 C   0  0  0  0  0  0  0  0  0  0  0  0
  -24.5723  -26.1960   12.1277 C   0  0  0  0  0  0  0  0  0  0  0  0
  -21.6247  -20.1312   21.0432 C   0  0  0  0  0  0  0  0  0  0  0  0
  -24.9476  -24.1738   10.9910 C   0  0  0  0  0  0  0  0  0  0  0  0
  -26.1775  -21.6718   10.8937 C   0  0  0  0  0  0  0  0  0  0  0  0
  -24.6874  -23.2297   11.9842 C   0  0  0  0  0  0  0  0  0  0  0  0
  -20.6955  -26.5224   21.8258 C   0  0  0  0  0  0  0  0  0  0  0  0
  -25.3015  -28.6212   15.5166 C   0  0  0  0  0  0  0  0  0  0  0  0
  -25.7501  -30.3032   16.8600 C   0  0  0  0  0  0  0  0  0  0  0  0
  -17.8222  -22.8059   22.0598 C   0  0  0  0  0  0  0  0  0  0  0  0
  -19.0198  -22.5611   21.5140 C   0  0  0  0  0  0  0  0  0  0  0  0
  -17.8003  -24.2449   22.4289 C   0  0  0  0  0  0  0  0  0  0  0  0
  -21.7149  -30.3337   20.5473 C   0  0  0  0  0  0  0  0  0  0  0  0
  -22.6395  -29.5829   21.1500 C   0  0  0  0  0  0  0  0  0  0  0  0
  -25.7507  -30.9112   14.4353 C   0  0  0  0  0  0  0  0  0  0  0  0
  -25.6723  -16.5218   20.8123 C   0  0  0  0  0  0  0  0  0  0  0  0
  -27.7114  -18.9949   20.3140 C   0  0  0  0  0  0  0  0  0  0  0  0
  -28.1561  -22.3629   19.9893 C   0  0  0  0  0  0  0  0  0  0  0  0
  -23.4999  -27.4110   21.7561 C   0  0  0  0  0  0  0  0  0  0  0  0
  -25.7012  -11.4605   20.1489 C   0  0  0  0  0  0  0  0  0  0  0  0
  -24.5241  -17.7501   18.9338 C   0  0  0  0  0  0  0  0  0  0  0  0
  -25.3835  -19.5892   21.0841 C   0  0  0  0  0  0  0  0  0  0  0  0
  -19.8867  -23.7747   21.4669 C   0  0  0  0  0  0  0  0  0  0  0  0
  -26.7595  -12.5395   20.3636 C   0  0  0  0  0  0  0  0  0  0  0  0
  -26.9904  -28.3725   21.0501 C   0  0  0  0  0  0  0  0  0  0  0  0
  -26.3808  -13.4317   21.5415 C   0  0  0  0  0  0  0  0  0  0  0  0
  -26.9834  -28.5995   19.5393 C   0  0  0  0  0  0  0  0  0  0  0  0
  -25.9589  -27.3302   21.4720 C   0  0  0  0  0  0  0  0  0  0  0  0
  -24.5701  -27.8531   19.4911 C   0  0  0  0  0  0  0  0  0  0  0  0
  -25.0553  -14.1572   21.2802 C   0  0  1  0  0  0  0  0  0  0  0  0
  -25.8199  -17.5303   19.7083 C   0  0  1  0  0  0  0  0  0  0  0  0
  -25.5666  -28.9318   19.0400 C   0  0  2  0  0  0  0  0  0  0  0  0
  -16.6565  -21.9253   22.3112 C   0  0  0  0  0  0  0  0  0  0  0  0
  -29.9419  -24.0882   19.6264 C   0  0  0  0  0  0  0  0  0  0  0  0
  -28.5934  -18.6895   23.2189 C   0  0  0  0  0  0  0  0  0  0  0  0
  -29.6253  -20.9658   23.0720 C   0  0  0  0  0  0  0  0  0  0  0  0
  -30.4528  -19.1261   21.6046 C   0  0  0  0  0  0  0  0  0  0  0  0
  -26.9223  -23.2758   17.4589 C   0  0  0  0  0  0  0  0  0  0  0  0
  -19.5418  -21.2771   20.9803 C   0  0  0  0  0  0  0  0  0  1  0  0
  -28.1953  -20.1640   21.1373 C   0  0  1  0  0  0  0  0  0  0  0  0
  -28.9146  -23.1845   18.9626 C   0  0  2  0  0  0  0  0  0  0  0  0
  -29.1891  -19.7326   22.2525 C   0  0  0  0  0  0  0  0  0  0  0  0
  -25.2521  -28.0928   16.7423 N   0  0  0  0  0  0  0  0  0  0  0  0
  -25.5294  -29.1402   17.5374 N   0  0  0  0  0  0  0  0  0  0  0  0
  -19.0393  -24.7833   22.0627 N   0  0  0  0  0  0  0  0  0  0  0  0
  -26.3291  -18.7601   20.3187 N   0  0  0  0  0  0  0  0  0  0  0  0
  -24.6306  -27.6495   20.9474 N   0  0  0  0  0  0  0  0  0  0  0  0
  -26.0414  -31.4526   17.5052 N   0  0  0  0  0  0  0  0  0  0  0  0
  -25.5709  -30.4286   13.1318 N   0  0  0  0  0  0  0  0  0  0  0  0
  -25.2590  -15.2748   20.3836 N   0  0  0  0  0  0  0  0  0  0  0  0
  -28.7417  -21.1311   20.1914 N   0  0  0  0  0  0  0  0  0  0  0  0
  -22.3977  -28.2872   21.5765 N   0  0  0  0  0  0  0  0  0  0  0  0
  -27.9729  -24.0367   18.1830 N   0  3  0  0  0  0  0  0  0  0  0  0
  -16.8515  -24.8065   22.9534 O   0  0  0  0  0  0  0  0  0  0  0  0
  -26.0457  -32.1181   14.6079 O   0  0  0  0  0  0  0  0  0  0  0  0
  -25.9168  -16.8502   21.9673 O   0  0  0  0  0  0  0  0  0  0  0  0
  -28.5289  -18.3193   19.6840 O   0  0  0  0  0  0  0  0  0  0  0  0
  -27.1473  -22.7744   20.5581 O   0  0  0  0  0  0  0  0  0  0  0  0
  -23.4804  -26.5015   22.5955 O   0  0  0  0  0  0  0  0  0  0  0  0
  -24.3372  -25.4160   11.0374 O   0  0  0  0  0  0  0  0  0  0  0  0
  -20.7073  -20.8871   21.7055 O   0  0  0  0  0  0  0  0  0  1  0  0
  -26.7670  -20.4699   10.8460 F   0  0  0  0  0  0  0  0  0  0  0  0
  -23.8466  -23.5184   12.9870 F   0  0  0  0  0  0  0  0  0  0  0  0
  -21.5426  -25.6440   21.2674 F   0  0  0  0  0  0  0  0  0  0  0  0
  1  2  1  0  0  0  0
  1  6  2  0  0  0  0
  2  7  2  0  0  0  0
  3  9  1  0  0  0  0
  3 10  2  0  0  0  0
  4 11  2  0  0  0  0
  4 18  1  0  0  0  0
  5 12  1  0  0  0  0
  5 18  2  0  0  0  0
  6 20  1  0  0  0  0
  7 22  1  0  0  0  0
  8 13  2  0  0  0  0
  8 21  1  0  0  0  0
  9 24  2  0  0  0  0
 10 25  1  0  0  0  0
 11 26  1  0  0  0  0
 12 26  2  0  0  0  0
 13 27  1  0  0  0  0
 14 15  2  0  0  0  0
 14 28  1  0  0  0  0
 15 29  1  0  0  0  0
 16 23  1  0  0  0  0
 16 27  2  0  0  0  0
 17 29  2  0  0  0  0
 17 30  1  0  0  0  0
 18 32  1  0  0  0  0
 19 32  1  0  0  0  0
 19 33  2  0  0  0  0
 19 39  1  0  0  0  0
 20 22  2  0  0  0  0
 20 44  1  0  0  0  0
 21 23  2  0  0  0  0
 21 45  1  0  0  0  0
 22 54  1  0  0  0  0
 23 46  1  0  0  0  0
 24 31  1  0  0  0  0
 24 69  1  0  0  0  0
 25 31  2  0  0  0  0
 25 76  1  0  0  0  0
 26 84  1  0  0  0  0
 27 85  1  0  0  0  0
 28 30  2  0  0  0  0
 28 84  1  0  0  0  0
 29 86  1  0  0  0  0
 30 87  1  0  0  0  0
 31 88  1  0  0  0  0
 32 67  2  0  0  0  0
 33 68  1  0  0  0  0
 33 72  1  0  0  0  0
 34 35  2  0  0  0  0
 34 36  1  0  0  0  0
 34 57  1  0  0  0  0
 35 47  1  0  0  0  0
 35 63  1  0  0  0  0
 36 69  1  0  0  0  0
 36 78  2  0  0  0  0
 37 38  2  0  0  0  0
 38 76  1  0  0  0  0
 39 73  1  0  0  0  0
 39 79  2  0  0  0  0
 40 55  1  0  0  0  0
 40 74  1  0  0  0  0
 40 80  2  0  0  0  0
 41 64  1  0  0  0  0
 41 70  1  0  0  0  0
 41 81  2  0  0  0  0
 42 65  1  0  0  0  0
 42 75  1  0  0  0  0
 42 82  2  0  0  0  0
 43 71  1  0  0  0  0
 43 76  1  0  0  0  0
 43 83  2  0  0  0  0
 44 48  1  0  0  0  0
 45 55  1  0  0  0  0
 46 70  1  0  0  0  0
 47 69  1  0  0  0  0
 48 50  1  0  0  0  0
 49 51  1  0  0  0  0
 49 52  1  0  0  0  0
 50 54  1  0  0  0  0
 51 56  1  0  0  0  0
 52 71  1  0  0  0  0
 53 56  1  0  0  0  0
 53 71  1  0  0  0  0
 54 74  1  0  0  0  0
 55 70  1  0  0  0  0
 56 68  1  0  0  0  0
 58 65  1  0  0  0  0
 59 66  1  0  0  0  0
 60 66  1  0  0  0  0
 61 66  1  0  0  0  0
 62 77  1  0  0  0  0
 63 85  1  0  0  0  0
 64 66  1  0  0  0  0
 64 75  1  0  0  0  0
 65 77  1  0  0  0  0
 67 68  1  0  0  0  0
M  CHG  1  77   1
M  ISO  4  43 100  63 101  76 100  85 101
M  END
> <Batch ID>
0070

> <Smiles>
C=C[100N:0](c1cccc(N2CC([101CH2:1][101O:1]c3ccc4c(c3)CN(C(=O)C(NC(=O)C(C)NC)C(C)(C)C)C(C(=O)NC3CCCc5ccccc53)C4)=C(C)C2=O)c1F)[100C:0](=O)N1CCCC(n2nc(-c3ccc(Oc4ccc(F)cc4F)cc3)c(C(N)=O)c2N)C1

> <Shape>
0.180

> <Color>
0.071

> <Negative vol penalty>
0.000

$$$$

  -OEChem-04042323323D

 86 94  0     1  0  0  0  0  0999 V2000
  -29.0790  -34.2028   26.2215 C   0  0  0  0  0  0  0  0  0  0  0  0
  -28.9063  -33.3982   25.0998 C   0  0  0  0  0  0  0  0  0  0  0  0
  -26.6360  -12.2325   20.8396 C   0  0  0  0  0  0  0  0  0  0  0  0
  -25.2852  -13.9229   19.7650 C   0  0  0  0  0  0  0  0  0  0  0  0
  -28.5301  -33.8191   27.4444 C   0  0  0  0  0  0  0  0  0  0  0  0
  -28.1855  -32.2088   25.2006 C   0  0  0  0  0  0  0  0  0  0  0  0
  -24.9248  -31.5832   21.3767 C   0  0  0  0  0  0  0  0  0  0  0  0
  -25.4820  -11.6244   21.3338 C   0  0  0  0  0  0  0  0  0  0  0  0
  -24.1312  -13.3148   20.2592 C   0  0  0  0  0  0  0  0  0  0  0  0
  -25.4479  -31.1545   20.1576 C   0  0  0  0  0  0  0  0  0  0  0  0
  -23.0496   -9.5829   20.1727 C   0  0  0  0  0  0  0  0  0  0  0  0
  -22.9535   -8.1951   20.0705 C   0  0  0  0  0  0  0  0  0  0  0  0
  -27.0353  -22.9027   19.3562 C   0  0  0  0  0  0  0  0  0  0  0  0
  -24.7316  -28.9039   20.6486 C   0  0  0  0  0  0  0  0  0  0  0  0
  -29.1808  -22.4589   21.0832 C   0  0  0  0  0  0  0  0  0  0  0  0
  -22.7752   -8.0305   22.4743 C   0  0  0  0  0  0  0  0  0  0  0  0
  -26.5376  -13.3817   20.0552 C   0  0  0  0  0  0  0  0  0  0  0  0
  -27.4386  -23.9043   20.2392 C   0  0  0  0  0  0  0  0  0  0  0  0
  -28.3723  -13.7465   18.3208 C   0  0  0  0  0  0  0  0  0  0  0  0
  -27.7940  -32.6292   27.5580 C   0  0  0  0  0  0  0  0  0  0  0  0
  -24.3098  -30.6720   22.2473 C   0  0  0  0  0  0  0  0  0  0  0  0
  -27.6274  -31.8082   26.4264 C   0  0  0  0  0  0  0  0  0  0  0  0
  -24.1992  -29.3241   21.8771 C   0  0  0  0  0  0  0  0  0  0  0  0
  -28.5113  -23.6825   21.1026 C   0  0  0  0  0  0  0  0  0  0  0  0
  -28.7775  -21.4572   20.2002 C   0  0  0  0  0  0  0  0  0  0  0  0
  -24.2296  -12.1656   21.0436 C   0  0  0  0  0  0  0  0  0  0  0  0
  -25.3539  -29.8141   19.7947 C   0  0  0  0  0  0  0  0  0  0  0  0
  -23.0086  -10.1945   21.4257 C   0  0  0  0  0  0  0  0  0  0  0  0
  -22.8163   -7.4189   21.2213 C   0  0  0  0  0  0  0  0  0  0  0  0
  -27.7047  -21.6791   19.3368 C   0  0  0  0  0  0  0  0  0  0  0  0
  -22.8714   -9.4183   22.5765 C   0  0  0  0  0  0  0  0  0  0  0  0
  -27.7293  -14.0106   19.5449 C   0  0  0  0  0  0  0  0  0  0  0  0
  -29.4488  -14.5994   18.3073 C   0  0  0  0  0  0  0  0  0  0  0  0
  -26.7030  -25.1951   20.2360 C   0  0  0  0  0  0  0  0  0  0  0  0
  -28.0273  -12.8137   17.2881 C   0  0  0  0  0  0  0  0  0  0  0  0
  -24.8906  -29.6495   25.2004 C   0  0  0  0  0  0  0  0  0  0  0  0
  -22.0598  -28.1148   24.8078 C   0  0  0  0  0  0  0  0  0  0  0  0
  -19.7523  -26.7949   22.6678 C   0  0  0  0  0  0  0  0  0  0  0  0
  -30.5428  -19.8344   20.9725 C   0  0  0  0  0  0  0  0  0  0  0  0
  -27.2598  -32.2325   28.9115 C   0  0  0  0  0  0  0  0  0  0  0  0
  -23.7268  -31.1553   23.5469 C   0  0  0  0  0  0  0  0  0  0  0  0
  -23.5305  -28.3096   22.7670 C   0  0  0  0  0  0  0  0  0  0  0  0
  -26.1913  -31.1441   28.8495 C   0  0  0  0  0  0  0  0  0  0  0  0
  -32.4748  -16.8569   21.2537 C   0  0  0  0  0  0  0  0  0  0  0  0
  -26.6324  -30.0151   27.9234 C   0  0  0  0  0  0  0  0  0  0  0  0
  -31.5378  -15.7659   20.7303 C   0  0  0  0  0  0  0  0  0  0  0  0
  -31.7180  -17.9241   22.0424 C   0  0  0  0  0  0  0  0  0  0  0  0
  -29.6389  -17.4314   20.8161 C   0  0  0  0  0  0  0  0  0  0  0  0
  -26.8308  -30.5230   26.4901 C   0  0  1  0  0  0  0  0  0  0  0  0
  -23.5789  -30.0467   24.5844 C   0  0  1  0  0  0  0  0  0  0  0  0
  -30.3464  -16.3682   19.9601 C   0  0  2  0  0  0  0  0  0  0  0  0
  -17.5607  -25.5727   22.6434 C   0  0  0  0  0  0  0  0  0  0  0  0
  -23.4914  -25.5370   25.5922 C   0  0  0  0  0  0  0  0  0  0  0  0
  -21.5581  -24.2578   24.6465 C   0  0  0  0  0  0  0  0  0  0  0  0
  -21.2066  -25.8017   26.5741 C   0  0  0  0  0  0  0  0  0  0  0  0
  -27.4728  -28.0279   17.5124 C   0  0  0  0  0  0  0  0  0  0  0  0
  -25.1981  -27.1445   18.0791 C   0  0  0  0  0  0  0  0  0  0  0  0
  -18.4146  -28.9857   21.1946 C   0  0  0  0  0  0  0  0  0  0  0  0
  -26.8905  -27.6488   19.9199 C   0  0  0  0  0  0  0  0  0  0  0  0
  -21.6399  -26.7653   24.2772 C   0  0  1  0  0  0  0  0  0  0  0  0
  -18.2417  -26.9320   22.6057 C   0  0  2  0  0  0  0  0  0  0  0  0
  -21.9884  -25.6090   25.2564 C   0  0  0  0  0  0  0  0  0  0  0  0
  -26.3417  -28.0495   18.5431 C   0  0  0  0  0  0  0  0  0  1  0  0
  -28.3460  -14.9571   20.2576 N   0  0  0  0  0  0  0  0  0  0  0  0
  -29.3878  -15.2952   19.4788 N   0  0  0  0  0  0  0  0  0  0  0  0
  -22.9817  -28.8300   24.0302 N   0  0  0  0  0  0  0  0  0  0  0  0
  -30.6064  -18.4521   21.2485 N   0  0  0  0  0  0  0  0  0  0  0  0
  -28.9348  -24.6838   22.0049 N   0  0  0  0  0  0  0  0  0  0  0  0
  -30.4323  -14.8145   17.4079 N   0  0  0  0  0  0  0  0  0  0  0  0
  -26.8894  -12.0143   17.4627 N   0  0  0  0  0  0  0  0  0  0  0  0
  -29.4592  -20.2152   20.1817 N   0  0  0  0  0  0  0  0  0  0  0  0
  -27.4542  -26.3251   19.9383 N   0  0  0  0  0  0  0  0  0  0  0  0
  -25.5531  -30.6858   25.8302 N   0  0  0  0  0  0  0  0  0  0  0  0
  -20.2195  -26.8744   23.9626 N   0  0  0  0  0  0  0  0  0  0  0  0
  -17.8357  -27.6265   21.3512 N   0  3  0  0  0  0  0  0  0  0  0  0
  -25.5055  -25.2039   20.5090 O   0  0  0  0  0  0  0  0  0  0  0  0
  -28.7172  -12.6810   16.2488 O   0  0  0  0  0  0  0  0  0  0  0  0
  -25.2725  -28.4884   25.1122 O   0  0  0  0  0  0  0  0  0  0  0  0
  -21.5820  -28.5226   25.8694 O   0  0  0  0  0  0  0  0  0  0  0  0
  -20.4478  -26.6298   21.6680 O   0  0  0  0  0  0  0  0  0  0  0  0
  -31.4024  -20.6183   21.3831 O   0  0  0  0  0  0  0  0  0  0  0  0
  -23.1033  -11.5724   21.5254 O   0  0  0  0  0  0  0  0  0  0  0  0
  -25.8643  -29.3929   18.6055 O   0  0  0  0  0  0  0  0  0  1  0  0
  -22.7225   -6.0863   21.1229 F   0  0  0  0  0  0  0  0  0  0  0  0
  -27.3080  -20.7233   18.4844 F   0  0  0  0  0  0  0  0  0  0  0  0
  -22.8301  -10.0002   23.7829 F   0  0  0  0  0  0  0  0  0  0  0  0
  1  2  1  0  0  0  0
  1  5  2  0  0  0  0
  2  6  2  0  0  0  0
  3  8  2  0  0  0  0
  3 17  1  0  0  0  0
  4  9  1  0  0  0  0
  4 17  2  0  0  0  0
  5 20  1  0  0  0  0
  6 22  1  0  0  0  0
  7 10  2  0  0  0  0
  7 21  1  0  0  0  0
  8 26  1  0  0  0  0
  9 26  2  0  0  0  0
 10 27  1  0  0  0  0
 11 12  2  0  0  0  0
 11 28  1  0  0  0  0
 12 29  1  0  0  0  0
 13 18  1  0  0  0  0
 13 30  2  0  0  0  0
 14 23  1  0  0  0  0
 14 27  2  0  0  0  0
 15 24  1  0  0  0  0
 15 25  2  0  0  0  0
 16 29  2  0  0  0  0
 16 31  1  0  0  0  0
 17 32  1  0  0  0  0
 18 24  2  0  0  0  0
 18 34  1  0  0  0  0
 19 32  1  0  0  0  0
 19 33  2  0  0  0  0
 19 35  1  0  0  0  0
 20 22  2  0  0  0  0
 20 40  1  0  0  0  0
 21 23  2  0  0  0  0
 21 41  1  0  0  0  0
 22 49  1  0  0  0  0
 23 42  1  0  0  0  0
 24 68  1  0  0  0  0
 25 30  1  0  0  0  0
 25 71  1  0  0  0  0
 26 82  1  0  0  0  0
 27 83  1  0  0  0  0
 28 31  2  0  0  0  0
 28 82  1  0  0  0  0
 29 84  1  0  0  0  0
 30 85  1  0  0  0  0
 31 86  1  0  0  0  0
 32 64  2  0  0  0  0
 33 65  1  0  0  0  0
 33 69  1  0  0  0  0
 34 72  1  0  0  0  0
 34 76  2  0  0  0  0
 35 70  1  0  0  0  0
 35 77  2  0  0  0  0
 36 50  1  0  0  0  0
 36 73  1  0  0  0  0
 36 78  2  0  0  0  0
 37 60  1  0  0  0  0
 37 66  1  0  0  0  0
 37 79  2  0  0  0  0
 38 61  1  0  0  0  0
 38 74  1  0  0  0  0
 38 80  2  0  0  0  0
 39 67  1  0  0  0  0
 39 71  1  0  0  0  0
 39 81  2  0  0  0  0
 40 43  1  0  0  0  0
 41 50  1  0  0  0  0
 42 66  1  0  0  0  0
 43 45  1  0  0  0  0
 44 46  1  0  0  0  0
 44 47  1  0  0  0  0
 45 49  1  0  0  0  0
 46 51  1  0  0  0  0
 47 67  1  0  0  0  0
 48 51  1  0  0  0  0
 48 67  1  0  0  0  0
 49 73  1  0  0  0  0
 50 66  1  0  0  0  0
 51 65  1  0  0  0  0
 52 61  1  0  0  0  0
 53 62  1  0  0  0  0
 54 62  1  0  0  0  0
 55 62  1  0  0  0  0
 56 63  1  0  0  0  0
 57 63  1  0  0  0  0
 58 75  1  0  0  0  0
 59 63  1  0  0  0  0
 59 72  1  0  0  0  0
 60 62  1  0  0  0  0
 60 74  1  0  0  0  0
 61 75  1  0  0  0  0
 63 83  1  0  0  0  0
 64 65  1  0  0  0  0
M  CHG  1  75   1
M  ISO  4  39 100  63 101  71 100  83 101
M  END
> <Batch ID>
0070

> <Smiles>
CNC(C)C(=O)NC(C(=O)N1Cc2cc([101O:1][101C:1](C)(C)CNC(=O)c3cc(F)c([100NH:0][100C:0](=O)N4CCCC(n5nc(-c6ccc(Oc7ccc(F)cc7F)cc6)c(C(N)=O)c5N)C4)cc3N)ccc2CC1C(=O)NC1CCCc2ccccc21)C(C)(C)C

> <Shape>
0.309

> <Color>
0.049

> <Negative vol penalty>
0.000

$$$$

  -OEChem-04042323323D

 86 95  0     1  0  0  0  0  0999 V2000
  -17.3530  -30.2611   24.2564 C   0  0  0  0  0  0  0  0  0  0  0  0
  -18.0624  -29.3764   25.0623 C   0  0  0  0  0  0  0  0  0  0  0  0
  -27.3601  -19.0004   15.6472 C   0  0  0  0  0  0  0  0  0  0  0  0
  -25.5166  -19.3027   17.1792 C   0  0  0  0  0  0  0  0  0  0  0  0
  -17.4841  -30.1975   22.8698 C   0  0  0  0  0  0  0  0  0  0  0  0
  -18.9026  -28.4269   24.4819 C   0  0  0  0  0  0  0  0  0  0  0  0
  -25.0341  -24.9217   25.6799 C   0  0  0  0  0  0  0  0  0  0  0  0
  -28.1307  -15.7398   24.1974 C   0  0  0  0  0  0  0  0  0  0  0  0
  -28.5073  -14.4052   24.0470 C   0  0  0  0  0  0  0  0  0  0  0  0
  -26.6154  -19.6013   14.6324 C   0  0  0  0  0  0  0  0  0  0  0  0
  -24.7719  -19.9037   16.1644 C   0  0  0  0  0  0  0  0  0  0  0  0
  -25.5455  -23.6250   25.7089 C   0  0  0  0  0  0  0  0  0  0  0  0
  -25.0659  -20.7320   11.5430 C   0  0  0  0  0  0  0  0  0  0  0  0
  -25.0677  -20.1236   10.2878 C   0  0  0  0  0  0  0  0  0  0  0  0
  -25.7543  -23.6600   23.3059 C   0  0  0  0  0  0  0  0  0  0  0  0
  -26.2374  -15.3695   22.7431 C   0  0  0  0  0  0  0  0  0  0  0  0
  -24.1303  -18.1193   11.2580 C   0  0  0  0  0  0  0  0  0  0  0  0
  -26.8107  -18.8510   16.9206 C   0  0  0  0  0  0  0  0  0  0  0  0
  -28.4418  -18.8658   18.8819 C   0  0  0  0  0  0  0  0  0  0  0  0
  -18.3337  -29.2531   22.2725 C   0  0  0  0  0  0  0  0  0  0  0  0
  -24.8685  -25.5944   24.4607 C   0  0  0  0  0  0  0  0  0  0  0  0
  -19.0442  -28.3498   23.0859 C   0  0  0  0  0  0  0  0  0  0  0  0
  -25.2430  -24.9661   23.2643 C   0  0  0  0  0  0  0  0  0  0  0  0
  -26.9957  -16.2219   23.5455 C   0  0  0  0  0  0  0  0  0  0  0  0
  -27.7490  -13.5528   23.2445 C   0  0  0  0  0  0  0  0  0  0  0  0
  -26.6140  -14.0349   22.5926 C   0  0  0  0  0  0  0  0  0  0  0  0
  -25.3213  -20.0530   14.8909 C   0  0  0  0  0  0  0  0  0  0  0  0
  -25.9030  -22.9929   24.5216 C   0  0  0  0  0  0  0  0  0  0  0  0
  -24.5963  -20.0341   12.6557 C   0  0  0  0  0  0  0  0  0  0  0  0
  -24.5999  -18.8172   10.1453 C   0  0  0  0  0  0  0  0  0  0  0  0
  -24.1285  -18.7277   12.5132 C   0  0  0  0  0  0  0  0  0  0  0  0
  -27.5793  -18.2297   17.9691 C   0  0  0  0  0  0  0  0  0  0  0  0
  -28.9247  -17.8464   19.6655 C   0  0  0  0  0  0  0  0  0  0  0  0
  -26.1208  -19.4697   23.8273 C   0  0  0  0  0  0  0  0  0  0  0  0
  -25.5917  -18.2610   23.1944 C   0  0  0  0  0  0  0  0  0  0  0  0
  -23.8284  -13.4674   23.0572 C   0  0  0  0  0  0  0  0  0  0  0  0
  -25.7212  -20.7536   23.8710 C   0  0  0  0  0  0  0  0  0  1  0  0
  -24.4722  -12.9269   22.0203 C   0  0  0  0  0  0  0  0  0  0  0  0
  -28.7766  -20.2541   19.0100 C   0  0  0  0  0  0  0  0  0  0  0  0
  -22.3839  -26.7830   22.8740 C   0  0  0  0  0  0  0  0  0  0  0  0
  -24.6881  -27.9127   20.8899 C   0  0  0  0  0  0  0  0  0  0  0  0
  -27.8638  -27.6204   19.6748 C   0  0  0  0  0  0  0  0  0  0  0  0
  -26.4487  -12.4226   20.7295 C   0  0  0  0  0  0  0  0  0  0  0  0
  -18.4066  -29.1915   20.7674 C   0  0  0  0  0  0  0  0  0  0  0  0
  -24.3405  -27.0027   24.4486 C   0  0  0  0  0  0  0  0  0  0  0  0
  -25.1039  -25.6525   21.9309 C   0  0  0  0  0  0  0  0  0  0  0  0
  -27.2646  -18.6484   24.3768 C   0  0  0  0  0  0  0  0  0  0  0  0
  -19.6051  -28.4019   20.2474 C   0  0  0  0  0  0  0  0  0  0  0  0
  -29.9118  -13.1746   19.5621 C   0  0  0  0  0  0  0  0  0  0  0  0
  -19.7419  -27.0821   20.9998 C   0  0  0  0  0  0  0  0  0  0  0  0
  -29.7473  -14.6038   19.0475 C   0  0  0  0  0  0  0  0  0  0  0  0
  -28.6203  -12.3800   19.4086 C   0  0  0  0  0  0  0  0  0  0  0  0
  -27.2668  -14.4470   19.5582 C   0  0  0  0  0  0  0  0  0  0  0  0
  -19.9846  -27.3220   22.4948 C   0  0  1  0  0  0  0  0  0  0  0  0
  -23.7332  -27.4017   23.1072 C   0  0  1  0  0  0  0  0  0  0  0  0
  -28.5422  -15.2931   19.7101 C   0  0  2  0  0  0  0  0  0  0  0  0
  -29.4496  -28.6661   18.0350 C   0  0  0  0  0  0  0  0  0  0  0  0
  -23.1887  -26.5775   18.5922 C   0  0  0  0  0  0  0  0  0  0  0  0
  -25.2504  -26.8272   17.1939 C   0  0  0  0  0  0  0  0  0  0  0  0
  -24.0867  -28.8524   18.0697 C   0  0  0  0  0  0  0  0  0  0  0  0
  -29.7971  -28.3095   21.8070 C   0  0  0  0  0  0  0  0  0  0  0  0
  -25.3939  -27.3879   19.6630 C   0  0  1  0  0  0  0  0  0  0  0  0
  -28.9647  -28.6465   19.4763 C   0  0  2  0  0  0  0  0  0  0  0  0
  -24.4809  -27.3973   18.4045 C   0  0  0  0  0  0  0  0  0  0  0  0
  -27.5159  -16.9085   18.1544 N   0  0  0  0  0  0  0  0  0  0  0  0
  -28.3449  -16.7061   19.1927 N   0  0  0  0  0  0  0  0  0  0  0  0
  -26.6228  -17.5374   23.6965 N   0  0  0  0  0  0  0  0  0  0  0  0
  -24.5770  -27.0266   21.9708 N   0  0  0  0  0  0  0  0  0  0  0  0
  -27.4829  -13.0762   20.0274 N   0  0  0  0  0  0  0  0  0  0  0  0
  -28.1502  -12.2051   23.1045 N   0  0  0  0  0  0  0  0  0  0  0  0
  -29.7846  -17.8232   20.7059 N   0  0  0  0  0  0  0  0  0  0  0  0
  -28.1903  -21.1673   18.1231 N   0  0  0  0  0  0  0  0  0  0  0  0
  -21.3615  -27.7012   22.7289 N   0  0  0  0  0  0  0  0  0  0  0  0
  -26.6121  -28.1785   19.5233 N   0  0  0  0  0  0  0  0  0  0  0  0
  -25.8102  -13.1686   21.7545 N   0  0  0  0  0  0  0  0  0  0  0  0
  -30.1256  -28.3380   20.3585 N   0  3  0  0  0  0  0  0  0  0  0  0
  -24.6335  -18.0055   22.4951 O   0  0  0  0  0  0  0  0  0  0  0  0
  -29.5847  -20.6702   19.8745 O   0  0  0  0  0  0  0  0  0  0  0  0
  -22.2784  -25.5630   22.8277 O   0  0  0  0  0  0  0  0  0  0  0  0
  -24.2577  -29.0687   20.8919 O   0  0  0  0  0  0  0  0  0  0  0  0
  -28.0915  -26.4409   19.9345 O   0  0  0  0  0  0  0  0  0  0  0  0
  -26.0998  -11.2688   20.4478 O   0  0  0  0  0  0  0  0  0  0  0  0
  -24.5944  -20.6398   13.9010 O   0  0  0  0  0  0  0  0  0  0  0  0
  -26.4018  -21.7270   24.5470 O   0  0  0  0  0  0  0  0  0  1  0  0
  -24.6003  -18.2337    8.9397 F   0  0  0  0  0  0  0  0  0  0  0  0
  -23.6750  -18.0526   13.5783 F   0  0  0  0  0  0  0  0  0  0  0  0
  1  2  1  0  0  0  0
  1  5  2  0  0  0  0
  2  6  2  0  0  0  0
  3 10  2  0  0  0  0
  3 18  1  0  0  0  0
  4 11  1  0  0  0  0
  4 18  2  0  0  0  0
  5 20  1  0  0  0  0
  6 22  1  0  0  0  0
  7 12  2  0  0  0  0
  7 21  1  0  0  0  0
  8  9  2  0  0  0  0
  8 24  1  0  0  0  0
  9 25  1  0  0  0  0
 10 27  1  0  0  0  0
 11 27  2  0  0  0  0
 12 28  1  0  0  0  0
 13 14  2  0  0  0  0
 13 29  1  0  0  0  0
 14 30  1  0  0  0  0
 15 23  1  0  0  0  0
 15 28  2  0  0  0  0
 16 24  2  0  0  0  0
 16 26  1  0  0  0  0
 17 30  2  0  0  0  0
 17 31  1  0  0  0  0
 18 32  1  0  0  0  0
 19 32  1  0  0  0  0
 19 33  2  0  0  0  0
 19 39  1  0  0  0  0
 20 22  2  0  0  0  0
 20 44  1  0  0  0  0
 21 23  2  0  0  0  0
 21 45  1  0  0  0  0
 22 54  1  0  0  0  0
 23 46  1  0  0  0  0
 24 67  1  0  0  0  0
 25 26  2  0  0  0  0
 25 70  1  0  0  0  0
 26 75  1  0  0  0  0
 27 83  1  0  0  0  0
 28 84  1  0  0  0  0
 29 31  2  0  0  0  0
 29 83  1  0  0  0  0
 30 85  1  0  0  0  0
 31 86  1  0  0  0  0
 32 65  2  0  0  0  0
 33 66  1  0  0  0  0
 33 71  1  0  0  0  0
 34 35  1  0  0  0  0
 34 37  2  0  0  0  0
 34 47  1  0  0  0  0
 35 67  1  0  0  0  0
 35 77  2  0  0  0  0
 36 38  2  0  0  0  0
 37 84  1  0  0  0  0
 38 75  1  0  0  0  0
 39 72  1  0  0  0  0
 39 78  2  0  0  0  0
 40 55  1  0  0  0  0
 40 73  1  0  0  0  0
 40 79  2  0  0  0  0
 41 62  1  0  0  0  0
 41 68  1  0  0  0  0
 41 80  2  0  0  0  0
 42 63  1  0  0  0  0
 42 74  1  0  0  0  0
 42 81  2  0  0  0  0
 43 69  1  0  0  0  0
 43 75  1  0  0  0  0
 43 82  2  0  0  0  0
 44 48  1  0  0  0  0
 45 55  1  0  0  0  0
 46 68  1  0  0  0  0
 47 67  1  0  0  0  0
 48 50  1  0  0  0  0
 49 51  1  0  0  0  0
 49 52  1  0  0  0  0
 50 54  1  0  0  0  0
 51 56  1  0  0  0  0
 52 69  1  0  0  0  0
 53 56  1  0  0  0  0
 53 69  1  0  0  0  0
 54 73  1  0  0  0  0
 55 68  1  0  0  0  0
 56 66  1  0  0  0  0
 57 63  1  0  0  0  0
 58 64  1  0  0  0  0
 59 64  1  0  0  0  0
 60 64  1  0  0  0  0
 61 76  1  0  0  0  0
 62 64  1  0  0  0  0
 62 74  1  0  0  0  0
 63 76  1  0  0  0  0
 65 66  1  0  0  0  0
M  CHG  1  76   1
M  ISO  4  37 101  43 100  75 100  84 101
M  END
> <Batch ID>
0070

> <Smiles>
C=C[100N:0](c1cc(N2CC(=[101CH:1][101O:1]c3ccc4c(c3)CN(C(=O)C(NC(=O)C(C)NC)C(C)(C)C)C(C(=O)NC3CCCc5ccccc53)C4)C2=O)ccc1N)[100C:0](=O)N1CCCC(n2nc(-c3ccc(Oc4ccc(F)cc4F)cc3)c(C(N)=O)c2N)C1

> <Shape>
0.185

> <Color>
0.083

> <Negative vol penalty>
0.000

$$$$

  -OEChem-04042323323D

 85 93  0     1  0  0  0  0  0999 V2000
  -31.7244  -18.2653   22.8078 C   0  0  0  0  0  0  0  0  0  0  0  0
  -30.4623  -18.8091   22.5912 C   0  0  0  0  0  0  0  0  0  0  0  0
  -26.2266  -18.7297   18.2064 C   0  0  0  0  0  0  0  0  0  0  0  0
  -24.4234  -29.0796   22.7430 C   0  0  0  0  0  0  0  0  0  0  0  0
  -25.0669  -30.6201   20.9966 C   0  0  0  0  0  0  0  0  0  0  0  0
  -27.4725  -19.3246   18.4043 C   0  0  0  0  0  0  0  0  0  0  0  0
  -31.9999  -16.9613   22.3986 C   0  0  0  0  0  0  0  0  0  0  0  0
  -29.4753  -18.0494   21.9643 C   0  0  0  0  0  0  0  0  0  0  0  0
  -24.9865  -18.4030   24.2818 C   0  0  0  0  0  0  0  0  0  0  0  0
  -25.1273  -19.1468   18.9570 C   0  0  0  0  0  0  0  0  0  0  0  0
  -23.8812  -30.1359   23.4750 C   0  0  0  0  0  0  0  0  0  0  0  0
  -24.5246  -31.6764   21.7286 C   0  0  0  0  0  0  0  0  0  0  0  0
  -24.2380  -19.5556   24.0475 C   0  0  0  0  0  0  0  0  0  0  0  0
  -23.6313  -34.8301   23.2991 C   0  0  0  0  0  0  0  0  0  0  0  0
  -24.3812  -36.0019   23.3990 C   0  0  0  0  0  0  0  0  0  0  0  0
  -26.5202  -20.7538   20.1036 C   0  0  0  0  0  0  0  0  0  0  0  0
  -22.8987  -18.3523   22.4420 C   0  0  0  0  0  0  0  0  0  0  0  0
  -26.1648  -34.7695   24.4654 C   0  0  0  0  0  0  0  0  0  0  0  0
  -25.0163  -29.3217   21.5038 C   0  0  0  0  0  0  0  0  0  0  0  0
  -27.6193  -20.3366   19.3529 C   0  0  0  0  0  0  0  0  0  0  0  0
  -24.9183  -27.4286   19.7967 C   0  0  0  0  0  0  0  0  0  0  0  0
  -31.0128  -16.1819   21.7750 C   0  0  0  0  0  0  0  0  0  0  0  0
  -24.7032  -17.2172   23.5888 C   0  0  0  0  0  0  0  0  0  0  0  0
  -29.7382  -16.7341   21.5451 C   0  0  0  0  0  0  0  0  0  0  0  0
  -23.6434  -17.1853   22.6712 C   0  0  0  0  0  0  0  0  0  0  0  0
  -25.2741  -20.1588   19.9056 C   0  0  0  0  0  0  0  0  0  0  0  0
  -23.9318  -31.4343   22.9678 C   0  0  0  0  0  0  0  0  0  0  0  0
  -23.1958  -19.5312   23.1254 C   0  0  0  0  0  0  0  0  0  0  0  0
  -24.1481  -33.6279   23.7824 C   0  0  0  0  0  0  0  0  0  0  0  0
  -25.6480  -35.9716   23.9821 C   0  0  0  0  0  0  0  0  0  0  0  0
  -25.4148  -33.5977   24.3655 C   0  0  0  0  0  0  0  0  0  0  0  0
  -25.5771  -28.2310   20.7474 C   0  0  0  0  0  0  0  0  0  0  0  0
  -25.8785  -26.5444   19.3693 C   0  0  0  0  0  0  0  0  0  0  0  0
  -28.9469  -20.9694   19.5626 C   0  0  0  0  0  0  0  0  0  0  0  0
  -23.5599  -27.4782   19.3405 C   0  0  0  0  0  0  0  0  0  0  0  0
  -26.3058  -15.3663   21.5616 C   0  0  0  0  0  0  0  0  0  0  0  0
  -23.7103  -13.4456   21.8723 C   0  0  0  0  0  0  0  0  0  0  0  0
  -20.3956  -13.1544   22.6304 C   0  0  0  0  0  0  0  0  0  0  0  0
  -22.8539  -20.1044   20.6017 C   0  0  0  0  0  0  0  0  0  0  0  0
  -30.0565  -23.0385   20.3443 C   0  0  0  0  0  0  0  0  0  0  0  0
  -31.3719  -14.7936   21.3076 C   0  0  0  0  0  0  0  0  0  0  0  0
  -25.5028  -15.9752   23.8725 C   0  0  0  0  0  0  0  0  0  0  0  0
  -23.2858  -15.9322   21.9161 C   0  0  0  0  0  0  0  0  0  0  0  0
  -30.1576  -13.9256   20.9875 C   0  0  0  0  0  0  0  0  0  0  0  0
  -30.8805  -26.4714   20.1619 C   0  0  0  0  0  0  0  0  0  0  0  0
  -29.1551  -14.7019   20.1395 C   0  0  0  0  0  0  0  0  0  0  0  0
  -29.5202  -27.1724   20.2115 C   0  0  0  0  0  0  0  0  0  0  0  0
  -30.9205  -25.2451   21.0726 C   0  0  0  0  0  0  0  0  0  0  0  0
  -28.4781  -24.9819   20.9184 C   0  0  0  0  0  0  0  0  0  0  0  0
  -28.6337  -15.9330   20.8906 C   0  0  1  0  0  0  0  0  0  0  0  0
  -25.4566  -14.9616   22.7333 C   0  0  1  0  0  0  0  0  0  0  0  0
  -28.3643  -26.1823   19.9649 C   0  0  1  0  0  0  0  0  0  0  0  0
  -18.5450  -11.4643   22.7574 C   0  0  0  0  0  0  0  0  0  0  0  0
  -21.8435  -22.3125   21.3137 C   0  0  0  0  0  0  0  0  0  0  0  0
  -20.5151  -20.1850   21.5879 C   0  0  0  0  0  0  0  0  0  0  0  0
  -23.4894  -13.4624   18.8291 C   0  0  0  0  0  0  0  0  0  0  0  0
  -21.1536  -12.5920   19.0635 C   0  0  0  0  0  0  0  0  0  0  0  0
  -23.0768  -11.2369   19.8927 C   0  0  0  0  0  0  0  0  0  0  0  0
  -20.0064  -13.6265   25.5260 C   0  0  0  0  0  0  0  0  0  0  0  0
  -22.3865  -13.3135   21.1588 C   0  0  1  0  0  0  0  0  0  0  0  0
  -19.6481  -12.1794   23.5220 C   0  0  2  0  0  0  0  0  0  0  0  0
  -21.9088  -20.8117   21.5891 C   0  0  0  0  0  0  0  0  0  1  0  0
  -22.5343  -12.6755   19.7487 C   0  0  0  0  0  0  0  0  0  0  0  0
  -26.8568  -27.8869   20.9147 N   0  0  0  0  0  0  0  0  0  0  0  0
  -27.0098  -26.8584   20.0633 N   0  0  0  0  0  0  0  0  0  0  0  0
  -24.1010  -14.7454   22.2237 N   0  0  0  0  0  0  0  0  0  0  0  0
  -29.7995  -24.3537   20.7692 N   0  0  0  0  0  0  0  0  0  0  0  0
  -25.8569  -25.5366   18.4714 N   0  0  0  0  0  0  0  0  0  0  0  0
  -22.7077  -28.4491   19.8840 N   0  0  0  0  0  0  0  0  0  0  0  0
  -24.1583  -20.5823   20.6671 N   0  0  0  0  0  0  0  0  0  0  0  0
  -28.9207  -22.2806   20.0385 N   0  0  0  0  0  0  0  0  0  0  0  0
  -27.6410  -15.5450   21.8695 N   0  0  0  0  0  0  0  0  0  0  0  0
  -21.5090  -12.5745   22.0601 N   0  0  0  0  0  0  0  0  0  0  0  0
  -19.0323  -12.8978   24.6733 N   0  3  0  0  0  0  0  0  0  0  0  0
  -29.9626  -20.3125   19.3510 O   0  0  0  0  0  0  0  0  0  0  0  0
  -23.1107  -26.6745   18.4886 O   0  0  0  0  0  0  0  0  0  0  0  0
  -25.7882  -15.5047   20.4595 O   0  0  0  0  0  0  0  0  0  0  0  0
  -24.3700  -12.4320   22.1154 O   0  0  0  0  0  0  0  0  0  0  0  0
  -20.0265  -14.3134   22.4543 O   0  0  0  0  0  0  0  0  0  0  0  0
  -22.4365  -19.2181   19.8591 O   0  0  0  0  0  0  0  0  0  0  0  0
  -31.1994  -22.5896   20.2117 O   0  0  0  0  0  0  0  0  0  0  0  0
  -23.4026  -32.4653   23.6817 O   0  0  0  0  0  0  0  0  0  0  0  0
  -22.4640  -20.6550   22.8943 O   0  0  0  0  0  0  0  0  0  1  0  0
  -26.3687  -37.0967   24.0766 F   0  0  0  0  0  0  0  0  0  0  0  0
  -25.9171  -32.4456   24.8305 F   0  0  0  0  0  0  0  0  0  0  0  0
  1  2  1  0  0  0  0
  1  7  2  0  0  0  0
  2  8  2  0  0  0  0
  3  6  1  0  0  0  0
  3 10  2  0  0  0  0
  4 11  2  0  0  0  0
  4 19  1  0  0  0  0
  5 12  1  0  0  0  0
  5 19  2  0  0  0  0
  6 20  2  0  0  0  0
  7 22  1  0  0  0  0
  8 24  1  0  0  0  0
  9 13  2  0  0  0  0
  9 23  1  0  0  0  0
 10 26  1  0  0  0  0
 11 27  1  0  0  0  0
 12 27  2  0  0  0  0
 13 28  1  0  0  0  0
 14 15  2  0  0  0  0
 14 29  1  0  0  0  0
 15 30  1  0  0  0  0
 16 20  1  0  0  0  0
 16 26  2  0  0  0  0
 17 25  1  0  0  0  0
 17 28  2  0  0  0  0
 18 30  2  0  0  0  0
 18 31  1  0  0  0  0
 19 32  1  0  0  0  0
 20 34  1  0  0  0  0
 21 32  1  0  0  0  0
 21 33  2  0  0  0  0
 21 35  1  0  0  0  0
 22 24  2  0  0  0  0
 22 41  1  0  0  0  0
 23 25  2  0  0  0  0
 23 42  1  0  0  0  0
 24 50  1  0  0  0  0
 25 43  1  0  0  0  0
 26 70  1  0  0  0  0
 27 82  1  0  0  0  0
 28 83  1  0  0  0  0
 29 31  2  0  0  0  0
 29 82  1  0  0  0  0
 30 84  1  0  0  0  0
 31 85  1  0  0  0  0
 32 64  2  0  0  0  0
 33 65  1  0  0  0  0
 33 68  1  0  0  0  0
 34 71  1  0  0  0  0
 34 75  2  0  0  0  0
 35 69  1  0  0  0  0
 35 76  2  0  0  0  0
 36 51  1  0  0  0  0
 36 72  1  0  0  0  0
 36 77  2  0  0  0  0
 37 60  1  0  0  0  0
 37 66  1  0  0  0  0
 37 78  2  0  0  0  0
 38 61  1  0  0  0  0
 38 73  1  0  0  0  0
 38 79  2  0  0  0  0
 39 62  1  0  0  0  0
 39 70  1  0  0  0  0
 39 80  2  0  0  0  0
 40 67  1  0  0  0  0
 40 71  1  0  0  0  0
 40 81  2  0  0  0  0
 41 44  1  0  0  0  0
 42 51  1  0  0  0  0
 43 66  1  0  0  0  0
 44 46  1  0  0  0  0
 45 47  1  0  0  0  0
 45 48  1  0  0  0  0
 46 50  1  0  0  0  0
 47 52  1  0  0  0  0
 48 67  1  0  0  0  0
 49 52  1  0  0  0  0
 49 67  1  0  0  0  0
 50 72  1  0  0  0  0
 51 66  1  0  0  0  0
 52 65  1  0  0  0  0
 53 61  1  0  0  0  0
 54 62  1  0  0  0  0
 55 62  1  0  0  0  0
 56 63  1  0  0  0  0
 57 63  1  0  0  0  0
 58 63  1  0  0  0  0
 59 74  1  0  0  0  0
 60 63  1  0  0  0  0
 60 73  1  0  0  0  0
 61 74  1  0  0  0  0
 62 83  1  0  0  0  0
 64 65  1  0  0  0  0
M  CHG  1  74   1
M  ISO  4  40 100  62 101  71 100  83 101
M  END
> <Batch ID>
0070

> <Smiles>
CNC(C)C(=O)NC(C(=O)N1Cc2cc([101O:1][101C:1](C)(C)C(=O)Nc3cccc(C(=O)[100NH:0][100C:0](=O)N4CCCC(n5nc(-c6ccc(Oc7ccc(F)cc7F)cc6)c(C(N)=O)c5N)C4)c3)ccc2CC1C(=O)NC1CCCc2ccccc21)C(C)(C)C

> <Shape>
0.266

> <Color>
0.065

> <Negative vol penalty>
0.000

$$$$

  -OEChem-04042323323D

 86 94  0     1  0  0  0  0  0999 V2000
  -22.7986  -23.3702   17.9988 C   0  0  0  0  0  0  0  0  0  0  0  0
  -23.8995  -22.7257   18.5539 C   0  0  0  0  0  0  0  0  0  0  0  0
  -22.5129  -30.7090   20.3767 C   0  0  0  0  0  0  0  0  0  0  0  0
  -22.6839  -29.0278   22.1034 C   0  0  0  0  0  0  0  0  0  0  0  0
  -21.5148  -22.8772   18.2284 C   0  0  0  0  0  0  0  0  0  0  0  0
  -23.7170  -21.5885   19.3400 C   0  0  0  0  0  0  0  0  0  0  0  0
  -26.9928  -17.8969   18.2058 C   0  0  0  0  0  0  0  0  0  0  0  0
  -21.1323  -30.5169   20.3263 C   0  0  0  0  0  0  0  0  0  0  0  0
  -21.3032  -28.8357   22.0530 C   0  0  0  0  0  0  0  0  0  0  0  0
  -28.2900  -18.0224   18.7011 C   0  0  0  0  0  0  0  0  0  0  0  0
  -18.5308  -30.3830   23.2105 C   0  0  0  0  0  0  0  0  0  0  0  0
  -17.8446  -30.3027   24.4222 C   0  0  0  0  0  0  0  0  0  0  0  0
  -29.1219  -22.5566   22.8418 C   0  0  0  0  0  0  0  0  0  0  0  0
  -27.7507  -16.4904   20.4847 C   0  0  0  0  0  0  0  0  0  0  0  0
  -30.0790  -23.3694   20.3507 C   0  0  0  0  0  0  0  0  0  0  0  0
  -17.0922  -28.0796   23.8487 C   0  0  0  0  0  0  0  0  0  0  0  0
  -23.2888  -29.9644   21.2653 C   0  0  0  0  0  0  0  0  0  0  0  0
  -29.7431  -21.6351   21.9988 C   0  0  0  0  0  0  0  0  0  0  0  0
  -25.4183  -31.0698   22.1319 C   0  0  0  0  0  0  0  0  0  0  0  0
  -21.3172  -21.7278   19.0097 C   0  0  0  0  0  0  0  0  0  0  0  0
  -26.0600  -17.0743   18.8536 C   0  0  0  0  0  0  0  0  0  0  0  0
  -22.4293  -21.0805   19.5814 C   0  0  0  0  0  0  0  0  0  0  0  0
  -26.4430  -16.3542   19.9941 C   0  0  0  0  0  0  0  0  0  0  0  0
  -29.4578  -24.2909   21.1937 C   0  0  0  0  0  0  0  0  0  0  0  0
  -20.5275  -29.5802   21.1644 C   0  0  0  0  0  0  0  0  0  0  0  0
  -28.6683  -17.3213   19.8424 C   0  0  0  0  0  0  0  0  0  0  0  0
  -18.4978  -29.3117   22.3179 C   0  0  0  0  0  0  0  0  0  0  0  0
  -17.1253  -29.1510   24.7413 C   0  0  0  0  0  0  0  0  0  0  0  0
  -28.9792  -23.8845   22.4392 C   0  0  0  0  0  0  0  0  0  0  0  0
  -30.2217  -22.0415   20.7533 C   0  0  0  0  0  0  0  0  0  0  0  0
  -17.7785  -28.1600   22.6370 C   0  0  0  0  0  0  0  0  0  0  0  0
  -24.7151  -30.1621   21.3174 C   0  0  0  0  0  0  0  0  0  0  0  0
  -26.7381  -30.8703   21.8081 C   0  0  0  0  0  0  0  0  0  0  0  0
  -29.8934  -20.2220   22.4319 C   0  0  0  0  0  0  0  0  0  0  0  0
  -24.9228  -32.0092   23.0950 C   0  0  0  0  0  0  0  0  0  0  0  0
  -23.2633  -17.5507   20.2871 C   0  0  0  0  0  0  0  0  0  0  0  0
  -23.2436  -14.3118   20.4642 C   0  0  0  0  0  0  0  0  0  0  0  0
  -25.0259  -11.4017   20.5067 C   0  0  0  0  0  0  0  0  0  0  0  0
  -29.7346  -26.2055   19.5799 C   0  0  0  0  0  0  0  0  0  0  0  0
  -19.9071  -21.2598   19.2690 C   0  0  0  0  0  0  0  0  0  0  0  0
  -24.6726  -16.9290   18.2913 C   0  0  0  0  0  0  0  0  0  0  0  0
  -25.4853  -15.4421   20.7148 C   0  0  0  0  0  0  0  0  0  0  0  0
  -19.8278  -19.8325   19.8045 C   0  0  0  0  0  0  0  0  0  0  0  0
  -29.5339  -29.4729   18.1798 C   0  0  0  0  0  0  0  0  0  0  0  0
  -20.8411  -19.6260   20.9259 C   0  0  0  0  0  0  0  0  0  0  0  0
  -28.3432  -30.1052   18.9040 C   0  0  0  0  0  0  0  0  0  0  0  0
  -29.3059  -27.9881   17.9026 C   0  0  0  0  0  0  0  0  0  0  0  0
  -27.7442  -27.8195   19.8005 C   0  0  0  0  0  0  0  0  0  0  0  0
  -22.2739  -19.8299   20.4192 C   0  0  1  0  0  0  0  0  0  0  0  0
  -23.6539  -16.4630   19.3269 C   0  0  1  0  0  0  0  0  0  0  0  0
  -27.9545  -29.2996   20.1592 C   0  0  2  0  0  0  0  0  0  0  0  0
  -24.7356   -8.9166   20.6998 C   0  0  0  0  0  0  0  0  0  0  0  0
  -22.7624  -14.6036   23.4631 C   0  0  0  0  0  0  0  0  0  0  0  0
  -23.4238  -12.2039   23.7321 C   0  0  0  0  0  0  0  0  0  0  0  0
  -21.4255  -12.7991   22.3627 C   0  0  0  0  0  0  0  0  0  0  0  0
  -32.5592  -17.7403   21.5288 C   0  0  0  0  0  0  0  0  0  0  0  0
  -31.4472  -18.0230   23.7578 C   0  0  0  0  0  0  0  0  0  0  0  0
  -26.2119  -10.9388   17.8349 C   0  0  0  0  0  0  0  0  0  0  0  0
  -30.1056  -17.2916   21.7369 C   0  0  0  0  0  0  0  0  0  1  0  0
  -23.7362  -13.2928   21.4632 C   0  0  1  0  0  0  0  0  0  0  0  0
  -24.8450  -10.0986   19.7492 C   0  0  2  0  0  0  0  0  0  0  0  0
  -22.8547  -13.2435   22.7431 C   0  0  0  0  0  0  0  0  0  0  0  0
  -31.2681  -18.1653   22.2409 C   0  0  0  0  0  0  0  0  0  0  0  0
  -25.5214  -29.4398   20.5350 N   0  0  0  0  0  0  0  0  0  0  0  0
  -26.7449  -29.8935   20.8563 N   0  0  0  0  0  0  0  0  0  0  0  0
  -24.1382  -15.3383   20.1298 N   0  0  0  0  0  0  0  0  0  0  0  0
  -28.9457  -27.2884   19.1378 N   0  0  0  0  0  0  0  0  0  0  0  0
  -27.8818  -31.4369   22.2476 N   0  0  0  0  0  0  0  0  0  0  0  0
  -23.5390  -32.0845   23.3043 N   0  0  0  0  0  0  0  0  0  0  0  0
  -29.3145  -25.6395   20.7832 N   0  0  0  0  0  0  0  0  0  0  0  0
  -30.9963  -19.5590   21.9297 N   0  0  0  0  0  0  0  0  0  0  0  0
  -22.7193  -18.6673   19.6814 N   0  0  0  0  0  0  0  0  0  0  0  0
  -23.8195  -12.0251   20.7459 N   0  0  0  0  0  0  0  0  0  0  0  0
  -26.0012   -9.8640   18.8386 N   0  3  0  0  0  0  0  0  0  0  0  0
  -29.0468  -19.7280   23.1720 O   0  0  0  0  0  0  0  0  0  0  0  0
  -25.6834  -32.7712   23.7387 O   0  0  0  0  0  0  0  0  0  0  0  0
  -23.4408  -17.3884   21.4887 O   0  0  0  0  0  0  0  0  0  0  0  0
  -22.1097  -14.1971   19.9924 O   0  0  0  0  0  0  0  0  0  0  0  0
  -26.1269  -11.8225   20.8548 O   0  0  0  0  0  0  0  0  0  0  0  0
  -30.7270  -25.8267   18.9525 O   0  0  0  0  0  0  0  0  0  0  0  0
  -19.1802  -29.3926   21.1157 O   0  0  0  0  0  0  0  0  0  0  0  0
  -29.9336  -17.4425   20.3283 O   0  0  0  0  0  0  0  0  0  1  0  0
  -16.4676  -29.0735   25.9056 F   0  0  0  0  0  0  0  0  0  0  0  0
  -28.3803  -24.7614   23.2576 F   0  0  0  0  0  0  0  0  0  0  0  0
  -30.8216  -21.1650   19.9349 F   0  0  0  0  0  0  0  0  0  0  0  0
  -17.7440  -27.1270   21.7840 F   0  0  0  0  0  0  0  0  0  0  0  0
  1  2  1  0  0  0  0
  1  5  2  0  0  0  0
  2  6  2  0  0  0  0
  3  8  2  0  0  0  0
  3 17  1  0  0  0  0
  4  9  1  0  0  0  0
  4 17  2  0  0  0  0
  5 20  1  0  0  0  0
  6 22  1  0  0  0  0
  7 10  2  0  0  0  0
  7 21  1  0  0  0  0
  8 25  1  0  0  0  0
  9 25  2  0  0  0  0
 10 26  1  0  0  0  0
 11 12  2  0  0  0  0
 11 27  1  0  0  0  0
 12 28  1  0  0  0  0
 13 18  1  0  0  0  0
 13 29  2  0  0  0  0
 14 23  1  0  0  0  0
 14 26  2  0  0  0  0
 15 24  2  0  0  0  0
 15 30  1  0  0  0  0
 16 28  2  0  0  0  0
 16 31  1  0  0  0  0
 17 32  1  0  0  0  0
 18 30  2  0  0  0  0
 18 34  1  0  0  0  0
 19 32  1  0  0  0  0
 19 33  2  0  0  0  0
 19 35  1  0  0  0  0
 20 22  2  0  0  0  0
 20 40  1  0  0  0  0
 21 23  2  0  0  0  0
 21 41  1  0  0  0  0
 22 49  1  0  0  0  0
 23 42  1  0  0  0  0
 24 29  1  0  0  0  0
 24 70  1  0  0  0  0
 25 81  1  0  0  0  0
 26 82  1  0  0  0  0
 27 31  2  0  0  0  0
 27 81  1  0  0  0  0
 28 83  1  0  0  0  0
 29 84  1  0  0  0  0
 30 85  1  0  0  0  0
 31 86  1  0  0  0  0
 32 64  2  0  0  0  0
 33 65  1  0  0  0  0
 33 68  1  0  0  0  0
 34 71  1  0  0  0  0
 34 75  2  0  0  0  0
 35 69  1  0  0  0  0
 35 76  2  0  0  0  0
 36 50  1  0  0  0  0
 36 72  1  0  0  0  0
 36 77  2  0  0  0  0
 37 60  1  0  0  0  0
 37 66  1  0  0  0  0
 37 78  2  0  0  0  0
 38 61  1  0  0  0  0
 38 73  1  0  0  0  0
 38 79  2  0  0  0  0
 39 67  1  0  0  0  0
 39 70  1  0  0  0  0
 39 80  2  0  0  0  0
 40 43  1  0  0  0  0
 41 50  1  0  0  0  0
 42 66  1  0  0  0  0
 43 45  1  0  0  0  0
 44 46  1  0  0  0  0
 44 47  1  0  0  0  0
 45 49  1  0  0  0  0
 46 51  1  0  0  0  0
 47 67  1  0  0  0  0
 48 51  1  0  0  0  0
 48 67  1  0  0  0  0
 49 72  1  0  0  0  0
 50 66  1  0  0  0  0
 51 65  1  0  0  0  0
 52 61  1  0  0  0  0
 53 62  1  0  0  0  0
 54 62  1  0  0  0  0
 55 62  1  0  0  0  0
 56 63  1  0  0  0  0
 57 63  1  0  0  0  0
 58 74  1  0  0  0  0
 59 63  1  0  0  0  0
 59 82  1  0  0  0  0
 60 62  1  0  0  0  0
 60 73  1  0  0  0  0
 61 74  1  0  0  0  0
 63 71  1  0  0  0  0
 64 65  1  0  0  0  0
M  CHG  1  74   1
M  ISO  4  39 100  59 101  70 100  82 101
M  END
> <Batch ID>
0070

> <Smiles>
CNC(C)C(=O)NC(C(=O)N1Cc2cc([101O:1][101CH2:1]C(C)(C)NC(=O)c3cc(F)c([100NH:0][100C:0](=O)N4CCCC(n5nc(-c6ccc(Oc7ccc(F)cc7F)cc6)c(C(N)=O)c5N)C4)cc3F)ccc2CC1C(=O)NC1CCCc2ccccc21)C(C)(C)C

> <Shape>
0.264

> <Color>
0.074

> <Negative vol penalty>
0.000

$$$$

  -OEChem-04042323323D

 86 95  0     1  0  0  0  0  0999 V2000
  -29.3374  -33.7449   26.9560 C   0  0  0  0  0  0  0  0  0  0  0  0
  -29.1846  -32.5433   26.2719 C   0  0  0  0  0  0  0  0  0  0  0  0
  -23.8259   -9.6148   19.9064 C   0  0  0  0  0  0  0  0  0  0  0  0
  -24.4884   -9.8337   22.2195 C   0  0  0  0  0  0  0  0  0  0  0  0
  -28.2869  -34.6608   26.9972 C   0  0  0  0  0  0  0  0  0  0  0  0
  -27.9807  -32.2562   25.6294 C   0  0  0  0  0  0  0  0  0  0  0  0
  -28.6620  -30.3572   20.9846 C   0  0  0  0  0  0  0  0  0  0  0  0
  -29.4926  -20.5963   20.6232 C   0  0  0  0  0  0  0  0  0  0  0  0
  -29.6622  -19.2120   20.6479 C   0  0  0  0  0  0  0  0  0  0  0  0
  -23.3879   -8.3141   20.1550 C   0  0  0  0  0  0  0  0  0  0  0  0
  -24.0503   -8.5330   22.4681 C   0  0  0  0  0  0  0  0  0  0  0  0
  -29.0231  -29.0137   20.8927 C   0  0  0  0  0  0  0  0  0  0  0  0
  -21.1087   -6.9549   22.9944 C   0  0  0  0  0  0  0  0  0  0  0  0
  -20.3502   -6.7368   24.1444 C   0  0  0  0  0  0  0  0  0  0  0  0
  -26.7347  -28.4393   20.3901 C   0  0  0  0  0  0  0  0  0  0  0  0
  -27.8090  -20.4208   22.3471 C   0  0  0  0  0  0  0  0  0  0  0  0
  -22.0147   -5.1805   24.9472 C   0  0  0  0  0  0  0  0  0  0  0  0
  -24.3762  -10.3747   20.9387 C   0  0  0  0  0  0  0  0  0  0  0  0
  -24.0769  -12.9034   20.7860 C   0  0  0  0  0  0  0  0  0  0  0  0
  -27.0729  -34.3890   26.3468 C   0  0  0  0  0  0  0  0  0  0  0  0
  -27.3303  -30.7512   20.7904 C   0  0  0  0  0  0  0  0  0  0  0  0
  -26.9125  -33.1687   25.6631 C   0  0  0  0  0  0  0  0  0  0  0  0
  -26.3598  -29.7887   20.4776 C   0  0  0  0  0  0  0  0  0  0  0  0
  -27.9786  -19.0365   22.3718 C   0  0  0  0  0  0  0  0  0  0  0  0
  -28.5660  -21.2007   21.4728 C   0  0  0  0  0  0  0  0  0  0  0  0
  -28.9053  -18.4321   21.5222 C   0  0  0  0  0  0  0  0  0  0  0  0
  -23.5001   -7.7732   21.4358 C   0  0  0  0  0  0  0  0  0  0  0  0
  -28.0588  -28.0542   20.5983 C   0  0  0  0  0  0  0  0  0  0  0  0
  -22.3202   -6.2858   22.8207 C   0  0  0  0  0  0  0  0  0  0  0  0
  -20.8032   -5.8496   25.1208 C   0  0  0  0  0  0  0  0  0  0  0  0
  -22.7732   -5.3986   23.7971 C   0  0  0  0  0  0  0  0  0  0  0  0
  -24.8294  -11.7182   20.6824 C   0  0  0  0  0  0  0  0  0  0  0  0
  -24.9567  -13.9000   20.4406 C   0  0  0  0  0  0  0  0  0  0  0  0
  -28.0784  -24.5388   21.3624 C   0  0  0  0  0  0  0  0  0  0  0  0
  -27.5933  -23.4031   22.1475 C   0  0  0  0  0  0  0  0  0  0  0  0
  -27.8104  -25.8572   21.3612 C   0  0  0  0  0  0  0  0  0  1  0  0
  -22.7053  -13.0872   21.1610 C   0  0  0  0  0  0  0  0  0  0  0  0
  -25.1232  -32.1622   22.5909 C   0  0  0  0  0  0  0  0  0  0  0  0
  -23.4217  -32.1500   19.8292 C   0  0  0  0  0  0  0  0  0  0  0  0
  -22.8849  -30.7508   16.7631 C   0  0  0  0  0  0  0  0  0  0  0  0
  -29.9773  -16.2876   20.7487 C   0  0  0  0  0  0  0  0  0  0  0  0
  -25.9495  -35.3890   26.4590 C   0  0  0  0  0  0  0  0  0  0  0  0
  -26.9620  -32.2075   20.8667 C   0  0  0  0  0  0  0  0  0  0  0  0
  -24.9201  -30.1622   20.2403 C   0  0  0  0  0  0  0  0  0  0  0  0
  -28.9703  -23.5911   20.5934 C   0  0  0  0  0  0  0  0  0  0  0  0
  -24.8368  -35.1723   25.4367 C   0  0  0  0  0  0  0  0  0  0  0  0
  -29.5782  -13.6494   18.3912 C   0  0  0  0  0  0  0  0  0  0  0  0
  -24.4462  -33.6990   25.3769 C   0  0  0  0  0  0  0  0  0  0  0  0
  -28.2453  -13.0093   18.7857 C   0  0  0  0  0  0  0  0  0  0  0  0
  -30.3690  -14.1120   19.6137 C   0  0  0  0  0  0  0  0  0  0  0  0
  -28.2995  -14.3466   20.9294 C   0  0  0  0  0  0  0  0  0  0  0  0
  -25.6305  -32.8319   24.9329 C   0  0  1  0  0  0  0  0  0  0  0  0
  -25.4818  -32.4351   21.1575 C   0  0  1  0  0  0  0  0  0  0  0  0
  -27.4382  -13.9235   19.7283 C   0  0  2  0  0  0  0  0  0  0  0  0
  -21.3995  -30.9306   14.7485 C   0  0  0  0  0  0  0  0  0  0  0  0
  -21.1744  -30.7726   21.3663 C   0  0  0  0  0  0  0  0  0  0  0  0
  -20.1564  -30.1357   19.1695 C   0  0  0  0  0  0  0  0  0  0  0  0
  -20.4149  -32.5427   19.7713 C   0  0  0  0  0  0  0  0  0  0  0  0
  -25.1712  -31.3698   14.9886 C   0  0  0  0  0  0  0  0  0  0  0  0
  -27.1560  -18.2257   23.3197 C   0  0  0  0  0  0  0  0  0  0  0  0
  -22.4633  -31.1890   19.1682 C   0  0  1  0  0  0  0  0  0  0  0  0
  -22.7058  -31.3723   15.3897 C   0  0  2  0  0  0  0  0  0  0  0  0
  -21.0789  -31.1524   19.8751 C   0  0  0  0  0  0  0  0  0  0  0  0
  -26.0901  -11.9395   20.3009 N   0  0  0  0  0  0  0  0  0  0  0  0
  -26.1366  -13.2754   20.1616 N   0  0  0  0  0  0  0  0  0  0  0  0
  -28.4007  -22.5661   21.4501 N   0  0  0  0  0  0  0  0  0  0  0  0
  -24.6084  -31.5982   20.3322 N   0  0  0  0  0  0  0  0  0  0  0  0
  -29.5423  -14.9773   20.4579 N   0  0  0  0  0  0  0  0  0  0  0  0
  -24.8283  -15.2409   20.3512 N   0  0  0  0  0  0  0  0  0  0  0  0
  -21.9440  -11.9560   21.4853 N   0  0  0  0  0  0  0  0  0  0  0  0
  -29.0935  -17.0278   21.5334 N   0  0  0  0  0  0  0  0  0  0  0  0
  -25.8214  -32.9317   23.5018 N   0  0  0  0  0  0  0  0  0  0  0  0
  -22.4060  -31.5722   17.7617 N   0  0  0  0  0  0  0  0  0  0  0  0
  -23.8275  -30.9765   14.4918 N   0  3  0  0  0  0  0  0  0  0  0  0
  -26.7894  -23.2589   23.0449 O   0  0  0  0  0  0  0  0  0  0  0  0
  -22.1660  -14.2194   21.1912 O   0  0  0  0  0  0  0  0  0  0  0  0
  -24.2748  -31.3171   22.8512 O   0  0  0  0  0  0  0  0  0  0  0  0
  -23.1314  -33.3473   19.8905 O   0  0  0  0  0  0  0  0  0  0  0  0
  -23.3950  -29.6456   16.9328 O   0  0  0  0  0  0  0  0  0  0  0  0
  -31.0419  -16.7304   20.3097 O   0  0  0  0  0  0  0  0  0  0  0  0
  -23.0725   -6.5040   21.6787 O   0  0  0  0  0  0  0  0  0  0  0  0
  -28.4084  -26.7421   20.5086 O   0  0  0  0  0  0  0  0  0  1  0  0
  -20.0754   -5.6415   26.2259 F   0  0  0  0  0  0  0  0  0  0  0  0
  -23.9369   -4.7538   23.6363 F   0  0  0  0  0  0  0  0  0  0  0  0
  -27.9513  -17.5269   24.1701 F   0  0  0  0  0  0  0  0  0  0  0  0
  -26.4102  -17.3115   22.6474 F   0  0  0  0  0  0  0  0  0  0  0  0
  1  2  1  0  0  0  0
  1  5  2  0  0  0  0
  2  6  2  0  0  0  0
  3 10  2  0  0  0  0
  3 18  1  0  0  0  0
  4 11  1  0  0  0  0
  4 18  2  0  0  0  0
  5 20  1  0  0  0  0
  6 22  1  0  0  0  0
  7 12  2  0  0  0  0
  7 21  1  0  0  0  0
  8  9  2  0  0  0  0
  8 25  1  0  0  0  0
  9 26  1  0  0  0  0
 10 27  1  0  0  0  0
 11 27  2  0  0  0  0
 12 28  1  0  0  0  0
 13 14  2  0  0  0  0
 13 29  1  0  0  0  0
 14 30  1  0  0  0  0
 15 23  1  0  0  0  0
 15 28  2  0  0  0  0
 16 24  1  0  0  0  0
 16 25  2  0  0  0  0
 17 30  2  0  0  0  0
 17 31  1  0  0  0  0
 18 32  1  0  0  0  0
 19 32  1  0  0  0  0
 19 33  2  0  0  0  0
 19 37  1  0  0  0  0
 20 22  2  0  0  0  0
 20 42  1  0  0  0  0
 21 23  2  0  0  0  0
 21 43  1  0  0  0  0
 22 52  1  0  0  0  0
 23 44  1  0  0  0  0
 24 26  2  0  0  0  0
 24 60  1  0  0  0  0
 25 66  1  0  0  0  0
 26 71  1  0  0  0  0
 27 81  1  0  0  0  0
 28 82  1  0  0  0  0
 29 31  2  0  0  0  0
 29 81  1  0  0  0  0
 30 83  1  0  0  0  0
 31 84  1  0  0  0  0
 32 64  2  0  0  0  0
 33 65  1  0  0  0  0
 33 69  1  0  0  0  0
 34 35  1  0  0  0  0
 34 36  2  0  0  0  0
 34 45  1  0  0  0  0
 35 66  1  0  0  0  0
 35 75  2  0  0  0  0
 36 82  1  0  0  0  0
 37 70  1  0  0  0  0
 37 76  2  0  0  0  0
 38 53  1  0  0  0  0
 38 72  1  0  0  0  0
 38 77  2  0  0  0  0
 39 61  1  0  0  0  0
 39 67  1  0  0  0  0
 39 78  2  0  0  0  0
 40 62  1  0  0  0  0
 40 73  1  0  0  0  0
 40 79  2  0  0  0  0
 41 68  1  0  0  0  0
 41 71  1  0  0  0  0
 41 80  2  0  0  0  0
 42 46  1  0  0  0  0
 43 53  1  0  0  0  0
 44 67  1  0  0  0  0
 45 66  1  0  0  0  0
 46 48  1  0  0  0  0
 47 49  1  0  0  0  0
 47 50  1  0  0  0  0
 48 52  1  0  0  0  0
 49 54  1  0  0  0  0
 50 68  1  0  0  0  0
 51 54  1  0  0  0  0
 51 68  1  0  0  0  0
 52 72  1  0  0  0  0
 53 67  1  0  0  0  0
 54 65  1  0  0  0  0
 55 62  1  0  0  0  0
 56 63  1  0  0  0  0
 57 63  1  0  0  0  0
 58 63  1  0  0  0  0
 59 74  1  0  0  0  0
 60 85  1  0  0  0  0
 60 86  1  0  0  0  0
 61 63  1  0  0  0  0
 61 73  1  0  0  0  0
 62 74  1  0  0  0  0
 64 65  1  0  0  0  0
M  CHG  1  74   1
M  ISO  4  36 101  41 100  71 100  82 101
M  END
> <Batch ID>
0070

> <Smiles>
CNC(C)C(=O)NC(C(=O)N1Cc2cc([101O:1][101CH:1]=C3CN(c4ccc([100NH:0][100C:0](=O)N5CCCC(n6nc(-c7ccc(Oc8ccc(F)cc8F)cc7)c(C(N)=O)c6N)C5)c(C(F)F)c4)C3=O)ccc2CC1C(=O)NC1CCCc2ccccc21)C(C)(C)C

> <Shape>
0.317

> <Color>
0.141

> <Negative vol penalty>
0.000

$$$$

  -OEChem-04042323323D

 88 97  0     1  0  0  0  0  0999 V2000
  -27.6439  -37.4861   21.0886 C   0  0  0  0  0  0  0  0  0  0  0  0
  -28.4703  -36.7352   21.9184 C   0  0  0  0  0  0  0  0  0  0  0  0
  -24.6069   -9.2959   21.5536 C   0  0  0  0  0  0  0  0  0  0  0  0
  -24.1854  -10.6779   23.4900 C   0  0  0  0  0  0  0  0  0  0  0  0
  -26.2719  -37.5345   21.3319 C   0  0  0  0  0  0  0  0  0  0  0  0
  -27.9252  -36.0330   22.9928 C   0  0  0  0  0  0  0  0  0  0  0  0
  -28.3610  -28.4308   24.7373 C   0  0  0  0  0  0  0  0  0  0  0  0
  -24.3262   -8.1556   22.3063 C   0  0  0  0  0  0  0  0  0  0  0  0
  -23.9047   -9.5376   24.2427 C   0  0  0  0  0  0  0  0  0  0  0  0
  -28.2345  -27.0809   25.0656 C   0  0  0  0  0  0  0  0  0  0  0  0
  -21.5856   -6.5261   23.4318 C   0  0  0  0  0  0  0  0  0  0  0  0
  -20.7640   -5.5563   22.8574 C   0  0  0  0  0  0  0  0  0  0  0  0
  -26.1373  -27.5374   26.1798 C   0  0  0  0  0  0  0  0  0  0  0  0
  -28.2689  -22.3406   22.5775 C   0  0  0  0  0  0  0  0  0  0  0  0
  -27.1585  -20.6196   23.8590 C   0  0  0  0  0  0  0  0  0  0  0  0
  -22.5445   -3.9345   23.0491 C   0  0  0  0  0  0  0  0  0  0  0  0
  -24.5366  -10.5570   22.1454 C   0  0  0  0  0  0  0  0  0  0  0  0
  -23.9168  -12.5060   20.6206 C   0  0  0  0  0  0  0  0  0  0  0  0
  -25.7085  -36.8249   22.4041 C   0  0  0  0  0  0  0  0  0  0  0  0
  -27.3674  -29.3378   25.1162 C   0  0  0  0  0  0  0  0  0  0  0  0
  -26.5446  -36.0731   23.2516 C   0  0  0  0  0  0  0  0  0  0  0  0
  -26.2525  -28.8888   25.8430 C   0  0  0  0  0  0  0  0  0  0  0  0
  -28.1273  -21.5718   21.4223 C   0  0  0  0  0  0  0  0  0  0  0  0
  -27.5012  -20.3270   21.4854 C   0  0  0  0  0  0  0  0  0  0  0  0
  -27.7845  -21.8645   23.7958 C   0  0  0  0  0  0  0  0  0  0  0  0
  -23.9751   -8.2765   23.6509 C   0  0  0  0  0  0  0  0  0  0  0  0
  -27.1255  -26.6354   25.7853 C   0  0  0  0  0  0  0  0  0  0  0  0
  -22.8867   -6.2002   23.8148 C   0  0  0  0  0  0  0  0  0  0  0  0
  -21.2434   -4.2604   22.6661 C   0  0  0  0  0  0  0  0  0  0  0  0
  -27.0168  -19.8508   22.7037 C   0  0  0  0  0  0  0  0  0  0  0  0
  -23.3661   -4.9044   23.6235 C   0  0  0  0  0  0  0  0  0  0  0  0
  -24.8270  -11.7352   21.3686 C   0  0  0  0  0  0  0  0  0  0  0  0
  -24.6825  -13.5068   20.0740 C   0  0  0  0  0  0  0  0  0  0  0  0
  -27.4939  -22.3075   26.2747 C   0  0  0  0  0  0  0  0  0  0  0  0
  -22.5055  -12.3328   20.4364 C   0  0  0  0  0  0  0  0  0  0  0  0
  -26.1506  -32.8866   25.0801 C   0  0  0  0  0  0  0  0  0  0  0  0
  -23.7011  -31.0999   24.6129 C   0  0  0  0  0  0  0  0  0  0  0  0
  -21.3387  -28.8117   23.7071 C   0  0  0  0  0  0  0  0  0  0  0  0
  -28.6523  -17.4018   20.5369 C   0  0  0  0  0  0  0  0  0  0  0  0
  -24.2263  -36.9458   22.6557 C   0  0  0  0  0  0  0  0  0  0  0  0
  -27.4922  -30.8111   24.8375 C   0  0  0  0  0  0  0  0  0  0  0  0
  -25.2254  -29.9060   26.2594 C   0  0  0  0  0  0  0  0  0  0  0  0
  -23.6778  -35.8717   23.5915 C   0  0  0  0  0  0  0  0  0  0  0  0
  -29.7052  -14.0678   19.8637 C   0  0  0  0  0  0  0  0  0  0  0  0
  -24.5758  -35.7206   24.8153 C   0  0  0  0  0  0  0  0  0  0  0  0
  -28.4571  -13.2274   20.1395 C   0  0  0  0  0  0  0  0  0  0  0  0
  -29.8230  -15.2392   20.8363 C   0  0  0  0  0  0  0  0  0  0  0  0
  -27.3835  -15.2650   21.1855 C   0  0  0  0  0  0  0  0  0  0  0  0
  -28.6229  -23.9295   24.9737 C   0  0  0  0  0  0  0  0  0  0  0  0
  -25.9875  -35.2779   24.4123 C   0  0  1  0  0  0  0  0  0  0  0  0
  -27.9953  -23.3944   27.2148 C   0  0  1  0  0  0  0  0  0  0  0  0
  -26.1408  -31.4860   24.5419 C   0  0  1  0  0  0  0  0  0  0  0  0
  -27.1916  -14.1042   20.1946 C   0  0  2  0  0  0  0  0  0  0  0  0
  -28.2117  -24.5826   26.2818 C   0  0  2  0  0  0  0  0  0  1  0  0
  -28.6532  -22.1024   20.1290 C   0  0  0  0  0  0  0  0  0  0  0  0
  -27.0471  -23.6488   28.3736 C   0  0  0  0  0  0  0  0  0  0  0  0
  -26.0304  -19.7785   19.5112 C   0  0  0  0  0  0  0  0  0  0  0  0
  -18.9155  -28.6242   23.0822 C   0  0  0  0  0  0  0  0  0  0  0  0
  -22.9232  -31.4368   27.5430 C   0  0  0  0  0  0  0  0  0  0  0  0
  -20.7413  -30.3270   27.0178 C   0  0  0  0  0  0  0  0  0  0  0  0
  -21.3388  -32.4836   25.9156 C   0  0  0  0  0  0  0  0  0  0  0  0
  -21.9928  -27.7322   21.0302 C   0  0  0  0  0  0  0  0  0  0  0  0
  -27.3385  -19.4889   20.2598 C   0  0  2  0  0  0  0  0  0  0  0  0
  -22.5354  -30.3659   25.2259 C   0  0  1  0  0  0  0  0  0  0  0  0
  -20.3362  -28.7959   22.5673 C   0  0  2  0  0  0  0  0  0  0  0  0
  -21.9093  -31.1402   26.4200 C   0  0  0  0  0  0  0  0  0  0  0  0
  -26.0754  -12.2059   21.3050 N   0  0  0  0  0  0  0  0  0  0  0  0
  -25.9551  -13.2831   20.5105 N   0  0  0  0  0  0  0  0  0  0  0  0
  -27.9291  -22.6513   24.9784 N   0  0  0  0  0  0  0  0  0  0  0  0
  -24.9666  -30.8405   25.1530 N   0  0  0  0  0  0  0  0  0  0  0  0
  -28.5908  -16.0315   20.8396 N   0  0  0  0  0  0  0  0  0  0  0  0
  -24.3845  -14.5474   19.2673 N   0  0  0  0  0  0  0  0  0  0  0  0
  -21.8767  -11.2522   21.0699 N   0  0  0  0  0  0  0  0  0  0  0  0
  -26.0069  -33.8622   24.1122 N   0  0  0  0  0  0  0  0  0  0  0  0
  -21.6046  -30.0950   24.1356 N   0  0  0  0  0  0  0  0  0  0  0  0
  -27.4382  -18.0772   20.5561 N   0  0  0  0  0  0  0  0  0  0  0  0
  -20.6349  -27.6763   21.6302 N   0  3  0  0  0  0  0  0  0  0  0  0
  -26.8900  -21.3165   26.6594 O   0  0  0  0  0  0  0  0  0  0  0  0
  -21.8253  -13.1037   19.7178 O   0  0  0  0  0  0  0  0  0  0  0  0
  -26.2775  -33.0699   26.2851 O   0  0  0  0  0  0  0  0  0  0  0  0
  -23.4973  -31.8868   23.6841 O   0  0  0  0  0  0  0  0  0  0  0  0
  -21.8334  -27.7878   24.1733 O   0  0  0  0  0  0  0  0  0  0  0  0
  -29.7102  -17.9793   20.2641 O   0  0  0  0  0  0  0  0  0  0  0  0
  -23.7009   -7.1640   24.3856 O   0  0  0  0  0  0  0  0  0  0  0  0
  -27.0060  -25.3154   26.0985 O   0  0  0  0  0  0  0  0  0  1  0  0
  -20.4538   -3.3288   22.1159 F   0  0  0  0  0  0  0  0  0  0  0  0
  -26.4114  -18.6570   22.7747 F   0  0  0  0  0  0  0  0  0  0  0  0
  -24.6147   -4.5850   23.9905 F   0  0  0  0  0  0  0  0  0  0  0  0
  1  2  1  0  0  0  0
  1  5  2  0  0  0  0
  2  6  2  0  0  0  0
  3  8  2  0  0  0  0
  3 17  1  0  0  0  0
  4  9  1  0  0  0  0
  4 17  2  0  0  0  0
  5 19  1  0  0  0  0
  6 21  1  0  0  0  0
  7 10  2  0  0  0  0
  7 20  1  0  0  0  0
  8 26  1  0  0  0  0
  9 26  2  0  0  0  0
 10 27  1  0  0  0  0
 11 12  2  0  0  0  0
 11 28  1  0  0  0  0
 12 29  1  0  0  0  0
 13 22  1  0  0  0  0
 13 27  2  0  0  0  0
 14 23  2  0  0  0  0
 14 25  1  0  0  0  0
 15 25  2  0  0  0  0
 15 30  1  0  0  0  0
 16 29  2  0  0  0  0
 16 31  1  0  0  0  0
 17 32  1  0  0  0  0
 18 32  1  0  0  0  0
 18 33  2  0  0  0  0
 18 35  1  0  0  0  0
 19 21  2  0  0  0  0
 19 40  1  0  0  0  0
 20 22  2  0  0  0  0
 20 41  1  0  0  0  0
 21 50  1  0  0  0  0
 22 42  1  0  0  0  0
 23 24  1  0  0  0  0
 23 55  1  0  0  0  0
 24 30  2  0  0  0  0
 24 63  1  0  0  0  0
 25 69  1  0  0  0  0
 26 84  1  0  0  0  0
 27 85  1  0  0  0  0
 28 31  2  0  0  0  0
 28 84  1  0  0  0  0
 29 86  1  0  0  0  0
 30 87  1  0  0  0  0
 31 88  1  0  0  0  0
 32 67  2  0  0  0  0
 33 68  1  0  0  0  0
 33 72  1  0  0  0  0
 34 51  1  0  0  0  0
 34 69  1  0  0  0  0
 34 78  2  0  0  0  0
 35 73  1  0  0  0  0
 35 79  2  0  0  0  0
 36 52  1  0  0  0  0
 36 74  1  0  0  0  0
 36 80  2  0  0  0  0
 37 64  1  0  0  0  0
 37 70  1  0  0  0  0
 37 81  2  0  0  0  0
 38 65  1  0  0  0  0
 38 75  1  0  0  0  0
 38 82  2  0  0  0  0
 39 71  1  0  0  0  0
 39 76  1  0  0  0  0
 39 83  2  0  0  0  0
 40 43  1  0  0  0  0
 41 52  1  0  0  0  0
 42 70  1  0  0  0  0
 43 45  1  0  0  0  0
 44 46  1  0  0  0  0
 44 47  1  0  0  0  0
 45 50  1  0  0  0  0
 46 53  1  0  0  0  0
 47 71  1  0  0  0  0
 48 53  1  0  0  0  0
 48 71  1  0  0  0  0
 49 54  1  0  0  0  0
 49 69  1  0  0  0  0
 50 74  1  0  0  0  0
 51 54  1  0  0  0  0
 51 56  1  0  0  0  0
 52 70  1  0  0  0  0
 53 68  1  0  0  0  0
 54 85  1  0  0  0  0
 57 63  1  0  0  0  0
 58 65  1  0  0  0  0
 59 66  1  0  0  0  0
 60 66  1  0  0  0  0
 61 66  1  0  0  0  0
 62 77  1  0  0  0  0
 63 76  1  0  0  0  0
 64 66  1  0  0  0  0
 64 75  1  0  0  0  0
 65 77  1  0  0  0  0
 67 68  1  0  0  0  0
M  CHG  1  77   1
M  ISO  4  39 100  54 101  76 100  85 101
M  END
> <Batch ID>
0070

> <Smiles>
CNC(C)C(=O)NC(C(=O)N1Cc2cc([101O:1][101CH:1]3CN(c4cc(C)c(C(C)[100NH:0][100C:0](=O)N5CCCC(n6nc(-c7ccc(Oc8ccc(F)cc8F)cc7)c(C(N)=O)c6N)C5)c(F)c4)C(=O)C3C)ccc2CC1C(=O)NC1CCCc2ccccc21)C(C)(C)C

> <Shape>
0.280

> <Color>
0.092

> <Negative vol penalty>
0.000

$$$$

  -OEChem-04042323323D

 88 97  0     1  0  0  0  0  0999 V2000
  -33.1615  -21.3009   18.8389 C   0  0  0  0  0  0  0  0  0  0  0  0
  -32.6377  -21.1623   20.1202 C   0  0  0  0  0  0  0  0  0  0  0  0
  -22.6811  -10.1684   20.1857 C   0  0  0  0  0  0  0  0  0  0  0  0
  -24.3137   -9.4578   21.8188 C   0  0  0  0  0  0  0  0  0  0  0  0
  -33.3664  -22.5723   18.3046 C   0  0  0  0  0  0  0  0  0  0  0  0
  -32.3195  -22.2951   20.8685 C   0  0  0  0  0  0  0  0  0  0  0  0
  -27.8248  -21.9047   23.1685 C   0  0  0  0  0  0  0  0  0  0  0  0
  -29.0598  -17.0298   23.7784 C   0  0  0  0  0  0  0  0  0  0  0  0
  -28.6541  -17.3899   25.0634 C   0  0  0  0  0  0  0  0  0  0  0  0
  -21.9539   -8.9983   20.4036 C   0  0  0  0  0  0  0  0  0  0  0  0
  -23.5864   -8.2877   22.0367 C   0  0  0  0  0  0  0  0  0  0  0  0
  -27.7676  -21.1320   24.3275 C   0  0  0  0  0  0  0  0  0  0  0  0
  -20.8192   -7.3573   23.7389 C   0  0  0  0  0  0  0  0  0  0  0  0
  -20.6164   -6.9587   25.0601 C   0  0  0  0  0  0  0  0  0  0  0  0
  -27.8615  -23.1388   25.6629 C   0  0  0  0  0  0  0  0  0  0  0  0
  -30.8603  -18.2652   25.5146 C   0  0  0  0  0  0  0  0  0  0  0  0
  -21.7670   -4.8824   24.6101 C   0  0  0  0  0  0  0  0  0  0  0  0
  -23.8611  -10.3982   20.8933 C   0  0  0  0  0  0  0  0  0  0  0  0
  -24.1715  -12.9300   20.8559 C   0  0  0  0  0  0  0  0  0  0  0  0
  -33.0415  -23.7212   19.0429 C   0  0  0  0  0  0  0  0  0  0  0  0
  -27.9119  -23.3020   23.2482 C   0  0  0  0  0  0  0  0  0  0  0  0
  -32.5215  -23.5831   20.3440 C   0  0  0  0  0  0  0  0  0  0  0  0
  -27.9171  -23.9271   24.5033 C   0  0  0  0  0  0  0  0  0  0  0  0
  -30.3658  -17.2873   23.3614 C   0  0  0  0  0  0  0  0  0  0  0  0
  -31.2660  -17.9051   24.2296 C   0  0  0  0  0  0  0  0  0  0  0  0
  -29.5543  -18.0077   25.9315 C   0  0  0  0  0  0  0  0  0  0  0  0
  -22.4065   -8.0579   21.3291 C   0  0  0  0  0  0  0  0  0  0  0  0
  -27.7889  -21.7488   25.5750 C   0  0  0  0  0  0  0  0  0  0  0  0
  -21.4958   -6.5185   22.8533 C   0  0  0  0  0  0  0  0  0  0  0  0
  -21.0903   -5.7212   25.4957 C   0  0  0  0  0  0  0  0  0  0  0  0
  -21.9697   -5.2811   23.2889 C   0  0  0  0  0  0  0  0  0  0  0  0
  -24.6131  -11.6065   20.6683 C   0  0  0  0  0  0  0  0  0  0  0  0
  -25.2506  -13.7047   20.5070 C   0  0  0  0  0  0  0  0  0  0  0  0
  -28.1462  -17.6749   27.9636 C   0  0  0  0  0  0  0  0  0  0  0  0
  -22.8996  -13.4156   21.3054 C   0  0  0  0  0  0  0  0  0  0  0  0
  -30.0471  -25.4722   22.3344 C   0  0  0  0  0  0  0  0  0  0  0  0
  -27.7675  -27.5602   23.3173 C   0  0  0  0  0  0  0  0  0  0  0  0
  -25.4685  -27.8390   26.0839 C   0  0  0  0  0  0  0  0  0  0  0  0
  -30.7236  -14.7840   20.6725 C   0  0  0  0  0  0  0  0  0  0  0  0
  -33.3248  -25.0749   18.4414 C   0  0  0  0  0  0  0  0  0  0  0  0
  -27.9458  -24.1229   21.9883 C   0  0  0  0  0  0  0  0  0  0  0  0
  -27.9891  -25.4251   24.6429 C   0  0  0  0  0  0  0  0  0  0  0  0
  -27.8686  -18.2785   29.3264 C   0  0  0  0  0  0  0  0  0  0  0  0
  -32.6114  -26.2201   19.1553 C   0  0  0  0  0  0  0  0  0  0  0  0
  -29.5885  -12.4681   18.2179 C   0  0  0  0  0  0  0  0  0  0  0  0
  -32.7711  -26.0890   20.6666 C   0  0  0  0  0  0  0  0  0  0  0  0
  -28.1595  -12.1423   18.6556 C   0  0  0  0  0  0  0  0  0  0  0  0
  -30.5160  -12.6593   19.4159 C   0  0  0  0  0  0  0  0  0  0  0  0
  -28.6209  -13.3194   20.8465 C   0  0  0  0  0  0  0  0  0  0  0  0
  -29.8378  -19.4435   27.9748 C   0  0  0  0  0  0  0  0  0  0  0  0
  -32.1406  -24.7877   21.1772 C   0  0  1  0  0  0  0  0  0  0  0  0
  -28.5516  -25.5079   22.1936 C   0  0  1  0  0  0  0  0  0  0  0  0
  -27.6361  -13.1730   19.6738 C   0  0  2  0  0  0  0  0  0  0  0  0
  -28.8603  -20.3559   28.7325 C   0  0  1  0  0  0  0  0  0  0  0  0
  -32.6685  -18.1925   23.8043 C   0  0  0  0  0  0  0  0  0  0  0  0
  -30.5473  -18.0056   20.9505 C   0  0  0  0  0  0  0  0  0  0  0  0
  -23.2468  -28.9940   26.2490 C   0  0  0  0  0  0  0  0  0  0  0  0
  -29.3930  -29.9056   24.3974 C   0  0  0  0  0  0  0  0  0  0  0  0
  -27.5349  -30.3592   26.0129 C   0  0  0  0  0  0  0  0  0  0  0  0
  -27.1166  -30.5126   23.5585 C   0  0  0  0  0  0  0  0  0  0  0  0
  -24.1179  -25.3637   26.9825 C   0  0  0  0  0  0  0  0  0  0  0  0
  -28.3871  -21.5172   27.8651 C   0  0  0  0  0  0  0  0  0  1  0  0
  -30.7773  -16.8919   21.9813 C   0  0  2  0  0  0  0  0  0  0  0  0
  -27.4324  -28.2409   24.6224 C   0  0  1  0  0  0  0  0  0  0  0  0
  -23.9609  -27.6687   26.0334 C   0  0  2  0  0  0  0  0  0  0  0  0
  -27.8819  -29.7291   24.6471 C   0  0  0  0  0  0  0  0  0  0  0  0
  -25.8743  -11.5404   20.2338 N   0  0  0  0  0  0  0  0  0  0  0  0
  -26.2345  -12.8322   20.1453 N   0  0  0  0  0  0  0  0  0  0  0  0
  -29.1364  -18.3805   27.2542 N   0  0  0  0  0  0  0  0  0  0  0  0
  -28.0268  -26.1838   23.3818 N   0  0  0  0  0  0  0  0  0  0  0  0
  -29.9629  -13.6503   20.3422 N   0  0  0  0  0  0  0  0  0  0  0  0
  -25.4443  -15.0404   20.4772 N   0  0  0  0  0  0  0  0  0  0  0  0
  -21.9023  -12.4832   21.6221 N   0  0  0  0  0  0  0  0  0  0  0  0
  -30.7012  -24.9182   21.2506 N   0  0  0  0  0  0  0  0  0  0  0  0
  -26.0015  -28.0454   24.8291 N   0  0  0  0  0  0  0  0  0  0  0  0
  -30.1226  -15.6762   21.5520 N   0  0  0  0  0  0  0  0  0  0  0  0
  -23.5116  -26.7159   27.0875 N   0  3  0  0  0  0  0  0  0  0  0  0
  -27.5732  -16.6442   27.6173 O   0  0  0  0  0  0  0  0  0  0  0  0
  -22.6493  -14.6406   21.4072 O   0  0  0  0  0  0  0  0  0  0  0  0
  -30.5690  -25.9158   23.3506 O   0  0  0  0  0  0  0  0  0  0  0  0
  -27.7911  -28.2238   22.2777 O   0  0  0  0  0  0  0  0  0  0  0  0
  -26.1088  -27.7970   27.1321 O   0  0  0  0  0  0  0  0  0  0  0  0
  -31.8523  -14.9887   20.2133 O   0  0  0  0  0  0  0  0  0  0  0  0
  -27.6901  -19.6730   29.1878 O   0  0  0  0  0  0  0  0  0  0  0  0
  -21.6970   -6.9161   21.5421 O   0  0  0  0  0  0  0  0  0  0  0  0
  -27.7339  -20.9969   26.7079 O   0  0  0  0  0  0  0  0  0  1  0  0
  -20.8969   -5.3391   26.7649 F   0  0  0  0  0  0  0  0  0  0  0  0
  -22.6214   -4.4714   22.4430 F   0  0  0  0  0  0  0  0  0  0  0  0
  1  2  1  0  0  0  0
  1  5  2  0  0  0  0
  2  6  2  0  0  0  0
  3 10  2  0  0  0  0
  3 18  1  0  0  0  0
  4 11  1  0  0  0  0
  4 18  2  0  0  0  0
  5 20  1  0  0  0  0
  6 22  1  0  0  0  0
  7 12  2  0  0  0  0
  7 21  1  0  0  0  0
  8  9  2  0  0  0  0
  8 24  1  0  0  0  0
  9 26  1  0  0  0  0
 10 27  1  0  0  0  0
 11 27  2  0  0  0  0
 12 28  1  0  0  0  0
 13 14  2  0  0  0  0
 13 29  1  0  0  0  0
 14 30  1  0  0  0  0
 15 23  1  0  0  0  0
 15 28  2  0  0  0  0
 16 25  1  0  0  0  0
 16 26  2  0  0  0  0
 17 30  2  0  0  0  0
 17 31  1  0  0  0  0
 18 32  1  0  0  0  0
 19 32  1  0  0  0  0
 19 33  2  0  0  0  0
 19 35  1  0  0  0  0
 20 22  2  0  0  0  0
 20 40  1  0  0  0  0
 21 23  2  0  0  0  0
 21 41  1  0  0  0  0
 22 51  1  0  0  0  0
 23 42  1  0  0  0  0
 24 25  2  0  0  0  0
 24 63  1  0  0  0  0
 25 55  1  0  0  0  0
 26 69  1  0  0  0  0
 27 85  1  0  0  0  0
 28 86  1  0  0  0  0
 29 31  2  0  0  0  0
 29 85  1  0  0  0  0
 30 87  1  0  0  0  0
 31 88  1  0  0  0  0
 32 67  2  0  0  0  0
 33 68  1  0  0  0  0
 33 72  1  0  0  0  0
 34 43  1  0  0  0  0
 34 69  1  0  0  0  0
 34 78  2  0  0  0  0
 35 73  1  0  0  0  0
 35 79  2  0  0  0  0
 36 52  1  0  0  0  0
 36 74  1  0  0  0  0
 36 80  2  0  0  0  0
 37 64  1  0  0  0  0
 37 70  1  0  0  0  0
 37 81  2  0  0  0  0
 38 65  1  0  0  0  0
 38 75  1  0  0  0  0
 38 82  2  0  0  0  0
 39 71  1  0  0  0  0
 39 76  1  0  0  0  0
 39 83  2  0  0  0  0
 40 44  1  0  0  0  0
 41 52  1  0  0  0  0
 42 70  1  0  0  0  0
 43 84  1  0  0  0  0
 44 46  1  0  0  0  0
 45 47  1  0  0  0  0
 45 48  1  0  0  0  0
 46 51  1  0  0  0  0
 47 53  1  0  0  0  0
 48 71  1  0  0  0  0
 49 53  1  0  0  0  0
 49 71  1  0  0  0  0
 50 54  1  0  0  0  0
 50 69  1  0  0  0  0
 51 74  1  0  0  0  0
 52 70  1  0  0  0  0
 53 68  1  0  0  0  0
 54 62  1  0  0  0  0
 54 84  1  0  0  0  0
 56 63  1  0  0  0  0
 57 65  1  0  0  0  0
 58 66  1  0  0  0  0
 59 66  1  0  0  0  0
 60 66  1  0  0  0  0
 61 77  1  0  0  0  0
 62 86  1  0  0  0  0
 63 76  1  0  0  0  0
 64 66  1  0  0  0  0
 64 75  1  0  0  0  0
 65 77  1  0  0  0  0
 67 68  1  0  0  0  0
M  CHG  1  77   1
M  ISO  4  39 100  62 101  76 100  86 101
M  END
> <Batch ID>
0070

> <Smiles>
CNC(C)C(=O)NC(C(=O)N1Cc2cc([101O:1][101CH2:1]C3CN(c4ccc(C(C)[100NH:0][100C:0](=O)N5CCCC(n6nc(-c7ccc(Oc8ccc(F)cc8F)cc7)c(C(N)=O)c6N)C5)c(C)c4)C(=O)CO3)ccc2CC1C(=O)NC1CCCc2ccccc21)C(C)(C)C

> <Shape>
0.227

> <Color>
0.192

> <Negative vol penalty>
0.000

$$$$

  -OEChem-04042323323D

 88 97  0     1  0  0  0  0  0999 V2000
  -28.2315  -23.3437   17.4663 C   0  0  0  0  0  0  0  0  0  0  0  0
  -27.0244  -23.6652   18.0788 C   0  0  0  0  0  0  0  0  0  0  0  0
  -28.0330  -15.1195   21.3370 C   0  0  0  0  0  0  0  0  0  0  0  0
  -25.9866  -15.7140   20.1987 C   0  0  0  0  0  0  0  0  0  0  0  0
  -29.4277  -23.8403   17.9823 C   0  0  0  0  0  0  0  0  0  0  0  0
  -27.0131  -24.4827   19.2084 C   0  0  0  0  0  0  0  0  0  0  0  0
  -23.4157  -28.0406   18.9957 C   0  0  0  0  0  0  0  0  0  0  0  0
  -27.6945  -13.7698   21.2407 C   0  0  0  0  0  0  0  0  0  0  0  0
  -25.6481  -14.3643   20.1023 C   0  0  0  0  0  0  0  0  0  0  0  0
  -22.1097  -27.6433   19.2789 C   0  0  0  0  0  0  0  0  0  0  0  0
  -24.0724  -11.0969   19.8754 C   0  0  0  0  0  0  0  0  0  0  0  0
  -22.7618  -10.7334   20.1851 C   0  0  0  0  0  0  0  0  0  0  0  0
  -22.3321  -28.5261   21.5129 C   0  0  0  0  0  0  0  0  0  0  0  0
  -20.5062  -23.2584   22.2367 C   0  0  0  0  0  0  0  0  0  0  0  0
  -21.6102  -25.1664   23.2254 C   0  0  0  0  0  0  0  0  0  0  0  0
  -23.0485  -11.6045   22.4203 C   0  0  0  0  0  0  0  0  0  0  0  0
  -27.1790  -16.0917   20.8161 C   0  0  0  0  0  0  0  0  0  0  0  0
  -28.2645  -18.2466   19.9881 C   0  0  0  0  0  0  0  0  0  0  0  0
  -29.4302  -24.6721   19.1131 C   0  0  0  0  0  0  0  0  0  0  0  0
  -24.1948  -28.6749   19.9740 C   0  0  0  0  0  0  0  0  0  0  0  0
  -28.2106  -24.9898   19.7409 C   0  0  0  0  0  0  0  0  0  0  0  0
  -23.6468  -28.9327   21.2387 C   0  0  0  0  0  0  0  0  0  0  0  0
  -21.6349  -22.4771   22.4839 C   0  0  0  0  0  0  0  0  0  0  0  0
  -20.4938  -24.6030   22.6074 C   0  0  0  0  0  0  0  0  0  0  0  0
  -22.7513  -23.0404   23.1020 C   0  0  0  0  0  0  0  0  0  0  0  0
  -26.5021  -13.3922   20.6233 C   0  0  0  0  0  0  0  0  0  0  0  0
  -21.5687  -27.8834   20.5386 C   0  0  0  0  0  0  0  0  0  0  0  0
  -24.8710  -11.7142   20.8381 C   0  0  0  0  0  0  0  0  0  0  0  0
  -22.2499  -10.9872   21.4576 C   0  0  0  0  0  0  0  0  0  0  0  0
  -22.7389  -24.3851   23.4728 C   0  0  0  0  0  0  0  0  0  0  0  0
  -24.3591  -11.9680   22.1106 C   0  0  0  0  0  0  0  0  0  0  0  0
  -27.5278  -17.4861   20.9159 C   0  0  0  0  0  0  0  0  0  0  0  0
  -28.3207  -19.5025   20.5412 C   0  0  0  0  0  0  0  0  0  0  0  0
  -17.5242  -26.7657   22.6871 C   0  0  0  0  0  0  0  0  0  0  0  0
  -17.6291  -26.5429   21.3772 C   0  0  0  0  0  0  0  0  0  0  0  0
  -18.6119  -26.0378   23.3520 C   0  0  0  0  0  0  0  0  0  0  0  0
  -28.8460  -17.8529   18.7381 C   0  0  0  0  0  0  0  0  0  0  0  0
  -26.9157  -27.9890   21.4673 C   0  0  0  0  0  0  0  0  0  0  0  0
  -26.5392  -30.9678   22.6951 C   0  0  0  0  0  0  0  0  0  0  0  0
  -24.4271  -33.5268   23.4934 C   0  0  0  0  0  0  0  0  0  0  0  0
  -24.8184  -22.4228   24.4027 C   0  0  0  0  0  0  0  0  0  0  0  0
  -30.7523  -25.1463   19.6626 C   0  0  0  0  0  0  0  0  0  0  0  0
  -25.5928  -29.1213   19.6442 C   0  0  0  0  0  0  0  0  0  0  0  0
  -24.4346  -29.6286   22.3174 C   0  0  0  0  0  0  0  0  0  0  0  0
  -30.6229  -26.3111   20.6407 C   0  0  0  0  0  0  0  0  0  0  0  0
  -28.2910  -21.7327   24.7791 C   0  0  0  0  0  0  0  0  0  0  0  0
  -29.5129  -26.0390   21.6511 C   0  0  0  0  0  0  0  0  0  0  0  0
  -28.5578  -20.6389   23.7425 C   0  0  0  0  0  0  0  0  0  0  0  0
  -26.9173  -21.5758   25.4286 C   0  0  0  0  0  0  0  0  0  0  0  0
  -26.0606  -20.3812   23.4516 C   0  0  0  0  0  0  0  0  0  0  0  0
  -28.1552  -25.8937   20.9533 C   0  0  1  0  0  0  0  0  0  0  0  0
  -26.4706  -29.2981   20.8793 C   0  0  1  0  0  0  0  0  0  0  0  0
  -27.4059  -20.5352   22.7236 C   0  0  2  0  0  0  0  0  0  0  0  0
  -18.7991  -25.6362   21.0171 C   0  0  1  0  0  0  0  0  0  0  0  0
  -21.6204  -21.0397   22.0749 C   0  0  0  0  0  0  0  0  0  0  0  0
  -16.7119  -27.1052   20.3443 C   0  0  0  0  0  0  0  0  0  0  0  0
  -18.3187  -24.3323   20.3674 C   0  0  0  0  0  0  0  0  0  0  0  0
  -24.4066  -35.8170   24.5190 C   0  0  0  0  0  0  0  0  0  0  0  0
  -26.8306  -29.7263   25.4671 C   0  0  0  0  0  0  0  0  0  0  0  0
  -25.8723  -31.8281   26.4327 C   0  0  0  0  0  0  0  0  0  0  0  0
  -28.0218  -31.9050   25.1693 C   0  0  0  0  0  0  0  0  0  0  0  0
  -23.3936  -34.7572   21.0081 C   0  0  0  0  0  0  0  0  0  0  0  0
  -19.7994  -26.3473   20.1311 C   0  0  0  0  0  0  0  0  0  1  0  0
  -25.8578  -31.5440   23.9128 C   0  0  1  0  0  0  0  0  0  0  0  0
  -24.5077  -35.0193   23.2282 C   0  0  2  0  0  0  0  0  0  0  0  0
  -26.6312  -31.2360   25.2260 C   0  0  0  0  0  0  0  0  0  0  0  0
  -27.1436  -18.1993   21.9778 N   0  0  0  0  0  0  0  0  0  0  0  0
  -27.6409  -19.4211   21.7209 N   0  0  0  0  0  0  0  0  0  0  0  0
  -19.3670  -25.3827   22.3591 N   0  0  0  0  0  0  0  0  0  0  0  0
  -25.7992  -30.0401   21.9484 N   0  0  0  0  0  0  0  0  0  0  0  0
  -25.8756  -21.4883   24.4029 N   0  0  0  0  0  0  0  0  0  0  0  0
  -28.8848  -20.6576   20.1288 N   0  0  0  0  0  0  0  0  0  0  0  0
  -28.6938  -16.5241   18.3194 N   0  0  0  0  0  0  0  0  0  0  0  0
  -23.9057  -22.2607   23.3609 N   0  0  0  0  0  0  0  0  0  0  0  0
  -27.6307  -27.1934   20.5925 N   0  0  0  0  0  0  0  0  0  0  0  0
  -25.6780  -32.9668   23.6449 N   0  0  0  0  0  0  0  0  0  0  0  0
  -23.4017  -35.4453   22.3247 N   0  3  0  0  0  0  0  0  0  0  0  0
  -18.7846  -26.0394   24.5610 O   0  0  0  0  0  0  0  0  0  0  0  0
  -29.4958  -18.6517   18.0217 O   0  0  0  0  0  0  0  0  0  0  0  0
  -26.6326  -27.7211   22.6292 O   0  0  0  0  0  0  0  0  0  0  0  0
  -27.6832  -31.3328   22.4127 O   0  0  0  0  0  0  0  0  0  0  0  0
  -23.3610  -32.9192   23.5631 O   0  0  0  0  0  0  0  0  0  0  0  0
  -24.7442  -23.3188   25.2475 O   0  0  0  0  0  0  0  0  0  0  0  0
  -26.1717  -12.0752   20.5288 O   0  0  0  0  0  0  0  0  0  0  0  0
  -20.2944  -27.4961   20.8179 O   0  0  0  0  0  0  0  0  0  1  0  0
  -20.9909  -10.6395   21.7544 F   0  0  0  0  0  0  0  0  0  0  0  0
  -23.8060  -24.9378   24.0673 F   0  0  0  0  0  0  0  0  0  0  0  0
  -25.1212  -12.5618   23.0393 F   0  0  0  0  0  0  0  0  0  0  0  0
  1  2  1  0  0  0  0
  1  5  2  0  0  0  0
  2  6  2  0  0  0  0
  3  8  2  0  0  0  0
  3 17  1  0  0  0  0
  4  9  1  0  0  0  0
  4 17  2  0  0  0  0
  5 19  1  0  0  0  0
  6 21  1  0  0  0  0
  7 10  2  0  0  0  0
  7 20  1  0  0  0  0
  8 26  1  0  0  0  0
  9 26  2  0  0  0  0
 10 27  1  0  0  0  0
 11 12  2  0  0  0  0
 11 28  1  0  0  0  0
 12 29  1  0  0  0  0
 13 22  1  0  0  0  0
 13 27  2  0  0  0  0
 14 23  2  0  0  0  0
 14 24  1  0  0  0  0
 15 24  2  0  0  0  0
 15 30  1  0  0  0  0
 16 29  2  0  0  0  0
 16 31  1  0  0  0  0
 17 32  1  0  0  0  0
 18 32  1  0  0  0  0
 18 33  2  0  0  0  0
 18 37  1  0  0  0  0
 19 21  2  0  0  0  0
 19 42  1  0  0  0  0
 20 22  2  0  0  0  0
 20 43  1  0  0  0  0
 21 51  1  0  0  0  0
 22 44  1  0  0  0  0
 23 25  1  0  0  0  0
 23 55  1  0  0  0  0
 24 69  1  0  0  0  0
 25 30  2  0  0  0  0
 25 74  1  0  0  0  0
 26 84  1  0  0  0  0
 27 85  1  0  0  0  0
 28 31  2  0  0  0  0
 28 84  1  0  0  0  0
 29 86  1  0  0  0  0
 30 87  1  0  0  0  0
 31 88  1  0  0  0  0
 32 67  2  0  0  0  0
 33 68  1  0  0  0  0
 33 72  1  0  0  0  0
 34 35  2  0  0  0  0
 34 36  1  0  0  0  0
 35 54  1  0  0  0  0
 35 56  1  0  0  0  0
 36 69  1  0  0  0  0
 36 78  2  0  0  0  0
 37 73  1  0  0  0  0
 37 79  2  0  0  0  0
 38 52  1  0  0  0  0
 38 75  1  0  0  0  0
 38 80  2  0  0  0  0
 39 64  1  0  0  0  0
 39 70  1  0  0  0  0
 39 81  2  0  0  0  0
 40 65  1  0  0  0  0
 40 76  1  0  0  0  0
 40 82  2  0  0  0  0
 41 71  1  0  0  0  0
 41 74  1  0  0  0  0
 41 83  2  0  0  0  0
 42 45  1  0  0  0  0
 43 52  1  0  0  0  0
 44 70  1  0  0  0  0
 45 47  1  0  0  0  0
 46 48  1  0  0  0  0
 46 49  1  0  0  0  0
 47 51  1  0  0  0  0
 48 53  1  0  0  0  0
 49 71  1  0  0  0  0
 50 53  1  0  0  0  0
 50 71  1  0  0  0  0
 51 75  1  0  0  0  0
 52 70  1  0  0  0  0
 53 68  1  0  0  0  0
 54 57  1  0  0  0  0
 54 63  1  0  0  0  0
 54 69  1  0  0  0  0
 58 65  1  0  0  0  0
 59 66  1  0  0  0  0
 60 66  1  0  0  0  0
 61 66  1  0  0  0  0
 62 77  1  0  0  0  0
 63 85  1  0  0  0  0
 64 66  1  0  0  0  0
 64 76  1  0  0  0  0
 65 77  1  0  0  0  0
 67 68  1  0  0  0  0
M  CHG  1  77   1
M  ISO  4  41 100  63 101  74 100  85 101
M  END
> <Batch ID>
0070

> <Smiles>
C=C1CC(=O)N(c2cc(C)c([100NH:0][100C:0](=O)N3CCCC(n4nc(-c5ccc(Oc6ccc(F)cc6F)cc5)c(C(N)=O)c4N)C3)c(F)c2)C1(C)[101CH2:1][101O:1]c1ccc2c(c1)CN(C(=O)C(NC(=O)C(C)NC)C(C)(C)C)C(C(=O)NC1CCCc3ccccc31)C2

> <Shape>
0.299

> <Color>
0.072

> <Negative vol penalty>
0.000

$$$$

  -OEChem-04042323323D

 87 96  0     1  0  0  0  0  0999 V2000
  -27.2422  -37.2278   20.3404 C   0  0  0  0  0  0  0  0  0  0  0  0
  -27.7790  -35.9480   20.4385 C   0  0  0  0  0  0  0  0  0  0  0  0
  -24.5419  -19.9905   21.4303 C   0  0  0  0  0  0  0  0  0  0  0  0
  -24.2413   -8.9157   21.1413 C   0  0  0  0  0  0  0  0  0  0  0  0
  -22.7791  -10.6790   21.9092 C   0  0  0  0  0  0  0  0  0  0  0  0
  -25.9789  -37.4948   20.8662 C   0  0  0  0  0  0  0  0  0  0  0  0
  -27.0530  -34.9348   21.0636 C   0  0  0  0  0  0  0  0  0  0  0  0
  -26.9865  -28.9955   19.5715 C   0  0  0  0  0  0  0  0  0  0  0  0
  -25.4711  -21.0202   21.2826 C   0  0  0  0  0  0  0  0  0  0  0  0
  -24.9092  -18.6742   21.1506 C   0  0  0  0  0  0  0  0  0  0  0  0
  -23.7973   -8.0957   22.1786 C   0  0  0  0  0  0  0  0  0  0  0  0
  -22.3350   -9.8590   22.9465 C   0  0  0  0  0  0  0  0  0  0  0  0
  -27.6579  -27.8900   20.0919 C   0  0  0  0  0  0  0  0  0  0  0  0
  -21.0971   -6.1760   22.8546 C   0  0  0  0  0  0  0  0  0  0  0  0
  -20.7801   -4.8534   22.5450 C   0  0  0  0  0  0  0  0  0  0  0  0
  -25.7412  -27.3798   21.4649 C   0  0  0  0  0  0  0  0  0  0  0  0
  -27.1348  -19.4175   20.5752 C   0  0  0  0  0  0  0  0  0  0  0  0
  -22.4633   -4.0862   24.0992 C   0  0  0  0  0  0  0  0  0  0  0  0
  -23.7323  -10.2074   21.0067 C   0  0  0  0  0  0  0  0  0  0  0  0
  -23.6433  -11.1640   18.6435 C   0  0  0  0  0  0  0  0  0  0  0  0
  -25.2330  -36.4820   21.4894 C   0  0  0  0  0  0  0  0  0  0  0  0
  -25.6893  -29.3082   20.0026 C   0  0  0  0  0  0  0  0  0  0  0  0
  -25.7790  -35.1889   21.5994 C   0  0  0  0  0  0  0  0  0  0  0  0
  -25.0545  -28.4883   20.9464 C   0  0  0  0  0  0  0  0  0  0  0  0
  -26.7675  -20.7338   20.8550 C   0  0  0  0  0  0  0  0  0  0  0  0
  -26.2057  -18.3877   20.7230 C   0  0  0  0  0  0  0  0  0  0  0  0
  -22.8441   -8.5673   23.0812 C   0  0  0  0  0  0  0  0  0  0  0  0
  -27.0364  -27.0837   21.0409 C   0  0  0  0  0  0  0  0  0  0  0  0
  -22.0973   -6.4537   23.7864 C   0  0  0  0  0  0  0  0  0  0  0  0
  -21.4632   -3.8085   23.1673 C   0  0  0  0  0  0  0  0  0  0  0  0
  -22.7804   -5.4088   24.4087 C   0  0  0  0  0  0  0  0  0  0  0  0
  -24.1910  -11.0552   19.9357 C   0  0  0  0  0  0  0  0  0  0  0  0
  -24.4328  -12.0944   18.0131 C   0  0  0  0  0  0  0  0  0  0  0  0
  -29.0574  -21.6595   20.2842 C   0  0  0  0  0  0  0  0  0  0  0  0
  -22.5210  -10.4848   18.0647 C   0  0  0  0  0  0  0  0  0  0  0  0
  -24.3540  -31.7815   21.4870 C   0  0  0  0  0  0  0  0  0  0  0  0
  -21.6107  -30.1518   20.9035 C   0  0  0  0  0  0  0  0  0  0  0  0
  -20.0964  -27.1578   20.2789 C   0  0  0  0  0  0  0  0  0  0  0  0
  -27.8224  -16.5940   20.0055 C   0  0  0  0  0  0  0  0  0  0  0  0
  -23.8916  -36.8299   22.0846 C   0  0  0  0  0  0  0  0  0  0  0  0
  -24.9684  -30.4887   19.4117 C   0  0  0  0  0  0  0  0  0  0  0  0
  -23.6551  -28.7692   21.4273 C   0  0  0  0  0  0  0  0  0  0  0  0
  -23.0299  -35.6098   22.3993 C   0  0  0  0  0  0  0  0  0  0  0  0
  -28.8919  -13.8410   18.0168 C   0  0  0  0  0  0  0  0  0  0  0  0
  -23.8519  -34.5480   23.1230 C   0  0  0  0  0  0  0  0  0  0  0  0
  -27.7551  -12.8266   18.1607 C   0  0  0  0  0  0  0  0  0  0  0  0
  -29.1403  -14.6028   19.3175 C   0  0  0  0  0  0  0  0  0  0  0  0
  -27.3671  -23.1792   20.9231 C   0  0  0  0  0  0  0  0  0  0  0  0
  -26.8162  -14.2272   20.0432 C   0  0  0  0  0  0  0  0  0  0  0  0
  -25.0118  -34.0572   22.2482 C   0  0  1  0  0  0  0  0  0  0  0  0
  -29.6212  -23.0671   20.1558 C   0  0  1  0  0  0  0  0  0  0  0  0
  -23.8450  -31.0099   20.3025 C   0  0  1  0  0  0  0  0  0  0  0  0
  -28.7085  -23.8843   21.0712 C   0  0  1  0  0  0  0  0  0  0  0  0
  -26.4857  -13.4811   18.7402 C   0  0  2  0  0  0  0  0  0  0  0  0
  -17.8382  -26.1368   19.8849 C   0  0  0  0  0  0  0  0  0  0  0  0
  -31.3714  -22.2984   21.7842 C   0  0  0  0  0  0  0  0  0  0  0  0
  -31.9799  -22.6929   19.3805 C   0  0  0  0  0  0  0  0  0  0  0  0
  -20.9951  -30.3690   23.8841 C   0  0  0  0  0  0  0  0  0  0  0  0
  -19.2826  -28.5664   23.5906 C   0  0  0  0  0  0  0  0  0  0  0  0
  -19.0283  -30.7344   22.3832 C   0  0  0  0  0  0  0  0  0  0  0  0
  -20.8658  -26.2132   17.5818 C   0  0  0  0  0  0  0  0  0  0  0  0
  -28.6374  -25.3580   20.7022 C   0  0  0  0  0  0  0  0  0  1  0  0
  -20.8122  -29.1040   21.6408 C   0  0  1  0  0  0  0  0  0  0  0  0
  -19.0725  -26.7449   19.2371 C   0  0  2  0  0  0  0  0  0  0  0  0
  -31.0892  -23.1430   20.5400 C   0  0  0  0  0  0  0  0  0  0  0  0
  -20.0566  -29.6890   22.8672 C   0  0  0  0  0  0  0  0  0  0  0  0
  -25.2470  -11.8527   20.1169 N   0  0  0  0  0  0  0  0  0  0  0  0
  -25.3692  -12.4714   18.9302 N   0  0  0  0  0  0  0  0  0  0  0  0
  -27.7180  -21.7880   20.7044 N   0  0  0  0  0  0  0  0  0  0  0  0
  -22.9942  -29.9385   20.8244 N   0  0  0  0  0  0  0  0  0  0  0  0
  -27.8946  -15.1993   19.8047 N   0  0  0  0  0  0  0  0  0  0  0  0
  -24.4105  -12.6186   16.7692 N   0  0  0  0  0  0  0  0  0  0  0  0
  -21.8209   -9.5604   18.8519 N   0  0  0  0  0  0  0  0  0  0  0  0
  -26.5782  -17.0504   20.4391 N   0  0  0  0  0  0  0  0  0  0  0  0
  -24.5317  -33.1305   21.2457 N   0  0  0  0  0  0  0  0  0  0  0  0
  -19.9457  -28.4778   20.6481 N   0  0  0  0  0  0  0  0  0  0  0  0
  -19.6578  -25.7397   18.3055 N   0  3  0  0  0  0  0  0  0  0  0  0
  -29.6928  -20.6556   19.9956 O   0  0  0  0  0  0  0  0  0  0  0  0
  -22.1601  -10.6794   16.8792 O   0  0  0  0  0  0  0  0  0  0  0  0
  -24.5683  -31.1966   22.5423 O   0  0  0  0  0  0  0  0  0  0  0  0
  -21.0275  -31.1200   20.4096 O   0  0  0  0  0  0  0  0  0  0  0  0
  -20.9428  -26.3856   20.7237 O   0  0  0  0  0  0  0  0  0  0  0  0
  -28.7848  -17.3326   19.7812 O   0  0  0  0  0  0  0  0  0  0  0  0
  -22.4103   -7.7673   24.0933 O   0  0  0  0  0  0  0  0  0  0  0  0
  -27.6898  -26.0044   21.5510 O   0  0  0  0  0  0  0  0  0  1  0  0
  -21.1576   -2.5385   22.8710 F   0  0  0  0  0  0  0  0  0  0  0  0
  -23.7413   -5.6693   25.3056 F   0  0  0  0  0  0  0  0  0  0  0  0
  1  2  1  0  0  0  0
  1  6  2  0  0  0  0
  2  7  2  0  0  0  0
  3  9  2  0  0  0  0
  3 10  1  0  0  0  0
  4 11  2  0  0  0  0
  4 19  1  0  0  0  0
  5 12  1  0  0  0  0
  5 19  2  0  0  0  0
  6 21  1  0  0  0  0
  7 23  1  0  0  0  0
  8 13  2  0  0  0  0
  8 22  1  0  0  0  0
  9 25  1  0  0  0  0
 10 26  2  0  0  0  0
 11 27  1  0  0  0  0
 12 27  2  0  0  0  0
 13 28  1  0  0  0  0
 14 15  2  0  0  0  0
 14 29  1  0  0  0  0
 15 30  1  0  0  0  0
 16 24  1  0  0  0  0
 16 28  2  0  0  0  0
 17 25  2  0  0  0  0
 17 26  1  0  0  0  0
 18 30  2  0  0  0  0
 18 31  1  0  0  0  0
 19 32  1  0  0  0  0
 20 32  1  0  0  0  0
 20 33  2  0  0  0  0
 20 35  1  0  0  0  0
 21 23  2  0  0  0  0
 21 40  1  0  0  0  0
 22 24  2  0  0  0  0
 22 41  1  0  0  0  0
 23 50  1  0  0  0  0
 24 42  1  0  0  0  0
 25 69  1  0  0  0  0
 26 74  1  0  0  0  0
 27 84  1  0  0  0  0
 28 85  1  0  0  0  0
 29 31  2  0  0  0  0
 29 84  1  0  0  0  0
 30 86  1  0  0  0  0
 31 87  1  0  0  0  0
 32 67  2  0  0  0  0
 33 68  1  0  0  0  0
 33 72  1  0  0  0  0
 34 51  1  0  0  0  0
 34 69  1  0  0  0  0
 34 78  2  0  0  0  0
 35 73  1  0  0  0  0
 35 79  2  0  0  0  0
 36 52  1  0  0  0  0
 36 75  1  0  0  0  0
 36 80  2  0  0  0  0
 37 63  1  0  0  0  0
 37 70  1  0  0  0  0
 37 81  2  0  0  0  0
 38 64  1  0  0  0  0
 38 76  1  0  0  0  0
 38 82  2  0  0  0  0
 39 71  1  0  0  0  0
 39 74  1  0  0  0  0
 39 83  2  0  0  0  0
 40 43  1  0  0  0  0
 41 52  1  0  0  0  0
 42 70  1  0  0  0  0
 43 45  1  0  0  0  0
 44 46  1  0  0  0  0
 44 47  1  0  0  0  0
 45 50  1  0  0  0  0
 46 54  1  0  0  0  0
 47 71  1  0  0  0  0
 48 53  1  0  0  0  0
 48 69  1  0  0  0  0
 49 54  1  0  0  0  0
 49 71  1  0  0  0  0
 50 75  1  0  0  0  0
 51 53  1  0  0  0  0
 51 65  1  0  0  0  0
 52 70  1  0  0  0  0
 53 62  1  0  0  0  0
 54 68  1  0  0  0  0
 55 64  1  0  0  0  0
 56 65  1  0  0  0  0
 57 65  1  0  0  0  0
 58 66  1  0  0  0  0
 59 66  1  0  0  0  0
 60 66  1  0  0  0  0
 61 77  1  0  0  0  0
 62 85  1  0  0  0  0
 63 66  1  0  0  0  0
 63 76  1  0  0  0  0
 64 77  1  0  0  0  0
 67 68  1  0  0  0  0
M  CHG  1  77   1
M  ISO  4  39 100  62 101  74 100  85 101
M  END
> <Batch ID>
0070

> <Smiles>
CNC(C)C(=O)NC(C(=O)N1Cc2cc([101O:1][101CH2:1]C3CN(c4cccc([100NH:0][100C:0](=O)N5CCCC(n6nc(-c7ccc(Oc8ccc(F)cc8F)cc7)c(C(N)=O)c6N)C5)c4)C(=O)C3C(C)C)ccc2CC1C(=O)NC1CCCc2ccccc21)C(C)(C)C

> <Shape>
0.273

> <Color>
0.082

> <Negative vol penalty>
0.000

$$$$

  -OEChem-04042323323D

 91101  0     1  0  0  0  0  0999 V2000
  -29.8044  -36.0375   20.2080 C   0  0  0  0  0  0  0  0  0  0  0  0
  -29.8387  -34.6482   20.2712 C   0  0  0  0  0  0  0  0  0  0  0  0
  -22.7800  -11.8070   22.7960 C   0  0  0  0  0  0  0  0  0  0  0  0
  -23.0365  -14.1735   22.3825 C   0  0  0  0  0  0  0  0  0  0  0  0
  -28.9122  -36.7488   21.0093 C   0  0  0  0  0  0  0  0  0  0  0  0
  -28.9816  -33.9693   21.1367 C   0  0  0  0  0  0  0  0  0  0  0  0
  -26.7898  -29.9609   18.9519 C   0  0  0  0  0  0  0  0  0  0  0  0
  -30.4925  -19.9893   18.9695 C   0  0  0  0  0  0  0  0  0  0  0  0
  -30.3826  -18.6197   19.2094 C   0  0  0  0  0  0  0  0  0  0  0  0
  -21.7953  -12.0796   23.7455 C   0  0  0  0  0  0  0  0  0  0  0  0
  -22.0517  -14.4462   23.3320 C   0  0  0  0  0  0  0  0  0  0  0  0
  -27.5605  -28.8064   18.8211 C   0  0  0  0  0  0  0  0  0  0  0  0
  -18.5143  -12.8965   23.7676 C   0  0  0  0  0  0  0  0  0  0  0  0
  -17.3515  -12.1267   23.7350 C   0  0  0  0  0  0  0  0  0  0  0  0
  -26.4800  -27.8722   20.7650 C   0  0  0  0  0  0  0  0  0  0  0  0
  -28.2636  -20.0050   18.0373 C   0  0  0  0  0  0  0  0  0  0  0  0
  -17.7929  -11.3646   25.9848 C   0  0  0  0  0  0  0  0  0  0  0  0
  -23.4006  -12.8540   22.1145 C   0  0  0  0  0  0  0  0  0  0  0  0
  -24.2791  -11.8103   19.9589 C   0  0  0  0  0  0  0  0  0  0  0  0
  -28.0370  -36.0778   21.8779 C   0  0  0  0  0  0  0  0  0  0  0  0
  -25.8647  -30.0843   19.9984 C   0  0  0  0  0  0  0  0  0  0  0  0
  -28.0778  -34.6723   21.9513 C   0  0  0  0  0  0  0  0  0  0  0  0
  -25.6970  -29.0282   20.9054 C   0  0  0  0  0  0  0  0  0  0  0  0
  -29.4330  -20.6820   18.3835 C   0  0  0  0  0  0  0  0  0  0  0  0
  -29.2132  -17.9426   18.8633 C   0  0  0  0  0  0  0  0  0  0  0  0
  -21.4311  -13.3992   24.0135 C   0  0  0  0  0  0  0  0  0  0  0  0
  -27.4077  -27.7630   19.7294 C   0  0  0  0  0  0  0  0  0  0  0  0
  -19.3164  -12.9002   24.9088 C   0  0  0  0  0  0  0  0  0  0  0  0
  -16.9908  -11.3608   24.8436 C   0  0  0  0  0  0  0  0  0  0  0  0
  -28.1537  -18.6353   18.2772 C   0  0  0  0  0  0  0  0  0  0  0  0
  -18.9558  -12.1343   26.0173 C   0  0  0  0  0  0  0  0  0  0  0  0
  -24.4183  -12.5731   21.1339 C   0  0  0  0  0  0  0  0  0  0  0  0
  -25.5231  -11.8450   19.3777 C   0  0  0  0  0  0  0  0  0  0  0  0
  -29.4627  -24.8702   15.8386 C   0  0  0  0  0  0  0  0  0  0  0  0
  -29.0875  -24.1382   16.9060 C   0  0  0  0  0  0  0  0  0  0  0  0
  -29.7396  -24.2426   19.2360 C   0  0  0  0  0  0  0  0  0  0  0  0
  -23.1283  -11.1312   19.4392 C   0  0  0  0  0  0  0  0  0  0  0  0
  -25.5244  -32.0527   22.4710 C   0  0  0  0  0  0  0  0  0  0  0  0
  -22.7356  -30.4442   22.8685 C   0  0  0  0  0  0  0  0  0  0  0  0
  -21.6222  -27.0175   22.6801 C   0  0  0  0  0  0  0  0  0  0  0  0
  -30.0641  -15.7170   19.6812 C   0  0  0  0  0  0  0  0  0  0  0  0
  -27.1231  -36.8920   22.7592 C   0  0  0  0  0  0  0  0  0  0  0  0
  -25.0220  -31.3252   20.1099 C   0  0  0  0  0  0  0  0  0  0  0  0
  -24.7031  -29.1028   22.0345 C   0  0  0  0  0  0  0  0  0  0  0  0
  -29.9022  -24.2961   14.5241 C   0  0  0  0  0  0  0  0  0  0  0  0
  -30.3749  -22.8805   19.0195 C   0  0  0  0  0  0  0  0  0  0  0  0
  -25.9877  -36.0787   23.3755 C   0  0  0  0  0  0  0  0  0  0  0  0
  -29.6689  -22.7941   14.4010 C   0  0  0  0  0  0  0  0  0  0  0  0
  -30.1644  -12.2502   20.4863 C   0  0  0  0  0  0  0  0  0  0  0  0
  -26.5202  -34.7715   23.9537 C   0  0  0  0  0  0  0  0  0  0  0  0
  -29.9958  -22.0821   15.7087 C   0  0  0  0  0  0  0  0  0  0  0  0
  -28.6893  -11.8687   20.6308 C   0  0  0  0  0  0  0  0  0  0  0  0
  -30.4413  -13.6558   21.0168 C   0  0  0  0  0  0  0  0  0  0  0  0
  -28.1070  -14.3279   20.6062 C   0  0  0  0  0  0  0  0  0  0  0  0
  -27.1466  -33.8988   22.8594 C   0  0  1  0  0  0  0  0  0  0  0  0
  -29.1031  -22.6136   16.8470 C   0  0  1  0  0  0  0  0  0  0  0  0
  -24.4770  -31.5529   21.5165 C   0  0  1  0  0  0  0  0  0  0  0  0
  -27.7670  -12.9454   20.0260 C   0  0  2  0  0  0  0  0  0  0  0  0
  -28.6754  -24.7236   18.2476 C   0  0  1  0  0  0  0  0  0  0  0  0
  -19.3597  -26.0633   22.1624 C   0  0  0  0  0  0  0  0  0  0  0  0
  -22.3713  -30.4237   25.8978 C   0  0  0  0  0  0  0  0  0  0  0  0
  -21.1713  -28.2383   25.6688 C   0  0  0  0  0  0  0  0  0  0  0  0
  -20.2438  -30.2875   24.5903 C   0  0  0  0  0  0  0  0  0  0  0  0
  -22.6975  -25.3589   20.4774 C   0  0  0  0  0  0  0  0  0  0  0  0
  -28.5656  -26.2564   18.2993 C   0  0  0  0  0  0  0  0  0  1  0  0
  -22.3137  -29.2059   23.6219 C   0  0  1  0  0  0  0  0  0  0  0  0
  -20.7342  -26.4080   21.6103 C   0  0  2  0  0  0  0  0  0  0  0  0
  -21.5515  -29.5419   24.9348 C   0  0  0  0  0  0  0  0  0  0  0  0
  -25.6533  -13.0568   21.2914 N   0  0  0  0  0  0  0  0  0  0  0  0
  -26.3015  -12.5968   20.2077 N   0  0  0  0  0  0  0  0  0  0  0  0
  -29.5431  -22.0560   18.1435 N   0  0  3  0  0  0  0  0  0  0  0  0
  -23.9071  -30.3393   22.1052 N   0  0  0  0  0  0  0  0  0  0  0  0
  -29.5331  -14.6228   20.3964 N   0  0  0  0  0  0  0  0  0  0  0  0
  -26.0162  -11.3053   18.2428 N   0  0  0  0  0  0  0  0  0  0  0  0
  -22.2735  -11.8299   18.5757 N   0  0  0  0  0  0  0  0  0  0  0  0
  -29.1049  -16.5512   19.1079 N   0  0  0  0  0  0  0  0  0  0  0  0
  -26.1157  -33.2407   22.0858 N   0  0  0  0  0  0  0  0  0  0  0  0
  -21.5512  -28.3945   22.6792 N   0  0  0  0  0  0  0  0  0  0  0  0
  -27.3390  -24.2062   18.7128 N   0  3  0  0  0  0  0  0  0  0  0  0
  -21.3509  -25.1622   21.0731 N   0  3  0  0  0  0  0  0  0  0  0  0
  -30.0876  -24.9285   20.2007 O   0  0  0  0  0  0  0  0  0  0  0  0
  -22.8568   -9.9453   19.7449 O   0  0  0  0  0  0  0  0  0  0  0  0
  -25.7763  -31.4088   23.4827 O   0  0  0  0  0  0  0  0  0  0  0  0
  -22.0472  -31.4646   22.9484 O   0  0  0  0  0  0  0  0  0  0  0  0
  -22.3073  -26.3396   23.4427 O   0  0  0  0  0  0  0  0  0  0  0  0
  -31.2804  -15.8854   19.5614 O   0  0  0  0  0  0  0  0  0  0  0  0
  -20.4701  -13.6655   24.9399 O   0  0  0  0  0  0  0  0  0  0  0  0
  -28.1668  -26.6237   19.6031 O   0  0  0  0  0  0  0  0  0  1  0  0
  -15.8734  -10.6229   24.8127 F   0  0  0  0  0  0  0  0  0  0  0  0
  -27.0254  -17.9945   17.9401 F   0  0  0  0  0  0  0  0  0  0  0  0
  -19.7218  -12.1348   27.1169 F   0  0  0  0  0  0  0  0  0  0  0  0
  1  2  1  0  0  0  0
  1  5  2  0  0  0  0
  2  6  2  0  0  0  0
  3 10  2  0  0  0  0
  3 18  1  0  0  0  0
  4 11  1  0  0  0  0
  4 18  2  0  0  0  0
  5 20  1  0  0  0  0
  6 22  1  0  0  0  0
  7 12  2  0  0  0  0
  7 21  1  0  0  0  0
  8  9  2  0  0  0  0
  8 24  1  0  0  0  0
  9 25  1  0  0  0  0
 10 26  1  0  0  0  0
 11 26  2  0  0  0  0
 12 27  1  0  0  0  0
 13 14  2  0  0  0  0
 13 28  1  0  0  0  0
 14 29  1  0  0  0  0
 15 23  1  0  0  0  0
 15 27  2  0  0  0  0
 16 24  2  0  0  0  0
 16 30  1  0  0  0  0
 17 29  2  0  0  0  0
 17 31  1  0  0  0  0
 18 32  1  0  0  0  0
 19 32  1  0  0  0  0
 19 33  2  0  0  0  0
 19 37  1  0  0  0  0
 20 22  2  0  0  0  0
 20 42  1  0  0  0  0
 21 23  2  0  0  0  0
 21 43  1  0  0  0  0
 22 55  1  0  0  0  0
 23 44  1  0  0  0  0
 24 71  1  0  0  0  0
 25 30  2  0  0  0  0
 25 76  1  0  0  0  0
 26 87  1  0  0  0  0
 27 88  1  0  0  0  0
 28 31  2  0  0  0  0
 28 87  1  0  0  0  0
 29 89  1  0  0  0  0
 30 90  1  0  0  0  0
 31 91  1  0  0  0  0
 32 69  2  0  0  0  0
 33 70  1  0  0  0  0
 33 74  1  0  0  0  0
 34 35  2  0  0  0  0
 34 45  1  0  0  0  0
 35 56  1  0  0  0  0
 35 59  1  0  0  0  0
 36 46  1  0  0  0  0
 36 59  1  0  0  0  0
 36 81  2  0  0  0  0
 37 75  1  0  0  0  0
 37 82  2  0  0  0  0
 38 57  1  0  0  0  0
 38 77  1  0  0  0  0
 38 83  2  0  0  0  0
 39 66  1  0  0  0  0
 39 72  1  0  0  0  0
 39 84  2  0  0  0  0
 40 67  1  0  0  0  0
 40 78  1  0  0  0  0
 40 85  2  0  0  0  0
 41 73  1  0  0  0  0
 41 76  1  0  0  0  0
 41 86  2  0  0  0  0
 42 47  1  0  0  0  0
 43 57  1  0  0  0  0
 44 72  1  0  0  0  0
 45 48  1  0  0  0  0
 46 71  1  0  0  0  0
 47 50  1  0  0  0  0
 48 51  1  0  0  0  0
 49 52  1  0  0  0  0
 49 53  1  0  0  0  0
 50 55  1  0  0  0  0
 51 56  1  0  0  0  0
 52 58  1  0  0  0  0
 53 73  1  0  0  0  0
 54 58  1  0  0  0  0
 54 73  1  0  0  0  0
 55 77  1  0  0  0  0
 56 71  1  0  0  0  0
 57 72  1  0  0  0  0
 58 70  1  0  0  0  0
 59 65  1  0  0  0  0
 59 79  1  0  0  0  0
 60 67  1  0  0  0  0
 61 68  1  0  0  0  0
 62 68  1  0  0  0  0
 63 68  1  0  0  0  0
 64 80  1  0  0  0  0
 65 88  1  0  0  0  0
 66 68  1  0  0  0  0
 66 78  1  0  0  0  0
 67 80  1  0  0  0  0
 69 70  1  0  0  0  0
M  CHG  2  79   1  80   1
M  ISO  4  41 100  65 101  76 100  88 101
M  END
> <Batch ID>
0070

> <Smiles>
CNC(C)C(=O)NC(C(=O)N1Cc2cc([101O:1][101CH2:1]C3(N)C(=O)CN(c4ccc([100NH:0][100C:0](=O)N5CCCC(n6nc(-c7ccc(Oc8ccc(F)cc8F)cc7)c(C(N)=O)c6N)C5)c(F)c4)C4CCCC=C43)ccc2CC1C(=O)NC1CCCc2ccccc21)C(C)(C)C

> <Shape>
0.282

> <Color>
0.078

> <Negative vol penalty>
0.000

$$$$

  -OEChem-04042323323D

 89 98  0     1  0  0  0  0  0999 V2000
  -25.2841  -37.6324   19.2350 C   0  0  0  0  0  0  0  0  0  0  0  0
  -25.9321  -36.4411   18.9245 C   0  0  0  0  0  0  0  0  0  0  0  0
  -23.1252  -10.0509   20.1798 C   0  0  0  0  0  0  0  0  0  0  0  0
  -24.7756   -8.5162   21.0503 C   0  0  0  0  0  0  0  0  0  0  0  0
  -24.7325  -37.8147   20.5025 C   0  0  0  0  0  0  0  0  0  0  0  0
  -26.0298  -35.4319   19.8817 C   0  0  0  0  0  0  0  0  0  0  0  0
  -25.8954  -29.3903   18.8883 C   0  0  0  0  0  0  0  0  0  0  0  0
  -29.0484  -20.3156   21.3179 C   0  0  0  0  0  0  0  0  0  0  0  0
  -29.1404  -18.9526   21.5992 C   0  0  0  0  0  0  0  0  0  0  0  0
  -22.1164   -9.1348   20.4772 C   0  0  0  0  0  0  0  0  0  0  0  0
  -23.7667   -7.6000   21.3478 C   0  0  0  0  0  0  0  0  0  0  0  0
  -26.9050  -28.4350   18.7788 C   0  0  0  0  0  0  0  0  0  0  0  0
  -21.4351   -7.1591   23.7540 C   0  0  0  0  0  0  0  0  0  0  0  0
  -21.4755   -6.5351   25.0008 C   0  0  0  0  0  0  0  0  0  0  0  0
  -26.6191  -27.8748   21.1077 C   0  0  0  0  0  0  0  0  0  0  0  0
  -28.1185  -19.8050   19.1473 C   0  0  0  0  0  0  0  0  0  0  0  0
  -21.6305   -4.3811   23.9176 C   0  0  0  0  0  0  0  0  0  0  0  0
  -24.4549   -9.7416   20.4663 C   0  0  0  0  0  0  0  0  0  0  0  0
  -25.8278  -11.2066   18.8926 C   0  0  0  0  0  0  0  0  0  0  0  0
  -24.8150  -36.8034   21.4726 C   0  0  0  0  0  0  0  0  0  0  0  0
  -25.2465  -29.6029   20.1131 C   0  0  0  0  0  0  0  0  0  0  0  0
  -25.4799  -35.6013   21.1638 C   0  0  0  0  0  0  0  0  0  0  0  0
  -25.5999  -28.8316   21.2294 C   0  0  0  0  0  0  0  0  0  0  0  0
  -28.5374  -20.7419   20.0919 C   0  0  0  0  0  0  0  0  0  0  0  0
  -28.7215  -18.0157   20.6545 C   0  0  0  0  0  0  0  0  0  0  0  0
  -28.2105  -18.4419   19.4285 C   0  0  0  0  0  0  0  0  0  0  0  0
  -22.4371   -7.9094   21.0613 C   0  0  0  0  0  0  0  0  0  0  0  0
  -27.2690  -27.6791   19.8893 C   0  0  0  0  0  0  0  0  0  0  0  0
  -21.4923   -6.3942   22.5889 C   0  0  0  0  0  0  0  0  0  0  0  0
  -21.5732   -5.1461   25.0826 C   0  0  0  0  0  0  0  0  0  0  0  0
  -21.5901   -5.0051   22.6708 C   0  0  0  0  0  0  0  0  0  0  0  0
  -25.4975  -10.6873   20.1587 C   0  0  0  0  0  0  0  0  0  0  0  0
  -26.8792  -12.0568   19.1338 C   0  0  0  0  0  0  0  0  0  0  0  0
  -27.9616  -22.7280   18.6412 C   0  0  0  0  0  0  0  0  0  0  0  0
  -25.2369  -10.9440   17.6129 C   0  0  0  0  0  0  0  0  0  0  0  0
  -24.9613  -32.0655   22.1026 C   0  0  0  0  0  0  0  0  0  0  0  0
  -22.9101  -30.0811   23.6444 C   0  0  0  0  0  0  0  0  0  0  0  0
  -21.9036  -26.8839   24.2859 C   0  0  0  0  0  0  0  0  0  0  0  0
  -29.3117  -16.0657   22.1363 C   0  0  0  0  0  0  0  0  0  0  0  0
  -24.2448  -37.0649   22.8441 C   0  0  0  0  0  0  0  0  0  0  0  0
  -24.1411  -30.6186   20.2080 C   0  0  0  0  0  0  0  0  0  0  0  0
  -24.9201  -29.0071   22.5619 C   0  0  0  0  0  0  0  0  0  0  0  0
  -24.0640  -35.8003   23.6798 C   0  0  0  0  0  0  0  0  0  0  0  0
  -29.6940  -12.7186   23.2885 C   0  0  0  0  0  0  0  0  0  0  0  0
  -25.3136  -34.9285   23.6062 C   0  0  0  0  0  0  0  0  0  0  0  0
  -28.6635  -11.9344   22.4728 C   0  0  0  0  0  0  0  0  0  0  0  0
  -29.1826  -14.1087   23.6622 C   0  0  0  0  0  0  0  0  0  0  0  0
  -27.6680  -14.1318   21.7194 C   0  0  0  0  0  0  0  0  0  0  0  0
  -28.7578  -23.1498   20.7723 C   0  0  0  0  0  0  0  0  0  0  0  0
  -25.5847  -34.4734   22.1672 C   0  0  1  0  0  0  0  0  0  0  0  0
  -23.9016  -31.1097   21.6323 C   0  0  1  0  0  0  0  0  0  0  0  0
  -28.1632  -12.7494   21.2640 C   0  0  2  0  0  0  0  0  0  0  0  0
  -28.7897  -24.4150   19.9442 C   0  0  2  0  0  0  0  0  0  0  0  0
  -20.2239  -25.5767   25.6152 C   0  0  0  0  0  0  0  0  0  0  0  0
  -24.5378  -30.5711   26.1783 C   0  0  0  0  0  0  0  0  0  0  0  0
  -23.4336  -28.5656   27.1918 C   0  0  0  0  0  0  0  0  0  0  0  0
  -22.0606  -30.5369   26.5200 C   0  0  0  0  0  0  0  0  0  0  0  0
  -20.6987  -25.7260   21.8432 C   0  0  0  0  0  0  0  0  0  0  0  0
  -30.0291  -16.2829   17.6407 C   0  0  0  0  0  0  0  0  0  0  0  0
  -28.1646  -25.6084   20.6415 C   0  0  0  0  0  0  0  0  0  1  0  0
  -23.0417  -29.0426   24.7321 C   0  0  1  0  0  0  0  0  0  0  0  0
  -20.5286  -26.2407   24.2814 C   0  0  2  0  0  0  0  0  0  0  0  0
  -23.2827  -29.6768   26.1311 C   0  0  0  0  0  0  0  0  0  0  0  0
  -26.2761  -11.1673   21.1320 N   0  0  0  0  0  0  0  0  0  0  0  0
  -27.1062  -11.9971   20.4774 N   0  0  0  0  0  0  0  0  0  0  0  0
  -28.4429  -22.1340   19.8045 N   0  0  0  0  0  0  0  0  0  0  0  0
  -23.8497  -30.0170   22.6058 N   0  0  0  0  0  0  0  0  0  0  0  0
  -28.7298  -14.8236   22.4669 N   0  0  0  0  0  0  0  0  0  0  0  0
  -27.6225  -12.8421   18.3256 N   0  0  0  0  0  0  0  0  0  0  0  0
  -25.7524   -9.8931   16.8420 N   0  0  0  0  0  0  0  0  0  0  0  0
  -28.8244  -16.6361   20.9608 N   0  0  0  0  0  0  0  0  0  0  0  0
  -27.7744  -17.4997   18.4439 N   0  0  0  0  0  0  0  0  0  0  0  0
  -24.6978  -33.3888   21.8046 N   0  0  0  0  0  0  0  0  0  0  0  0
  -21.8449  -28.2123   24.6507 N   0  0  0  0  0  0  0  0  0  0  0  0
  -20.4438  -25.2067   23.2115 N   0  3  0  0  0  0  0  0  0  0  0  0
  -27.5024  -22.2058   17.6352 O   0  0  0  0  0  0  0  0  0  0  0  0
  -24.2910  -11.6317   17.1592 O   0  0  0  0  0  0  0  0  0  0  0  0
  -25.9445  -31.6344   22.6935 O   0  0  0  0  0  0  0  0  0  0  0  0
  -22.0025  -30.9140   23.7101 O   0  0  0  0  0  0  0  0  0  0  0  0
  -22.9278  -26.2684   23.9983 O   0  0  0  0  0  0  0  0  0  0  0  0
  -30.1978  -16.5722   22.8292 O   0  0  0  0  0  0  0  0  0  0  0  0
  -27.9701  -16.5212   16.0687 O   0  0  0  0  0  0  0  0  0  0  0  0
  -29.3086  -18.5825   16.6206 O   0  0  0  0  0  0  0  0  0  0  0  0
  -28.0369  -24.0963   18.7658 O   0  0  0  0  0  0  0  0  0  0  0  0
  -21.4529   -7.0153   21.3519 O   0  0  0  0  0  0  0  0  0  0  0  0
  -28.2545  -26.7465   19.7854 O   0  0  0  0  0  0  0  0  0  1  0  0
  -21.6136   -4.5471   26.2800 F   0  0  0  0  0  0  0  0  0  0  0  0
  -21.6466   -4.2650   21.5551 F   0  0  0  0  0  0  0  0  0  0  0  0
  -28.7227  -17.3182   17.0195 S   0  0  0  0  0  0  0  0  0  0  0  0
  1  2  1  0  0  0  0
  1  5  2  0  0  0  0
  2  6  2  0  0  0  0
  3 10  2  0  0  0  0
  3 18  1  0  0  0  0
  4 11  1  0  0  0  0
  4 18  2  0  0  0  0
  5 20  1  0  0  0  0
  6 22  1  0  0  0  0
  7 12  2  0  0  0  0
  7 21  1  0  0  0  0
  8  9  2  0  0  0  0
  8 24  1  0  0  0  0
  9 25  1  0  0  0  0
 10 27  1  0  0  0  0
 11 27  2  0  0  0  0
 12 28  1  0  0  0  0
 13 14  2  0  0  0  0
 13 29  1  0  0  0  0
 14 30  1  0  0  0  0
 15 23  1  0  0  0  0
 15 28  2  0  0  0  0
 16 24  2  0  0  0  0
 16 26  1  0  0  0  0
 17 30  2  0  0  0  0
 17 31  1  0  0  0  0
 18 32  1  0  0  0  0
 19 32  1  0  0  0  0
 19 33  2  0  0  0  0
 19 35  1  0  0  0  0
 20 22  2  0  0  0  0
 20 40  1  0  0  0  0
 21 23  2  0  0  0  0
 21 41  1  0  0  0  0
 22 50  1  0  0  0  0
 23 42  1  0  0  0  0
 24 66  1  0  0  0  0
 25 26  2  0  0  0  0
 25 71  1  0  0  0  0
 26 72  1  0  0  0  0
 27 85  1  0  0  0  0
 28 86  1  0  0  0  0
 29 31  2  0  0  0  0
 29 85  1  0  0  0  0
 30 87  1  0  0  0  0
 31 88  1  0  0  0  0
 32 64  2  0  0  0  0
 33 65  1  0  0  0  0
 33 69  1  0  0  0  0
 34 66  1  0  0  0  0
 34 76  2  0  0  0  0
 34 84  1  0  0  0  0
 35 70  1  0  0  0  0
 35 77  2  0  0  0  0
 36 51  1  0  0  0  0
 36 73  1  0  0  0  0
 36 78  2  0  0  0  0
 37 61  1  0  0  0  0
 37 67  1  0  0  0  0
 37 79  2  0  0  0  0
 38 62  1  0  0  0  0
 38 74  1  0  0  0  0
 38 80  2  0  0  0  0
 39 68  1  0  0  0  0
 39 71  1  0  0  0  0
 39 81  2  0  0  0  0
 40 43  1  0  0  0  0
 41 51  1  0  0  0  0
 42 67  1  0  0  0  0
 43 45  1  0  0  0  0
 44 46  1  0  0  0  0
 44 47  1  0  0  0  0
 45 50  1  0  0  0  0
 46 52  1  0  0  0  0
 47 68  1  0  0  0  0
 48 52  1  0  0  0  0
 48 68  1  0  0  0  0
 49 53  1  0  0  0  0
 49 66  1  0  0  0  0
 50 73  1  0  0  0  0
 51 67  1  0  0  0  0
 52 65  1  0  0  0  0
 53 60  1  0  0  0  0
 53 84  1  0  0  0  0
 54 62  1  0  0  0  0
 55 63  1  0  0  0  0
 56 63  1  0  0  0  0
 57 63  1  0  0  0  0
 58 75  1  0  0  0  0
 59 89  1  0  0  0  0
 60 86  1  0  0  0  0
 61 63  1  0  0  0  0
 61 74  1  0  0  0  0
 62 75  1  0  0  0  0
 64 65  1  0  0  0  0
 72 89  1  0  0  0  0
 82 89  2  0  0  0  0
 83 89  2  0  0  0  0
M  CHG  1  75   1
M  ISO  4  39 100  60 101  71 100  86 101
M  END
> <Batch ID>
0070

> <Smiles>
CNC(C)C(=O)NC(C(=O)N1Cc2cc([101O:1][101CH2:1]C3CN(c4ccc([100NH:0][100C:0](=O)N5CCCC(n6nc(-c7ccc(Oc8ccc(F)cc8F)cc7)c(C(N)=O)c6N)C5)c(NS(C)(=O)=O)c4)C(=O)O3)ccc2CC1C(=O)NC1CCCc2ccccc21)C(C)(C)C

> <Shape>
0.317

> <Color>
0.101

> <Negative vol penalty>
0.000

$$$$

  -OEChem-04042323323D

 85 93  0     1  0  0  0  0  0999 V2000
  -20.8806   -8.2877   24.0884 C   0  0  0  0  0  0  0  0  0  0  0  0
  -21.8946   -9.1197   24.5522 C   0  0  0  0  0  0  0  0  0  0  0  0
  -26.2369  -29.7040   19.6127 C   0  0  0  0  0  0  0  0  0  0  0  0
  -26.1976  -28.9582   21.9104 C   0  0  0  0  0  0  0  0  0  0  0  0
  -20.8694   -7.8809   22.7549 C   0  0  0  0  0  0  0  0  0  0  0  0
  -22.8987   -9.5445   23.6829 C   0  0  0  0  0  0  0  0  0  0  0  0
  -23.9133  -14.4836   24.1521 C   0  0  0  0  0  0  0  0  0  0  0  0
  -25.0605  -30.4225   19.8258 C   0  0  0  0  0  0  0  0  0  0  0  0
  -25.0212  -29.6767   22.1235 C   0  0  0  0  0  0  0  0  0  0  0  0
  -24.6981  -14.8722   25.2369 C   0  0  0  0  0  0  0  0  0  0  0  0
  -21.8135  -31.0229   23.1762 C   0  0  0  0  0  0  0  0  0  0  0  0
  -20.7842  -30.3898   23.8728 C   0  0  0  0  0  0  0  0  0  0  0  0
  -26.6260  -14.9912   23.7918 C   0  0  0  0  0  0  0  0  0  0  0  0
  -28.1506  -20.5557   24.9847 C   0  0  0  0  0  0  0  0  0  0  0  0
  -28.3178  -19.7328   22.3244 C   0  0  0  0  0  0  0  0  0  0  0  0
  -20.6928  -28.6720   22.1763 C   0  0  0  0  0  0  0  0  0  0  0  0
  -26.8054  -28.9718   20.6550 C   0  0  0  0  0  0  0  0  0  0  0  0
  -29.3401  -28.6877   20.6070 C   0  0  0  0  0  0  0  0  0  0  0  0
  -21.8685   -8.3088   21.8664 C   0  0  0  0  0  0  0  0  0  0  0  0
  -24.4821  -14.3352   22.8790 C   0  0  0  0  0  0  0  0  0  0  0  0
  -22.9016   -9.1420   22.3365 C   0  0  0  0  0  0  0  0  0  0  0  0
  -25.8457  -14.6032   22.6920 C   0  0  0  0  0  0  0  0  0  0  0  0
  -27.8289  -19.2432   24.6392 C   0  0  0  0  0  0  0  0  0  0  0  0
  -28.6394  -21.0454   22.6699 C   0  0  0  0  0  0  0  0  0  0  0  0
  -24.4526  -30.4089   21.0812 C   0  0  0  0  0  0  0  0  0  0  0  0
  -26.0552  -15.1232   25.0575 C   0  0  0  0  0  0  0  0  0  0  0  0
  -22.2824  -30.4807   21.9796 C   0  0  0  0  0  0  0  0  0  0  0  0
  -20.2239  -29.2143   23.3729 C   0  0  0  0  0  0  0  0  0  0  0  0
  -27.9125  -18.8317   23.3090 C   0  0  0  0  0  0  0  0  0  0  0  0
  -28.5558  -21.4568   24.0001 C   0  0  0  0  0  0  0  0  0  0  0  0
  -21.7221  -29.3052   21.4797 C   0  0  0  0  0  0  0  0  0  0  0  0
  -28.0203  -28.2289   20.4354 C   0  0  0  0  0  0  0  0  0  0  0  0
  -30.1242  -27.6110   20.2718 C   0  0  0  0  0  0  0  0  0  0  0  0
  -27.4730  -17.1213   29.0744 C   0  0  0  0  0  0  0  0  0  0  0  0
  -29.8148  -29.9722   21.0317 C   0  0  0  0  0  0  0  0  0  0  0  0
  -27.1590  -17.1975   27.7709 C   0  0  0  0  0  0  0  0  0  0  0  0
  -27.7889  -18.3168   26.9793 C   0  0  0  0  0  0  0  0  0  0  0  0
  -24.8418  -11.9138   20.8514 C   0  0  0  0  0  0  0  0  0  0  0  0
  -25.9692  -14.2359   18.8869 C   0  0  0  0  0  0  0  0  0  0  0  0
  -27.3917  -17.3214   18.5666 C   0  0  0  0  0  0  0  0  0  0  0  0
  -29.1848  -21.7100   20.3020 C   0  0  0  0  0  0  0  0  0  0  0  0
  -21.8407   -7.8045   20.4453 C   0  0  0  0  0  0  0  0  0  0  0  0
  -23.6164  -13.9412   21.7137 C   0  0  0  0  0  0  0  0  0  0  0  0
  -26.5005  -14.4780   21.3414 C   0  0  0  0  0  0  0  0  0  0  0  0
  -22.7335   -8.6023   19.4983 C   0  0  0  0  0  0  0  0  0  0  0  0
  -30.1327  -23.7011   17.5066 C   0  0  0  0  0  0  0  0  0  0  0  0
  -24.1061   -8.8298   20.1235 C   0  0  0  0  0  0  0  0  0  0  0  0
  -29.8243  -25.1304   17.9583 C   0  0  0  0  0  0  0  0  0  0  0  0
  -29.0970  -22.7059   18.0270 C   0  0  0  0  0  0  0  0  0  0  0  0
  -28.5613  -24.1773   19.9289 C   0  0  0  0  0  0  0  0  0  0  0  0
  -23.9946   -9.6440   21.4181 C   0  0  1  0  0  0  0  0  0  0  0  0
  -24.4065  -13.3230   20.5645 C   0  0  1  0  0  0  0  0  0  0  0  0
  -29.6130  -25.2063   19.4832 C   0  0  2  0  0  0  0  0  0  0  0  0
  -28.2299  -18.9342   16.8363 C   0  0  0  0  0  0  0  0  0  0  0  0
  -28.4722  -12.5313   18.5142 C   0  0  0  0  0  0  0  0  0  0  0  0
  -29.6265  -14.5523   17.5914 C   0  0  0  0  0  0  0  0  0  0  0  0
  -27.6292  -13.6176   16.4252 C   0  0  0  0  0  0  0  0  0  0  0  0
  -25.4397  -19.3910   19.3823 C   0  0  0  0  0  0  0  0  0  0  0  0
  -26.1811  -16.2401   27.1534 C   0  0  0  0  0  0  0  0  0  1  0  0
  -27.3250  -14.8420   18.6161 C   0  0  1  0  0  0  0  0  0  0  0  0
  -27.0417  -18.5052   17.6830 C   0  0  2  0  0  0  0  0  0  0  0  0
  -28.2516  -13.8864   17.8127 C   0  0  0  0  0  0  0  0  0  0  0  0
  -27.9652  -26.9597   20.0229 N   0  0  0  0  0  0  0  0  0  0  0  0
  -29.2601  -26.6118   19.9326 N   0  0  0  0  0  0  0  0  0  0  0  0
  -25.6133  -14.0839   20.2345 N   0  0  0  0  0  0  0  0  0  0  0  0
  -28.9533  -22.8324   19.4790 N   0  0  0  0  0  0  0  0  0  0  0  0
  -31.4617  -27.4310   20.2370 N   0  0  0  0  0  0  0  0  0  0  0  0
  -28.8737  -30.9649   21.3370 N   0  0  0  0  0  0  0  0  0  0  0  0
  -27.4169  -18.3298   25.6420 N   0  0  0  0  0  0  0  0  0  0  0  0
  -29.0502  -21.9587   21.6675 N   0  0  0  0  0  0  0  0  0  0  0  0
  -23.7998  -11.0463   21.1181 N   0  0  0  0  0  0  0  0  0  0  0  0
  -27.0765  -16.1226   17.9628 N   0  0  0  0  0  0  0  0  0  0  0  0
  -26.6150  -19.6650   18.5159 N   0  3  0  0  0  0  0  0  0  0  0  0
  -31.0376  -30.2372   21.1214 O   0  0  0  0  0  0  0  0  0  0  0  0
  -28.5485  -19.1114   27.5278 O   0  0  0  0  0  0  0  0  0  0  0  0
  -26.0347  -11.6339   20.8308 O   0  0  0  0  0  0  0  0  0  0  0  0
  -25.2493  -13.9159   17.9377 O   0  0  0  0  0  0  0  0  0  0  0  0
  -27.8978  -17.4475   19.6795 O   0  0  0  0  0  0  0  0  0  0  0  0
  -29.5074  -20.6160   19.8318 O   0  0  0  0  0  0  0  0  0  0  0  0
  -23.3048  -31.1101   21.2896 O   0  0  0  0  0  0  0  0  0  0  0  0
  -26.8237  -15.5020   26.1147 O   0  0  0  0  0  0  0  0  0  1  0  0
  -19.2365  -28.6055   24.0427 F   0  0  0  0  0  0  0  0  0  0  0  0
  -27.6065  -17.5724   22.9655 F   0  0  0  0  0  0  0  0  0  0  0  0
  -28.8628  -22.7159   24.3439 F   0  0  0  0  0  0  0  0  0  0  0  0
  -22.1692  -28.7789   20.3312 F   0  0  0  0  0  0  0  0  0  0  0  0
  1  2  1  0  0  0  0
  1  5  2  0  0  0  0
  2  6  2  0  0  0  0
  3  8  2  0  0  0  0
  3 17  1  0  0  0  0
  4  9  1  0  0  0  0
  4 17  2  0  0  0  0
  5 19  1  0  0  0  0
  6 21  1  0  0  0  0
  7 10  2  0  0  0  0
  7 20  1  0  0  0  0
  8 25  1  0  0  0  0
  9 25  2  0  0  0  0
 10 26  1  0  0  0  0
 11 12  2  0  0  0  0
 11 27  1  0  0  0  0
 12 28  1  0  0  0  0
 13 22  1  0  0  0  0
 13 26  2  0  0  0  0
 14 23  1  0  0  0  0
 14 30  2  0  0  0  0
 15 24  2  0  0  0  0
 15 29  1  0  0  0  0
 16 28  2  0  0  0  0
 16 31  1  0  0  0  0
 17 32  1  0  0  0  0
 18 32  1  0  0  0  0
 18 33  2  0  0  0  0
 18 35  1  0  0  0  0
 19 21  2  0  0  0  0
 19 42  1  0  0  0  0
 20 22  2  0  0  0  0
 20 43  1  0  0  0  0
 21 51  1  0  0  0  0
 22 44  1  0  0  0  0
 23 29  2  0  0  0  0
 23 69  1  0  0  0  0
 24 30  1  0  0  0  0
 24 70  1  0  0  0  0
 25 80  1  0  0  0  0
 26 81  1  0  0  0  0
 27 31  2  0  0  0  0
 27 80  1  0  0  0  0
 28 82  1  0  0  0  0
 29 83  1  0  0  0  0
 30 84  1  0  0  0  0
 31 85  1  0  0  0  0
 32 63  2  0  0  0  0
 33 64  1  0  0  0  0
 33 67  1  0  0  0  0
 34 36  2  0  0  0  0
 35 68  1  0  0  0  0
 35 74  2  0  0  0  0
 36 37  1  0  0  0  0
 36 59  1  0  0  0  0
 37 69  1  0  0  0  0
 37 75  2  0  0  0  0
 38 52  1  0  0  0  0
 38 71  1  0  0  0  0
 38 76  2  0  0  0  0
 39 60  1  0  0  0  0
 39 65  1  0  0  0  0
 39 77  2  0  0  0  0
 40 61  1  0  0  0  0
 40 72  1  0  0  0  0
 40 78  2  0  0  0  0
 41 66  1  0  0  0  0
 41 70  1  0  0  0  0
 41 79  2  0  0  0  0
 42 45  1  0  0  0  0
 43 52  1  0  0  0  0
 44 65  1  0  0  0  0
 45 47  1  0  0  0  0
 46 48  1  0  0  0  0
 46 49  1  0  0  0  0
 47 51  1  0  0  0  0
 48 53  1  0  0  0  0
 49 66  1  0  0  0  0
 50 53  1  0  0  0  0
 50 66  1  0  0  0  0
 51 71  1  0  0  0  0
 52 65  1  0  0  0  0
 53 64  1  0  0  0  0
 54 61  1  0  0  0  0
 55 62  1  0  0  0  0
 56 62  1  0  0  0  0
 57 62  1  0  0  0  0
 58 73  1  0  0  0  0
 59 81  1  0  0  0  0
 60 62  1  0  0  0  0
 60 72  1  0  0  0  0
 61 73  1  0  0  0  0
 63 64  1  0  0  0  0
M  CHG  1  73   1
M  ISO  4  41 100  59 101  70 100  81 101
M  END
> <Batch ID>
0070

> <Smiles>
C=C(C(=O)Nc1cc(F)c([100NH:0][100C:0](=O)N2CCCC(n3nc(-c4ccc(Oc5ccc(F)cc5F)cc4)c(C(N)=O)c3N)C2)cc1F)[101CH2:1][101O:1]c1ccc2c(c1)CN(C(=O)C(NC(=O)C(C)NC)C(C)(C)C)C(C(=O)NC1CCCc3ccccc31)C2

> <Shape>
0.263

> <Color>
0.072

> <Negative vol penalty>
0.000

$$$$

  -OEChem-04042323323D

 86 95  0     1  0  0  0  0  0999 V2000
  -22.1135  -11.2752   19.5931 C   0  0  0  0  0  0  0  0  0  0  0  0
  -21.7027  -12.5474   19.9780 C   0  0  0  0  0  0  0  0  0  0  0  0
  -30.3089  -29.3199   20.2573 C   0  0  0  0  0  0  0  0  0  0  0  0
  -29.4066  -27.3359   21.2996 C   0  0  0  0  0  0  0  0  0  0  0  0
  -23.4482  -10.9003   19.7417 C   0  0  0  0  0  0  0  0  0  0  0  0
  -22.6261  -13.4451   20.5127 C   0  0  0  0  0  0  0  0  0  0  0  0
  -22.1669  -18.0963   18.5633 C   0  0  0  0  0  0  0  0  0  0  0  0
  -31.5860  -28.9692   20.6953 C   0  0  0  0  0  0  0  0  0  0  0  0
  -30.6836  -26.9851   21.7375 C   0  0  0  0  0  0  0  0  0  0  0  0
  -21.1270  -18.8894   19.0464 C   0  0  0  0  0  0  0  0  0  0  0  0
  -33.7605  -25.3804   22.8221 C   0  0  0  0  0  0  0  0  0  0  0  0
  -34.1588  -24.0529   22.6654 C   0  0  0  0  0  0  0  0  0  0  0  0
  -22.6836  -20.0456   20.4814 C   0  0  0  0  0  0  0  0  0  0  0  0
  -17.9994  -26.8729   22.6771 C   0  0  0  0  0  0  0  0  0  0  0  0
  -19.2505  -28.9218   22.9480 C   0  0  0  0  0  0  0  0  0  0  0  0
  -20.3431  -26.9433   22.0944 C   0  0  0  0  0  0  0  0  0  0  0  0
  -33.8641  -24.2468   20.2752 C   0  0  0  0  0  0  0  0  0  0  0  0
  -29.2192  -28.5033   20.5595 C   0  0  0  0  0  0  0  0  0  0  0  0
  -27.2885  -28.5044   18.8922 C   0  0  0  0  0  0  0  0  0  0  0  0
  -24.3904  -11.7972   20.2695 C   0  0  0  0  0  0  0  0  0  0  0  0
  -23.4732  -18.2649   19.0443 C   0  0  0  0  0  0  0  0  0  0  0  0
  -23.9743  -13.0813   20.6697 C   0  0  0  0  0  0  0  0  0  0  0  0
  -23.7388  -19.2551   20.0009 C   0  0  0  0  0  0  0  0  0  0  0  0
  -18.0523  -28.2153   23.0519 C   0  0  0  0  0  0  0  0  0  0  0  0
  -19.1448  -26.2368   22.1984 C   0  0  0  0  0  0  0  0  0  0  0  0
  -20.3959  -28.2858   22.4692 C   0  0  0  0  0  0  0  0  0  0  0  0
  -31.7733  -27.8019   21.4353 C   0  0  0  0  0  0  0  0  0  0  0  0
  -21.3848  -19.8623   20.0077 C   0  0  0  0  0  0  0  0  0  0  0  0
  -33.4139  -26.1411   21.7054 C   0  0  0  0  0  0  0  0  0  0  0  0
  -34.2107  -23.4861   21.3919 C   0  0  0  0  0  0  0  0  0  0  0  0
  -33.4657  -25.5743   20.4320 C   0  0  0  0  0  0  0  0  0  0  0  0
  -27.8997  -28.8653   20.1079 C   0  0  0  0  0  0  0  0  0  0  0  0
  -26.0489  -29.0937   18.9428 C   0  0  0  0  0  0  0  0  0  0  0  0
  -18.2770  -23.9334   22.3387 C   0  0  0  0  0  0  0  0  0  0  0  0
  -18.4552  -22.7515   21.7375 C   0  0  0  0  0  0  0  0  0  0  0  0
  -17.4189  -21.2172   23.2762 C   0  0  0  0  0  0  0  0  0  0  0  0
  -17.7337  -21.5484   22.0055 C   0  0  0  0  0  0  0  0  0  0  0  0
  -27.7959  -27.7075   17.8136 C   0  0  0  0  0  0  0  0  0  0  0  0
  -25.5439  -16.4257   20.6044 C   0  0  0  0  0  0  0  0  0  0  0  0
  -27.5480  -18.9263   20.1011 C   0  0  0  0  0  0  0  0  0  0  0  0
  -27.9207  -22.2644   19.4968 C   0  0  0  0  0  0  0  0  0  0  0  0
  -21.8361  -30.3407   22.6921 C   0  0  0  0  0  0  0  0  0  0  0  0
  -25.8125  -11.3303   20.4549 C   0  0  0  0  0  0  0  0  0  0  0  0
  -24.5886  -17.4194   18.4934 C   0  0  0  0  0  0  0  0  0  0  0  0
  -25.1273  -19.4897   20.5350 C   0  0  0  0  0  0  0  0  0  0  0  0
  -26.8028  -12.4696   20.6819 C   0  0  0  0  0  0  0  0  0  0  0  0
  -24.0736  -32.8408   21.5004 C   0  0  0  0  0  0  0  0  0  0  0  0
  -26.2586  -13.4524   21.7137 C   0  0  0  0  0  0  0  0  0  0  0  0
  -25.2293  -32.0367   20.9004 C   0  0  0  0  0  0  0  0  0  0  0  0
  -23.5109  -32.1753   22.7551 C   0  0  0  0  0  0  0  0  0  0  0  0
  -19.9292  -24.3682   20.7491 C   0  0  0  0  0  0  0  0  0  0  0  0
  -24.2821  -29.9635   21.9920 C   0  0  0  0  0  0  0  0  0  0  0  0
  -24.9512  -14.0918   21.2307 C   0  0  1  0  0  0  0  0  0  0  0  0
  -19.5197  -22.8674   20.6716 C   0  0  1  0  0  0  0  0  0  0  0  0
  -25.7895  -17.3303   19.4301 C   0  0  1  0  0  0  0  0  0  0  0  0
  -24.8391  -30.5607   20.6894 C   0  0  2  0  0  0  0  0  0  0  0  0
  -16.8276  -28.8952   23.5638 C   0  0  0  0  0  0  0  0  0  0  0  0
  -29.6812  -24.0230   19.1725 C   0  0  0  0  0  0  0  0  0  0  0  0
  -28.0877  -18.9365   23.1042 C   0  0  0  0  0  0  0  0  0  0  0  0
  -29.0568  -21.2311   22.8517 C   0  0  0  0  0  0  0  0  0  0  0  0
  -30.1110  -19.2980   21.6794 C   0  0  0  0  0  0  0  0  0  0  0  0
  -26.9680  -22.8787   16.7630 C   0  0  0  0  0  0  0  0  0  0  0  0
  -20.7073  -21.9581   20.9047 C   0  0  0  0  0  0  0  0  0  1  0  0
  -27.8931  -20.1882   20.8544 C   0  0  1  0  0  0  0  0  0  0  0  0
  -28.7693  -23.0168   18.4878 C   0  0  2  0  0  0  0  0  0  0  0  0
  -28.7605  -19.9079   22.1140 C   0  0  0  0  0  0  0  0  0  0  0  0
  -27.1133  -29.6252   20.8747 N   0  0  0  0  0  0  0  0  0  0  0  0
  -25.9952  -29.7467   20.1390 N   0  0  0  0  0  0  0  0  0  0  0  0
  -19.0925  -24.9162   21.8298 N   0  0  0  0  0  0  0  0  0  0  0  0
  -26.1831  -18.6334   19.9698 N   0  0  0  0  0  0  0  0  0  0  0  0
  -23.1595  -30.7807   22.4784 N   0  0  0  0  0  0  0  0  0  0  0  0
  -25.0106  -29.1120   18.0803 N   0  0  0  0  0  0  0  0  0  0  0  0
  -29.0890  -27.1786   17.9245 N   0  0  0  0  0  0  0  0  0  0  0  0
  -21.6127  -29.0040   22.3634 N   0  0  0  0  0  0  0  0  0  0  0  0
  -25.2244  -15.1270   20.2570 N   0  0  0  0  0  0  0  0  0  0  0  0
  -28.5171  -21.0837   19.8864 N   0  0  0  0  0  0  0  0  0  0  0  0
  -27.9003  -23.7496   17.5241 N   0  3  0  0  0  0  0  0  0  0  0  0
  -27.1286  -27.4852   16.7749 O   0  0  0  0  0  0  0  0  0  0  0  0
  -25.6388  -16.8726   21.7415 O   0  0  0  0  0  0  0  0  0  0  0  0
  -28.4557  -18.2300   19.6398 O   0  0  0  0  0  0  0  0  0  0  0  0
  -26.8388  -22.6839   19.9019 O   0  0  0  0  0  0  0  0  0  0  0  0
  -20.9585  -31.1013   23.1084 O   0  0  0  0  0  0  0  0  0  0  0  0
  -33.0194  -27.4592   21.8626 O   0  0  0  0  0  0  0  0  0  0  0  0
  -20.3715  -20.6373   20.4815 O   0  0  0  0  0  0  0  0  0  1  0  0
  -34.5947  -22.2117   21.2414 F   0  0  0  0  0  0  0  0  0  0  0  0
  -33.1351  -26.3005   19.3553 F   0  0  0  0  0  0  0  0  0  0  0  0
  1  2  1  0  0  0  0
  1  5  2  0  0  0  0
  2  6  2  0  0  0  0
  3  8  2  0  0  0  0
  3 18  1  0  0  0  0
  4  9  1  0  0  0  0
  4 18  2  0  0  0  0
  5 20  1  0  0  0  0
  6 22  1  0  0  0  0
  7 10  2  0  0  0  0
  7 21  1  0  0  0  0
  8 27  1  0  0  0  0
  9 27  2  0  0  0  0
 10 28  1  0  0  0  0
 11 12  2  0  0  0  0
 11 29  1  0  0  0  0
 12 30  1  0  0  0  0
 13 23  1  0  0  0  0
 13 28  2  0  0  0  0
 14 24  2  0  0  0  0
 14 25  1  0  0  0  0
 15 24  1  0  0  0  0
 15 26  2  0  0  0  0
 16 25  2  0  0  0  0
 16 26  1  0  0  0  0
 17 30  2  0  0  0  0
 17 31  1  0  0  0  0
 18 32  1  0  0  0  0
 19 32  1  0  0  0  0
 19 33  2  0  0  0  0
 19 38  1  0  0  0  0
 20 22  2  0  0  0  0
 20 43  1  0  0  0  0
 21 23  2  0  0  0  0
 21 44  1  0  0  0  0
 22 53  1  0  0  0  0
 23 45  1  0  0  0  0
 24 57  1  0  0  0  0
 25 69  1  0  0  0  0
 26 74  1  0  0  0  0
 27 83  1  0  0  0  0
 28 84  1  0  0  0  0
 29 31  2  0  0  0  0
 29 83  1  0  0  0  0
 30 85  1  0  0  0  0
 31 86  1  0  0  0  0
 32 67  2  0  0  0  0
 33 68  1  0  0  0  0
 33 72  1  0  0  0  0
 34 35  2  0  0  0  0
 34 69  1  0  0  0  0
 35 37  1  0  0  0  0
 35 54  1  0  0  0  0
 36 37  2  0  0  0  0
 38 73  1  0  0  0  0
 38 78  2  0  0  0  0
 39 55  1  0  0  0  0
 39 75  1  0  0  0  0
 39 79  2  0  0  0  0
 40 64  1  0  0  0  0
 40 70  1  0  0  0  0
 40 80  2  0  0  0  0
 41 65  1  0  0  0  0
 41 76  1  0  0  0  0
 41 81  2  0  0  0  0
 42 71  1  0  0  0  0
 42 74  1  0  0  0  0
 42 82  2  0  0  0  0
 43 46  1  0  0  0  0
 44 55  1  0  0  0  0
 45 70  1  0  0  0  0
 46 48  1  0  0  0  0
 47 49  1  0  0  0  0
 47 50  1  0  0  0  0
 48 53  1  0  0  0  0
 49 56  1  0  0  0  0
 50 71  1  0  0  0  0
 51 54  1  0  0  0  0
 51 69  1  0  0  0  0
 52 56  1  0  0  0  0
 52 71  1  0  0  0  0
 53 75  1  0  0  0  0
 54 63  1  0  0  0  0
 55 70  1  0  0  0  0
 56 68  1  0  0  0  0
 58 65  1  0  0  0  0
 59 66  1  0  0  0  0
 60 66  1  0  0  0  0
 61 66  1  0  0  0  0
 62 77  1  0  0  0  0
 63 84  1  0  0  0  0
 64 66  1  0  0  0  0
 64 76  1  0  0  0  0
 65 77  1  0  0  0  0
 67 68  1  0  0  0  0
M  CHG  1  77   1
M  ISO  4  42 100  63 101  74 100  84 101
M  END
> <Batch ID>
0070

> <Smiles>
C=CC1=CN(c2cc(C)cc([100NH:0][100C:0](=O)N3CCCC(n4nc(-c5ccc(Oc6ccc(F)cc6F)cc5)c(C(N)=O)c4N)C3)c2)CC1[101CH2:1][101O:1]c1ccc2c(c1)CN(C(=O)C(NC(=O)C(C)NC)C(C)(C)C)C(C(=O)NC1CCCc3ccccc31)C2

> <Shape>
0.235

> <Color>
0.078

> <Negative vol penalty>
0.000

$$$$

  -OEChem-04042323323D

 90 99  0     1  0  0  0  0  0999 V2000
  -22.9148  -23.7055   20.3486 C   0  0  0  0  0  0  0  0  0  0  0  0
  -23.4341  -22.5222   19.8358 C   0  0  0  0  0  0  0  0  0  0  0  0
  -22.4863  -29.5989   19.7306 C   0  0  0  0  0  0  0  0  0  0  0  0
  -22.5257  -28.1245   21.6441 C   0  0  0  0  0  0  0  0  0  0  0  0
  -22.2943  -23.7070   21.5961 C   0  0  0  0  0  0  0  0  0  0  0  0
  -23.3227  -21.3377   20.5649 C   0  0  0  0  0  0  0  0  0  0  0  0
  -24.7572  -17.1953   18.3320 C   0  0  0  0  0  0  0  0  0  0  0  0
  -21.0941  -29.6503   19.7988 C   0  0  0  0  0  0  0  0  0  0  0  0
  -21.1334  -28.1759   21.7124 C   0  0  0  0  0  0  0  0  0  0  0  0
  -26.0968  -16.8954   18.0884 C   0  0  0  0  0  0  0  0  0  0  0  0
  -18.7740  -30.3136   22.8454 C   0  0  0  0  0  0  0  0  0  0  0  0
  -18.1945  -30.4965   24.1009 C   0  0  0  0  0  0  0  0  0  0  0  0
  -28.2036  -19.6358   22.0193 C   0  0  0  0  0  0  0  0  0  0  0  0
  -28.6808  -21.0788   20.1414 C   0  0  0  0  0  0  0  0  0  0  0  0
  -26.0779  -15.3411   19.9332 C   0  0  0  0  0  0  0  0  0  0  0  0
  -27.8722  -22.0210   22.2139 C   0  0  0  0  0  0  0  0  0  0  0  0
  -27.1512  -19.7788   26.1372 C   0  0  0  0  0  0  0  0  0  0  0  0
  -17.0319  -28.3911   23.8711 C   0  0  0  0  0  0  0  0  0  0  0  0
  -26.4941  -21.3929   24.7115 C   0  0  0  0  0  0  0  0  0  0  0  0
  -23.2021  -28.8360   20.6533 C   0  0  0  0  0  0  0  0  0  0  0  0
  -28.6321  -19.8027   20.7025 C   0  0  0  0  0  0  0  0  0  0  0  0
  -25.5554  -29.6383   21.2242 C   0  0  0  0  0  0  0  0  0  0  0  0
  -22.1867  -22.5240   22.3457 C   0  0  0  0  0  0  0  0  0  0  0  0
  -24.0698  -16.5775   19.3866 C   0  0  0  0  0  0  0  0  0  0  0  0
  -22.6787  -21.3141   21.8152 C   0  0  0  0  0  0  0  0  0  0  0  0
  -24.7289  -15.6331   20.1864 C   0  0  0  0  0  0  0  0  0  0  0  0
  -27.8235  -20.7449   22.7750 C   0  0  0  0  0  0  0  0  0  0  0  0
  -28.3008  -22.1880   20.8971 C   0  0  0  0  0  0  0  0  0  0  0  0
  -20.4177  -28.9388   20.7897 C   0  0  0  0  0  0  0  0  0  0  0  0
  -26.7581  -15.9703   18.8909 C   0  0  0  0  0  0  0  0  0  0  0  0
  -18.4824  -29.1694   22.1026 C   0  0  0  0  0  0  0  0  0  0  0  0
  -26.3216  -20.9181   25.9929 C   0  0  0  0  0  0  0  0  0  0  0  0
  -17.3235  -29.5353   24.6137 C   0  0  0  0  0  0  0  0  0  0  0  0
  -17.6114  -28.2082   22.6155 C   0  0  0  0  0  0  0  0  0  0  0  0
  -24.6403  -28.7821   20.5830 C   0  0  0  0  0  0  0  0  0  0  0  0
  -26.7890  -29.1718   20.8404 C   0  0  0  0  0  0  0  0  0  0  0  0
  -27.8056  -19.5922   24.9395 C   0  0  0  0  0  0  0  0  0  0  0  0
  -29.0366  -18.6214   19.8976 C   0  0  0  0  0  0  0  0  0  0  0  0
  -25.3122  -30.7554   22.0894 C   0  0  0  0  0  0  0  0  0  0  0  0
  -22.6470  -17.5977   22.0396 C   0  0  0  0  0  0  0  0  0  0  0  0
  -21.7389  -14.4930   22.2813 C   0  0  0  0  0  0  0  0  0  0  0  0
  -22.3184  -10.9424   22.0083 C   0  0  0  0  0  0  0  0  0  0  0  0
  -28.7502  -23.8241   19.0350 C   0  0  0  0  0  0  0  0  0  0  0  0
  -21.4984  -22.5811   23.6867 C   0  0  0  0  0  0  0  0  0  0  0  0
  -22.6175  -16.8921   19.6194 C   0  0  0  0  0  0  0  0  0  0  0  0
  -24.0302  -14.9269   21.3185 C   0  0  0  0  0  0  0  0  0  0  0  0
  -21.8207  -21.3816   24.5719 C   0  0  0  0  0  0  0  0  0  0  0  0
  -28.9769  -26.8918   17.2420 C   0  0  0  0  0  0  0  0  0  0  0  0
  -21.6259  -20.0913   23.7898 C   0  0  0  0  0  0  0  0  0  0  0  0
  -27.9782  -27.8045   17.9574 C   0  0  0  0  0  0  0  0  0  0  0  0
  -28.4791  -25.4491   17.1746 C   0  0  0  0  0  0  0  0  0  0  0  0
  -27.0864  -25.7801   19.1796 C   0  0  0  0  0  0  0  0  0  0  0  0
  -22.5962  -20.0197   22.6039 C   0  0  1  0  0  0  0  0  0  0  0  0
  -22.1602  -16.5849   21.0421 C   0  0  1  0  0  0  0  0  0  0  0  0
  -27.5731  -27.2308   19.3294 C   0  0  2  0  0  0  0  0  0  0  0  0
  -20.7757   -9.0025   22.4016 C   0  0  0  0  0  0  0  0  0  0  0  0
  -29.3780  -13.8774   19.5821 C   0  0  0  0  0  0  0  0  0  0  0  0
  -22.9212  -14.4964   25.0942 C   0  0  0  0  0  0  0  0  0  0  0  0
  -22.8670  -11.9939   25.0447 C   0  0  0  0  0  0  0  0  0  0  0  0
  -20.7415  -13.2892   24.8802 C   0  0  0  0  0  0  0  0  0  0  0  0
  -22.8130   -9.8508   19.3022 C   0  0  0  0  0  0  0  0  0  0  0  0
  -29.9700  -16.3238   19.9740 C   0  0  0  0  0  0  0  0  0  0  0  0
  -22.3266  -13.2531   22.9109 C   0  0  1  0  0  0  0  0  0  0  0  0
  -21.4020   -9.9191   21.3621 C   0  0  2  0  0  0  0  0  0  0  0  0
  -28.8582  -15.2953   19.7799 C   0  0  1  0  0  0  0  0  0  1  0  0
  -22.2281  -13.2727   24.4624 C   0  0  0  0  0  0  0  0  0  0  0  0
  -25.2412  -27.8429   19.8476 N   0  0  0  0  0  0  0  0  0  0  0  0
  -27.3986  -20.5793   24.0805 N   0  0  0  0  0  0  0  0  0  0  0  0
  -26.5471  -28.1063   20.0242 N   0  0  0  0  0  0  0  0  0  0  0  0
  -22.6122  -15.2732   21.5102 N   0  0  0  0  0  0  0  0  0  0  0  0
  -28.1180  -24.9716   18.5112 N   0  0  0  0  0  0  0  0  0  0  0  0
  -28.0461  -29.5734   21.1249 N   0  0  0  0  0  0  0  0  0  0  0  0
  -23.9848  -31.0987   22.3803 N   0  0  0  0  0  0  0  0  0  0  0  0
  -28.3498  -23.4842   20.3267 N   0  0  0  0  0  0  0  0  0  0  0  0
  -29.5168  -17.5311   20.6122 N   0  0  0  0  0  0  0  0  0  0  0  0
  -22.2418  -18.8913   21.7714 N   0  0  0  0  0  0  0  0  0  0  0  0
  -21.6555  -12.1196   22.2838 N   0  0  0  0  0  0  0  0  0  0  0  0
  -22.1634   -9.0803   20.3937 N   0  3  0  0  0  0  0  0  0  0  0  0
  -28.9493  -18.6710   18.6735 O   0  0  0  0  0  0  0  0  0  0  0  0
  -26.2441  -31.4394   22.5767 O   0  0  0  0  0  0  0  0  0  0  0  0
  -23.3378  -17.2323   22.9835 O   0  0  0  0  0  0  0  0  0  0  0  0
  -20.5471  -14.7557   22.4610 O   0  0  0  0  0  0  0  0  0  0  0  0
  -23.5027  -10.7183   22.2483 O   0  0  0  0  0  0  0  0  0  0  0  0
  -29.6052  -23.2055   18.3959 O   0  0  0  0  0  0  0  0  0  0  0  0
  -25.5068  -21.4643   26.9060 O   0  0  0  0  0  0  0  0  0  0  0  0
  -28.6845  -18.6674   24.5728 O   0  0  0  0  0  0  0  0  0  0  0  0
  -19.0591  -28.9889   20.8567 O   0  0  0  0  0  0  0  0  0  0  0  0
  -28.0658  -15.6762   18.6558 O   0  0  0  0  0  0  0  0  0  1  0  0
  -16.7683  -29.7104   25.8201 F   0  0  0  0  0  0  0  0  0  0  0  0
  -17.3284  -27.1064   21.9071 F   0  0  0  0  0  0  0  0  0  0  0  0
  1  2  1  0  0  0  0
  1  5  2  0  0  0  0
  2  6  2  0  0  0  0
  3  8  2  0  0  0  0
  3 20  1  0  0  0  0
  4  9  1  0  0  0  0
  4 20  2  0  0  0  0
  5 23  1  0  0  0  0
  6 25  1  0  0  0  0
  7 10  2  0  0  0  0
  7 24  1  0  0  0  0
  8 29  1  0  0  0  0
  9 29  2  0  0  0  0
 10 30  1  0  0  0  0
 11 12  2  0  0  0  0
 11 31  1  0  0  0  0
 12 33  1  0  0  0  0
 13 21  2  0  0  0  0
 13 27  1  0  0  0  0
 14 21  1  0  0  0  0
 14 28  2  0  0  0  0
 15 26  1  0  0  0  0
 15 30  2  0  0  0  0
 16 27  2  0  0  0  0
 16 28  1  0  0  0  0
 17 32  1  0  0  0  0
 17 37  2  0  0  0  0
 18 33  2  0  0  0  0
 18 34  1  0  0  0  0
 19 32  2  0  0  0  0
 19 68  1  0  0  0  0
 20 35  1  0  0  0  0
 21 38  1  0  0  0  0
 22 35  1  0  0  0  0
 22 36  2  0  0  0  0
 22 39  1  0  0  0  0
 23 25  2  0  0  0  0
 23 44  1  0  0  0  0
 24 26  2  0  0  0  0
 24 45  1  0  0  0  0
 25 53  1  0  0  0  0
 26 46  1  0  0  0  0
 27 68  1  0  0  0  0
 28 74  1  0  0  0  0
 29 87  1  0  0  0  0
 30 88  1  0  0  0  0
 31 34  2  0  0  0  0
 31 87  1  0  0  0  0
 32 85  1  0  0  0  0
 33 89  1  0  0  0  0
 34 90  1  0  0  0  0
 35 67  2  0  0  0  0
 36 69  1  0  0  0  0
 36 72  1  0  0  0  0
 37 68  1  0  0  0  0
 37 86  1  0  0  0  0
 38 75  1  0  0  0  0
 38 79  2  0  0  0  0
 39 73  1  0  0  0  0
 39 80  2  0  0  0  0
 40 54  1  0  0  0  0
 40 76  1  0  0  0  0
 40 81  2  0  0  0  0
 41 63  1  0  0  0  0
 41 70  1  0  0  0  0
 41 82  2  0  0  0  0
 42 64  1  0  0  0  0
 42 77  1  0  0  0  0
 42 83  2  0  0  0  0
 43 71  1  0  0  0  0
 43 74  1  0  0  0  0
 43 84  2  0  0  0  0
 44 47  1  0  0  0  0
 45 54  1  0  0  0  0
 46 70  1  0  0  0  0
 47 49  1  0  0  0  0
 48 50  1  0  0  0  0
 48 51  1  0  0  0  0
 49 53  1  0  0  0  0
 50 55  1  0  0  0  0
 51 71  1  0  0  0  0
 52 55  1  0  0  0  0
 52 71  1  0  0  0  0
 53 76  1  0  0  0  0
 54 70  1  0  0  0  0
 55 69  1  0  0  0  0
 56 64  1  0  0  0  0
 57 65  1  0  0  0  0
 58 66  1  0  0  0  0
 59 66  1  0  0  0  0
 60 66  1  0  0  0  0
 61 78  1  0  0  0  0
 62 65  1  0  0  0  0
 62 75  1  0  0  0  0
 63 66  1  0  0  0  0
 63 77  1  0  0  0  0
 64 78  1  0  0  0  0
 65 88  1  0  0  0  0
 67 69  1  0  0  0  0
M  CHG  1  78   1
M  ISO  4  43 100  65 101  74 100  88 101
M  END
> <Batch ID>
0070

> <Smiles>
CNC(C)C(=O)NC(C(=O)N1Cc2cc([101O:1][101CH:1](C)CNC(=O)c3cc([100NH:0][100C:0](=O)N4CCCC(n5nc(-c6ccc(Oc7ccc(F)cc7F)cc6)c(C(N)=O)c5N)C4)cc(N4CC(=O)CC4=O)c3)ccc2CC1C(=O)NC1CCCc2ccccc21)C(C)(C)C

> <Shape>
0.244

> <Color>
0.046

> <Negative vol penalty>
0.000

$$$$

  -OEChem-04042323323D

 87 96  0     1  0  0  0  0  0999 V2000
  -21.9968  -11.9730   22.8034 C   0  0  0  0  0  0  0  0  0  0  0  0
  -21.9725  -13.3637   22.7754 C   0  0  0  0  0  0  0  0  0  0  0  0
  -22.9686  -26.5214   21.8680 C   0  0  0  0  0  0  0  0  0  0  0  0
  -22.4155  -28.6610   20.8917 C   0  0  0  0  0  0  0  0  0  0  0  0
  -23.0599  -11.2837   22.2215 C   0  0  0  0  0  0  0  0  0  0  0  0
  -23.0119  -14.0660   22.1664 C   0  0  0  0  0  0  0  0  0  0  0  0
  -24.2776  -20.0656   18.4625 C   0  0  0  0  0  0  0  0  0  0  0  0
  -21.6251  -26.3177   22.1827 C   0  0  0  0  0  0  0  0  0  0  0  0
  -21.0720  -28.4573   21.2064 C   0  0  0  0  0  0  0  0  0  0  0  0
  -25.1113  -21.1830   18.4743 C   0  0  0  0  0  0  0  0  0  0  0  0
  -19.0902  -28.6858   23.9361 C   0  0  0  0  0  0  0  0  0  0  0  0
  -18.3895  -29.7491   24.5052 C   0  0  0  0  0  0  0  0  0  0  0  0
  -26.8566  -19.8844   17.4318 C   0  0  0  0  0  0  0  0  0  0  0  0
  -28.9757  -25.0376   22.5886 C   0  0  0  0  0  0  0  0  0  0  0  0
  -30.6992  -26.4461   21.6491 C   0  0  0  0  0  0  0  0  0  0  0  0
  -16.8468  -29.7275   22.6460 C   0  0  0  0  0  0  0  0  0  0  0  0
  -23.3638  -27.6931   21.2226 C   0  0  0  0  0  0  0  0  0  0  0  0
  -25.4129  -27.5341   19.7114 C   0  0  0  0  0  0  0  0  0  0  0  0
  -24.1081  -11.9776   21.5966 C   0  0  0  0  0  0  0  0  0  0  0  0
  -24.7317  -18.8442   17.9443 C   0  0  0  0  0  0  0  0  0  0  0  0
  -24.0907  -13.3854   21.5768 C   0  0  0  0  0  0  0  0  0  0  0  0
  -26.0259  -18.7536   17.4123 C   0  0  0  0  0  0  0  0  0  0  0  0
  -29.0116  -25.7805   23.7685 C   0  0  0  0  0  0  0  0  0  0  0  0
  -29.8196  -25.3703   21.5289 C   0  0  0  0  0  0  0  0  0  0  0  0
  -29.8913  -26.8563   23.8887 C   0  0  0  0  0  0  0  0  0  0  0  0
  -20.6767  -27.2856   21.8519 C   0  0  0  0  0  0  0  0  0  0  0  0
  -26.4020  -21.0918   17.9615 C   0  0  0  0  0  0  0  0  0  0  0  0
  -18.6693  -28.1433   22.7219 C   0  0  0  0  0  0  0  0  0  0  0  0
  -17.2678  -30.2700   23.8601 C   0  0  0  0  0  0  0  0  0  0  0  0
  -30.7352  -27.1891   22.8290 C   0  0  0  0  0  0  0  0  0  0  0  0
  -17.5476  -28.6641   22.0769 C   0  0  0  0  0  0  0  0  0  0  0  0
  -24.7516  -27.9043   20.8978 C   0  0  0  0  0  0  0  0  0  0  0  0
  -26.7079  -27.9535   19.8949 C   0  0  0  0  0  0  0  0  0  0  0  0
  -30.2348  -23.8686   18.2158 C   0  0  0  0  0  0  0  0  0  0  0  0
  -29.2833  -23.0928   18.7399 C   0  0  0  0  0  0  0  0  0  0  0  0
  -30.5866  -24.8784   19.2340 C   0  0  0  0  0  0  0  0  0  0  0  0
  -24.9022  -26.8706   18.5475 C   0  0  0  0  0  0  0  0  0  0  0  0
  -25.1885  -15.9331   19.1361 C   0  0  0  0  0  0  0  0  0  0  0  0
  -25.8170  -15.1889   16.0420 C   0  0  0  0  0  0  0  0  0  0  0  0
  -26.8043  -16.2460   12.9509 C   0  0  0  0  0  0  0  0  0  0  0  0
  -29.6735  -29.0172   25.1435 C   0  0  0  0  0  0  0  0  0  0  0  0
  -25.2594  -11.1904   21.0228 C   0  0  0  0  0  0  0  0  0  0  0  0
  -23.8109  -17.6552   17.9145 C   0  0  0  0  0  0  0  0  0  0  0  0
  -26.5543  -17.4708   16.8260 C   0  0  0  0  0  0  0  0  0  0  0  0
  -28.9119  -23.4954   20.1254 C   0  0  0  0  0  0  0  0  0  0  0  0
  -26.1345  -11.9989   20.0684 C   0  0  0  0  0  0  0  0  0  0  0  0
  -29.3171  -31.2295   22.1987 C   0  0  0  0  0  0  0  0  0  0  0  0
  -26.4618  -13.3621   20.6695 C   0  0  0  0  0  0  0  0  0  0  0  0
  -28.1062  -30.6412   21.4769 C   0  0  0  0  0  0  0  0  0  0  0  0
  -29.2539  -30.9844   23.7032 C   0  0  0  0  0  0  0  0  0  0  0  0
  -27.8805  -28.9533   23.3428 C   0  0  0  0  0  0  0  0  0  0  0  0
  -25.1873  -14.1821   20.9038 C   0  0  1  0  0  0  0  0  0  0  0  0
  -24.5544  -16.3256   17.8317 C   0  0  1  0  0  0  0  0  0  0  0  0
  -27.9406  -29.1517   21.8209 C   0  0  1  0  0  0  0  0  0  0  0  0
  -28.0971  -25.4005   24.8878 C   0  0  0  0  0  0  0  0  0  0  0  0
  -27.2591  -15.4008   10.6323 C   0  0  0  0  0  0  0  0  0  0  0  0
  -28.4640  -14.0075   16.9945 C   0  0  0  0  0  0  0  0  0  0  0  0
  -29.2598  -14.0564   14.6212 C   0  0  0  0  0  0  0  0  0  0  0  0
  -27.2894  -12.6599   15.2456 C   0  0  0  0  0  0  0  0  0  0  0  0
  -30.5427  -27.0235   26.2842 C   0  0  0  0  0  0  0  0  0  0  0  0
  -24.6996  -17.9691   11.7849 C   0  0  0  0  0  0  0  0  0  0  0  0
  -28.6207  -21.9402   18.0777 C   0  0  0  0  0  0  0  0  0  1  0  0
  -27.0530  -15.1761   15.1753 C   0  0  1  0  0  0  0  0  0  0  0  0
  -26.2235  -16.0019   11.5698 C   0  0  2  0  0  0  0  0  0  0  0  0
  -28.0076  -13.9987   15.5219 C   0  0  0  0  0  0  0  0  0  0  0  0
  -25.5598  -28.5120   21.7705 N   0  0  0  0  0  0  0  0  0  0  0  0
  -26.7423  -28.5268   21.1320 N   0  0  0  0  0  0  0  0  0  0  0  0
  -29.7840  -24.6289   20.3542 N   0  0  0  0  0  0  0  0  0  0  0  0
  -25.6181  -16.3346   16.8254 N   0  0  0  0  0  0  0  0  0  0  0  0
  -29.0359  -29.5707   24.0142 N   0  0  0  0  0  0  0  0  0  0  0  0
  -27.8091  -27.8841   19.1172 N   0  0  0  0  0  0  0  0  0  0  0  0
  -23.5483  -26.5093   18.5245 N   0  0  0  0  0  0  0  0  0  0  0  0
  -24.7126  -14.7455   19.6581 N   0  0  0  0  0  0  0  0  0  0  0  0
  -26.5831  -15.1777   13.7942 N   0  0  0  0  0  0  0  0  0  0  0  0
  -29.9409  -27.6355   25.1017 N   0  0  0  0  0  0  0  0  0  0  0  0
  -25.7399  -17.2811   10.9778 N   0  3  0  0  0  0  0  0  0  0  0  0
  -31.4300  -25.7448   19.0696 O   0  0  0  0  0  0  0  0  0  0  0  0
  -25.6290  -26.5912   17.5640 O   0  0  0  0  0  0  0  0  0  0  0  0
  -26.0472  -16.6535   19.6315 O   0  0  0  0  0  0  0  0  0  0  0  0
  -25.0523  -14.2213   16.0191 O   0  0  0  0  0  0  0  0  0  0  0  0
  -27.3984  -17.2794   13.2506 O   0  0  0  0  0  0  0  0  0  0  0  0
  -29.9366  -29.6952   26.1443 O   0  0  0  0  0  0  0  0  0  0  0  0
  -19.3656  -27.0871   22.1586 O   0  0  0  0  0  0  0  0  0  0  0  0
  -27.2180  -22.1807   17.9724 O   0  0  0  0  0  0  0  0  0  1  0  0
  -16.5941  -31.2901   24.4075 F   0  0  0  0  0  0  0  0  0  0  0  0
  -31.5850  -28.2208   22.9329 F   0  0  0  0  0  0  0  0  0  0  0  0
  -17.1377  -28.1464   20.9108 F   0  0  0  0  0  0  0  0  0  0  0  0
  1  2  1  0  0  0  0
  1  5  2  0  0  0  0
  2  6  2  0  0  0  0
  3  8  2  0  0  0  0
  3 17  1  0  0  0  0
  4  9  1  0  0  0  0
  4 17  2  0  0  0  0
  5 19  1  0  0  0  0
  6 21  1  0  0  0  0
  7 10  2  0  0  0  0
  7 20  1  0  0  0  0
  8 26  1  0  0  0  0
  9 26  2  0  0  0  0
 10 27  1  0  0  0  0
 11 12  2  0  0  0  0
 11 28  1  0  0  0  0
 12 29  1  0  0  0  0
 13 22  1  0  0  0  0
 13 27  2  0  0  0  0
 14 23  2  0  0  0  0
 14 24  1  0  0  0  0
 15 24  2  0  0  0  0
 15 30  1  0  0  0  0
 16 29  2  0  0  0  0
 16 31  1  0  0  0  0
 17 32  1  0  0  0  0
 18 32  1  0  0  0  0
 18 33  2  0  0  0  0
 18 37  1  0  0  0  0
 19 21  2  0  0  0  0
 19 42  1  0  0  0  0
 20 22  2  0  0  0  0
 20 43  1  0  0  0  0
 21 52  1  0  0  0  0
 22 44  1  0  0  0  0
 23 25  1  0  0  0  0
 23 55  1  0  0  0  0
 24 68  1  0  0  0  0
 25 30  2  0  0  0  0
 25 75  1  0  0  0  0
 26 83  1  0  0  0  0
 27 84  1  0  0  0  0
 28 31  2  0  0  0  0
 28 83  1  0  0  0  0
 29 85  1  0  0  0  0
 30 86  1  0  0  0  0
 31 87  1  0  0  0  0
 32 66  2  0  0  0  0
 33 67  1  0  0  0  0
 33 71  1  0  0  0  0
 34 35  2  0  0  0  0
 34 36  1  0  0  0  0
 35 45  1  0  0  0  0
 35 62  1  0  0  0  0
 36 68  1  0  0  0  0
 36 77  2  0  0  0  0
 37 72  1  0  0  0  0
 37 78  2  0  0  0  0
 38 53  1  0  0  0  0
 38 73  1  0  0  0  0
 38 79  2  0  0  0  0
 39 63  1  0  0  0  0
 39 69  1  0  0  0  0
 39 80  2  0  0  0  0
 40 64  1  0  0  0  0
 40 74  1  0  0  0  0
 40 81  2  0  0  0  0
 41 70  1  0  0  0  0
 41 75  1  0  0  0  0
 41 82  2  0  0  0  0
 42 46  1  0  0  0  0
 43 53  1  0  0  0  0
 44 69  1  0  0  0  0
 45 68  1  0  0  0  0
 46 48  1  0  0  0  0
 47 49  1  0  0  0  0
 47 50  1  0  0  0  0
 48 52  1  0  0  0  0
 49 54  1  0  0  0  0
 50 70  1  0  0  0  0
 51 54  1  0  0  0  0
 51 70  1  0  0  0  0
 52 73  1  0  0  0  0
 53 69  1  0  0  0  0
 54 67  1  0  0  0  0
 56 64  1  0  0  0  0
 57 65  1  0  0  0  0
 58 65  1  0  0  0  0
 59 65  1  0  0  0  0
 60 75  1  0  0  0  0
 61 76  1  0  0  0  0
 62 84  1  0  0  0  0
 63 65  1  0  0  0  0
 63 74  1  0  0  0  0
 64 76  1  0  0  0  0
 66 67  1  0  0  0  0
M  CHG  1  76   1
M  ISO  4  41 100  62 101  75 100  84 101
M  END
> <Batch ID>
0070

> <Smiles>
CNC(C)C(=O)NC(C(=O)N1Cc2cc([101O:1][101CH2:1]C3=CC(=O)N(c4cc(C)c([100N:0](C)[100C:0](=O)N5CCCC(n6nc(-c7ccc(Oc8ccc(F)cc8F)cc7)c(C(N)=O)c6N)C5)c(F)c4)C3)ccc2CC1C(=O)NC1CCCc2ccccc21)C(C)(C)C

> <Shape>
0.208

> <Color>
0.066

> <Negative vol penalty>
0.000

$$$$

  -OEChem-04042323323D

 85 93  0     1  0  0  0  0  0999 V2000
  -28.0385  -33.2054   26.4841 C   0  0  0  0  0  0  0  0  0  0  0  0
  -28.4913  -31.9685   26.0362 C   0  0  0  0  0  0  0  0  0  0  0  0
  -23.2559   -9.6477   20.4254 C   0  0  0  0  0  0  0  0  0  0  0  0
  -23.8800  -10.1563   22.7034 C   0  0  0  0  0  0  0  0  0  0  0  0
  -26.7075  -33.5717   26.2887 C   0  0  0  0  0  0  0  0  0  0  0  0
  -27.6129  -31.0967   25.3936 C   0  0  0  0  0  0  0  0  0  0  0  0
  -28.9393  -27.2382   20.8265 C   0  0  0  0  0  0  0  0  0  0  0  0
  -22.5676   -8.5175   20.8663 C   0  0  0  0  0  0  0  0  0  0  0  0
  -23.1916   -9.0261   23.1443 C   0  0  0  0  0  0  0  0  0  0  0  0
  -29.2203  -25.8729   20.8038 C   0  0  0  0  0  0  0  0  0  0  0  0
  -19.9862   -8.1416   23.7472 C   0  0  0  0  0  0  0  0  0  0  0  0
  -19.1663   -8.2800   24.8671 C   0  0  0  0  0  0  0  0  0  0  0  0
  -26.9112  -25.4123   20.2794 C   0  0  0  0  0  0  0  0  0  0  0  0
  -31.6676  -17.3691   22.0397 C   0  0  0  0  0  0  0  0  0  0  0  0
  -31.2651  -19.3919   23.2981 C   0  0  0  0  0  0  0  0  0  0  0  0
  -20.4742   -6.6145   26.0303 C   0  0  0  0  0  0  0  0  0  0  0  0
  -23.9122  -10.4671   21.3439 C   0  0  0  0  0  0  0  0  0  0  0  0
  -24.1121  -12.9371   20.7386 C   0  0  0  0  0  0  0  0  0  0  0  0
  -25.8148  -32.7079   25.6349 C   0  0  0  0  0  0  0  0  0  0  0  0
  -27.6375  -27.7010   20.5861 C   0  0  0  0  0  0  0  0  0  0  0  0
  -26.2684  -31.4513   25.1905 C   0  0  0  0  0  0  0  0  0  0  0  0
  -26.6167  -26.7842   20.2970 C   0  0  0  0  0  0  0  0  0  0  0  0
  -30.2962  -17.2280   21.8278 C   0  0  0  0  0  0  0  0  0  0  0  0
  -29.8936  -19.2508   23.0861 C   0  0  0  0  0  0  0  0  0  0  0  0
  -22.5354   -8.2067   22.2257 C   0  0  0  0  0  0  0  0  0  0  0  0
  -28.2056  -24.9595   20.5332 C   0  0  0  0  0  0  0  0  0  0  0  0
  -21.0500   -7.2397   23.7688 C   0  0  0  0  0  0  0  0  0  0  0  0
  -19.4103   -7.5165   26.0087 C   0  0  0  0  0  0  0  0  0  0  0  0
  -32.1520  -18.4510   22.7749 C   0  0  0  0  0  0  0  0  0  0  0  0
  -21.2941   -6.4762   24.9103 C   0  0  0  0  0  0  0  0  0  0  0  0
  -29.4092  -18.1689   22.3510 C   0  0  0  0  0  0  0  0  0  0  0  0
  -24.6239  -11.6344   20.8890 C   0  0  0  0  0  0  0  0  0  0  0  0
  -25.1777  -13.6742   20.2830 C   0  0  0  0  0  0  0  0  0  0  0  0
  -22.7915  -13.4364   20.9885 C   0  0  0  0  0  0  0  0  0  0  0  0
  -25.4865  -29.3235   22.2726 C   0  0  0  0  0  0  0  0  0  0  0  0
  -23.8388  -29.2826   19.4787 C   0  0  0  0  0  0  0  0  0  0  0  0
  -23.2757  -27.7753   16.4691 C   0  0  0  0  0  0  0  0  0  0  0  0
  -30.5541  -15.1074   20.4926 C   0  0  0  0  0  0  0  0  0  0  0  0
  -24.3737  -33.1282   25.4888 C   0  0  0  0  0  0  0  0  0  0  0  0
  -27.3563  -29.1786   20.5877 C   0  0  0  0  0  0  0  0  0  0  0  0
  -25.2069  -27.2310   20.0122 C   0  0  0  0  0  0  0  0  0  0  0  0
  -23.5989  -32.3016   24.4657 C   0  0  0  0  0  0  0  0  0  0  0  0
  -29.7218  -12.2054   18.6051 C   0  0  0  0  0  0  0  0  0  0  0  0
  -23.8671  -30.8137   24.6682 C   0  0  0  0  0  0  0  0  0  0  0  0
  -28.2793  -11.9053   19.0186 C   0  0  0  0  0  0  0  0  0  0  0  0
  -30.5509  -12.7277   19.7771 C   0  0  0  0  0  0  0  0  0  0  0  0
  -28.5280  -13.5758   20.8986 C   0  0  0  0  0  0  0  0  0  0  0  0
  -25.3521  -30.4884   24.4671 C   0  0  1  0  0  0  0  0  0  0  0  0
  -25.8874  -29.5070   20.8362 C   0  0  1  0  0  0  0  0  0  0  0  0
  -27.6368  -13.1086   19.7362 C   0  0  2  0  0  0  0  0  0  0  0  0
  -21.8415  -27.9481   14.4172 C   0  0  0  0  0  0  0  0  0  0  0  0
  -21.4845  -28.1147   21.0289 C   0  0  0  0  0  0  0  0  0  0  0  0
  -20.4709  -27.4369   18.8423 C   0  0  0  0  0  0  0  0  0  0  0  0
  -20.8628  -29.8499   19.3387 C   0  0  0  0  0  0  0  0  0  0  0  0
  -25.6276  -28.1735   14.7173 C   0  0  0  0  0  0  0  0  0  0  0  0
  -27.4209  -22.7420   20.8840 C   0  0  0  0  0  0  0  0  0  1  0  0
  -28.0085  -21.4691   21.4590 C   0  0  0  0  0  0  0  0  0  0  0  0
  -22.8367  -28.3502   18.8421 C   0  0  1  0  0  0  0  0  0  0  0  0
  -23.1599  -28.3411   15.0652 C   0  0  2  0  0  0  0  0  0  0  0  0
  -21.4398  -28.4291   19.5203 C   0  0  0  0  0  0  0  0  0  0  0  0
  -25.9143  -11.5457   20.5558 N   0  0  0  0  0  0  0  0  0  0  0  0
  -26.2223  -12.8020   20.1914 N   0  0  0  0  0  0  0  0  0  0  0  0
  -24.9807  -28.6856   20.0316 N   0  0  0  0  0  0  0  0  0  0  0  0
  -29.8827  -13.8695   20.4052 N   0  0  0  0  0  0  0  0  0  0  0  0
  -25.3138  -14.9768   19.9556 N   0  0  0  0  0  0  0  0  0  0  0  0
  -21.8167  -12.5435   21.4541 N   0  0  0  0  0  0  0  0  0  0  0  0
  -29.8074  -16.1281   21.0801 N   0  0  0  0  0  0  0  0  0  0  0  0
  -28.9815  -20.2231   23.6273 N   0  0  0  0  0  0  0  0  0  0  0  0
  -25.6737  -30.4458   23.0567 N   0  0  0  0  0  0  0  0  0  0  0  0
  -22.8288  -28.6697   17.4186 N   0  0  0  0  0  0  0  0  0  0  0  0
  -24.2721  -27.8377   14.2105 N   0  3  0  0  0  0  0  0  0  0  0  0
  -22.4807  -14.6351   20.7886 O   0  0  0  0  0  0  0  0  0  0  0  0
  -25.0391  -28.2441   22.6419 O   0  0  0  0  0  0  0  0  0  0  0  0
  -23.6201  -30.4966   19.4789 O   0  0  0  0  0  0  0  0  0  0  0  0
  -23.7150  -26.6509   16.7000 O   0  0  0  0  0  0  0  0  0  0  0  0
  -31.6966  -15.2585   20.0523 O   0  0  0  0  0  0  0  0  0  0  0  0
  -28.1686  -22.6564   23.7681 O   0  0  0  0  0  0  0  0  0  0  0  0
  -30.2970  -22.1876   22.5051 O   0  0  0  0  0  0  0  0  0  0  0  0
  -21.8636   -7.1041   22.6564 O   0  0  0  0  0  0  0  0  0  0  0  0
  -28.4771  -23.6262   20.5111 O   0  0  0  0  0  0  0  0  0  1  0  0
  -18.6239   -7.6505   27.0847 F   0  0  0  0  0  0  0  0  0  0  0  0
  -33.4689  -18.5867   22.9783 F   0  0  0  0  0  0  0  0  0  0  0  0
  -22.3153   -5.6089   24.9374 F   0  0  0  0  0  0  0  0  0  0  0  0
  -28.0898  -18.0331   22.1482 F   0  0  0  0  0  0  0  0  0  0  0  0
  -28.9609  -21.7866   22.9126 S   0  0  0  0  0  0  0  0  0  0  0  0
  1  2  1  0  0  0  0
  1  5  2  0  0  0  0
  2  6  2  0  0  0  0
  3  8  2  0  0  0  0
  3 17  1  0  0  0  0
  4  9  1  0  0  0  0
  4 17  2  0  0  0  0
  5 19  1  0  0  0  0
  6 21  1  0  0  0  0
  7 10  2  0  0  0  0
  7 20  1  0  0  0  0
  8 25  1  0  0  0  0
  9 25  2  0  0  0  0
 10 26  1  0  0  0  0
 11 12  2  0  0  0  0
 11 27  1  0  0  0  0
 12 28  1  0  0  0  0
 13 22  1  0  0  0  0
 13 26  2  0  0  0  0
 14 23  2  0  0  0  0
 14 29  1  0  0  0  0
 15 24  1  0  0  0  0
 15 29  2  0  0  0  0
 16 28  2  0  0  0  0
 16 30  1  0  0  0  0
 17 32  1  0  0  0  0
 18 32  1  0  0  0  0
 18 33  2  0  0  0  0
 18 34  1  0  0  0  0
 19 21  2  0  0  0  0
 19 39  1  0  0  0  0
 20 22  2  0  0  0  0
 20 40  1  0  0  0  0
 21 48  1  0  0  0  0
 22 41  1  0  0  0  0
 23 31  1  0  0  0  0
 23 67  1  0  0  0  0
 24 31  2  0  0  0  0
 24 68  1  0  0  0  0
 25 79  1  0  0  0  0
 26 80  1  0  0  0  0
 27 30  2  0  0  0  0
 27 79  1  0  0  0  0
 28 81  1  0  0  0  0
 29 82  1  0  0  0  0
 30 83  1  0  0  0  0
 31 84  1  0  0  0  0
 32 61  2  0  0  0  0
 33 62  1  0  0  0  0
 33 65  1  0  0  0  0
 34 66  1  0  0  0  0
 34 72  2  0  0  0  0
 35 49  1  0  0  0  0
 35 69  1  0  0  0  0
 35 73  2  0  0  0  0
 36 58  1  0  0  0  0
 36 63  1  0  0  0  0
 36 74  2  0  0  0  0
 37 59  1  0  0  0  0
 37 70  1  0  0  0  0
 37 75  2  0  0  0  0
 38 64  1  0  0  0  0
 38 67  1  0  0  0  0
 38 76  2  0  0  0  0
 39 42  1  0  0  0  0
 40 49  1  0  0  0  0
 41 63  1  0  0  0  0
 42 44  1  0  0  0  0
 43 45  1  0  0  0  0
 43 46  1  0  0  0  0
 44 48  1  0  0  0  0
 45 50  1  0  0  0  0
 46 64  1  0  0  0  0
 47 50  1  0  0  0  0
 47 64  1  0  0  0  0
 48 69  1  0  0  0  0
 49 63  1  0  0  0  0
 50 62  1  0  0  0  0
 51 59  1  0  0  0  0
 52 60  1  0  0  0  0
 53 60  1  0  0  0  0
 54 60  1  0  0  0  0
 55 71  1  0  0  0  0
 56 57  1  0  0  0  0
 56 80  1  0  0  0  0
 57 85  1  0  0  0  0
 58 60  1  0  0  0  0
 58 70  1  0  0  0  0
 59 71  1  0  0  0  0
 61 62  1  0  0  0  0
 68 85  1  0  0  0  0
 77 85  2  0  0  0  0
 78 85  2  0  0  0  0
M  CHG  1  71   1
M  ISO  4  38 100  56 101  67 100  80 101
M  END
> <Batch ID>
0070

> <Smiles>
CNC(C)C(=O)NC(C(=O)N1Cc2cc([101O:1][101CH2:1]CS(=O)(=O)Nc3cc(F)cc([100NH:0][100C:0](=O)N4CCCC(n5nc(-c6ccc(Oc7ccc(F)cc7F)cc6)c(C(N)=O)c5N)C4)c3F)ccc2CC1C(=O)NC1CCCc2ccccc21)C(C)(C)C

> <Shape>
0.337

> <Color>
0.179

> <Negative vol penalty>
0.000

$$$$

  -OEChem-04042323323D

 85 93  0     1  0  0  0  0  0999 V2000
  -29.2158  -36.7047   20.1158 C   0  0  0  0  0  0  0  0  0  0  0  0
  -29.4086  -35.3487   19.8717 C   0  0  0  0  0  0  0  0  0  0  0  0
  -24.7939   -8.6730   21.6212 C   0  0  0  0  0  0  0  0  0  0  0  0
  -23.2444  -10.0118   20.3392 C   0  0  0  0  0  0  0  0  0  0  0  0
  -28.3929  -37.1128   21.1647 C   0  0  0  0  0  0  0  0  0  0  0  0
  -28.7795  -34.4000   20.6772 C   0  0  0  0  0  0  0  0  0  0  0  0
  -26.6289  -28.9366   18.9361 C   0  0  0  0  0  0  0  0  0  0  0  0
  -23.7442   -8.2272   22.4244 C   0  0  0  0  0  0  0  0  0  0  0  0
  -22.1947   -9.5660   21.1423 C   0  0  0  0  0  0  0  0  0  0  0  0
  -27.1577  -27.6495   19.0225 C   0  0  0  0  0  0  0  0  0  0  0  0
  -21.2471   -5.9561   22.2264 C   0  0  0  0  0  0  0  0  0  0  0  0
  -21.1876   -4.5934   22.5181 C   0  0  0  0  0  0  0  0  0  0  0  0
  -25.0795  -19.7341   17.7759 C   0  0  0  0  0  0  0  0  0  0  0  0
  -25.2975  -17.3460   17.4826 C   0  0  0  0  0  0  0  0  0  0  0  0
  -25.9197  -27.2843   21.0605 C   0  0  0  0  0  0  0  0  0  0  0  0
  -26.9759  -18.5697   18.7164 C   0  0  0  0  0  0  0  0  0  0  0  0
  -21.3576   -5.0909   24.8762 C   0  0  0  0  0  0  0  0  0  0  0  0
  -24.5440   -9.5654   20.5786 C   0  0  0  0  0  0  0  0  0  0  0  0
  -24.5927  -18.5302   17.2668 C   0  0  0  0  0  0  0  0  0  0  0  0
  -26.1002   -9.4363   18.5614 C   0  0  0  0  0  0  0  0  0  0  0  0
  -27.7457  -36.1687   21.9774 C   0  0  0  0  0  0  0  0  0  0  0  0
  -25.7486  -29.4119   19.9187 C   0  0  0  0  0  0  0  0  0  0  0  0
  -27.9482  -34.7960   21.7388 C   0  0  0  0  0  0  0  0  0  0  0  0
  -25.3792  -28.5769   20.9829 C   0  0  0  0  0  0  0  0  0  0  0  0
  -26.2711  -19.7539   18.5007 C   0  0  0  0  0  0  0  0  0  0  0  0
  -26.4891  -17.3657   18.2074 C   0  0  0  0  0  0  0  0  0  0  0  0
  -22.4446   -8.6737   22.1849 C   0  0  0  0  0  0  0  0  0  0  0  0
  -26.8054  -26.8241   20.0864 C   0  0  0  0  0  0  0  0  0  0  0  0
  -21.3619   -6.8862   23.2595 C   0  0  0  0  0  0  0  0  0  0  0  0
  -21.2429   -4.1608   23.8430 C   0  0  0  0  0  0  0  0  0  0  0  0
  -21.4171   -6.4536   24.5845 C   0  0  0  0  0  0  0  0  0  0  0  0
  -25.6280  -10.0266   19.7490 C   0  0  0  0  0  0  0  0  0  0  0  0
  -27.1325  -10.2490   18.1609 C   0  0  0  0  0  0  0  0  0  0  0  0
  -27.0217  -23.2684   19.5824 C   0  0  0  0  0  0  0  0  0  0  0  0
  -26.6340  -24.5479   19.5765 C   0  0  0  0  0  0  0  0  0  1  0  0
  -23.3571  -18.5096   16.5157 C   0  0  0  0  0  0  0  0  0  0  0  0
  -25.6463   -8.2587   17.8811 C   0  0  0  0  0  0  0  0  0  0  0  0
  -26.1922  -22.2353   18.8962 C   0  0  0  0  0  0  0  0  0  0  0  0
  -25.8072  -31.7975   22.0185 C   0  0  0  0  0  0  0  0  0  0  0  0
  -22.7581  -30.8506   22.5917 C   0  0  0  0  0  0  0  0  0  0  0  0
  -20.4297  -28.3579   22.4837 C   0  0  0  0  0  0  0  0  0  0  0  0
  -28.4034  -16.0079   19.1230 C   0  0  0  0  0  0  0  0  0  0  0  0
  -26.9033  -36.6579   23.1288 C   0  0  0  0  0  0  0  0  0  0  0  0
  -25.1660  -30.7932   19.7967 C   0  0  0  0  0  0  0  0  0  0  0  0
  -24.4220  -29.0323   22.0529 C   0  0  0  0  0  0  0  0  0  0  0  0
  -25.9755  -35.5896   23.7018 C   0  0  0  0  0  0  0  0  0  0  0  0
  -30.4619  -13.2122   19.9128 C   0  0  0  0  0  0  0  0  0  0  0  0
  -26.7311  -34.2804   23.9063 C   0  0  0  0  0  0  0  0  0  0  0  0
  -29.5001  -12.0236   19.8464 C   0  0  0  0  0  0  0  0  0  0  0  0
  -29.7864  -14.4569   20.4856 C   0  0  0  0  0  0  0  0  0  0  0  0
  -27.5737  -13.6569   19.7554 C   0  0  0  0  0  0  0  0  0  0  0  0
  -27.2634  -33.7368   22.5749 C   0  0  1  0  0  0  0  0  0  0  0  0
  -24.6798  -31.3564   21.1285 C   0  0  1  0  0  0  0  0  0  0  0  0
  -28.1907  -12.3978   19.1247 C   0  0  2  0  0  0  0  0  0  0  0  0
  -18.0350  -27.8730   23.0562 C   0  0  0  0  0  0  0  0  0  0  0  0
  -23.5054  -30.6584   25.5437 C   0  0  0  0  0  0  0  0  0  0  0  0
  -21.4362  -29.2965   25.9071 C   0  0  0  0  0  0  0  0  0  0  0  0
  -21.2526  -31.6499   25.1003 C   0  0  0  0  0  0  0  0  0  0  0  0
  -19.7535  -27.7687   19.6633 C   0  0  0  0  0  0  0  0  0  0  0  0
  -22.1033  -29.8630   23.5269 C   0  0  1  0  0  0  0  0  0  0  0  0
  -18.9993  -28.3370   21.9757 C   0  0  2  0  0  0  0  0  0  0  0  0
  -22.0939  -30.3587   25.0006 C   0  0  0  0  0  0  0  0  0  0  0  0
  -26.3048  -11.1291   20.0813 N   0  0  0  0  0  0  0  0  0  0  0  0
  -27.2129  -11.2380   19.0967 N   0  0  0  0  0  0  0  0  0  0  0  0
  -23.8843  -30.3934   21.8927 N   0  0  0  0  0  0  0  0  0  0  0  0
  -28.5552  -14.7530   19.7498 N   0  0  0  0  0  0  0  0  0  0  0  0
  -27.9702  -10.2070   17.1032 N   0  0  0  0  0  0  0  0  0  0  0  0
  -22.6706  -19.6448   16.3027 N   0  0  0  0  0  0  0  0  0  0  0  0
  -24.5742   -7.5417   18.4295 N   0  0  0  0  0  0  0  0  0  0  0  0
  -26.7653  -20.9765   19.0180 N   0  0  0  0  0  0  0  0  0  0  0  0
  -27.2057  -16.1629   18.4258 N   0  0  0  0  0  0  0  0  0  0  0  0
  -26.1981  -33.1085   21.8234 N   0  0  0  0  0  0  0  0  0  0  0  0
  -20.7782  -29.5973   22.9775 N   0  0  0  0  0  0  0  0  0  0  0  0
  -22.8808  -17.3553   16.0196 N   0  3  0  0  0  0  0  0  0  0  0  0
  -18.8771  -27.4165   20.8100 N   0  3  0  0  0  0  0  0  0  0  0  0
  -26.1864   -7.8451   16.8272 O   0  0  0  0  0  0  0  0  0  0  0  0
  -25.1525  -22.5350   18.3209 O   0  0  0  0  0  0  0  0  0  0  0  0
  -26.2860  -31.0074   22.8236 O   0  0  0  0  0  0  0  0  0  0  0  0
  -22.2835  -31.9837   22.4798 O   0  0  0  0  0  0  0  0  0  0  0  0
  -21.1632  -27.3724   22.4496 O   0  0  0  0  0  0  0  0  0  0  0  0
  -29.2835  -16.8707   19.1763 O   0  0  0  0  0  0  0  0  0  0  0  0
  -21.4201   -8.2388   22.9683 O   0  0  0  0  0  0  0  0  0  0  0  0
  -27.3206  -25.5676   20.1735 O   0  0  0  0  0  0  0  0  0  1  0  0
  -21.1842   -2.8522   24.1231 F   0  0  0  0  0  0  0  0  0  0  0  0
  -21.5262   -7.3425   25.5814 F   0  0  0  0  0  0  0  0  0  0  0  0
  1  2  1  0  0  0  0
  1  5  2  0  0  0  0
  2  6  2  0  0  0  0
  3  8  2  0  0  0  0
  3 18  1  0  0  0  0
  4  9  1  0  0  0  0
  4 18  2  0  0  0  0
  5 21  1  0  0  0  0
  6 23  1  0  0  0  0
  7 10  2  0  0  0  0
  7 22  1  0  0  0  0
  8 27  1  0  0  0  0
  9 27  2  0  0  0  0
 10 28  1  0  0  0  0
 11 12  2  0  0  0  0
 11 29  1  0  0  0  0
 12 30  1  0  0  0  0
 13 19  1  0  0  0  0
 13 25  2  0  0  0  0
 14 19  2  0  0  0  0
 14 26  1  0  0  0  0
 15 24  1  0  0  0  0
 15 28  2  0  0  0  0
 16 25  1  0  0  0  0
 16 26  2  0  0  0  0
 17 30  2  0  0  0  0
 17 31  1  0  0  0  0
 18 32  1  0  0  0  0
 19 36  1  0  0  0  0
 20 32  1  0  0  0  0
 20 33  2  0  0  0  0
 20 37  1  0  0  0  0
 21 23  2  0  0  0  0
 21 43  1  0  0  0  0
 22 24  2  0  0  0  0
 22 44  1  0  0  0  0
 23 52  1  0  0  0  0
 24 45  1  0  0  0  0
 25 70  1  0  0  0  0
 26 71  1  0  0  0  0
 27 82  1  0  0  0  0
 28 83  1  0  0  0  0
 29 31  2  0  0  0  0
 29 82  1  0  0  0  0
 30 84  1  0  0  0  0
 31 85  1  0  0  0  0
 32 63  2  0  0  0  0
 33 64  1  0  0  0  0
 33 67  1  0  0  0  0
 34 35  2  0  0  0  0
 34 38  1  0  0  0  0
 35 83  1  0  0  0  0
 36 68  1  0  0  0  0
 36 74  2  0  0  0  0
 37 69  1  0  0  0  0
 37 76  2  0  0  0  0
 38 70  1  0  0  0  0
 38 77  2  0  0  0  0
 39 53  1  0  0  0  0
 39 72  1  0  0  0  0
 39 78  2  0  0  0  0
 40 60  1  0  0  0  0
 40 65  1  0  0  0  0
 40 79  2  0  0  0  0
 41 61  1  0  0  0  0
 41 73  1  0  0  0  0
 41 80  2  0  0  0  0
 42 66  1  0  0  0  0
 42 71  1  0  0  0  0
 42 81  2  0  0  0  0
 43 46  1  0  0  0  0
 44 53  1  0  0  0  0
 45 65  1  0  0  0  0
 46 48  1  0  0  0  0
 47 49  1  0  0  0  0
 47 50  1  0  0  0  0
 48 52  1  0  0  0  0
 49 54  1  0  0  0  0
 50 66  1  0  0  0  0
 51 54  1  0  0  0  0
 51 66  1  0  0  0  0
 52 72  1  0  0  0  0
 53 65  1  0  0  0  0
 54 64  1  0  0  0  0
 55 61  1  0  0  0  0
 56 62  1  0  0  0  0
 57 62  1  0  0  0  0
 58 62  1  0  0  0  0
 59 75  1  0  0  0  0
 60 62  1  0  0  0  0
 60 73  1  0  0  0  0
 61 75  1  0  0  0  0
 63 64  1  0  0  0  0
M  CHG  2  74   1  75   1
M  ISO  4  35 101  42 100  71 100  83 101
M  END
> <Batch ID>
0070

> <Smiles>
CNC(C)C(=O)NC(C(=O)N1Cc2cc([101O:1][101CH:1]=CC(=O)Nc3cc([100NH:0][100C:0](=O)N4CCCC(n5nc(-c6ccc(Oc7ccc(F)cc7F)cc6)c(C(N)=O)c5N)C4)cc(C(=N)N)c3)ccc2CC1C(=O)NC1CCCc2ccccc21)C(C)(C)C

> <Shape>
0.270

> <Color>
0.099

> <Negative vol penalty>
0.000

$$$$

  -OEChem-04042323323D

 88 97  0     1  0  0  0  0  0999 V2000
  -29.0388  -33.3381   25.6408 C   0  0  0  0  0  0  0  0  0  0  0  0
  -28.9457  -32.0938   25.0257 C   0  0  0  0  0  0  0  0  0  0  0  0
  -22.8844  -12.3647   23.0040 C   0  0  0  0  0  0  0  0  0  0  0  0
  -22.3817  -14.2417   21.5682 C   0  0  0  0  0  0  0  0  0  0  0  0
  -27.8838  -33.9902   26.0706 C   0  0  0  0  0  0  0  0  0  0  0  0
  -27.6974  -31.5003   24.8408 C   0  0  0  0  0  0  0  0  0  0  0  0
  -27.1511  -29.5271   20.2091 C   0  0  0  0  0  0  0  0  0  0  0  0
  -30.4120  -20.4210   19.3830 C   0  0  0  0  0  0  0  0  0  0  0  0
  -30.3195  -19.0654   19.6982 C   0  0  0  0  0  0  0  0  0  0  0  0
  -21.7544  -12.6486   23.7708 C   0  0  0  0  0  0  0  0  0  0  0  0
  -21.2517  -14.5256   22.3351 C   0  0  0  0  0  0  0  0  0  0  0  0
  -27.7634  -28.2987   19.9641 C   0  0  0  0  0  0  0  0  0  0  0  0
  -18.4143  -12.1678   23.5577 C   0  0  0  0  0  0  0  0  0  0  0  0
  -17.5911  -11.1012   23.9186 C   0  0  0  0  0  0  0  0  0  0  0  0
  -25.6468  -27.1867   20.2847 C   0  0  0  0  0  0  0  0  0  0  0  0
  -28.3555  -20.2688   18.1243 C   0  0  0  0  0  0  0  0  0  0  0  0
  -17.9765  -11.5933   26.2524 C   0  0  0  0  0  0  0  0  0  0  0  0
  -23.1981  -13.1613   21.9027 C   0  0  0  0  0  0  0  0  0  0  0  0
  -24.4398  -12.0275   19.9843 C   0  0  0  0  0  0  0  0  0  0  0  0
  -26.6200  -33.4088   25.8822 C   0  0  0  0  0  0  0  0  0  0  0  0
  -25.7820  -29.5935   20.5050 C   0  0  0  0  0  0  0  0  0  0  0  0
  -26.5245  -32.1447   25.2696 C   0  0  0  0  0  0  0  0  0  0  0  0
  -25.0191  -28.4173   20.5305 C   0  0  0  0  0  0  0  0  0  0  0  0
  -29.4300  -21.0228   18.5961 C   0  0  0  0  0  0  0  0  0  0  0  0
  -29.2450  -18.3115   19.2264 C   0  0  0  0  0  0  0  0  0  0  0  0
  -20.9380  -13.7290   23.4364 C   0  0  0  0  0  0  0  0  0  0  0  0
  -27.0118  -27.1280   20.0047 C   0  0  0  0  0  0  0  0  0  0  0  0
  -19.0187  -12.9471   24.5442 C   0  0  0  0  0  0  0  0  0  0  0  0
  -17.3722  -10.8139   25.2659 C   0  0  0  0  0  0  0  0  0  0  0  0
  -28.2629  -18.9132   18.4394 C   0  0  0  0  0  0  0  0  0  0  0  0
  -18.7998  -12.6599   25.8915 C   0  0  0  0  0  0  0  0  0  0  0  0
  -24.3656  -12.8689   21.1105 C   0  0  0  0  0  0  0  0  0  0  0  0
  -25.7567  -12.0860   19.5982 C   0  0  0  0  0  0  0  0  0  0  0  0
  -30.1424  -22.8705   17.2104 C   0  0  0  0  0  0  0  0  0  0  0  0
  -23.4105  -11.2617   19.3442 C   0  0  0  0  0  0  0  0  0  0  0  0
  -24.0711  -30.5698   22.9996 C   0  0  0  0  0  0  0  0  0  0  0  0
  -21.5708  -30.0000   21.0131 C   0  0  0  0  0  0  0  0  0  0  0  0
  -20.3489  -28.3305   18.2989 C   0  0  0  0  0  0  0  0  0  0  0  0
  -30.0435  -16.1860   20.3179 C   0  0  0  0  0  0  0  0  0  0  0  0
  -25.4037  -34.1304   26.4061 C   0  0  0  0  0  0  0  0  0  0  0  0
  -25.1312  -30.9289   20.7406 C   0  0  0  0  0  0  0  0  0  0  0  0
  -23.5418  -28.4365   20.8235 C   0  0  0  0  0  0  0  0  0  0  0  0
  -24.0897  -33.6029   25.8354 C   0  0  0  0  0  0  0  0  0  0  0  0
  -30.1507  -12.7860   21.3692 C   0  0  0  0  0  0  0  0  0  0  0  0
  -24.0614  -32.0785   25.8816 C   0  0  0  0  0  0  0  0  0  0  0  0
  -28.6869  -12.3431   21.3139 C   0  0  0  0  0  0  0  0  0  0  0  0
  -30.2878  -14.2341   21.8361 C   0  0  0  0  0  0  0  0  0  0  0  0
  -28.9665  -23.4103   19.1544 C   0  0  0  0  0  0  0  0  0  0  0  0
  -28.0214  -14.7644   21.0291 C   0  0  0  0  0  0  0  0  0  0  0  0
  -25.1866  -31.4797   25.0290 C   0  0  1  0  0  0  0  0  0  0  0  0
  -23.8348  -30.8293   21.5386 C   0  0  1  0  0  0  0  0  0  0  0  0
  -28.7992  -24.5767   18.1801 C   0  0  2  0  0  0  0  0  0  0  0  0
  -27.8288  -13.3331   20.5020 C   0  0  2  0  0  0  0  0  0  0  0  0
  -29.9721  -24.3695   17.1794 C   0  0  0  0  0  0  0  0  0  0  0  0
  -31.2845  -25.0338   17.6210 C   0  0  0  0  0  0  0  0  0  0  0  0
  -29.5681  -24.8796   15.7907 C   0  0  0  0  0  0  0  0  0  0  0  0
  -18.2590  -28.0423   16.9401 C   0  0  0  0  0  0  0  0  0  0  0  0
  -20.3886  -28.2419   23.2088 C   0  0  0  0  0  0  0  0  0  0  0  0
  -18.8520  -27.2560   21.4956 C   0  0  0  0  0  0  0  0  0  0  0  0
  -18.7287  -29.6905   22.0253 C   0  0  0  0  0  0  0  0  0  0  0  0
  -31.0838  -20.8519   16.2309 C   0  0  0  0  0  0  0  0  0  0  0  0
  -21.6628  -29.3462   15.8492 C   0  0  0  0  0  0  0  0  0  0  0  0
  -28.7291  -25.9226   18.8848 C   0  0  0  0  0  0  0  0  0  1  0  0
  -20.6977  -28.8068   20.7085 C   0  0  1  0  0  0  0  0  0  0  0  0
  -19.5634  -28.8093   17.0914 C   0  0  2  0  0  0  0  0  0  0  0  0
  -19.6949  -28.4979   21.8559 C   0  0  0  0  0  0  0  0  0  0  0  0
  -25.5417  -13.4212   21.4199 N   0  0  0  0  0  0  0  0  0  0  0  0
  -26.3674  -12.9258   20.4824 N   0  0  0  0  0  0  0  0  0  0  0  0
  -29.5220  -22.3584   18.2856 N   0  0  0  0  0  0  0  0  0  0  0  0
  -22.9526  -29.7660   21.0533 N   0  0  0  0  0  0  0  0  0  0  0  0
  -29.4504  -15.1146   21.0187 N   0  0  0  0  0  0  0  0  0  0  0  0
  -26.4401  -11.5004   18.5921 N   0  0  0  0  0  0  0  0  0  0  0  0
  -22.1126  -11.3156   19.8704 N   0  0  0  0  0  0  0  0  0  0  0  0
  -29.1535  -16.9346   19.5483 N   0  0  0  0  0  0  0  0  0  0  0  0
  -24.8398  -31.5329   23.6250 N   0  0  0  0  0  0  0  0  0  0  0  0
  -20.0674  -29.0800   19.4215 N   0  0  0  0  0  0  0  0  0  0  0  0
  -30.8764  -22.2961   16.2631 N   0  3  0  0  0  0  0  0  0  0  0  0
  -20.3632  -28.6264   15.8474 N   0  3  0  0  0  0  0  0  0  0  0  0
  -23.6385  -10.5378   18.3455 O   0  0  0  0  0  0  0  0  0  0  0  0
  -23.5902  -29.5706   23.5213 O   0  0  0  0  0  0  0  0  0  0  0  0
  -21.0466  -31.1007   21.2010 O   0  0  0  0  0  0  0  0  0  0  0  0
  -21.1311  -27.3836   18.2520 O   0  0  0  0  0  0  0  0  0  0  0  0
  -31.2562  -16.4055   20.3732 O   0  0  0  0  0  0  0  0  0  0  0  0
  -19.8351  -14.0062   24.1843 O   0  0  0  0  0  0  0  0  0  0  0  0
  -27.6071  -25.9276   19.7665 O   0  0  0  0  0  0  0  0  0  1  0  0
  -16.5804   -9.7906   25.6123 F   0  0  0  0  0  0  0  0  0  0  0  0
  -27.2259  -18.1981   17.9806 F   0  0  0  0  0  0  0  0  0  0  0  0
  -19.3767  -13.4058   26.8436 F   0  0  0  0  0  0  0  0  0  0  0  0
  1  2  1  0  0  0  0
  1  5  2  0  0  0  0
  2  6  2  0  0  0  0
  3 10  2  0  0  0  0
  3 18  1  0  0  0  0
  4 11  1  0  0  0  0
  4 18  2  0  0  0  0
  5 20  1  0  0  0  0
  6 22  1  0  0  0  0
  7 12  2  0  0  0  0
  7 21  1  0  0  0  0
  8  9  2  0  0  0  0
  8 24  1  0  0  0  0
  9 25  1  0  0  0  0
 10 26  1  0  0  0  0
 11 26  2  0  0  0  0
 12 27  1  0  0  0  0
 13 14  2  0  0  0  0
 13 28  1  0  0  0  0
 14 29  1  0  0  0  0
 15 23  1  0  0  0  0
 15 27  2  0  0  0  0
 16 24  2  0  0  0  0
 16 30  1  0  0  0  0
 17 29  2  0  0  0  0
 17 31  1  0  0  0  0
 18 32  1  0  0  0  0
 19 32  1  0  0  0  0
 19 33  2  0  0  0  0
 19 35  1  0  0  0  0
 20 22  2  0  0  0  0
 20 40  1  0  0  0  0
 21 23  2  0  0  0  0
 21 41  1  0  0  0  0
 22 50  1  0  0  0  0
 23 42  1  0  0  0  0
 24 69  1  0  0  0  0
 25 30  2  0  0  0  0
 25 74  1  0  0  0  0
 26 84  1  0  0  0  0
 27 85  1  0  0  0  0
 28 31  2  0  0  0  0
 28 84  1  0  0  0  0
 29 86  1  0  0  0  0
 30 87  1  0  0  0  0
 31 88  1  0  0  0  0
 32 67  2  0  0  0  0
 33 68  1  0  0  0  0
 33 72  1  0  0  0  0
 34 54  1  0  0  0  0
 34 69  1  0  0  0  0
 34 77  2  0  0  0  0
 35 73  1  0  0  0  0
 35 79  2  0  0  0  0
 36 51  1  0  0  0  0
 36 75  1  0  0  0  0
 36 80  2  0  0  0  0
 37 64  1  0  0  0  0
 37 70  1  0  0  0  0
 37 81  2  0  0  0  0
 38 65  1  0  0  0  0
 38 76  1  0  0  0  0
 38 82  2  0  0  0  0
 39 71  1  0  0  0  0
 39 74  1  0  0  0  0
 39 83  2  0  0  0  0
 40 43  1  0  0  0  0
 41 51  1  0  0  0  0
 42 70  1  0  0  0  0
 43 45  1  0  0  0  0
 44 46  1  0  0  0  0
 44 47  1  0  0  0  0
 45 50  1  0  0  0  0
 46 53  1  0  0  0  0
 47 71  1  0  0  0  0
 48 52  1  0  0  0  0
 48 69  1  0  0  0  0
 49 53  1  0  0  0  0
 49 71  1  0  0  0  0
 50 75  1  0  0  0  0
 51 70  1  0  0  0  0
 52 54  1  0  0  0  0
 52 63  1  0  0  0  0
 53 68  1  0  0  0  0
 54 55  1  0  0  0  0
 54 56  1  0  0  0  0
 57 65  1  0  0  0  0
 58 66  1  0  0  0  0
 59 66  1  0  0  0  0
 60 66  1  0  0  0  0
 61 77  1  0  0  0  0
 62 78  1  0  0  0  0
 63 85  1  0  0  0  0
 64 66  1  0  0  0  0
 64 76  1  0  0  0  0
 65 78  1  0  0  0  0
 67 68  1  0  0  0  0
M  CHG  2  77   1  78   1
M  ISO  4  39 100  63 101  74 100  85 101
M  END
> <Batch ID>
0070

> <Smiles>
CN=C1N(c2ccc([100NH:0][100C:0](=O)N3CCCC(n4nc(-c5ccc(Oc6ccc(F)cc6F)cc5)c(C(N)=O)c4N)C3)c(F)c2)CC([101CH2:1][101O:1]c2ccc3c(c2)CN(C(=O)C(NC(=O)C(C)NC)C(C)(C)C)C(C(=O)NC2CCCc4ccccc42)C3)C1(C)C

> <Shape>
0.316

> <Color>
0.065

> <Negative vol penalty>
0.000

$$$$

  -OEChem-04042323323D

 87 96  0     1  0  0  0  0  0999 V2000
  -22.0412  -20.8463   29.7165 C   0  0  0  0  0  0  0  0  0  0  0  0
  -23.1688  -21.3169   29.0512 C   0  0  0  0  0  0  0  0  0  0  0  0
  -26.6504  -12.7321   21.7208 C   0  0  0  0  0  0  0  0  0  0  0  0
  -26.2023  -13.9440   19.6794 C   0  0  0  0  0  0  0  0  0  0  0  0
  -20.7727  -21.2678   29.3200 C   0  0  0  0  0  0  0  0  0  0  0  0
  -23.0284  -22.2085   27.9884 C   0  0  0  0  0  0  0  0  0  0  0  0
  -26.8177  -26.7820   26.4949 C   0  0  0  0  0  0  0  0  0  0  0  0
  -25.3477  -12.2335   21.7108 C   0  0  0  0  0  0  0  0  0  0  0  0
  -24.8996  -13.4454   19.6693 C   0  0  0  0  0  0  0  0  0  0  0  0
  -27.8344  -26.8860   25.5465 C   0  0  0  0  0  0  0  0  0  0  0  0
  -23.6237   -9.8015   20.1151 C   0  0  0  0  0  0  0  0  0  0  0  0
  -23.4474   -8.4433   20.3793 C   0  0  0  0  0  0  0  0  0  0  0  0
  -28.8581  -23.7175   18.3056 C   0  0  0  0  0  0  0  0  0  0  0  0
  -29.3057  -21.3437   18.3456 C   0  0  0  0  0  0  0  0  0  0  0  0
  -26.2850  -27.9094   24.0066 C   0  0  0  0  0  0  0  0  0  0  0  0
  -29.7835  -22.6959   20.2898 C   0  0  0  0  0  0  0  0  0  0  0  0
  -22.0755   -8.9930   22.2905 C   0  0  0  0  0  0  0  0  0  0  0  0
  -27.0777  -13.5874   20.7051 C   0  0  0  0  0  0  0  0  0  0  0  0
  -28.8480  -22.4755   17.6708 C   0  0  0  0  0  0  0  0  0  0  0  0
  -29.5602  -13.5237   20.1214 C   0  0  0  0  0  0  0  0  0  0  0  0
  -20.6173  -22.1726   28.2580 C   0  0  0  0  0  0  0  0  0  0  0  0
  -25.5222  -27.2317   26.2017 C   0  0  0  0  0  0  0  0  0  0  0  0
  -21.7566  -22.6415   27.5765 C   0  0  0  0  0  0  0  0  0  0  0  0
  -25.2543  -27.8123   24.9538 C   0  0  0  0  0  0  0  0  0  0  0  0
  -29.3259  -23.8277   19.6150 C   0  0  0  0  0  0  0  0  0  0  0  0
  -29.7734  -21.4539   19.6551 C   0  0  0  0  0  0  0  0  0  0  0  0
  -24.4724  -12.5901   20.6850 C   0  0  0  0  0  0  0  0  0  0  0  0
  -27.5674  -27.4471   24.3011 C   0  0  0  0  0  0  0  0  0  0  0  0
  -23.0259  -10.7555   20.9387 C   0  0  0  0  0  0  0  0  0  0  0  0
  -22.6733   -8.0391   21.4669 C   0  0  0  0  0  0  0  0  0  0  0  0
  -22.2518  -10.3513   22.0264 C   0  0  0  0  0  0  0  0  0  0  0  0
  -28.4230  -14.1032   20.7153 C   0  0  0  0  0  0  0  0  0  0  0  0
  -30.5814  -14.3945   20.4132 C   0  0  0  0  0  0  0  0  0  0  0  0
  -28.9536  -26.3013   19.8285 C   0  0  0  0  0  0  0  0  0  0  0  0
  -29.6843  -25.4369   21.5085 C   0  0  0  0  0  0  0  0  0  0  0  0
  -28.3627  -22.3610   16.3134 C   0  0  0  0  0  0  0  0  0  0  0  0
  -29.6824  -12.3070   19.3728 C   0  0  0  0  0  0  0  0  0  0  0  0
  -22.6630  -25.8579   25.9995 C   0  0  0  0  0  0  0  0  0  0  0  0
  -21.6524  -28.9161   25.6143 C   0  0  0  0  0  0  0  0  0  0  0  0
  -22.3885  -32.1146   24.6792 C   0  0  0  0  0  0  0  0  0  0  0  0
  -30.7360  -20.2401   21.6416 C   0  0  0  0  0  0  0  0  0  0  0  0
  -19.2232  -22.5628   27.8350 C   0  0  0  0  0  0  0  0  0  0  0  0
  -24.4430  -27.1368   27.2452 C   0  0  0  0  0  0  0  0  0  0  0  0
  -23.8852  -28.3288   24.5970 C   0  0  0  0  0  0  0  0  0  0  0  0
  -19.1817  -23.7997   26.9412 C   0  0  0  0  0  0  0  0  0  0  0  0
  -31.9462  -17.5989   23.7000 C   0  0  0  0  0  0  0  0  0  0  0  0
  -20.2343  -23.6994   25.8418 C   0  0  0  0  0  0  0  0  0  0  0  0
  -31.2883  -16.3493   23.1103 C   0  0  0  0  0  0  0  0  0  0  0  0
  -31.0126  -18.8072   23.6529 C   0  0  0  0  0  0  0  0  0  0  0  0
  -29.7864  -17.8519   21.7416 C   0  0  0  0  0  0  0  0  0  0  0  0
  -21.6466  -23.6289   26.4349 C   0  0  1  0  0  0  0  0  0  0  0  0
  -29.3164  -26.9004   21.2003 C   0  0  0  0  0  0  0  0  0  0  0  0
  -23.0368  -27.1577   26.6540 C   0  0  1  0  0  0  0  0  0  0  0  0
  -30.7116  -16.6245   21.7077 C   0  0  2  0  0  0  0  0  0  0  0  0
  -21.3478  -34.3852   24.4374 C   0  0  0  0  0  0  0  0  0  0  0  0
  -20.2504  -27.9993   23.0640 C   0  0  0  0  0  0  0  0  0  0  0  0
  -20.0550  -30.4027   22.3905 C   0  0  0  0  0  0  0  0  0  0  0  0
  -18.9292  -29.5951   24.4648 C   0  0  0  0  0  0  0  0  0  0  0  0
  -24.2536  -33.3063   26.6438 C   0  0  0  0  0  0  0  0  0  0  0  0
  -28.1710  -27.4887   22.0012 C   0  0  0  0  0  0  0  0  0  1  0  0
  -21.4460  -29.8330   24.4329 C   0  0  1  0  0  0  0  0  0  0  0  0
  -22.1200  -33.4481   25.3530 C   0  0  2  0  0  0  0  0  0  0  0  0
  -20.1956  -29.4461   23.5938 C   0  0  0  0  0  0  0  0  0  0  0  0
  -28.6957  -15.2532   21.3375 N   0  0  0  0  0  0  0  0  0  0  0  0
  -30.0160  -15.4032   21.1363 N   0  0  0  0  0  0  0  0  0  0  0  0
  -29.3355  -25.0520   20.2409 N   0  0  0  0  0  0  0  0  0  0  0  0
  -22.8619  -28.2078   25.6486 N   0  0  0  0  0  0  0  0  0  0  0  0
  -30.5086  -19.0092   22.2927 N   0  0  0  0  0  0  0  0  0  0  0  0
  -31.8990  -14.3880   20.1193 N   0  0  0  0  0  0  0  0  0  0  0  0
  -27.9194  -23.4451   15.6550 N   0  0  0  0  0  0  0  0  0  0  0  0
  -28.5333  -11.5317   19.1656 N   0  0  0  0  0  0  0  0  0  0  0  0
  -30.2393  -20.3044   20.3402 N   0  0  0  0  0  0  0  0  0  0  0  0
  -22.0836  -24.9423   26.8572 N   0  0  0  0  0  0  0  0  0  0  0  0
  -21.4089  -31.1889   24.9702 N   0  0  0  0  0  0  0  0  0  0  0  0
  -28.3507  -21.1695   15.6926 N   0  3  0  0  0  0  0  0  0  0  0  0
  -23.4033  -34.1075   25.7262 N   0  3  0  0  0  0  0  0  0  0  0  0
  -28.4982  -26.7191   18.7878 O   0  0  0  0  0  0  0  0  0  0  0  0
  -30.0997  -24.8268   22.4678 O   0  0  0  0  0  0  0  0  0  0  0  0
  -30.7811  -11.9105   18.9155 O   0  0  0  0  0  0  0  0  0  0  0  0
  -22.8824  -25.6980   24.8046 O   0  0  0  0  0  0  0  0  0  0  0  0
  -20.7758  -28.8367   26.4786 O   0  0  0  0  0  0  0  0  0  0  0  0
  -23.3672  -31.9152   23.9630 O   0  0  0  0  0  0  0  0  0  0  0  0
  -31.3517  -21.1592   22.1878 O   0  0  0  0  0  0  0  0  0  0  0  0
  -23.2013  -12.1036   20.6747 O   0  0  0  0  0  0  0  0  0  0  0  0
  -28.5578  -27.5492   23.3734 O   0  0  0  0  0  0  0  0  0  1  0  0
  -22.5028   -6.7347   21.7195 F   0  0  0  0  0  0  0  0  0  0  0  0
  -21.6741  -11.2631   22.8204 F   0  0  0  0  0  0  0  0  0  0  0  0
  1  2  1  0  0  0  0
  1  5  2  0  0  0  0
  2  6  2  0  0  0  0
  3  8  2  0  0  0  0
  3 18  1  0  0  0  0
  4  9  1  0  0  0  0
  4 18  2  0  0  0  0
  5 21  1  0  0  0  0
  6 23  1  0  0  0  0
  7 10  2  0  0  0  0
  7 22  1  0  0  0  0
  8 27  1  0  0  0  0
  9 27  2  0  0  0  0
 10 28  1  0  0  0  0
 11 12  2  0  0  0  0
 11 29  1  0  0  0  0
 12 30  1  0  0  0  0
 13 19  1  0  0  0  0
 13 25  2  0  0  0  0
 14 19  2  0  0  0  0
 14 26  1  0  0  0  0
 15 24  1  0  0  0  0
 15 28  2  0  0  0  0
 16 25  1  0  0  0  0
 16 26  2  0  0  0  0
 17 30  2  0  0  0  0
 17 31  1  0  0  0  0
 18 32  1  0  0  0  0
 19 36  1  0  0  0  0
 20 32  1  0  0  0  0
 20 33  2  0  0  0  0
 20 37  1  0  0  0  0
 21 23  2  0  0  0  0
 21 42  1  0  0  0  0
 22 24  2  0  0  0  0
 22 43  1  0  0  0  0
 23 51  1  0  0  0  0
 24 44  1  0  0  0  0
 25 66  1  0  0  0  0
 26 72  1  0  0  0  0
 27 84  1  0  0  0  0
 28 85  1  0  0  0  0
 29 31  2  0  0  0  0
 29 84  1  0  0  0  0
 30 86  1  0  0  0  0
 31 87  1  0  0  0  0
 32 64  2  0  0  0  0
 33 65  1  0  0  0  0
 33 69  1  0  0  0  0
 34 52  1  0  0  0  0
 34 66  1  0  0  0  0
 34 77  2  0  0  0  0
 35 52  1  0  0  0  0
 35 66  1  0  0  0  0
 35 78  2  0  0  0  0
 36 70  1  0  0  0  0
 36 75  2  0  0  0  0
 37 71  1  0  0  0  0
 37 79  2  0  0  0  0
 38 53  1  0  0  0  0
 38 73  1  0  0  0  0
 38 80  2  0  0  0  0
 39 61  1  0  0  0  0
 39 67  1  0  0  0  0
 39 81  2  0  0  0  0
 40 62  1  0  0  0  0
 40 74  1  0  0  0  0
 40 82  2  0  0  0  0
 41 68  1  0  0  0  0
 41 72  1  0  0  0  0
 41 83  2  0  0  0  0
 42 45  1  0  0  0  0
 43 53  1  0  0  0  0
 44 67  1  0  0  0  0
 45 47  1  0  0  0  0
 46 48  1  0  0  0  0
 46 49  1  0  0  0  0
 47 51  1  0  0  0  0
 48 54  1  0  0  0  0
 49 68  1  0  0  0  0
 50 54  1  0  0  0  0
 50 68  1  0  0  0  0
 51 73  1  0  0  0  0
 52 60  1  0  0  0  0
 53 67  1  0  0  0  0
 54 65  1  0  0  0  0
 55 62  1  0  0  0  0
 56 63  1  0  0  0  0
 57 63  1  0  0  0  0
 58 63  1  0  0  0  0
 59 76  1  0  0  0  0
 60 85  1  0  0  0  0
 61 63  1  0  0  0  0
 61 74  1  0  0  0  0
 62 76  1  0  0  0  0
 64 65  1  0  0  0  0
M  CHG  2  75   1  76   1
M  ISO  4  41 100  60 101  72 100  85 101
M  END
> <Batch ID>
0070

> <Smiles>
CNC(C)C(=O)NC(C(=O)N1Cc2cc([101O:1][101CH2:1]C3C(=O)N(c4cc([100NH:0][100C:0](=O)N5CCCC(n6nc(-c7ccc(Oc8ccc(F)cc8F)cc7)c(C(N)=O)c6N)C5)cc(C(=N)N)c4)C3=O)ccc2CC1C(=O)NC1CCCc2ccccc21)C(C)(C)C

> <Shape>
0.225

> <Color>
0.061

> <Negative vol penalty>
0.000

$$$$

  -OEChem-04042323323D

 85 93  0     1  0  0  0  0  0999 V2000
  -33.7567  -35.1118   22.3185 C   0  0  0  0  0  0  0  0  0  0  0  0
  -33.7674  -33.7213   22.3617 C   0  0  0  0  0  0  0  0  0  0  0  0
  -23.0709   -9.8846   19.9299 C   0  0  0  0  0  0  0  0  0  0  0  0
  -23.8483   -9.8598   22.2172 C   0  0  0  0  0  0  0  0  0  0  0  0
  -32.6793  -35.8165   22.8540 C   0  0  0  0  0  0  0  0  0  0  0  0
  -32.7012  -33.0347   22.9415 C   0  0  0  0  0  0  0  0  0  0  0  0
  -30.4182  -27.6275   21.1936 C   0  0  0  0  0  0  0  0  0  0  0  0
  -22.3299   -8.7273   20.1692 C   0  0  0  0  0  0  0  0  0  0  0  0
  -23.1073   -8.7026   22.4566 C   0  0  0  0  0  0  0  0  0  0  0  0
  -30.6122  -26.3303   21.6664 C   0  0  0  0  0  0  0  0  0  0  0  0
  -19.8845   -7.8934   23.0724 C   0  0  0  0  0  0  0  0  0  0  0  0
  -19.1365   -7.8362   24.2484 C   0  0  0  0  0  0  0  0  0  0  0  0
  -31.1447  -17.7102   20.6346 C   0  0  0  0  0  0  0  0  0  0  0  0
  -28.6213  -26.5302   23.0139 C   0  0  0  0  0  0  0  0  0  0  0  0
  -29.6950  -19.2600   22.4454 C   0  0  0  0  0  0  0  0  0  0  0  0
  -20.3851   -5.8897   24.9479 C   0  0  0  0  0  0  0  0  0  0  0  0
  -23.8302  -10.4508   20.9539 C   0  0  0  0  0  0  0  0  0  0  0  0
  -31.3126  -19.0947   20.6584 C   0  0  0  0  0  0  0  0  0  0  0  0
  -24.1690  -12.9777   20.8670 C   0  0  0  0  0  0  0  0  0  0  0  0
  -31.5949  -35.1378   23.4320 C   0  0  0  0  0  0  0  0  0  0  0  0
  -29.3285  -28.3909   21.6364 C   0  0  0  0  0  0  0  0  0  0  0  0
  -31.6090  -33.7310   23.4865 C   0  0  0  0  0  0  0  0  0  0  0  0
  -28.4143  -27.8358   22.5432 C   0  0  0  0  0  0  0  0  0  0  0  0
  -30.2520  -17.1005   21.5161 C   0  0  0  0  0  0  0  0  0  0  0  0
  -30.5877  -19.8696   21.5638 C   0  0  0  0  0  0  0  0  0  0  0  0
  -22.3480   -8.1363   21.4325 C   0  0  0  0  0  0  0  0  0  0  0  0
  -29.7153  -25.7826   22.5789 C   0  0  0  0  0  0  0  0  0  0  0  0
  -20.8827   -6.9486   22.8341 C   0  0  0  0  0  0  0  0  0  0  0  0
  -19.3869   -6.8344   25.1861 C   0  0  0  0  0  0  0  0  0  0  0  0
  -29.5272  -17.8755   22.4216 C   0  0  0  0  0  0  0  0  0  0  0  0
  -21.1330   -5.9468   23.7718 C   0  0  0  0  0  0  0  0  0  0  0  0
  -24.5963  -11.6459   20.7071 C   0  0  0  0  0  0  0  0  0  0  0  0
  -25.2578  -13.7332   20.5060 C   0  0  0  0  0  0  0  0  0  0  0  0
  -32.2518  -19.7007   19.7229 C   0  0  0  0  0  0  0  0  0  0  0  0
  -22.9014  -13.4864   21.3029 C   0  0  0  0  0  0  0  0  0  0  0  0
  -29.0028  -31.1247   23.2251 C   0  0  0  0  0  0  0  0  0  0  0  0
  -25.8574  -30.6802   22.5685 C   0  0  0  0  0  0  0  0  0  0  0  0
  -30.0958  -22.1736   22.4489 C   0  0  0  0  0  0  0  0  0  0  0  0
  -23.3339  -28.5103   21.8133 C   0  0  0  0  0  0  0  0  0  0  0  0
  -30.7243  -14.7812   20.6536 C   0  0  0  0  0  0  0  0  0  0  0  0
  -30.4748  -35.9441   24.0402 C   0  0  0  0  0  0  0  0  0  0  0  0
  -29.1183  -29.7790   21.0964 C   0  0  0  0  0  0  0  0  0  0  0  0
  -27.2171  -28.6066   23.0343 C   0  0  0  0  0  0  0  0  0  0  0  0
  -29.2101  -35.1299   24.3008 C   0  0  0  0  0  0  0  0  0  0  0  0
  -29.5937  -12.4001   18.2600 C   0  0  0  0  0  0  0  0  0  0  0  0
  -29.5565  -33.8081   24.9788 C   0  0  0  0  0  0  0  0  0  0  0  0
  -28.1576  -12.1012   18.6965 C   0  0  0  0  0  0  0  0  0  0  0  0
  -30.5178  -12.6127   19.4578 C   0  0  0  0  0  0  0  0  0  0  0  0
  -28.6209  -13.3159   20.8637 C   0  0  0  0  0  0  0  0  0  0  0  0
  -30.4594  -32.9496   24.0848 C   0  0  1  0  0  0  0  0  0  0  0  0
  -28.2603  -30.6511   22.0077 C   0  0  1  0  0  0  0  0  0  0  0  0
  -27.6392  -13.1584   19.6910 C   0  0  2  0  0  0  0  0  0  0  0  0
  -33.4327  -18.8786   19.3006 C   0  0  0  0  0  0  0  0  0  0  0  0
  -20.8644  -28.4373   21.3729 C   0  0  0  0  0  0  0  0  0  0  0  0
  -25.3179  -30.9960   25.5550 C   0  0  0  0  0  0  0  0  0  0  0  0
  -23.0560  -29.9897   25.1820 C   0  0  0  0  0  0  0  0  0  0  0  0
  -23.6621  -32.1385   24.0693 C   0  0  0  0  0  0  0  0  0  0  0  0
  -23.7354  -27.4524   19.0786 C   0  0  0  0  0  0  0  0  0  0  0  0
  -30.5499  -23.5939   22.1676 C   0  0  0  0  0  0  0  0  0  1  0  0
  -24.7091  -29.9846   23.2589 C   0  0  1  0  0  0  0  0  0  0  0  0
  -22.2481  -28.5577   20.7534 C   0  0  2  0  0  0  0  0  0  0  0  0
  -24.2098  -30.7631   24.5087 C   0  0  0  0  0  0  0  0  0  0  0  0
  -25.8580  -11.5571   20.2779 N   0  0  0  0  0  0  0  0  0  0  0  0
  -26.2329  -12.8427   20.1648 N   0  0  0  0  0  0  0  0  0  0  0  0
  -27.0584  -29.9620   22.4818 N   0  0  0  0  0  0  0  0  0  0  0  0
  -29.9648  -13.6305   20.3539 N   0  0  0  0  0  0  0  0  0  0  0  0
  -25.4665  -15.0658   20.4502 N   0  0  0  0  0  0  0  0  0  0  0  0
  -21.8928  -12.5716   21.6350 N   0  0  0  0  0  0  0  0  0  0  0  0
  -30.7427  -21.2755   21.6069 N   0  0  0  0  0  0  0  0  0  0  0  0
  -30.0825  -15.6940   21.4900 N   0  0  0  0  0  0  0  0  0  0  0  0
  -29.6819  -32.3143   23.0426 N   0  0  0  0  0  0  0  0  0  0  0  0
  -23.6874  -29.7732   22.2391 N   0  0  0  0  0  0  0  0  0  0  0  0
  -22.4257  -27.4435   19.7798 N   0  3  0  0  0  0  0  0  0  0  0  0
  -32.1488  -20.8365   19.2596 O   0  0  0  0  0  0  0  0  0  0  0  0
  -22.6646  -14.7158   21.3794 O   0  0  0  0  0  0  0  0  0  0  0  0
  -28.9614  -30.4609   24.2543 O   0  0  0  0  0  0  0  0  0  0  0  0
  -25.6926  -31.8160   22.1164 O   0  0  0  0  0  0  0  0  0  0  0  0
  -29.2659  -21.9245   23.3171 O   0  0  0  0  0  0  0  0  0  0  0  0
  -23.8172  -27.4580   22.2251 O   0  0  0  0  0  0  0  0  0  0  0  0
  -31.8496  -14.9576   20.1798 O   0  0  0  0  0  0  0  0  0  0  0  0
  -21.6249   -7.0072   21.6665 O   0  0  0  0  0  0  0  0  0  0  0  0
  -29.9027  -24.5169   23.0425 O   0  0  0  0  0  0  0  0  0  1  0  0
  -18.6696   -6.7805   26.3161 F   0  0  0  0  0  0  0  0  0  0  0  0
  -28.6661  -17.3005   23.2733 F   0  0  0  0  0  0  0  0  0  0  0  0
  -22.0915   -5.0372   23.5490 F   0  0  0  0  0  0  0  0  0  0  0  0
  1  2  1  0  0  0  0
  1  5  2  0  0  0  0
  2  6  2  0  0  0  0
  3  8  2  0  0  0  0
  3 17  1  0  0  0  0
  4  9  1  0  0  0  0
  4 17  2  0  0  0  0
  5 20  1  0  0  0  0
  6 22  1  0  0  0  0
  7 10  2  0  0  0  0
  7 21  1  0  0  0  0
  8 26  1  0  0  0  0
  9 26  2  0  0  0  0
 10 27  1  0  0  0  0
 11 12  2  0  0  0  0
 11 28  1  0  0  0  0
 12 29  1  0  0  0  0
 13 18  1  0  0  0  0
 13 24  2  0  0  0  0
 14 23  1  0  0  0  0
 14 27  2  0  0  0  0
 15 25  1  0  0  0  0
 15 30  2  0  0  0  0
 16 29  2  0  0  0  0
 16 31  1  0  0  0  0
 17 32  1  0  0  0  0
 18 25  2  0  0  0  0
 18 34  1  0  0  0  0
 19 32  1  0  0  0  0
 19 33  2  0  0  0  0
 19 35  1  0  0  0  0
 20 22  2  0  0  0  0
 20 41  1  0  0  0  0
 21 23  2  0  0  0  0
 21 42  1  0  0  0  0
 22 50  1  0  0  0  0
 23 43  1  0  0  0  0
 24 30  1  0  0  0  0
 24 70  1  0  0  0  0
 25 69  1  0  0  0  0
 26 81  1  0  0  0  0
 27 82  1  0  0  0  0
 28 31  2  0  0  0  0
 28 81  1  0  0  0  0
 29 83  1  0  0  0  0
 30 84  1  0  0  0  0
 31 85  1  0  0  0  0
 32 63  2  0  0  0  0
 33 64  1  0  0  0  0
 33 67  1  0  0  0  0
 34 53  1  0  0  0  0
 34 74  2  0  0  0  0
 35 68  1  0  0  0  0
 35 75  2  0  0  0  0
 36 51  1  0  0  0  0
 36 71  1  0  0  0  0
 36 76  2  0  0  0  0
 37 60  1  0  0  0  0
 37 65  1  0  0  0  0
 37 77  2  0  0  0  0
 38 59  1  0  0  0  0
 38 69  1  0  0  0  0
 38 78  2  0  0  0  0
 39 61  1  0  0  0  0
 39 72  1  0  0  0  0
 39 79  2  0  0  0  0
 40 66  1  0  0  0  0
 40 70  1  0  0  0  0
 40 80  2  0  0  0  0
 41 44  1  0  0  0  0
 42 51  1  0  0  0  0
 43 65  1  0  0  0  0
 44 46  1  0  0  0  0
 45 47  1  0  0  0  0
 45 48  1  0  0  0  0
 46 50  1  0  0  0  0
 47 52  1  0  0  0  0
 48 66  1  0  0  0  0
 49 52  1  0  0  0  0
 49 66  1  0  0  0  0
 50 71  1  0  0  0  0
 51 65  1  0  0  0  0
 52 64  1  0  0  0  0
 54 61  1  0  0  0  0
 55 62  1  0  0  0  0
 56 62  1  0  0  0  0
 57 62  1  0  0  0  0
 58 73  1  0  0  0  0
 59 82  1  0  0  0  0
 60 62  1  0  0  0  0
 60 72  1  0  0  0  0
 61 73  1  0  0  0  0
 63 64  1  0  0  0  0
M  CHG  1  73   1
M  ISO  4  40 100  59 101  70 100  82 101
M  END
> <Batch ID>
0070

> <Smiles>
CNC(C)C(=O)NC(C(=O)N1Cc2cc([101O:1][101CH2:1]C(=O)Nc3cc(F)c([100NH:0][100C:0](=O)N4CCCC(n5nc(-c6ccc(Oc7ccc(F)cc7F)cc6)c(C(N)=O)c5N)C4)cc3C(C)=O)ccc2CC1C(=O)NC1CCCc2ccccc21)C(C)(C)C

> <Shape>
0.290

> <Color>
0.189

> <Negative vol penalty>
0.000

$$$$

  -OEChem-04042323323D

 87 96  0     1  0  0  0  0  0999 V2000
  -28.0552  -37.7106   23.2020 C   0  0  0  0  0  0  0  0  0  0  0  0
  -28.5429  -36.5477   22.6144 C   0  0  0  0  0  0  0  0  0  0  0  0
  -23.9239   -9.3546   21.8789 C   0  0  0  0  0  0  0  0  0  0  0  0
  -24.0159  -11.1275   23.5177 C   0  0  0  0  0  0  0  0  0  0  0  0
  -27.0740  -37.6328   24.1895 C   0  0  0  0  0  0  0  0  0  0  0  0
  -28.0504  -35.3061   23.0149 C   0  0  0  0  0  0  0  0  0  0  0  0
  -27.2314  -30.3614   19.4958 C   0  0  0  0  0  0  0  0  0  0  0  0
  -23.4419   -8.4797   22.8524 C   0  0  0  0  0  0  0  0  0  0  0  0
  -23.5338  -10.2525   24.4912 C   0  0  0  0  0  0  0  0  0  0  0  0
  -28.0023  -29.2179   19.2907 C   0  0  0  0  0  0  0  0  0  0  0  0
  -20.4958   -7.8312   24.3799 C   0  0  0  0  0  0  0  0  0  0  0  0
  -19.4183   -7.0132   24.0400 C   0  0  0  0  0  0  0  0  0  0  0  0
  -26.6847  -28.0422   20.9341 C   0  0  0  0  0  0  0  0  0  0  0  0
  -27.7001  -20.3629   18.9802 C   0  0  0  0  0  0  0  0  0  0  0  0
  -29.9851  -18.7744   19.1757 C   0  0  0  0  0  0  0  0  0  0  0  0
  -20.7645   -5.0563   24.4822 C   0  0  0  0  0  0  0  0  0  0  0  0
  -24.2110  -10.6785   22.2115 C   0  0  0  0  0  0  0  0  0  0  0  0
  -23.9516  -12.4090   20.3553 C   0  0  0  0  0  0  0  0  0  0  0  0
  -26.5624  -36.3902   24.5954 C   0  0  0  0  0  0  0  0  0  0  0  0
  -26.1866  -30.3571   20.4310 C   0  0  0  0  0  0  0  0  0  0  0  0
  -27.0625  -35.2115   24.0097 C   0  0  0  0  0  0  0  0  0  0  0  0
  -25.9004  -29.1861   21.1473 C   0  0  0  0  0  0  0  0  0  0  0  0
  -27.5880  -18.9729   18.9482 C   0  0  0  0  0  0  0  0  0  0  0  0
  -28.9547  -20.9586   19.1099 C   0  0  0  0  0  0  0  0  0  0  0  0
  -28.7305  -18.1787   19.0460 C   0  0  0  0  0  0  0  0  0  0  0  0
  -23.2468   -8.9286   24.1586 C   0  0  0  0  0  0  0  0  0  0  0  0
  -27.7308  -28.0590   20.0120 C   0  0  0  0  0  0  0  0  0  0  0  0
  -21.7077   -7.2618   24.7709 C   0  0  0  0  0  0  0  0  0  0  0  0
  -19.5526   -5.6258   24.0912 C   0  0  0  0  0  0  0  0  0  0  0  0
  -30.0972  -20.1644   19.2077 C   0  0  0  0  0  0  0  0  0  0  0  0
  -21.8420   -5.8743   24.8221 C   0  0  0  0  0  0  0  0  0  0  0  0
  -24.7095  -11.5826   21.2065 C   0  0  0  0  0  0  0  0  0  0  0  0
  -24.8864  -13.0661   19.5931 C   0  0  0  0  0  0  0  0  0  0  0  0
  -29.9467  -24.4713   19.3240 C   0  0  0  0  0  0  0  0  0  0  0  0
  -22.5298  -12.5685   20.2619 C   0  0  0  0  0  0  0  0  0  0  0  0
  -25.5640  -31.9571   23.1061 C   0  0  0  0  0  0  0  0  0  0  0  0
  -22.7339  -30.3820   22.9282 C   0  0  0  0  0  0  0  0  0  0  0  0
  -20.9846  -27.6889   21.7731 C   0  0  0  0  0  0  0  0  0  0  0  0
  -29.6845  -15.8477   19.0982 C   0  0  0  0  0  0  0  0  0  0  0  0
  -25.5363  -36.3535   25.7001 C   0  0  0  0  0  0  0  0  0  0  0  0
  -25.3473  -31.5907   20.6212 C   0  0  0  0  0  0  0  0  0  0  0  0
  -24.7768  -29.1235   22.1484 C   0  0  0  0  0  0  0  0  0  0  0  0
  -30.3447  -23.0205   19.2744 C   0  0  0  0  0  0  0  0  0  0  0  0
  -24.7985  -35.0210   25.8021 C   0  0  0  0  0  0  0  0  0  0  0  0
  -29.8636  -12.2917   19.0938 C   0  0  0  0  0  0  0  0  0  0  0  0
  -25.7841  -33.8586   25.7363 C   0  0  0  0  0  0  0  0  0  0  0  0
  -28.4764  -11.8582   19.5730 C   0  0  0  0  0  0  0  0  0  0  0  0
  -30.3395  -13.5572   19.8050 C   0  0  0  0  0  0  0  0  0  0  0  0
  -28.0157  -14.2536   20.2339 C   0  0  0  0  0  0  0  0  0  0  0  0
  -27.9184  -23.2352   19.2894 C   0  0  0  0  0  0  0  0  0  0  0  0
  -26.5356  -33.8475   24.3996 C   0  0  1  0  0  0  0  0  0  0  0  0
  -24.6367  -31.6277   21.9707 C   0  0  1  0  0  0  0  0  0  0  0  0
  -27.4662  -13.0199   19.4992 C   0  0  2  0  0  0  0  0  0  0  0  0
  -28.4672  -24.6543   19.0919 C   0  0  1  0  0  0  0  0  0  0  0  0
  -26.2319  -18.3618   18.8057 C   0  0  0  0  0  0  0  0  0  0  0  0
  -18.6979  -26.6566   21.8228 C   0  0  0  0  0  0  0  0  0  0  0  0
  -23.2322  -29.4212   25.7810 C   0  0  0  0  0  0  0  0  0  0  0  0
  -21.4612  -27.6863   25.4319 C   0  0  0  0  0  0  0  0  0  0  0  0
  -20.8743  -30.1077   25.3084 C   0  0  0  0  0  0  0  0  0  0  0  0
  -20.7035  -27.8892   18.8338 C   0  0  0  0  0  0  0  0  0  0  0  0
  -27.8403  -25.6833   20.0162 C   0  0  0  0  0  0  0  0  0  1  0  0
  -22.2125  -29.0597   23.4368 C   0  0  1  0  0  0  0  0  0  0  0  0
  -19.6413  -27.5850   21.0738 C   0  0  2  0  0  0  0  0  0  0  0  0
  -21.9676  -29.0701   24.9721 C   0  0  0  0  0  0  0  0  0  0  0  0
  -26.0244  -11.7019   21.0043 N   0  0  0  0  0  0  0  0  0  0  0  0
  -26.1001  -12.6109   20.0174 N   0  0  0  0  0  0  0  0  0  0  0  0
  -29.0644  -22.3376   19.1410 N   0  0  3  0  0  0  0  0  0  0  0  0
  -23.9887  -30.3574   22.3033 N   0  0  0  0  0  0  0  0  0  0  0  0
  -29.3338  -14.6155   19.6896 N   0  0  0  0  0  0  0  0  0  0  0  0
  -24.7804  -13.9831   18.6081 N   0  0  0  0  0  0  0  0  0  0  0  0
  -21.7155  -11.8167   21.1198 N   0  0  0  0  0  0  0  0  0  0  0  0
  -28.6377  -16.7651   19.0135 N   0  0  0  0  0  0  0  0  0  0  0  0
  -25.6945  -33.3107   23.3514 N   0  0  0  0  0  0  0  0  0  0  0  0
  -21.0256  -28.7569   22.6444 N   0  0  0  0  0  0  0  0  0  0  0  0
  -28.2475  -25.0748   17.6790 N   0  3  0  0  0  0  0  0  0  0  0  0
  -19.8168  -27.0601   19.6901 N   0  3  0  0  0  0  0  0  0  0  0  0
  -30.7452  -25.3864   19.4826 O   0  0  0  0  0  0  0  0  0  0  0  0
  -21.9967  -13.3421   19.4308 O   0  0  0  0  0  0  0  0  0  0  0  0
  -26.1189  -31.0503   23.7155 O   0  0  0  0  0  0  0  0  0  0  0  0
  -22.0497  -31.3980   23.0736 O   0  0  0  0  0  0  0  0  0  0  0  0
  -21.9043  -26.8993   21.5698 O   0  0  0  0  0  0  0  0  0  0  0  0
  -30.8220  -16.0625   18.6719 O   0  0  0  0  0  0  0  0  0  0  0  0
  -22.7762   -8.0752   25.1087 O   0  0  0  0  0  0  0  0  0  0  0  0
  -28.4821  -26.9417   19.8143 O   0  0  0  0  0  0  0  0  0  1  0  0
  -18.5174   -4.8404   23.7663 F   0  0  0  0  0  0  0  0  0  0  0  0
  -31.3083  -20.7258   19.3315 F   0  0  0  0  0  0  0  0  0  0  0  0
  -23.0034   -5.3215   25.1981 F   0  0  0  0  0  0  0  0  0  0  0  0
  1  2  1  0  0  0  0
  1  5  2  0  0  0  0
  2  6  2  0  0  0  0
  3  8  2  0  0  0  0
  3 17  1  0  0  0  0
  4  9  1  0  0  0  0
  4 17  2  0  0  0  0
  5 19  1  0  0  0  0
  6 21  1  0  0  0  0
  7 10  2  0  0  0  0
  7 20  1  0  0  0  0
  8 26  1  0  0  0  0
  9 26  2  0  0  0  0
 10 27  1  0  0  0  0
 11 12  2  0  0  0  0
 11 28  1  0  0  0  0
 12 29  1  0  0  0  0
 13 22  1  0  0  0  0
 13 27  2  0  0  0  0
 14 23  2  0  0  0  0
 14 24  1  0  0  0  0
 15 25  2  0  0  0  0
 15 30  1  0  0  0  0
 16 29  2  0  0  0  0
 16 31  1  0  0  0  0
 17 32  1  0  0  0  0
 18 32  1  0  0  0  0
 18 33  2  0  0  0  0
 18 35  1  0  0  0  0
 19 21  2  0  0  0  0
 19 40  1  0  0  0  0
 20 22  2  0  0  0  0
 20 41  1  0  0  0  0
 21 51  1  0  0  0  0
 22 42  1  0  0  0  0
 23 25  1  0  0  0  0
 23 55  1  0  0  0  0
 24 30  2  0  0  0  0
 24 67  1  0  0  0  0
 25 72  1  0  0  0  0
 26 83  1  0  0  0  0
 27 84  1  0  0  0  0
 28 31  2  0  0  0  0
 28 83  1  0  0  0  0
 29 85  1  0  0  0  0
 30 86  1  0  0  0  0
 31 87  1  0  0  0  0
 32 65  2  0  0  0  0
 33 66  1  0  0  0  0
 33 70  1  0  0  0  0
 34 43  1  0  0  0  0
 34 54  1  0  0  0  0
 34 77  2  0  0  0  0
 35 71  1  0  0  0  0
 35 78  2  0  0  0  0
 36 52  1  0  0  0  0
 36 73  1  0  0  0  0
 36 79  2  0  0  0  0
 37 62  1  0  0  0  0
 37 68  1  0  0  0  0
 37 80  2  0  0  0  0
 38 63  1  0  0  0  0
 38 74  1  0  0  0  0
 38 81  2  0  0  0  0
 39 69  1  0  0  0  0
 39 72  1  0  0  0  0
 39 82  2  0  0  0  0
 40 44  1  0  0  0  0
 41 52  1  0  0  0  0
 42 68  1  0  0  0  0
 43 67  1  0  0  0  0
 44 46  1  0  0  0  0
 45 47  1  0  0  0  0
 45 48  1  0  0  0  0
 46 51  1  0  0  0  0
 47 53  1  0  0  0  0
 48 69  1  0  0  0  0
 49 53  1  0  0  0  0
 49 69  1  0  0  0  0
 50 54  1  0  0  0  0
 50 67  1  0  0  0  0
 51 73  1  0  0  0  0
 52 68  1  0  0  0  0
 53 66  1  0  0  0  0
 54 61  1  0  0  0  0
 54 75  1  0  0  0  0
 56 63  1  0  0  0  0
 57 64  1  0  0  0  0
 58 64  1  0  0  0  0
 59 64  1  0  0  0  0
 60 76  1  0  0  0  0
 61 84  1  0  0  0  0
 62 64  1  0  0  0  0
 62 74  1  0  0  0  0
 63 76  1  0  0  0  0
 65 66  1  0  0  0  0
M  CHG  2  75   1  76   1
M  ISO  4  39 100  61 101  72 100  84 101
M  END
> <Batch ID>
0070

> <Smiles>
CNC(C)C(=O)NC(C(=O)N1Cc2cc([101O:1][101CH2:1]C3(N)CN(c4cc(C)c([100NH:0][100C:0](=O)N5CCCC(n6nc(-c7ccc(Oc8ccc(F)cc8F)cc7)c(C(N)=O)c6N)C5)cc4F)CC3=O)ccc2CC1C(=O)NC1CCCc2ccccc21)C(C)(C)C

> <Shape>
0.363

> <Color>
0.123

> <Negative vol penalty>
0.000

$$$$

  -OEChem-04042323323D

 84 92  0     1  0  0  0  0  0999 V2000
  -19.0375  -24.3640   23.2752 C   0  0  0  0  0  0  0  0  0  0  0  0
  -20.3531  -24.4757   22.8370 C   0  0  0  0  0  0  0  0  0  0  0  0
  -23.9396   -9.3300   21.7467 C   0  0  0  0  0  0  0  0  0  0  0  0
  -24.1256  -11.0322   23.4511 C   0  0  0  0  0  0  0  0  0  0  0  0
  -30.5716  -19.9528   19.4388 C   0  0  0  0  0  0  0  0  0  0  0  0
  -18.2159  -25.4901   23.3048 C   0  0  0  0  0  0  0  0  0  0  0  0
  -20.8476  -25.7133   22.4270 C   0  0  0  0  0  0  0  0  0  0  0  0
  -25.4570  -26.6775   24.2895 C   0  0  0  0  0  0  0  0  0  0  0  0
  -30.4114  -18.5698   19.3541 C   0  0  0  0  0  0  0  0  0  0  0  0
  -23.4235   -8.4417   22.6901 C   0  0  0  0  0  0  0  0  0  0  0  0
  -23.6094  -10.1439   24.3945 C   0  0  0  0  0  0  0  0  0  0  0  0
  -26.5375  -26.0493   23.6719 C   0  0  0  0  0  0  0  0  0  0  0  0
  -20.4604   -7.8730   24.2165 C   0  0  0  0  0  0  0  0  0  0  0  0
  -19.3435   -7.1199   23.8548 C   0  0  0  0  0  0  0  0  0  0  0  0
  -28.1813  -20.2420   19.2395 C   0  0  0  0  0  0  0  0  0  0  0  0
  -27.0111  -28.0761   22.4524 C   0  0  0  0  0  0  0  0  0  0  0  0
  -20.5993   -5.0867   24.2107 C   0  0  0  0  0  0  0  0  0  0  0  0
  -24.2907  -10.6253   22.1271 C   0  0  0  0  0  0  0  0  0  0  0  0
  -29.4566  -20.7889   19.3816 C   0  0  0  0  0  0  0  0  0  0  0  0
  -24.1005  -12.4363   20.3405 C   0  0  0  0  0  0  0  0  0  0  0  0
  -18.7034  -26.7440   22.9041 C   0  0  0  0  0  0  0  0  0  0  0  0
  -25.1382  -28.0086   23.9846 C   0  0  0  0  0  0  0  0  0  0  0  0
  -20.0314  -26.8570   22.4499 C   0  0  0  0  0  0  0  0  0  0  0  0
  -25.9275  -28.7197   23.0695 C   0  0  0  0  0  0  0  0  0  0  0  0
  -29.1361  -18.0229   19.2121 C   0  0  0  0  0  0  0  0  0  0  0  0
  -23.2584   -8.8487   24.0140 C   0  0  0  0  0  0  0  0  0  0  0  0
  -27.3130  -26.7476   22.7510 C   0  0  0  0  0  0  0  0  0  0  0  0
  -21.6468   -7.2330   24.5753 C   0  0  0  0  0  0  0  0  0  0  0  0
  -19.4129   -5.7267   23.8519 C   0  0  0  0  0  0  0  0  0  0  0  0
  -28.0210  -18.8590   19.1548 C   0  0  0  0  0  0  0  0  0  0  0  0
  -21.7162   -5.8399   24.5724 C   0  0  0  0  0  0  0  0  0  0  0  0
  -24.8244  -11.5432   21.1531 C   0  0  0  0  0  0  0  0  0  0  0  0
  -25.0600  -13.0779   19.5962 C   0  0  0  0  0  0  0  0  0  0  0  0
  -29.6254  -22.2539   19.4713 C   0  0  0  0  0  0  0  0  0  0  0  0
  -22.6871  -12.6653   20.2653 C   0  0  0  0  0  0  0  0  0  0  0  0
  -22.6219  -29.4783   22.7150 C   0  0  0  0  0  0  0  0  0  0  0  0
  -24.2924  -32.1536   23.4733 C   0  0  0  0  0  0  0  0  0  0  0  0
  -29.0588  -24.3208   20.7272 C   0  0  0  0  0  0  0  0  0  0  0  0
  -27.3184  -33.5952   24.1147 C   0  0  0  0  0  0  0  0  0  0  0  0
  -29.9799  -15.6496   19.1673 C   0  0  0  0  0  0  0  0  0  0  0  0
  -17.7636  -27.9236   22.9088 C   0  0  0  0  0  0  0  0  0  0  0  0
  -23.9856  -28.6802   24.6795 C   0  0  0  0  0  0  0  0  0  0  0  0
  -25.6395  -30.1568   22.7227 C   0  0  0  0  0  0  0  0  0  0  0  0
  -18.4760  -29.2703   22.8122 C   0  0  0  0  0  0  0  0  0  0  0  0
  -29.9920  -12.0920   19.0256 C   0  0  0  0  0  0  0  0  0  0  0  0
  -19.5357  -29.2362   21.7156 C   0  0  0  0  0  0  0  0  0  0  0  0
  -28.5891  -11.7055   19.4997 C   0  0  0  0  0  0  0  0  0  0  0  0
  -30.5314  -13.3056   19.7806 C   0  0  0  0  0  0  0  0  0  0  0  0
  -28.2457  -14.0926   20.2553 C   0  0  0  0  0  0  0  0  0  0  0  0
  -20.6117  -28.1870   22.0206 C   0  0  1  0  0  0  0  0  0  0  0  0
  -23.4403  -29.8791   23.9097 C   0  0  1  0  0  0  0  0  0  0  0  0
  -27.6340  -12.9151   19.4788 C   0  0  2  0  0  0  0  0  0  0  0  0
  -28.3700  -35.8063   24.6650 C   0  0  0  0  0  0  0  0  0  0  0  0
  -23.9702  -33.0272   20.5676 C   0  0  0  0  0  0  0  0  0  0  0  0
  -25.7950  -34.7001   20.9411 C   0  0  0  0  0  0  0  0  0  0  0  0
  -23.6749  -34.8575   22.2460 C   0  0  0  0  0  0  0  0  0  0  0  0
  -28.3559  -32.5902   26.6978 C   0  0  0  0  0  0  0  0  0  0  0  0
  -28.2746  -24.7267   21.9466 C   0  0  0  0  0  0  0  0  0  1  0  0
  -25.3182  -33.0088   22.7695 C   0  0  1  0  0  0  0  0  0  0  0  0
  -27.7770  -34.5229   25.2254 C   0  0  2  0  0  0  0  0  0  0  0  0
  -24.6941  -33.8707   21.6359 C   0  0  0  0  0  0  0  0  0  0  0  0
  -26.1420  -11.6087   20.9446 N   0  0  0  0  0  0  0  0  0  0  0  0
  -26.2537  -12.5505   19.9925 N   0  0  0  0  0  0  0  0  0  0  0  0
  -24.4982  -30.7676   23.4239 N   0  0  0  0  0  0  0  0  0  0  0  0
  -29.5758  -14.4133   19.7141 N   0  0  0  0  0  0  0  0  0  0  0  0
  -24.9906  -14.0361   18.6478 N   0  0  0  0  0  0  0  0  0  0  0  0
  -21.8441  -11.9199   21.1008 N   0  0  0  0  0  0  0  0  0  0  0  0
  -28.9768  -16.6175   19.1265 N   0  0  0  0  0  0  0  0  0  0  0  0
  -29.0217  -22.8989   20.4791 N   0  0  0  0  0  0  0  0  0  0  0  0
  -21.5332  -28.6838   23.0198 N   0  0  0  0  0  0  0  0  0  0  0  0
  -25.9869  -33.7831   23.8096 N   0  0  0  0  0  0  0  0  0  0  0  0
  -30.3729  -22.8500   18.5429 N   0  3  0  0  0  0  0  0  0  0  0  0
  -28.8114  -33.8545   26.0646 N   0  3  0  0  0  0  0  0  0  0  0  0
  -22.1854  -13.4945   19.4689 O   0  0  0  0  0  0  0  0  0  0  0  0
  -22.9528  -29.8627   21.5995 O   0  0  0  0  0  0  0  0  0  0  0  0
  -23.3473  -32.6957   24.0517 O   0  0  0  0  0  0  0  0  0  0  0  0
  -29.6752  -25.0865   20.0002 O   0  0  0  0  0  0  0  0  0  0  0  0
  -28.0674  -32.7875   23.5697 O   0  0  0  0  0  0  0  0  0  0  0  0
  -31.1234  -15.8274   18.7398 O   0  0  0  0  0  0  0  0  0  0  0  0
  -22.7546   -7.9822   24.9349 O   0  0  0  0  0  0  0  0  0  0  0  0
  -28.3678  -26.1366   22.1462 O   0  0  0  0  0  0  0  0  0  1  0  0
  -18.3398   -5.0036   23.5060 F   0  0  0  0  0  0  0  0  0  0  0  0
  -26.7907  -18.3443   19.0171 F   0  0  0  0  0  0  0  0  0  0  0  0
  -22.8528   -5.2194   24.9172 F   0  0  0  0  0  0  0  0  0  0  0  0
  1  2  1  0  0  0  0
  1  6  2  0  0  0  0
  2  7  2  0  0  0  0
  3 10  2  0  0  0  0
  3 18  1  0  0  0  0
  4 11  1  0  0  0  0
  4 18  2  0  0  0  0
  5  9  2  0  0  0  0
  5 19  1  0  0  0  0
  6 21  1  0  0  0  0
  7 23  1  0  0  0  0
  8 12  2  0  0  0  0
  8 22  1  0  0  0  0
  9 25  1  0  0  0  0
 10 26  1  0  0  0  0
 11 26  2  0  0  0  0
 12 27  1  0  0  0  0
 13 14  2  0  0  0  0
 13 28  1  0  0  0  0
 14 29  1  0  0  0  0
 15 19  2  0  0  0  0
 15 30  1  0  0  0  0
 16 24  1  0  0  0  0
 16 27  2  0  0  0  0
 17 29  2  0  0  0  0
 17 31  1  0  0  0  0
 18 32  1  0  0  0  0
 19 34  1  0  0  0  0
 20 32  1  0  0  0  0
 20 33  2  0  0  0  0
 20 35  1  0  0  0  0
 21 23  2  0  0  0  0
 21 41  1  0  0  0  0
 22 24  2  0  0  0  0
 22 42  1  0  0  0  0
 23 50  1  0  0  0  0
 24 43  1  0  0  0  0
 25 30  2  0  0  0  0
 25 68  1  0  0  0  0
 26 80  1  0  0  0  0
 27 81  1  0  0  0  0
 28 31  2  0  0  0  0
 28 80  1  0  0  0  0
 29 82  1  0  0  0  0
 30 83  1  0  0  0  0
 31 84  1  0  0  0  0
 32 62  2  0  0  0  0
 33 63  1  0  0  0  0
 33 66  1  0  0  0  0
 34 69  1  0  0  0  0
 34 72  2  0  0  0  0
 35 67  1  0  0  0  0
 35 74  2  0  0  0  0
 36 51  1  0  0  0  0
 36 70  1  0  0  0  0
 36 75  2  0  0  0  0
 37 59  1  0  0  0  0
 37 64  1  0  0  0  0
 37 76  2  0  0  0  0
 38 58  1  0  0  0  0
 38 69  1  0  0  0  0
 38 77  2  0  0  0  0
 39 60  1  0  0  0  0
 39 71  1  0  0  0  0
 39 78  2  0  0  0  0
 40 65  1  0  0  0  0
 40 68  1  0  0  0  0
 40 79  2  0  0  0  0
 41 44  1  0  0  0  0
 42 51  1  0  0  0  0
 43 64  1  0  0  0  0
 44 46  1  0  0  0  0
 45 47  1  0  0  0  0
 45 48  1  0  0  0  0
 46 50  1  0  0  0  0
 47 52  1  0  0  0  0
 48 65  1  0  0  0  0
 49 52  1  0  0  0  0
 49 65  1  0  0  0  0
 50 70  1  0  0  0  0
 51 64  1  0  0  0  0
 52 63  1  0  0  0  0
 53 60  1  0  0  0  0
 54 61  1  0  0  0  0
 55 61  1  0  0  0  0
 56 61  1  0  0  0  0
 57 73  1  0  0  0  0
 58 81  1  0  0  0  0
 59 61  1  0  0  0  0
 59 71  1  0  0  0  0
 60 73  1  0  0  0  0
 62 63  1  0  0  0  0
M  CHG  2  72   1  73   1
M  ISO  4  40 100  58 101  68 100  81 101
M  END
> <Batch ID>
0070

> <Smiles>
CNC(C)C(=O)NC(C(=O)N1Cc2cc([101O:1][101CH2:1]C(=O)NC(=N)c3ccc([100NH:0][100C:0](=O)N4CCCC(n5nc(-c6ccc(Oc7ccc(F)cc7F)cc6)c(C(N)=O)c5N)C4)c(F)c3)ccc2CC1C(=O)NC1CCCc2ccccc21)C(C)(C)C

> <Shape>
0.322

> <Color>
0.113

> <Negative vol penalty>
0.000

$$$$

  -OEChem-04042323323D

 84 92  0     1  0  0  0  0  0999 V2000
  -29.8325  -32.2212   17.2698 C   0  0  0  0  0  0  0  0  0  0  0  0
  -30.1709  -31.0537   17.9465 C   0  0  0  0  0  0  0  0  0  0  0  0
  -22.9993   -9.9348   19.9806 C   0  0  0  0  0  0  0  0  0  0  0  0
  -23.7501   -9.9524   22.2769 C   0  0  0  0  0  0  0  0  0  0  0  0
  -28.8839  -33.0886   17.8098 C   0  0  0  0  0  0  0  0  0  0  0  0
  -29.5615  -30.7535   19.1643 C   0  0  0  0  0  0  0  0  0  0  0  0
  -28.0971  -25.9150   19.4632 C   0  0  0  0  0  0  0  0  0  0  0  0
  -31.1780  -17.6592   20.5988 C   0  0  0  0  0  0  0  0  0  0  0  0
  -31.3646  -19.0415   20.5933 C   0  0  0  0  0  0  0  0  0  0  0  0
  -22.2387   -8.7943   20.2379 C   0  0  0  0  0  0  0  0  0  0  0  0
  -22.9895   -8.8119   22.5343 C   0  0  0  0  0  0  0  0  0  0  0  0
  -29.0833  -24.9667   19.7311 C   0  0  0  0  0  0  0  0  0  0  0  0
  -23.2371   -5.4813   22.0084 C   0  0  0  0  0  0  0  0  0  0  0  0
  -23.8357   -4.4543   22.7382 C   0  0  0  0  0  0  0  0  0  0  0  0
  -29.5422  -17.8870   22.3621 C   0  0  0  0  0  0  0  0  0  0  0  0
  -28.4087  -24.9283   22.0469 C   0  0  0  0  0  0  0  0  0  0  0  0
  -22.1301   -4.6667   24.4360 C   0  0  0  0  0  0  0  0  0  0  0  0
  -23.7551  -10.5139   21.0000 C   0  0  0  0  0  0  0  0  0  0  0  0
  -29.7288  -19.2693   22.3567 C   0  0  0  0  0  0  0  0  0  0  0  0
  -24.1319  -13.0329   20.8584 C   0  0  0  0  0  0  0  0  0  0  0  0
  -28.2555  -32.7941   19.0301 C   0  0  0  0  0  0  0  0  0  0  0  0
  -27.2650  -26.3860   20.4890 C   0  0  0  0  0  0  0  0  0  0  0  0
  -28.6045  -31.6185   19.7218 C   0  0  0  0  0  0  0  0  0  0  0  0
  -27.4110  -25.8807   21.7888 C   0  0  0  0  0  0  0  0  0  0  0  0
  -30.2667  -17.0820   21.4832 C   0  0  0  0  0  0  0  0  0  0  0  0
  -30.6401  -19.8466   21.4723 C   0  0  0  0  0  0  0  0  0  0  0  0
  -22.2338   -8.2328   21.5148 C   0  0  0  0  0  0  0  0  0  0  0  0
  -29.2411  -24.4753   21.0237 C   0  0  0  0  0  0  0  0  0  0  0  0
  -22.0851   -6.1011   22.4925 C   0  0  0  0  0  0  0  0  0  0  0  0
  -23.2822   -4.0470   23.9520 C   0  0  0  0  0  0  0  0  0  0  0  0
  -21.5315   -5.6938   23.7063 C   0  0  0  0  0  0  0  0  0  0  0  0
  -24.5414  -11.6918   20.7346 C   0  0  0  0  0  0  0  0  0  0  0  0
  -25.2356  -13.7641   20.4928 C   0  0  0  0  0  0  0  0  0  0  0  0
  -27.6194  -20.0222   23.1820 C   0  0  0  0  0  0  0  0  0  0  0  0
  -28.9529  -20.0786   23.2893 C   0  0  0  0  0  0  0  0  0  0  0  0
  -22.8669  -13.5699   21.2674 C   0  0  0  0  0  0  0  0  0  0  0  0
  -26.7326  -29.2224   21.8213 C   0  0  0  0  0  0  0  0  0  0  0  0
  -24.4030  -27.6086   23.3997 C   0  0  0  0  0  0  0  0  0  0  0  0
  -23.2149  -24.6222   24.5468 C   0  0  0  0  0  0  0  0  0  0  0  0
  -30.7149  -14.7365   20.6804 C   0  0  0  0  0  0  0  0  0  0  0  0
  -29.8161  -22.1912   21.1553 C   0  0  0  0  0  0  0  0  0  1  0  0
  -27.2707  -33.7856   19.5974 C   0  0  0  0  0  0  0  0  0  0  0  0
  -26.1884  -27.3893   20.1782 C   0  0  0  0  0  0  0  0  0  0  0  0
  -26.5300  -26.3388   22.9213 C   0  0  0  0  0  0  0  0  0  0  0  0
  -26.3973  -33.2088   20.7086 C   0  0  0  0  0  0  0  0  0  0  0  0
  -29.5769  -12.3166   18.3296 C   0  0  0  0  0  0  0  0  0  0  0  0
  -27.2487  -32.4322   21.7081 C   0  0  0  0  0  0  0  0  0  0  0  0
  -28.1317  -12.0486   18.7559 C   0  0  0  0  0  0  0  0  0  0  0  0
  -30.4903  -12.5439   19.5329 C   0  0  0  0  0  0  0  0  0  0  0  0
  -28.5880  -13.3069   20.8996 C   0  0  0  0  0  0  0  0  0  0  0  0
  -27.9473  -31.2458   21.0330 C   0  0  1  0  0  0  0  0  0  0  0  0
  -25.7359  -28.1788   21.4027 C   0  0  1  0  0  0  0  0  0  0  0  0
  -27.6176  -13.1362   19.7195 C   0  0  2  0  0  0  0  0  0  0  0  0
  -29.5925  -20.9553   24.3270 C   0  0  0  0  0  0  0  0  0  0  0  0
  -21.3056  -23.6254   25.8346 C   0  0  0  0  0  0  0  0  0  0  0  0
  -25.6129  -28.6543   25.9983 C   0  0  0  0  0  0  0  0  0  0  0  0
  -24.3024  -26.9114   27.2283 C   0  0  0  0  0  0  0  0  0  0  0  0
  -23.1131  -28.6771   25.9281 C   0  0  0  0  0  0  0  0  0  0  0  0
  -32.1974  -21.7615   21.7968 C   0  0  0  0  0  0  0  0  0  0  0  0
  -22.3882  -22.9481   22.2505 C   0  0  0  0  0  0  0  0  0  0  0  0
  -24.3272  -26.8348   24.6936 C   0  0  1  0  0  0  0  0  0  0  0  0
  -21.8408  -23.9832   24.4568 C   0  0  2  0  0  0  0  0  0  0  0  0
  -24.3570  -27.7620   25.9413 C   0  0  0  0  0  0  0  0  0  0  0  0
  -25.8065  -11.5748   20.3224 N   0  0  0  0  0  0  0  0  0  0  0  0
  -26.2014  -12.8519   20.1839 N   0  0  0  0  0  0  0  0  0  0  0  0
  -25.4960  -27.3256   22.5684 N   0  0  0  0  0  0  0  0  0  0  0  0
  -29.9420  -13.5902   20.3985 N   0  0  0  0  0  0  0  0  0  0  0  0
  -25.4645  -15.0918   20.4085 N   0  0  0  0  0  0  0  0  0  0  0  0
  -21.8413  -12.6777   21.6088 N   0  0  0  0  0  0  0  0  0  0  0  0
  -30.0770  -15.6778   21.4877 N   0  0  0  0  0  0  0  0  0  0  0  0
  -27.0170  -30.1539   20.8410 N   0  0  0  0  0  0  0  0  0  0  0  0
  -23.1360  -25.9977   24.5995 N   0  0  0  0  0  0  0  0  0  0  0  0
  -30.8556  -21.2775   21.4423 N   0  0  0  0  0  0  0  0  0  0  0  0
  -21.9006  -22.7393   23.6382 N   0  3  0  0  0  0  0  0  0  0  0  0
  -22.6473  -14.8041   21.3126 O   0  0  0  0  0  0  0  0  0  0  0  0
  -27.2072  -29.1861   22.9504 O   0  0  0  0  0  0  0  0  0  0  0  0
  -23.5210  -28.4287   23.1329 O   0  0  0  0  0  0  0  0  0  0  0  0
  -24.2541  -23.9664   24.5720 O   0  0  0  0  0  0  0  0  0  0  0  0
  -31.8480  -14.8855   20.2158 O   0  0  0  0  0  0  0  0  0  0  0  0
  -28.6618  -21.8987   20.8492 O   0  0  0  0  0  0  0  0  0  0  0  0
  -21.4916   -7.1200   21.7664 O   0  0  0  0  0  0  0  0  0  0  0  0
  -30.2034  -23.5501   21.2881 O   0  0  0  0  0  0  0  0  0  1  0  0
  -23.8562   -3.0597   24.6519 F   0  0  0  0  0  0  0  0  0  0  0  0
  -20.4242   -6.2846   24.1758 F   0  0  0  0  0  0  0  0  0  0  0  0
  1  2  1  0  0  0  0
  1  5  2  0  0  0  0
  2  6  2  0  0  0  0
  3 10  2  0  0  0  0
  3 18  1  0  0  0  0
  4 11  1  0  0  0  0
  4 18  2  0  0  0  0
  5 21  1  0  0  0  0
  6 23  1  0  0  0  0
  7 12  2  0  0  0  0
  7 22  1  0  0  0  0
  8  9  2  0  0  0  0
  8 25  1  0  0  0  0
  9 26  1  0  0  0  0
 10 27  1  0  0  0  0
 11 27  2  0  0  0  0
 12 28  1  0  0  0  0
 13 14  2  0  0  0  0
 13 29  1  0  0  0  0
 14 30  1  0  0  0  0
 15 19  1  0  0  0  0
 15 25  2  0  0  0  0
 16 24  1  0  0  0  0
 16 28  2  0  0  0  0
 17 30  2  0  0  0  0
 17 31  1  0  0  0  0
 18 32  1  0  0  0  0
 19 26  2  0  0  0  0
 19 35  1  0  0  0  0
 20 32  1  0  0  0  0
 20 33  2  0  0  0  0
 20 36  1  0  0  0  0
 21 23  2  0  0  0  0
 21 42  1  0  0  0  0
 22 24  2  0  0  0  0
 22 43  1  0  0  0  0
 23 51  1  0  0  0  0
 24 44  1  0  0  0  0
 25 70  1  0  0  0  0
 26 73  1  0  0  0  0
 27 81  1  0  0  0  0
 28 82  1  0  0  0  0
 29 31  2  0  0  0  0
 29 81  1  0  0  0  0
 30 83  1  0  0  0  0
 31 84  1  0  0  0  0
 32 64  2  0  0  0  0
 33 65  1  0  0  0  0
 33 68  1  0  0  0  0
 34 35  2  0  0  0  0
 35 54  1  0  0  0  0
 36 69  1  0  0  0  0
 36 75  2  0  0  0  0
 37 52  1  0  0  0  0
 37 71  1  0  0  0  0
 37 76  2  0  0  0  0
 38 61  1  0  0  0  0
 38 66  1  0  0  0  0
 38 77  2  0  0  0  0
 39 62  1  0  0  0  0
 39 72  1  0  0  0  0
 39 78  2  0  0  0  0
 40 67  1  0  0  0  0
 40 70  1  0  0  0  0
 40 79  2  0  0  0  0
 41 73  1  0  0  0  0
 41 80  2  0  0  0  0
 41 82  1  0  0  0  0
 42 45  1  0  0  0  0
 43 52  1  0  0  0  0
 44 66  1  0  0  0  0
 45 47  1  0  0  0  0
 46 48  1  0  0  0  0
 46 49  1  0  0  0  0
 47 51  1  0  0  0  0
 48 53  1  0  0  0  0
 49 67  1  0  0  0  0
 50 53  1  0  0  0  0
 50 67  1  0  0  0  0
 51 71  1  0  0  0  0
 52 66  1  0  0  0  0
 53 65  1  0  0  0  0
 55 62  1  0  0  0  0
 56 63  1  0  0  0  0
 57 63  1  0  0  0  0
 58 63  1  0  0  0  0
 59 73  1  0  0  0  0
 60 74  1  0  0  0  0
 61 63  1  0  0  0  0
 61 72  1  0  0  0  0
 62 74  1  0  0  0  0
 64 65  1  0  0  0  0
M  CHG  1  74   1
M  ISO  4  40 100  41 101  70 100  82 101
M  END
> <Batch ID>
0070

> <Smiles>
C=C(C)c1cc([100NH:0][100C:0](=O)N2CCCC(n3nc(-c4ccc(Oc5ccc(F)cc5F)cc4)c(C(N)=O)c3N)C2)ccc1N(C)[101C:1](=O)[101O:1]c1ccc2c(c1)CN(C(=O)C(NC(=O)C(C)NC)C(C)(C)C)C(C(=O)NC1CCCc3ccccc31)C2

> <Shape>
0.263

> <Color>
0.230

> <Negative vol penalty>
0.000

$$$$

  -OEChem-04042323323D

 84 92  0     1  0  0  0  0  0999 V2000
  -29.4069  -24.2820   17.9387 C   0  0  0  0  0  0  0  0  0  0  0  0
  -28.0396  -24.3704   18.1793 C   0  0  0  0  0  0  0  0  0  0  0  0
  -27.3372  -16.5694   19.0077 C   0  0  0  0  0  0  0  0  0  0  0  0
  -26.8107  -17.7218   21.0648 C   0  0  0  0  0  0  0  0  0  0  0  0
  -30.3089  -24.8701   18.8244 C   0  0  0  0  0  0  0  0  0  0  0  0
  -27.5734  -25.0461   19.3064 C   0  0  0  0  0  0  0  0  0  0  0  0
  -22.4407  -28.3570   19.7530 C   0  0  0  0  0  0  0  0  0  0  0  0
  -28.6476  -17.0423   19.0782 C   0  0  0  0  0  0  0  0  0  0  0  0
  -28.1210  -18.1947   21.1353 C   0  0  0  0  0  0  0  0  0  0  0  0
  -21.1746  -28.0614   20.2565 C   0  0  0  0  0  0  0  0  0  0  0  0
  -30.2969  -19.9169   18.4144 C   0  0  0  0  0  0  0  0  0  0  0  0
  -30.8639  -20.4290   17.2475 C   0  0  0  0  0  0  0  0  0  0  0  0
  -19.1629  -22.3994   22.9294 C   0  0  0  0  0  0  0  0  0  0  0  0
  -21.7865  -29.0606   22.3651 C   0  0  0  0  0  0  0  0  0  0  0  0
  -18.4062  -22.0243   20.2706 C   0  0  0  0  0  0  0  0  0  0  0  0
  -32.6027  -18.7552   17.3579 C   0  0  0  0  0  0  0  0  0  0  0  0
  -26.4187  -16.9092   20.0010 C   0  0  0  0  0  0  0  0  0  0  0  0
  -18.3672  -23.3500   22.2900 C   0  0  0  0  0  0  0  0  0  0  0  0
  -24.5625  -15.2237   20.4712 C   0  0  0  0  0  0  0  0  0  0  0  0
  -29.8532  -25.5617   19.9578 C   0  0  0  0  0  0  0  0  0  0  0  0
  -23.3944  -28.9980   20.5567 C   0  0  0  0  0  0  0  0  0  0  0  0
  -28.4701  -25.6430   20.2089 C   0  0  0  0  0  0  0  0  0  0  0  0
  -23.0631  -29.3655   21.8687 C   0  0  0  0  0  0  0  0  0  0  0  0
  -17.9889  -23.1625   20.9606 C   0  0  0  0  0  0  0  0  0  0  0  0
  -19.2019  -21.0737   20.9100 C   0  0  0  0  0  0  0  0  0  0  0  0
  -29.0395  -17.8549   20.1420 C   0  0  0  0  0  0  0  0  0  0  0  0
  -20.8483  -28.4106   21.5637 C   0  0  0  0  0  0  0  0  0  0  0  0
  -30.8827  -18.8240   19.0532 C   0  0  0  0  0  0  0  0  0  0  0  0
  -32.0168  -19.8481   16.7192 C   0  0  0  0  0  0  0  0  0  0  0  0
  -19.5803  -21.2612   22.2394 C   0  0  0  0  0  0  0  0  0  0  0  0
  -32.0356  -18.2431   18.5249 C   0  0  0  0  0  0  0  0  0  0  0  0
  -25.0648  -16.4216   19.9284 C   0  0  0  0  0  0  0  0  0  0  0  0
  -23.2318  -15.2242   20.1312 C   0  0  0  0  0  0  0  0  0  0  0  0
  -17.9398  -24.5467   23.0422 C   0  0  0  0  0  0  0  0  0  0  0  0
  -25.2384  -14.2019   21.2161 C   0  0  0  0  0  0  0  0  0  0  0  0
  -26.2725  -28.2309   21.6668 C   0  0  0  0  0  0  0  0  0  0  0  0
  -26.2509  -31.2959   22.7287 C   0  0  0  0  0  0  0  0  0  0  0  0
  -24.4282  -34.0275   23.6576 C   0  0  0  0  0  0  0  0  0  0  0  0
  -19.3387  -19.5824   18.8843 C   0  0  0  0  0  0  0  0  0  0  0  0
  -30.8679  -26.1406   20.9117 C   0  0  0  0  0  0  0  0  0  0  0  0
  -24.7467  -29.3338   19.9900 C   0  0  0  0  0  0  0  0  0  0  0  0
  -24.0443  -30.0732   22.7658 C   0  0  0  0  0  0  0  0  0  0  0  0
  -30.2785  -27.1600   21.8831 C   0  0  0  0  0  0  0  0  0  0  0  0
  -20.2238  -16.8511   16.7787 C   0  0  0  0  0  0  0  0  0  0  0  0
  -28.9828  -26.6316   22.4904 C   0  0  0  0  0  0  0  0  0  0  0  0
  -21.5167  -16.3181   17.4004 C   0  0  0  0  0  0  0  0  0  0  0  0
  -20.1383  -18.3738   16.8656 C   0  0  0  0  0  0  0  0  0  0  0  0
  -21.6211  -18.3976   18.8329 C   0  0  0  0  0  0  0  0  0  0  0  0
  -27.9247  -26.3888   21.4074 C   0  0  1  0  0  0  0  0  0  0  0  0
  -25.8130  -29.5281   21.0636 C   0  0  1  0  0  0  0  0  0  0  0  0
  -21.7224  -16.8635   18.8272 C   0  0  2  0  0  0  0  0  0  0  0  0
  -24.6896  -36.3718   24.5141 C   0  0  0  0  0  0  0  0  0  0  0  0
  -26.8998  -30.2069   25.5042 C   0  0  0  0  0  0  0  0  0  0  0  0
  -26.2165  -32.4196   26.4558 C   0  0  0  0  0  0  0  0  0  0  0  0
  -28.1461  -32.2836   24.8807 C   0  0  0  0  0  0  0  0  0  0  0  0
  -23.0909  -35.1700   21.2774 C   0  0  0  0  0  0  0  0  0  0  0  0
  -18.4069  -26.8759   23.7151 C   0  0  0  0  0  0  0  0  0  0  0  0
  -19.5164  -27.8759   23.4600 C   0  0  0  0  0  0  0  0  0  1  0  0
  -25.7978  -31.9863   23.9925 C   0  0  1  0  0  0  0  0  0  0  0  0
  -24.5469  -35.4933   23.2809 C   0  0  2  0  0  0  0  0  0  0  0  0
  -26.7470  -31.7090   25.1923 C   0  0  0  0  0  0  0  0  0  0  0  0
  -24.1294  -17.1314   19.2919 N   0  0  0  0  0  0  0  0  0  0  0  0
  -23.0260  -16.3772   19.4325 N   0  0  0  0  0  0  0  0  0  0  0  0
  -25.3556  -30.3741   22.1679 N   0  0  0  0  0  0  0  0  0  0  0  0
  -20.3385  -18.8175   18.2469 N   0  0  0  0  0  0  0  0  0  0  0  0
  -17.1834  -24.1144   20.2968 N   0  0  0  0  0  0  0  0  0  0  0  0
  -22.2293  -14.3507   20.3648 N   0  0  0  0  0  0  0  0  0  0  0  0
  -16.7923  -24.4870   23.7182 N   0  0  0  0  0  0  0  0  0  0  0  0
  -26.6064  -14.3595   21.4771 N   0  0  0  0  0  0  0  0  0  0  0  0
  -19.6255  -19.9188   20.2069 N   0  0  0  0  0  0  0  0  0  0  0  0
  -27.3263  -27.6405   20.9958 N   0  0  0  0  0  0  0  0  0  0  0  0
  -25.6555  -33.3991   23.6572 N   0  0  0  0  0  0  0  0  0  0  0  0
  -18.7217  -25.6323   23.0077 N   0  3  0  0  0  0  0  0  0  0  0  0
  -23.3392  -35.9339   22.5271 N   0  3  0  0  0  0  0  0  0  0  0  0
  -24.6504  -13.1715   21.6236 O   0  0  0  0  0  0  0  0  0  0  0  0
  -25.7133  -27.7985   22.6679 O   0  0  0  0  0  0  0  0  0  0  0  0
  -27.3555  -31.5698   22.2528 O   0  0  0  0  0  0  0  0  0  0  0  0
  -23.3546  -33.4944   23.9289 O   0  0  0  0  0  0  0  0  0  0  0  0
  -18.2922  -19.8914   18.3086 O   0  0  0  0  0  0  0  0  0  0  0  0
  -30.3181  -18.3163   20.2112 O   0  0  0  0  0  0  0  0  0  0  0  0
  -19.6135  -28.1227   22.0578 O   0  0  0  0  0  0  0  0  0  1  0  0
  -32.5604  -20.3390   15.5977 F   0  0  0  0  0  0  0  0  0  0  0  0
  -20.3464  -20.3548   22.8629 F   0  0  0  0  0  0  0  0  0  0  0  0
  -32.6023  -17.1922   19.1334 F   0  0  0  0  0  0  0  0  0  0  0  0
  1  2  1  0  0  0  0
  1  5  2  0  0  0  0
  2  6  2  0  0  0  0
  3  8  2  0  0  0  0
  3 17  1  0  0  0  0
  4  9  1  0  0  0  0
  4 17  2  0  0  0  0
  5 20  1  0  0  0  0
  6 22  1  0  0  0  0
  7 10  2  0  0  0  0
  7 21  1  0  0  0  0
  8 26  1  0  0  0  0
  9 26  2  0  0  0  0
 10 27  1  0  0  0  0
 11 12  2  0  0  0  0
 11 28  1  0  0  0  0
 12 29  1  0  0  0  0
 13 18  1  0  0  0  0
 13 30  2  0  0  0  0
 14 23  1  0  0  0  0
 14 27  2  0  0  0  0
 15 24  1  0  0  0  0
 15 25  2  0  0  0  0
 16 29  2  0  0  0  0
 16 31  1  0  0  0  0
 17 32  1  0  0  0  0
 18 24  2  0  0  0  0
 18 34  1  0  0  0  0
 19 32  1  0  0  0  0
 19 33  2  0  0  0  0
 19 35  1  0  0  0  0
 20 22  2  0  0  0  0
 20 40  1  0  0  0  0
 21 23  2  0  0  0  0
 21 41  1  0  0  0  0
 22 49  1  0  0  0  0
 23 42  1  0  0  0  0
 24 66  1  0  0  0  0
 25 30  1  0  0  0  0
 25 70  1  0  0  0  0
 26 80  1  0  0  0  0
 27 81  1  0  0  0  0
 28 31  2  0  0  0  0
 28 80  1  0  0  0  0
 29 82  1  0  0  0  0
 30 83  1  0  0  0  0
 31 84  1  0  0  0  0
 32 62  2  0  0  0  0
 33 63  1  0  0  0  0
 33 67  1  0  0  0  0
 34 68  1  0  0  0  0
 34 73  2  0  0  0  0
 35 69  1  0  0  0  0
 35 75  2  0  0  0  0
 36 50  1  0  0  0  0
 36 71  1  0  0  0  0
 36 76  2  0  0  0  0
 37 59  1  0  0  0  0
 37 64  1  0  0  0  0
 37 77  2  0  0  0  0
 38 60  1  0  0  0  0
 38 72  1  0  0  0  0
 38 78  2  0  0  0  0
 39 65  1  0  0  0  0
 39 70  1  0  0  0  0
 39 79  2  0  0  0  0
 40 43  1  0  0  0  0
 41 50  1  0  0  0  0
 42 64  1  0  0  0  0
 43 45  1  0  0  0  0
 44 46  1  0  0  0  0
 44 47  1  0  0  0  0
 45 49  1  0  0  0  0
 46 51  1  0  0  0  0
 47 65  1  0  0  0  0
 48 51  1  0  0  0  0
 48 65  1  0  0  0  0
 49 71  1  0  0  0  0
 50 64  1  0  0  0  0
 51 63  1  0  0  0  0
 52 60  1  0  0  0  0
 53 61  1  0  0  0  0
 54 61  1  0  0  0  0
 55 61  1  0  0  0  0
 56 74  1  0  0  0  0
 57 58  1  0  0  0  0
 57 73  1  0  0  0  0
 58 81  1  0  0  0  0
 59 61  1  0  0  0  0
 59 72  1  0  0  0  0
 60 74  1  0  0  0  0
 62 63  1  0  0  0  0
M  CHG  2  73   1  74   1
M  ISO  4  39 100  58 101  70 100  81 101
M  END
> <Batch ID>
0070

> <Smiles>
CNC(C)C(=O)NC(C(=O)N1Cc2cc([101O:1][101CH2:1]CNC(=N)c3cc(F)c([100NH:0][100C:0](=O)N4CCCC(n5nc(-c6ccc(Oc7ccc(F)cc7F)cc6)c(C(N)=O)c5N)C4)cc3N)ccc2CC1C(=O)NC1CCCc2ccccc21)C(C)(C)C

> <Shape>
0.250

> <Color>
0.066

> <Negative vol penalty>
0.000

$$$$

  -OEChem-04042323323D

 85 93  0     1  0  0  0  0  0999 V2000
  -28.8040  -25.3458   16.3072 C   0  0  0  0  0  0  0  0  0  0  0  0
  -27.6105  -25.3819   17.0211 C   0  0  0  0  0  0  0  0  0  0  0  0
  -24.2184  -12.1138   19.7208 C   0  0  0  0  0  0  0  0  0  0  0  0
  -25.0630  -13.3039   21.6463 C   0  0  0  0  0  0  0  0  0  0  0  0
  -29.9488  -25.9413   16.8349 C   0  0  0  0  0  0  0  0  0  0  0  0
  -27.5614  -26.0127   18.2638 C   0  0  0  0  0  0  0  0  0  0  0  0
  -23.4762  -28.9592   18.7869 C   0  0  0  0  0  0  0  0  0  0  0  0
  -25.5235  -11.7969   19.3442 C   0  0  0  0  0  0  0  0  0  0  0  0
  -26.3681  -12.9869   21.2697 C   0  0  0  0  0  0  0  0  0  0  0  0
  -22.2664  -28.3262   19.0686 C   0  0  0  0  0  0  0  0  0  0  0  0
  -29.9392  -12.7974   20.6204 C   0  0  0  0  0  0  0  0  0  0  0  0
  -30.8936  -13.8134   20.6714 C   0  0  0  0  0  0  0  0  0  0  0  0
  -22.5184  -28.8949   21.3994 C   0  0  0  0  0  0  0  0  0  0  0  0
  -21.7023  -22.6010   24.3344 C   0  0  0  0  0  0  0  0  0  0  0  0
  -20.4059  -21.4917   22.6238 C   0  0  0  0  0  0  0  0  0  0  0  0
  -29.6075  -15.1012   19.0824 C   0  0  0  0  0  0  0  0  0  0  0  0
  -23.9881  -12.8674   20.8718 C   0  0  0  0  0  0  0  0  0  0  0  0
  -21.7905  -12.4466   22.0970 C   0  0  0  0  0  0  0  0  0  0  0  0
  -29.9115  -26.5881   18.0803 C   0  0  0  0  0  0  0  0  0  0  0  0
  -24.2228  -29.5564   19.8128 C   0  0  0  0  0  0  0  0  0  0  0  0
  -28.7072  -26.6163   18.8092 C   0  0  0  0  0  0  0  0  0  0  0  0
  -23.7361  -29.5372   21.1277 C   0  0  0  0  0  0  0  0  0  0  0  0
  -22.0513  -21.3626   24.8730 C   0  0  0  0  0  0  0  0  0  0  0  0
  -20.8795  -22.6656   23.2098 C   0  0  0  0  0  0  0  0  0  0  0  0
  -20.7549  -20.2533   23.1624 C   0  0  0  0  0  0  0  0  0  0  0  0
  -21.5777  -20.1887   24.2870 C   0  0  0  0  0  0  0  0  0  0  0  0
  -26.5984  -12.2334   20.1186 C   0  0  0  0  0  0  0  0  0  0  0  0
  -21.7888  -28.2914   20.3754 C   0  0  0  0  0  0  0  0  0  0  0  0
  -28.8190  -12.9333   19.8004 C   0  0  0  0  0  0  0  0  0  0  0  0
  -30.7277  -14.9653   19.9024 C   0  0  0  0  0  0  0  0  0  0  0  0
  -28.6531  -14.0851   19.0315 C   0  0  0  0  0  0  0  0  0  0  0  0
  -22.6402  -13.1956   21.2611 C   0  0  0  0  0  0  0  0  0  0  0  0
  -20.6307  -13.1801   22.1534 C   0  0  0  0  0  0  0  0  0  0  0  0
  -20.6371  -26.3448   20.9715 C   0  0  0  0  0  0  0  0  0  1  0  0
  -22.0284  -11.1994   22.7629 C   0  0  0  0  0  0  0  0  0  0  0  0
  -19.5468  -25.6232   21.2646 C   0  0  0  0  0  0  0  0  0  0  0  0
  -19.7070  -24.1647   21.5691 C   0  0  0  0  0  0  0  0  0  0  0  0
  -27.1158  -29.0907   21.0447 C   0  0  0  0  0  0  0  0  0  0  0  0
  -26.3974  -31.7614   22.7398 C   0  0  0  0  0  0  0  0  0  0  0  0
  -23.9969  -33.8150   24.0311 C   0  0  0  0  0  0  0  0  0  0  0  0
  -19.4352  -18.9896   21.4281 C   0  0  0  0  0  0  0  0  0  0  0  0
  -31.1862  -27.1765   18.6312 C   0  0  0  0  0  0  0  0  0  0  0  0
  -25.5128  -30.2586   19.4883 C   0  0  0  0  0  0  0  0  0  0  0  0
  -24.4897  -30.1811   22.2617 C   0  0  0  0  0  0  0  0  0  0  0  0
  -30.9589  -28.1504   19.7845 C   0  0  0  0  0  0  0  0  0  0  0  0
  -18.0326  -16.2814   19.5909 C   0  0  0  0  0  0  0  0  0  0  0  0
  -29.9769  -27.5633   20.7934 C   0  0  0  0  0  0  0  0  0  0  0  0
  -18.9743  -15.1130   19.8916 C   0  0  0  0  0  0  0  0  0  0  0  0
  -18.7893  -17.6029   19.4698 C   0  0  0  0  0  0  0  0  0  0  0  0
  -20.6024  -16.7575   20.9075 C   0  0  0  0  0  0  0  0  0  0  0  0
  -28.6081  -27.3125   20.1492 C   0  0  1  0  0  0  0  0  0  0  0  0
  -26.4425  -30.3865   20.6911 C   0  0  1  0  0  0  0  0  0  0  0  0
  -19.8784  -15.4153   21.1027 C   0  0  2  0  0  0  0  0  0  0  0  0
  -22.9346  -21.3251   26.0778 C   0  0  0  0  0  0  0  0  0  0  0  0
  -18.1446  -26.1480   21.2552 C   0  0  0  0  0  0  0  0  0  0  0  0
  -23.7158  -35.8983   25.4016 C   0  0  0  0  0  0  0  0  0  0  0  0
  -27.0674  -30.1869   25.2660 C   0  0  0  0  0  0  0  0  0  0  0  0
  -25.8842  -31.9489   26.5941 C   0  0  0  0  0  0  0  0  0  0  0  0
  -27.9021  -32.5444   25.2539 C   0  0  0  0  0  0  0  0  0  0  0  0
  -22.6171  -35.2211   21.8224 C   0  0  0  0  0  0  0  0  0  0  0  0
  -25.7290  -32.0393   24.0646 C   0  0  1  0  0  0  0  0  0  0  0  0
  -23.8387  -35.3244   23.9986 C   0  0  2  0  0  0  0  0  0  0  0  0
  -26.6322  -31.6660   25.2738 C   0  0  0  0  0  0  0  0  0  0  0  0
  -22.0688  -14.3187   20.8182 N   0  0  0  0  0  0  0  0  0  0  0  0
  -20.8476  -14.2808   21.3778 N   0  0  0  0  0  0  0  0  0  0  0  0
  -25.7489  -30.8497   21.8947 N   0  0  0  0  0  0  0  0  0  0  0  0
  -19.6212  -17.8243   20.6546 N   0  0  0  0  0  0  0  0  0  0  0  0
  -21.9342  -18.9344   24.8361 N   0  0  0  0  0  0  0  0  0  0  0  0
  -19.4565  -12.9844   22.7903 N   0  0  0  0  0  0  0  0  0  0  0  0
  -23.2751  -10.5808   22.5975 N   0  0  0  0  0  0  0  0  0  0  0  0
  -20.5256  -23.9232   22.6631 N   0  0  0  0  0  0  0  0  0  0  0  0
  -20.2607  -19.0756   22.5487 N   0  0  0  0  0  0  0  0  0  0  0  0
  -27.8743  -28.5534   20.0222 N   0  0  0  0  0  0  0  0  0  0  0  0
  -25.3239  -33.4405   24.0314 N   0  0  0  0  0  0  0  0  0  0  0  0
  -22.6198  -35.7011   23.2284 N   0  3  0  0  0  0  0  0  0  0  0  0
  -21.1553  -10.6416   23.4702 O   0  0  0  0  0  0  0  0  0  0  0  0
  -19.0904  -23.3443   20.8963 O   0  0  0  0  0  0  0  0  0  0  0  0
  -26.9599  -28.6143   22.1630 O   0  0  0  0  0  0  0  0  0  0  0  0
  -27.4520  -32.3377   22.4619 O   0  0  0  0  0  0  0  0  0  0  0  0
  -23.0391  -33.0453   24.0575 O   0  0  0  0  0  0  0  0  0  0  0  0
  -18.5859  -19.8348   21.1344 O   0  0  0  0  0  0  0  0  0  0  0  0
  -27.8720  -11.9241   19.7515 O   0  0  0  0  0  0  0  0  0  0  0  0
  -20.6085  -27.6736   20.6533 O   0  0  0  0  0  0  0  0  0  1  0  0
  -31.6435  -15.9415   19.9526 F   0  0  0  0  0  0  0  0  0  0  0  0
  -27.5784  -14.2219   18.2427 F   0  0  0  0  0  0  0  0  0  0  0  0
  1  2  1  0  0  0  0
  1  5  2  0  0  0  0
  2  6  2  0  0  0  0
  3  8  2  0  0  0  0
  3 17  1  0  0  0  0
  4  9  1  0  0  0  0
  4 17  2  0  0  0  0
  5 19  1  0  0  0  0
  6 21  1  0  0  0  0
  7 10  2  0  0  0  0
  7 20  1  0  0  0  0
  8 27  1  0  0  0  0
  9 27  2  0  0  0  0
 10 28  1  0  0  0  0
 11 12  2  0  0  0  0
 11 29  1  0  0  0  0
 12 30  1  0  0  0  0
 13 22  1  0  0  0  0
 13 28  2  0  0  0  0
 14 23  2  0  0  0  0
 14 24  1  0  0  0  0
 15 24  2  0  0  0  0
 15 25  1  0  0  0  0
 16 30  2  0  0  0  0
 16 31  1  0  0  0  0
 17 32  1  0  0  0  0
 18 32  1  0  0  0  0
 18 33  2  0  0  0  0
 18 35  1  0  0  0  0
 19 21  2  0  0  0  0
 19 42  1  0  0  0  0
 20 22  2  0  0  0  0
 20 43  1  0  0  0  0
 21 51  1  0  0  0  0
 22 44  1  0  0  0  0
 23 26  1  0  0  0  0
 23 54  1  0  0  0  0
 24 71  1  0  0  0  0
 25 26  2  0  0  0  0
 25 72  1  0  0  0  0
 26 68  1  0  0  0  0
 27 82  1  0  0  0  0
 28 83  1  0  0  0  0
 29 31  2  0  0  0  0
 29 82  1  0  0  0  0
 30 84  1  0  0  0  0
 31 85  1  0  0  0  0
 32 64  2  0  0  0  0
 33 65  1  0  0  0  0
 33 69  1  0  0  0  0
 34 36  2  0  0  0  0
 34 83  1  0  0  0  0
 35 70  1  0  0  0  0
 35 76  2  0  0  0  0
 36 37  1  0  0  0  0
 36 55  1  0  0  0  0
 37 71  1  0  0  0  0
 37 77  2  0  0  0  0
 38 52  1  0  0  0  0
 38 73  1  0  0  0  0
 38 78  2  0  0  0  0
 39 61  1  0  0  0  0
 39 66  1  0  0  0  0
 39 79  2  0  0  0  0
 40 62  1  0  0  0  0
 40 74  1  0  0  0  0
 40 80  2  0  0  0  0
 41 67  1  0  0  0  0
 41 72  1  0  0  0  0
 41 81  2  0  0  0  0
 42 45  1  0  0  0  0
 43 52  1  0  0  0  0
 44 66  1  0  0  0  0
 45 47  1  0  0  0  0
 46 48  1  0  0  0  0
 46 49  1  0  0  0  0
 47 51  1  0  0  0  0
 48 53  1  0  0  0  0
 49 67  1  0  0  0  0
 50 53  1  0  0  0  0
 50 67  1  0  0  0  0
 51 73  1  0  0  0  0
 52 66  1  0  0  0  0
 53 65  1  0  0  0  0
 56 62  1  0  0  0  0
 57 63  1  0  0  0  0
 58 63  1  0  0  0  0
 59 63  1  0  0  0  0
 60 75  1  0  0  0  0
 61 63  1  0  0  0  0
 61 74  1  0  0  0  0
 62 75  1  0  0  0  0
 64 65  1  0  0  0  0
M  CHG  1  75   1
M  ISO  4  34 101  41 100  72 100  83 101
M  END
> <Batch ID>
0070

> <Smiles>
CNC(C)C(=O)NC(C(=O)N1Cc2cc([101O:1][101CH:1]=C(C)C(=O)Nc3cc(C)c(N)c([100NH:0][100C:0](=O)N4CCCC(n5nc(-c6ccc(Oc7ccc(F)cc7F)cc6)c(C(N)=O)c5N)C4)c3)ccc2CC1C(=O)NC1CCCc2ccccc21)C(C)(C)C

> <Shape>
0.281

> <Color>
0.088

> <Negative vol penalty>
0.000

$$$$

  -OEChem-04042323323D

 86 95  0     1  0  0  0  0  0999 V2000
  -23.2935   -7.8966   24.3476 C   0  0  0  0  0  0  0  0  0  0  0  0
  -24.3986   -8.7028   24.6010 C   0  0  0  0  0  0  0  0  0  0  0  0
  -24.8155  -31.7576   23.8480 C   0  0  0  0  0  0  0  0  0  0  0  0
  -26.8668  -31.9497   22.5860 C   0  0  0  0  0  0  0  0  0  0  0  0
  -22.6621   -7.9516   23.1058 C   0  0  0  0  0  0  0  0  0  0  0  0
  -24.8736   -9.5637   23.6122 C   0  0  0  0  0  0  0  0  0  0  0  0
  -28.0130  -15.9525   22.8096 C   0  0  0  0  0  0  0  0  0  0  0  0
  -25.3085  -32.6634   24.7871 C   0  0  0  0  0  0  0  0  0  0  0  0
  -27.3597  -32.8556   23.5251 C   0  0  0  0  0  0  0  0  0  0  0  0
  -29.1134  -16.5414   22.1882 C   0  0  0  0  0  0  0  0  0  0  0  0
  -29.0155  -35.4943   25.3995 C   0  0  0  0  0  0  0  0  0  0  0  0
  -29.6443  -36.6450   24.9239 C   0  0  0  0  0  0  0  0  0  0  0  0
  -27.8943  -16.6096   20.1077 C   0  0  0  0  0  0  0  0  0  0  0  0
  -29.7103  -23.3657   19.7546 C   0  0  0  0  0  0  0  0  0  0  0  0
  -30.1670  -25.5437   18.8140 C   0  0  0  0  0  0  0  0  0  0  0  0
  -27.6117  -37.2852   23.7856 C   0  0  0  0  0  0  0  0  0  0  0  0
  -25.5947  -31.4006   22.7474 C   0  0  0  0  0  0  0  0  0  0  0  0
  -24.3453  -30.7604   20.6175 C   0  0  0  0  0  0  0  0  0  0  0  0
  -23.1237   -8.8206   22.1046 C   0  0  0  0  0  0  0  0  0  0  0  0
  -26.8469  -15.6773   22.0809 C   0  0  0  0  0  0  0  0  0  0  0  0
  -24.2486   -9.6293   22.3554 C   0  0  0  0  0  0  0  0  0  0  0  0
  -26.7796  -16.0195   20.7228 C   0  0  0  0  0  0  0  0  0  0  0  0
  -31.0220  -22.9746   19.4859 C   0  0  0  0  0  0  0  0  0  0  0  0
  -29.2828  -24.6502   19.4186 C   0  0  0  0  0  0  0  0  0  0  0  0
  -26.5805  -33.2125   24.6257 C   0  0  0  0  0  0  0  0  0  0  0  0
  -29.0552  -16.8674   20.8364 C   0  0  0  0  0  0  0  0  0  0  0  0
  -27.6848  -35.2390   25.0681 C   0  0  0  0  0  0  0  0  0  0  0  0
  -28.9424  -37.5404   24.1169 C   0  0  0  0  0  0  0  0  0  0  0  0
  -31.4787  -25.1526   18.5454 C   0  0  0  0  0  0  0  0  0  0  0  0
  -26.9829  -36.1345   24.2612 C   0  0  0  0  0  0  0  0  0  0  0  0
  -31.9062  -23.8681   18.8814 C   0  0  0  0  0  0  0  0  0  0  0  0
  -25.0863  -30.4645   21.7772 C   0  0  0  0  0  0  0  0  0  0  0  0
  -24.1063  -29.5368   20.0411 C   0  0  0  0  0  0  0  0  0  0  0  0
  -30.6629  -20.4956   19.8790 C   0  0  0  0  0  0  0  0  0  0  0  0
  -23.9118  -32.0281   20.1067 C   0  0  0  0  0  0  0  0  0  0  0  0
  -25.2392  -13.0391   21.3332 C   0  0  0  0  0  0  0  0  0  0  0  0
  -23.1047  -15.1540   20.1113 C   0  0  0  0  0  0  0  0  0  0  0  0
  -22.5114  -18.2666   18.8437 C   0  0  0  0  0  0  0  0  0  0  0  0
  -26.9458  -24.2849   20.2855 C   0  0  0  0  0  0  0  0  0  0  0  0
  -22.4373   -8.8106   20.7617 C   0  0  0  0  0  0  0  0  0  0  0  0
  -25.6591  -15.0661   22.7722 C   0  0  0  0  0  0  0  0  0  0  0  0
  -25.5439  -15.7634   19.9007 C   0  0  0  0  0  0  0  0  0  0  0  0
  -22.7741  -10.0224   19.8965 C   0  0  0  0  0  0  0  0  0  0  0  0
  -23.5526  -24.9138   21.1616 C   0  0  0  0  0  0  0  0  0  0  0  0
  -24.2774  -10.2809   19.9017 C   0  0  0  0  0  0  0  0  0  0  0  0
  -23.4919  -26.4360   21.3074 C   0  0  0  0  0  0  0  0  0  0  0  0
  -32.7957  -20.0104   20.8174 C   0  0  0  0  0  0  0  0  0  0  0  0
  -24.8796  -24.3483   21.6645 C   0  0  0  0  0  0  0  0  0  0  0  0
  -32.8448  -21.3612   20.1319 C   0  0  0  0  0  0  0  0  0  0  0  0
  -26.0174  -26.4898   21.2301 C   0  0  0  0  0  0  0  0  0  0  0  0
  -24.7784  -10.5941   21.3168 C   0  0  1  0  0  0  0  0  0  0  0  0
  -31.6002  -19.3329   20.1633 C   0  0  1  0  0  0  0  0  0  0  0  0
  -24.7069  -14.3601   21.8119 C   0  0  1  0  0  0  0  0  0  0  0  0
  -24.7251  -27.1121   20.6767 C   0  0  2  0  0  0  0  0  0  0  0  0
  -20.6754  -19.6903   17.8954 C   0  0  0  0  0  0  0  0  0  0  0  0
  -23.2653  -13.6080   17.4856 C   0  0  0  0  0  0  0  0  0  0  0  0
  -22.2010  -15.5675   16.3474 C   0  0  0  0  0  0  0  0  0  0  0  0
  -20.9608  -14.3368   18.1278 C   0  0  0  0  0  0  0  0  0  0  0  0
  -22.7969  -20.2743   20.9993 C   0  0  0  0  0  0  0  0  0  0  0  0
  -30.9711  -18.2623   21.0348 C   0  0  0  0  0  0  0  0  0  1  0  0
  -22.9060  -15.8185   18.7704 C   0  0  1  0  0  0  0  0  0  0  0  0
  -21.4342  -19.2910   19.1514 C   0  0  2  0  0  0  0  0  0  0  0  0
  -22.3574  -14.8359   17.6975 C   0  0  0  0  0  0  0  0  0  0  0  0
  -25.3036  -29.1555   21.9303 N   0  0  0  0  0  0  0  0  0  0  0  0
  -24.6954  -28.6181   20.8591 N   0  0  0  0  0  0  0  0  0  0  0  0
  -31.4571  -21.6599   19.8310 N   0  0  0  0  0  0  0  0  0  0  0  0
  -24.4110  -15.1583   20.6205 N   0  0  0  0  0  0  0  0  0  0  0  0
  -26.0024  -25.0335   21.0206 N   0  0  0  0  0  0  0  0  0  0  0  0
  -23.4517  -29.1679   18.9196 N   0  0  0  0  0  0  0  0  0  0  0  0
  -24.2434  -33.1860   20.8234 N   0  0  0  0  0  0  0  0  0  0  0  0
  -27.9504  -25.0479   19.6910 N   0  0  0  0  0  0  0  0  0  0  0  0
  -24.4523  -11.9569   21.6783 N   0  0  0  0  0  0  0  0  0  0  0  0
  -22.0528  -16.9771   19.0114 N   0  0  0  0  0  0  0  0  0  0  0  0
  -22.0394  -20.5169   19.7446 N   0  3  0  0  0  0  0  0  0  0  0  0
  -29.4653  -20.3561   19.6776 O   0  0  0  0  0  0  0  0  0  0  0  0
  -23.2359  -32.1296   19.0548 O   0  0  0  0  0  0  0  0  0  0  0  0
  -26.2857  -13.0044   20.6965 O   0  0  0  0  0  0  0  0  0  0  0  0
  -22.1352  -14.6560   20.6890 O   0  0  0  0  0  0  0  0  0  0  0  0
  -23.6452  -18.5790   18.4866 O   0  0  0  0  0  0  0  0  0  0  0  0
  -26.8529  -23.0604   20.1677 O   0  0  0  0  0  0  0  0  0  0  0  0
  -27.0618  -34.0966   25.5418 O   0  0  0  0  0  0  0  0  0  0  0  0
  -30.1281  -17.4417   20.2273 O   0  0  0  0  0  0  0  0  0  1  0  0
  -29.5459  -38.6461   23.6615 F   0  0  0  0  0  0  0  0  0  0  0  0
  -32.3277  -26.0104   17.9646 F   0  0  0  0  0  0  0  0  0  0  0  0
  -25.7040  -35.8952   23.9405 F   0  0  0  0  0  0  0  0  0  0  0  0
  -33.1688  -23.5029   18.6178 F   0  0  0  0  0  0  0  0  0  0  0  0
  1  2  1  0  0  0  0
  1  5  2  0  0  0  0
  2  6  2  0  0  0  0
  3  8  2  0  0  0  0
  3 17  1  0  0  0  0
  4  9  1  0  0  0  0
  4 17  2  0  0  0  0
  5 19  1  0  0  0  0
  6 21  1  0  0  0  0
  7 10  2  0  0  0  0
  7 20  1  0  0  0  0
  8 25  1  0  0  0  0
  9 25  2  0  0  0  0
 10 26  1  0  0  0  0
 11 12  2  0  0  0  0
 11 27  1  0  0  0  0
 12 28  1  0  0  0  0
 13 22  1  0  0  0  0
 13 26  2  0  0  0  0
 14 23  1  0  0  0  0
 14 24  2  0  0  0  0
 15 24  1  0  0  0  0
 15 29  2  0  0  0  0
 16 28  2  0  0  0  0
 16 30  1  0  0  0  0
 17 32  1  0  0  0  0
 18 32  1  0  0  0  0
 18 33  2  0  0  0  0
 18 35  1  0  0  0  0
 19 21  2  0  0  0  0
 19 40  1  0  0  0  0
 20 22  2  0  0  0  0
 20 41  1  0  0  0  0
 21 51  1  0  0  0  0
 22 42  1  0  0  0  0
 23 31  2  0  0  0  0
 23 66  1  0  0  0  0
 24 71  1  0  0  0  0
 25 81  1  0  0  0  0
 26 82  1  0  0  0  0
 27 30  2  0  0  0  0
 27 81  1  0  0  0  0
 28 83  1  0  0  0  0
 29 31  1  0  0  0  0
 29 84  1  0  0  0  0
 30 85  1  0  0  0  0
 31 86  1  0  0  0  0
 32 64  2  0  0  0  0
 33 65  1  0  0  0  0
 33 69  1  0  0  0  0
 34 52  1  0  0  0  0
 34 66  1  0  0  0  0
 34 75  2  0  0  0  0
 35 70  1  0  0  0  0
 35 76  2  0  0  0  0
 36 53  1  0  0  0  0
 36 72  1  0  0  0  0
 36 77  2  0  0  0  0
 37 61  1  0  0  0  0
 37 67  1  0  0  0  0
 37 78  2  0  0  0  0
 38 62  1  0  0  0  0
 38 73  1  0  0  0  0
 38 79  2  0  0  0  0
 39 68  1  0  0  0  0
 39 71  1  0  0  0  0
 39 80  2  0  0  0  0
 40 43  1  0  0  0  0
 41 53  1  0  0  0  0
 42 67  1  0  0  0  0
 43 45  1  0  0  0  0
 44 46  1  0  0  0  0
 44 48  1  0  0  0  0
 45 51  1  0  0  0  0
 46 54  1  0  0  0  0
 47 49  1  0  0  0  0
 47 52  1  0  0  0  0
 48 68  1  0  0  0  0
 49 66  1  0  0  0  0
 50 54  1  0  0  0  0
 50 68  1  0  0  0  0
 51 72  1  0  0  0  0
 52 60  1  0  0  0  0
 53 67  1  0  0  0  0
 54 65  1  0  0  0  0
 55 62  1  0  0  0  0
 56 63  1  0  0  0  0
 57 63  1  0  0  0  0
 58 63  1  0  0  0  0
 59 74  1  0  0  0  0
 60 82  1  0  0  0  0
 61 63  1  0  0  0  0
 61 73  1  0  0  0  0
 62 74  1  0  0  0  0
 64 65  1  0  0  0  0
M  CHG  1  74   1
M  ISO  4  39 100  60 101  71 100  82 101
M  END
> <Batch ID>
0070

> <Smiles>
CNC(C)C(=O)NC(C(=O)N1Cc2cc([101O:1][101CH2:1]C3CCN(c4cc([100NH:0][100C:0](=O)N5CCCC(n6nc(-c7ccc(Oc8ccc(F)cc8F)cc7)c(C(N)=O)c6N)C5)cc(F)c4F)C3=O)ccc2CC1C(=O)NC1CCCc2ccccc21)C(C)(C)C

> <Shape>
0.253

> <Color>
0.084

> <Negative vol penalty>
0.000

$$$$

  -OEChem-04042323323D

 85 93  0     1  0  0  0  0  0999 V2000
  -27.1514  -20.9578   15.5196 C   0  0  0  0  0  0  0  0  0  0  0  0
  -28.2809  -20.6945   16.2879 C   0  0  0  0  0  0  0  0  0  0  0  0
  -23.3348   -9.7554   20.0868 C   0  0  0  0  0  0  0  0  0  0  0  0
  -23.8144  -10.0903   22.4309 C   0  0  0  0  0  0  0  0  0  0  0  0
  -26.6573  -22.2586   15.4315 C   0  0  0  0  0  0  0  0  0  0  0  0
  -28.9178  -21.7322   16.9676 C   0  0  0  0  0  0  0  0  0  0  0  0
  -30.1341  -20.4821   21.7219 C   0  0  0  0  0  0  0  0  0  0  0  0
  -32.0954  -15.8964   25.5091 C   0  0  0  0  0  0  0  0  0  0  0  0
  -22.6540   -8.5775   20.3944 C   0  0  0  0  0  0  0  0  0  0  0  0
  -23.1336   -8.9124   22.7385 C   0  0  0  0  0  0  0  0  0  0  0  0
  -31.2618  -19.6822   21.9012 C   0  0  0  0  0  0  0  0  0  0  0  0
  -23.7339   -5.5869   22.6299 C   0  0  0  0  0  0  0  0  0  0  0  0
  -31.1096  -14.9574   25.8127 C   0  0  0  0  0  0  0  0  0  0  0  0
  -24.3341   -4.7081   23.5316 C   0  0  0  0  0  0  0  0  0  0  0  0
  -32.5501  -21.6383   22.4784 C   0  0  0  0  0  0  0  0  0  0  0  0
  -32.1222  -15.1277   23.2188 C   0  0  0  0  0  0  0  0  0  0  0  0
  -22.4340   -4.9251   25.0079 C   0  0  0  0  0  0  0  0  0  0  0  0
  -23.9151  -10.5118   21.1051 C   0  0  0  0  0  0  0  0  0  0  0  0
  -24.0807  -13.0270   20.7128 C   0  0  0  0  0  0  0  0  0  0  0  0
  -27.2828  -23.3111   16.1182 C   0  0  0  0  0  0  0  0  0  0  0  0
  -30.2087  -21.8699   21.9091 C   0  0  0  0  0  0  0  0  0  0  0  0
  -28.4324  -23.0486   16.8875 C   0  0  0  0  0  0  0  0  0  0  0  0
  -31.4213  -22.4533   22.3033 C   0  0  0  0  0  0  0  0  0  0  0  0
  -32.6017  -15.9815   24.2121 C   0  0  0  0  0  0  0  0  0  0  0  0
  -31.1364  -14.1887   23.5224 C   0  0  0  0  0  0  0  0  0  0  0  0
  -22.5534   -8.1560   21.7202 C   0  0  0  0  0  0  0  0  0  0  0  0
  -32.4708  -20.2606   22.2767 C   0  0  0  0  0  0  0  0  0  0  0  0
  -22.4838   -6.1350   22.9173 C   0  0  0  0  0  0  0  0  0  0  0  0
  -23.6841   -4.3771   24.7206 C   0  0  0  0  0  0  0  0  0  0  0  0
  -30.6301  -14.1036   24.8194 C   0  0  0  0  0  0  0  0  0  0  0  0
  -21.8338   -5.8040   24.1063 C   0  0  0  0  0  0  0  0  0  0  0  0
  -24.6189  -11.7284   20.7880 C   0  0  0  0  0  0  0  0  0  0  0  0
  -25.1497  -13.8231   20.3812 C   0  0  0  0  0  0  0  0  0  0  0  0
  -22.7348  -13.4738   20.9239 C   0  0  0  0  0  0  0  0  0  0  0  0
  -29.7725  -24.4109   20.0499 C   0  0  0  0  0  0  0  0  0  0  0  0
  -30.1732  -26.0297   22.8323 C   0  0  0  0  0  0  0  0  0  0  0  0
  -34.1901  -17.8566   24.7642 C   0  0  0  0  0  0  0  0  0  0  0  0
  -31.4512  -26.0809   25.9962 C   0  0  0  0  0  0  0  0  0  0  0  0
  -31.0469  -13.2779   21.1753 C   0  0  0  0  0  0  0  0  0  0  0  0
  -26.7400  -24.7087   15.9545 C   0  0  0  0  0  0  0  0  0  0  0  0
  -28.9767  -22.7155   21.7377 C   0  0  0  0  0  0  0  0  0  0  0  0
  -31.5492  -23.9358   22.5367 C   0  0  0  0  0  0  0  0  0  0  0  0
  -27.2528  -25.6885   17.0068 C   0  0  0  0  0  0  0  0  0  0  0  0
  -29.3449  -13.6901   18.0753 C   0  0  0  0  0  0  0  0  0  0  0  0
  -28.7625  -25.5494   17.1749 C   0  0  0  0  0  0  0  0  0  0  0  0
  -27.8898  -13.3579   18.4136 C   0  0  0  0  0  0  0  0  0  0  0  0
  -30.3227  -12.8047   18.8458 C   0  0  0  0  0  0  0  0  0  0  0  0
  -28.6712  -12.4508   20.6393 C   0  0  0  0  0  0  0  0  0  0  0  0
  -29.1365  -24.1434   17.6594 C   0  0  1  0  0  0  0  0  0  0  0  0
  -29.2925  -24.1811   21.4551 C   0  0  1  0  0  0  0  0  0  0  0  0
  -27.6505  -13.3605   19.9362 C   0  0  2  0  0  0  0  0  0  0  0  0
  -37.0812  -18.0303   25.6580 C   0  0  0  0  0  0  0  0  0  0  0  0
  -31.6507  -27.5559   28.0166 C   0  0  0  0  0  0  0  0  0  0  0  0
  -32.3435  -27.6526   21.4302 C   0  0  0  0  0  0  0  0  0  0  0  0
  -33.1344  -28.4097   23.6817 C   0  0  0  0  0  0  0  0  0  0  0  0
  -30.8339  -28.9887   22.9101 C   0  0  0  0  0  0  0  0  0  0  0  0
  -29.9610  -24.1629   27.6872 C   0  0  0  0  0  0  0  0  0  0  0  0
  -36.3392  -19.1891   25.0034 C   0  0  0  0  0  0  0  0  0  0  0  0
  -34.5354  -19.9247   23.4082 C   0  0  0  0  0  0  0  0  0  1  0  0
  -31.3556  -26.6055   23.5734 C   0  0  1  0  0  0  0  0  0  0  0  0
  -35.2388  -18.7151   24.0385 C   0  0  2  0  0  0  0  0  0  0  0  0
  -30.8337  -26.4751   27.3258 C   0  0  2  0  0  0  0  0  0  0  0  0
  -31.9152  -27.8864   22.8927 C   0  0  0  0  0  0  0  0  0  0  0  0
  -25.9281  -11.6968   20.5251 N   0  0  0  0  0  0  0  0  0  0  0  0
  -26.2215  -12.9855   20.2814 N   0  0  0  0  0  0  0  0  0  0  0  0
  -30.3179  -24.7211   22.3502 N   0  0  0  0  0  0  0  0  0  0  0  0
  -30.0382  -12.8605   20.2814 N   0  0  0  0  0  0  0  0  0  0  0  0
  -25.2681  -15.1509   20.1680 N   0  0  0  0  0  0  0  0  0  0  0  0
  -21.7601  -12.5237   21.2583 N   0  0  0  0  0  0  0  0  0  0  0  0
  -33.6018  -16.9341   23.9043 N   0  0  0  0  0  0  0  0  0  0  0  0
  -30.6507  -13.3226   22.5116 N   0  0  0  0  0  0  0  0  0  0  0  0
  -28.8764  -24.0114   19.0769 N   0  0  0  0  0  0  0  0  0  0  0  0
  -30.9170  -26.8037   24.9506 N   0  0  0  0  0  0  0  0  0  0  0  0
  -30.7557  -25.2940   28.2312 N   0  3  0  0  0  0  0  0  0  0  0  0
  -22.4029  -14.6774   20.8030 O   0  0  0  0  0  0  0  0  0  0  0  0
  -30.8737  -24.9148   19.8624 O   0  0  0  0  0  0  0  0  0  0  0  0
  -29.1559  -26.7133   22.6925 O   0  0  0  0  0  0  0  0  0  0  0  0
  -33.9268  -18.0313   25.9508 O   0  0  0  0  0  0  0  0  0  0  0  0
  -32.3231  -25.2205   25.8958 O   0  0  0  0  0  0  0  0  0  0  0  0
  -32.1707  -13.6000   20.7811 O   0  0  0  0  0  0  0  0  0  0  0  0
  -21.8889   -7.0067   22.0207 O   0  0  0  0  0  0  0  0  0  0  0  0
  -33.5732  -19.4822   22.4518 O   0  0  0  0  0  0  0  0  0  1  0  0
  -24.2599   -3.5319   25.5856 F   0  0  0  0  0  0  0  0  0  0  0  0
  -29.6829  -13.2050   25.1230 F   0  0  0  0  0  0  0  0  0  0  0  0
  -20.6322   -6.3264   24.3873 F   0  0  0  0  0  0  0  0  0  0  0  0
  1  2  1  0  0  0  0
  1  5  2  0  0  0  0
  2  6  2  0  0  0  0
  3  9  2  0  0  0  0
  3 18  1  0  0  0  0
  4 10  1  0  0  0  0
  4 18  2  0  0  0  0
  5 20  1  0  0  0  0
  6 22  1  0  0  0  0
  7 11  2  0  0  0  0
  7 21  1  0  0  0  0
  8 13  2  0  0  0  0
  8 24  1  0  0  0  0
  9 26  1  0  0  0  0
 10 26  2  0  0  0  0
 11 27  1  0  0  0  0
 12 14  2  0  0  0  0
 12 28  1  0  0  0  0
 13 30  1  0  0  0  0
 14 29  1  0  0  0  0
 15 23  1  0  0  0  0
 15 27  2  0  0  0  0
 16 24  2  0  0  0  0
 16 25  1  0  0  0  0
 17 29  2  0  0  0  0
 17 31  1  0  0  0  0
 18 32  1  0  0  0  0
 19 32  1  0  0  0  0
 19 33  2  0  0  0  0
 19 34  1  0  0  0  0
 20 22  2  0  0  0  0
 20 40  1  0  0  0  0
 21 23  2  0  0  0  0
 21 41  1  0  0  0  0
 22 49  1  0  0  0  0
 23 42  1  0  0  0  0
 24 70  1  0  0  0  0
 25 30  2  0  0  0  0
 25 71  1  0  0  0  0
 26 81  1  0  0  0  0
 27 82  1  0  0  0  0
 28 31  2  0  0  0  0
 28 81  1  0  0  0  0
 29 83  1  0  0  0  0
 30 84  1  0  0  0  0
 31 85  1  0  0  0  0
 32 64  2  0  0  0  0
 33 65  1  0  0  0  0
 33 68  1  0  0  0  0
 34 69  1  0  0  0  0
 34 75  2  0  0  0  0
 35 50  1  0  0  0  0
 35 72  1  0  0  0  0
 35 76  2  0  0  0  0
 36 60  1  0  0  0  0
 36 66  1  0  0  0  0
 36 77  2  0  0  0  0
 37 61  1  0  0  0  0
 37 70  1  0  0  0  0
 37 78  2  0  0  0  0
 38 62  1  0  0  0  0
 38 73  1  0  0  0  0
 38 79  2  0  0  0  0
 39 67  1  0  0  0  0
 39 71  1  0  0  0  0
 39 80  2  0  0  0  0
 40 43  1  0  0  0  0
 41 50  1  0  0  0  0
 42 66  1  0  0  0  0
 43 45  1  0  0  0  0
 44 46  1  0  0  0  0
 44 47  1  0  0  0  0
 45 49  1  0  0  0  0
 46 51  1  0  0  0  0
 47 67  1  0  0  0  0
 48 51  1  0  0  0  0
 48 67  1  0  0  0  0
 49 72  1  0  0  0  0
 50 66  1  0  0  0  0
 51 65  1  0  0  0  0
 52 58  1  0  0  0  0
 53 62  1  0  0  0  0
 54 63  1  0  0  0  0
 55 63  1  0  0  0  0
 56 63  1  0  0  0  0
 57 74  1  0  0  0  0
 58 61  1  0  0  0  0
 59 61  1  0  0  0  0
 59 82  1  0  0  0  0
 60 63  1  0  0  0  0
 60 73  1  0  0  0  0
 62 74  1  0  0  0  0
 64 65  1  0  0  0  0
M  CHG  1  74   1
M  ISO  4  39 100  59 101  71 100  82 101
M  END
> <Batch ID>
0070

> <Smiles>
CCC(C(=O)Nc1ccc(F)c([100NH:0][100C:0](=O)N2CCCC(n3nc(-c4ccc(Oc5ccc(F)cc5F)cc4)c(C(N)=O)c3N)C2)c1)[101CH2:1][101O:1]c1ccc2c(c1)CN(C(=O)C(NC(=O)C(C)NC)C(C)(C)C)C(C(=O)NC1CCCc3ccccc31)C2

> <Shape>
0.187

> <Color>
0.181

> <Negative vol penalty>
0.000

$$$$

  -OEChem-04042323323D

 84 92  0     1  0  0  0  0  0999 V2000
  -16.9958  -26.6595   25.4944 C   0  0  0  0  0  0  0  0  0  0  0  0
  -18.2645  -26.1443   25.2490 C   0  0  0  0  0  0  0  0  0  0  0  0
  -23.7021   -8.9657   19.6667 C   0  0  0  0  0  0  0  0  0  0  0  0
  -23.2905  -10.0880   21.7662 C   0  0  0  0  0  0  0  0  0  0  0  0
  -27.7870  -20.2805   20.6220 C   0  0  0  0  0  0  0  0  0  0  0  0
  -16.6498  -27.9190   25.0069 C   0  0  0  0  0  0  0  0  0  0  0  0
  -19.1877  -26.8880   24.5148 C   0  0  0  0  0  0  0  0  0  0  0  0
  -25.2567  -27.0511   25.3194 C   0  0  0  0  0  0  0  0  0  0  0  0
  -27.6607  -18.8921   20.6637 C   0  0  0  0  0  0  0  0  0  0  0  0
  -23.0230   -7.8409   20.1348 C   0  0  0  0  0  0  0  0  0  0  0  0
  -22.6114   -8.9632   22.2343 C   0  0  0  0  0  0  0  0  0  0  0  0
  -26.3063  -26.3990   24.6738 C   0  0  0  0  0  0  0  0  0  0  0  0
  -19.8131   -6.8606   20.5451 C   0  0  0  0  0  0  0  0  0  0  0  0
  -18.8966   -6.2529   19.6870 C   0  0  0  0  0  0  0  0  0  0  0  0
  -26.6250  -28.3261   23.2582 C   0  0  0  0  0  0  0  0  0  0  0  0
  -30.0666  -18.6743   20.7001 C   0  0  0  0  0  0  0  0  0  0  0  0
  -20.1659   -4.1996   19.7853 C   0  0  0  0  0  0  0  0  0  0  0  0
  -23.8359  -10.0893   20.4824 C   0  0  0  0  0  0  0  0  0  0  0  0
  -29.0531  -20.8660   20.6193 C   0  0  0  0  0  0  0  0  0  0  0  0
  -23.9908  -12.3478   19.3064 C   0  0  0  0  0  0  0  0  0  0  0  0
  -17.5725  -28.6827   24.2746 C   0  0  0  0  0  0  0  0  0  0  0  0
  -24.8756  -28.3436   24.9312 C   0  0  0  0  0  0  0  0  0  0  0  0
  -18.8533  -28.1584   24.0159 C   0  0  0  0  0  0  0  0  0  0  0  0
  -25.5718  -28.9934   23.9021 C   0  0  0  0  0  0  0  0  0  0  0  0
  -28.8005  -18.0890   20.7028 C   0  0  0  0  0  0  0  0  0  0  0  0
  -22.4776   -7.8396   21.4186 C   0  0  0  0  0  0  0  0  0  0  0  0
  -26.9888  -27.0353   23.6411 C   0  0  0  0  0  0  0  0  0  0  0  0
  -20.9061   -6.1378   21.0233 C   0  0  0  0  0  0  0  0  0  0  0  0
  -19.0729   -4.9224   19.3072 C   0  0  0  0  0  0  0  0  0  0  0  0
  -30.1929  -20.0628   20.6583 C   0  0  0  0  0  0  0  0  0  0  0  0
  -21.0825   -4.8073   20.6434 C   0  0  0  0  0  0  0  0  0  0  0  0
  -24.5377  -11.2513   19.9995 C   0  0  0  0  0  0  0  0  0  0  0  0
  -25.0615  -13.1762   19.0745 C   0  0  0  0  0  0  0  0  0  0  0  0
  -29.1835  -22.3369   20.5744 C   0  0  0  0  0  0  0  0  0  0  0  0
  -22.6359  -12.5954   18.9079 C   0  0  0  0  0  0  0  0  0  0  0  0
  -22.2274  -29.6397   23.7434 C   0  0  0  0  0  0  0  0  0  0  0  0
  -23.8680  -32.4089   24.1465 C   0  0  0  0  0  0  0  0  0  0  0  0
  -28.6504  -24.4885   21.6955 C   0  0  0  0  0  0  0  0  0  0  0  0
  -26.8885  -33.9719   24.4303 C   0  0  0  0  0  0  0  0  0  0  0  0
  -29.6994  -15.7371   20.7874 C   0  0  0  0  0  0  0  0  0  0  0  0
  -17.1369  -30.0190   23.7276 C   0  0  0  0  0  0  0  0  0  0  0  0
  -23.7586  -29.0438   25.6555 C   0  0  0  0  0  0  0  0  0  0  0  0
  -25.2150  -30.3887   23.4612 C   0  0  0  0  0  0  0  0  0  0  0  0
  -18.2988  -30.9014   23.2786 C   0  0  0  0  0  0  0  0  0  0  0  0
  -30.0272  -12.3798   19.6482 C   0  0  0  0  0  0  0  0  0  0  0  0
  -19.2843  -30.0983   22.4357 C   0  0  0  0  0  0  0  0  0  0  0  0
  -28.5833  -11.8771   19.5810 C   0  0  0  0  0  0  0  0  0  0  0  0
  -30.2478  -13.3139   20.8366 C   0  0  0  0  0  0  0  0  0  0  0  0
  -27.8643  -13.9363   20.8576 C   0  0  0  0  0  0  0  0  0  0  0  0
  -19.8907  -28.9454   23.2447 C   0  0  1  0  0  0  0  0  0  0  0  0
  -23.1208  -30.1598   24.8339 C   0  0  1  0  0  0  0  0  0  0  0  0
  -27.5773  -13.0433   19.6394 C   0  0  2  0  0  0  0  0  0  0  0  0
  -27.9108  -36.2462   24.7130 C   0  0  0  0  0  0  0  0  0  0  0  0
  -23.3018  -33.0254   21.2123 C   0  0  0  0  0  0  0  0  0  0  0  0
  -25.0978  -34.7673   21.3039 C   0  0  0  0  0  0  0  0  0  0  0  0
  -23.0780  -34.9836   22.7518 C   0  0  0  0  0  0  0  0  0  0  0  0
  -28.1474  -33.2143   26.9994 C   0  0  0  0  0  0  0  0  0  0  0  0
  -27.9482  -24.9772   22.9343 C   0  0  0  0  0  0  0  0  0  1  0  0
  -24.8115  -33.2259   23.2972 C   0  0  1  0  0  0  0  0  0  0  0  0
  -27.4009  -35.0010   25.4217 C   0  0  2  0  0  0  0  0  0  0  0  0
  -24.0780  -33.9735   22.1481 C   0  0  0  0  0  0  0  0  0  0  0  0
  -25.8537  -11.3694   20.1950 N   0  0  0  0  0  0  0  0  0  0  0  0
  -26.1427  -12.5498   19.6212 N   0  0  0  0  0  0  0  0  0  0  0  0
  -24.1116  -31.0290   24.1960 N   0  0  0  0  0  0  0  0  0  0  0  0
  -29.2614  -14.3964   20.8241 N   0  0  0  0  0  0  0  0  0  0  0  0
  -25.1742  -14.3719   18.4581 N   0  0  0  0  0  0  0  0  0  0  0  0
  -21.6607  -11.6404   19.2263 N   0  0  0  0  0  0  0  0  0  0  0  0
  -28.6715  -16.6785   20.7454 N   0  0  0  0  0  0  0  0  0  0  0  0
  -28.6380  -23.0502   21.5693 N   0  0  0  0  0  0  0  0  0  0  0  0
  -20.9179  -29.4393   24.1366 N   0  0  0  0  0  0  0  0  0  0  0  0
  -25.5327  -34.1012   24.2148 N   0  0  0  0  0  0  0  0  0  0  0  0
  -29.8406  -22.8701   19.5449 N   0  3  0  0  0  0  0  0  0  0  0  0
  -28.5153  -34.4311   26.2305 N   0  3  0  0  0  0  0  0  0  0  0  0
  -22.3029  -13.6249   18.2734 O   0  0  0  0  0  0  0  0  0  0  0  0
  -22.6914  -29.4369   22.6275 O   0  0  0  0  0  0  0  0  0  0  0  0
  -22.9530  -32.9752   24.7496 O   0  0  0  0  0  0  0  0  0  0  0  0
  -29.1869  -25.2044   20.8622 O   0  0  0  0  0  0  0  0  0  0  0  0
  -27.6186  -33.1392   23.8974 O   0  0  0  0  0  0  0  0  0  0  0  0
  -30.8981  -16.0279   20.7655 O   0  0  0  0  0  0  0  0  0  0  0  0
  -21.8147   -6.7422   21.8757 O   0  0  0  0  0  0  0  0  0  0  0  0
  -28.0132  -26.4008   23.0089 O   0  0  0  0  0  0  0  0  0  1  0  0
  -18.1919   -4.3386   18.4844 F   0  0  0  0  0  0  0  0  0  0  0  0
  -31.4138  -20.6161   20.6542 F   0  0  0  0  0  0  0  0  0  0  0  0
  -22.1299   -4.1074   21.1005 F   0  0  0  0  0  0  0  0  0  0  0  0
  1  2  1  0  0  0  0
  1  6  2  0  0  0  0
  2  7  2  0  0  0  0
  3 10  2  0  0  0  0
  3 18  1  0  0  0  0
  4 11  1  0  0  0  0
  4 18  2  0  0  0  0
  5  9  2  0  0  0  0
  5 19  1  0  0  0  0
  6 21  1  0  0  0  0
  7 23  1  0  0  0  0
  8 12  2  0  0  0  0
  8 22  1  0  0  0  0
  9 25  1  0  0  0  0
 10 26  1  0  0  0  0
 11 26  2  0  0  0  0
 12 27  1  0  0  0  0
 13 14  2  0  0  0  0
 13 28  1  0  0  0  0
 14 29  1  0  0  0  0
 15 24  1  0  0  0  0
 15 27  2  0  0  0  0
 16 25  2  0  0  0  0
 16 30  1  0  0  0  0
 17 29  2  0  0  0  0
 17 31  1  0  0  0  0
 18 32  1  0  0  0  0
 19 30  2  0  0  0  0
 19 34  1  0  0  0  0
 20 32  1  0  0  0  0
 20 33  2  0  0  0  0
 20 35  1  0  0  0  0
 21 23  2  0  0  0  0
 21 41  1  0  0  0  0
 22 24  2  0  0  0  0
 22 42  1  0  0  0  0
 23 50  1  0  0  0  0
 24 43  1  0  0  0  0
 25 68  1  0  0  0  0
 26 80  1  0  0  0  0
 27 81  1  0  0  0  0
 28 31  2  0  0  0  0
 28 80  1  0  0  0  0
 29 82  1  0  0  0  0
 30 83  1  0  0  0  0
 31 84  1  0  0  0  0
 32 62  2  0  0  0  0
 33 63  1  0  0  0  0
 33 66  1  0  0  0  0
 34 69  1  0  0  0  0
 34 72  2  0  0  0  0
 35 67  1  0  0  0  0
 35 74  2  0  0  0  0
 36 51  1  0  0  0  0
 36 70  1  0  0  0  0
 36 75  2  0  0  0  0
 37 59  1  0  0  0  0
 37 64  1  0  0  0  0
 37 76  2  0  0  0  0
 38 58  1  0  0  0  0
 38 69  1  0  0  0  0
 38 77  2  0  0  0  0
 39 60  1  0  0  0  0
 39 71  1  0  0  0  0
 39 78  2  0  0  0  0
 40 65  1  0  0  0  0
 40 68  1  0  0  0  0
 40 79  2  0  0  0  0
 41 44  1  0  0  0  0
 42 51  1  0  0  0  0
 43 64  1  0  0  0  0
 44 46  1  0  0  0  0
 45 47  1  0  0  0  0
 45 48  1  0  0  0  0
 46 50  1  0  0  0  0
 47 52  1  0  0  0  0
 48 65  1  0  0  0  0
 49 52  1  0  0  0  0
 49 65  1  0  0  0  0
 50 70  1  0  0  0  0
 51 64  1  0  0  0  0
 52 63  1  0  0  0  0
 53 60  1  0  0  0  0
 54 61  1  0  0  0  0
 55 61  1  0  0  0  0
 56 61  1  0  0  0  0
 57 73  1  0  0  0  0
 58 81  1  0  0  0  0
 59 61  1  0  0  0  0
 59 71  1  0  0  0  0
 60 73  1  0  0  0  0
 62 63  1  0  0  0  0
M  CHG  2  72   1  73   1
M  ISO  4  40 100  58 101  68 100  81 101
M  END
> <Batch ID>
0070

> <Smiles>
CNC(C)C(=O)NC(C(=O)N1Cc2cc([101O:1][101CH2:1]C(=O)NC(=N)c3ccc([100NH:0][100C:0](=O)N4CCCC(n5nc(-c6ccc(Oc7ccc(F)cc7F)cc6)c(C(N)=O)c5N)C4)cc3F)ccc2CC1C(=O)NC1CCCc2ccccc21)C(C)(C)C

> <Shape>
0.277

> <Color>
0.105

> <Negative vol penalty>
0.000

$$$$

  -OEChem-04042323323D

 86 95  0     1  0  0  0  0  0999 V2000
  -27.5519  -31.1370   28.1197 C   0  0  0  0  0  0  0  0  0  0  0  0
  -27.7305  -30.2291   27.0808 C   0  0  0  0  0  0  0  0  0  0  0  0
  -23.7503   -8.9836   20.2445 C   0  0  0  0  0  0  0  0  0  0  0  0
  -23.1737  -10.8139   21.7124 C   0  0  0  0  0  0  0  0  0  0  0  0
  -26.2782  -31.6276   28.4039 C   0  0  0  0  0  0  0  0  0  0  0  0
  -26.6352  -29.8104   26.3262 C   0  0  0  0  0  0  0  0  0  0  0  0
  -27.5955  -29.7899   21.3541 C   0  0  0  0  0  0  0  0  0  0  0  0
  -28.1902  -19.9701   18.5652 C   0  0  0  0  0  0  0  0  0  0  0  0
  -28.1366  -18.5763   18.5593 C   0  0  0  0  0  0  0  0  0  0  0  0
  -22.9376   -8.1297   20.9901 C   0  0  0  0  0  0  0  0  0  0  0  0
  -22.3609   -9.9600   22.4579 C   0  0  0  0  0  0  0  0  0  0  0  0
  -28.3392  -28.7221   20.8536 C   0  0  0  0  0  0  0  0  0  0  0  0
  -19.6373   -7.4518   21.2764 C   0  0  0  0  0  0  0  0  0  0  0  0
  -18.7881   -6.5926   20.5792 C   0  0  0  0  0  0  0  0  0  0  0  0
  -26.3062  -27.6718   20.0901 C   0  0  0  0  0  0  0  0  0  0  0  0
  -30.2595  -18.4898   19.7096 C   0  0  0  0  0  0  0  0  0  0  0  0
  -19.8792   -4.6907   21.5939 C   0  0  0  0  0  0  0  0  0  0  0  0
  -23.8684  -10.3258   20.6057 C   0  0  0  0  0  0  0  0  0  0  0  0
  -24.3322  -11.9831   18.7227 C   0  0  0  0  0  0  0  0  0  0  0  0
  -25.1682  -31.2222   27.6462 C   0  0  0  0  0  0  0  0  0  0  0  0
  -26.1982  -29.8015   21.2357 C   0  0  0  0  0  0  0  0  0  0  0  0
  -25.3452  -30.2951   26.6014 C   0  0  0  0  0  0  0  0  0  0  0  0
  -25.5473  -28.7421   20.5876 C   0  0  0  0  0  0  0  0  0  0  0  0
  -30.3131  -19.8837   19.7154 C   0  0  0  0  0  0  0  0  0  0  0  0
  -29.2785  -20.6238   19.1432 C   0  0  0  0  0  0  0  0  0  0  0  0
  -29.1712  -17.8362   19.1315 C   0  0  0  0  0  0  0  0  0  0  0  0
  -22.2429   -8.6178   22.0967 C   0  0  0  0  0  0  0  0  0  0  0  0
  -27.6944  -27.6615   20.2241 C   0  0  0  0  0  0  0  0  0  0  0  0
  -20.6076   -6.9305   22.1323 C   0  0  0  0  0  0  0  0  0  0  0  0
  -18.9090   -5.2121   20.7380 C   0  0  0  0  0  0  0  0  0  0  0  0
  -20.7285   -5.5500   22.2911 C   0  0  0  0  0  0  0  0  0  0  0  0
  -24.7082  -11.2083   19.8363 C   0  0  0  0  0  0  0  0  0  0  0  0
  -25.4820  -12.6396   18.3572 C   0  0  0  0  0  0  0  0  0  0  0  0
  -30.2982  -22.8611   18.5444 C   0  0  0  0  0  0  0  0  0  0  0  0
  -23.0576  -12.0992   18.0765 C   0  0  0  0  0  0  0  0  0  0  0  0
  -23.7732  -29.8259   23.2906 C   0  0  0  0  0  0  0  0  0  0  0  0
  -22.0022  -30.1776   20.5957 C   0  0  0  0  0  0  0  0  0  0  0  0
  -21.7411  -29.7339   17.2220 C   0  0  0  0  0  0  0  0  0  0  0  0
  -30.0581  -15.5361   19.6507 C   0  0  0  0  0  0  0  0  0  0  0  0
  -23.8036  -31.7437   28.0212 C   0  0  0  0  0  0  0  0  0  0  0  0
  -25.4126  -30.9734   21.7571 C   0  0  0  0  0  0  0  0  0  0  0  0
  -24.0511  -28.7162   20.4169 C   0  0  0  0  0  0  0  0  0  0  0  0
  -29.8643  -24.3002   18.7156 C   0  0  0  0  0  0  0  0  0  0  0  0
  -22.7524  -31.5368   26.9338 C   0  0  0  0  0  0  0  0  0  0  0  0
  -30.2689  -11.9885   19.8685 C   0  0  0  0  0  0  0  0  0  0  0  0
  -22.8218  -30.1141   26.3880 C   0  0  0  0  0  0  0  0  0  0  0  0
  -28.8101  -11.5330   19.7879 C   0  0  0  0  0  0  0  0  0  0  0  0
  -30.4139  -13.2907   20.6540 C   0  0  0  0  0  0  0  0  0  0  0  0
  -28.0984  -13.9360   20.1142 C   0  0  0  0  0  0  0  0  0  0  0  0
  -28.2455  -22.8518   19.7086 C   0  0  0  0  0  0  0  0  0  0  0  0
  -24.1856  -29.8360   25.7443 C   0  0  1  0  0  0  0  0  0  0  0  0
  -23.9515  -30.6360   22.0377 C   0  0  1  0  0  0  0  0  0  0  0  0
  -27.8944  -12.6627   19.2771 C   0  0  2  0  0  0  0  0  0  0  0  0
  -28.8465  -24.2517   19.8590 C   0  0  1  0  0  0  0  0  0  0  0  0
  -31.4909  -20.5578   20.3409 C   0  0  0  0  0  0  0  0  0  0  0  0
  -29.5517  -24.4008   21.2178 C   0  0  0  0  0  0  0  0  0  0  0  0
  -20.1599  -30.0858   15.3055 C   0  0  0  0  0  0  0  0  0  0  0  0
  -20.3653  -27.7694   21.5073 C   0  0  0  0  0  0  0  0  0  0  0  0
  -19.4650  -27.5876   19.1782 C   0  0  0  0  0  0  0  0  0  0  0  0
  -19.0188  -29.6363   20.5296 C   0  0  0  0  0  0  0  0  0  0  0  0
  -23.6306  -31.5484   15.8449 C   0  0  0  0  0  0  0  0  0  0  0  0
  -27.7822  -25.3403   19.7138 C   0  0  0  0  0  0  0  0  0  1  0  0
  -21.3428  -29.2340   19.6191 C   0  0  1  0  0  0  0  0  0  0  0  0
  -21.3060  -30.6748   16.1130 C   0  0  2  0  0  0  0  0  0  0  0  0
  -20.0760  -28.5561   20.2133 C   0  0  0  0  0  0  0  0  0  0  0  0
  -25.9962  -11.3574   20.1571 N   0  0  0  0  0  0  0  0  0  0  0  0
  -26.4396  -12.2335   19.2395 N   0  0  0  0  0  0  0  0  0  0  0  0
  -29.3143  -22.0506   19.1388 N   0  0  0  0  0  0  0  0  0  0  0  0
  -23.3264  -29.8821   20.9492 N   0  0  0  0  0  0  0  0  0  0  0  0
  -29.5199  -14.3158   20.1110 N   0  0  0  0  0  0  0  0  0  0  0  0
  -25.7573  -13.5186   17.3704 N   0  0  0  0  0  0  0  0  0  0  0  0
  -21.9825  -11.3550   18.5810 N   0  0  0  0  0  0  0  0  0  0  0  0
  -29.1160  -16.4203   19.1260 N   0  0  0  0  0  0  0  0  0  0  0  0
  -24.2568  -30.4391   24.4306 N   0  0  0  0  0  0  0  0  0  0  0  0
  -21.0937  -30.0085   18.4081 N   0  0  0  0  0  0  0  0  0  0  0  0
  -22.4424  -30.9455   15.1878 N   0  3  0  0  0  0  0  0  0  0  0  0
  -31.3097  -22.5505   17.9319 O   0  0  0  0  0  0  0  0  0  0  0  0
  -22.8814  -12.8284   17.0712 O   0  0  0  0  0  0  0  0  0  0  0  0
  -23.2353  -28.7266   23.2278 O   0  0  0  0  0  0  0  0  0  0  0  0
  -21.3682  -31.1453   21.0236 O   0  0  0  0  0  0  0  0  0  0  0  0
  -22.5695  -28.8421   17.0521 O   0  0  0  0  0  0  0  0  0  0  0  0
  -31.2691  -15.7679   19.6920 O   0  0  0  0  0  0  0  0  0  0  0  0
  -21.4495   -7.7849   22.8243 O   0  0  0  0  0  0  0  0  0  0  0  0
  -28.4179  -26.6177   19.7353 O   0  0  0  0  0  0  0  0  0  1  0  0
  -18.0923   -4.3871   20.0696 F   0  0  0  0  0  0  0  0  0  0  0  0
  -21.6580   -5.0434   23.1128 F   0  0  0  0  0  0  0  0  0  0  0  0
  1  2  1  0  0  0  0
  1  5  2  0  0  0  0
  2  6  2  0  0  0  0
  3 10  2  0  0  0  0
  3 18  1  0  0  0  0
  4 11  1  0  0  0  0
  4 18  2  0  0  0  0
  5 20  1  0  0  0  0
  6 22  1  0  0  0  0
  7 12  2  0  0  0  0
  7 21  1  0  0  0  0
  8  9  2  0  0  0  0
  8 25  1  0  0  0  0
  9 26  1  0  0  0  0
 10 27  1  0  0  0  0
 11 27  2  0  0  0  0
 12 28  1  0  0  0  0
 13 14  2  0  0  0  0
 13 29  1  0  0  0  0
 14 30  1  0  0  0  0
 15 23  1  0  0  0  0
 15 28  2  0  0  0  0
 16 24  1  0  0  0  0
 16 26  2  0  0  0  0
 17 30  2  0  0  0  0
 17 31  1  0  0  0  0
 18 32  1  0  0  0  0
 19 32  1  0  0  0  0
 19 33  2  0  0  0  0
 19 35  1  0  0  0  0
 20 22  2  0  0  0  0
 20 40  1  0  0  0  0
 21 23  2  0  0  0  0
 21 41  1  0  0  0  0
 22 51  1  0  0  0  0
 23 42  1  0  0  0  0
 24 25  2  0  0  0  0
 24 55  1  0  0  0  0
 25 68  1  0  0  0  0
 26 73  1  0  0  0  0
 27 83  1  0  0  0  0
 28 84  1  0  0  0  0
 29 31  2  0  0  0  0
 29 83  1  0  0  0  0
 30 85  1  0  0  0  0
 31 86  1  0  0  0  0
 32 66  2  0  0  0  0
 33 67  1  0  0  0  0
 33 71  1  0  0  0  0
 34 43  1  0  0  0  0
 34 68  1  0  0  0  0
 34 77  2  0  0  0  0
 35 72  1  0  0  0  0
 35 78  2  0  0  0  0
 36 52  1  0  0  0  0
 36 74  1  0  0  0  0
 36 79  2  0  0  0  0
 37 63  1  0  0  0  0
 37 69  1  0  0  0  0
 37 80  2  0  0  0  0
 38 64  1  0  0  0  0
 38 75  1  0  0  0  0
 38 81  2  0  0  0  0
 39 70  1  0  0  0  0
 39 73  1  0  0  0  0
 39 82  2  0  0  0  0
 40 44  1  0  0  0  0
 41 52  1  0  0  0  0
 42 69  1  0  0  0  0
 43 54  1  0  0  0  0
 44 46  1  0  0  0  0
 45 47  1  0  0  0  0
 45 48  1  0  0  0  0
 46 51  1  0  0  0  0
 47 53  1  0  0  0  0
 48 70  1  0  0  0  0
 49 53  1  0  0  0  0
 49 70  1  0  0  0  0
 50 54  1  0  0  0  0
 50 68  1  0  0  0  0
 51 74  1  0  0  0  0
 52 69  1  0  0  0  0
 53 67  1  0  0  0  0
 54 56  1  0  0  0  0
 54 62  1  0  0  0  0
 57 64  1  0  0  0  0
 58 65  1  0  0  0  0
 59 65  1  0  0  0  0
 60 65  1  0  0  0  0
 61 76  1  0  0  0  0
 62 84  1  0  0  0  0
 63 65  1  0  0  0  0
 63 75  1  0  0  0  0
 64 76  1  0  0  0  0
 66 67  1  0  0  0  0
M  CHG  1  76   1
M  ISO  4  39 100  62 101  73 100  84 101
M  END
> <Batch ID>
0070

> <Smiles>
CNC(C)C(=O)NC(C(=O)N1Cc2cc([101O:1][101CH2:1]C3(C)CC(=O)N(c4ccc([100NH:0][100C:0](=O)N5CCCC(n6nc(-c7ccc(Oc8ccc(F)cc8F)cc7)c(C(N)=O)c6N)C5)cc4C)C3)ccc2CC1C(=O)NC1CCCc2ccccc21)C(C)(C)C

> <Shape>
0.292

> <Color>
0.116

> <Negative vol penalty>
0.000

$$$$

  -OEChem-04042323323D

 84 92  0     1  0  0  0  0  0999 V2000
  -21.6280  -12.5811   20.7655 C   0  0  0  0  0  0  0  0  0  0  0  0
  -21.6586  -13.9059   21.1889 C   0  0  0  0  0  0  0  0  0  0  0  0
  -27.6197  -28.3533   16.5659 C   0  0  0  0  0  0  0  0  0  0  0  0
  -29.3014  -27.3446   17.9771 C   0  0  0  0  0  0  0  0  0  0  0  0
  -22.8200  -11.9037   20.5122 C   0  0  0  0  0  0  0  0  0  0  0  0
  -22.8814  -14.5539   21.3603 C   0  0  0  0  0  0  0  0  0  0  0  0
  -22.8978  -19.2226   19.3988 C   0  0  0  0  0  0  0  0  0  0  0  0
  -18.0621  -26.1918   20.6700 C   0  0  0  0  0  0  0  0  0  0  0  0
  -17.5395  -27.4718   20.8548 C   0  0  0  0  0  0  0  0  0  0  0  0
  -28.5722  -28.5399   15.5642 C   0  0  0  0  0  0  0  0  0  0  0  0
  -30.2539  -27.5312   16.9754 C   0  0  0  0  0  0  0  0  0  0  0  0
  -22.2711  -20.2256   20.1371 C   0  0  0  0  0  0  0  0  0  0  0  0
  -30.0881  -26.6710   13.1889 C   0  0  0  0  0  0  0  0  0  0  0  0
  -29.7300  -26.3354   11.8833 C   0  0  0  0  0  0  0  0  0  0  0  0
  -19.9887  -26.7862   22.0011 C   0  0  0  0  0  0  0  0  0  0  0  0
  -24.4195  -20.9600   20.9519 C   0  0  0  0  0  0  0  0  0  0  0  0
  -30.1218  -28.6163   11.1896 C   0  0  0  0  0  0  0  0  0  0  0  0
  -27.9843  -27.7557   17.7724 C   0  0  0  0  0  0  0  0  0  0  0  0
  -19.4661  -28.0662   22.1859 C   0  0  0  0  0  0  0  0  0  0  0  0
  -26.1716  -26.4410   18.9945 C   0  0  0  0  0  0  0  0  0  0  0  0
  -24.0577  -12.5466   20.6713 C   0  0  0  0  0  0  0  0  0  0  0  0
  -24.2915  -19.0737   19.4402 C   0  0  0  0  0  0  0  0  0  0  0  0
  -24.0911  -13.8840   21.1102 C   0  0  0  0  0  0  0  0  0  0  0  0
  -25.0617  -19.9560   20.2112 C   0  0  0  0  0  0  0  0  0  0  0  0
  -19.2867  -25.8490   21.2432 C   0  0  0  0  0  0  0  0  0  0  0  0
  -18.2415  -28.4090   21.6127 C   0  0  0  0  0  0  0  0  0  0  0  0
  -29.8893  -28.1289   15.7689 C   0  0  0  0  0  0  0  0  0  0  0  0
  -23.0317  -21.0927   20.9160 C   0  0  0  0  0  0  0  0  0  0  0  0
  -30.4630  -27.9792   13.4950 C   0  0  0  0  0  0  0  0  0  0  0  0
  -29.7469  -27.3080   10.8836 C   0  0  0  0  0  0  0  0  0  0  0  0
  -30.4799  -28.9519   12.4953 C   0  0  0  0  0  0  0  0  0  0  0  0
  -27.0009  -27.5631   18.8078 C   0  0  0  0  0  0  0  0  0  0  0  0
  -25.4243  -26.7474   20.1054 C   0  0  0  0  0  0  0  0  0  0  0  0
  -20.2378  -29.0407   22.9993 C   0  0  0  0  0  0  0  0  0  0  0  0
  -26.0845  -25.2300   18.2319 C   0  0  0  0  0  0  0  0  0  0  0  0
  -26.2747  -16.7733   20.3777 C   0  0  0  0  0  0  0  0  0  0  0  0
  -28.5298  -18.7499   19.1407 C   0  0  0  0  0  0  0  0  0  0  0  0
  -21.0125  -24.0433   21.5510 C   0  0  0  0  0  0  0  0  0  0  0  0
  -29.4392  -21.9216   18.2690 C   0  0  0  0  0  0  0  0  0  0  0  0
  -22.3838  -30.2673   23.1160 C   0  0  0  0  0  0  0  0  0  0  0  0
  -25.3211  -11.7588   20.4309 C   0  0  0  0  0  0  0  0  0  0  0  0
  -24.9546  -18.0036   18.6171 C   0  0  0  0  0  0  0  0  0  0  0  0
  -26.5629  -19.8511   20.2738 C   0  0  0  0  0  0  0  0  0  0  0  0
  -26.5635  -12.6323   20.2763 C   0  0  0  0  0  0  0  0  0  0  0  0
  -25.8936  -30.5142   23.4587 C   0  0  0  0  0  0  0  0  0  0  0  0
  -26.6094  -13.6937   21.3708 C   0  0  0  0  0  0  0  0  0  0  0  0
  -26.4299  -29.6698   22.2996 C   0  0  0  0  0  0  0  0  0  0  0  0
  -24.6403  -31.2927   23.0612 C   0  0  0  0  0  0  0  0  0  0  0  0
  -24.1041  -29.6455   21.3127 C   0  0  0  0  0  0  0  0  0  0  0  0
  -25.3970  -14.6287   21.2838 C   0  0  1  0  0  0  0  0  0  0  0  0
  -26.3363  -17.6195   19.1376 C   0  0  1  0  0  0  0  0  0  0  0  0
  -25.3251  -28.7882   21.6834 C   0  0  1  0  0  0  0  0  0  0  0  0
  -30.8469  -23.7548   17.2918 C   0  0  0  0  0  0  0  0  0  0  0  0
  -29.9752  -18.5745   21.8222 C   0  0  0  0  0  0  0  0  0  0  0  0
  -31.3086  -20.5860   21.1561 C   0  0  0  0  0  0  0  0  0  0  0  0
  -31.4734  -18.4848   19.8217 C   0  0  0  0  0  0  0  0  0  0  0  0
  -28.2059  -21.6030   15.5976 C   0  0  0  0  0  0  0  0  0  0  0  0
  -21.2050  -22.6025   21.1156 C   0  0  0  0  0  0  0  0  0  1  0  0
  -29.3710  -19.8818   19.6793 C   0  0  1  0  0  0  0  0  0  0  0  0
  -30.0741  -22.4765   17.0067 C   0  0  2  0  0  0  0  0  0  0  0  0
  -30.5036  -19.3828   20.6204 C   0  0  0  0  0  0  0  0  0  0  0  0
  -26.7996  -28.5116   19.7265 N   0  0  0  0  0  0  0  0  0  0  0  0
  -25.8352  -27.9862   20.5010 N   0  0  0  0  0  0  0  0  0  0  0  0
  -27.1642  -18.7845   19.4562 N   0  0  0  0  0  0  0  0  0  0  0  0
  -23.6400  -30.3854   22.4959 N   0  0  0  0  0  0  0  0  0  0  0  0
  -17.6951  -29.7001   21.7871 N   0  0  0  0  0  0  0  0  0  0  0  0
  -24.4623  -26.0752   20.7726 N   0  0  0  0  0  0  0  0  0  0  0  0
  -26.9250  -25.0784   17.1206 N   0  0  0  0  0  0  0  0  0  0  0  0
  -19.8161  -24.5502   21.0553 N   0  0  0  0  0  0  0  0  0  0  0  0
  -21.5144  -29.3437   22.5251 N   0  0  0  0  0  0  0  0  0  0  0  0
  -25.5767  -15.5915   20.2183 N   0  0  0  0  0  0  0  0  0  0  0  0
  -29.8441  -20.6273   18.5180 N   0  0  0  0  0  0  0  0  0  0  0  0
  -29.0273  -22.7772   15.9894 N   0  3  0  0  0  0  0  0  0  0  0  0
  -19.7128  -29.5409   23.9904 O   0  0  0  0  0  0  0  0  0  0  0  0
  -25.2736  -24.3166   18.5174 O   0  0  0  0  0  0  0  0  0  0  0  0
  -26.8214  -17.1631   21.4028 O   0  0  0  0  0  0  0  0  0  0  0  0
  -29.0635  -17.8712   18.4590 O   0  0  0  0  0  0  0  0  0  0  0  0
  -21.8418  -24.6206   22.2463 O   0  0  0  0  0  0  0  0  0  0  0  0
  -28.6646  -22.5727   18.9667 O   0  0  0  0  0  0  0  0  0  0  0  0
  -22.0764  -30.9010   24.1305 O   0  0  0  0  0  0  0  0  0  0  0  0
  -30.8190  -28.3106   14.7915 O   0  0  0  0  0  0  0  0  0  0  0  0
  -22.4224  -22.0721   21.6381 O   0  0  0  0  0  0  0  0  0  1  0  0
  -29.4045  -26.9853    9.6295 F   0  0  0  0  0  0  0  0  0  0  0  0
  -30.8403  -30.2101   12.7830 F   0  0  0  0  0  0  0  0  0  0  0  0
  1  2  1  0  0  0  0
  1  5  2  0  0  0  0
  2  6  2  0  0  0  0
  3 10  2  0  0  0  0
  3 18  1  0  0  0  0
  4 11  1  0  0  0  0
  4 18  2  0  0  0  0
  5 21  1  0  0  0  0
  6 23  1  0  0  0  0
  7 12  2  0  0  0  0
  7 22  1  0  0  0  0
  8  9  2  0  0  0  0
  8 25  1  0  0  0  0
  9 26  1  0  0  0  0
 10 27  1  0  0  0  0
 11 27  2  0  0  0  0
 12 28  1  0  0  0  0
 13 14  2  0  0  0  0
 13 29  1  0  0  0  0
 14 30  1  0  0  0  0
 15 19  1  0  0  0  0
 15 25  2  0  0  0  0
 16 24  1  0  0  0  0
 16 28  2  0  0  0  0
 17 30  2  0  0  0  0
 17 31  1  0  0  0  0
 18 32  1  0  0  0  0
 19 26  2  0  0  0  0
 19 34  1  0  0  0  0
 20 32  1  0  0  0  0
 20 33  2  0  0  0  0
 20 35  1  0  0  0  0
 21 23  2  0  0  0  0
 21 41  1  0  0  0  0
 22 24  2  0  0  0  0
 22 42  1  0  0  0  0
 23 50  1  0  0  0  0
 24 43  1  0  0  0  0
 25 69  1  0  0  0  0
 26 66  1  0  0  0  0
 27 81  1  0  0  0  0
 28 82  1  0  0  0  0
 29 31  2  0  0  0  0
 29 81  1  0  0  0  0
 30 83  1  0  0  0  0
 31 84  1  0  0  0  0
 32 62  2  0  0  0  0
 33 63  1  0  0  0  0
 33 67  1  0  0  0  0
 34 70  1  0  0  0  0
 34 74  2  0  0  0  0
 35 68  1  0  0  0  0
 35 75  2  0  0  0  0
 36 51  1  0  0  0  0
 36 71  1  0  0  0  0
 36 76  2  0  0  0  0
 37 59  1  0  0  0  0
 37 64  1  0  0  0  0
 37 77  2  0  0  0  0
 38 58  1  0  0  0  0
 38 69  1  0  0  0  0
 38 78  2  0  0  0  0
 39 60  1  0  0  0  0
 39 72  1  0  0  0  0
 39 79  2  0  0  0  0
 40 65  1  0  0  0  0
 40 70  1  0  0  0  0
 40 80  2  0  0  0  0
 41 44  1  0  0  0  0
 42 51  1  0  0  0  0
 43 64  1  0  0  0  0
 44 46  1  0  0  0  0
 45 47  1  0  0  0  0
 45 48  1  0  0  0  0
 46 50  1  0  0  0  0
 47 52  1  0  0  0  0
 48 65  1  0  0  0  0
 49 52  1  0  0  0  0
 49 65  1  0  0  0  0
 50 71  1  0  0  0  0
 51 64  1  0  0  0  0
 52 63  1  0  0  0  0
 53 60  1  0  0  0  0
 54 61  1  0  0  0  0
 55 61  1  0  0  0  0
 56 61  1  0  0  0  0
 57 73  1  0  0  0  0
 58 82  1  0  0  0  0
 59 61  1  0  0  0  0
 59 72  1  0  0  0  0
 60 73  1  0  0  0  0
 62 63  1  0  0  0  0
M  CHG  1  73   1
M  ISO  4  40 100  58 101  70 100  82 101
M  END
> <Batch ID>
0070

> <Smiles>
CNC(C)C(=O)NC(C(=O)N1Cc2cc([101O:1][101CH2:1]C(=O)Nc3ccc(N)c(C(=O)[100NH:0][100C:0](=O)N4CCCC(n5nc(-c6ccc(Oc7ccc(F)cc7F)cc6)c(C(N)=O)c5N)C4)c3)ccc2CC1C(=O)NC1CCCc2ccccc21)C(C)(C)C

> <Shape>
0.228

> <Color>
0.072

> <Negative vol penalty>
0.000

$$$$

  -OEChem-04042323323D

 90 99  0     1  0  0  0  0  0999 V2000
  -30.3679  -31.7694   21.9756 C   0  0  0  0  0  0  0  0  0  0  0  0
  -29.7301  -30.5801   22.3134 C   0  0  0  0  0  0  0  0  0  0  0  0
  -22.9722   -9.9571   19.9489 C   0  0  0  0  0  0  0  0  0  0  0  0
  -23.7501   -9.8949   22.2354 C   0  0  0  0  0  0  0  0  0  0  0  0
  -28.0825  -18.1814   21.9266 C   0  0  0  0  0  0  0  0  0  0  0  0
  -31.1488  -31.8371   20.8225 C   0  0  0  0  0  0  0  0  0  0  0  0
  -29.8720  -29.4580   21.4978 C   0  0  0  0  0  0  0  0  0  0  0  0
  -30.7570  -25.2320   24.1441 C   0  0  0  0  0  0  0  0  0  0  0  0
  -27.4436  -19.0427   22.8185 C   0  0  0  0  0  0  0  0  0  0  0  0
  -22.1941   -8.8233   20.1828 C   0  0  0  0  0  0  0  0  0  0  0  0
  -22.9720   -8.7611   22.4693 C   0  0  0  0  0  0  0  0  0  0  0  0
  -29.6647  -24.6312   24.7684 C   0  0  0  0  0  0  0  0  0  0  0  0
  -23.1529   -5.4432   21.8450 C   0  0  0  0  0  0  0  0  0  0  0  0
  -23.7413   -4.3850   22.5375 C   0  0  0  0  0  0  0  0  0  0  0  0
  -29.5228  -23.0323   22.9677 C   0  0  0  0  0  0  0  0  0  0  0  0
  -29.2484  -18.7467   24.3972 C   0  0  0  0  0  0  0  0  0  0  0  0
  -22.0598   -4.5786   24.2616 C   0  0  0  0  0  0  0  0  0  0  0  0
  -23.7502  -10.4929   20.9753 C   0  0  0  0  0  0  0  0  0  0  0  0
  -29.3043  -17.6027   22.2699 C   0  0  0  0  0  0  0  0  0  0  0  0
  -24.1710  -13.0078   20.9015 C   0  0  0  0  0  0  0  0  0  0  0  0
  -31.3082  -30.7125   19.9975 C   0  0  0  0  0  0  0  0  0  0  0  0
  -31.2343  -24.7434   22.9195 C   0  0  0  0  0  0  0  0  0  0  0  0
  -30.6547  -29.5111   20.3319 C   0  0  0  0  0  0  0  0  0  0  0  0
  -30.6228  -23.6272   22.3312 C   0  0  0  0  0  0  0  0  0  0  0  0
  -29.8873  -17.8854   23.5052 C   0  0  0  0  0  0  0  0  0  0  0  0
  -28.0265  -19.3254   24.0538 C   0  0  0  0  0  0  0  0  0  0  0  0
  -22.1940   -8.2253   21.4429 C   0  0  0  0  0  0  0  0  0  0  0  0
  -29.0456  -23.5330   24.1788 C   0  0  0  0  0  0  0  0  0  0  0  0
  -22.0181   -6.0691   22.3607 C   0  0  0  0  0  0  0  0  0  0  0  0
  -23.1947   -3.9527   23.7458 C   0  0  0  0  0  0  0  0  0  0  0  0
  -21.4715   -5.6368   23.5690 C   0  0  0  0  0  0  0  0  0  0  0  0
  -24.5546  -11.6637   20.7342 C   0  0  0  0  0  0  0  0  0  0  0  0
  -25.2835  -13.7295   20.5435 C   0  0  0  0  0  0  0  0  0  0  0  0
  -26.1405  -20.8643   24.7622 C   0  0  0  0  0  0  0  0  0  0  0  0
  -29.9628  -16.6876   21.2998 C   0  0  0  0  0  0  0  0  0  0  0  0
  -22.9209  -13.5551   21.3412 C   0  0  0  0  0  0  0  0  0  0  0  0
  -31.5191  -25.9353   19.9865 C   0  0  0  0  0  0  0  0  0  0  0  0
  -33.0503  -23.1328   19.4172 C   0  0  0  0  0  0  0  0  0  0  0  0
  -33.5424  -19.8707   20.2908 C   0  0  0  0  0  0  0  0  0  0  0  0
  -30.7484  -14.5892   20.7552 C   0  0  0  0  0  0  0  0  0  0  0  0
  -32.1240  -30.8473   18.7362 C   0  0  0  0  0  0  0  0  0  0  0  0
  -32.4303  -25.3862   22.2722 C   0  0  0  0  0  0  0  0  0  0  0  0
  -31.1095  -23.0516   21.0272 C   0  0  0  0  0  0  0  0  0  0  0  0
  -32.5271  -29.5077   18.1254 C   0  0  0  0  0  0  0  0  0  0  0  0
  -29.5727  -12.2969   18.2808 C   0  0  0  0  0  0  0  0  0  0  0  0
  -31.3313  -28.5618   18.0765 C   0  0  0  0  0  0  0  0  0  0  0  0
  -28.1345  -12.0188   18.7227 C   0  0  0  0  0  0  0  0  0  0  0  0
  -30.5064  -12.4636   19.4768 C   0  0  0  0  0  0  0  0  0  0  0  0
  -28.6247  -13.2112   20.9008 C   0  0  0  0  0  0  0  0  0  0  0  0
  -27.9150  -20.4941   26.2829 C   0  0  0  0  0  0  0  0  0  0  0  0
  -30.8045  -28.2654   19.4858 C   0  0  1  0  0  0  0  0  0  0  0  0
  -32.5106  -25.1238   20.7715 C   0  0  1  0  0  0  0  0  0  0  0  0
  -27.6441  -13.0818   19.7235 C   0  0  2  0  0  0  0  0  0  0  0  0
  -25.7757  -21.5743   26.0716 C   0  0  0  0  0  0  0  0  0  0  0  0
  -27.1745  -21.7611   26.7392 C   0  0  1  0  0  0  0  0  0  0  0  0
  -31.1944  -17.2780   23.8983 C   0  0  0  0  0  0  0  0  0  0  0  0
  -30.3308  -17.2397   19.9362 C   0  0  0  0  0  0  0  0  0  0  0  0
  -24.8404  -20.6241   26.8466 C   0  0  0  0  0  0  0  0  0  0  0  0
  -25.0224  -22.8796   25.7939 C   0  0  0  0  0  0  0  0  0  0  0  0
  -27.1383  -21.8478   28.2708 C   0  0  0  0  0  0  0  0  0  0  0  0
  -34.8256  -17.8226   19.6156 C   0  0  0  0  0  0  0  0  0  0  0  0
  -31.1315  -22.7027   17.0841 C   0  0  0  0  0  0  0  0  0  0  0  0
  -31.8113  -20.2933   17.0600 C   0  0  0  0  0  0  0  0  0  0  0  0
  -33.5047  -22.0697   16.6133 C   0  0  0  0  0  0  0  0  0  0  0  0
  -34.9497  -19.7533   22.8917 C   0  0  0  0  0  0  0  0  0  0  0  0
  -27.9289  -23.0032   26.2106 C   0  0  0  0  0  0  0  0  0  1  0  0
  -32.6274  -21.7564   18.9637 C   0  0  1  0  0  0  0  0  0  0  0  0
  -34.8114  -19.0631   20.4952 C   0  0  2  0  0  0  0  0  0  0  0  0
  -32.2581  -21.7173   17.4539 C   0  0  0  0  0  0  0  0  0  0  0  0
  -25.8125  -11.5363   20.3033 N   0  0  0  0  0  0  0  0  0  0  0  0
  -30.1686  -15.4536   21.6575 N   0  0  0  0  0  0  0  0  0  0  0  0
  -26.2289  -12.8096   20.1968 N   0  0  0  0  0  0  0  0  0  0  0  0
  -27.3717  -20.2073   24.9662 N   0  0  0  0  0  0  0  0  0  0  0  0
  -32.2781  -23.7190   20.4301 N   0  0  0  0  0  0  0  0  0  0  0  0
  -29.9828  -13.4650   20.4051 N   0  0  0  0  0  0  0  0  0  0  0  0
  -25.5355  -15.0548   20.4946 N   0  0  0  0  0  0  0  0  0  0  0  0
  -21.8834  -12.6719   21.6693 N   0  0  0  0  0  0  0  0  0  0  0  0
  -31.6542  -27.3007   20.1505 N   0  0  0  0  0  0  0  0  0  0  0  0
  -33.7100  -20.8529   19.3376 N   0  0  0  0  0  0  0  0  0  0  0  0
  -34.9279  -18.6323   21.9171 N   0  3  0  0  0  0  0  0  0  0  0  0
  -25.4105  -20.8582   23.7804 O   0  0  0  0  0  0  0  0  0  0  0  0
  -22.7243  -14.7912   21.4245 O   0  0  0  0  0  0  0  0  0  0  0  0
  -30.6937  -25.3649   19.2830 O   0  0  0  0  0  0  0  0  0  0  0  0
  -34.0339  -23.6653   18.8970 O   0  0  0  0  0  0  0  0  0  0  0  0
  -32.5050  -19.6498   20.9117 O   0  0  0  0  0  0  0  0  0  0  0  0
  -31.8788  -14.7850   20.3064 O   0  0  0  0  0  0  0  0  0  0  0  0
  -21.4347   -7.1191   21.6715 O   0  0  0  0  0  0  0  0  0  0  0  0
  -27.9789  -22.9450   24.7856 O   0  0  0  0  0  0  0  0  0  1  0  0
  -23.7589   -2.9355   24.4101 F   0  0  0  0  0  0  0  0  0  0  0  0
  -20.3806   -6.2334   24.0689 F   0  0  0  0  0  0  0  0  0  0  0  0
  1  2  1  0  0  0  0
  1  6  2  0  0  0  0
  2  7  2  0  0  0  0
  3 10  2  0  0  0  0
  3 18  1  0  0  0  0
  4 11  1  0  0  0  0
  4 18  2  0  0  0  0
  5  9  2  0  0  0  0
  5 19  1  0  0  0  0
  6 21  1  0  0  0  0
  7 23  1  0  0  0  0
  8 12  2  0  0  0  0
  8 22  1  0  0  0  0
  9 26  1  0  0  0  0
 10 27  1  0  0  0  0
 11 27  2  0  0  0  0
 12 28  1  0  0  0  0
 13 14  2  0  0  0  0
 13 29  1  0  0  0  0
 14 30  1  0  0  0  0
 15 24  1  0  0  0  0
 15 28  2  0  0  0  0
 16 25  1  0  0  0  0
 16 26  2  0  0  0  0
 17 30  2  0  0  0  0
 17 31  1  0  0  0  0
 18 32  1  0  0  0  0
 19 25  2  0  0  0  0
 19 35  1  0  0  0  0
 20 32  1  0  0  0  0
 20 33  2  0  0  0  0
 20 36  1  0  0  0  0
 21 23  2  0  0  0  0
 21 41  1  0  0  0  0
 22 24  2  0  0  0  0
 22 42  1  0  0  0  0
 23 51  1  0  0  0  0
 24 43  1  0  0  0  0
 25 56  1  0  0  0  0
 26 73  1  0  0  0  0
 27 87  1  0  0  0  0
 28 88  1  0  0  0  0
 29 31  2  0  0  0  0
 29 87  1  0  0  0  0
 30 89  1  0  0  0  0
 31 90  1  0  0  0  0
 32 70  2  0  0  0  0
 33 72  1  0  0  0  0
 33 76  1  0  0  0  0
 34 54  1  0  0  0  0
 34 73  1  0  0  0  0
 34 81  2  0  0  0  0
 35 57  1  0  0  0  0
 35 71  2  0  0  0  0
 36 77  1  0  0  0  0
 36 82  2  0  0  0  0
 37 52  1  0  0  0  0
 37 78  1  0  0  0  0
 37 83  2  0  0  0  0
 38 67  1  0  0  0  0
 38 74  1  0  0  0  0
 38 84  2  0  0  0  0
 39 68  1  0  0  0  0
 39 79  1  0  0  0  0
 39 85  2  0  0  0  0
 40 71  1  0  0  0  0
 40 75  1  0  0  0  0
 40 86  2  0  0  0  0
 41 44  1  0  0  0  0
 42 52  1  0  0  0  0
 43 74  1  0  0  0  0
 44 46  1  0  0  0  0
 45 47  1  0  0  0  0
 45 48  1  0  0  0  0
 46 51  1  0  0  0  0
 47 53  1  0  0  0  0
 48 75  1  0  0  0  0
 49 53  1  0  0  0  0
 49 75  1  0  0  0  0
 50 55  1  0  0  0  0
 50 73  1  0  0  0  0
 51 78  1  0  0  0  0
 52 74  1  0  0  0  0
 53 72  1  0  0  0  0
 54 55  1  0  0  0  0
 54 58  1  0  0  0  0
 54 59  1  0  0  0  0
 55 60  1  0  0  0  0
 55 66  1  0  0  0  0
 61 68  1  0  0  0  0
 62 69  1  0  0  0  0
 63 69  1  0  0  0  0
 64 69  1  0  0  0  0
 65 80  1  0  0  0  0
 66 88  1  0  0  0  0
 67 69  1  0  0  0  0
 67 79  1  0  0  0  0
 68 80  1  0  0  0  0
 70 72  1  0  0  0  0
M  CHG  1  80   1
M  ISO  4  40 100  66 101  71 100  88 101
M  END
> <Batch ID>
0070

> <Smiles>
C=C([100NH:0][100C:0](=O)N1CCCC(n2nc(-c3ccc(Oc4ccc(F)cc4F)cc3)c(C(N)=O)c2N)C1)c1ccc(N2CC(C)([101CH2:1][101O:1]c3ccc4c(c3)CN(C(=O)C(NC(=O)C(C)NC)C(C)(C)C)C(C(=O)NC3CCCc5ccccc53)C4)C(C)(C)C2=O)cc1C

> <Shape>
0.215

> <Color>
0.210

> <Negative vol penalty>
0.000

$$$$

  -OEChem-04042323323D

 84 92  0     1  0  0  0  0  0999 V2000
  -24.3133  -32.6612   23.3635 C   0  0  0  0  0  0  0  0  0  0  0  0
  -23.9631  -31.3635   23.0045 C   0  0  0  0  0  0  0  0  0  0  0  0
  -23.0000   -9.8940   19.9830 C   0  0  0  0  0  0  0  0  0  0  0  0
  -23.7234   -9.9485   22.2875 C   0  0  0  0  0  0  0  0  0  0  0  0
  -32.6449  -17.4500   23.4538 C   0  0  0  0  0  0  0  0  0  0  0  0
  -25.4223  -32.8824   24.1791 C   0  0  0  0  0  0  0  0  0  0  0  0
  -24.7224  -30.2863   23.4602 C   0  0  0  0  0  0  0  0  0  0  0  0
  -24.0657  -23.4316   25.4344 C   0  0  0  0  0  0  0  0  0  0  0  0
  -32.0572  -16.5527   22.5622 C   0  0  0  0  0  0  0  0  0  0  0  0
  -22.2329   -8.7602   20.2505 C   0  0  0  0  0  0  0  0  0  0  0  0
  -22.9563   -8.8147   22.5551 C   0  0  0  0  0  0  0  0  0  0  0  0
  -24.6112  -22.1767   25.1670 C   0  0  0  0  0  0  0  0  0  0  0  0
  -23.1999   -5.4749   22.0888 C   0  0  0  0  0  0  0  0  0  0  0  0
  -23.7865   -4.4587   22.8431 C   0  0  0  0  0  0  0  0  0  0  0  0
  -26.4592  -22.6738   26.6357 C   0  0  0  0  0  0  0  0  0  0  0  0
  -29.8784  -17.4514   23.0938 C   0  0  0  0  0  0  0  0  0  0  0  0
  -22.0614   -4.7050   24.5165 C   0  0  0  0  0  0  0  0  0  0  0  0
  -23.7453  -10.4881   21.0014 C   0  0  0  0  0  0  0  0  0  0  0  0
  -31.8494  -18.3480   24.1655 C   0  0  0  0  0  0  0  0  0  0  0  0
  -24.1316  -13.0033   20.8216 C   0  0  0  0  0  0  0  0  0  0  0  0
  -26.1898  -31.8067   24.6529 C   0  0  0  0  0  0  0  0  0  0  0  0
  -24.7195  -24.3227   26.2975 C   0  0  0  0  0  0  0  0  0  0  0  0
  -25.8434  -30.4935   24.2818 C   0  0  0  0  0  0  0  0  0  0  0  0
  -25.9186  -23.9383   26.9144 C   0  0  0  0  0  0  0  0  0  0  0  0
  -30.6740  -16.5534   22.3822 C   0  0  0  0  0  0  0  0  0  0  0  0
  -30.4662  -18.3487   23.9855 C   0  0  0  0  0  0  0  0  0  0  0  0
  -22.2110   -8.2205   21.5366 C   0  0  0  0  0  0  0  0  0  0  0  0
  -25.8096  -21.7987   25.7654 C   0  0  0  0  0  0  0  0  0  0  0  0
  -22.0441   -6.1062   22.5485 C   0  0  0  0  0  0  0  0  0  0  0  0
  -23.2173   -4.0737   24.0569 C   0  0  0  0  0  0  0  0  0  0  0  0
  -21.4748   -5.7212   23.7623 C   0  0  0  0  0  0  0  0  0  0  0  0
  -24.5384  -11.6590   20.7255 C   0  0  0  0  0  0  0  0  0  0  0  0
  -25.2419  -13.7249   20.4568 C   0  0  0  0  0  0  0  0  0  0  0  0
  -32.4836  -19.2696   25.0857 C   0  0  0  0  0  0  0  0  0  0  0  0
  -22.8635  -13.5507   21.2062 C   0  0  0  0  0  0  0  0  0  0  0  0
  -25.9915  -27.2192   25.9878 C   0  0  0  0  0  0  0  0  0  0  0  0
  -26.3666  -26.9719   29.2003 C   0  0  0  0  0  0  0  0  0  0  0  0
  -28.2575  -19.3691   24.6293 C   0  0  0  0  0  0  0  0  0  0  0  0
  -26.6697  -24.9527   31.9349 C   0  0  0  0  0  0  0  0  0  0  0  0
  -30.7215  -14.6846   20.6935 C   0  0  0  0  0  0  0  0  0  0  0  0
  -27.4076  -32.0985   25.4934 C   0  0  0  0  0  0  0  0  0  0  0  0
  -24.1043  -25.6623   26.5964 C   0  0  0  0  0  0  0  0  0  0  0  0
  -26.6494  -24.8503   27.8645 C   0  0  0  0  0  0  0  0  0  0  0  0
  -27.9388  -30.8779   26.2405 C   0  0  0  0  0  0  0  0  0  0  0  0
  -29.6042  -12.2283   18.3707 C   0  0  0  0  0  0  0  0  0  0  0  0
  -28.0159  -29.6732   25.3080 C   0  0  0  0  0  0  0  0  0  0  0  0
  -28.1532  -11.9718   18.7841 C   0  0  0  0  0  0  0  0  0  0  0  0
  -30.5039  -12.4734   19.5808 C   0  0  0  0  0  0  0  0  0  0  0  0
  -28.5877  -13.2650   20.9115 C   0  0  0  0  0  0  0  0  0  0  0  0
  -26.6276  -29.2973   24.7763 C   0  0  1  0  0  0  0  0  0  0  0  0
  -25.1190  -26.6890   27.0901 C   0  0  1  0  0  0  0  0  0  0  0  0
  -27.6309  -13.0770   19.7229 C   0  0  2  0  0  0  0  0  0  0  0  0
  -27.0020  -25.0397   34.4207 C   0  0  0  0  0  0  0  0  0  0  0  0
  -29.3167  -27.6283   28.7805 C   0  0  0  0  0  0  0  0  0  0  0  0
  -29.7629  -26.7795   31.0932 C   0  0  0  0  0  0  0  0  0  0  0  0
  -28.2695  -28.7489   30.7558 C   0  0  0  0  0  0  0  0  0  0  0  0
  -24.0886  -23.5971   32.4441 C   0  0  0  0  0  0  0  0  0  0  0  0
  -27.7661  -20.4625   25.5597 C   0  0  0  0  0  0  0  0  0  1  0  0
  -27.4479  -26.4459   30.1130 C   0  0  1  0  0  0  0  0  0  0  0  0
  -25.9864  -24.9831   33.2901 C   0  0  2  0  0  0  0  0  0  0  0  0
  -28.6867  -27.3840   30.1663 C   0  0  0  0  0  0  0  0  0  0  0  0
  -25.8079  -11.5314   20.3305 N   0  0  0  0  0  0  0  0  0  0  0  0
  -26.2084  -12.8048   20.1751 N   0  0  0  0  0  0  0  0  0  0  0  0
  -26.0110  -26.1521   28.1199 N   0  0  0  0  0  0  0  0  0  0  0  0
  -29.9485  -13.5359   20.4219 N   0  0  0  0  0  0  0  0  0  0  0  0
  -25.4759  -15.0504   20.3528 N   0  0  0  0  0  0  0  0  0  0  0  0
  -32.6693  -18.9261   26.3700 N   0  0  0  0  0  0  0  0  0  0  0  0
  -21.8312  -12.6675   21.5504 N   0  0  0  0  0  0  0  0  0  0  0  0
  -29.6414  -19.2504   24.6990 N   0  0  0  0  0  0  0  0  0  0  0  0
  -30.0769  -15.6413   21.4770 N   0  0  0  0  0  0  0  0  0  0  0  0
  -25.8767  -28.5813   25.7852 N   0  0  0  0  0  0  0  0  0  0  0  0
  -26.8146  -26.2184   31.4075 N   0  0  0  0  0  0  0  0  0  0  0  0
  -32.8938  -20.4758   24.6630 N   0  3  0  0  0  0  0  0  0  0  0  0
  -25.1459  -23.7663   33.4739 N   0  3  0  0  0  0  0  0  0  0  0  0
  -22.6472  -14.7862   21.2278 O   0  0  0  0  0  0  0  0  0  0  0  0
  -26.7164  -26.4498   25.3679 O   0  0  0  0  0  0  0  0  0  0  0  0
  -25.8514  -28.0665   29.4413 O   0  0  0  0  0  0  0  0  0  0  0  0
  -27.4819  -18.7176   23.9375 O   0  0  0  0  0  0  0  0  0  0  0  0
  -27.0412  -23.9107   31.3995 O   0  0  0  0  0  0  0  0  0  0  0  0
  -31.8605  -14.8224   20.2401 O   0  0  0  0  0  0  0  0  0  0  0  0
  -21.4624   -7.1143   21.7982 O   0  0  0  0  0  0  0  0  0  0  0  0
  -26.3446  -20.5747   25.5056 O   0  0  0  0  0  0  0  0  0  1  0  0
  -23.7799   -3.0968   24.7803 F   0  0  0  0  0  0  0  0  0  0  0  0
  -20.3638   -6.3231   24.2085 F   0  0  0  0  0  0  0  0  0  0  0  0
  1  2  1  0  0  0  0
  1  6  2  0  0  0  0
  2  7  2  0  0  0  0
  3 10  2  0  0  0  0
  3 18  1  0  0  0  0
  4 11  1  0  0  0  0
  4 18  2  0  0  0  0
  5  9  2  0  0  0  0
  5 19  1  0  0  0  0
  6 21  1  0  0  0  0
  7 23  1  0  0  0  0
  8 12  2  0  0  0  0
  8 22  1  0  0  0  0
  9 25  1  0  0  0  0
 10 27  1  0  0  0  0
 11 27  2  0  0  0  0
 12 28  1  0  0  0  0
 13 14  2  0  0  0  0
 13 29  1  0  0  0  0
 14 30  1  0  0  0  0
 15 24  1  0  0  0  0
 15 28  2  0  0  0  0
 16 25  2  0  0  0  0
 16 26  1  0  0  0  0
 17 30  2  0  0  0  0
 17 31  1  0  0  0  0
 18 32  1  0  0  0  0
 19 26  2  0  0  0  0
 19 34  1  0  0  0  0
 20 32  1  0  0  0  0
 20 33  2  0  0  0  0
 20 35  1  0  0  0  0
 21 23  2  0  0  0  0
 21 41  1  0  0  0  0
 22 24  2  0  0  0  0
 22 42  1  0  0  0  0
 23 50  1  0  0  0  0
 24 43  1  0  0  0  0
 25 70  1  0  0  0  0
 26 69  1  0  0  0  0
 27 81  1  0  0  0  0
 28 82  1  0  0  0  0
 29 31  2  0  0  0  0
 29 81  1  0  0  0  0
 30 83  1  0  0  0  0
 31 84  1  0  0  0  0
 32 62  2  0  0  0  0
 33 63  1  0  0  0  0
 33 66  1  0  0  0  0
 34 67  1  0  0  0  0
 34 73  2  0  0  0  0
 35 68  1  0  0  0  0
 35 75  2  0  0  0  0
 36 51  1  0  0  0  0
 36 71  1  0  0  0  0
 36 76  2  0  0  0  0
 37 59  1  0  0  0  0
 37 64  1  0  0  0  0
 37 77  2  0  0  0  0
 38 58  1  0  0  0  0
 38 69  1  0  0  0  0
 38 78  2  0  0  0  0
 39 60  1  0  0  0  0
 39 72  1  0  0  0  0
 39 79  2  0  0  0  0
 40 65  1  0  0  0  0
 40 70  1  0  0  0  0
 40 80  2  0  0  0  0
 41 44  1  0  0  0  0
 42 51  1  0  0  0  0
 43 64  1  0  0  0  0
 44 46  1  0  0  0  0
 45 47  1  0  0  0  0
 45 48  1  0  0  0  0
 46 50  1  0  0  0  0
 47 52  1  0  0  0  0
 48 65  1  0  0  0  0
 49 52  1  0  0  0  0
 49 65  1  0  0  0  0
 50 71  1  0  0  0  0
 51 64  1  0  0  0  0
 52 63  1  0  0  0  0
 53 60  1  0  0  0  0
 54 61  1  0  0  0  0
 55 61  1  0  0  0  0
 56 61  1  0  0  0  0
 57 74  1  0  0  0  0
 58 82  1  0  0  0  0
 59 61  1  0  0  0  0
 59 72  1  0  0  0  0
 60 74  1  0  0  0  0
 62 63  1  0  0  0  0
M  CHG  2  73   1  74   1
M  ISO  4  40 100  58 101  70 100  82 101
M  END
> <Batch ID>
0070

> <Smiles>
CNC(C)C(=O)NC(C(=O)N1Cc2cc([101O:1][101CH2:1]C(=O)Nc3cc([100NH:0][100C:0](=O)N4CCCC(n5nc(-c6ccc(Oc7ccc(F)cc7F)cc6)c(C(N)=O)c5N)C4)ccc3C(=N)N)ccc2CC1C(=O)NC1CCCc2ccccc21)C(C)(C)C

> <Shape>
0.236

> <Color>
0.186

> <Negative vol penalty>
0.000

$$$$
