
  -OEChem-04042323353D

 86 95  0     1  0  0  0  0  0999 V2000
  -19.9214  -27.3937   25.9281 C   0  0  0  0  0  0  0  0  0  0  0  0
  -21.2654  -27.0376   25.9768 C   0  0  0  0  0  0  0  0  0  0  0  0
  -23.1796   -9.8123   21.4016 C   0  0  0  0  0  0  0  0  0  0  0  0
  -23.8454  -10.7903   23.5081 C   0  0  0  0  0  0  0  0  0  0  0  0
  -19.2664  -27.4727   24.6999 C   0  0  0  0  0  0  0  0  0  0  0  0
  -21.9548  -26.7591   24.7971 C   0  0  0  0  0  0  0  0  0  0  0  0
  -28.4711  -27.3180   21.8744 C   0  0  0  0  0  0  0  0  0  0  0  0
  -22.4584   -8.8328   22.0842 C   0  0  0  0  0  0  0  0  0  0  0  0
  -23.1241   -9.8108   24.1908 C   0  0  0  0  0  0  0  0  0  0  0  0
  -29.4300  -26.5425   21.2243 C   0  0  0  0  0  0  0  0  0  0  0  0
  -19.8975   -9.1956   24.9850 C   0  0  0  0  0  0  0  0  0  0  0  0
  -19.0951   -9.6073   26.0491 C   0  0  0  0  0  0  0  0  0  0  0  0
  -28.2163  -26.7882   19.1540 C   0  0  0  0  0  0  0  0  0  0  0  0
  -29.4288  -19.6568   19.9235 C   0  0  0  0  0  0  0  0  0  0  0  0
  -31.0025  -17.5514   18.9888 C   0  0  0  0  0  0  0  0  0  0  0  0
  -20.3587   -8.1957   27.5483 C   0  0  0  0  0  0  0  0  0  0  0  0
  -23.8732  -10.7910   22.1135 C   0  0  0  0  0  0  0  0  0  0  0  0
  -24.1497  -13.0571   20.9750 C   0  0  0  0  0  0  0  0  0  0  0  0
  -19.9506  -27.2044   23.5039 C   0  0  0  0  0  0  0  0  0  0  0  0
  -27.3699  -27.8262   21.1704 C   0  0  0  0  0  0  0  0  0  0  0  0
  -21.3080  -26.8333   23.5518 C   0  0  0  0  0  0  0  0  0  0  0  0
  -27.2462  -27.5720   19.7971 C   0  0  0  0  0  0  0  0  0  0  0  0
  -30.3473  -19.8751   18.8967 C   0  0  0  0  0  0  0  0  0  0  0  0
  -30.0840  -17.3332   20.0156 C   0  0  0  0  0  0  0  0  0  0  0  0
  -22.4306   -8.8321   23.4788 C   0  0  0  0  0  0  0  0  0  0  0  0
  -29.3012  -26.2750   19.8645 C   0  0  0  0  0  0  0  0  0  0  0  0
  -20.9305   -8.2838   25.2026 C   0  0  0  0  0  0  0  0  0  0  0  0
  -19.3257   -9.1074   27.3307 C   0  0  0  0  0  0  0  0  0  0  0  0
  -29.2972  -18.3859   20.4830 C   0  0  0  0  0  0  0  0  0  0  0  0
  -31.1341  -18.8224   18.4293 C   0  0  0  0  0  0  0  0  0  0  0  0
  -21.1611   -7.7839   26.4842 C   0  0  0  0  0  0  0  0  0  0  0  0
  -24.6189  -11.8027   21.4089 C   0  0  0  0  0  0  0  0  0  0  0  0
  -25.2345  -13.6369   20.3639 C   0  0  0  0  0  0  0  0  0  0  0  0
  -30.2641  -22.4079   18.9792 C   0  0  0  0  0  0  0  0  0  0  0  0
  -22.8495  -13.6456   21.1122 C   0  0  0  0  0  0  0  0  0  0  0  0
  -24.2190  -27.4543   21.3625 C   0  0  0  0  0  0  0  0  0  0  0  0
  -24.1987  -29.7739   19.0950 C   0  0  0  0  0  0  0  0  0  0  0  0
  -25.8578  -31.3895   16.5882 C   0  0  0  0  0  0  0  0  0  0  0  0
  -30.6582  -14.8900   20.2335 C   0  0  0  0  0  0  0  0  0  0  0  0
  -19.1880  -27.2568   22.2037 C   0  0  0  0  0  0  0  0  0  0  0  0
  -26.3584  -28.6834   21.8806 C   0  0  0  0  0  0  0  0  0  0  0  0
  -26.0934  -28.1111   18.9915 C   0  0  0  0  0  0  0  0  0  0  0  0
  -20.0876  -27.3110   20.9716 C   0  0  0  0  0  0  0  0  0  0  0  0
  -29.7078  -11.6733   19.0388 C   0  0  0  0  0  0  0  0  0  0  0  0
  -21.2011  -26.2738   21.0777 C   0  0  0  0  0  0  0  0  0  0  0  0
  -28.2606  -11.5234   19.5132 C   0  0  0  0  0  0  0  0  0  0  0  0
  -30.5422  -22.8112   16.6502 C   0  0  0  0  0  0  0  0  0  0  0  0
  -30.5668  -12.4126   20.0633 C   0  0  0  0  0  0  0  0  0  0  0  0
  -30.9259  -21.3782   16.9605 C   0  0  0  0  0  0  0  0  0  0  0  0
  -28.5861  -13.5589   20.9754 C   0  0  0  0  0  0  0  0  0  0  0  0
  -22.0965  -26.5479   22.2921 C   0  0  1  0  0  0  0  0  0  0  0  0
  -30.6603  -23.5020   18.0010 C   0  0  1  0  0  0  0  0  0  0  0  0
  -25.0061  -28.7205   21.1753 C   0  0  1  0  0  0  0  0  0  0  0  0
  -27.6670  -12.8777   19.9483 C   0  0  2  0  0  0  0  0  0  0  0  0
  -25.5690  -33.2175   14.8933 C   0  0  0  0  0  0  0  0  0  0  0  0
  -22.4783  -27.9181   17.3903 C   0  0  0  0  0  0  0  0  0  0  0  0
  -23.0157  -29.3528   15.4102 C   0  0  0  0  0  0  0  0  0  0  0  0
  -21.7792  -30.3189   17.3493 C   0  0  0  0  0  0  0  0  0  0  0  0
  -28.0799  -32.9683   17.7410 C   0  0  0  0  0  0  0  0  0  0  0  0
  -29.7938  -24.7422   18.1141 C   0  0  0  0  0  0  0  0  0  1  0  0
  -24.2411  -29.7943   17.5861 C   0  0  1  0  0  0  0  0  0  0  0  0
  -26.0466  -32.8668   16.2939 C   0  0  2  0  0  0  0  0  0  0  0  0
  -22.8994  -29.3341   16.9493 C   0  0  0  0  0  0  0  0  0  0  0  0
  -25.9018  -11.5969   21.0995 N   0  0  0  0  0  0  0  0  0  0  0  0
  -26.2480  -12.7297   20.4647 N   0  0  0  0  0  0  0  0  0  0  0  0
  -30.4801  -21.1767   18.3266 N   0  0  0  0  0  0  0  0  0  0  0  0
  -25.1271  -28.9387   19.7324 N   0  0  0  0  0  0  0  0  0  0  0  0
  -29.9444  -13.6880   20.4248 N   0  0  0  0  0  0  0  0  0  0  0  0
  -25.4108  -14.8290   19.7556 N   0  0  0  0  0  0  0  0  0  0  0  0
  -21.8503  -12.9130   21.7673 N   0  0  0  0  0  0  0  0  0  0  0  0
  -29.9528  -16.0412   20.5825 N   0  0  0  0  0  0  0  0  0  0  0  0
  -23.0117  -27.6330   22.0106 N   0  0  0  0  0  0  0  0  0  0  0  0
  -24.6509  -31.1423   17.2074 N   0  0  0  0  0  0  0  0  0  0  0  0
  -27.4856  -33.2376   16.4063 N   0  3  0  0  0  0  0  0  0  0  0  0
  -29.8972  -22.6336   20.1233 O   0  0  0  0  0  0  0  0  0  0  0  0
  -22.5772  -14.7805   20.6527 O   0  0  0  0  0  0  0  0  0  0  0  0
  -24.6726  -26.3940   20.9482 O   0  0  0  0  0  0  0  0  0  0  0  0
  -23.3771  -30.4787   19.6865 O   0  0  0  0  0  0  0  0  0  0  0  0
  -26.6955  -30.5395   16.2946 O   0  0  0  0  0  0  0  0  0  0  0  0
  -31.8002  -14.8994   19.7669 O   0  0  0  0  0  0  0  0  0  0  0  0
  -21.7267   -7.8766   24.1453 O   0  0  0  0  0  0  0  0  0  0  0  0
  -30.2355  -25.5178   19.2276 O   0  0  0  0  0  0  0  0  0  1  0  0
  -18.5561   -9.5041   28.3527 F   0  0  0  0  0  0  0  0  0  0  0  0
  -28.4107  -18.1876   21.4692 F   0  0  0  0  0  0  0  0  0  0  0  0
  -32.0197  -19.0205   17.4424 F   0  0  0  0  0  0  0  0  0  0  0  0
  -22.1527   -6.9086   26.6996 F   0  0  0  0  0  0  0  0  0  0  0  0
  1  2  1  0  0  0  0
  1  5  2  0  0  0  0
  2  6  2  0  0  0  0
  3  8  2  0  0  0  0
  3 17  1  0  0  0  0
  4  9  1  0  0  0  0
  4 17  2  0  0  0  0
  5 19  1  0  0  0  0
  6 21  1  0  0  0  0
  7 10  2  0  0  0  0
  7 20  1  0  0  0  0
  8 25  1  0  0  0  0
  9 25  2  0  0  0  0
 10 26  1  0  0  0  0
 11 12  2  0  0  0  0
 11 27  1  0  0  0  0
 12 28  1  0  0  0  0
 13 22  1  0  0  0  0
 13 26  2  0  0  0  0
 14 23  1  0  0  0  0
 14 29  2  0  0  0  0
 15 24  2  0  0  0  0
 15 30  1  0  0  0  0
 16 28  2  0  0  0  0
 16 31  1  0  0  0  0
 17 32  1  0  0  0  0
 18 32  1  0  0  0  0
 18 33  2  0  0  0  0
 18 35  1  0  0  0  0
 19 21  2  0  0  0  0
 19 40  1  0  0  0  0
 20 22  2  0  0  0  0
 20 41  1  0  0  0  0
 21 51  1  0  0  0  0
 22 42  1  0  0  0  0
 23 30  2  0  0  0  0
 23 66  1  0  0  0  0
 24 29  1  0  0  0  0
 24 71  1  0  0  0  0
 25 81  1  0  0  0  0
 26 82  1  0  0  0  0
 27 31  2  0  0  0  0
 27 81  1  0  0  0  0
 28 83  1  0  0  0  0
 29 84  1  0  0  0  0
 30 85  1  0  0  0  0
 31 86  1  0  0  0  0
 32 64  2  0  0  0  0
 33 65  1  0  0  0  0
 33 69  1  0  0  0  0
 34 52  1  0  0  0  0
 34 66  1  0  0  0  0
 34 75  2  0  0  0  0
 35 70  1  0  0  0  0
 35 76  2  0  0  0  0
 36 53  1  0  0  0  0
 36 72  1  0  0  0  0
 36 77  2  0  0  0  0
 37 61  1  0  0  0  0
 37 67  1  0  0  0  0
 37 78  2  0  0  0  0
 38 62  1  0  0  0  0
 38 73  1  0  0  0  0
 38 79  2  0  0  0  0
 39 68  1  0  0  0  0
 39 71  1  0  0  0  0
 39 80  2  0  0  0  0
 40 43  1  0  0  0  0
 41 53  1  0  0  0  0
 42 67  1  0  0  0  0
 43 45  1  0  0  0  0
 44 46  1  0  0  0  0
 44 48  1  0  0  0  0
 45 51  1  0  0  0  0
 46 54  1  0  0  0  0
 47 49  1  0  0  0  0
 47 52  1  0  0  0  0
 48 68  1  0  0  0  0
 49 66  1  0  0  0  0
 50 54  1  0  0  0  0
 50 68  1  0  0  0  0
 51 72  1  0  0  0  0
 52 60  1  0  0  0  0
 53 67  1  0  0  0  0
 54 65  1  0  0  0  0
 55 62  1  0  0  0  0
 56 63  1  0  0  0  0
 57 63  1  0  0  0  0
 58 63  1  0  0  0  0
 59 74  1  0  0  0  0
 60 82  1  0  0  0  0
 61 63  1  0  0  0  0
 61 73  1  0  0  0  0
 62 74  1  0  0  0  0
 64 65  1  0  0  0  0
M  CHG  1  74   1
M  ISO  4  39 100  60 101  71 100  82 101
M  END
> <Batch ID>
0071

> <Smiles>
CNC(C)C(=O)NC(C(=O)N1Cc2cc([101O:1][101CH2:1]C3CCN(c4cc(F)c([100NH:0][100C:0](=O)N5CCCC(n6nc(-c7ccc(Oc8ccc(F)cc8F)cc7)c(C(N)=O)c6N)C5)cc4F)C3=O)ccc2CC1C(=O)NC1CCCc2ccccc21)C(C)(C)C

> <Shape>
0.291

> <Color>
0.171

> <Negative vol penalty>
0.000

$$$$

  -OEChem-04042323353D

 83 91  0     1  0  0  0  0  0999 V2000
  -30.9093  -24.8983   17.7717 C   0  0  0  0  0  0  0  0  0  0  0  0
  -29.5764  -24.9551   18.1662 C   0  0  0  0  0  0  0  0  0  0  0  0
  -26.5357  -12.7166   20.9315 C   0  0  0  0  0  0  0  0  0  0  0  0
  -25.3400  -13.9828   19.2570 C   0  0  0  0  0  0  0  0  0  0  0  0
  -21.8689  -23.2477   22.3456 C   0  0  0  0  0  0  0  0  0  0  0  0
  -22.2002  -22.5445   20.0581 C   0  0  0  0  0  0  0  0  0  0  0  0
  -31.8870  -25.5433   18.5281 C   0  0  0  0  0  0  0  0  0  0  0  0
  -29.2206  -25.6560   19.3179 C   0  0  0  0  0  0  0  0  0  0  0  0
  -25.1254  -28.5567   18.6395 C   0  0  0  0  0  0  0  0  0  0  0  0
  -22.9516  -22.4636   22.7435 C   0  0  0  0  0  0  0  0  0  0  0  0
  -23.2830  -21.7604   20.4560 C   0  0  0  0  0  0  0  0  0  0  0  0
  -25.7981  -11.5803   20.5991 C   0  0  0  0  0  0  0  0  0  0  0  0
  -24.6024  -12.8465   18.9246 C   0  0  0  0  0  0  0  0  0  0  0  0
  -23.8851  -27.9202   18.6524 C   0  0  0  0  0  0  0  0  0  0  0  0
  -22.7149  -10.3429   21.2208 C   0  0  0  0  0  0  0  0  0  0  0  0
  -22.2017   -9.5754   22.2664 C   0  0  0  0  0  0  0  0  0  0  0  0
  -23.5525  -28.6276   20.9345 C   0  0  0  0  0  0  0  0  0  0  0  0
  -23.4640   -7.6687   21.4864 C   0  0  0  0  0  0  0  0  0  0  0  0
  -26.3066  -13.9178   20.2605 C   0  0  0  0  0  0  0  0  0  0  0  0
  -21.4931  -23.2881   21.0029 C   0  0  0  0  0  0  0  0  0  0  0  0
  -28.2910  -15.5061   20.0433 C   0  0  0  0  0  0  0  0  0  0  0  0
  -31.5418  -26.2606   19.6843 C   0  0  0  0  0  0  0  0  0  0  0  0
  -25.5942  -29.2253   19.7795 C   0  0  0  0  0  0  0  0  0  0  0  0
  -30.1948  -26.3101   20.0912 C   0  0  0  0  0  0  0  0  0  0  0  0
  -24.7980  -29.2740   20.9327 C   0  0  0  0  0  0  0  0  0  0  0  0
  -23.6587  -21.7200   21.7987 C   0  0  0  0  0  0  0  0  0  0  0  0
  -24.8315  -11.6453   19.5956 C   0  0  0  0  0  0  0  0  0  0  0  0
  -23.0997  -27.9531   19.8010 C   0  0  0  0  0  0  0  0  0  0  0  0
  -23.6025   -9.7732   20.3079 C   0  0  0  0  0  0  0  0  0  0  0  0
  -22.5763   -8.2384   22.3992 C   0  0  0  0  0  0  0  0  0  0  0  0
  -23.9771   -8.4362   20.4407 C   0  0  0  0  0  0  0  0  0  0  0  0
  -27.0679  -15.0920   20.6038 C   0  0  0  0  0  0  0  0  0  0  0  0
  -28.5953  -16.6705   20.7052 C   0  0  0  0  0  0  0  0  0  0  0  0
  -20.3500  -24.1156   20.5827 C   0  0  0  0  0  0  0  0  0  0  0  0
  -29.0814  -14.8932   19.0160 C   0  0  0  0  0  0  0  0  0  0  0  0
  -28.0946  -28.8822   21.7118 C   0  0  0  0  0  0  0  0  0  0  0  0
  -26.9733  -31.6340   23.0128 C   0  0  0  0  0  0  0  0  0  0  0  0
  -24.3233  -33.7171   23.5463 C   0  0  0  0  0  0  0  0  0  0  0  0
  -25.2624  -20.7714   23.4943 C   0  0  0  0  0  0  0  0  0  0  0  0
  -21.9374  -25.9969   20.2343 C   0  0  0  0  0  0  0  0  0  1  0  0
  -32.6396  -26.9019   20.4956 C   0  0  0  0  0  0  0  0  0  0  0  0
  -26.9226  -29.9297   19.7408 C   0  0  0  0  0  0  0  0  0  0  0  0
  -25.2466  -29.9957   22.1762 C   0  0  0  0  0  0  0  0  0  0  0  0
  -32.1322  -27.9371   21.4962 C   0  0  0  0  0  0  0  0  0  0  0  0
  -27.9270  -18.8761   24.9031 C   0  0  0  0  0  0  0  0  0  0  0  0
  -30.9330  -27.3926   22.2658 C   0  0  0  0  0  0  0  0  0  0  0  0
  -28.1244  -17.7317   23.9064 C   0  0  0  0  0  0  0  0  0  0  0  0
  -26.4531  -19.2479   25.0551 C   0  0  0  0  0  0  0  0  0  0  0  0
  -25.9502  -18.3922   22.8003 C   0  0  0  0  0  0  0  0  0  0  0  0
  -29.7662  -27.0811   21.3208 C   0  0  1  0  0  0  0  0  0  0  0  0
  -27.5262  -30.1434   21.1255 C   0  0  1  0  0  0  0  0  0  0  0  0
  -27.4246  -18.0257   22.5650 C   0  0  2  0  0  0  0  0  0  0  0  0
  -23.7074  -35.8713   24.6767 C   0  0  0  0  0  0  0  0  0  0  0  0
  -27.0028  -30.2207   25.7168 C   0  0  0  0  0  0  0  0  0  0  0  0
  -25.5241  -32.0361   26.6034 C   0  0  0  0  0  0  0  0  0  0  0  0
  -27.8089  -32.5876   25.7679 C   0  0  0  0  0  0  0  0  0  0  0  0
  -17.8914  -24.3027   20.1717 C   0  0  0  0  0  0  0  0  0  0  0  0
  -23.5280  -34.9684   20.9850 C   0  0  0  0  0  0  0  0  0  0  0  0
  -25.9979  -31.9767   24.1128 C   0  0  1  0  0  0  0  0  0  0  0  0
  -24.1742  -35.2192   23.3846 C   0  0  2  0  0  0  0  0  0  0  0  0
  -26.5756  -31.6900   25.5276 C   0  0  0  0  0  0  0  0  0  0  0  0
  -26.6255  -15.9255   21.5492 N   0  0  0  0  0  0  0  0  0  0  0  0
  -27.5759  -16.8749   21.5878 N   0  0  0  0  0  0  0  0  0  0  0  0
  -26.5559  -30.6636   22.0909 N   0  0  0  0  0  0  0  0  0  0  0  0
  -25.8575  -19.5168   23.7444 N   0  0  0  0  0  0  0  0  0  0  0  0
  -29.6329  -17.5292   20.6125 N   0  0  0  0  0  0  0  0  0  0  0  0
  -28.6222  -13.6996   18.4424 N   0  0  0  0  0  0  0  0  0  0  0  0
  -24.7587  -20.9235   22.2028 N   0  0  0  0  0  0  0  0  0  0  0  0
  -20.6370  -25.3783   20.2360 N   0  0  0  0  0  0  0  0  0  0  0  0
  -29.0834  -28.2997   20.9421 N   0  0  0  0  0  0  0  0  0  0  0  0
  -25.6101  -33.3663   23.8962 N   0  0  0  0  0  0  0  0  0  0  0  0
  -19.1158  -23.5962   20.5661 N   0  3  0  0  0  0  0  0  0  0  0  0
  -23.1823  -35.5292   22.3165 N   0  3  0  0  0  0  0  0  0  0  0  0
  -30.1709  -15.3804   18.6300 O   0  0  0  0  0  0  0  0  0  0  0  0
  -27.6687  -28.4689   22.7840 O   0  0  0  0  0  0  0  0  0  0  0  0
  -28.0625  -32.2113   22.9688 O   0  0  0  0  0  0  0  0  0  0  0  0
  -23.3906  -32.9337   23.3826 O   0  0  0  0  0  0  0  0  0  0  0  0
  -25.2282  -21.6563   24.3532 O   0  0  0  0  0  0  0  0  0  0  0  0
  -22.9436  -25.3867   20.5678 O   0  0  0  0  0  0  0  0  0  0  0  0
  -24.1117  -10.5367   19.2708 O   0  0  0  0  0  0  0  0  0  0  0  0
  -21.8889  -27.3321   19.8164 O   0  0  0  0  0  0  0  0  0  1  0  0
  -22.0846   -7.5019   23.4043 F   0  0  0  0  0  0  0  0  0  0  0  0
  -24.8304   -7.8838   19.5675 F   0  0  0  0  0  0  0  0  0  0  0  0
  1  2  1  0  0  0  0
  1  7  2  0  0  0  0
  2  8  2  0  0  0  0
  3 12  2  0  0  0  0
  3 19  1  0  0  0  0
  4 13  1  0  0  0  0
  4 19  2  0  0  0  0
  5 10  2  0  0  0  0
  5 20  1  0  0  0  0
  6 11  1  0  0  0  0
  6 20  2  0  0  0  0
  7 22  1  0  0  0  0
  8 24  1  0  0  0  0
  9 14  2  0  0  0  0
  9 23  1  0  0  0  0
 10 26  1  0  0  0  0
 11 26  2  0  0  0  0
 12 27  1  0  0  0  0
 13 27  2  0  0  0  0
 14 28  1  0  0  0  0
 15 16  2  0  0  0  0
 15 29  1  0  0  0  0
 16 30  1  0  0  0  0
 17 25  1  0  0  0  0
 17 28  2  0  0  0  0
 18 30  2  0  0  0  0
 18 31  1  0  0  0  0
 19 32  1  0  0  0  0
 20 34  1  0  0  0  0
 21 32  1  0  0  0  0
 21 33  2  0  0  0  0
 21 35  1  0  0  0  0
 22 24  2  0  0  0  0
 22 41  1  0  0  0  0
 23 25  2  0  0  0  0
 23 42  1  0  0  0  0
 24 50  1  0  0  0  0
 25 43  1  0  0  0  0
 26 68  1  0  0  0  0
 27 80  1  0  0  0  0
 28 81  1  0  0  0  0
 29 31  2  0  0  0  0
 29 80  1  0  0  0  0
 30 82  1  0  0  0  0
 31 83  1  0  0  0  0
 32 62  2  0  0  0  0
 33 63  1  0  0  0  0
 33 66  1  0  0  0  0
 34 69  1  0  0  0  0
 34 72  2  0  0  0  0
 35 67  1  0  0  0  0
 35 74  2  0  0  0  0
 36 51  1  0  0  0  0
 36 70  1  0  0  0  0
 36 75  2  0  0  0  0
 37 59  1  0  0  0  0
 37 64  1  0  0  0  0
 37 76  2  0  0  0  0
 38 60  1  0  0  0  0
 38 71  1  0  0  0  0
 38 77  2  0  0  0  0
 39 65  1  0  0  0  0
 39 68  1  0  0  0  0
 39 78  2  0  0  0  0
 40 69  1  0  0  0  0
 40 79  2  0  0  0  0
 40 81  1  0  0  0  0
 41 44  1  0  0  0  0
 42 51  1  0  0  0  0
 43 64  1  0  0  0  0
 44 46  1  0  0  0  0
 45 47  1  0  0  0  0
 45 48  1  0  0  0  0
 46 50  1  0  0  0  0
 47 52  1  0  0  0  0
 48 65  1  0  0  0  0
 49 52  1  0  0  0  0
 49 65  1  0  0  0  0
 50 70  1  0  0  0  0
 51 64  1  0  0  0  0
 52 63  1  0  0  0  0
 53 60  1  0  0  0  0
 54 61  1  0  0  0  0
 55 61  1  0  0  0  0
 56 61  1  0  0  0  0
 57 72  1  0  0  0  0
 58 73  1  0  0  0  0
 59 61  1  0  0  0  0
 59 71  1  0  0  0  0
 60 73  1  0  0  0  0
 62 63  1  0  0  0  0
M  CHG  2  72   1  73   1
M  ISO  4  39 100  40 101  68 100  81 101
M  END
> <Batch ID>
0071

> <Smiles>
CNC(=N[101C:1](=O)[101O:1]c1ccc2c(c1)CN(C(=O)C(NC(=O)C(C)NC)C(C)(C)C)C(C(=O)NC1CCCc3ccccc31)C2)c1ccc([100NH:0][100C:0](=O)N2CCCC(n3nc(-c4ccc(Oc5ccc(F)cc5F)cc4)c(C(N)=O)c3N)C2)cc1

> <Shape>
0.259

> <Color>
0.076

> <Negative vol penalty>
0.000

$$$$

  -OEChem-04042323353D

 83 91  0     1  0  0  0  0  0999 V2000
  -27.4930  -32.0643   27.7234 C   0  0  0  0  0  0  0  0  0  0  0  0
  -27.6466  -30.9961   26.8455 C   0  0  0  0  0  0  0  0  0  0  0  0
  -23.3618   -9.5748   21.3660 C   0  0  0  0  0  0  0  0  0  0  0  0
  -25.7443   -9.3614   21.7058 C   0  0  0  0  0  0  0  0  0  0  0  0
  -26.2503  -32.6820   27.8573 C   0  0  0  0  0  0  0  0  0  0  0  0
  -26.5571  -30.5443   26.1017 C   0  0  0  0  0  0  0  0  0  0  0  0
  -27.7374  -29.6858   21.2524 C   0  0  0  0  0  0  0  0  0  0  0  0
  -23.2266   -8.1887   21.4438 C   0  0  0  0  0  0  0  0  0  0  0  0
  -25.6090   -7.9753   21.7836 C   0  0  0  0  0  0  0  0  0  0  0  0
  -28.4167  -28.5034   20.9622 C   0  0  0  0  0  0  0  0  0  0  0  0
  -23.1245   -5.8277   23.8621 C   0  0  0  0  0  0  0  0  0  0  0  0
  -22.0840   -5.3206   24.6404 C   0  0  0  0  0  0  0  0  0  0  0  0
  -26.3441  -27.4941   20.2516 C   0  0  0  0  0  0  0  0  0  0  0  0
  -21.1633   -4.2236   22.6947 C   0  0  0  0  0  0  0  0  0  0  0  0
  -24.6207  -10.1612   21.4969 C   0  0  0  0  0  0  0  0  0  0  0  0
  -24.1597  -12.5545   22.2499 C   0  0  0  0  0  0  0  0  0  0  0  0
  -25.1473  -32.2437   27.1076 C   0  0  0  0  0  0  0  0  0  0  0  0
  -26.3522  -29.7778   21.0544 C   0  0  0  0  0  0  0  0  0  0  0  0
  -25.2981  -31.1558   26.2266 C   0  0  0  0  0  0  0  0  0  0  0  0
  -25.6500  -28.6796   20.5377 C   0  0  0  0  0  0  0  0  0  0  0  0
  -24.3501   -7.3890   21.6526 C   0  0  0  0  0  0  0  0  0  0  0  0
  -27.7196  -27.4064   20.4644 C   0  0  0  0  0  0  0  0  0  0  0  0
  -23.1844   -5.5328   22.5000 C   0  0  0  0  0  0  0  0  0  0  0  0
  -21.1034   -4.5185   24.0567 C   0  0  0  0  0  0  0  0  0  0  0  0
  -22.2038   -4.7307   21.9163 C   0  0  0  0  0  0  0  0  0  0  0  0
  -24.7612  -11.5929   21.4161 C   0  0  0  0  0  0  0  0  0  0  0  0
  -24.6062  -13.7587   21.7630 C   0  0  0  0  0  0  0  0  0  0  0  0
  -29.7230  -19.4959   21.9441 C   0  0  0  0  0  0  0  0  0  0  0  0
  -29.7995  -18.1707   21.7234 C   0  0  0  0  0  0  0  0  0  0  0  0
  -28.0062  -25.1164   20.8449 C   0  0  0  0  0  0  0  0  0  1  0  0
  -23.2763  -12.3753   23.3650 C   0  0  0  0  0  0  0  0  0  0  0  0
  -28.5735  -23.9206   20.6586 C   0  0  0  0  0  0  0  0  0  0  0  0
  -28.1136  -22.7203   21.4177 C   0  0  0  0  0  0  0  0  0  0  0  0
  -28.8032  -16.9382   19.8748 C   0  0  0  0  0  0  0  0  0  0  0  0
  -23.8459  -30.2920   22.9406 C   0  0  0  0  0  0  0  0  0  0  0  0
  -22.2321  -30.3464   20.1272 C   0  0  0  0  0  0  0  0  0  0  0  0
  -22.0903  -29.4052   16.8499 C   0  0  0  0  0  0  0  0  0  0  0  0
  -23.8124  -32.9124   27.3212 C   0  0  0  0  0  0  0  0  0  0  0  0
  -25.6384  -31.0690   21.3472 C   0  0  0  0  0  0  0  0  0  0  0  0
  -24.1656  -28.7336   20.2881 C   0  0  0  0  0  0  0  0  0  0  0  0
  -22.7987  -32.6145   26.2195 C   0  0  0  0  0  0  0  0  0  0  0  0
  -27.0713  -14.8867   17.5017 C   0  0  0  0  0  0  0  0  0  0  0  0
  -22.7806  -31.1231   25.8997 C   0  0  0  0  0  0  0  0  0  0  0  0
  -27.3649  -19.5632   21.0089 C   0  0  0  0  0  0  0  0  0  0  0  0
  -27.2609  -18.1038   21.4514 C   0  0  0  0  0  0  0  0  0  0  0  0
  -26.2904  -13.9069   18.3765 C   0  0  0  0  0  0  0  0  0  0  0  0
  -28.4202  -15.2365   18.1221 C   0  0  0  0  0  0  0  0  0  0  0  0
  -27.5482  -14.7871   20.3935 C   0  0  0  0  0  0  0  0  0  0  0  0
  -24.1460  -30.6528   25.3841 C   0  0  1  0  0  0  0  0  0  0  0  0
  -28.4634  -20.2976   21.7804 C   0  0  2  0  0  0  0  0  0  0  0  0
  -28.5952  -17.3590   21.3079 C   0  0  2  0  0  0  0  0  0  0  0  0
  -24.1441  -30.8835   21.5920 C   0  0  1  0  0  0  0  0  0  0  0  0
  -26.1660  -14.4311   19.8181 C   0  0  2  0  0  0  0  0  0  0  0  0
  -31.0841  -17.4185   21.9355 C   0  0  0  0  0  0  0  0  0  0  0  0
  -20.6302  -29.5670   14.8153 C   0  0  0  0  0  0  0  0  0  0  0  0
  -20.3711  -28.2306   21.2974 C   0  0  0  0  0  0  0  0  0  0  0  0
  -19.5659  -27.7544   18.9751 C   0  0  0  0  0  0  0  0  0  0  0  0
  -19.2214  -30.0141   19.9739 C   0  0  0  0  0  0  0  0  0  0  0  0
  -24.1773  -30.8460   15.3243 C   0  0  0  0  0  0  0  0  0  0  0  0
  -21.5455  -29.3121   19.2684 C   0  0  1  0  0  0  0  0  0  0  0  0
  -21.7814  -30.1913   15.5886 C   0  0  2  0  0  0  0  0  0  0  0  0
  -20.2036  -28.8258   19.8851 C   0  0  0  0  0  0  0  0  0  0  0  0
  -25.5310  -12.1390   20.4711 N   0  0  0  0  0  0  0  0  0  0  0  0
  -25.4162  -13.4569   20.7080 N   0  0  0  0  0  0  0  0  0  0  0  0
  -28.2612  -15.7091   19.4986 N   0  0  0  0  0  0  0  0  0  0  0  0
  -23.5116  -30.0162   20.5960 N   0  0  0  0  0  0  0  0  0  0  0  0
  -24.3810  -15.0356   22.1386 N   0  0  0  0  0  0  0  0  0  0  0  0
  -23.8336  -12.2395   24.6438 N   0  0  0  0  0  0  0  0  0  0  0  0
  -28.7853  -21.5444   21.1300 N   0  0  0  0  0  0  0  0  0  0  0  0
  -24.3240  -31.0385   24.0006 N   0  0  0  0  0  0  0  0  0  0  0  0
  -21.4133  -29.9053   17.9421 N   0  0  0  0  0  0  0  0  0  0  0  0
  -29.6258  -23.7771   19.7267 N   0  3  0  0  0  0  0  0  0  0  0  0
  -22.9764  -30.2342   14.6992 N   0  3  0  0  0  0  0  0  0  0  0  0
  -22.0305  -12.3202   23.2292 O   0  0  0  0  0  0  0  0  0  0  0  0
  -27.1997  -22.8083   22.2373 O   0  0  0  0  0  0  0  0  0  0  0  0
  -29.4265  -17.6824   19.1132 O   0  0  0  0  0  0  0  0  0  0  0  0
  -23.2265  -29.2371   23.0141 O   0  0  0  0  0  0  0  0  0  0  0  0
  -21.6575  -31.4112   20.3672 O   0  0  0  0  0  0  0  0  0  0  0  0
  -22.8527  -28.4413   16.8641 O   0  0  0  0  0  0  0  0  0  0  0  0
  -24.2185   -6.0364   21.7288 O   0  0  0  0  0  0  0  0  0  0  0  0
  -28.3802  -26.2509   20.1809 O   0  0  0  0  0  0  0  0  0  1  0  0
  -20.1051   -4.0304   24.8046 F   0  0  0  0  0  0  0  0  0  0  0  0
  -22.2566   -4.4430   20.6086 F   0  0  0  0  0  0  0  0  0  0  0  0
  1  2  1  0  0  0  0
  1  5  2  0  0  0  0
  2  6  2  0  0  0  0
  3  8  2  0  0  0  0
  3 15  1  0  0  0  0
  4  9  1  0  0  0  0
  4 15  2  0  0  0  0
  5 17  1  0  0  0  0
  6 19  1  0  0  0  0
  7 10  2  0  0  0  0
  7 18  1  0  0  0  0
  8 21  1  0  0  0  0
  9 21  2  0  0  0  0
 10 22  1  0  0  0  0
 11 12  2  0  0  0  0
 11 23  1  0  0  0  0
 12 24  1  0  0  0  0
 13 20  1  0  0  0  0
 13 22  2  0  0  0  0
 14 24  2  0  0  0  0
 14 25  1  0  0  0  0
 15 26  1  0  0  0  0
 16 26  1  0  0  0  0
 16 27  2  0  0  0  0
 16 31  1  0  0  0  0
 17 19  2  0  0  0  0
 17 38  1  0  0  0  0
 18 20  2  0  0  0  0
 18 39  1  0  0  0  0
 19 49  1  0  0  0  0
 20 40  1  0  0  0  0
 21 80  1  0  0  0  0
 22 81  1  0  0  0  0
 23 25  2  0  0  0  0
 23 80  1  0  0  0  0
 24 82  1  0  0  0  0
 25 83  1  0  0  0  0
 26 63  2  0  0  0  0
 27 64  1  0  0  0  0
 27 67  1  0  0  0  0
 28 29  2  0  0  0  0
 28 50  1  0  0  0  0
 29 51  1  0  0  0  0
 29 54  1  0  0  0  0
 30 32  2  0  0  0  0
 30 81  1  0  0  0  0
 31 68  1  0  0  0  0
 31 74  2  0  0  0  0
 32 33  1  0  0  0  0
 32 72  1  0  0  0  0
 33 69  1  0  0  0  0
 33 75  2  0  0  0  0
 34 51  1  0  0  0  0
 34 65  1  0  0  0  0
 34 76  2  0  0  0  0
 35 52  1  0  0  0  0
 35 70  1  0  0  0  0
 35 77  2  0  0  0  0
 36 60  1  0  0  0  0
 36 66  1  0  0  0  0
 36 78  2  0  0  0  0
 37 61  1  0  0  0  0
 37 71  1  0  0  0  0
 37 79  2  0  0  0  0
 38 41  1  0  0  0  0
 39 52  1  0  0  0  0
 40 66  1  0  0  0  0
 41 43  1  0  0  0  0
 42 46  1  0  0  0  0
 42 47  1  0  0  0  0
 43 49  1  0  0  0  0
 44 45  1  0  0  0  0
 44 50  1  0  0  0  0
 45 51  1  0  0  0  0
 46 53  1  0  0  0  0
 47 65  1  0  0  0  0
 48 53  1  0  0  0  0
 48 65  1  0  0  0  0
 49 70  1  0  0  0  0
 50 69  1  0  0  0  0
 52 66  1  0  0  0  0
 53 64  1  0  0  0  0
 55 61  1  0  0  0  0
 56 62  1  0  0  0  0
 57 62  1  0  0  0  0
 58 62  1  0  0  0  0
 59 73  1  0  0  0  0
 60 62  1  0  0  0  0
 60 71  1  0  0  0  0
 61 73  1  0  0  0  0
 63 64  1  0  0  0  0
M  CHG  2  72   1  73   1
M  ISO  4  30 101  34 100  51 100  81 101
M  END
> <Batch ID>
0071

> <Smiles>
CNC(C)C(=O)NC(C(=O)N1Cc2cc([101O:1][101CH2:1]C(=N)C(=O)NC3C=C(C)[100CH:0]([100C:0](=O)N4CCCC(n5nc(-c6ccc(Oc7ccc(F)cc7F)cc6)c(C(N)=O)c5N)C4)CC3)ccc2CC1C(=O)NC1CCCc2ccccc21)C(C)(C)C

> <Shape>
0.297

> <Color>
0.095

> <Negative vol penalty>
0.000

$$$$

  -OEChem-04042323353D

 87 96  0     1  0  0  0  0  0999 V2000
  -28.7363  -22.8151   27.9854 C   0  0  0  0  0  0  0  0  0  0  0  0
  -28.9060  -23.6138   26.8591 C   0  0  0  0  0  0  0  0  0  0  0  0
  -26.9564  -13.2814   19.4773 C   0  0  0  0  0  0  0  0  0  0  0  0
  -26.5817  -13.4220   21.8599 C   0  0  0  0  0  0  0  0  0  0  0  0
  -27.4916  -22.2480   28.2553 C   0  0  0  0  0  0  0  0  0  0  0  0
  -27.8312  -23.8451   26.0014 C   0  0  0  0  0  0  0  0  0  0  0  0
  -27.4463  -28.7064   24.6360 C   0  0  0  0  0  0  0  0  0  0  0  0
  -26.2222  -12.0963   19.4317 C   0  0  0  0  0  0  0  0  0  0  0  0
  -25.8475  -12.2369   21.8144 C   0  0  0  0  0  0  0  0  0  0  0  0
  -28.3212  -29.1623   23.6509 C   0  0  0  0  0  0  0  0  0  0  0  0
  -26.4793   -8.9193   21.6562 C   0  0  0  0  0  0  0  0  0  0  0  0
  -26.7341   -7.9610   22.6372 C   0  0  0  0  0  0  0  0  0  0  0  0
  -26.5713  -28.9452   22.0048 C   0  0  0  0  0  0  0  0  0  0  0  0
  -29.6401  -24.0996   18.9101 C   0  0  0  0  0  0  0  0  0  0  0  0
  -30.7129  -22.3246   17.6709 C   0  0  0  0  0  0  0  0  0  0  0  0
  -24.4353   -8.0981   23.3680 C   0  0  0  0  0  0  0  0  0  0  0  0
  -27.1362  -13.9442   20.6914 C   0  0  0  0  0  0  0  0  0  0  0  0
  -29.2421  -15.3481   20.3720 C   0  0  0  0  0  0  0  0  0  0  0  0
  -26.3985  -22.4803   27.4057 C   0  0  0  0  0  0  0  0  0  0  0  0
  -26.1283  -28.3556   24.3104 C   0  0  0  0  0  0  0  0  0  0  0  0
  -26.5710  -23.2795   26.2594 C   0  0  0  0  0  0  0  0  0  0  0  0
  -25.6809  -28.4876   22.9881 C   0  0  0  0  0  0  0  0  0  0  0  0
  -30.4378  -25.0384   18.2560 C   0  0  0  0  0  0  0  0  0  0  0  0
  -29.7777  -22.7427   18.6175 C   0  0  0  0  0  0  0  0  0  0  0  0
  -31.3731  -24.6204   17.3093 C   0  0  0  0  0  0  0  0  0  0  0  0
  -25.6677  -11.5741   20.6003 C   0  0  0  0  0  0  0  0  0  0  0  0
  -27.8846  -29.2790   22.3345 C   0  0  0  0  0  0  0  0  0  0  0  0
  -25.2025   -9.4671   21.5311 C   0  0  0  0  0  0  0  0  0  0  0  0
  -25.7121   -7.5504   23.4931 C   0  0  0  0  0  0  0  0  0  0  0  0
  -31.5106  -23.2635   17.0167 C   0  0  0  0  0  0  0  0  0  0  0  0
  -24.1806   -9.0564   22.3871 C   0  0  0  0  0  0  0  0  0  0  0  0
  -27.8950  -15.1682   20.7391 C   0  0  0  0  0  0  0  0  0  0  0  0
  -29.4852  -16.6805   20.6004 C   0  0  0  0  0  0  0  0  0  0  0  0
  -30.1890  -14.3960   19.8694 C   0  0  0  0  0  0  0  0  0  0  0  0
  -24.4183  -25.6800   24.4548 C   0  0  0  0  0  0  0  0  0  0  0  0
  -21.9949  -27.6416   23.5596 C   0  0  0  0  0  0  0  0  0  0  0  0
  -21.5322  -30.3655   21.2393 C   0  0  0  0  0  0  0  0  0  0  0  0
  -27.9944  -22.0338   20.2496 C   0  0  0  0  0  0  0  0  0  0  0  0
  -25.0843  -21.8072   27.7131 C   0  0  0  0  0  0  0  0  0  0  0  0
  -25.1891  -27.8909   25.3895 C   0  0  0  0  0  0  0  0  0  0  0  0
  -24.2696  -28.1432   22.5903 C   0  0  0  0  0  0  0  0  0  0  0  0
  -23.9014  -22.4067   26.9569 C   0  0  0  0  0  0  0  0  0  0  0  0
  -26.7132  -20.1705   22.9999 C   0  0  0  0  0  0  0  0  0  0  0  0
  -24.2511  -22.5988   25.4846 C   0  0  0  0  0  0  0  0  0  0  0  0
  -27.0173  -18.7178   22.6267 C   0  0  0  0  0  0  0  0  0  0  0  0
  -30.8827  -28.2870   20.0354 C   0  0  0  0  0  0  0  0  0  0  0  0
  -29.7028  -28.6892   17.8640 C   0  0  0  0  0  0  0  0  0  0  0  0
  -26.3283  -21.0015   21.7772 C   0  0  0  0  0  0  0  0  0  0  0  0
  -30.5225  -26.8031   19.9551 C   0  0  0  0  0  0  0  0  0  0  0  0
  -29.3428  -27.2048   17.7845 C   0  0  0  0  0  0  0  0  0  0  0  0
  -27.5880  -19.4943   20.2904 C   0  0  0  0  0  0  0  0  0  0  0  0
  -25.4229  -23.5738   25.3185 C   0  0  1  0  0  0  0  0  0  0  0  0
  -24.0189  -27.0730   24.8517 C   0  0  1  0  0  0  0  0  0  0  0  0
  -28.0437  -18.6335   21.4800 C   0  0  2  0  0  0  0  0  0  0  0  0
  -29.8797  -29.2023   19.3063 C   0  0  0  0  0  0  0  0  0  0  0  0
  -30.4389  -30.6362   19.2684 C   0  0  0  0  0  0  0  0  0  0  0  0
  -19.9218  -32.2896   21.2823 C   0  0  0  0  0  0  0  0  0  0  0  0
  -20.2429  -25.8374   21.8319 C   0  0  0  0  0  0  0  0  0  0  0  0
  -19.5723  -27.8618   20.5204 C   0  0  0  0  0  0  0  0  0  0  0  0
  -19.0249  -27.7140   22.9496 C   0  0  0  0  0  0  0  0  0  0  0  0
  -23.7170  -32.3498   21.0207 C   0  0  0  0  0  0  0  0  0  0  0  0
  -28.5291  -29.2362   20.0457 C   0  0  0  0  0  0  0  0  0  1  0  0
  -21.4210  -28.0982   22.2401 C   0  0  1  0  0  0  0  0  0  0  0  0
  -21.3398  -31.8311   21.5850 C   0  0  2  0  0  0  0  0  0  0  0  0
  -20.0927  -27.3707   21.8881 C   0  0  0  0  0  0  0  0  0  0  0  0
  -27.3225  -16.2960   21.1683 N   0  0  0  0  0  0  0  0  0  0  0  0
  -28.3146  -17.1974   21.0723 N   0  0  0  0  0  0  0  0  0  0  0  0
  -30.2841  -26.3966   18.5648 N   0  0  0  0  0  0  0  0  0  0  0  0
  -23.3911  -27.6874   23.6802 N   0  0  0  0  0  0  0  0  0  0  0  0
  -27.3487  -20.8766   20.7342 N   0  0  0  0  0  0  0  0  0  0  0  0
  -32.1899  -25.5566   16.6362 N   0  0  0  0  0  0  0  0  0  0  0  0
  -30.5839  -17.4486   20.4416 N   0  0  0  0  0  0  0  0  0  0  0  0
  -29.7734  -13.0690   19.6944 N   0  0  0  0  0  0  0  0  0  0  0  0
  -28.9690  -21.7882   19.2829 N   0  0  0  0  0  0  0  0  0  0  0  0
  -24.9714  -24.9391   25.4818 N   0  0  0  0  0  0  0  0  0  0  0  0
  -21.3024  -29.5497   22.3270 N   0  0  0  0  0  0  0  0  0  0  0  0
  -22.2845  -32.6764   20.8015 N   0  3  0  0  0  0  0  0  0  0  0  0
  -31.3733  -14.7091   19.5995 O   0  0  0  0  0  0  0  0  0  0  0  0
  -24.2367  -25.3045   23.3026 O   0  0  0  0  0  0  0  0  0  0  0  0
  -21.2322  -27.2652   24.4530 O   0  0  0  0  0  0  0  0  0  0  0  0
  -21.8505  -29.9824   20.1157 O   0  0  0  0  0  0  0  0  0  0  0  0
  -27.7232  -23.1571   20.6814 O   0  0  0  0  0  0  0  0  0  0  0  0
  -24.9510  -10.4178   20.5562 O   0  0  0  0  0  0  0  0  0  0  0  0
  -28.7367  -29.7230   21.3709 O   0  0  0  0  0  0  0  0  0  1  0  0
  -25.9565   -6.6290   24.4341 F   0  0  0  0  0  0  0  0  0  0  0  0
  -32.4077  -22.8499   16.1103 F   0  0  0  0  0  0  0  0  0  0  0  0
  -22.9517   -9.5782   22.2710 F   0  0  0  0  0  0  0  0  0  0  0  0
  1  2  1  0  0  0  0
  1  5  2  0  0  0  0
  2  6  2  0  0  0  0
  3  8  2  0  0  0  0
  3 17  1  0  0  0  0
  4  9  1  0  0  0  0
  4 17  2  0  0  0  0
  5 19  1  0  0  0  0
  6 21  1  0  0  0  0
  7 10  2  0  0  0  0
  7 20  1  0  0  0  0
  8 26  1  0  0  0  0
  9 26  2  0  0  0  0
 10 27  1  0  0  0  0
 11 12  2  0  0  0  0
 11 28  1  0  0  0  0
 12 29  1  0  0  0  0
 13 22  1  0  0  0  0
 13 27  2  0  0  0  0
 14 23  1  0  0  0  0
 14 24  2  0  0  0  0
 15 24  1  0  0  0  0
 15 30  2  0  0  0  0
 16 29  2  0  0  0  0
 16 31  1  0  0  0  0
 17 32  1  0  0  0  0
 18 32  1  0  0  0  0
 18 33  2  0  0  0  0
 18 34  1  0  0  0  0
 19 21  2  0  0  0  0
 19 39  1  0  0  0  0
 20 22  2  0  0  0  0
 20 40  1  0  0  0  0
 21 52  1  0  0  0  0
 22 41  1  0  0  0  0
 23 25  2  0  0  0  0
 23 68  1  0  0  0  0
 24 74  1  0  0  0  0
 25 30  1  0  0  0  0
 25 71  1  0  0  0  0
 26 83  1  0  0  0  0
 27 84  1  0  0  0  0
 28 31  2  0  0  0  0
 28 83  1  0  0  0  0
 29 85  1  0  0  0  0
 30 86  1  0  0  0  0
 31 87  1  0  0  0  0
 32 66  2  0  0  0  0
 33 67  1  0  0  0  0
 33 72  1  0  0  0  0
 34 73  1  0  0  0  0
 34 78  2  0  0  0  0
 35 53  1  0  0  0  0
 35 75  1  0  0  0  0
 35 79  2  0  0  0  0
 36 63  1  0  0  0  0
 36 69  1  0  0  0  0
 36 80  2  0  0  0  0
 37 64  1  0  0  0  0
 37 76  1  0  0  0  0
 37 81  2  0  0  0  0
 38 70  1  0  0  0  0
 38 74  1  0  0  0  0
 38 82  2  0  0  0  0
 39 42  1  0  0  0  0
 40 53  1  0  0  0  0
 41 69  1  0  0  0  0
 42 44  1  0  0  0  0
 43 45  1  0  0  0  0
 43 48  1  0  0  0  0
 44 52  1  0  0  0  0
 45 54  1  0  0  0  0
 46 49  1  0  0  0  0
 46 55  1  0  0  0  0
 47 50  1  0  0  0  0
 47 55  1  0  0  0  0
 48 70  1  0  0  0  0
 49 68  1  0  0  0  0
 50 68  1  0  0  0  0
 51 54  1  0  0  0  0
 51 70  1  0  0  0  0
 52 75  1  0  0  0  0
 53 69  1  0  0  0  0
 54 67  1  0  0  0  0
 55 56  1  0  0  0  0
 55 62  1  0  0  0  0
 57 64  1  0  0  0  0
 58 65  1  0  0  0  0
 59 65  1  0  0  0  0
 60 65  1  0  0  0  0
 61 77  1  0  0  0  0
 62 84  1  0  0  0  0
 63 65  1  0  0  0  0
 63 76  1  0  0  0  0
 64 77  1  0  0  0  0
 66 67  1  0  0  0  0
M  CHG  1  77   1
M  ISO  4  38 100  62 101  74 100  84 101
M  END
> <Batch ID>
0071

> <Smiles>
CNC(C)C(=O)NC(C(=O)N1Cc2cc([101O:1][101CH2:1]C3(C)CCN(c4cc([100NH:0][100C:0](=O)N5CCCC(n6nc(-c7ccc(Oc8ccc(F)cc8F)cc7)c(C(N)=O)c6N)C5)cc(F)c4N)CC3)ccc2CC1C(=O)NC1CCCc2ccccc21)C(C)(C)C

> <Shape>
0.241

> <Color>
0.050

> <Negative vol penalty>
0.000

$$$$

  -OEChem-04042323353D

 89 98  0     1  0  0  0  0  0999 V2000
  -42.6622  -26.4136   17.3868 C   0  0  0  0  0  0  0  0  0  0  0  0
  -42.1917  -25.5194   18.3432 C   0  0  0  0  0  0  0  0  0  0  0  0
  -23.0750   -9.8659   19.9467 C   0  0  0  0  0  0  0  0  0  0  0  0
  -23.8308   -9.8821   22.2413 C   0  0  0  0  0  0  0  0  0  0  0  0
  -42.0824  -27.6761   17.2696 C   0  0  0  0  0  0  0  0  0  0  0  0
  -41.1417  -25.8878   19.1836 C   0  0  0  0  0  0  0  0  0  0  0  0
  -36.7247  -22.2509   21.3673 C   0  0  0  0  0  0  0  0  0  0  0  0
  -32.6652  -17.4802   23.4280 C   0  0  0  0  0  0  0  0  0  0  0  0
  -32.0607  -16.6010   22.5297 C   0  0  0  0  0  0  0  0  0  0  0  0
  -22.3304   -8.7140   20.2000 C   0  0  0  0  0  0  0  0  0  0  0  0
  -23.0862   -8.7301   22.4947 C   0  0  0  0  0  0  0  0  0  0  0  0
  -36.5636  -21.6015   22.5905 C   0  0  0  0  0  0  0  0  0  0  0  0
  -22.9014   -5.3966   20.5054 C   0  0  0  0  0  0  0  0  0  0  0  0
  -22.9697   -4.3632   19.5711 C   0  0  0  0  0  0  0  0  0  0  0  0
  -35.1956  -23.4278   23.3730 C   0  0  0  0  0  0  0  0  0  0  0  0
  -30.4954  -18.3530   24.0341 C   0  0  0  0  0  0  0  0  0  0  0  0
  -20.5859   -4.5281   19.2145 C   0  0  0  0  0  0  0  0  0  0  0  0
  -23.8252  -10.4500   20.9673 C   0  0  0  0  0  0  0  0  0  0  0  0
  -24.1679  -12.9745   20.8376 C   0  0  0  0  0  0  0  0  0  0  0  0
  -41.0184  -28.0565   18.1025 C   0  0  0  0  0  0  0  0  0  0  0  0
  -36.1304  -23.5007   21.1413 C   0  0  0  0  0  0  0  0  0  0  0  0
  -40.5480  -27.1570   19.0782 C   0  0  0  0  0  0  0  0  0  0  0  0
  -35.3485  -24.0898   22.1452 C   0  0  0  0  0  0  0  0  0  0  0  0
  -29.8909  -17.4738   23.1357 C   0  0  0  0  0  0  0  0  0  0  0  0
  -31.8826  -18.3562   24.1803 C   0  0  0  0  0  0  0  0  0  0  0  0
  -30.6735  -16.5977   22.3835 C   0  0  0  0  0  0  0  0  0  0  0  0
  -22.3360   -8.1461   21.4740 C   0  0  0  0  0  0  0  0  0  0  0  0
  -35.8013  -22.1913   23.5946 C   0  0  0  0  0  0  0  0  0  0  0  0
  -21.6753   -5.9957   20.7943 C   0  0  0  0  0  0  0  0  0  0  0  0
  -21.8120   -3.9289   18.9256 C   0  0  0  0  0  0  0  0  0  0  0  0
  -20.5176   -5.5615   20.1489 C   0  0  0  0  0  0  0  0  0  0  0  0
  -24.5951  -11.6396   20.7061 C   0  0  0  0  0  0  0  0  0  0  0  0
  -25.2608  -13.7223   20.4733 C   0  0  0  0  0  0  0  0  0  0  0  0
  -33.8825  -19.3736   25.3617 C   0  0  0  0  0  0  0  0  0  0  0  0
  -22.8968  -13.4923   21.2522 C   0  0  0  0  0  0  0  0  0  0  0  0
  -37.2171  -26.4174   20.4962 C   0  0  0  0  0  0  0  0  0  0  0  0
  -34.0627  -27.0948   20.1591 C   0  0  0  0  0  0  0  0  0  0  0  0
  -30.8319  -26.3039   20.9224 C   0  0  0  0  0  0  0  0  0  0  0  0
  -30.7270  -14.7674   20.6534 C   0  0  0  0  0  0  0  0  0  0  0  0
  -40.4549  -29.4493   17.9701 C   0  0  0  0  0  0  0  0  0  0  0  0
  -36.2918  -24.1758   19.8069 C   0  0  0  0  0  0  0  0  0  0  0  0
  -34.6728  -25.4209   21.9455 C   0  0  0  0  0  0  0  0  0  0  0  0
  -39.0985  -29.6246   18.6481 C   0  0  0  0  0  0  0  0  0  0  0  0
  -29.6162  -12.3442   18.2930 C   0  0  0  0  0  0  0  0  0  0  0  0
  -39.1189  -29.0181   20.0476 C   0  0  0  0  0  0  0  0  0  0  0  0
  -28.1757  -12.0547   18.7212 C   0  0  0  0  0  0  0  0  0  0  0  0
  -32.6836  -20.6800   26.9545 C   0  0  0  0  0  0  0  0  0  0  0  0
  -30.5292  -12.5777   19.4953 C   0  0  0  0  0  0  0  0  0  0  0  0
  -31.7333  -20.2186   25.8662 C   0  0  0  0  0  0  0  0  0  0  0  0
  -28.6200  -13.3082   20.8702 C   0  0  0  0  0  0  0  0  0  0  0  0
  -39.3944  -27.5107   19.9917 C   0  0  1  0  0  0  0  0  0  0  0  0
  -36.0659  -25.6833   19.8687 C   0  0  1  0  0  0  0  0  0  0  0  0
  -27.6492  -13.1303   19.6914 C   0  0  2  0  0  0  0  0  0  0  0  0
  -34.0679  -20.5547   26.3131 C   0  0  1  0  0  0  0  0  0  0  0  0
  -35.1482  -20.2722   27.3543 C   0  0  0  0  0  0  0  0  0  0  0  0
  -28.4725  -27.0636   20.5304 C   0  0  0  0  0  0  0  0  0  0  0  0
  -34.4661  -29.3686   22.1533 C   0  0  0  0  0  0  0  0  0  0  0  0
  -31.9809  -29.4642   22.4409 C   0  0  0  0  0  0  0  0  0  0  0  0
  -32.9956  -29.9333   20.2109 C   0  0  0  0  0  0  0  0  0  0  0  0
  -30.1077  -23.7558   19.6027 C   0  0  0  0  0  0  0  0  0  0  0  0
  -34.4265  -21.8012   25.4955 C   0  0  0  0  0  0  0  0  0  1  0  0
  -32.9645  -27.5609   21.0842 C   0  0  1  0  0  0  0  0  0  0  0  0
  -29.5973  -26.1594   20.0509 C   0  0  2  0  0  0  0  0  0  0  0  0
  -28.4028  -17.4903   23.0008 C   0  0  0  0  0  0  0  0  0  0  0  0
  -33.1160  -29.0576   21.4771 C   0  0  0  0  0  0  0  0  0  0  0  0
  -25.8606  -11.5418   20.2905 N   0  0  0  0  0  0  0  0  0  0  0  0
  -26.2381  -12.8247   20.1576 N   0  0  0  0  0  0  0  0  0  0  0  0
  -32.5015  -19.2543   25.1018 N   0  0  0  0  0  0  0  0  0  0  0  0
  -34.8656  -26.0444   20.6258 N   0  0  0  0  0  0  0  0  0  0  0  0
  -29.9689  -13.6122   20.3675 N   0  0  0  0  0  0  0  0  0  0  0  0
  -25.4717  -15.0534   20.3952 N   0  0  0  0  0  0  0  0  0  0  0  0
  -21.8840  -12.5848   21.5914 N   0  0  0  0  0  0  0  0  0  0  0  0
  -30.0783  -15.6959   21.4669 N   0  0  0  0  0  0  0  0  0  0  0  0
  -38.2002  -26.7928   19.6007 N   0  0  0  0  0  0  0  0  0  0  0  0
  -31.7066  -27.2425   20.4173 N   0  0  0  0  0  0  0  0  0  0  0  0
  -29.1100  -24.7512   20.0725 N   0  3  0  0  0  0  0  0  0  0  0  0
  -34.8193  -18.7352   24.9021 O   0  0  0  0  0  0  0  0  0  0  0  0
  -22.6607  -14.7232   21.3041 O   0  0  0  0  0  0  0  0  0  0  0  0
  -37.2128  -26.6289   21.7033 O   0  0  0  0  0  0  0  0  0  0  0  0
  -34.1985  -27.6379   19.0599 O   0  0  0  0  0  0  0  0  0  0  0  0
  -31.0014  -25.6522   21.9506 O   0  0  0  0  0  0  0  0  0  0  0  0
  -31.8569  -14.9339   20.1871 O   0  0  0  0  0  0  0  0  0  0  0  0
  -21.6093   -7.0221   21.7216 O   0  0  0  0  0  0  0  0  0  0  0  0
  -35.6430  -21.5599   24.7897 O   0  0  0  0  0  0  0  0  0  1  0  0
  -21.8779   -2.9376   18.0273 F   0  0  0  0  0  0  0  0  0  0  0  0
  -19.3370   -6.1340   20.4214 F   0  0  0  0  0  0  0  0  0  0  0  0
  -27.7927  -18.4048   23.8098 F   0  0  0  0  0  0  0  0  0  0  0  0
  -27.9743  -17.7855   21.7391 F   0  0  0  0  0  0  0  0  0  0  0  0
  -27.8369  -16.2887   23.3106 F   0  0  0  0  0  0  0  0  0  0  0  0
  1  2  1  0  0  0  0
  1  5  2  0  0  0  0
  2  6  2  0  0  0  0
  3 10  2  0  0  0  0
  3 18  1  0  0  0  0
  4 11  1  0  0  0  0
  4 18  2  0  0  0  0
  5 20  1  0  0  0  0
  6 22  1  0  0  0  0
  7 12  2  0  0  0  0
  7 21  1  0  0  0  0
  8  9  2  0  0  0  0
  8 25  1  0  0  0  0
  9 26  1  0  0  0  0
 10 27  1  0  0  0  0
 11 27  2  0  0  0  0
 12 28  1  0  0  0  0
 13 14  2  0  0  0  0
 13 29  1  0  0  0  0
 14 30  1  0  0  0  0
 15 23  1  0  0  0  0
 15 28  2  0  0  0  0
 16 24  1  0  0  0  0
 16 25  2  0  0  0  0
 17 30  2  0  0  0  0
 17 31  1  0  0  0  0
 18 32  1  0  0  0  0
 19 32  1  0  0  0  0
 19 33  2  0  0  0  0
 19 35  1  0  0  0  0
 20 22  2  0  0  0  0
 20 40  1  0  0  0  0
 21 23  2  0  0  0  0
 21 41  1  0  0  0  0
 22 51  1  0  0  0  0
 23 42  1  0  0  0  0
 24 26  2  0  0  0  0
 24 64  1  0  0  0  0
 25 68  1  0  0  0  0
 26 73  1  0  0  0  0
 27 83  1  0  0  0  0
 28 84  1  0  0  0  0
 29 31  2  0  0  0  0
 29 83  1  0  0  0  0
 30 85  1  0  0  0  0
 31 86  1  0  0  0  0
 32 66  2  0  0  0  0
 33 67  1  0  0  0  0
 33 71  1  0  0  0  0
 34 54  1  0  0  0  0
 34 68  1  0  0  0  0
 34 77  2  0  0  0  0
 35 72  1  0  0  0  0
 35 78  2  0  0  0  0
 36 52  1  0  0  0  0
 36 74  1  0  0  0  0
 36 79  2  0  0  0  0
 37 62  1  0  0  0  0
 37 69  1  0  0  0  0
 37 80  2  0  0  0  0
 38 63  1  0  0  0  0
 38 75  1  0  0  0  0
 38 81  2  0  0  0  0
 39 70  1  0  0  0  0
 39 73  1  0  0  0  0
 39 82  2  0  0  0  0
 40 43  1  0  0  0  0
 41 52  1  0  0  0  0
 42 69  1  0  0  0  0
 43 45  1  0  0  0  0
 44 46  1  0  0  0  0
 44 48  1  0  0  0  0
 45 51  1  0  0  0  0
 46 53  1  0  0  0  0
 47 49  1  0  0  0  0
 47 54  1  0  0  0  0
 48 70  1  0  0  0  0
 49 68  1  0  0  0  0
 50 53  1  0  0  0  0
 50 70  1  0  0  0  0
 51 74  1  0  0  0  0
 52 69  1  0  0  0  0
 53 67  1  0  0  0  0
 54 55  1  0  0  0  0
 54 61  1  0  0  0  0
 56 63  1  0  0  0  0
 57 65  1  0  0  0  0
 58 65  1  0  0  0  0
 59 65  1  0  0  0  0
 60 76  1  0  0  0  0
 61 84  1  0  0  0  0
 62 65  1  0  0  0  0
 62 75  1  0  0  0  0
 63 76  1  0  0  0  0
 64 87  1  0  0  0  0
 64 88  1  0  0  0  0
 64 89  1  0  0  0  0
 66 67  1  0  0  0  0
M  CHG  1  76   1
M  ISO  4  39 100  61 101  73 100  84 101
M  END
> <Batch ID>
0071

> <Smiles>
CNC(C)C(=O)NC(C(=O)N1Cc2cc([101O:1][101CH2:1]C3(C)CCN(c4ccc([100NH:0][100C:0](=O)N5CCCC(n6nc(-c7ccc(Oc8ccc(F)cc8F)cc7)c(C(N)=O)c6N)C5)c(C(F)(F)F)c4)C3=O)ccc2CC1C(=O)NC1CCCc2ccccc21)C(C)(C)C

> <Shape>
0.186

> <Color>
0.191

> <Negative vol penalty>
0.000

$$$$

  -OEChem-04042323353D

 82 90  0     1  0  0  0  0  0999 V2000
  -29.4672  -33.9674   26.0575 C   0  0  0  0  0  0  0  0  0  0  0  0
  -29.6188  -32.8719   25.2135 C   0  0  0  0  0  0  0  0  0  0  0  0
  -24.6252   -9.0147   21.3673 C   0  0  0  0  0  0  0  0  0  0  0  0
  -23.3766  -10.8879   22.2444 C   0  0  0  0  0  0  0  0  0  0  0  0
  -28.2412  -34.2032   26.6783 C   0  0  0  0  0  0  0  0  0  0  0  0
  -28.5449  -32.0108   24.9908 C   0  0  0  0  0  0  0  0  0  0  0  0
  -27.2104  -29.0574   19.7944 C   0  0  0  0  0  0  0  0  0  0  0  0
  -27.8372  -20.4031   20.0854 C   0  0  0  0  0  0  0  0  0  0  0  0
  -28.2619  -19.0861   20.2607 C   0  0  0  0  0  0  0  0  0  0  0  0
  -24.0847   -8.1918   22.3553 C   0  0  0  0  0  0  0  0  0  0  0  0
  -22.8361  -10.0649   23.2324 C   0  0  0  0  0  0  0  0  0  0  0  0
  -27.4532  -27.7523   19.3684 C   0  0  0  0  0  0  0  0  0  0  0  0
  -21.1762   -6.5642   22.9251 C   0  0  0  0  0  0  0  0  0  0  0  0
  -20.7078   -5.3086   22.5382 C   0  0  0  0  0  0  0  0  0  0  0  0
  -25.2408  -27.1127   20.0866 C   0  0  0  0  0  0  0  0  0  0  0  0
  -25.8207  -19.9178   21.3245 C   0  0  0  0  0  0  0  0  0  0  0  0
  -22.2843   -4.2583   24.0377 C   0  0  0  0  0  0  0  0  0  0  0  0
  -24.2712  -10.3628   21.3118 C   0  0  0  0  0  0  0  0  0  0  0  0
  -24.3028  -11.4627   19.0103 C   0  0  0  0  0  0  0  0  0  0  0  0
  -27.1489  -33.3500   26.4555 C   0  0  0  0  0  0  0  0  0  0  0  0
  -25.9829  -29.3980   20.3807 C   0  0  0  0  0  0  0  0  0  0  0  0
  -27.3036  -32.2346   25.6103 C   0  0  0  0  0  0  0  0  0  0  0  0
  -24.9840  -28.4234   20.5169 C   0  0  0  0  0  0  0  0  0  0  0  0
  -26.6166  -20.8190   20.6174 C   0  0  0  0  0  0  0  0  0  0  0  0
  -27.4660  -18.1849   20.9679 C   0  0  0  0  0  0  0  0  0  0  0  0
  -23.1901   -8.7168   23.2878 C   0  0  0  0  0  0  0  0  0  0  0  0
  -26.4694  -26.7790   19.5171 C   0  0  0  0  0  0  0  0  0  0  0  0
  -22.1988   -6.6668   23.8683 C   0  0  0  0  0  0  0  0  0  0  0  0
  -21.2617   -4.1557   23.0945 C   0  0  0  0  0  0  0  0  0  0  0  0
  -26.2454  -18.6007   21.4998 C   0  0  0  0  0  0  0  0  0  0  0  0
  -22.7528   -5.5139   24.4246 C   0  0  0  0  0  0  0  0  0  0  0  0
  -24.8296  -11.2135   20.2918 C   0  0  0  0  0  0  0  0  0  0  0  0
  -25.1979  -12.3304   18.4338 C   0  0  0  0  0  0  0  0  0  0  0  0
  -23.1108  -10.9552   18.3960 C   0  0  0  0  0  0  0  0  0  0  0  0
  -25.0829  -30.4916   23.2264 C   0  0  0  0  0  0  0  0  0  0  0  0
  -22.1752  -30.6797   21.8008 C   0  0  0  0  0  0  0  0  0  0  0  0
  -26.8471  -23.1760   19.7659 C   0  0  0  0  0  0  0  0  0  0  0  0
  -20.0783  -29.5848   19.3409 C   0  0  0  0  0  0  0  0  0  0  0  0
  -29.0837  -16.2754   20.6792 C   0  0  0  0  0  0  0  0  0  0  0  0
  -25.8571  -33.6187   27.1860 C   0  0  0  0  0  0  0  0  0  0  0  0
  -25.7269  -30.8165   20.8106 C   0  0  0  0  0  0  0  0  0  0  0  0
  -23.6420  -28.7425   21.1214 C   0  0  0  0  0  0  0  0  0  0  0  0
  -24.6608  -32.8708   26.6031 C   0  0  0  0  0  0  0  0  0  0  0  0
  -29.8307  -13.5400   18.5259 C   0  0  0  0  0  0  0  0  0  0  0  0
  -25.0179  -31.4102   26.3463 C   0  0  0  0  0  0  0  0  0  0  0  0
  -28.5825  -12.6587   18.6130 C   0  0  0  0  0  0  0  0  0  0  0  0
  -30.1620  -14.1884   19.8688 C   0  0  0  0  0  0  0  0  0  0  0  0
  -27.8074  -14.0446   20.5791 C   0  0  0  0  0  0  0  0  0  0  0  0
  -26.1549  -31.2918   25.3243 C   0  0  1  0  0  0  0  0  0  0  0  0
  -24.6291  -30.9327   21.8636 C   0  0  1  0  0  0  0  0  0  0  0  0
  -27.3964  -13.4214   19.2351 C   0  0  2  0  0  0  0  0  0  0  0  0
  -17.7523  -29.8963   18.4521 C   0  0  0  0  0  0  0  0  0  0  0  0
  -21.0714  -29.0300   24.1181 C   0  0  0  0  0  0  0  0  0  0  0  0
  -19.0360  -28.5747   22.7331 C   0  0  0  0  0  0  0  0  0  0  0  0
  -19.6003  -30.9152   23.3859 C   0  0  0  0  0  0  0  0  0  0  0  0
  -21.0811  -30.5085   16.7141 C   0  0  0  0  0  0  0  0  0  0  0  0
  -26.0374  -24.4587   19.8089 C   0  0  0  0  0  0  0  0  0  1  0  0
  -21.0019  -29.7439   21.6379 C   0  0  1  0  0  0  0  0  0  0  0  0
  -19.2045  -30.3371   18.3535 C   0  0  2  0  0  0  0  0  0  0  0  0
  -20.2033  -29.5592   22.9591 C   0  0  0  0  0  0  0  0  0  0  0  0
  -25.9711  -11.8698   20.5165 N   0  0  0  0  0  0  0  0  0  0  0  0
  -26.1688  -12.5398   19.3684 N   0  0  0  0  0  0  0  0  0  0  0  0
  -23.4420  -30.1421   21.5322 N   0  0  0  0  0  0  0  0  0  0  0  0
  -28.9930  -14.8963   20.3953 N   0  0  0  0  0  0  0  0  0  0  0  0
  -25.2413  -12.9269   17.2236 N   0  0  0  0  0  0  0  0  0  0  0  0
  -22.3047  -10.0736   19.1291 N   0  0  0  0  0  0  0  0  0  0  0  0
  -26.1853  -22.1549   20.4391 N   0  0  0  0  0  0  0  0  0  0  0  0
  -27.8999  -16.8475   21.1438 N   0  0  0  0  0  0  0  0  0  0  0  0
  -25.6524  -31.4980   23.9829 N   0  0  0  0  0  0  0  0  0  0  0  0
  -20.2112  -30.2696   20.5303 N   0  0  0  0  0  0  0  0  0  0  0  0
  -19.6744  -30.0985   16.9595 N   0  3  0  0  0  0  0  0  0  0  0  0
  -22.7792  -11.2612   17.2256 O   0  0  0  0  0  0  0  0  0  0  0  0
  -24.9266  -29.3248   23.5669 O   0  0  0  0  0  0  0  0  0  0  0  0
  -21.9746  -31.8467   22.1465 O   0  0  0  0  0  0  0  0  0  0  0  0
  -27.9319  -23.1198   19.1960 O   0  0  0  0  0  0  0  0  0  0  0  0
  -20.5887  -28.4966   19.0842 O   0  0  0  0  0  0  0  0  0  0  0  0
  -30.1266  -16.9085   20.4960 O   0  0  0  0  0  0  0  0  0  0  0  0
  -22.6623   -7.9141   24.2519 O   0  0  0  0  0  0  0  0  0  0  0  0
  -26.7040  -25.5042   19.1027 O   0  0  0  0  0  0  0  0  0  1  0  0
  -20.8107   -2.9501   22.7240 F   0  0  0  0  0  0  0  0  0  0  0  0
  -25.4715  -17.7428   22.1800 F   0  0  0  0  0  0  0  0  0  0  0  0
  -23.7346   -5.6062   25.3320 F   0  0  0  0  0  0  0  0  0  0  0  0
  1  2  1  0  0  0  0
  1  5  2  0  0  0  0
  2  6  2  0  0  0  0
  3 10  2  0  0  0  0
  3 18  1  0  0  0  0
  4 11  1  0  0  0  0
  4 18  2  0  0  0  0
  5 20  1  0  0  0  0
  6 22  1  0  0  0  0
  7 12  2  0  0  0  0
  7 21  1  0  0  0  0
  8  9  2  0  0  0  0
  8 24  1  0  0  0  0
  9 25  1  0  0  0  0
 10 26  1  0  0  0  0
 11 26  2  0  0  0  0
 12 27  1  0  0  0  0
 13 14  2  0  0  0  0
 13 28  1  0  0  0  0
 14 29  1  0  0  0  0
 15 23  1  0  0  0  0
 15 27  2  0  0  0  0
 16 24  2  0  0  0  0
 16 30  1  0  0  0  0
 17 29  2  0  0  0  0
 17 31  1  0  0  0  0
 18 32  1  0  0  0  0
 19 32  1  0  0  0  0
 19 33  2  0  0  0  0
 19 34  1  0  0  0  0
 20 22  2  0  0  0  0
 20 40  1  0  0  0  0
 21 23  2  0  0  0  0
 21 41  1  0  0  0  0
 22 49  1  0  0  0  0
 23 42  1  0  0  0  0
 24 67  1  0  0  0  0
 25 30  2  0  0  0  0
 25 68  1  0  0  0  0
 26 78  1  0  0  0  0
 27 79  1  0  0  0  0
 28 31  2  0  0  0  0
 28 78  1  0  0  0  0
 29 80  1  0  0  0  0
 30 81  1  0  0  0  0
 31 82  1  0  0  0  0
 32 61  2  0  0  0  0
 33 62  1  0  0  0  0
 33 65  1  0  0  0  0
 34 66  1  0  0  0  0
 34 72  2  0  0  0  0
 35 50  1  0  0  0  0
 35 69  1  0  0  0  0
 35 73  2  0  0  0  0
 36 58  1  0  0  0  0
 36 63  1  0  0  0  0
 36 74  2  0  0  0  0
 37 57  1  0  0  0  0
 37 67  1  0  0  0  0
 37 75  2  0  0  0  0
 38 59  1  0  0  0  0
 38 70  1  0  0  0  0
 38 76  2  0  0  0  0
 39 64  1  0  0  0  0
 39 68  1  0  0  0  0
 39 77  2  0  0  0  0
 40 43  1  0  0  0  0
 41 50  1  0  0  0  0
 42 63  1  0  0  0  0
 43 45  1  0  0  0  0
 44 46  1  0  0  0  0
 44 47  1  0  0  0  0
 45 49  1  0  0  0  0
 46 51  1  0  0  0  0
 47 64  1  0  0  0  0
 48 51  1  0  0  0  0
 48 64  1  0  0  0  0
 49 69  1  0  0  0  0
 50 63  1  0  0  0  0
 51 62  1  0  0  0  0
 52 59  1  0  0  0  0
 53 60  1  0  0  0  0
 54 60  1  0  0  0  0
 55 60  1  0  0  0  0
 56 71  1  0  0  0  0
 57 79  1  0  0  0  0
 58 60  1  0  0  0  0
 58 70  1  0  0  0  0
 59 71  1  0  0  0  0
 61 62  1  0  0  0  0
M  CHG  1  71   1
M  ISO  4  39 100  57 101  68 100  79 101
M  END
> <Batch ID>
0071

> <Smiles>
CNC(C)C(=O)NC(C(=O)N1Cc2cc([101O:1][101CH2:1]C(=O)Nc3ccc([100NH:0][100C:0](=O)N4CCCC(n5nc(-c6ccc(Oc7ccc(F)cc7F)cc6)c(C(N)=O)c5N)C4)c(F)c3)ccc2CC1C(=O)NC1CCCc2ccccc21)C(C)(C)C

> <Shape>
0.309

> <Color>
0.101

> <Negative vol penalty>
0.000

$$$$

  -OEChem-04042323353D

 90 99  0     1  0  0  0  0  0999 V2000
  -29.0968  -32.8976   25.3917 C   0  0  0  0  0  0  0  0  0  0  0  0
  -28.9767  -31.5276   25.1814 C   0  0  0  0  0  0  0  0  0  0  0  0
  -23.5210  -10.1835   21.0981 C   0  0  0  0  0  0  0  0  0  0  0  0
  -25.0222   -8.3526   21.5791 C   0  0  0  0  0  0  0  0  0  0  0  0
  -29.2371  -15.6896   17.1889 C   0  0  0  0  0  0  0  0  0  0  0  0
  -28.0332  -33.7448   25.0841 C   0  0  0  0  0  0  0  0  0  0  0  0
  -27.7923  -31.0040   24.6642 C   0  0  0  0  0  0  0  0  0  0  0  0
  -28.6085  -27.5825   21.0211 C   0  0  0  0  0  0  0  0  0  0  0  0
  -28.6957  -16.8941   17.6379 C   0  0  0  0  0  0  0  0  0  0  0  0
  -22.4370   -9.3070   21.1446 C   0  0  0  0  0  0  0  0  0  0  0  0
  -23.9381   -7.4761   21.6258 C   0  0  0  0  0  0  0  0  0  0  0  0
  -28.9901  -26.3032   21.4230 C   0  0  0  0  0  0  0  0  0  0  0  0
  -21.5030   -6.6431   23.8159 C   0  0  0  0  0  0  0  0  0  0  0  0
  -21.4558   -5.7285   24.8679 C   0  0  0  0  0  0  0  0  0  0  0  0
  -26.7222  -25.5385   21.1210 C   0  0  0  0  0  0  0  0  0  0  0  0
  -30.0250  -16.7420   19.6494 C   0  0  0  0  0  0  0  0  0  0  0  0
  -21.4836   -3.9046   23.2836 C   0  0  0  0  0  0  0  0  0  0  0  0
  -24.8136   -9.7063   21.3153 C   0  0  0  0  0  0  0  0  0  0  0  0
  -30.1725  -15.0113   17.9702 C   0  0  0  0  0  0  0  0  0  0  0  0
  -26.1496  -11.7413   22.0780 C   0  0  0  0  0  0  0  0  0  0  0  0
  -26.8386  -33.2325   24.5538 C   0  0  0  0  0  0  0  0  0  0  0  0
  -27.2764  -27.8525   20.6760 C   0  0  0  0  0  0  0  0  0  0  0  0
  -26.7112  -31.8451   24.3504 C   0  0  0  0  0  0  0  0  0  0  0  0
  -26.3268  -26.8214   20.7126 C   0  0  0  0  0  0  0  0  0  0  0  0
  -30.5665  -15.5374   19.2004 C   0  0  0  0  0  0  0  0  0  0  0  0
  -29.0896  -17.4203   18.8682 C   0  0  0  0  0  0  0  0  0  0  0  0
  -22.6455   -7.9533   21.4085 C   0  0  0  0  0  0  0  0  0  0  0  0
  -28.0463  -25.2816   21.4758 C   0  0  0  0  0  0  0  0  0  0  0  0
  -21.5404   -6.1885   22.4977 C   0  0  0  0  0  0  0  0  0  0  0  0
  -21.4461   -4.3592   24.6018 C   0  0  0  0  0  0  0  0  0  0  0  0
  -21.5307   -4.8192   22.2316 C   0  0  0  0  0  0  0  0  0  0  0  0
  -25.9339  -10.6112   21.2667 C   0  0  0  0  0  0  0  0  0  0  0  0
  -27.3451  -12.2558   21.6391 C   0  0  0  0  0  0  0  0  0  0  0  0
  -28.8302  -19.3085   20.5409 C   0  0  0  0  0  0  0  0  0  0  0  0
  -32.7445  -15.1859   19.7985 C   0  0  0  0  0  0  0  0  0  0  0  0
  -30.7259  -13.7452   17.4723 C   0  0  0  0  0  0  0  0  0  0  0  0
  -25.3417  -12.2779   23.1339 C   0  0  0  0  0  0  0  0  0  0  0  0
  -25.0085  -29.7674   21.8133 C   0  0  0  0  0  0  0  0  0  0  0  0
  -23.3725  -28.7308   19.2111 C   0  0  0  0  0  0  0  0  0  0  0  0
  -22.9272  -26.3154   16.8416 C   0  0  0  0  0  0  0  0  0  0  0  0
  -25.6992  -34.1822   24.2810 C   0  0  0  0  0  0  0  0  0  0  0  0
  -26.8864  -29.2314   20.2189 C   0  0  0  0  0  0  0  0  0  0  0  0
  -24.8881  -27.0545   20.3327 C   0  0  0  0  0  0  0  0  0  0  0  0
  -24.6139  -33.5902   23.3856 C   0  0  0  0  0  0  0  0  0  0  0  0
  -30.8241  -10.3322   18.5129 C   0  0  0  0  0  0  0  0  0  0  0  0
  -24.2452  -32.1852   23.8513 C   0  0  0  0  0  0  0  0  0  0  0  0
  -29.5681  -10.1848   19.3736 C   0  0  0  0  0  0  0  0  0  0  0  0
  -27.4930  -20.7496   19.1933 C   0  0  0  0  0  0  0  0  0  0  0  0
  -30.5947  -11.2805   17.3388 C   0  0  0  0  0  0  0  0  0  0  0  0
  -27.5199  -19.3652   18.5743 C   0  0  0  0  0  0  0  0  0  0  0  0
  -28.8191  -12.4676   18.5810 C   0  0  0  0  0  0  0  0  0  0  0  0
  -25.4514  -31.2420   23.7678 C   0  0  1  0  0  0  0  0  0  0  0  0
  -25.3967  -29.5164   20.3836 C   0  0  1  0  0  0  0  0  0  0  0  0
  -29.0229  -11.5594   19.8047 C   0  0  1  0  0  0  0  0  0  0  0  0
  -27.8924  -20.5096   20.6514 C   0  0  1  0  0  0  0  0  0  0  0  0
  -26.6843  -20.1204   21.5114 C   0  0  0  0  0  0  0  0  0  0  0  0
  -34.5939  -15.6054   21.3820 C   0  0  0  0  0  0  0  0  0  0  0  0
  -34.7739  -13.7842   19.6554 C   0  0  0  0  0  0  0  0  0  0  0  0
  -21.4871  -25.7302   14.8716 C   0  0  0  0  0  0  0  0  0  0  0  0
  -21.1090  -27.9477   21.1014 C   0  0  0  0  0  0  0  0  0  0  0  0
  -20.1517  -26.5449   19.2619 C   0  0  0  0  0  0  0  0  0  0  0  0
  -20.3628  -29.0127   18.9651 C   0  0  0  0  0  0  0  0  0  0  0  0
  -25.2457  -26.3064   15.0022 C   0  0  0  0  0  0  0  0  0  0  0  0
  -28.6020  -21.7226   21.2483 C   0  0  0  0  0  0  0  0  0  0  0  0
  -27.6874  -22.9360   21.3170 C   0  0  0  0  0  0  0  0  0  1  0  0
  -33.8444  -14.5337   20.6012 C   0  0  0  0  0  0  0  0  0  0  0  0
  -22.4432  -27.5767   18.9223 C   0  0  1  0  0  0  0  0  0  0  0  0
  -22.7718  -26.3999   15.3339 C   0  0  2  0  0  0  0  0  0  0  0  0
  -21.0433  -27.7662   19.5718 C   0  0  0  0  0  0  0  0  0  0  0  0
  -26.9137  -10.4187   20.3796 N   0  0  0  0  0  0  0  0  0  0  0  0
  -31.5043  -14.8720   20.0003 N   0  0  0  0  0  0  0  0  0  0  0  0
  -27.7566  -11.4348   20.6307 N   0  0  0  0  0  0  0  0  0  0  0  0
  -28.5345  -18.6529   19.3277 N   0  0  0  0  0  0  0  0  0  0  0  0
  -30.0633  -12.5611   17.8043 N   0  0  0  0  0  0  0  0  0  0  0  0
  -24.5546  -28.4211   19.8984 N   0  0  0  0  0  0  0  0  0  0  0  0
  -28.0739  -13.3260   22.0212 N   0  0  0  0  0  0  0  0  0  0  0  0
  -25.5663  -11.8275   24.4419 N   0  0  0  0  0  0  0  0  0  0  0  0
  -25.6745  -30.8268   22.3995 N   0  0  0  0  0  0  0  0  0  0  0  0
  -22.4137  -27.4295   17.4712 N   0  0  0  0  0  0  0  0  0  0  0  0
  -23.9196  -25.7327   14.6567 N   0  3  0  0  0  0  0  0  0  0  0  0
  -29.6243  -19.0004   21.4190 O   0  0  0  0  0  0  0  0  0  0  0  0
  -31.7533  -13.8279   16.8009 O   0  0  0  0  0  0  0  0  0  0  0  0
  -24.4360  -13.1194   22.9214 O   0  0  0  0  0  0  0  0  0  0  0  0
  -24.1659  -29.0537   22.3447 O   0  0  0  0  0  0  0  0  0  0  0  0
  -23.0644  -29.8642   18.8341 O   0  0  0  0  0  0  0  0  0  0  0  0
  -23.4483  -25.3553   17.4048 O   0  0  0  0  0  0  0  0  0  0  0  0
  -21.5880   -7.0977   21.4543 O   0  0  0  0  0  0  0  0  0  0  0  0
  -28.4160  -24.0322   21.8683 O   0  0  0  0  0  0  0  0  0  1  0  0
  -21.4024   -3.4810   25.6123 F   0  0  0  0  0  0  0  0  0  0  0  0
  -21.5677   -4.3765   20.9673 F   0  0  0  0  0  0  0  0  0  0  0  0
  1  2  1  0  0  0  0
  1  6  2  0  0  0  0
  2  7  2  0  0  0  0
  3 10  2  0  0  0  0
  3 18  1  0  0  0  0
  4 11  1  0  0  0  0
  4 18  2  0  0  0  0
  5  9  2  0  0  0  0
  5 19  1  0  0  0  0
  6 21  1  0  0  0  0
  7 23  1  0  0  0  0
  8 12  2  0  0  0  0
  8 22  1  0  0  0  0
  9 26  1  0  0  0  0
 10 27  1  0  0  0  0
 11 27  2  0  0  0  0
 12 28  1  0  0  0  0
 13 14  2  0  0  0  0
 13 29  1  0  0  0  0
 14 30  1  0  0  0  0
 15 24  1  0  0  0  0
 15 28  2  0  0  0  0
 16 25  1  0  0  0  0
 16 26  2  0  0  0  0
 17 30  2  0  0  0  0
 17 31  1  0  0  0  0
 18 32  1  0  0  0  0
 19 25  2  0  0  0  0
 19 36  1  0  0  0  0
 20 32  1  0  0  0  0
 20 33  2  0  0  0  0
 20 37  1  0  0  0  0
 21 23  2  0  0  0  0
 21 41  1  0  0  0  0
 22 24  2  0  0  0  0
 22 42  1  0  0  0  0
 23 52  1  0  0  0  0
 24 43  1  0  0  0  0
 25 71  1  0  0  0  0
 26 73  1  0  0  0  0
 27 87  1  0  0  0  0
 28 88  1  0  0  0  0
 29 31  2  0  0  0  0
 29 87  1  0  0  0  0
 30 89  1  0  0  0  0
 31 90  1  0  0  0  0
 32 70  2  0  0  0  0
 33 72  1  0  0  0  0
 33 76  1  0  0  0  0
 34 55  1  0  0  0  0
 34 73  1  0  0  0  0
 34 81  2  0  0  0  0
 35 66  1  0  0  0  0
 35 71  2  0  0  0  0
 36 74  1  0  0  0  0
 36 82  2  0  0  0  0
 37 77  1  0  0  0  0
 37 83  2  0  0  0  0
 38 53  1  0  0  0  0
 38 78  1  0  0  0  0
 38 84  2  0  0  0  0
 39 67  1  0  0  0  0
 39 75  1  0  0  0  0
 39 85  2  0  0  0  0
 40 68  1  0  0  0  0
 40 79  1  0  0  0  0
 40 86  2  0  0  0  0
 41 44  1  0  0  0  0
 42 53  1  0  0  0  0
 43 75  1  0  0  0  0
 44 46  1  0  0  0  0
 45 47  1  0  0  0  0
 45 49  1  0  0  0  0
 46 52  1  0  0  0  0
 47 54  1  0  0  0  0
 48 50  1  0  0  0  0
 48 55  1  0  0  0  0
 49 74  1  0  0  0  0
 50 73  1  0  0  0  0
 51 54  1  0  0  0  0
 51 74  1  0  0  0  0
 52 78  1  0  0  0  0
 53 75  1  0  0  0  0
 54 72  1  0  0  0  0
 55 56  1  0  0  0  0
 55 64  1  0  0  0  0
 57 66  1  0  0  0  0
 58 66  1  0  0  0  0
 59 68  1  0  0  0  0
 60 69  1  0  0  0  0
 61 69  1  0  0  0  0
 62 69  1  0  0  0  0
 63 80  1  0  0  0  0
 64 65  1  0  0  0  0
 65 88  1  0  0  0  0
 67 69  1  0  0  0  0
 67 79  1  0  0  0  0
 68 80  1  0  0  0  0
 70 72  1  0  0  0  0
M  CHG  1  80   1
M  ISO  4  19 100  36 100  65 101  88 101
M  END
> <Batch ID>
0071

> <Smiles>
CNC(C)C(=O)NC(C(=O)N1Cc2cc([101O:1][101CH2:1]CC3(C)CCN(c4cc[100c:0]([100C:0](=O)N5CCCC(n6nc(-c7ccc(Oc8ccc(F)cc8F)cc7)c(C(N)=O)c6N)C5)c(NC=C(C)C)c4)C3=O)ccc2CC1C(=O)NC1CCCc2ccccc21)C(C)(C)C

> <Shape>
0.321

> <Color>
0.090

> <Negative vol penalty>
0.000

$$$$

  -OEChem-04042323353D

 85 94  0     1  0  0  0  0  0999 V2000
  -17.8999  -29.5106   25.7358 C   0  0  0  0  0  0  0  0  0  0  0  0
  -19.0304  -28.7035   25.8135 C   0  0  0  0  0  0  0  0  0  0  0  0
  -23.1668   -9.7920   21.4714 C   0  0  0  0  0  0  0  0  0  0  0  0
  -23.8058  -10.7864   23.5784 C   0  0  0  0  0  0  0  0  0  0  0  0
  -17.5027  -30.0356   24.5067 C   0  0  0  0  0  0  0  0  0  0  0  0
  -19.7637  -28.4199   24.6618 C   0  0  0  0  0  0  0  0  0  0  0  0
  -25.8294  -27.6845   24.2477 C   0  0  0  0  0  0  0  0  0  0  0  0
  -32.1944  -18.7672   21.7999 C   0  0  0  0  0  0  0  0  0  0  0  0
  -31.6945  -17.5554   21.3235 C   0  0  0  0  0  0  0  0  0  0  0  0
  -22.4636   -8.7989   22.1532 C   0  0  0  0  0  0  0  0  0  0  0  0
  -23.1025   -9.7934   24.2604 C   0  0  0  0  0  0  0  0  0  0  0  0
  -26.6360  -26.5479   24.2093 C   0  0  0  0  0  0  0  0  0  0  0  0
  -23.1687   -5.9346   23.8033 C   0  0  0  0  0  0  0  0  0  0  0  0
  -23.3304   -4.6169   23.3752 C   0  0  0  0  0  0  0  0  0  0  0  0
  -26.6679  -26.6593   21.7998 C   0  0  0  0  0  0  0  0  0  0  0  0
  -29.4472  -18.4335   21.4481 C   0  0  0  0  0  0  0  0  0  0  0  0
  -20.9622   -4.4749   22.9182 C   0  0  0  0  0  0  0  0  0  0  0  0
  -23.8379  -10.7857   22.1840 C   0  0  0  0  0  0  0  0  0  0  0  0
  -24.0716  -13.0553   21.0429 C   0  0  0  0  0  0  0  0  0  0  0  0
  -18.2370  -29.7662   23.3410 C   0  0  0  0  0  0  0  0  0  0  0  0
  -25.4263  -28.3116   23.0600 C   0  0  0  0  0  0  0  0  0  0  0  0
  -19.3751  -28.9407   23.4158 C   0  0  0  0  0  0  0  0  0  0  0  0
  -25.8583  -27.8051   21.8259 C   0  0  0  0  0  0  0  0  0  0  0  0
  -31.3207  -19.8123   22.1005 C   0  0  0  0  0  0  0  0  0  0  0  0
  -29.9471  -19.6454   21.9246 C   0  0  0  0  0  0  0  0  0  0  0  0
  -30.3209  -17.3885   21.1475 C   0  0  0  0  0  0  0  0  0  0  0  0
  -22.4314   -8.7996   23.5477 C   0  0  0  0  0  0  0  0  0  0  0  0
  -27.0530  -26.0335   22.9851 C   0  0  0  0  0  0  0  0  0  0  0  0
  -21.9038   -6.5224   23.7889 C   0  0  0  0  0  0  0  0  0  0  0  0
  -22.2271   -3.8871   22.9327 C   0  0  0  0  0  0  0  0  0  0  0  0
  -20.8006   -5.7926   23.3463 C   0  0  0  0  0  0  0  0  0  0  0  0
  -24.5650  -11.8114   21.4802 C   0  0  0  0  0  0  0  0  0  0  0  0
  -25.1463  -13.6563   20.4344 C   0  0  0  0  0  0  0  0  0  0  0  0
  -29.0286  -21.9223   21.6590 C   0  0  0  0  0  0  0  0  0  0  0  0
  -28.0475  -22.6778   22.1713 C   0  0  0  0  0  0  0  0  0  0  0  0
  -27.3417  -21.8909   23.1713 C   0  0  0  0  0  0  0  0  0  0  0  0
  -26.2988  -22.2671   23.9182 C   0  0  0  0  0  0  0  0  0  0  0  0
  -22.7592  -13.6173   21.1752 C   0  0  0  0  0  0  0  0  0  0  0  0
  -22.6287  -28.8880   21.6654 C   0  0  0  0  0  0  0  0  0  0  0  0
  -24.4578  -30.5596   19.5719 C   0  0  0  0  0  0  0  0  0  0  0  0
  -27.5222  -31.0508   18.1524 C   0  0  0  0  0  0  0  0  0  0  0  0
  -30.5435  -15.0199   20.3189 C   0  0  0  0  0  0  0  0  0  0  0  0
  -17.7417  -30.3174   22.0275 C   0  0  0  0  0  0  0  0  0  0  0  0
  -24.5782  -29.5524   23.1194 C   0  0  0  0  0  0  0  0  0  0  0  0
  -25.4699  -28.4532   20.5229 C   0  0  0  0  0  0  0  0  0  0  0  0
  -28.0090  -20.5265   23.2270 C   0  0  0  0  0  0  0  0  0  0  0  0
  -18.7874  -30.2753   20.9162 C   0  0  0  0  0  0  0  0  0  0  0  0
  -29.6630  -11.7827   19.1262 C   0  0  0  0  0  0  0  0  0  0  0  0
  -19.4723  -28.9128   20.8790 C   0  0  0  0  0  0  0  0  0  0  0  0
  -28.2176  -11.6039   19.5963 C   0  0  0  0  0  0  0  0  0  0  0  0
  -30.5034  -12.5409   20.1522 C   0  0  0  0  0  0  0  0  0  0  0  0
  -28.4968  -13.6478   21.0564 C   0  0  0  0  0  0  0  0  0  0  0  0
  -20.2108  -28.6305   22.1929 C   0  0  1  0  0  0  0  0  0  0  0  0
  -23.8042  -29.8094   21.8301 C   0  0  1  0  0  0  0  0  0  0  0  0
  -27.5951  -12.9464   20.0275 C   0  0  2  0  0  0  0  0  0  0  0  0
  -31.8835  -21.0995   22.6089 C   0  0  0  0  0  0  0  0  0  0  0  0
  -28.6986  -32.4648   16.4452 C   0  0  0  0  0  0  0  0  0  0  0  0
  -23.1686  -28.9301   17.3375 C   0  0  0  0  0  0  0  0  0  0  0  0
  -25.0122  -29.6825   15.8198 C   0  0  0  0  0  0  0  0  0  0  0  0
  -23.4609  -31.3596   16.8216 C   0  0  0  0  0  0  0  0  0  0  0  0
  -29.3748  -32.1591   20.1769 C   0  0  0  0  0  0  0  0  0  0  0  0
  -27.7099  -24.0767   21.8039 C   0  0  0  0  0  0  0  0  0  1  0  0
  -25.1840  -30.2332   18.2893 C   0  0  1  0  0  0  0  0  0  0  0  0
  -28.3308  -32.3131   17.9130 C   0  0  2  0  0  0  0  0  0  0  0  0
  -24.2123  -30.0378   17.0913 C   0  0  0  0  0  0  0  0  0  0  0  0
  -25.8529  -11.6315   21.1751 N   0  0  0  0  0  0  0  0  0  0  0  0
  -26.1778  -12.7702   20.5396 N   0  0  0  0  0  0  0  0  0  0  0  0
  -29.0740  -20.6627   22.2163 N   0  0  0  0  0  0  0  0  0  0  0  0
  -24.6344  -29.6604   20.6331 N   0  0  0  0  0  0  0  0  0  0  0  0
  -29.8539  -13.8039   20.5099 N   0  0  0  0  0  0  0  0  0  0  0  0
  -25.3001  -14.8509   19.8247 N   0  0  0  0  0  0  0  0  0  0  0  0
  -21.7731  -12.8654   21.8283 N   0  0  0  0  0  0  0  0  0  0  0  0
  -29.8137  -16.1569   20.6640 N   0  0  0  0  0  0  0  0  0  0  0  0
  -21.4613  -29.3578   22.2361 N   0  0  0  0  0  0  0  0  0  0  0  0
  -26.1662  -31.2943   18.0950 N   0  0  0  0  0  0  0  0  0  0  0  0
  -29.5885  -32.2819   18.7119 N   0  3  0  0  0  0  0  0  0  0  0  0
  -22.4652  -14.7458   20.7130 O   0  0  0  0  0  0  0  0  0  0  0  0
  -22.7701  -27.8299   21.0636 O   0  0  0  0  0  0  0  0  0  0  0  0
  -23.7653  -31.5786   19.6323 O   0  0  0  0  0  0  0  0  0  0  0  0
  -28.0416  -29.9574   18.3650 O   0  0  0  0  0  0  0  0  0  0  0  0
  -31.6866  -15.0520   19.8559 O   0  0  0  0  0  0  0  0  0  0  0  0
  -21.7451   -7.8309   24.2135 O   0  0  0  0  0  0  0  0  0  0  0  0
  -27.8398  -24.9239   22.9448 O   0  0  0  0  0  0  0  0  0  1  0  0
  -22.3827   -2.6223   22.5202 F   0  0  0  0  0  0  0  0  0  0  0  0
  -19.5831   -6.3523   23.3291 F   0  0  0  0  0  0  0  0  0  0  0  0
  1  2  1  0  0  0  0
  1  5  2  0  0  0  0
  2  6  2  0  0  0  0
  3 10  2  0  0  0  0
  3 18  1  0  0  0  0
  4 11  1  0  0  0  0
  4 18  2  0  0  0  0
  5 20  1  0  0  0  0
  6 22  1  0  0  0  0
  7 12  2  0  0  0  0
  7 21  1  0  0  0  0
  8  9  2  0  0  0  0
  8 24  1  0  0  0  0
  9 26  1  0  0  0  0
 10 27  1  0  0  0  0
 11 27  2  0  0  0  0
 12 28  1  0  0  0  0
 13 14  2  0  0  0  0
 13 29  1  0  0  0  0
 14 30  1  0  0  0  0
 15 23  1  0  0  0  0
 15 28  2  0  0  0  0
 16 25  1  0  0  0  0
 16 26  2  0  0  0  0
 17 30  2  0  0  0  0
 17 31  1  0  0  0  0
 18 32  1  0  0  0  0
 19 32  1  0  0  0  0
 19 33  2  0  0  0  0
 19 38  1  0  0  0  0
 20 22  2  0  0  0  0
 20 43  1  0  0  0  0
 21 23  2  0  0  0  0
 21 44  1  0  0  0  0
 22 53  1  0  0  0  0
 23 45  1  0  0  0  0
 24 25  2  0  0  0  0
 24 56  1  0  0  0  0
 25 68  1  0  0  0  0
 26 73  1  0  0  0  0
 27 82  1  0  0  0  0
 28 83  1  0  0  0  0
 29 31  2  0  0  0  0
 29 82  1  0  0  0  0
 30 84  1  0  0  0  0
 31 85  1  0  0  0  0
 32 66  2  0  0  0  0
 33 67  1  0  0  0  0
 33 71  1  0  0  0  0
 34 35  2  0  0  0  0
 34 68  1  0  0  0  0
 35 36  1  0  0  0  0
 35 62  1  0  0  0  0
 36 37  2  0  0  0  0
 36 46  1  0  0  0  0
 38 72  1  0  0  0  0
 38 77  2  0  0  0  0
 39 54  1  0  0  0  0
 39 74  1  0  0  0  0
 39 78  2  0  0  0  0
 40 63  1  0  0  0  0
 40 69  1  0  0  0  0
 40 79  2  0  0  0  0
 41 64  1  0  0  0  0
 41 75  1  0  0  0  0
 41 80  2  0  0  0  0
 42 70  1  0  0  0  0
 42 73  1  0  0  0  0
 42 81  2  0  0  0  0
 43 47  1  0  0  0  0
 44 54  1  0  0  0  0
 45 69  1  0  0  0  0
 46 68  1  0  0  0  0
 47 49  1  0  0  0  0
 48 50  1  0  0  0  0
 48 51  1  0  0  0  0
 49 53  1  0  0  0  0
 50 55  1  0  0  0  0
 51 70  1  0  0  0  0
 52 55  1  0  0  0  0
 52 70  1  0  0  0  0
 53 74  1  0  0  0  0
 54 69  1  0  0  0  0
 55 67  1  0  0  0  0
 57 64  1  0  0  0  0
 58 65  1  0  0  0  0
 59 65  1  0  0  0  0
 60 65  1  0  0  0  0
 61 76  1  0  0  0  0
 62 83  1  0  0  0  0
 63 65  1  0  0  0  0
 63 75  1  0  0  0  0
 64 76  1  0  0  0  0
 66 67  1  0  0  0  0
M  CHG  1  76   1
M  ISO  4  42 100  62 101  73 100  83 101
M  END
> <Batch ID>
0071

> <Smiles>
C=C1CN(c2cc([100NH:0][100C:0](=O)N3CCCC(n4nc(-c5ccc(Oc6ccc(F)cc6F)cc5)c(C(N)=O)c4N)C3)ccc2C)C=C1[101CH2:1][101O:1]c1ccc2c(c1)CN(C(=O)C(NC(=O)C(C)NC)C(C)(C)C)C(C(=O)NC1CCCc3ccccc31)C2

> <Shape>
0.264

> <Color>
0.182

> <Negative vol penalty>
0.000

$$$$

  -OEChem-04042323353D

 83 91  0     1  0  0  0  0  0999 V2000
  -26.7084  -23.2849   17.8390 C   0  0  0  0  0  0  0  0  0  0  0  0
  -25.6291  -23.7185   18.6022 C   0  0  0  0  0  0  0  0  0  0  0  0
  -27.3406  -16.5716   19.0127 C   0  0  0  0  0  0  0  0  0  0  0  0
  -26.8118  -17.7279   21.0671 C   0  0  0  0  0  0  0  0  0  0  0  0
  -19.1640  -22.4036   22.9183 C   0  0  0  0  0  0  0  0  0  0  0  0
  -27.9949  -23.7335   18.1349 C   0  0  0  0  0  0  0  0  0  0  0  0
  -25.8358  -24.6003   19.6625 C   0  0  0  0  0  0  0  0  0  0  0  0
  -22.4471  -28.3624   19.7497 C   0  0  0  0  0  0  0  0  0  0  0  0
  -19.5807  -21.2653   22.2282 C   0  0  0  0  0  0  0  0  0  0  0  0
  -28.6508  -17.0448   19.0836 C   0  0  0  0  0  0  0  0  0  0  0  0
  -28.1221  -18.2010   21.1381 C   0  0  0  0  0  0  0  0  0  0  0  0
  -21.1805  -28.0669   20.2519 C   0  0  0  0  0  0  0  0  0  0  0  0
  -30.3004  -19.9184   18.4161 C   0  0  0  0  0  0  0  0  0  0  0  0
  -30.8686  -20.4283   17.2488 C   0  0  0  0  0  0  0  0  0  0  0  0
  -21.7911  -29.0640   22.3619 C   0  0  0  0  0  0  0  0  0  0  0  0
  -18.4082  -22.0300   20.2590 C   0  0  0  0  0  0  0  0  0  0  0  0
  -32.6074  -18.7549   17.3641 C   0  0  0  0  0  0  0  0  0  0  0  0
  -26.4210  -16.9132   20.0045 C   0  0  0  0  0  0  0  0  0  0  0  0
  -18.3693  -23.3550   22.2788 C   0  0  0  0  0  0  0  0  0  0  0  0
  -24.5646  -15.2283   20.4759 C   0  0  0  0  0  0  0  0  0  0  0  0
  -28.2163  -24.6287   19.1933 C   0  0  0  0  0  0  0  0  0  0  0  0
  -23.4005  -29.0022   20.5548 C   0  0  0  0  0  0  0  0  0  0  0  0
  -27.1267  -25.0602   19.9736 C   0  0  0  0  0  0  0  0  0  0  0  0
  -23.0682  -29.3688   21.8668 C   0  0  0  0  0  0  0  0  0  0  0  0
  -19.2029  -21.0786   20.8985 C   0  0  0  0  0  0  0  0  0  0  0  0
  -17.9914  -23.1683   20.9492 C   0  0  0  0  0  0  0  0  0  0  0  0
  -29.0416  -17.8594   20.1463 C   0  0  0  0  0  0  0  0  0  0  0  0
  -20.8533  -28.4151   21.5591 C   0  0  0  0  0  0  0  0  0  0  0  0
  -30.8858  -18.8267   19.0575 C   0  0  0  0  0  0  0  0  0  0  0  0
  -32.0221  -19.8466   16.7227 C   0  0  0  0  0  0  0  0  0  0  0  0
  -32.0393  -18.2450   18.5315 C   0  0  0  0  0  0  0  0  0  0  0  0
  -25.0673  -16.4253   19.9315 C   0  0  0  0  0  0  0  0  0  0  0  0
  -23.2342  -15.2280   20.1347 C   0  0  0  0  0  0  0  0  0  0  0  0
  -17.9417  -24.5512   23.0318 C   0  0  0  0  0  0  0  0  0  0  0  0
  -25.2398  -14.2080   21.2234 C   0  0  0  0  0  0  0  0  0  0  0  0
  -26.2772  -28.2328   21.6665 C   0  0  0  0  0  0  0  0  0  0  0  0
  -26.2562  -31.2969   22.7312 C   0  0  0  0  0  0  0  0  0  0  0  0
  -24.4340  -34.0285   23.6610 C   0  0  0  0  0  0  0  0  0  0  0  0
  -19.3418  -19.5835   18.8757 C   0  0  0  0  0  0  0  0  0  0  0  0
  -29.6309  -25.0489   19.5048 C   0  0  0  0  0  0  0  0  0  0  0  0
  -24.7533  -29.3379   19.9895 C   0  0  0  0  0  0  0  0  0  0  0  0
  -24.0491  -30.0752   22.7653 C   0  0  0  0  0  0  0  0  0  0  0  0
  -29.7167  -26.2753   20.4097 C   0  0  0  0  0  0  0  0  0  0  0  0
  -20.2293  -16.8483   16.7761 C   0  0  0  0  0  0  0  0  0  0  0  0
  -28.7621  -26.1348   21.5912 C   0  0  0  0  0  0  0  0  0  0  0  0
  -21.5217  -16.3167   17.4001 C   0  0  0  0  0  0  0  0  0  0  0  0
  -20.1436  -18.3712   16.8601 C   0  0  0  0  0  0  0  0  0  0  0  0
  -21.6244  -18.3988   18.8288 C   0  0  0  0  0  0  0  0  0  0  0  0
  -27.3074  -26.0358   21.1163 C   0  0  1  0  0  0  0  0  0  0  0  0
  -25.8188  -29.5308   21.0642 C   0  0  1  0  0  0  0  0  0  0  0  0
  -21.7259  -16.8648   18.8261 C   0  0  2  0  0  0  0  0  0  0  0  0
  -24.6957  -36.3718   24.5198 C   0  0  0  0  0  0  0  0  0  0  0  0
  -26.9023  -30.2051   25.5062 C   0  0  0  0  0  0  0  0  0  0  0  0
  -26.2193  -32.4172   26.4592 C   0  0  0  0  0  0  0  0  0  0  0  0
  -28.1501  -32.2817   24.8856 C   0  0  0  0  0  0  0  0  0  0  0  0
  -23.0992  -35.1737   21.2807 C   0  0  0  0  0  0  0  0  0  0  0  0
  -18.4094  -26.8796   23.7072 C   0  0  0  0  0  0  0  0  0  0  0  0
  -19.5195  -27.8793   23.4538 C   0  0  0  0  0  0  0  0  0  1  0  0
  -25.8024  -31.9864   23.9952 C   0  0  1  0  0  0  0  0  0  0  0  0
  -24.5538  -35.4945   23.2857 C   0  0  2  0  0  0  0  0  0  0  0  0
  -26.7505  -31.7076   25.1955 C   0  0  0  0  0  0  0  0  0  0  0  0
  -24.1324  -17.1338   19.2927 N   0  0  0  0  0  0  0  0  0  0  0  0
  -23.0289  -16.3798   19.4335 N   0  0  0  0  0  0  0  0  0  0  0  0
  -25.3610  -30.3760   22.1688 N   0  0  0  0  0  0  0  0  0  0  0  0
  -20.3423  -18.8175   18.2407 N   0  0  0  0  0  0  0  0  0  0  0  0
  -17.1881  -24.1214   20.2853 N   0  0  0  0  0  0  0  0  0  0  0  0
  -22.2316  -14.3549   20.3689 N   0  0  0  0  0  0  0  0  0  0  0  0
  -16.7937  -24.4914   23.7067 N   0  0  0  0  0  0  0  0  0  0  0  0
  -26.6075  -14.3663   21.4855 N   0  0  0  0  0  0  0  0  0  0  0  0
  -19.6273  -19.9224   20.1979 N   0  0  0  0  0  0  0  0  0  0  0  0
  -26.8051  -27.3429   20.7506 N   0  0  0  0  0  0  0  0  0  0  0  0
  -25.6610  -33.3995   23.6611 N   0  0  0  0  0  0  0  0  0  0  0  0
  -18.7242  -25.6365   22.9989 N   0  3  0  0  0  0  0  0  0  0  0  0
  -23.3468  -35.9364   22.5314 N   0  3  0  0  0  0  0  0  0  0  0  0
  -24.6515  -13.1784   21.6323 O   0  0  0  0  0  0  0  0  0  0  0  0
  -26.1620  -28.0527   22.8732 O   0  0  0  0  0  0  0  0  0  0  0  0
  -27.3613  -31.5707   22.2564 O   0  0  0  0  0  0  0  0  0  0  0  0
  -23.3599  -33.4956   23.9309 O   0  0  0  0  0  0  0  0  0  0  0  0
  -18.2959  -19.8913   18.2984 O   0  0  0  0  0  0  0  0  0  0  0  0
  -30.3201  -18.3211   20.2159 O   0  0  0  0  0  0  0  0  0  0  0  0
  -19.6179  -28.1273   22.0520 O   0  0  0  0  0  0  0  0  0  1  0  0
  -32.5667  -20.3355   15.6009 F   0  0  0  0  0  0  0  0  0  0  0  0
  -32.6055  -17.1953   19.1425 F   0  0  0  0  0  0  0  0  0  0  0  0
  1  2  1  0  0  0  0
  1  6  2  0  0  0  0
  2  7  2  0  0  0  0
  3 10  2  0  0  0  0
  3 18  1  0  0  0  0
  4 11  1  0  0  0  0
  4 18  2  0  0  0  0
  5  9  2  0  0  0  0
  5 19  1  0  0  0  0
  6 21  1  0  0  0  0
  7 23  1  0  0  0  0
  8 12  2  0  0  0  0
  8 22  1  0  0  0  0
  9 25  1  0  0  0  0
 10 27  1  0  0  0  0
 11 27  2  0  0  0  0
 12 28  1  0  0  0  0
 13 14  2  0  0  0  0
 13 29  1  0  0  0  0
 14 30  1  0  0  0  0
 15 24  1  0  0  0  0
 15 28  2  0  0  0  0
 16 25  2  0  0  0  0
 16 26  1  0  0  0  0
 17 30  2  0  0  0  0
 17 31  1  0  0  0  0
 18 32  1  0  0  0  0
 19 26  2  0  0  0  0
 19 34  1  0  0  0  0
 20 32  1  0  0  0  0
 20 33  2  0  0  0  0
 20 35  1  0  0  0  0
 21 23  2  0  0  0  0
 21 40  1  0  0  0  0
 22 24  2  0  0  0  0
 22 41  1  0  0  0  0
 23 49  1  0  0  0  0
 24 42  1  0  0  0  0
 25 70  1  0  0  0  0
 26 66  1  0  0  0  0
 27 80  1  0  0  0  0
 28 81  1  0  0  0  0
 29 31  2  0  0  0  0
 29 80  1  0  0  0  0
 30 82  1  0  0  0  0
 31 83  1  0  0  0  0
 32 62  2  0  0  0  0
 33 63  1  0  0  0  0
 33 67  1  0  0  0  0
 34 68  1  0  0  0  0
 34 73  2  0  0  0  0
 35 69  1  0  0  0  0
 35 75  2  0  0  0  0
 36 50  1  0  0  0  0
 36 71  1  0  0  0  0
 36 76  2  0  0  0  0
 37 59  1  0  0  0  0
 37 64  1  0  0  0  0
 37 77  2  0  0  0  0
 38 60  1  0  0  0  0
 38 72  1  0  0  0  0
 38 78  2  0  0  0  0
 39 65  1  0  0  0  0
 39 70  1  0  0  0  0
 39 79  2  0  0  0  0
 40 43  1  0  0  0  0
 41 50  1  0  0  0  0
 42 64  1  0  0  0  0
 43 45  1  0  0  0  0
 44 46  1  0  0  0  0
 44 47  1  0  0  0  0
 45 49  1  0  0  0  0
 46 51  1  0  0  0  0
 47 65  1  0  0  0  0
 48 51  1  0  0  0  0
 48 65  1  0  0  0  0
 49 71  1  0  0  0  0
 50 64  1  0  0  0  0
 51 63  1  0  0  0  0
 52 60  1  0  0  0  0
 53 61  1  0  0  0  0
 54 61  1  0  0  0  0
 55 61  1  0  0  0  0
 56 74  1  0  0  0  0
 57 58  1  0  0  0  0
 57 73  1  0  0  0  0
 58 81  1  0  0  0  0
 59 61  1  0  0  0  0
 59 72  1  0  0  0  0
 60 74  1  0  0  0  0
 62 63  1  0  0  0  0
M  CHG  2  73   1  74   1
M  ISO  4  39 100  58 101  70 100  81 101
M  END
> <Batch ID>
0071

> <Smiles>
CNC(C)C(=O)NC(C(=O)N1Cc2cc([101O:1][101CH2:1]CNC(=N)c3ccc([100NH:0][100C:0](=O)N4CCCC(n5nc(-c6ccc(Oc7ccc(F)cc7F)cc6)c(C(N)=O)c5N)C4)cc3N)ccc2CC1C(=O)NC1CCCc2ccccc21)C(C)(C)C

> <Shape>
0.234

> <Color>
0.066

> <Negative vol penalty>
0.000

$$$$

  -OEChem-04042323353D

 84 92  0     1  0  0  0  0  0999 V2000
  -22.2185  -22.6903   23.4398 C   0  0  0  0  0  0  0  0  0  0  0  0
  -23.5792  -22.5019   23.6602 C   0  0  0  0  0  0  0  0  0  0  0  0
  -23.0605   -9.8857   19.9293 C   0  0  0  0  0  0  0  0  0  0  0  0
  -23.8315   -9.8613   22.2189 C   0  0  0  0  0  0  0  0  0  0  0  0
  -32.6956  -17.4149   23.4854 C   0  0  0  0  0  0  0  0  0  0  0  0
  -21.7775  -23.2330   22.2336 C   0  0  0  0  0  0  0  0  0  0  0  0
  -24.4996  -22.8552   22.6740 C   0  0  0  0  0  0  0  0  0  0  0  0
  -28.4807  -25.3663   24.5419 C   0  0  0  0  0  0  0  0  0  0  0  0
  -32.0987  -16.5448   22.5732 C   0  0  0  0  0  0  0  0  0  0  0  0
  -22.3113   -8.7340   20.1693 C   0  0  0  0  0  0  0  0  0  0  0  0
  -23.0822   -8.7096   22.4589 C   0  0  0  0  0  0  0  0  0  0  0  0
  -29.4652  -24.6141   25.1811 C   0  0  0  0  0  0  0  0  0  0  0  0
  -19.3655   -7.9371   21.6255 C   0  0  0  0  0  0  0  0  0  0  0  0
  -18.0561   -7.9040   21.1461 C   0  0  0  0  0  0  0  0  0  0  0  0
  -30.8172  -24.6985   23.1851 C   0  0  0  0  0  0  0  0  0  0  0  0
  -29.9223  -17.3985   23.1828 C   0  0  0  0  0  0  0  0  0  0  0  0
  -18.5982   -5.9735   19.7984 C   0  0  0  0  0  0  0  0  0  0  0  0
  -23.8207  -10.4494   20.9541 C   0  0  0  0  0  0  0  0  0  0  0  0
  -31.9058  -18.2768   24.2465 C   0  0  0  0  0  0  0  0  0  0  0  0
  -24.1765  -12.9738   20.8621 C   0  0  0  0  0  0  0  0  0  0  0  0
  -22.6935  -23.6020   21.2359 C   0  0  0  0  0  0  0  0  0  0  0  0
  -28.6526  -25.7818   23.2137 C   0  0  0  0  0  0  0  0  0  0  0  0
  -24.0703  -23.4021   21.4528 C   0  0  0  0  0  0  0  0  0  0  0  0
  -29.8345  -25.4581   22.5321 C   0  0  0  0  0  0  0  0  0  0  0  0
  -30.7121  -16.5366   22.4218 C   0  0  0  0  0  0  0  0  0  0  0  0
  -22.3221   -8.1459   21.4341 C   0  0  0  0  0  0  0  0  0  0  0  0
  -30.6324  -24.2776   24.5018 C   0  0  0  0  0  0  0  0  0  0  0  0
  -20.2914   -6.9884   21.1913 C   0  0  0  0  0  0  0  0  0  0  0  0
  -17.6724   -6.9222   20.2326 C   0  0  0  0  0  0  0  0  0  0  0  0
  -30.5192  -18.2686   24.0951 C   0  0  0  0  0  0  0  0  0  0  0  0
  -19.9077   -6.0066   20.2778 C   0  0  0  0  0  0  0  0  0  0  0  0
  -24.5954  -11.6388   20.7066 C   0  0  0  0  0  0  0  0  0  0  0  0
  -25.2711  -13.7213   20.5024 C   0  0  0  0  0  0  0  0  0  0  0  0
  -22.9110  -13.4919   21.2933 C   0  0  0  0  0  0  0  0  0  0  0  0
  -32.5455  -19.1993   25.2184 C   0  0  0  0  0  0  0  0  0  0  0  0
  -27.1182  -25.2510   20.4810 C   0  0  0  0  0  0  0  0  0  0  0  0
  -29.2000  -27.4589   19.3348 C   0  0  0  0  0  0  0  0  0  0  0  0
  -32.1202  -21.4886   26.1898 C   0  0  0  0  0  0  0  0  0  0  0  0
  -32.2062  -29.0436   19.6482 C   0  0  0  0  0  0  0  0  0  0  0  0
  -30.7440  -14.7336   20.6627 C   0  0  0  0  0  0  0  0  0  0  0  0
  -22.1663  -24.1410   19.9297 C   0  0  0  0  0  0  0  0  0  0  0  0
  -27.5928  -26.6154   22.5471 C   0  0  0  0  0  0  0  0  0  0  0  0
  -30.0764  -25.8970   21.1118 C   0  0  0  0  0  0  0  0  0  0  0  0
  -23.2299  -24.8366   19.0841 C   0  0  0  0  0  0  0  0  0  0  0  0
  -29.6044  -12.3543   18.2716 C   0  0  0  0  0  0  0  0  0  0  0  0
  -24.4983  -23.9917   19.0207 C   0  0  0  0  0  0  0  0  0  0  0  0
  -28.1652  -12.0658   18.7048 C   0  0  0  0  0  0  0  0  0  0  0  0
  -30.5266  -12.5637   19.4714 C   0  0  0  0  0  0  0  0  0  0  0  0
  -28.6305  -13.2826   20.8704 C   0  0  0  0  0  0  0  0  0  0  0  0
  -25.1010  -23.7957   20.4171 C   0  0  1  0  0  0  0  0  0  0  0  0
  -27.6492  -26.5474   21.0241 C   0  0  1  0  0  0  0  0  0  0  0  0
  -27.6510  -13.1288   19.6954 C   0  0  2  0  0  0  0  0  0  0  0  0
  -33.6464  -30.7732   18.5384 C   0  0  0  0  0  0  0  0  0  0  0  0
  -29.9648  -25.4369   17.1816 C   0  0  0  0  0  0  0  0  0  0  0  0
  -32.0102  -26.8054   16.7214 C   0  0  0  0  0  0  0  0  0  0  0  0
  -29.7463  -27.7924   16.3703 C   0  0  0  0  0  0  0  0  0  0  0  0
  -32.1500  -30.7906   22.0364 C   0  0  0  0  0  0  0  0  0  0  0  0
  -31.1635  -22.6215   26.1239 C   0  0  0  0  0  0  0  0  0  1  0  0
  -30.5807  -27.4119   18.7264 C   0  0  1  0  0  0  0  0  0  0  0  0
  -32.5807  -30.5137   19.5917 C   0  0  2  0  0  0  0  0  0  0  0  0
  -30.5704  -26.8516   17.2760 C   0  0  0  0  0  0  0  0  0  0  0  0
  -25.8576  -11.5407   20.2811 N   0  0  0  0  0  0  0  0  0  0  0  0
  -26.2413  -12.8236   20.1660 N   0  0  0  0  0  0  0  0  0  0  0  0
  -29.0078  -26.7049   20.5012 N   0  0  0  0  0  0  0  0  0  0  0  0
  -29.9778  -13.5873   20.3636 N   0  0  0  0  0  0  0  0  0  0  0  0
  -25.4888  -15.0523   20.4440 N   0  0  0  0  0  0  0  0  0  0  0  0
  -21.8955  -12.5845   21.6247 N   0  0  0  0  0  0  0  0  0  0  0  0
  -33.1229  -21.6459   27.0479 N   0  0  0  0  0  0  0  0  0  0  0  0
  -30.1059  -15.6526   21.4951 N   0  0  0  0  0  0  0  0  0  0  0  0
  -25.8085  -24.9875   20.8340 N   0  0  0  0  0  0  0  0  0  0  0  0
  -31.1239  -28.7610   18.8419 N   0  0  0  0  0  0  0  0  0  0  0  0
  -33.6472  -18.8766   25.7963 N   0  3  0  0  0  0  0  0  0  0  0  0
  -31.8347  -20.4493   25.3983 N   0  3  0  0  0  0  0  0  0  0  0  0
  -33.1045  -30.9658   20.9116 N   0  3  0  0  0  0  0  0  0  0  0  0
  -22.6821  -14.7230   21.3662 O   0  0  0  0  0  0  0  0  0  0  0  0
  -27.8427  -24.5430   19.7914 O   0  0  0  0  0  0  0  0  0  0  0  0
  -28.3261  -28.1453   18.7991 O   0  0  0  0  0  0  0  0  0  0  0  0
  -32.8153  -28.2270   20.3356 O   0  0  0  0  0  0  0  0  0  0  0  0
  -31.8718  -14.9014   20.1916 O   0  0  0  0  0  0  0  0  0  0  0  0
  -21.5908   -7.0221   21.6687 O   0  0  0  0  0  0  0  0  0  0  0  0
  -31.5947  -23.5428   25.1231 O   0  0  0  0  0  0  0  0  0  1  0  0
  -16.4145   -6.8897   19.7735 F   0  0  0  0  0  0  0  0  0  0  0  0
  -29.7503  -19.0924   24.8216 F   0  0  0  0  0  0  0  0  0  0  0  0
  -20.7924   -5.0919   19.8579 F   0  0  0  0  0  0  0  0  0  0  0  0
  1  2  1  0  0  0  0
  1  6  2  0  0  0  0
  2  7  2  0  0  0  0
  3 10  2  0  0  0  0
  3 18  1  0  0  0  0
  4 11  1  0  0  0  0
  4 18  2  0  0  0  0
  5  9  2  0  0  0  0
  5 19  1  0  0  0  0
  6 21  1  0  0  0  0
  7 23  1  0  0  0  0
  8 12  2  0  0  0  0
  8 22  1  0  0  0  0
  9 25  1  0  0  0  0
 10 26  1  0  0  0  0
 11 26  2  0  0  0  0
 12 27  1  0  0  0  0
 13 14  2  0  0  0  0
 13 28  1  0  0  0  0
 14 29  1  0  0  0  0
 15 24  1  0  0  0  0
 15 27  2  0  0  0  0
 16 25  2  0  0  0  0
 16 30  1  0  0  0  0
 17 29  2  0  0  0  0
 17 31  1  0  0  0  0
 18 32  1  0  0  0  0
 19 30  2  0  0  0  0
 19 35  1  0  0  0  0
 20 32  1  0  0  0  0
 20 33  2  0  0  0  0
 20 34  1  0  0  0  0
 21 23  2  0  0  0  0
 21 41  1  0  0  0  0
 22 24  2  0  0  0  0
 22 42  1  0  0  0  0
 23 50  1  0  0  0  0
 24 43  1  0  0  0  0
 25 69  1  0  0  0  0
 26 80  1  0  0  0  0
 27 81  1  0  0  0  0
 28 31  2  0  0  0  0
 28 80  1  0  0  0  0
 29 82  1  0  0  0  0
 30 83  1  0  0  0  0
 31 84  1  0  0  0  0
 32 62  2  0  0  0  0
 33 63  1  0  0  0  0
 33 66  1  0  0  0  0
 34 67  1  0  0  0  0
 34 75  2  0  0  0  0
 35 72  2  0  0  0  0
 35 73  1  0  0  0  0
 36 51  1  0  0  0  0
 36 70  1  0  0  0  0
 36 76  2  0  0  0  0
 37 59  1  0  0  0  0
 37 64  1  0  0  0  0
 37 77  2  0  0  0  0
 38 58  1  0  0  0  0
 38 68  1  0  0  0  0
 38 73  2  0  0  0  0
 39 60  1  0  0  0  0
 39 71  1  0  0  0  0
 39 78  2  0  0  0  0
 40 65  1  0  0  0  0
 40 69  1  0  0  0  0
 40 79  2  0  0  0  0
 41 44  1  0  0  0  0
 42 51  1  0  0  0  0
 43 64  1  0  0  0  0
 44 46  1  0  0  0  0
 45 47  1  0  0  0  0
 45 48  1  0  0  0  0
 46 50  1  0  0  0  0
 47 52  1  0  0  0  0
 48 65  1  0  0  0  0
 49 52  1  0  0  0  0
 49 65  1  0  0  0  0
 50 70  1  0  0  0  0
 51 64  1  0  0  0  0
 52 63  1  0  0  0  0
 53 60  1  0  0  0  0
 54 61  1  0  0  0  0
 55 61  1  0  0  0  0
 56 61  1  0  0  0  0
 57 74  1  0  0  0  0
 58 81  1  0  0  0  0
 59 61  1  0  0  0  0
 59 71  1  0  0  0  0
 60 74  1  0  0  0  0
 62 63  1  0  0  0  0
M  CHG  3  72   1  73   1  74   1
M  ISO  4  40 100  58 101  69 100  81 101
M  END
> <Batch ID>
0071

> <Smiles>
CNC(C)C(=O)NC(C(=O)N1Cc2cc([101O:1][101CH2:1]C(=N)NC(=N)c3ccc([100NH:0][100C:0](=O)N4CCCC(n5nc(-c6ccc(Oc7ccc(F)cc7F)cc6)c(C(N)=O)c5N)C4)cc3F)ccc2CC1C(=O)NC1CCCc2ccccc21)C(C)(C)C

> <Shape>
0.193

> <Color>
0.181

> <Negative vol penalty>
0.000

$$$$

  -OEChem-04042323353D

 89 98  0     1  0  0  0  0  0999 V2000
  -26.4795  -32.0729   27.7102 C   0  0  0  0  0  0  0  0  0  0  0  0
  -26.3942  -30.9459   26.8989 C   0  0  0  0  0  0  0  0  0  0  0  0
  -22.7611  -11.3128   19.0200 C   0  0  0  0  0  0  0  0  0  0  0  0
  -23.0780   -9.8410   20.9095 C   0  0  0  0  0  0  0  0  0  0  0  0
  -25.5438  -33.0980   27.5780 C   0  0  0  0  0  0  0  0  0  0  0  0
  -25.3724  -30.8430   25.9556 C   0  0  0  0  0  0  0  0  0  0  0  0
  -27.0339  -29.1989   21.4633 C   0  0  0  0  0  0  0  0  0  0  0  0
  -21.7365  -10.4906   18.5513 C   0  0  0  0  0  0  0  0  0  0  0  0
  -22.0533   -9.0188   20.4408 C   0  0  0  0  0  0  0  0  0  0  0  0
  -27.2790  -27.8323   21.3363 C   0  0  0  0  0  0  0  0  0  0  0  0
  -18.6739   -9.0122   20.4326 C   0  0  0  0  0  0  0  0  0  0  0  0
  -17.7312   -8.5630   21.3573 C   0  0  0  0  0  0  0  0  0  0  0  0
  -25.1508  -27.5593   20.2338 C   0  0  0  0  0  0  0  0  0  0  0  0
  -28.6974  -20.5252   19.8911 C   0  0  0  0  0  0  0  0  0  0  0  0
  -27.8396  -19.3254   21.8046 C   0  0  0  0  0  0  0  0  0  0  0  0
  -18.3340   -6.2766   20.8612 C   0  0  0  0  0  0  0  0  0  0  0  0
  -23.4319  -10.9880   20.1991 C   0  0  0  0  0  0  0  0  0  0  0  0
  -29.5864  -18.3496   20.4505 C   0  0  0  0  0  0  0  0  0  0  0  0
  -24.3689  -12.9329   21.5581 C   0  0  0  0  0  0  0  0  0  0  0  0
  -24.5158  -33.0120   26.6260 C   0  0  0  0  0  0  0  0  0  0  0  0
  -25.8387  -29.7551   20.9854 C   0  0  0  0  0  0  0  0  0  0  0  0
  -24.4213  -31.8674   25.8115 C   0  0  0  0  0  0  0  0  0  0  0  0
  -24.8941  -28.9337   20.3536 C   0  0  0  0  0  0  0  0  0  0  0  0
  -29.5760  -19.4748   19.6263 C   0  0  0  0  0  0  0  0  0  0  0  0
  -27.8292  -20.4506   20.9803 C   0  0  0  0  0  0  0  0  0  0  0  0
  -21.3825   -9.3436   19.2617 C   0  0  0  0  0  0  0  0  0  0  0  0
  -26.3361  -27.0118   20.7241 C   0  0  0  0  0  0  0  0  0  0  0  0
  -19.4466   -8.0936   19.7220 C   0  0  0  0  0  0  0  0  0  0  0  0
  -17.5613   -7.1952   21.5717 C   0  0  0  0  0  0  0  0  0  0  0  0
  -28.7182  -18.2749   21.5397 C   0  0  0  0  0  0  0  0  0  0  0  0
  -19.2767   -6.7258   19.9363 C   0  0  0  0  0  0  0  0  0  0  0  0
  -24.4908  -11.8366   20.6834 C   0  0  0  0  0  0  0  0  0  0  0  0
  -25.6526  -13.3983   21.7064 C   0  0  0  0  0  0  0  0  0  0  0  0
  -25.3181  -22.8403   22.1989 C   0  0  0  0  0  0  0  0  0  0  0  0
  -25.8162  -23.4799   21.1338 C   0  0  0  0  0  0  0  0  0  0  0  0
  -26.0370  -21.5440   22.3013 C   0  0  0  0  0  0  0  0  0  0  0  0
  -30.5138  -17.2191   20.1885 C   0  0  0  0  0  0  0  0  0  0  0  0
  -23.1998  -13.4815   22.1809 C   0  0  0  0  0  0  0  0  0  0  0  0
  -23.3879  -31.2838   22.3123 C   0  0  0  0  0  0  0  0  0  0  0  0
  -22.4530  -31.6545   19.2283 C   0  0  0  0  0  0  0  0  0  0  0  0
  -22.5867  -30.5379   16.0062 C   0  0  0  0  0  0  0  0  0  0  0  0
  -30.5959  -14.8077   19.6387 C   0  0  0  0  0  0  0  0  0  0  0  0
  -23.4997  -34.1241   26.5523 C   0  0  0  0  0  0  0  0  0  0  0  0
  -25.6012  -31.2355   21.1062 C   0  0  0  0  0  0  0  0  0  0  0  0
  -23.6041  -29.4849   19.8056 C   0  0  0  0  0  0  0  0  0  0  0  0
  -26.8828  -22.6977   20.4429 C   0  0  0  0  0  0  0  0  0  0  0  0
  -22.6690  -34.1063   25.2717 C   0  0  0  0  0  0  0  0  0  0  0  0
  -30.0769  -11.3738   20.2988 C   0  0  0  0  0  0  0  0  0  0  0  0
  -22.1703  -32.6949   24.9784 C   0  0  0  0  0  0  0  0  0  0  0  0
  -28.5677  -11.2761   20.5382 C   0  0  0  0  0  0  0  0  0  0  0  0
  -30.4126  -12.3756   19.1949 C   0  0  0  0  0  0  0  0  0  0  0  0
  -28.3234  -13.6109   19.6038 C   0  0  0  0  0  0  0  0  0  0  0  0
  -23.3420  -31.7302   24.7596 C   0  0  1  0  0  0  0  0  0  0  0  0
  -24.1238  -31.6107   21.0438 C   0  0  1  0  0  0  0  0  0  0  0  0
  -27.9381  -12.6670   20.7543 C   0  0  1  0  0  0  0  0  0  0  0  0
  -30.4948  -19.5808   18.4529 C   0  0  0  0  0  0  0  0  0  0  0  0
  -24.2653  -23.2194   23.1713 C   0  0  0  0  0  0  0  0  0  0  0  0
  -21.6874  -31.0232   13.7142 C   0  0  0  0  0  0  0  0  0  0  0  0
  -19.7694  -30.4421   20.0273 C   0  0  0  0  0  0  0  0  0  0  0  0
  -19.2898  -30.0769   17.5973 C   0  0  0  0  0  0  0  0  0  0  0  0
  -19.6108  -32.3920   18.4692 C   0  0  0  0  0  0  0  0  0  0  0  0
  -25.2973  -31.0103   14.9160 C   0  0  0  0  0  0  0  0  0  0  0  0
  -25.4366  -24.8136   20.6018 C   0  0  0  0  0  0  0  0  0  1  0  0
  -21.6090  -30.8567   18.2638 C   0  0  1  0  0  0  0  0  0  0  0  0
  -22.8226  -31.2677   14.6962 C   0  0  2  0  0  0  0  0  0  0  0  0
  -20.0931  -30.9309   18.6013 C   0  0  0  0  0  0  0  0  0  0  0  0
  -25.7524  -11.6186   20.3027 N   0  0  0  0  0  0  0  0  0  0  0  0
  -26.4349  -12.5844   20.9411 N   0  0  0  0  0  0  0  0  0  0  0  0
  -26.9538  -21.4968   21.2447 N   0  0  0  0  0  0  0  0  0  0  0  0
  -23.4153  -30.9375   19.9534 N   0  0  0  0  0  0  0  0  0  0  0  0
  -29.7876  -13.6686   19.4789 N   0  0  0  0  0  0  0  0  0  0  0  0
  -26.1772  -14.4203   22.4154 N   0  0  0  0  0  0  0  0  0  0  0  0
  -21.9602  -12.8816   21.9205 N   0  0  0  0  0  0  0  0  0  0  0  0
  -29.9073  -15.9856   19.9496 N   0  0  0  0  0  0  0  0  0  0  0  0
  -23.8998  -31.9046   23.4357 N   0  0  0  0  0  0  0  0  0  0  0  0
  -21.9483  -31.3388   16.9293 N   0  0  0  0  0  0  0  0  0  0  0  0
  -24.0939  -30.8081   14.0688 N   0  3  0  0  0  0  0  0  0  0  0  0
  -25.8289  -20.7080   23.1664 O   0  0  0  0  0  0  0  0  0  0  0  0
  -31.7228  -17.4321   20.1576 O   0  0  0  0  0  0  0  0  0  0  0  0
  -23.2506  -14.4844   22.9327 O   0  0  0  0  0  0  0  0  0  0  0  0
  -22.4259  -30.5257   22.2744 O   0  0  0  0  0  0  0  0  0  0  0  0
  -22.2702  -32.8702   19.3293 O   0  0  0  0  0  0  0  0  0  0  0  0
  -22.9308  -29.3725   16.1908 O   0  0  0  0  0  0  0  0  0  0  0  0
  -31.8272  -14.7720   19.5503 O   0  0  0  0  0  0  0  0  0  0  0  0
  -20.3826   -8.5412   18.8048 O   0  0  0  0  0  0  0  0  0  0  0  0
  -26.5724  -25.6775   20.5995 O   0  0  0  0  0  0  0  0  0  1  0  0
  -16.6571   -6.7640   22.4609 F   0  0  0  0  0  0  0  0  0  0  0  0
  -28.7188  -17.1989   22.3396 F   0  0  0  0  0  0  0  0  0  0  0  0
  -20.0169   -5.8386   19.2576 F   0  0  0  0  0  0  0  0  0  0  0  0
  1  2  1  0  0  0  0
  1  5  2  0  0  0  0
  2  6  2  0  0  0  0
  3  8  2  0  0  0  0
  3 17  1  0  0  0  0
  4  9  1  0  0  0  0
  4 17  2  0  0  0  0
  5 20  1  0  0  0  0
  6 22  1  0  0  0  0
  7 10  2  0  0  0  0
  7 21  1  0  0  0  0
  8 26  1  0  0  0  0
  9 26  2  0  0  0  0
 10 27  1  0  0  0  0
 11 12  2  0  0  0  0
 11 28  1  0  0  0  0
 12 29  1  0  0  0  0
 13 23  1  0  0  0  0
 13 27  2  0  0  0  0
 14 24  2  0  0  0  0
 14 25  1  0  0  0  0
 15 25  2  0  0  0  0
 15 30  1  0  0  0  0
 16 29  2  0  0  0  0
 16 31  1  0  0  0  0
 17 32  1  0  0  0  0
 18 24  1  0  0  0  0
 18 30  2  0  0  0  0
 18 37  1  0  0  0  0
 19 32  1  0  0  0  0
 19 33  2  0  0  0  0
 19 38  1  0  0  0  0
 20 22  2  0  0  0  0
 20 43  1  0  0  0  0
 21 23  2  0  0  0  0
 21 44  1  0  0  0  0
 22 53  1  0  0  0  0
 23 45  1  0  0  0  0
 24 56  1  0  0  0  0
 25 69  1  0  0  0  0
 26 85  1  0  0  0  0
 27 86  1  0  0  0  0
 28 31  2  0  0  0  0
 28 85  1  0  0  0  0
 29 87  1  0  0  0  0
 30 88  1  0  0  0  0
 31 89  1  0  0  0  0
 32 67  2  0  0  0  0
 33 68  1  0  0  0  0
 33 72  1  0  0  0  0
 34 35  2  0  0  0  0
 34 36  1  0  0  0  0
 34 57  1  0  0  0  0
 35 46  1  0  0  0  0
 35 63  1  0  0  0  0
 36 69  1  0  0  0  0
 36 78  2  0  0  0  0
 37 74  1  0  0  0  0
 37 79  2  0  0  0  0
 38 73  1  0  0  0  0
 38 80  2  0  0  0  0
 39 54  1  0  0  0  0
 39 75  1  0  0  0  0
 39 81  2  0  0  0  0
 40 64  1  0  0  0  0
 40 70  1  0  0  0  0
 40 82  2  0  0  0  0
 41 65  1  0  0  0  0
 41 76  1  0  0  0  0
 41 83  2  0  0  0  0
 42 71  1  0  0  0  0
 42 74  1  0  0  0  0
 42 84  2  0  0  0  0
 43 47  1  0  0  0  0
 44 54  1  0  0  0  0
 45 70  1  0  0  0  0
 46 69  1  0  0  0  0
 47 49  1  0  0  0  0
 48 50  1  0  0  0  0
 48 51  1  0  0  0  0
 49 53  1  0  0  0  0
 50 55  1  0  0  0  0
 51 71  1  0  0  0  0
 52 55  1  0  0  0  0
 52 71  1  0  0  0  0
 53 75  1  0  0  0  0
 54 70  1  0  0  0  0
 55 68  1  0  0  0  0
 58 65  1  0  0  0  0
 59 66  1  0  0  0  0
 60 66  1  0  0  0  0
 61 66  1  0  0  0  0
 62 77  1  0  0  0  0
 63 86  1  0  0  0  0
 64 66  1  0  0  0  0
 64 76  1  0  0  0  0
 65 77  1  0  0  0  0
 67 68  1  0  0  0  0
M  CHG  1  77   1
M  ISO  4  42 100  63 101  74 100  86 101
M  END
> <Batch ID>
0071

> <Smiles>
CNC(C)C(=O)NC(C(=O)N1Cc2cc([101O:1][101CH2:1]C3=C(C)C(=O)N(c4cc(C)c(C(=O)[100NH:0][100C:0](=O)N5CCCC(n6nc(-c7ccc(Oc8ccc(F)cc8F)cc7)c(C(N)=O)c6N)C5)c(F)c4)C3)ccc2CC1C(=O)NC1CCCc2ccccc21)C(C)(C)C

> <Shape>
0.253

> <Color>
0.113

> <Negative vol penalty>
0.000

$$$$

  -OEChem-04042323353D

 89 98  0     1  0  0  0  0  0999 V2000
  -20.9601  -24.4848   24.1666 C   0  0  0  0  0  0  0  0  0  0  0  0
  -22.1357  -24.9671   23.6002 C   0  0  0  0  0  0  0  0  0  0  0  0
  -30.5411  -23.5163   16.4278 C   0  0  0  0  0  0  0  0  0  0  0  0
  -22.7636  -10.9051   18.5512 C   0  0  0  0  0  0  0  0  0  0  0  0
  -24.7508   -9.5896   18.9481 C   0  0  0  0  0  0  0  0  0  0  0  0
  -29.6965  -22.6137   17.0739 C   0  0  0  0  0  0  0  0  0  0  0  0
  -19.7699  -25.1938   24.0097 C   0  0  0  0  0  0  0  0  0  0  0  0
  -22.1214  -26.1583   22.8754 C   0  0  0  0  0  0  0  0  0  0  0  0
  -25.9987  -29.1954   24.0534 C   0  0  0  0  0  0  0  0  0  0  0  0
  -30.6864  -24.8124   16.9226 C   0  0  0  0  0  0  0  0  0  0  0  0
  -22.2329   -9.8709   17.7803 C   0  0  0  0  0  0  0  0  0  0  0  0
  -24.2201   -8.5553   18.1772 C   0  0  0  0  0  0  0  0  0  0  0  0
  -27.2414  -28.8840   23.5032 C   0  0  0  0  0  0  0  0  0  0  0  0
  -21.9587   -6.0733   18.5599 C   0  0  0  0  0  0  0  0  0  0  0  0
  -22.0612   -4.7755   19.0606 C   0  0  0  0  0  0  0  0  0  0  0  0
  -29.1422  -24.3032   18.7095 C   0  0  0  0  0  0  0  0  0  0  0  0
  -26.9110  -30.5750   21.8149 C   0  0  0  0  0  0  0  0  0  0  0  0
  -23.3375   -4.1257   17.1148 C   0  0  0  0  0  0  0  0  0  0  0  0
  -24.0226  -10.7645   19.1351 C   0  0  0  0  0  0  0  0  0  0  0  0
  -28.9970  -23.0072   18.2147 C   0  0  0  0  0  0  0  0  0  0  0  0
  -24.4211  -12.0234   21.3177 C   0  0  0  0  0  0  0  0  0  0  0  0
  -19.7430  -26.3993   23.2909 C   0  0  0  0  0  0  0  0  0  0  0  0
  -25.1968  -30.1932   23.4809 C   0  0  0  0  0  0  0  0  0  0  0  0
  -20.9295  -26.8835   22.7076 C   0  0  0  0  0  0  0  0  0  0  0  0
  -25.6597  -30.8990   22.3612 C   0  0  0  0  0  0  0  0  0  0  0  0
  -29.9869  -25.2058   18.0634 C   0  0  0  0  0  0  0  0  0  0  0  0
  -22.9611   -8.6960   17.5933 C   0  0  0  0  0  0  0  0  0  0  0  0
  -27.6964  -29.5719   22.3821 C   0  0  0  0  0  0  0  0  0  0  0  0
  -22.5455   -6.3974   17.3366 C   0  0  0  0  0  0  0  0  0  0  0  0
  -22.7507   -3.8017   18.3381 C   0  0  0  0  0  0  0  0  0  0  0  0
  -23.2349   -5.4236   16.6141 C   0  0  0  0  0  0  0  0  0  0  0  0
  -24.5716  -11.8327   19.9311 C   0  0  0  0  0  0  0  0  0  0  0  0
  -25.1279  -13.1703   21.5853 C   0  0  0  0  0  0  0  0  0  0  0  0
  -29.5019  -27.0763   19.7050 C   0  0  0  0  0  0  0  0  0  0  0  0
  -28.1071  -22.0544   18.8953 C   0  0  0  0  0  0  0  0  0  0  0  0
  -23.7064  -11.2343   22.2781 C   0  0  0  0  0  0  0  0  0  0  0  0
  -28.1755  -21.6383   20.1735 C   0  0  0  0  0  0  0  0  0  0  0  0
  -27.2059  -20.6597   20.7531 C   0  0  0  0  0  0  0  0  0  0  0  0
  -22.3177  -30.2596   22.1353 C   0  0  0  0  0  0  0  0  0  0  0  0
  -22.8322  -33.4622   22.1098 C   0  0  0  0  0  0  0  0  0  0  0  0
  -25.0719  -36.0371   22.1343 C   0  0  0  0  0  0  0  0  0  0  0  0
  -26.3571  -18.3657   20.4066 C   0  0  0  0  0  0  0  0  0  0  0  0
  -18.4233  -27.1061   23.1080 C   0  0  0  0  0  0  0  0  0  0  0  0
  -23.8704  -30.5355   24.1022 C   0  0  0  0  0  0  0  0  0  0  0  0
  -24.8458  -31.9927   21.7210 C   0  0  0  0  0  0  0  0  0  0  0  0
  -18.5665  -28.5530   22.6429 C   0  0  0  0  0  0  0  0  0  0  0  0
  -28.3394  -15.8129   18.7279 C   0  0  0  0  0  0  0  0  0  0  0  0
  -19.5657  -28.6480   21.4942 C   0  0  0  0  0  0  0  0  0  0  0  0
  -27.4980  -14.5647   18.9843 C   0  0  0  0  0  0  0  0  0  0  0  0
  -30.6056  -28.8261   18.5283 C   0  0  0  0  0  0  0  0  0  0  0  0
  -27.4698  -17.0492   18.5026 C   0  0  0  0  0  0  0  0  0  0  0  0
  -31.0461  -27.4888   17.9674 C   0  0  0  0  0  0  0  0  0  0  0  0
  -25.6527  -16.0553   19.8545 C   0  0  0  0  0  0  0  0  0  0  0  0
  -20.9593  -28.1846   21.9354 C   0  0  1  0  0  0  0  0  0  0  0  0
  -30.0815  -28.4665   19.9110 C   0  0  1  0  0  0  0  0  0  0  0  0
  -22.9128  -31.2164   23.1293 C   0  0  1  0  0  0  0  0  0  0  0  0
  -26.5002  -14.8029   20.1299 C   0  0  1  0  0  0  0  0  0  0  0  0
  -29.2443  -22.1033   21.1164 C   0  0  0  0  0  0  0  0  0  0  0  0
  -25.1936  -38.5428   22.0682 C   0  0  0  0  0  0  0  0  0  0  0  0
  -22.2188  -33.4108   19.1214 C   0  0  0  0  0  0  0  0  0  0  0  0
  -23.2619  -35.6795   18.9390 C   0  0  0  0  0  0  0  0  0  0  0  0
  -21.2347  -35.3509   20.3550 C   0  0  0  0  0  0  0  0  0  0  0  0
  -26.3985  -36.1582   24.7771 C   0  0  0  0  0  0  0  0  0  0  0  0
  -29.0656  -29.4610   20.4407 C   0  0  0  0  0  0  0  0  0  1  0  0
  -23.4570  -34.4370   21.1412 C   0  0  1  0  0  0  0  0  0  0  0  0
  -25.1334  -37.3109   22.9579 C   0  0  2  0  0  0  0  0  0  0  0  0
  -22.5578  -34.6977   19.8998 C   0  0  0  0  0  0  0  0  0  0  0  0
  -25.3154  -12.7824   19.3577 N   0  0  0  0  0  0  0  0  0  0  0  0
  -25.6386  -13.5810   20.3892 N   0  0  0  0  0  0  0  0  0  0  0  0
  -30.1368  -26.5317   18.5697 N   0  0  0  0  0  0  0  0  0  0  0  0
  -23.5531  -32.2863   22.3615 N   0  0  0  0  0  0  0  0  0  0  0  0
  -26.5047  -17.2224   19.5994 N   0  0  0  0  0  0  0  0  0  0  0  0
  -25.3561  -13.8574   22.7247 N   0  0  0  0  0  0  0  0  0  0  0  0
  -23.0349  -10.0873   21.8334 N   0  0  0  0  0  0  0  0  0  0  0  0
  -27.2066  -19.4316   20.0957 N   0  0  0  0  0  0  0  0  0  0  0  0
  -21.6141  -29.2178   22.7089 N   0  0  0  0  0  0  0  0  0  0  0  0
  -23.7718  -35.6344   21.9129 N   0  0  0  0  0  0  0  0  0  0  0  0
  -26.3394  -37.3039   23.8333 N   0  3  0  0  0  0  0  0  0  0  0  0
  -28.6875  -26.5714   20.4641 O   0  0  0  0  0  0  0  0  0  0  0  0
  -23.6508  -11.5465   23.4918 O   0  0  0  0  0  0  0  0  0  0  0  0
  -26.4763  -20.9863   21.6846 O   0  0  0  0  0  0  0  0  0  0  0  0
  -22.4835  -30.4530   20.9366 O   0  0  0  0  0  0  0  0  0  0  0  0
  -21.7479  -33.7374   22.6297 O   0  0  0  0  0  0  0  0  0  0  0  0
  -26.0765  -35.4595   21.7250 O   0  0  0  0  0  0  0  0  0  0  0  0
  -25.5215  -18.4407   21.3133 O   0  0  0  0  0  0  0  0  0  0  0  0
  -22.4435   -7.6865   16.8413 O   0  0  0  0  0  0  0  0  0  0  0  0
  -28.9185  -29.2670   21.8384 O   0  0  0  0  0  0  0  0  0  1  0  0
  -22.8504   -2.5558   18.8198 F   0  0  0  0  0  0  0  0  0  0  0  0
  -23.8018   -5.7292   15.4389 F   0  0  0  0  0  0  0  0  0  0  0  0
  1  2  1  0  0  0  0
  1  7  2  0  0  0  0
  2  8  2  0  0  0  0
  3  6  1  0  0  0  0
  3 10  2  0  0  0  0
  4 11  2  0  0  0  0
  4 19  1  0  0  0  0
  5 12  1  0  0  0  0
  5 19  2  0  0  0  0
  6 20  2  0  0  0  0
  7 22  1  0  0  0  0
  8 24  1  0  0  0  0
  9 13  2  0  0  0  0
  9 23  1  0  0  0  0
 10 26  1  0  0  0  0
 11 27  1  0  0  0  0
 12 27  2  0  0  0  0
 13 28  1  0  0  0  0
 14 15  2  0  0  0  0
 14 29  1  0  0  0  0
 15 30  1  0  0  0  0
 16 20  1  0  0  0  0
 16 26  2  0  0  0  0
 17 25  1  0  0  0  0
 17 28  2  0  0  0  0
 18 30  2  0  0  0  0
 18 31  1  0  0  0  0
 19 32  1  0  0  0  0
 20 35  1  0  0  0  0
 21 32  1  0  0  0  0
 21 33  2  0  0  0  0
 21 36  1  0  0  0  0
 22 24  2  0  0  0  0
 22 43  1  0  0  0  0
 23 25  2  0  0  0  0
 23 44  1  0  0  0  0
 24 54  1  0  0  0  0
 25 45  1  0  0  0  0
 26 70  1  0  0  0  0
 27 86  1  0  0  0  0
 28 87  1  0  0  0  0
 29 31  2  0  0  0  0
 29 86  1  0  0  0  0
 30 88  1  0  0  0  0
 31 89  1  0  0  0  0
 32 68  2  0  0  0  0
 33 69  1  0  0  0  0
 33 73  1  0  0  0  0
 34 55  1  0  0  0  0
 34 70  1  0  0  0  0
 34 79  2  0  0  0  0
 35 37  2  0  0  0  0
 36 74  1  0  0  0  0
 36 80  2  0  0  0  0
 37 38  1  0  0  0  0
 37 58  1  0  0  0  0
 38 75  1  0  0  0  0
 38 81  2  0  0  0  0
 39 56  1  0  0  0  0
 39 76  1  0  0  0  0
 39 82  2  0  0  0  0
 40 65  1  0  0  0  0
 40 71  1  0  0  0  0
 40 83  2  0  0  0  0
 41 66  1  0  0  0  0
 41 77  1  0  0  0  0
 41 84  2  0  0  0  0
 42 72  1  0  0  0  0
 42 75  1  0  0  0  0
 42 85  2  0  0  0  0
 43 46  1  0  0  0  0
 44 56  1  0  0  0  0
 45 71  1  0  0  0  0
 46 48  1  0  0  0  0
 47 49  1  0  0  0  0
 47 51  1  0  0  0  0
 48 54  1  0  0  0  0
 49 57  1  0  0  0  0
 50 52  1  0  0  0  0
 50 55  1  0  0  0  0
 51 72  1  0  0  0  0
 52 70  1  0  0  0  0
 53 57  1  0  0  0  0
 53 72  1  0  0  0  0
 54 76  1  0  0  0  0
 55 64  1  0  0  0  0
 56 71  1  0  0  0  0
 57 69  1  0  0  0  0
 59 66  1  0  0  0  0
 60 67  1  0  0  0  0
 61 67  1  0  0  0  0
 62 67  1  0  0  0  0
 63 78  1  0  0  0  0
 64 87  1  0  0  0  0
 65 67  1  0  0  0  0
 65 77  1  0  0  0  0
 66 78  1  0  0  0  0
 68 69  1  0  0  0  0
M  CHG  1  78   1
M  ISO  4  42 100  64 101  75 100  87 101
M  END
> <Batch ID>
0071

> <Smiles>
CNC(C)C(=O)NC(C(=O)N1Cc2cc([101O:1][101CH2:1]C3CCN(c4cccc(C=C(C)C(=O)[100NH:0][100C:0](=O)N5CCCC(n6nc(-c7ccc(Oc8ccc(F)cc8F)cc7)c(C(N)=O)c6N)C5)c4)C3=O)ccc2CC1C(=O)NC1CCCc2ccccc21)C(C)(C)C

> <Shape>
0.266

> <Color>
0.109

> <Negative vol penalty>
0.000

$$$$

  -OEChem-04042323353D

 84 92  0     1  0  0  0  0  0999 V2000
  -20.9382  -31.4240   22.8088 C   0  0  0  0  0  0  0  0  0  0  0  0
  -21.6238  -30.3215   23.3087 C   0  0  0  0  0  0  0  0  0  0  0  0
  -23.2505   -9.6691   20.1483 C   0  0  0  0  0  0  0  0  0  0  0  0
  -23.7134  -10.1329   22.4737 C   0  0  0  0  0  0  0  0  0  0  0  0
  -19.5443  -31.4214   22.7780 C   0  0  0  0  0  0  0  0  0  0  0  0
  -20.9157  -29.2161   23.7791 C   0  0  0  0  0  0  0  0  0  0  0  0
  -22.8582  -24.8303   22.1555 C   0  0  0  0  0  0  0  0  0  0  0  0
  -22.5268   -8.5356   20.5184 C   0  0  0  0  0  0  0  0  0  0  0  0
  -22.9896   -8.9994   22.8439 C   0  0  0  0  0  0  0  0  0  0  0  0
  -24.0023  -24.3629   22.8008 C   0  0  0  0  0  0  0  0  0  0  0  0
  -19.7450   -8.1247   23.2011 C   0  0  0  0  0  0  0  0  0  0  0  0
  -18.8481   -8.2482   24.2622 C   0  0  0  0  0  0  0  0  0  0  0  0
  -22.6439  -22.8537   24.1032 C   0  0  0  0  0  0  0  0  0  0  0  0
  -29.2916  -18.1135   22.6610 C   0  0  0  0  0  0  0  0  0  0  0  0
  -31.0778  -19.3105   23.7625 C   0  0  0  0  0  0  0  0  0  0  0  0
  -31.5641  -17.3094   22.4992 C   0  0  0  0  0  0  0  0  0  0  0  0
  -20.0614   -6.5540   25.4848 C   0  0  0  0  0  0  0  0  0  0  0  0
  -23.8439  -10.4677   21.1259 C   0  0  0  0  0  0  0  0  0  0  0  0
  -24.0988  -12.9469   20.5816 C   0  0  0  0  0  0  0  0  0  0  0  0
  -18.8190  -30.3115   23.2392 C   0  0  0  0  0  0  0  0  0  0  0  0
  -21.5951  -24.3197   22.4875 C   0  0  0  0  0  0  0  0  0  0  0  0
  -19.5108  -29.1992   23.7556 C   0  0  0  0  0  0  0  0  0  0  0  0
  -21.4857  -23.3144   23.4588 C   0  0  0  0  0  0  0  0  0  0  0  0
  -29.7249  -19.1795   23.4493 C   0  0  0  0  0  0  0  0  0  0  0  0
  -30.2112  -17.1784   22.1859 C   0  0  0  0  0  0  0  0  0  0  0  0
  -22.3963   -8.2007   21.8662 C   0  0  0  0  0  0  0  0  0  0  0  0
  -23.8950  -23.3766   23.7768 C   0  0  0  0  0  0  0  0  0  0  0  0
  -20.8000   -7.2158   23.2818 C   0  0  0  0  0  0  0  0  0  0  0  0
  -19.0064   -7.4629   25.4041 C   0  0  0  0  0  0  0  0  0  0  0  0
  -31.9974  -18.3754   23.2875 C   0  0  0  0  0  0  0  0  0  0  0  0
  -20.9583   -6.4305   24.4237 C   0  0  0  0  0  0  0  0  0  0  0  0
  -24.5921  -11.6385   20.7442 C   0  0  0  0  0  0  0  0  0  0  0  0
  -25.1979  -13.6852   20.2164 C   0  0  0  0  0  0  0  0  0  0  0  0
  -25.6672  -21.8526   23.8625 C   0  0  0  0  0  0  0  0  0  1  0  0
  -22.7663  -13.4500   20.7459 C   0  0  0  0  0  0  0  0  0  0  0  0
  -26.7724  -21.3214   24.3992 C   0  0  0  0  0  0  0  0  0  0  0  0
  -27.4201  -20.1511   23.7215 C   0  0  0  0  0  0  0  0  0  0  0  0
  -18.9227  -25.5519   23.6890 C   0  0  0  0  0  0  0  0  0  0  0  0
  -17.7487  -22.5878   23.0905 C   0  0  0  0  0  0  0  0  0  0  0  0
  -18.3705  -19.2639   22.6304 C   0  0  0  0  0  0  0  0  0  0  0  0
  -30.5528  -15.0804   20.8340 C   0  0  0  0  0  0  0  0  0  0  0  0
  -17.3121  -30.3741   23.2296 C   0  0  0  0  0  0  0  0  0  0  0  0
  -20.3735  -24.8154   21.7632 C   0  0  0  0  0  0  0  0  0  0  0  0
  -20.1550  -22.7190   23.8374 C   0  0  0  0  0  0  0  0  0  0  0  0
  -16.6449  -29.0117   23.4002 C   0  0  0  0  0  0  0  0  0  0  0  0
  -29.8425  -12.2179   18.8393 C   0  0  0  0  0  0  0  0  0  0  0  0
  -17.2965  -28.2373   24.5414 C   0  0  0  0  0  0  0  0  0  0  0  0
  -28.3726  -11.9196   19.1437 C   0  0  0  0  0  0  0  0  0  0  0  0
  -30.5886  -12.7139   20.0767 C   0  0  0  0  0  0  0  0  0  0  0  0
  -28.4953  -13.5547   21.0668 C   0  0  0  0  0  0  0  0  0  0  0  0
  -18.7787  -27.9713   24.2520 C   0  0  1  0  0  0  0  0  0  0  0  0
  -19.0830  -24.5908   22.5452 C   0  0  1  0  0  0  0  0  0  0  0  0
  -27.6868  -13.1139   19.8357 C   0  0  2  0  0  0  0  0  0  0  0  0
  -17.2061  -17.0835   22.1974 C   0  0  0  0  0  0  0  0  0  0  0  0
  -16.8504  -22.4916   26.0049 C   0  0  0  0  0  0  0  0  0  0  0  0
  -16.5764  -20.0145   25.7660 C   0  0  0  0  0  0  0  0  0  0  0  0
  -15.2000  -21.5598   24.3732 C   0  0  0  0  0  0  0  0  0  0  0  0
  -19.7967  -18.8785   20.0660 C   0  0  0  0  0  0  0  0  0  0  0  0
  -17.6626  -21.2954   23.8658 C   0  0  1  0  0  0  0  0  0  0  0  0
  -17.8931  -18.2870   21.5710 C   0  0  2  0  0  0  0  0  0  0  0  0
  -16.5974  -21.3527   24.9969 C   0  0  0  0  0  0  0  0  0  0  0  0
  -25.9024  -11.5476   20.5020 N   0  0  0  0  0  0  0  0  0  0  0  0
  -26.2419  -12.8082   20.1835 N   0  0  0  0  0  0  0  0  0  0  0  0
  -18.9892  -23.2411   23.1054 N   0  0  0  0  0  0  0  0  0  0  0  0
  -29.8831  -13.8485   20.6765 N   0  0  0  0  0  0  0  0  0  0  0  0
  -25.3635  -14.9926   19.9234 N   0  0  0  0  0  0  0  0  0  0  0  0
  -21.7563  -12.5551   21.1247 N   0  0  0  0  0  0  0  0  0  0  0  0
  -28.7920  -20.1288   23.9320 N   0  0  0  0  0  0  0  0  0  0  0  0
  -29.7713  -16.0952   21.3854 N   0  0  0  0  0  0  0  0  0  0  0  0
  -18.9222  -26.8811   23.3110 N   0  0  0  0  0  0  0  0  0  0  0  0
  -17.4330  -20.2434   22.8815 N   0  0  0  0  0  0  0  0  0  0  0  0
  -19.0438  -17.8010   20.7583 N   0  3  0  0  0  0  0  0  0  0  0  0
  -22.4766  -14.6540   20.5465 O   0  0  0  0  0  0  0  0  0  0  0  0
  -26.7540  -19.3496   23.0752 O   0  0  0  0  0  0  0  0  0  0  0  0
  -18.8064  -25.1196   24.8297 O   0  0  0  0  0  0  0  0  0  0  0  0
  -16.7540  -22.9988   22.4877 O   0  0  0  0  0  0  0  0  0  0  0  0
  -19.4640  -19.1656   23.1828 O   0  0  0  0  0  0  0  0  0  0  0  0
  -31.7245  -15.2321   20.4788 O   0  0  0  0  0  0  0  0  0  0  0  0
  -27.3443  -21.8101   25.5562 O   0  0  0  0  0  0  0  0  0  0  0  0
  -21.6900   -7.0949   22.2277 O   0  0  0  0  0  0  0  0  0  0  0  0
  -25.0101  -22.9191   24.4087 O   0  0  0  0  0  0  0  0  0  1  0  0
  -18.1460   -7.5827   26.4237 F   0  0  0  0  0  0  0  0  0  0  0  0
  -33.2966  -18.5006   23.5888 F   0  0  0  0  0  0  0  0  0  0  0  0
  -21.9706   -5.5564   24.5075 F   0  0  0  0  0  0  0  0  0  0  0  0
  1  2  1  0  0  0  0
  1  5  2  0  0  0  0
  2  6  2  0  0  0  0
  3  8  2  0  0  0  0
  3 18  1  0  0  0  0
  4  9  1  0  0  0  0
  4 18  2  0  0  0  0
  5 20  1  0  0  0  0
  6 22  1  0  0  0  0
  7 10  2  0  0  0  0
  7 21  1  0  0  0  0
  8 26  1  0  0  0  0
  9 26  2  0  0  0  0
 10 27  1  0  0  0  0
 11 12  2  0  0  0  0
 11 28  1  0  0  0  0
 12 29  1  0  0  0  0
 13 23  1  0  0  0  0
 13 27  2  0  0  0  0
 14 24  2  0  0  0  0
 14 25  1  0  0  0  0
 15 24  1  0  0  0  0
 15 30  2  0  0  0  0
 16 25  2  0  0  0  0
 16 30  1  0  0  0  0
 17 29  2  0  0  0  0
 17 31  1  0  0  0  0
 18 32  1  0  0  0  0
 19 32  1  0  0  0  0
 19 33  2  0  0  0  0
 19 35  1  0  0  0  0
 20 22  2  0  0  0  0
 20 42  1  0  0  0  0
 21 23  2  0  0  0  0
 21 43  1  0  0  0  0
 22 51  1  0  0  0  0
 23 44  1  0  0  0  0
 24 68  1  0  0  0  0
 25 69  1  0  0  0  0
 26 80  1  0  0  0  0
 27 81  1  0  0  0  0
 28 31  2  0  0  0  0
 28 80  1  0  0  0  0
 29 82  1  0  0  0  0
 30 83  1  0  0  0  0
 31 84  1  0  0  0  0
 32 62  2  0  0  0  0
 33 63  1  0  0  0  0
 33 66  1  0  0  0  0
 34 36  2  0  0  0  0
 34 81  1  0  0  0  0
 35 67  1  0  0  0  0
 35 73  2  0  0  0  0
 36 37  1  0  0  0  0
 36 79  1  0  0  0  0
 37 68  1  0  0  0  0
 37 74  2  0  0  0  0
 38 52  1  0  0  0  0
 38 70  1  0  0  0  0
 38 75  2  0  0  0  0
 39 59  1  0  0  0  0
 39 64  1  0  0  0  0
 39 76  2  0  0  0  0
 40 60  1  0  0  0  0
 40 71  1  0  0  0  0
 40 77  2  0  0  0  0
 41 65  1  0  0  0  0
 41 69  1  0  0  0  0
 41 78  2  0  0  0  0
 42 45  1  0  0  0  0
 43 52  1  0  0  0  0
 44 64  1  0  0  0  0
 45 47  1  0  0  0  0
 46 48  1  0  0  0  0
 46 49  1  0  0  0  0
 47 51  1  0  0  0  0
 48 53  1  0  0  0  0
 49 65  1  0  0  0  0
 50 53  1  0  0  0  0
 50 65  1  0  0  0  0
 51 70  1  0  0  0  0
 52 64  1  0  0  0  0
 53 63  1  0  0  0  0
 54 60  1  0  0  0  0
 55 61  1  0  0  0  0
 56 61  1  0  0  0  0
 57 61  1  0  0  0  0
 58 72  1  0  0  0  0
 59 61  1  0  0  0  0
 59 71  1  0  0  0  0
 60 72  1  0  0  0  0
 62 63  1  0  0  0  0
M  CHG  1  72   1
M  ISO  4  34 101  41 100  69 100  81 101
M  END
> <Batch ID>
0071

> <Smiles>
CNC(C)C(=O)NC(C(=O)N1Cc2cc([101O:1][101CH2:1]C(=O)C(=O)Nc3cc(F)cc([100NH:0][100C:0](=O)N4CCCC(n5nc(-c6ccc(Oc7ccc(F)cc7F)cc6)c(C(N)=O)c5N)C4)c3)ccc2CC1C(=O)NC1CCCc2ccccc21)C(C)(C)C

> <Shape>
0.217

> <Color>
0.176

> <Negative vol penalty>
0.000

$$$$

  -OEChem-04042323353D

 88 97  0     1  0  0  0  0  0999 V2000
  -40.6253  -26.5152   30.3812 C   0  0  0  0  0  0  0  0  0  0  0  0
  -40.1920  -25.5035   29.5303 C   0  0  0  0  0  0  0  0  0  0  0  0
  -23.0008   -9.8936   19.9810 C   0  0  0  0  0  0  0  0  0  0  0  0
  -23.7258   -9.9448   22.2851 C   0  0  0  0  0  0  0  0  0  0  0  0
  -39.9860  -27.7542   30.3713 C   0  0  0  0  0  0  0  0  0  0  0  0
  -39.1184  -25.7298   28.6698 C   0  0  0  0  0  0  0  0  0  0  0  0
  -39.9835  -24.0031   23.9884 C   0  0  0  0  0  0  0  0  0  0  0  0
  -22.2343   -8.7591   20.2474 C   0  0  0  0  0  0  0  0  0  0  0  0
  -22.9592   -8.8103   22.5515 C   0  0  0  0  0  0  0  0  0  0  0  0
  -39.8508  -22.6308   23.7813 C   0  0  0  0  0  0  0  0  0  0  0  0
  -23.2035   -5.4713   22.0799 C   0  0  0  0  0  0  0  0  0  0  0  0
  -23.7910   -4.4542   22.8322 C   0  0  0  0  0  0  0  0  0  0  0  0
  -37.6570  -22.9903   22.8447 C   0  0  0  0  0  0  0  0  0  0  0  0
  -32.0577  -16.5515   22.5645 C   0  0  0  0  0  0  0  0  0  0  0  0
  -29.8789  -17.4493   23.0973 C   0  0  0  0  0  0  0  0  0  0  0  0
  -22.0670   -4.6973   24.5072 C   0  0  0  0  0  0  0  0  0  0  0  0
  -23.7467  -10.4864   20.9998 C   0  0  0  0  0  0  0  0  0  0  0  0
  -24.1320  -13.0019   20.8236 C   0  0  0  0  0  0  0  0  0  0  0  0
  -38.9102  -27.9990   29.5034 C   0  0  0  0  0  0  0  0  0  0  0  0
  -38.9477  -24.8797   23.6346 C   0  0  0  0  0  0  0  0  0  0  0  0
  -38.4632  -26.9728   28.6492 C   0  0  0  0  0  0  0  0  0  0  0  0
  -37.7800  -24.3736   23.0460 C   0  0  0  0  0  0  0  0  0  0  0  0
  -31.8500  -18.3465   24.1680 C   0  0  0  0  0  0  0  0  0  0  0  0
  -32.6455  -17.4489   23.4559 C   0  0  0  0  0  0  0  0  0  0  0  0
  -30.6744  -16.5516   22.3851 C   0  0  0  0  0  0  0  0  0  0  0  0
  -30.4667  -18.3467   23.9887 C   0  0  0  0  0  0  0  0  0  0  0  0
  -22.2134   -8.2175   21.5326 C   0  0  0  0  0  0  0  0  0  0  0  0
  -38.6863  -22.1239   23.2120 C   0  0  0  0  0  0  0  0  0  0  0  0
  -22.0478   -6.1015   22.5413 C   0  0  0  0  0  0  0  0  0  0  0  0
  -23.2227   -4.0671   24.0458 C   0  0  0  0  0  0  0  0  0  0  0  0
  -21.4796   -5.7145   23.7550 C   0  0  0  0  0  0  0  0  0  0  0  0
  -24.5392  -11.6579   20.7252 C   0  0  0  0  0  0  0  0  0  0  0  0
  -25.2418  -13.7245   20.4592 C   0  0  0  0  0  0  0  0  0  0  0  0
  -36.2480  -18.0326   23.6769 C   0  0  0  0  0  0  0  0  0  0  0  0
  -36.1898  -16.6617   24.1184 C   0  0  0  0  0  0  0  0  0  0  0  0
  -34.8770  -18.5216   23.3608 C   0  0  0  0  0  0  0  0  0  0  0  0
  -37.1976  -15.8668   24.4937 C   0  0  0  0  0  0  0  0  0  0  0  0
  -37.3110  -18.8323   23.5370 C   0  0  0  0  0  0  0  0  0  0  0  0
  -22.8641  -13.5484   21.2100 C   0  0  0  0  0  0  0  0  0  0  0  0
  -37.0806  -26.9031   25.2234 C   0  0  0  0  0  0  0  0  0  0  0  0
  -36.0720  -27.7007   22.2454 C   0  0  0  0  0  0  0  0  0  0  0  0
  -35.6908  -26.7970   18.9766 C   0  0  0  0  0  0  0  0  0  0  0  0
  -30.7213  -14.6855   20.6935 C   0  0  0  0  0  0  0  0  0  0  0  0
  -38.2203  -29.3389   29.5622 C   0  0  0  0  0  0  0  0  0  0  0  0
  -39.1172  -26.3601   23.8400 C   0  0  0  0  0  0  0  0  0  0  0  0
  -36.6470  -25.2744   22.6299 C   0  0  0  0  0  0  0  0  0  0  0  0
  -34.7486  -16.2511   24.0877 C   0  0  0  0  0  0  0  0  0  0  0  0
  -37.3304  -29.6194   28.3540 C   0  0  0  0  0  0  0  0  0  0  0  0
  -29.6031  -12.2324   18.3677 C   0  0  0  0  0  0  0  0  0  0  0  0
  -36.4591  -28.4074   28.0399 C   0  0  0  0  0  0  0  0  0  0  0  0
  -28.1525  -11.9748   18.7818 C   0  0  0  0  0  0  0  0  0  0  0  0
  -30.5036  -12.4759   19.5775 C   0  0  0  0  0  0  0  0  0  0  0  0
  -28.5881  -13.2649   20.9109 C   0  0  0  0  0  0  0  0  0  0  0  0
  -37.3180  -27.1879   27.6837 C   0  0  1  0  0  0  0  0  0  0  0  0
  -37.7900  -27.1088   23.9149 C   0  0  1  0  0  0  0  0  0  0  0  0
  -27.6306  -13.0785   19.7226 C   0  0  2  0  0  0  0  0  0  0  0  0
  -32.4808  -19.3101   25.1251 C   0  0  0  0  0  0  0  0  0  0  0  0
  -34.7996  -27.6450   16.7894 C   0  0  0  0  0  0  0  0  0  0  0  0
  -33.2235  -27.1769   23.2056 C   0  0  0  0  0  0  0  0  0  0  0  0
  -32.5031  -27.1054   20.8089 C   0  0  0  0  0  0  0  0  0  0  0  0
  -33.4801  -29.1971   21.7539 C   0  0  0  0  0  0  0  0  0  0  0  0
  -38.3508  -26.6194   17.6914 C   0  0  0  0  0  0  0  0  0  0  0  0
  -37.2335  -20.2467   23.0658 C   0  0  0  0  0  0  0  0  0  1  0  0
  -34.9850  -27.2127   21.3183 C   0  0  1  0  0  0  0  0  0  0  0  0
  -36.0223  -27.5233   17.6855 C   0  0  2  0  0  0  0  0  0  0  0  0
  -33.5683  -27.6556   21.7812 C   0  0  0  0  0  0  0  0  0  0  0  0
  -25.8085  -11.5314   20.3291 N   0  0  0  0  0  0  0  0  0  0  0  0
  -26.2085  -12.8051   20.1754 N   0  0  0  0  0  0  0  0  0  0  0  0
  -34.0271  -17.4326   23.6190 N   0  0  0  0  0  0  0  0  0  0  0  0
  -36.8577  -26.7137   22.8571 N   0  0  0  0  0  0  0  0  0  0  0  0
  -29.9485  -13.5369   20.4207 N   0  0  0  0  0  0  0  0  0  0  0  0
  -29.6438  -19.2496   24.6977 N   0  0  0  0  0  0  0  0  0  0  0  0
  -25.4753  -15.0502   20.3571 N   0  0  0  0  0  0  0  0  0  0  0  0
  -21.8322  -12.6643   21.5535 N   0  0  0  0  0  0  0  0  0  0  0  0
  -30.0770  -15.6408   21.4789 N   0  0  0  0  0  0  0  0  0  0  0  0
  -37.8121  -27.2964   26.3278 N   0  0  0  0  0  0  0  0  0  0  0  0
  -35.3492  -27.6750   19.9833 N   0  0  0  0  0  0  0  0  0  0  0  0
  -37.0826  -26.7910   16.9368 N   0  3  0  0  0  0  0  0  0  0  0  0
  -34.5882  -19.6379   22.9635 O   0  0  0  0  0  0  0  0  0  0  0  0
  -22.6474  -14.7837   21.2336 O   0  0  0  0  0  0  0  0  0  0  0  0
  -35.9526  -26.4243   25.2304 O   0  0  0  0  0  0  0  0  0  0  0  0
  -36.2230  -28.9132   22.4148 O   0  0  0  0  0  0  0  0  0  0  0  0
  -35.7273  -25.5729   19.0806 O   0  0  0  0  0  0  0  0  0  0  0  0
  -31.8600  -14.8244   20.2396 O   0  0  0  0  0  0  0  0  0  0  0  0
  -21.4653   -7.1106   21.7930 O   0  0  0  0  0  0  0  0  0  0  0  0
  -38.5540  -20.7848   23.0094 O   0  0  0  0  0  0  0  0  0  1  0  0
  -23.7861   -3.0893   24.7673 F   0  0  0  0  0  0  0  0  0  0  0  0
  -20.3686   -6.3154   24.2029 F   0  0  0  0  0  0  0  0  0  0  0  0
  1  2  1  0  0  0  0
  1  5  2  0  0  0  0
  2  6  2  0  0  0  0
  3  8  2  0  0  0  0
  3 17  1  0  0  0  0
  4  9  1  0  0  0  0
  4 17  2  0  0  0  0
  5 19  1  0  0  0  0
  6 21  1  0  0  0  0
  7 10  2  0  0  0  0
  7 20  1  0  0  0  0
  8 27  1  0  0  0  0
  9 27  2  0  0  0  0
 10 28  1  0  0  0  0
 11 12  2  0  0  0  0
 11 29  1  0  0  0  0
 12 30  1  0  0  0  0
 13 22  1  0  0  0  0
 13 28  2  0  0  0  0
 14 24  1  0  0  0  0
 14 25  2  0  0  0  0
 15 25  1  0  0  0  0
 15 26  2  0  0  0  0
 16 30  2  0  0  0  0
 16 31  1  0  0  0  0
 17 32  1  0  0  0  0
 18 32  1  0  0  0  0
 18 33  2  0  0  0  0
 18 39  1  0  0  0  0
 19 21  2  0  0  0  0
 19 44  1  0  0  0  0
 20 22  2  0  0  0  0
 20 45  1  0  0  0  0
 21 54  1  0  0  0  0
 22 46  1  0  0  0  0
 23 24  2  0  0  0  0
 23 26  1  0  0  0  0
 23 57  1  0  0  0  0
 24 69  1  0  0  0  0
 25 75  1  0  0  0  0
 26 72  1  0  0  0  0
 27 85  1  0  0  0  0
 28 86  1  0  0  0  0
 29 31  2  0  0  0  0
 29 85  1  0  0  0  0
 30 87  1  0  0  0  0
 31 88  1  0  0  0  0
 32 67  2  0  0  0  0
 33 68  1  0  0  0  0
 33 73  1  0  0  0  0
 34 35  1  0  0  0  0
 34 36  1  0  0  0  0
 34 38  2  0  0  0  0
 35 37  2  0  0  0  0
 35 47  1  0  0  0  0
 36 69  1  0  0  0  0
 36 79  2  0  0  0  0
 38 63  1  0  0  0  0
 39 74  1  0  0  0  0
 39 80  2  0  0  0  0
 40 55  1  0  0  0  0
 40 76  1  0  0  0  0
 40 81  2  0  0  0  0
 41 64  1  0  0  0  0
 41 70  1  0  0  0  0
 41 82  2  0  0  0  0
 42 65  1  0  0  0  0
 42 77  1  0  0  0  0
 42 83  2  0  0  0  0
 43 71  1  0  0  0  0
 43 75  1  0  0  0  0
 43 84  2  0  0  0  0
 44 48  1  0  0  0  0
 45 55  1  0  0  0  0
 46 70  1  0  0  0  0
 47 69  1  0  0  0  0
 48 50  1  0  0  0  0
 49 51  1  0  0  0  0
 49 52  1  0  0  0  0
 50 54  1  0  0  0  0
 51 56  1  0  0  0  0
 52 71  1  0  0  0  0
 53 56  1  0  0  0  0
 53 71  1  0  0  0  0
 54 76  1  0  0  0  0
 55 70  1  0  0  0  0
 56 68  1  0  0  0  0
 58 65  1  0  0  0  0
 59 66  1  0  0  0  0
 60 66  1  0  0  0  0
 61 66  1  0  0  0  0
 62 78  1  0  0  0  0
 63 86  1  0  0  0  0
 64 66  1  0  0  0  0
 64 77  1  0  0  0  0
 65 78  1  0  0  0  0
 67 68  1  0  0  0  0
M  CHG  1  78   1
M  ISO  4  43 100  63 101  75 100  86 101
M  END
> <Batch ID>
0071

> <Smiles>
C=C1CN(c2cc([100NH:0][100C:0](=O)N3CCCC(n4nc(-c5ccc(Oc6ccc(F)cc6F)cc5)c(C(N)=O)c4N)C3)cc(N)c2C)C(=O)C1=C[101CH2:1][101O:1]c1ccc2c(c1)CN(C(=O)C(NC(=O)C(C)NC)C(C)(C)C)C(C(=O)NC1CCCc3ccccc31)C2

> <Shape>
0.171

> <Color>
0.189

> <Negative vol penalty>
0.000

$$$$

  -OEChem-04042323353D

 91100  0     1  0  0  0  0  0999 V2000
  -29.1837  -36.9484   20.8991 C   0  0  0  0  0  0  0  0  0  0  0  0
  -29.4474  -35.6124   20.6145 C   0  0  0  0  0  0  0  0  0  0  0  0
  -23.1576   -9.6237   21.0240 C   0  0  0  0  0  0  0  0  0  0  0  0
  -24.6405   -9.9157   22.9089 C   0  0  0  0  0  0  0  0  0  0  0  0
  -28.2513  -37.2798   21.8813 C   0  0  0  0  0  0  0  0  0  0  0  0
  -28.7796  -34.6070   21.3128 C   0  0  0  0  0  0  0  0  0  0  0  0
  -27.0010  -29.1677   19.1318 C   0  0  0  0  0  0  0  0  0  0  0  0
  -30.9571  -19.9400   20.8327 C   0  0  0  0  0  0  0  0  0  0  0  0
  -30.7338  -18.5633   20.8158 C   0  0  0  0  0  0  0  0  0  0  0  0
  -22.6138   -8.4898   21.6274 C   0  0  0  0  0  0  0  0  0  0  0  0
  -24.0966   -8.7818   23.5124 C   0  0  0  0  0  0  0  0  0  0  0  0
  -27.5653  -27.8953   19.2112 C   0  0  0  0  0  0  0  0  0  0  0  0
  -23.4555   -5.2425   22.0407 C   0  0  0  0  0  0  0  0  0  0  0  0
  -23.2677   -4.1127   21.2446 C   0  0  0  0  0  0  0  0  0  0  0  0
  -26.1545  -27.3942   21.1027 C   0  0  0  0  0  0  0  0  0  0  0  0
  -28.6029  -20.3266   20.4513 C   0  0  0  0  0  0  0  0  0  0  0  0
  -20.8978   -4.1788   21.7101 C   0  0  0  0  0  0  0  0  0  0  0  0
  -24.1710  -10.3367   21.6647 C   0  0  0  0  0  0  0  0  0  0  0  0
  -24.0542  -12.6849   20.6748 C   0  0  0  0  0  0  0  0  0  0  0  0
  -27.5647  -36.2780   22.5853 C   0  0  0  0  0  0  0  0  0  0  0  0
  -26.0153  -29.5675   20.0456 C   0  0  0  0  0  0  0  0  0  0  0  0
  -27.8382  -34.9253   22.3063 C   0  0  0  0  0  0  0  0  0  0  0  0
  -25.5775  -28.6713   21.0312 C   0  0  0  0  0  0  0  0  0  0  0  0
  -28.3796  -18.9498   20.4343 C   0  0  0  0  0  0  0  0  0  0  0  0
  -29.8916  -20.8217   20.6505 C   0  0  0  0  0  0  0  0  0  0  0  0
  -29.4451  -18.0681   20.6166 C   0  0  0  0  0  0  0  0  0  0  0  0
  -23.0833   -8.0689   22.8716 C   0  0  0  0  0  0  0  0  0  0  0  0
  -27.1441  -27.0093   20.1985 C   0  0  0  0  0  0  0  0  0  0  0  0
  -22.3646   -5.8405   22.6715 C   0  0  0  0  0  0  0  0  0  0  0  0
  -21.9888   -3.5808   21.0793 C   0  0  0  0  0  0  0  0  0  0  0  0
  -21.0858   -5.3087   22.5062 C   0  0  0  0  0  0  0  0  0  0  0  0
  -24.7336  -11.5077   21.0416 C   0  0  0  0  0  0  0  0  0  0  0  0
  -25.0261  -13.4856   20.1265 C   0  0  0  0  0  0  0  0  0  0  0  0
  -29.6867  -24.5039   20.5815 C   0  0  0  0  0  0  0  0  0  0  0  0
  -31.3542  -22.8767   20.8620 C   0  0  0  0  0  0  0  0  0  0  0  0
  -24.5199  -21.4266   20.3638 C   0  0  0  0  0  0  0  0  0  0  0  0
  -29.0411  -25.6717   20.4863 C   0  0  0  0  0  0  0  0  0  1  0  0
  -24.6300  -20.1281   20.0647 C   0  0  0  0  0  0  0  0  0  0  0  0
  -22.6685  -13.0243   20.8172 C   0  0  0  0  0  0  0  0  0  0  0  0
  -25.3030  -19.7064   18.8032 C   0  0  0  0  0  0  0  0  0  0  0  0
  -25.7897  -31.8508   22.2455 C   0  0  0  0  0  0  0  0  0  0  0  0
  -22.7361  -30.7817   22.4808 C   0  0  0  0  0  0  0  0  0  0  0  0
  -20.5195  -28.2247   22.0390 C   0  0  0  0  0  0  0  0  0  0  0  0
  -30.1417  -15.6830   20.2019 C   0  0  0  0  0  0  0  0  0  0  0  0
  -26.6004  -36.6848   23.6712 C   0  0  0  0  0  0  0  0  0  0  0  0
  -25.3976  -30.9340   19.9299 C   0  0  0  0  0  0  0  0  0  0  0  0
  -24.5078  -29.0447   22.0236 C   0  0  0  0  0  0  0  0  0  0  0  0
  -31.1519  -24.3724   20.8073 C   0  0  0  0  0  0  0  0  0  0  0  0
  -29.0310  -23.1717   20.4820 C   0  0  0  0  0  0  0  0  0  0  0  0
  -25.6617  -35.5616   24.1044 C   0  0  0  0  0  0  0  0  0  0  0  0
  -29.7934  -12.4333   18.7892 C   0  0  0  0  0  0  0  0  0  0  0  0
  -26.4412  -34.2686   24.3220 C   0  0  0  0  0  0  0  0  0  0  0  0
  -28.3901  -11.9996   19.2191 C   0  0  0  0  0  0  0  0  0  0  0  0
  -30.4944  -13.2447   19.8773 C   0  0  0  0  0  0  0  0  0  0  0  0
  -28.3303  -13.9615   20.8111 C   0  0  0  0  0  0  0  0  0  0  0  0
  -27.1161  -33.8063   23.0249 C   0  0  1  0  0  0  0  0  0  0  0  0
  -24.7678  -31.4173   21.2327 C   0  0  1  0  0  0  0  0  0  0  0  0
  -27.5598  -13.1966   19.7226 C   0  0  2  0  0  0  0  0  0  0  0  0
  -18.1005  -27.6375   22.3570 C   0  0  0  0  0  0  0  0  0  0  0  0
  -23.2079  -30.4724   25.4794 C   0  0  0  0  0  0  0  0  0  0  0  0
  -21.1640  -29.0300   25.5815 C   0  0  0  0  0  0  0  0  0  0  0  0
  -20.9728  -31.4122   24.8665 C   0  0  0  0  0  0  0  0  0  0  0  0
  -27.1565  -18.4619   17.7580 C   0  0  0  0  0  0  0  0  0  0  0  0
  -20.1342  -27.7498   19.1433 C   0  0  0  0  0  0  0  0  0  0  0  0
  -26.9887  -18.4471   20.2210 C   0  0  0  0  0  0  0  0  0  0  0  0
  -22.0319  -29.7303   23.3040 C   0  0  1  0  0  0  0  0  0  0  0  0
  -19.1452  -28.1828   21.3956 C   0  0  2  0  0  0  0  0  0  0  0  0
  -21.8657  -30.1546   24.7905 C   0  0  0  0  0  0  0  0  0  0  0  0
  -26.0364  -11.5523   20.7506 N   0  0  0  0  0  0  0  0  0  0  0  0
  -26.1834  -12.7672   20.1951 N   0  0  0  0  0  0  0  0  0  0  0  0
  -30.1207  -22.2353   20.6707 N   0  0  0  0  0  0  0  0  0  0  0  0
  -23.9389  -30.3942   21.8734 N   0  0  0  0  0  0  0  0  0  0  0  0
  -29.6508  -14.3640   20.3019 N   0  0  0  0  0  0  0  0  0  0  0  0
  -24.9952  -14.7270   19.5970 N   0  0  0  0  0  0  0  0  0  0  0  0
  -22.2544  -13.6622   21.9944 N   0  0  0  0  0  0  0  0  0  0  0  0
  -29.2386  -16.6664   20.6043 N   0  0  0  0  0  0  0  0  0  0  0  0
  -26.1497  -33.1812   22.1474 N   0  0  0  0  0  0  0  0  0  0  0  0
  -20.7750  -29.4494   22.6186 N   0  0  0  0  0  0  0  0  0  0  0  0
  -26.4378  -18.8846   18.9647 N   0  0  0  0  0  0  0  0  0  0  0  0
  -19.1668  -27.3157   20.1838 N   0  3  0  0  0  0  0  0  0  0  0  0
  -32.4637  -22.3927   21.0475 O   0  0  0  0  0  0  0  0  0  0  0  0
  -21.8197  -12.7547   19.9338 O   0  0  0  0  0  0  0  0  0  0  0  0
  -24.8682  -20.0974   17.7188 O   0  0  0  0  0  0  0  0  0  0  0  0
  -26.2185  -31.0386   23.0568 O   0  0  0  0  0  0  0  0  0  0  0  0
  -22.2337  -31.9033   22.3745 O   0  0  0  0  0  0  0  0  0  0  0  0
  -21.2880  -27.2656   22.0315 O   0  0  0  0  0  0  0  0  0  0  0  0
  -31.2695  -15.9242   19.7640 O   0  0  0  0  0  0  0  0  0  0  0  0
  -22.5527   -6.9627   23.4609 O   0  0  0  0  0  0  0  0  0  0  0  0
  -27.6937  -25.7670   20.2786 O   0  0  0  0  0  0  0  0  0  1  0  0
  -21.8083   -2.4967   20.3136 F   0  0  0  0  0  0  0  0  0  0  0  0
  -20.0337   -5.8795   23.1088 F   0  0  0  0  0  0  0  0  0  0  0  0
  1  2  1  0  0  0  0
  1  5  2  0  0  0  0
  2  6  2  0  0  0  0
  3 10  2  0  0  0  0
  3 18  1  0  0  0  0
  4 11  1  0  0  0  0
  4 18  2  0  0  0  0
  5 20  1  0  0  0  0
  6 22  1  0  0  0  0
  7 12  2  0  0  0  0
  7 21  1  0  0  0  0
  8  9  2  0  0  0  0
  8 25  1  0  0  0  0
  9 26  1  0  0  0  0
 10 27  1  0  0  0  0
 11 27  2  0  0  0  0
 12 28  1  0  0  0  0
 13 14  2  0  0  0  0
 13 29  1  0  0  0  0
 14 30  1  0  0  0  0
 15 23  1  0  0  0  0
 15 28  2  0  0  0  0
 16 24  1  0  0  0  0
 16 25  2  0  0  0  0
 17 30  2  0  0  0  0
 17 31  1  0  0  0  0
 18 32  1  0  0  0  0
 19 32  1  0  0  0  0
 19 33  2  0  0  0  0
 19 39  1  0  0  0  0
 20 22  2  0  0  0  0
 20 45  1  0  0  0  0
 21 23  2  0  0  0  0
 21 46  1  0  0  0  0
 22 56  1  0  0  0  0
 23 47  1  0  0  0  0
 24 26  2  0  0  0  0
 24 65  1  0  0  0  0
 25 71  1  0  0  0  0
 26 76  1  0  0  0  0
 27 88  1  0  0  0  0
 28 89  1  0  0  0  0
 29 31  2  0  0  0  0
 29 88  1  0  0  0  0
 30 90  1  0  0  0  0
 31 91  1  0  0  0  0
 32 69  2  0  0  0  0
 33 70  1  0  0  0  0
 33 74  1  0  0  0  0
 34 37  2  0  0  0  0
 34 48  1  0  0  0  0
 34 49  1  0  0  0  0
 35 48  1  0  0  0  0
 35 71  1  0  0  0  0
 35 81  2  0  0  0  0
 36 38  2  0  0  0  0
 37 89  1  0  0  0  0
 38 40  1  0  0  0  0
 39 75  1  0  0  0  0
 39 82  2  0  0  0  0
 40 79  1  0  0  0  0
 40 83  2  0  0  0  0
 41 57  1  0  0  0  0
 41 77  1  0  0  0  0
 41 84  2  0  0  0  0
 42 66  1  0  0  0  0
 42 72  1  0  0  0  0
 42 85  2  0  0  0  0
 43 67  1  0  0  0  0
 43 78  1  0  0  0  0
 43 86  2  0  0  0  0
 44 73  1  0  0  0  0
 44 76  1  0  0  0  0
 44 87  2  0  0  0  0
 45 50  1  0  0  0  0
 46 57  1  0  0  0  0
 47 72  1  0  0  0  0
 49 71  1  0  0  0  0
 50 52  1  0  0  0  0
 51 53  1  0  0  0  0
 51 54  1  0  0  0  0
 52 56  1  0  0  0  0
 53 58  1  0  0  0  0
 54 73  1  0  0  0  0
 55 58  1  0  0  0  0
 55 73  1  0  0  0  0
 56 77  1  0  0  0  0
 57 72  1  0  0  0  0
 58 70  1  0  0  0  0
 59 67  1  0  0  0  0
 60 68  1  0  0  0  0
 61 68  1  0  0  0  0
 62 68  1  0  0  0  0
 63 79  1  0  0  0  0
 64 80  1  0  0  0  0
 65 79  1  0  0  0  0
 66 68  1  0  0  0  0
 66 78  1  0  0  0  0
 67 80  1  0  0  0  0
 69 70  1  0  0  0  0
M  CHG  1  80   1
M  ISO  4  37 101  44 100  76 100  89 101
M  END
> <Batch ID>
0071

> <Smiles>
C=CC(=O)N(C)Cc1cc(N2CC(=[101CH:1][101O:1]c3ccc4c(c3)CN(C(=O)C(NC(=O)C(C)NC)C(C)(C)C)C(C(=O)NC3CCCc5ccccc53)C4)CC2=O)ccc1[100NH:0][100C:0](=O)N1CCCC(n2nc(-c3ccc(Oc4ccc(F)cc4F)cc3)c(C(N)=O)c2N)C1

> <Shape>
0.371

> <Color>
0.134

> <Negative vol penalty>
0.000

$$$$

  -OEChem-04042323353D

 88 97  0     1  0  0  0  0  0999 V2000
  -28.2900  -23.6143   17.3560 C   0  0  0  0  0  0  0  0  0  0  0  0
  -27.1189  -23.8275   18.0761 C   0  0  0  0  0  0  0  0  0  0  0  0
  -27.6164  -12.8089   19.8611 C   0  0  0  0  0  0  0  0  0  0  0  0
  -27.7725  -13.7974   22.0601 C   0  0  0  0  0  0  0  0  0  0  0  0
  -29.4747  -24.2316   17.7553 C   0  0  0  0  0  0  0  0  0  0  0  0
  -27.1321  -24.6572   19.1967 C   0  0  0  0  0  0  0  0  0  0  0  0
  -23.2016  -27.8488   19.2972 C   0  0  0  0  0  0  0  0  0  0  0  0
  -28.8694  -12.2217   20.0360 C   0  0  0  0  0  0  0  0  0  0  0  0
  -29.0256  -13.2101   22.2351 C   0  0  0  0  0  0  0  0  0  0  0  0
  -21.9721  -27.3320   19.7033 C   0  0  0  0  0  0  0  0  0  0  0  0
  -30.1619   -9.5412   21.6414 C   0  0  0  0  0  0  0  0  0  0  0  0
  -30.3078   -8.2034   21.2746 C   0  0  0  0  0  0  0  0  0  0  0  0
  -22.3121  -28.2662   21.9012 C   0  0  0  0  0  0  0  0  0  0  0  0
  -18.6702  -21.0271   24.3031 C   0  0  0  0  0  0  0  0  0  0  0  0
  -19.6777  -19.0617   23.3238 C   0  0  0  0  0  0  0  0  0  0  0  0
  -20.1923  -21.2506   22.4403 C   0  0  0  0  0  0  0  0  0  0  0  0
  -32.0142   -8.8262   19.6817 C   0  0  0  0  0  0  0  0  0  0  0  0
  -27.0679  -13.5968   20.8731 C   0  0  0  0  0  0  0  0  0  0  0  0
  -24.5224  -13.6542   21.0290 C   0  0  0  0  0  0  0  0  0  0  0  0
  -29.5003  -25.0769   18.8757 C   0  0  0  0  0  0  0  0  0  0  0  0
  -24.0020  -28.5700   20.1948 C   0  0  0  0  0  0  0  0  0  0  0  0
  -28.3185  -25.2853   19.6122 C   0  0  0  0  0  0  0  0  0  0  0  0
  -23.5503  -28.7932   21.5034 C   0  0  0  0  0  0  0  0  0  0  0  0
  -18.8344  -19.6423   24.2712 C   0  0  0  0  0  0  0  0  0  0  0  0
  -19.3491  -21.8312   23.3876 C   0  0  0  0  0  0  0  0  0  0  0  0
  -20.3566  -19.8658   22.4084 C   0  0  0  0  0  0  0  0  0  0  0  0
  -29.5740  -12.4223   21.2230 C   0  0  0  0  0  0  0  0  0  0  0  0
  -21.5284  -27.5382   21.0063 C   0  0  0  0  0  0  0  0  0  0  0  0
  -30.9421  -10.5216   21.0284 C   0  0  0  0  0  0  0  0  0  0  0  0
  -31.2339   -7.8459   20.2948 C   0  0  0  0  0  0  0  0  0  0  0  0
  -31.8683  -10.1641   20.0485 C   0  0  0  0  0  0  0  0  0  0  0  0
  -25.7738  -14.2041   20.6927 C   0  0  0  0  0  0  0  0  0  0  0  0
  -23.6143  -14.6169   20.6616 C   0  0  0  0  0  0  0  0  0  0  0  0
  -19.7936  -24.1891   22.5680 C   0  0  0  0  0  0  0  0  0  0  0  0
  -24.2087  -12.3864   21.6207 C   0  0  0  0  0  0  0  0  0  0  0  0
  -26.9025  -28.1720   21.4328 C   0  0  0  0  0  0  0  0  0  0  0  0
  -26.3527  -31.1192   22.6714 C   0  0  0  0  0  0  0  0  0  0  0  0
  -24.0843  -33.4750   23.6466 C   0  0  0  0  0  0  0  0  0  0  0  0
  -21.9590  -19.9296   20.4655 C   0  0  0  0  0  0  0  0  0  0  0  0
  -30.8149  -25.6845   19.2967 C   0  0  0  0  0  0  0  0  0  0  0  0
  -25.3137  -29.1437   19.7335 C   0  0  0  0  0  0  0  0  0  0  0  0
  -24.3626  -29.5780   22.4997 C   0  0  0  0  0  0  0  0  0  0  0  0
  -30.6634  -26.8463   20.2753 C   0  0  0  0  0  0  0  0  0  0  0  0
  -24.2117  -18.8385   17.9334 C   0  0  0  0  0  0  0  0  0  0  0  0
  -29.6829  -26.4840   21.3863 C   0  0  0  0  0  0  0  0  0  0  0  0
  -24.7160  -17.4903   18.4532 C   0  0  0  0  0  0  0  0  0  0  0  0
  -18.6930  -25.3508   24.3297 C   0  0  0  0  0  0  0  0  0  0  0  0
  -24.0105  -19.8437   19.0660 C   0  0  0  0  0  0  0  0  0  0  0  0
  -18.2723  -23.8949   24.3493 C   0  0  0  0  0  0  0  0  0  0  0  0
  -23.6717  -18.0241   20.6918 C   0  0  0  0  0  0  0  0  0  0  0  0
  -28.2873  -26.1981   20.8188 C   0  0  1  0  0  0  0  0  0  0  0  0
  -19.1992  -25.5464   22.9080 C   0  0  1  0  0  0  0  0  0  0  0  0
  -26.2800  -29.4231   20.8805 C   0  0  1  0  0  0  0  0  0  0  0  0
  -23.8274  -16.9584   19.5947 C   0  0  2  0  0  0  0  0  0  0  0  0
  -23.9356  -35.7680   24.6553 C   0  0  0  0  0  0  0  0  0  0  0  0
  -27.0172  -29.9541   25.4120 C   0  0  0  0  0  0  0  0  0  0  0  0
  -25.9520  -31.9684   26.4494 C   0  0  0  0  0  0  0  0  0  0  0  0
  -27.9585  -32.2325   24.9910 C   0  0  0  0  0  0  0  0  0  0  0  0
  -22.7118  -34.5621   21.2606 C   0  0  0  0  0  0  0  0  0  0  0  0
  -20.1986  -26.6808   22.7817 C   0  0  0  0  0  0  0  0  0  1  0  0
  -25.7335  -31.6457   23.9435 C   0  0  1  0  0  0  0  0  0  0  0  0
  -23.9946  -34.9641   23.3657 C   0  0  2  0  0  0  0  0  0  0  0  0
  -18.1072  -18.7827   25.2495 C   0  0  0  0  0  0  0  0  0  0  0  0
  -26.6507  -31.4337   25.1810 C   0  0  0  0  0  0  0  0  0  0  0  0
  -25.6737  -15.4218   20.1530 N   0  0  0  0  0  0  0  0  0  0  0  0
  -24.3485  -15.6449   20.1473 N   0  0  0  0  0  0  0  0  0  0  0  0
  -19.1805  -23.2480   23.4206 N   0  0  0  0  0  0  0  0  0  0  0  0
  -25.6409  -30.1133   22.0027 N   0  0  0  0  0  0  0  0  0  0  0  0
  -23.1554  -19.2724   20.1086 N   0  0  0  0  0  0  0  0  0  0  0  0
  -22.2674  -14.6760   20.7315 N   0  0  0  0  0  0  0  0  0  0  0  0
  -25.2621  -11.5172   21.9357 N   0  0  0  0  0  0  0  0  0  0  0  0
  -21.2122  -19.2760   21.4451 N   0  0  0  0  0  0  0  0  0  0  0  0
  -27.6080  -27.4357   20.5002 N   0  0  0  0  0  0  0  0  0  0  0  0
  -25.3923  -33.0403   23.6846 N   0  0  0  0  0  0  0  0  0  0  0  0
  -22.7740  -35.2678   22.5663 N   0  3  0  0  0  0  0  0  0  0  0  0
  -20.6007  -24.0188   21.6658 O   0  0  0  0  0  0  0  0  0  0  0  0
  -23.0282  -12.0279   21.8477 O   0  0  0  0  0  0  0  0  0  0  0  0
  -26.7549  -27.8960   22.6176 O   0  0  0  0  0  0  0  0  0  0  0  0
  -27.4249  -31.5883   22.2815 O   0  0  0  0  0  0  0  0  0  0  0  0
  -23.0933  -32.7688   23.8191 O   0  0  0  0  0  0  0  0  0  0  0  0
  -21.6083  -20.9798   19.9214 O   0  0  0  0  0  0  0  0  0  0  0  0
  -30.7967  -11.8492   21.3942 O   0  0  0  0  0  0  0  0  0  0  0  0
  -20.3290  -27.0344   21.4054 O   0  0  0  0  0  0  0  0  0  1  0  0
  -31.3750   -6.5610   19.9437 F   0  0  0  0  0  0  0  0  0  0  0  0
  -32.6215  -11.1013   19.4569 F   0  0  0  0  0  0  0  0  0  0  0  0
  -17.3182  -19.4856   26.1151 F   0  0  0  0  0  0  0  0  0  0  0  0
  -17.2721  -17.8744   24.6639 F   0  0  0  0  0  0  0  0  0  0  0  0
  -18.9510  -18.0515   26.0346 F   0  0  0  0  0  0  0  0  0  0  0  0
  1  2  1  0  0  0  0
  1  5  2  0  0  0  0
  2  6  2  0  0  0  0
  3  8  2  0  0  0  0
  3 18  1  0  0  0  0
  4  9  1  0  0  0  0
  4 18  2  0  0  0  0
  5 20  1  0  0  0  0
  6 22  1  0  0  0  0
  7 10  2  0  0  0  0
  7 21  1  0  0  0  0
  8 27  1  0  0  0  0
  9 27  2  0  0  0  0
 10 28  1  0  0  0  0
 11 12  2  0  0  0  0
 11 29  1  0  0  0  0
 12 30  1  0  0  0  0
 13 23  1  0  0  0  0
 13 28  2  0  0  0  0
 14 24  1  0  0  0  0
 14 25  2  0  0  0  0
 15 24  2  0  0  0  0
 15 26  1  0  0  0  0
 16 25  1  0  0  0  0
 16 26  2  0  0  0  0
 17 30  2  0  0  0  0
 17 31  1  0  0  0  0
 18 32  1  0  0  0  0
 19 32  1  0  0  0  0
 19 33  2  0  0  0  0
 19 35  1  0  0  0  0
 20 22  2  0  0  0  0
 20 40  1  0  0  0  0
 21 23  2  0  0  0  0
 21 41  1  0  0  0  0
 22 51  1  0  0  0  0
 23 42  1  0  0  0  0
 24 63  1  0  0  0  0
 25 67  1  0  0  0  0
 26 72  1  0  0  0  0
 27 82  1  0  0  0  0
 28 83  1  0  0  0  0
 29 31  2  0  0  0  0
 29 82  1  0  0  0  0
 30 84  1  0  0  0  0
 31 85  1  0  0  0  0
 32 65  2  0  0  0  0
 33 66  1  0  0  0  0
 33 70  1  0  0  0  0
 34 52  1  0  0  0  0
 34 67  1  0  0  0  0
 34 76  2  0  0  0  0
 35 71  1  0  0  0  0
 35 77  2  0  0  0  0
 36 53  1  0  0  0  0
 36 73  1  0  0  0  0
 36 78  2  0  0  0  0
 37 61  1  0  0  0  0
 37 68  1  0  0  0  0
 37 79  2  0  0  0  0
 38 62  1  0  0  0  0
 38 74  1  0  0  0  0
 38 80  2  0  0  0  0
 39 69  1  0  0  0  0
 39 72  1  0  0  0  0
 39 81  2  0  0  0  0
 40 43  1  0  0  0  0
 41 53  1  0  0  0  0
 42 68  1  0  0  0  0
 43 45  1  0  0  0  0
 44 46  1  0  0  0  0
 44 48  1  0  0  0  0
 45 51  1  0  0  0  0
 46 54  1  0  0  0  0
 47 49  1  0  0  0  0
 47 52  1  0  0  0  0
 48 69  1  0  0  0  0
 49 67  1  0  0  0  0
 50 54  1  0  0  0  0
 50 69  1  0  0  0  0
 51 73  1  0  0  0  0
 52 60  1  0  0  0  0
 53 68  1  0  0  0  0
 54 66  1  0  0  0  0
 55 62  1  0  0  0  0
 56 64  1  0  0  0  0
 57 64  1  0  0  0  0
 58 64  1  0  0  0  0
 59 75  1  0  0  0  0
 60 83  1  0  0  0  0
 61 64  1  0  0  0  0
 61 74  1  0  0  0  0
 62 75  1  0  0  0  0
 63 86  1  0  0  0  0
 63 87  1  0  0  0  0
 63 88  1  0  0  0  0
 65 66  1  0  0  0  0
M  CHG  1  75   1
M  ISO  4  39 100  60 101  72 100  83 101
M  END
> <Batch ID>
0071

> <Smiles>
CNC(C)C(=O)NC(C(=O)N1Cc2cc([101O:1][101CH2:1]C3CCN(c4cc([100NH:0][100C:0](=O)N5CCCC(n6nc(-c7ccc(Oc8ccc(F)cc8F)cc7)c(C(N)=O)c6N)C5)cc(C(F)(F)F)c4)C3=O)ccc2CC1C(=O)NC1CCCc2ccccc21)C(C)(C)C

> <Shape>
0.258

> <Color>
0.081

> <Negative vol penalty>
0.000

$$$$

  -OEChem-04042323353D

 84 92  0     1  0  0  0  0  0999 V2000
  -30.3736  -32.3636   25.3949 C   0  0  0  0  0  0  0  0  0  0  0  0
  -29.9915  -31.2831   24.6063 C   0  0  0  0  0  0  0  0  0  0  0  0
  -24.3775   -8.4182   21.4362 C   0  0  0  0  0  0  0  0  0  0  0  0
  -24.6088   -9.8891   23.3388 C   0  0  0  0  0  0  0  0  0  0  0  0
  -28.0251  -19.7456   20.1632 C   0  0  0  0  0  0  0  0  0  0  0  0
  -29.4202  -33.0462   26.1494 C   0  0  0  0  0  0  0  0  0  0  0  0
  -28.6559  -30.8837   24.5726 C   0  0  0  0  0  0  0  0  0  0  0  0
  -27.0307  -29.9328   19.8716 C   0  0  0  0  0  0  0  0  0  0  0  0
  -27.9164  -18.3794   19.9039 C   0  0  0  0  0  0  0  0  0  0  0  0
  -23.9576   -7.3911   22.2812 C   0  0  0  0  0  0  0  0  0  0  0  0
  -24.1889   -8.8619   24.1839 C   0  0  0  0  0  0  0  0  0  0  0  0
  -27.4017  -28.7147   19.3038 C   0  0  0  0  0  0  0  0  0  0  0  0
  -21.1233   -6.4911   23.8904 C   0  0  0  0  0  0  0  0  0  0  0  0
  -20.0146   -5.7411   23.4979 C   0  0  0  0  0  0  0  0  0  0  0  0
  -25.2307  -27.8102   19.8404 C   0  0  0  0  0  0  0  0  0  0  0  0
  -30.3244  -18.1842   19.9228 C   0  0  0  0  0  0  0  0  0  0  0  0
  -21.3669   -3.7390   23.5039 C   0  0  0  0  0  0  0  0  0  0  0  0
  -24.7032   -9.6673   21.9650 C   0  0  0  0  0  0  0  0  0  0  0  0
  -29.2835  -20.3312   20.3021 C   0  0  0  0  0  0  0  0  0  0  0  0
  -24.3293  -11.6861   20.4509 C   0  0  0  0  0  0  0  0  0  0  0  0
  -28.0706  -32.6610   26.1174 C   0  0  0  0  0  0  0  0  0  0  0  0
  -25.7586  -30.0956   20.4388 C   0  0  0  0  0  0  0  0  0  0  0  0
  -27.6838  -31.5609   25.3284 C   0  0  0  0  0  0  0  0  0  0  0  0
  -24.8451  -29.0322   20.4125 C   0  0  0  0  0  0  0  0  0  0  0  0
  -29.0660  -17.5987   19.7838 C   0  0  0  0  0  0  0  0  0  0  0  0
  -23.8633   -7.6129   23.6551 C   0  0  0  0  0  0  0  0  0  0  0  0
  -26.5027  -27.6523   19.2908 C   0  0  0  0  0  0  0  0  0  0  0  0
  -22.3538   -5.8650   24.0896 C   0  0  0  0  0  0  0  0  0  0  0  0
  -20.1364   -4.3651   23.3047 C   0  0  0  0  0  0  0  0  0  0  0  0
  -30.4331  -19.5505   20.1820 C   0  0  0  0  0  0  0  0  0  0  0  0
  -22.4756   -4.4890   23.8964 C   0  0  0  0  0  0  0  0  0  0  0  0
  -25.1376  -10.7286   21.0926 C   0  0  0  0  0  0  0  0  0  0  0  0
  -25.2136  -12.4633   19.7436 C   0  0  0  0  0  0  0  0  0  0  0  0
  -28.3353  -24.6173   18.8561 C   0  0  0  0  0  0  0  0  0  0  0  0
  -29.3951  -21.7762   20.5756 C   0  0  0  0  0  0  0  0  0  0  0  0
  -22.9064  -11.8576   20.4908 C   0  0  0  0  0  0  0  0  0  0  0  0
  -24.6686  -30.7523   23.3516 C   0  0  0  0  0  0  0  0  0  0  0  0
  -21.8064  -30.8722   21.8298 C   0  0  0  0  0  0  0  0  0  0  0  0
  -19.8997  -29.9180   19.1652 C   0  0  0  0  0  0  0  0  0  0  0  0
  -29.9945  -15.2933   19.3723 C   0  0  0  0  0  0  0  0  0  0  0  0
  -27.0841  -33.3998   26.9867 C   0  0  0  0  0  0  0  0  0  0  0  0
  -25.3642  -31.4242   21.0234 C   0  0  0  0  0  0  0  0  0  0  0  0
  -23.4602  -29.1619   20.9901 C   0  0  0  0  0  0  0  0  0  0  0  0
  -25.6278  -33.1479   26.6047 C   0  0  0  0  0  0  0  0  0  0  0  0
  -30.1321  -11.7893   18.7557 C   0  0  0  0  0  0  0  0  0  0  0  0
  -25.3813  -31.6574   26.3938 C   0  0  0  0  0  0  0  0  0  0  0  0
  -28.7785  -11.2797   19.2560 C   0  0  0  0  0  0  0  0  0  0  0  0
  -30.6730  -12.9170   19.6329 C   0  0  0  0  0  0  0  0  0  0  0  0
  -28.3946  -13.5287   20.3430 C   0  0  0  0  0  0  0  0  0  0  0  0
  -26.2406  -31.1131   25.2462 C   0  0  1  0  0  0  0  0  0  0  0  0
  -24.2249  -31.3185   22.0324 C   0  0  1  0  0  0  0  0  0  0  0  0
  -27.7790  -12.4362   19.4535 C   0  0  2  0  0  0  0  0  0  0  0  0
  -17.5872  -30.1422   18.2166 C   0  0  0  0  0  0  0  0  0  0  0  0
  -20.7728  -28.8640   23.8814 C   0  0  0  0  0  0  0  0  0  0  0  0
  -18.8341  -28.4152   22.3620 C   0  0  0  0  0  0  0  0  0  0  0  0
  -19.1678  -30.6963   23.3148 C   0  0  0  0  0  0  0  0  0  0  0  0
  -20.9071  -31.2379   16.7153 C   0  0  0  0  0  0  0  0  0  0  0  0
  -28.2453  -26.1133   18.7899 C   0  0  0  0  0  0  0  0  0  1  0  0
  -20.7261  -29.8694   21.5038 C   0  0  1  0  0  0  0  0  0  0  0  0
  -18.9976  -30.7108   18.2367 C   0  0  2  0  0  0  0  0  0  0  0  0
  -19.9019  -29.4579   22.7562 C   0  0  0  0  0  0  0  0  0  0  0  0
  -26.4356  -10.8816   20.8172 N   0  0  0  0  0  0  0  0  0  0  0  0
  -28.9171  -24.0417   19.8547 N   0  0  0  0  0  0  0  0  0  0  0  0
  -26.4496  -11.9442   19.9945 N   0  0  0  0  0  0  0  0  0  0  0  0
  -23.1240  -30.4788   21.5559 N   0  0  0  0  0  0  0  0  0  0  0  0
  -29.6737  -13.9786   19.7718 N   0  0  0  0  0  0  0  0  0  0  0  0
  -25.0467  -13.5334   18.9376 N   0  0  0  0  0  0  0  0  0  0  0  0
  -22.1480  -10.9710   21.2674 N   0  0  0  0  0  0  0  0  0  0  0  0
  -28.9549  -16.2108   19.5206 N   0  0  0  0  0  0  0  0  0  0  0  0
  -28.8855  -22.6463   19.6979 N   0  0  0  0  0  0  0  0  0  0  0  0
  -25.6684  -31.4798   23.9685 N   0  0  0  0  0  0  0  0  0  0  0  0
  -19.9308  -30.4599   20.4327 N   0  0  0  0  0  0  0  0  0  0  0  0
  -30.0043  -22.1729   21.6909 N   0  3  0  0  0  0  0  0  0  0  0  0
  -19.5343  -30.6854   16.8466 N   0  3  0  0  0  0  0  0  0  0  0  0
  -22.3231  -12.7599   19.8434 O   0  0  0  0  0  0  0  0  0  0  0  0
  -24.1418  -29.7317   23.7789 O   0  0  0  0  0  0  0  0  0  0  0  0
  -21.4922  -31.9671   22.3033 O   0  0  0  0  0  0  0  0  0  0  0  0
  -20.5123  -28.9158   18.8033 O   0  0  0  0  0  0  0  0  0  0  0  0
  -31.1004  -15.5781   18.9055 O   0  0  0  0  0  0  0  0  0  0  0  0
  -23.4533   -6.6108   24.4800 O   0  0  0  0  0  0  0  0  0  0  0  0
  -26.8626  -26.4621   18.7378 O   0  0  0  0  0  0  0  0  0  1  0  0
  -19.0713   -3.6448   22.9293 F   0  0  0  0  0  0  0  0  0  0  0  0
  -31.6467  -20.1045   20.3121 F   0  0  0  0  0  0  0  0  0  0  0  0
  -23.6548   -3.8818   24.0873 F   0  0  0  0  0  0  0  0  0  0  0  0
  1  2  1  0  0  0  0
  1  6  2  0  0  0  0
  2  7  2  0  0  0  0
  3 10  2  0  0  0  0
  3 18  1  0  0  0  0
  4 11  1  0  0  0  0
  4 18  2  0  0  0  0
  5  9  2  0  0  0  0
  5 19  1  0  0  0  0
  6 21  1  0  0  0  0
  7 23  1  0  0  0  0
  8 12  2  0  0  0  0
  8 22  1  0  0  0  0
  9 25  1  0  0  0  0
 10 26  1  0  0  0  0
 11 26  2  0  0  0  0
 12 27  1  0  0  0  0
 13 14  2  0  0  0  0
 13 28  1  0  0  0  0
 14 29  1  0  0  0  0
 15 24  1  0  0  0  0
 15 27  2  0  0  0  0
 16 25  2  0  0  0  0
 16 30  1  0  0  0  0
 17 29  2  0  0  0  0
 17 31  1  0  0  0  0
 18 32  1  0  0  0  0
 19 30  2  0  0  0  0
 19 35  1  0  0  0  0
 20 32  1  0  0  0  0
 20 33  2  0  0  0  0
 20 36  1  0  0  0  0
 21 23  2  0  0  0  0
 21 41  1  0  0  0  0
 22 24  2  0  0  0  0
 22 42  1  0  0  0  0
 23 50  1  0  0  0  0
 24 43  1  0  0  0  0
 25 69  1  0  0  0  0
 26 80  1  0  0  0  0
 27 81  1  0  0  0  0
 28 31  2  0  0  0  0
 28 80  1  0  0  0  0
 29 82  1  0  0  0  0
 30 83  1  0  0  0  0
 31 84  1  0  0  0  0
 32 62  2  0  0  0  0
 33 64  1  0  0  0  0
 33 67  1  0  0  0  0
 34 58  1  0  0  0  0
 34 63  2  0  0  0  0
 35 70  1  0  0  0  0
 35 73  2  0  0  0  0
 36 68  1  0  0  0  0
 36 75  2  0  0  0  0
 37 51  1  0  0  0  0
 37 71  1  0  0  0  0
 37 76  2  0  0  0  0
 38 59  1  0  0  0  0
 38 65  1  0  0  0  0
 38 77  2  0  0  0  0
 39 60  1  0  0  0  0
 39 72  1  0  0  0  0
 39 78  2  0  0  0  0
 40 66  1  0  0  0  0
 40 69  1  0  0  0  0
 40 79  2  0  0  0  0
 41 44  1  0  0  0  0
 42 51  1  0  0  0  0
 43 65  1  0  0  0  0
 44 46  1  0  0  0  0
 45 47  1  0  0  0  0
 45 48  1  0  0  0  0
 46 50  1  0  0  0  0
 47 52  1  0  0  0  0
 48 66  1  0  0  0  0
 49 52  1  0  0  0  0
 49 66  1  0  0  0  0
 50 71  1  0  0  0  0
 51 65  1  0  0  0  0
 52 64  1  0  0  0  0
 53 60  1  0  0  0  0
 54 61  1  0  0  0  0
 55 61  1  0  0  0  0
 56 61  1  0  0  0  0
 57 74  1  0  0  0  0
 58 81  1  0  0  0  0
 59 61  1  0  0  0  0
 59 72  1  0  0  0  0
 60 74  1  0  0  0  0
 62 64  1  0  0  0  0
 63 70  1  0  0  0  0
M  CHG  2  73   1  74   1
M  ISO  4  40 100  58 101  69 100  81 101
M  END
> <Batch ID>
0071

> <Smiles>
CNC(C)C(=O)NC(C(=O)N1Cc2cc([101O:1][101CH2:1]C=NNC(=N)c3ccc([100NH:0][100C:0](=O)N4CCCC(n5nc(-c6ccc(Oc7ccc(F)cc7F)cc6)c(C(N)=O)c5N)C4)cc3F)ccc2CC1C(=O)NC1CCCc2ccccc21)C(C)(C)C

> <Shape>
0.359

> <Color>
0.084

> <Negative vol penalty>
0.000

$$$$

  -OEChem-04042323353D

 91100  0     1  0  0  0  0  0999 V2000
  -29.6972  -35.9088   18.5916 C   0  0  0  0  0  0  0  0  0  0  0  0
  -29.7494  -34.5698   18.9652 C   0  0  0  0  0  0  0  0  0  0  0  0
  -23.6253   -8.8826   19.5710 C   0  0  0  0  0  0  0  0  0  0  0  0
  -23.4061  -10.1699   21.6037 C   0  0  0  0  0  0  0  0  0  0  0  0
  -28.7896  -36.7686   19.2088 C   0  0  0  0  0  0  0  0  0  0  0  0
  -28.8947  -34.0899   19.9570 C   0  0  0  0  0  0  0  0  0  0  0  0
  -26.7728  -29.6620   18.7177 C   0  0  0  0  0  0  0  0  0  0  0  0
  -22.8161   -7.8853   20.1152 C   0  0  0  0  0  0  0  0  0  0  0  0
  -22.5968   -9.1726   22.1479 C   0  0  0  0  0  0  0  0  0  0  0  0
  -27.5596  -28.5190   18.8528 C   0  0  0  0  0  0  0  0  0  0  0  0
  -19.3785   -8.1703   21.9057 C   0  0  0  0  0  0  0  0  0  0  0  0
  -18.2162   -8.5693   22.5657 C   0  0  0  0  0  0  0  0  0  0  0  0
  -30.1702  -19.8829   21.4267 C   0  0  0  0  0  0  0  0  0  0  0  0
  -28.7648  -18.2106   20.3948 C   0  0  0  0  0  0  0  0  0  0  0  0
  -26.4766  -28.0290   20.9519 C   0  0  0  0  0  0  0  0  0  0  0  0
  -30.9817  -17.6236   21.1550 C   0  0  0  0  0  0  0  0  0  0  0  0
  -34.2780  -19.2063   23.3262 C   0  0  0  0  0  0  0  0  0  0  0  0
  -19.0135   -7.5320   24.5968 C   0  0  0  0  0  0  0  0  0  0  0  0
  -32.9298  -20.5450   22.1178 C   0  0  0  0  0  0  0  0  0  0  0  0
  -23.9204  -10.0249   20.3152 C   0  0  0  0  0  0  0  0  0  0  0  0
  -28.9628  -19.5212   20.8293 C   0  0  0  0  0  0  0  0  0  0  0  0
  -24.3421  -12.1712   19.0025 C   0  0  0  0  0  0  0  0  0  0  0  0
  -27.9167  -36.2970   20.2019 C   0  0  0  0  0  0  0  0  0  0  0  0
  -25.8381  -30.0036   19.7057 C   0  0  0  0  0  0  0  0  0  0  0  0
  -27.9755  -34.9445   20.5890 C   0  0  0  0  0  0  0  0  0  0  0  0
  -25.6774  -29.1755   20.8257 C   0  0  0  0  0  0  0  0  0  0  0  0
  -31.1797  -18.9341   21.5895 C   0  0  0  0  0  0  0  0  0  0  0  0
  -29.7742  -17.2618   20.5576 C   0  0  0  0  0  0  0  0  0  0  0  0
  -22.3019   -8.0303   21.4037 C   0  0  0  0  0  0  0  0  0  0  0  0
  -27.4136  -27.7038   19.9714 C   0  0  0  0  0  0  0  0  0  0  0  0
  -20.3583   -7.4521   22.5913 C   0  0  0  0  0  0  0  0  0  0  0  0
  -34.1138  -20.5198   22.8213 C   0  0  0  0  0  0  0  0  0  0  0  0
  -18.0337   -8.2501   23.9112 C   0  0  0  0  0  0  0  0  0  0  0  0
  -20.1758   -7.1330   23.9369 C   0  0  0  0  0  0  0  0  0  0  0  0
  -24.7567  -11.0552   19.7538 C   0  0  0  0  0  0  0  0  0  0  0  0
  -25.5060  -12.8378   18.7070 C   0  0  0  0  0  0  0  0  0  0  0  0
  -33.1894  -18.4688   22.9157 C   0  0  0  0  0  0  0  0  0  0  0  0
  -28.2106  -24.2277   20.3267 C   0  0  0  0  0  0  0  0  0  0  0  0
  -27.5487  -25.3793   20.1930 C   0  0  0  0  0  0  0  0  0  1  0  0
  -27.8882  -20.5315   20.6558 C   0  0  0  0  0  0  0  0  0  0  0  0
  -23.0227  -12.5698   18.6073 C   0  0  0  0  0  0  0  0  0  0  0  0
  -27.4593  -22.9465   20.4162 C   0  0  0  0  0  0  0  0  0  0  0  0
  -25.4530  -32.4713   21.6719 C   0  0  0  0  0  0  0  0  0  0  0  0
  -22.6827  -30.9525   22.4076 C   0  0  0  0  0  0  0  0  0  0  0  0
  -20.9212  -28.0316   22.5191 C   0  0  0  0  0  0  0  0  0  0  0  0
  -30.4710  -14.8672   20.2015 C   0  0  0  0  0  0  0  0  0  0  0  0
  -26.9854  -37.2746   20.8739 C   0  0  0  0  0  0  0  0  0  0  0  0
  -24.9783  -31.2255   19.5321 C   0  0  0  0  0  0  0  0  0  0  0  0
  -24.6740  -29.4871   21.9049 C   0  0  0  0  0  0  0  0  0  0  0  0
  -25.8562  -36.6039   21.6518 C   0  0  0  0  0  0  0  0  0  0  0  0
  -30.3376  -11.4350   19.2638 C   0  0  0  0  0  0  0  0  0  0  0  0
  -26.4015  -35.4676   22.5111 C   0  0  0  0  0  0  0  0  0  0  0  0
  -28.8396  -11.1220   19.2458 C   0  0  0  0  0  0  0  0  0  0  0  0
  -30.7019  -12.4002   20.3904 C   0  0  0  0  0  0  0  0  0  0  0  0
  -28.4199  -13.3285   20.4044 C   0  0  0  0  0  0  0  0  0  0  0  0
  -27.0477  -34.3809   21.6433 C   0  0  1  0  0  0  0  0  0  0  0  0
  -24.4196  -31.7550   20.8492 C   0  0  1  0  0  0  0  0  0  0  0  0
  -27.9946  -12.4110   19.2464 C   0  0  2  0  0  0  0  0  0  0  0  0
  -18.6949  -27.0988   23.2053 C   0  0  0  0  0  0  0  0  0  0  0  0
  -23.5283  -31.0951   25.3359 C   0  0  0  0  0  0  0  0  0  0  0  0
  -21.7972  -29.3603   25.8479 C   0  0  0  0  0  0  0  0  0  0  0  0
  -21.1082  -31.5728   24.9244 C   0  0  0  0  0  0  0  0  0  0  0  0
  -20.3110  -27.1483   19.7612 C   0  0  0  0  0  0  0  0  0  0  0  0
  -22.2714  -29.9088   23.4178 C   0  0  1  0  0  0  0  0  0  0  0  0
  -19.5140  -27.6861   22.0665 C   0  0  2  0  0  0  0  0  0  0  0  0
  -22.1966  -30.4792   24.8623 C   0  0  0  0  0  0  0  0  0  0  0  0
  -26.0806  -11.0117   19.9247 N   0  0  0  0  0  0  0  0  0  0  0  0
  -32.3767  -19.2928   22.1817 N   0  0  0  0  0  0  0  0  0  0  0  0
  -26.5081  -12.1087   19.2767 N   0  0  0  0  0  0  0  0  0  0  0  0
  -23.8612  -30.6962   21.6926 N   0  0  0  0  0  0  0  0  0  0  0  0
  -29.8639  -13.5995   20.3250 N   0  0  0  0  0  0  0  0  0  0  0  0
  -25.7599  -13.9705   18.0179 N   0  0  0  0  0  0  0  0  0  0  0  0
  -21.9389  -11.7706   18.9956 N   0  0  0  0  0  0  0  0  0  0  0  0
  -29.5730  -15.9306   20.1157 N   0  0  0  0  0  0  0  0  0  0  0  0
  -28.3148  -21.8549   20.5520 N   0  0  0  0  0  0  0  0  0  0  0  0
  -26.0314  -33.5511   21.0325 N   0  0  0  0  0  0  0  0  0  0  0  0
  -21.0169  -29.3434   22.9330 N   0  0  0  0  0  0  0  0  0  0  0  0
  -19.5562  -26.6922   20.9568 N   0  3  0  0  0  0  0  0  0  0  0  0
  -26.7174  -20.1614   20.6409 O   0  0  0  0  0  0  0  0  0  0  0  0
  -22.8128  -13.5952   17.9159 O   0  0  0  0  0  0  0  0  0  0  0  0
  -26.2344  -22.8981   20.3696 O   0  0  0  0  0  0  0  0  0  0  0  0
  -25.7056  -32.0746   22.8034 O   0  0  0  0  0  0  0  0  0  0  0  0
  -21.9803  -31.9547   22.2534 O   0  0  0  0  0  0  0  0  0  0  0  0
  -21.8424  -27.2181   22.5103 O   0  0  0  0  0  0  0  0  0  0  0  0
  -31.6966  -14.9972   20.1464 O   0  0  0  0  0  0  0  0  0  0  0  0
  -34.9323  -21.5696   22.9759 O   0  0  0  0  0  0  0  0  0  0  0  0
  -32.8806  -17.1957   23.1302 O   0  0  0  0  0  0  0  0  0  0  0  0
  -21.5120   -7.0575   21.9350 O   0  0  0  0  0  0  0  0  0  0  0  0
  -28.1807  -26.5879   20.1060 O   0  0  0  0  0  0  0  0  0  1  0  0
  -16.9182   -8.6347   24.5452 F   0  0  0  0  0  0  0  0  0  0  0  0
  -21.1140   -6.4443   24.6011 F   0  0  0  0  0  0  0  0  0  0  0  0
  1  2  1  0  0  0  0
  1  5  2  0  0  0  0
  2  6  2  0  0  0  0
  3  8  2  0  0  0  0
  3 20  1  0  0  0  0
  4  9  1  0  0  0  0
  4 20  2  0  0  0  0
  5 23  1  0  0  0  0
  6 25  1  0  0  0  0
  7 10  2  0  0  0  0
  7 24  1  0  0  0  0
  8 29  1  0  0  0  0
  9 29  2  0  0  0  0
 10 30  1  0  0  0  0
 11 12  2  0  0  0  0
 11 31  1  0  0  0  0
 12 33  1  0  0  0  0
 13 21  2  0  0  0  0
 13 27  1  0  0  0  0
 14 21  1  0  0  0  0
 14 28  2  0  0  0  0
 15 26  1  0  0  0  0
 15 30  2  0  0  0  0
 16 27  2  0  0  0  0
 16 28  1  0  0  0  0
 17 32  1  0  0  0  0
 17 37  2  0  0  0  0
 18 33  2  0  0  0  0
 18 34  1  0  0  0  0
 19 32  2  0  0  0  0
 19 68  1  0  0  0  0
 20 35  1  0  0  0  0
 21 40  1  0  0  0  0
 22 35  1  0  0  0  0
 22 36  2  0  0  0  0
 22 41  1  0  0  0  0
 23 25  2  0  0  0  0
 23 47  1  0  0  0  0
 24 26  2  0  0  0  0
 24 48  1  0  0  0  0
 25 56  1  0  0  0  0
 26 49  1  0  0  0  0
 27 68  1  0  0  0  0
 28 74  1  0  0  0  0
 29 88  1  0  0  0  0
 30 89  1  0  0  0  0
 31 34  2  0  0  0  0
 31 88  1  0  0  0  0
 32 86  1  0  0  0  0
 33 90  1  0  0  0  0
 34 91  1  0  0  0  0
 35 67  2  0  0  0  0
 36 69  1  0  0  0  0
 36 72  1  0  0  0  0
 37 68  1  0  0  0  0
 37 87  1  0  0  0  0
 38 39  2  0  0  0  0
 38 42  1  0  0  0  0
 39 89  1  0  0  0  0
 40 75  1  0  0  0  0
 40 79  2  0  0  0  0
 41 73  1  0  0  0  0
 41 80  2  0  0  0  0
 42 75  1  0  0  0  0
 42 81  2  0  0  0  0
 43 57  1  0  0  0  0
 43 76  1  0  0  0  0
 43 82  2  0  0  0  0
 44 64  1  0  0  0  0
 44 70  1  0  0  0  0
 44 83  2  0  0  0  0
 45 65  1  0  0  0  0
 45 77  1  0  0  0  0
 45 84  2  0  0  0  0
 46 71  1  0  0  0  0
 46 74  1  0  0  0  0
 46 85  2  0  0  0  0
 47 50  1  0  0  0  0
 48 57  1  0  0  0  0
 49 70  1  0  0  0  0
 50 52  1  0  0  0  0
 51 53  1  0  0  0  0
 51 54  1  0  0  0  0
 52 56  1  0  0  0  0
 53 58  1  0  0  0  0
 54 71  1  0  0  0  0
 55 58  1  0  0  0  0
 55 71  1  0  0  0  0
 56 76  1  0  0  0  0
 57 70  1  0  0  0  0
 58 69  1  0  0  0  0
 59 65  1  0  0  0  0
 60 66  1  0  0  0  0
 61 66  1  0  0  0  0
 62 66  1  0  0  0  0
 63 78  1  0  0  0  0
 64 66  1  0  0  0  0
 64 77  1  0  0  0  0
 65 78  1  0  0  0  0
 67 69  1  0  0  0  0
M  CHG  1  78   1
M  ISO  4  39 101  46 100  74 100  89 101
M  END
> <Batch ID>
0071

> <Smiles>
CNC(C)C(=O)NC(C(=O)N1Cc2cc([101O:1][101CH:1]=CC(=O)NC(=O)c3cc([100NH:0][100C:0](=O)N4CCCC(n5nc(-c6ccc(Oc7ccc(F)cc7F)cc6)c(C(N)=O)c5N)C4)cc(N4CC(=O)CC4=O)c3)ccc2CC1C(=O)NC1CCCc2ccccc21)C(C)(C)C

> <Shape>
0.282

> <Color>
0.119

> <Negative vol penalty>
0.000

$$$$

  -OEChem-04042323353D

 88 97  0     1  0  0  0  0  0999 V2000
  -28.2900  -23.6143   17.3560 C   0  0  0  0  0  0  0  0  0  0  0  0
  -27.1189  -23.8275   18.0761 C   0  0  0  0  0  0  0  0  0  0  0  0
  -27.6164  -12.8089   19.8611 C   0  0  0  0  0  0  0  0  0  0  0  0
  -27.7725  -13.7974   22.0601 C   0  0  0  0  0  0  0  0  0  0  0  0
  -29.4747  -24.2316   17.7553 C   0  0  0  0  0  0  0  0  0  0  0  0
  -27.1321  -24.6572   19.1967 C   0  0  0  0  0  0  0  0  0  0  0  0
  -23.2016  -27.8488   19.2972 C   0  0  0  0  0  0  0  0  0  0  0  0
  -28.8694  -12.2217   20.0360 C   0  0  0  0  0  0  0  0  0  0  0  0
  -29.0256  -13.2101   22.2351 C   0  0  0  0  0  0  0  0  0  0  0  0
  -21.9721  -27.3320   19.7033 C   0  0  0  0  0  0  0  0  0  0  0  0
  -30.1619   -9.5412   21.6414 C   0  0  0  0  0  0  0  0  0  0  0  0
  -30.3078   -8.2034   21.2746 C   0  0  0  0  0  0  0  0  0  0  0  0
  -22.3121  -28.2662   21.9012 C   0  0  0  0  0  0  0  0  0  0  0  0
  -18.6702  -21.0271   24.3031 C   0  0  0  0  0  0  0  0  0  0  0  0
  -19.6777  -19.0617   23.3238 C   0  0  0  0  0  0  0  0  0  0  0  0
  -20.1923  -21.2506   22.4403 C   0  0  0  0  0  0  0  0  0  0  0  0
  -32.0142   -8.8262   19.6817 C   0  0  0  0  0  0  0  0  0  0  0  0
  -27.0679  -13.5968   20.8731 C   0  0  0  0  0  0  0  0  0  0  0  0
  -24.5224  -13.6542   21.0290 C   0  0  0  0  0  0  0  0  0  0  0  0
  -29.5003  -25.0769   18.8757 C   0  0  0  0  0  0  0  0  0  0  0  0
  -24.0020  -28.5700   20.1948 C   0  0  0  0  0  0  0  0  0  0  0  0
  -28.3185  -25.2853   19.6122 C   0  0  0  0  0  0  0  0  0  0  0  0
  -23.5503  -28.7932   21.5034 C   0  0  0  0  0  0  0  0  0  0  0  0
  -18.8344  -19.6423   24.2712 C   0  0  0  0  0  0  0  0  0  0  0  0
  -19.3491  -21.8312   23.3876 C   0  0  0  0  0  0  0  0  0  0  0  0
  -20.3566  -19.8658   22.4084 C   0  0  0  0  0  0  0  0  0  0  0  0
  -29.5740  -12.4223   21.2230 C   0  0  0  0  0  0  0  0  0  0  0  0
  -21.5284  -27.5382   21.0063 C   0  0  0  0  0  0  0  0  0  0  0  0
  -30.9421  -10.5216   21.0284 C   0  0  0  0  0  0  0  0  0  0  0  0
  -31.2339   -7.8459   20.2948 C   0  0  0  0  0  0  0  0  0  0  0  0
  -31.8683  -10.1641   20.0485 C   0  0  0  0  0  0  0  0  0  0  0  0
  -25.7738  -14.2041   20.6927 C   0  0  0  0  0  0  0  0  0  0  0  0
  -23.6143  -14.6169   20.6616 C   0  0  0  0  0  0  0  0  0  0  0  0
  -19.7936  -24.1891   22.5680 C   0  0  0  0  0  0  0  0  0  0  0  0
  -24.2087  -12.3864   21.6207 C   0  0  0  0  0  0  0  0  0  0  0  0
  -26.9025  -28.1720   21.4328 C   0  0  0  0  0  0  0  0  0  0  0  0
  -26.3527  -31.1192   22.6714 C   0  0  0  0  0  0  0  0  0  0  0  0
  -24.0843  -33.4750   23.6466 C   0  0  0  0  0  0  0  0  0  0  0  0
  -21.9590  -19.9296   20.4655 C   0  0  0  0  0  0  0  0  0  0  0  0
  -30.8149  -25.6845   19.2967 C   0  0  0  0  0  0  0  0  0  0  0  0
  -25.3137  -29.1437   19.7335 C   0  0  0  0  0  0  0  0  0  0  0  0
  -24.3626  -29.5780   22.4997 C   0  0  0  0  0  0  0  0  0  0  0  0
  -30.6634  -26.8463   20.2753 C   0  0  0  0  0  0  0  0  0  0  0  0
  -24.2117  -18.8385   17.9334 C   0  0  0  0  0  0  0  0  0  0  0  0
  -29.6829  -26.4840   21.3863 C   0  0  0  0  0  0  0  0  0  0  0  0
  -24.7160  -17.4903   18.4532 C   0  0  0  0  0  0  0  0  0  0  0  0
  -18.6930  -25.3508   24.3297 C   0  0  0  0  0  0  0  0  0  0  0  0
  -24.0105  -19.8437   19.0660 C   0  0  0  0  0  0  0  0  0  0  0  0
  -18.2723  -23.8949   24.3493 C   0  0  0  0  0  0  0  0  0  0  0  0
  -23.6717  -18.0241   20.6918 C   0  0  0  0  0  0  0  0  0  0  0  0
  -28.2873  -26.1981   20.8188 C   0  0  1  0  0  0  0  0  0  0  0  0
  -19.1992  -25.5464   22.9080 C   0  0  1  0  0  0  0  0  0  0  0  0
  -26.2800  -29.4231   20.8805 C   0  0  1  0  0  0  0  0  0  0  0  0
  -23.8274  -16.9584   19.5947 C   0  0  2  0  0  0  0  0  0  0  0  0
  -23.9356  -35.7680   24.6553 C   0  0  0  0  0  0  0  0  0  0  0  0
  -27.0172  -29.9541   25.4120 C   0  0  0  0  0  0  0  0  0  0  0  0
  -25.9520  -31.9684   26.4494 C   0  0  0  0  0  0  0  0  0  0  0  0
  -27.9585  -32.2325   24.9910 C   0  0  0  0  0  0  0  0  0  0  0  0
  -22.7118  -34.5621   21.2606 C   0  0  0  0  0  0  0  0  0  0  0  0
  -20.1986  -26.6808   22.7817 C   0  0  0  0  0  0  0  0  0  1  0  0
  -25.7335  -31.6457   23.9435 C   0  0  1  0  0  0  0  0  0  0  0  0
  -23.9946  -34.9641   23.3657 C   0  0  2  0  0  0  0  0  0  0  0  0
  -18.1072  -18.7827   25.2495 C   0  0  0  0  0  0  0  0  0  0  0  0
  -26.6507  -31.4337   25.1810 C   0  0  0  0  0  0  0  0  0  0  0  0
  -25.6737  -15.4218   20.1530 N   0  0  0  0  0  0  0  0  0  0  0  0
  -24.3485  -15.6449   20.1473 N   0  0  0  0  0  0  0  0  0  0  0  0
  -19.1805  -23.2480   23.4206 N   0  0  0  0  0  0  0  0  0  0  0  0
  -25.6409  -30.1133   22.0027 N   0  0  0  0  0  0  0  0  0  0  0  0
  -23.1554  -19.2724   20.1086 N   0  0  0  0  0  0  0  0  0  0  0  0
  -22.2674  -14.6760   20.7315 N   0  0  0  0  0  0  0  0  0  0  0  0
  -25.2621  -11.5172   21.9357 N   0  0  0  0  0  0  0  0  0  0  0  0
  -21.2122  -19.2760   21.4451 N   0  0  0  0  0  0  0  0  0  0  0  0
  -27.6080  -27.4357   20.5002 N   0  0  0  0  0  0  0  0  0  0  0  0
  -25.3923  -33.0403   23.6846 N   0  0  0  0  0  0  0  0  0  0  0  0
  -22.7740  -35.2678   22.5663 N   0  3  0  0  0  0  0  0  0  0  0  0
  -20.6007  -24.0188   21.6658 O   0  0  0  0  0  0  0  0  0  0  0  0
  -23.0282  -12.0279   21.8477 O   0  0  0  0  0  0  0  0  0  0  0  0
  -26.7549  -27.8960   22.6176 O   0  0  0  0  0  0  0  0  0  0  0  0
  -27.4249  -31.5883   22.2815 O   0  0  0  0  0  0  0  0  0  0  0  0
  -23.0933  -32.7688   23.8191 O   0  0  0  0  0  0  0  0  0  0  0  0
  -21.6083  -20.9798   19.9214 O   0  0  0  0  0  0  0  0  0  0  0  0
  -30.7967  -11.8492   21.3942 O   0  0  0  0  0  0  0  0  0  0  0  0
  -20.3290  -27.0344   21.4054 O   0  0  0  0  0  0  0  0  0  1  0  0
  -31.3750   -6.5610   19.9437 F   0  0  0  0  0  0  0  0  0  0  0  0
  -32.6215  -11.1013   19.4569 F   0  0  0  0  0  0  0  0  0  0  0  0
  -17.3182  -19.4856   26.1151 F   0  0  0  0  0  0  0  0  0  0  0  0
  -17.2721  -17.8744   24.6639 F   0  0  0  0  0  0  0  0  0  0  0  0
  -18.9510  -18.0515   26.0346 F   0  0  0  0  0  0  0  0  0  0  0  0
  1  2  1  0  0  0  0
  1  5  2  0  0  0  0
  2  6  2  0  0  0  0
  3  8  2  0  0  0  0
  3 18  1  0  0  0  0
  4  9  1  0  0  0  0
  4 18  2  0  0  0  0
  5 20  1  0  0  0  0
  6 22  1  0  0  0  0
  7 10  2  0  0  0  0
  7 21  1  0  0  0  0
  8 27  1  0  0  0  0
  9 27  2  0  0  0  0
 10 28  1  0  0  0  0
 11 12  2  0  0  0  0
 11 29  1  0  0  0  0
 12 30  1  0  0  0  0
 13 23  1  0  0  0  0
 13 28  2  0  0  0  0
 14 24  1  0  0  0  0
 14 25  2  0  0  0  0
 15 24  2  0  0  0  0
 15 26  1  0  0  0  0
 16 25  1  0  0  0  0
 16 26  2  0  0  0  0
 17 30  2  0  0  0  0
 17 31  1  0  0  0  0
 18 32  1  0  0  0  0
 19 32  1  0  0  0  0
 19 33  2  0  0  0  0
 19 35  1  0  0  0  0
 20 22  2  0  0  0  0
 20 40  1  0  0  0  0
 21 23  2  0  0  0  0
 21 41  1  0  0  0  0
 22 51  1  0  0  0  0
 23 42  1  0  0  0  0
 24 63  1  0  0  0  0
 25 67  1  0  0  0  0
 26 72  1  0  0  0  0
 27 82  1  0  0  0  0
 28 83  1  0  0  0  0
 29 31  2  0  0  0  0
 29 82  1  0  0  0  0
 30 84  1  0  0  0  0
 31 85  1  0  0  0  0
 32 65  2  0  0  0  0
 33 66  1  0  0  0  0
 33 70  1  0  0  0  0
 34 52  1  0  0  0  0
 34 67  1  0  0  0  0
 34 76  2  0  0  0  0
 35 71  1  0  0  0  0
 35 77  2  0  0  0  0
 36 53  1  0  0  0  0
 36 73  1  0  0  0  0
 36 78  2  0  0  0  0
 37 61  1  0  0  0  0
 37 68  1  0  0  0  0
 37 79  2  0  0  0  0
 38 62  1  0  0  0  0
 38 74  1  0  0  0  0
 38 80  2  0  0  0  0
 39 69  1  0  0  0  0
 39 72  1  0  0  0  0
 39 81  2  0  0  0  0
 40 43  1  0  0  0  0
 41 53  1  0  0  0  0
 42 68  1  0  0  0  0
 43 45  1  0  0  0  0
 44 46  1  0  0  0  0
 44 48  1  0  0  0  0
 45 51  1  0  0  0  0
 46 54  1  0  0  0  0
 47 49  1  0  0  0  0
 47 52  1  0  0  0  0
 48 69  1  0  0  0  0
 49 67  1  0  0  0  0
 50 54  1  0  0  0  0
 50 69  1  0  0  0  0
 51 73  1  0  0  0  0
 52 60  1  0  0  0  0
 53 68  1  0  0  0  0
 54 66  1  0  0  0  0
 55 62  1  0  0  0  0
 56 64  1  0  0  0  0
 57 64  1  0  0  0  0
 58 64  1  0  0  0  0
 59 75  1  0  0  0  0
 60 83  1  0  0  0  0
 61 64  1  0  0  0  0
 61 74  1  0  0  0  0
 62 75  1  0  0  0  0
 63 86  1  0  0  0  0
 63 87  1  0  0  0  0
 63 88  1  0  0  0  0
 65 66  1  0  0  0  0
M  CHG  1  75   1
M  ISO  4  39 100  60 101  72 100  83 101
M  END
> <Batch ID>
0071

> <Smiles>
CNC(C)C(=O)NC(C(=O)N1Cc2cc([101O:1][101CH2:1]C3CCN(c4cc([100NH:0][100C:0](=O)N5CCCC(n6nc(-c7ccc(Oc8ccc(F)cc8F)cc7)c(C(N)=O)c6N)C5)cc(C(F)(F)F)c4)C3=O)ccc2CC1C(=O)NC1CCCc2ccccc21)C(C)(C)C

> <Shape>
0.258

> <Color>
0.081

> <Negative vol penalty>
0.000

$$$$

  -OEChem-04042323353D

 85 93  0     1  0  0  0  0  0999 V2000
  -19.0456  -24.3604   23.2842 C   0  0  0  0  0  0  0  0  0  0  0  0
  -20.3606  -24.4727   22.8443 C   0  0  0  0  0  0  0  0  0  0  0  0
  -23.9383   -9.3375   21.7562 C   0  0  0  0  0  0  0  0  0  0  0  0
  -24.1286  -11.0398   23.4601 C   0  0  0  0  0  0  0  0  0  0  0  0
  -18.2231  -25.4858   23.3141 C   0  0  0  0  0  0  0  0  0  0  0  0
  -20.8536  -25.7104   22.4328 C   0  0  0  0  0  0  0  0  0  0  0  0
  -25.4645  -26.6793   24.2891 C   0  0  0  0  0  0  0  0  0  0  0  0
  -23.4227   -8.4499   22.7006 C   0  0  0  0  0  0  0  0  0  0  0  0
  -23.6130  -10.1522   24.4045 C   0  0  0  0  0  0  0  0  0  0  0  0
  -26.5448  -26.0515   23.6705 C   0  0  0  0  0  0  0  0  0  0  0  0
  -20.4614   -7.8845   24.2315 C   0  0  0  0  0  0  0  0  0  0  0  0
  -19.3432   -7.1325   23.8715 C   0  0  0  0  0  0  0  0  0  0  0  0
  -28.1867  -20.2443   19.2400 C   0  0  0  0  0  0  0  0  0  0  0  0
  -27.0153  -28.0779   22.4491 C   0  0  0  0  0  0  0  0  0  0  0  0
  -30.4159  -18.5707   19.3525 C   0  0  0  0  0  0  0  0  0  0  0  0
  -20.5973   -5.0981   24.2259 C   0  0  0  0  0  0  0  0  0  0  0  0
  -24.2913  -10.6325   22.1360 C   0  0  0  0  0  0  0  0  0  0  0  0
  -29.4625  -20.7905   19.3801 C   0  0  0  0  0  0  0  0  0  0  0  0
  -24.1004  -12.4433   20.3493 C   0  0  0  0  0  0  0  0  0  0  0  0
  -18.7093  -26.7399   22.9119 C   0  0  0  0  0  0  0  0  0  0  0  0
  -25.1444  -28.0100   23.9837 C   0  0  0  0  0  0  0  0  0  0  0  0
  -20.0365  -26.8535   22.4560 C   0  0  0  0  0  0  0  0  0  0  0  0
  -25.9321  -28.7211   23.0671 C   0  0  0  0  0  0  0  0  0  0  0  0
  -29.1401  -18.0245   19.2125 C   0  0  0  0  0  0  0  0  0  0  0  0
  -23.2600   -8.8572   24.0247 C   0  0  0  0  0  0  0  0  0  0  0  0
  -27.3186  -26.7498   22.7482 C   0  0  0  0  0  0  0  0  0  0  0  0
  -21.6476   -7.2434   24.5886 C   0  0  0  0  0  0  0  0  0  0  0  0
  -19.4111   -5.7393   23.8688 C   0  0  0  0  0  0  0  0  0  0  0  0
  -28.0255  -18.8613   19.1562 C   0  0  0  0  0  0  0  0  0  0  0  0
  -30.5771  -19.9538   19.4363 C   0  0  0  0  0  0  0  0  0  0  0  0
  -21.7156   -5.8502   24.5858 C   0  0  0  0  0  0  0  0  0  0  0  0
  -24.8246  -11.5497   21.1610 C   0  0  0  0  0  0  0  0  0  0  0  0
  -25.0595  -13.0839   19.6034 C   0  0  0  0  0  0  0  0  0  0  0  0
  -29.6303  -22.2556   19.4687 C   0  0  0  0  0  0  0  0  0  0  0  0
  -22.6872  -12.6738   20.2762 C   0  0  0  0  0  0  0  0  0  0  0  0
  -22.6255  -29.4770   22.7162 C   0  0  0  0  0  0  0  0  0  0  0  0
  -24.2948  -32.1540   23.4706 C   0  0  0  0  0  0  0  0  0  0  0  0
  -29.0637  -24.3230   20.7239 C   0  0  0  0  0  0  0  0  0  0  0  0
  -27.3206  -33.5984   24.1074 C   0  0  0  0  0  0  0  0  0  0  0  0
  -29.9814  -15.6504   19.1668 C   0  0  0  0  0  0  0  0  0  0  0  0
  -17.7686  -27.9188   22.9170 C   0  0  0  0  0  0  0  0  0  0  0  0
  -23.9922  -28.6812   24.6796 C   0  0  0  0  0  0  0  0  0  0  0  0
  -25.6426  -30.1577   22.7197 C   0  0  0  0  0  0  0  0  0  0  0  0
  -18.4798  -29.2659   22.8186 C   0  0  0  0  0  0  0  0  0  0  0  0
  -29.9896  -12.0927   19.0258 C   0  0  0  0  0  0  0  0  0  0  0  0
  -19.5382  -29.2319   21.7207 C   0  0  0  0  0  0  0  0  0  0  0  0
  -28.5870  -11.7078   19.5020 C   0  0  0  0  0  0  0  0  0  0  0  0
  -30.5314  -13.3059   19.7797 C   0  0  0  0  0  0  0  0  0  0  0  0
  -28.2472  -14.0954   20.2577 C   0  0  0  0  0  0  0  0  0  0  0  0
  -20.6153  -28.1837   22.0251 C   0  0  1  0  0  0  0  0  0  0  0  0
  -23.4450  -29.8792   23.9096 C   0  0  1  0  0  0  0  0  0  0  0  0
  -27.6332  -12.9184   19.4823 C   0  0  2  0  0  0  0  0  0  0  0  0
  -28.3712  -35.8106   24.6549 C   0  0  0  0  0  0  0  0  0  0  0  0
  -23.9684  -33.0254   20.5647 C   0  0  0  0  0  0  0  0  0  0  0  0
  -25.7924  -34.7000   20.9349 C   0  0  0  0  0  0  0  0  0  0  0  0
  -23.6738  -34.8566   22.2423 C   0  0  0  0  0  0  0  0  0  0  0  0
  -28.3620  -32.5958   26.6899 C   0  0  0  0  0  0  0  0  0  0  0  0
  -28.2808  -24.7291   21.9440 C   0  0  0  0  0  0  0  0  0  1  0  0
  -25.3191  -33.0095   22.7650 C   0  0  1  0  0  0  0  0  0  0  0  0
  -27.7798  -34.5271   25.2169 C   0  0  2  0  0  0  0  0  0  0  0  0
  -24.6930  -33.8702   21.6316 C   0  0  0  0  0  0  0  0  0  0  0  0
  -26.1420  -11.6138   20.9505 N   0  0  0  0  0  0  0  0  0  0  0  0
  -26.2532  -12.5553   19.9981 N   0  0  0  0  0  0  0  0  0  0  0  0
  -24.5016  -30.7681   23.4219 N   0  0  0  0  0  0  0  0  0  0  0  0
  -29.5768  -14.4146   19.7145 N   0  0  0  0  0  0  0  0  0  0  0  0
  -24.9897  -14.0420   18.6550 N   0  0  0  0  0  0  0  0  0  0  0  0
  -21.8446  -11.9294   21.1130 N   0  0  0  0  0  0  0  0  0  0  0  0
  -28.9793  -16.6193   19.1274 N   0  0  0  0  0  0  0  0  0  0  0  0
  -29.0274  -22.9009   20.4768 N   0  0  0  0  0  0  0  0  0  0  0  0
  -21.5377  -28.6819   23.0229 N   0  0  0  0  0  0  0  0  0  0  0  0
  -25.9886  -33.7850   23.8037 N   0  0  0  0  0  0  0  0  0  0  0  0
  -30.3763  -22.8517   18.5390 N   0  3  0  0  0  0  0  0  0  0  0  0
  -28.8157  -33.8600   26.0552 N   0  3  0  0  0  0  0  0  0  0  0  0
  -22.1851  -13.5033   19.4803 O   0  0  0  0  0  0  0  0  0  0  0  0
  -22.9547  -29.8609   21.6000 O   0  0  0  0  0  0  0  0  0  0  0  0
  -23.3500  -32.6958   24.0498 O   0  0  0  0  0  0  0  0  0  0  0  0
  -29.6787  -25.0886   19.9956 O   0  0  0  0  0  0  0  0  0  0  0  0
  -28.0695  -32.7909   23.5619 O   0  0  0  0  0  0  0  0  0  0  0  0
  -31.1245  -15.8269   18.7377 O   0  0  0  0  0  0  0  0  0  0  0  0
  -22.7567   -7.9914   24.9464 O   0  0  0  0  0  0  0  0  0  0  0  0
  -28.3732  -26.1392   22.1425 O   0  0  0  0  0  0  0  0  0  1  0  0
  -18.3367   -5.0172   23.5246 F   0  0  0  0  0  0  0  0  0  0  0  0
  -26.7944  -18.3472   19.0220 F   0  0  0  0  0  0  0  0  0  0  0  0
  -31.8071  -20.4692   19.5710 F   0  0  0  0  0  0  0  0  0  0  0  0
  -22.8520   -5.2286   24.9291 F   0  0  0  0  0  0  0  0  0  0  0  0
  1  2  1  0  0  0  0
  1  5  2  0  0  0  0
  2  6  2  0  0  0  0
  3  8  2  0  0  0  0
  3 17  1  0  0  0  0
  4  9  1  0  0  0  0
  4 17  2  0  0  0  0
  5 20  1  0  0  0  0
  6 22  1  0  0  0  0
  7 10  2  0  0  0  0
  7 21  1  0  0  0  0
  8 25  1  0  0  0  0
  9 25  2  0  0  0  0
 10 26  1  0  0  0  0
 11 12  2  0  0  0  0
 11 27  1  0  0  0  0
 12 28  1  0  0  0  0
 13 18  1  0  0  0  0
 13 29  2  0  0  0  0
 14 23  1  0  0  0  0
 14 26  2  0  0  0  0
 15 24  2  0  0  0  0
 15 30  1  0  0  0  0
 16 28  2  0  0  0  0
 16 31  1  0  0  0  0
 17 32  1  0  0  0  0
 18 30  2  0  0  0  0
 18 34  1  0  0  0  0
 19 32  1  0  0  0  0
 19 33  2  0  0  0  0
 19 35  1  0  0  0  0
 20 22  2  0  0  0  0
 20 41  1  0  0  0  0
 21 23  2  0  0  0  0
 21 42  1  0  0  0  0
 22 50  1  0  0  0  0
 23 43  1  0  0  0  0
 24 29  1  0  0  0  0
 24 68  1  0  0  0  0
 25 80  1  0  0  0  0
 26 81  1  0  0  0  0
 27 31  2  0  0  0  0
 27 80  1  0  0  0  0
 28 82  1  0  0  0  0
 29 83  1  0  0  0  0
 30 84  1  0  0  0  0
 31 85  1  0  0  0  0
 32 62  2  0  0  0  0
 33 63  1  0  0  0  0
 33 66  1  0  0  0  0
 34 69  1  0  0  0  0
 34 72  2  0  0  0  0
 35 67  1  0  0  0  0
 35 74  2  0  0  0  0
 36 51  1  0  0  0  0
 36 70  1  0  0  0  0
 36 75  2  0  0  0  0
 37 59  1  0  0  0  0
 37 64  1  0  0  0  0
 37 76  2  0  0  0  0
 38 58  1  0  0  0  0
 38 69  1  0  0  0  0
 38 77  2  0  0  0  0
 39 60  1  0  0  0  0
 39 71  1  0  0  0  0
 39 78  2  0  0  0  0
 40 65  1  0  0  0  0
 40 68  1  0  0  0  0
 40 79  2  0  0  0  0
 41 44  1  0  0  0  0
 42 51  1  0  0  0  0
 43 64  1  0  0  0  0
 44 46  1  0  0  0  0
 45 47  1  0  0  0  0
 45 48  1  0  0  0  0
 46 50  1  0  0  0  0
 47 52  1  0  0  0  0
 48 65  1  0  0  0  0
 49 52  1  0  0  0  0
 49 65  1  0  0  0  0
 50 70  1  0  0  0  0
 51 64  1  0  0  0  0
 52 63  1  0  0  0  0
 53 60  1  0  0  0  0
 54 61  1  0  0  0  0
 55 61  1  0  0  0  0
 56 61  1  0  0  0  0
 57 73  1  0  0  0  0
 58 81  1  0  0  0  0
 59 61  1  0  0  0  0
 59 71  1  0  0  0  0
 60 73  1  0  0  0  0
 62 63  1  0  0  0  0
M  CHG  2  72   1  73   1
M  ISO  4  40 100  58 101  68 100  81 101
M  END
> <Batch ID>
0071

> <Smiles>
CNC(C)C(=O)NC(C(=O)N1Cc2cc([101O:1][101CH2:1]C(=O)NC(=N)c3cc(F)c([100NH:0][100C:0](=O)N4CCCC(n5nc(-c6ccc(Oc7ccc(F)cc7F)cc6)c(C(N)=O)c5N)C4)cc3F)ccc2CC1C(=O)NC1CCCc2ccccc21)C(C)(C)C

> <Shape>
0.321

> <Color>
0.113

> <Negative vol penalty>
0.000

$$$$

  -OEChem-04042323353D

 85 93  0     1  0  0  0  0  0999 V2000
  -23.7757  -30.2405   29.6961 C   0  0  0  0  0  0  0  0  0  0  0  0
  -24.7892  -30.0789   28.7569 C   0  0  0  0  0  0  0  0  0  0  0  0
  -26.5595  -12.4043   21.7458 C   0  0  0  0  0  0  0  0  0  0  0  0
  -25.8727  -13.7554   19.8644 C   0  0  0  0  0  0  0  0  0  0  0  0
  -22.4561  -29.9486   29.3534 C   0  0  0  0  0  0  0  0  0  0  0  0
  -24.4837  -29.6242   27.4746 C   0  0  0  0  0  0  0  0  0  0  0  0
  -27.2147  -31.2571   22.2419 C   0  0  0  0  0  0  0  0  0  0  0  0
  -25.3089  -11.7868   21.7589 C   0  0  0  0  0  0  0  0  0  0  0  0
  -24.6220  -13.1378   19.8774 C   0  0  0  0  0  0  0  0  0  0  0  0
  -28.2076  -30.6512   21.4732 C   0  0  0  0  0  0  0  0  0  0  0  0
  -23.7095   -9.3629   20.0270 C   0  0  0  0  0  0  0  0  0  0  0  0
  -23.6732   -7.9752   20.1632 C   0  0  0  0  0  0  0  0  0  0  0  0
  -26.5112  -29.6669   20.0687 C   0  0  0  0  0  0  0  0  0  0  0  0
  -28.2072  -21.5096   19.1064 C   0  0  0  0  0  0  0  0  0  0  0  0
  -28.6860  -22.7125   21.1461 C   0  0  0  0  0  0  0  0  0  0  0  0
  -22.3849   -8.2083   22.1938 C   0  0  0  0  0  0  0  0  0  0  0  0
  -27.5449  -23.8224   19.3287 C   0  0  0  0  0  0  0  0  0  0  0  0
  -26.8414  -13.3887   20.7986 C   0  0  0  0  0  0  0  0  0  0  0  0
  -29.2763  -13.6179   20.0732 C   0  0  0  0  0  0  0  0  0  0  0  0
  -22.1331  -29.4993   28.0632 C   0  0  0  0  0  0  0  0  0  0  0  0
  -25.8600  -31.0633   21.9358 C   0  0  0  0  0  0  0  0  0  0  0  0
  -23.1588  -29.3247   27.1146 C   0  0  0  0  0  0  0  0  0  0  0  0
  -25.5031  -30.2735   20.8335 C   0  0  0  0  0  0  0  0  0  0  0  0
  -28.7472  -21.5406   20.3921 C   0  0  0  0  0  0  0  0  0  0  0  0
  -24.3402  -12.1534   20.8247 C   0  0  0  0  0  0  0  0  0  0  0  0
  -27.8558  -29.8536   20.3882 C   0  0  0  0  0  0  0  0  0  0  0  0
  -23.0836  -10.1733   20.9742 C   0  0  0  0  0  0  0  0  0  0  0  0
  -23.0109   -7.3979   21.2466 C   0  0  0  0  0  0  0  0  0  0  0  0
  -27.6061  -22.6505   18.5746 C   0  0  0  0  0  0  0  0  0  0  0  0
  -22.4213   -9.5960   22.0575 C   0  0  0  0  0  0  0  0  0  0  0  0
  -28.0849  -23.8534   20.6144 C   0  0  0  0  0  0  0  0  0  0  0  0
  -28.1329  -14.0274   20.7849 C   0  0  0  0  0  0  0  0  0  0  0  0
  -30.2323  -14.5508   20.3930 C   0  0  0  0  0  0  0  0  0  0  0  0
  -29.4581  -12.4946   19.2008 C   0  0  0  0  0  0  0  0  0  0  0  0
  -23.3777  -29.7851   23.4550 C   0  0  0  0  0  0  0  0  0  0  0  0
  -21.7312  -30.9042   20.8939 C   0  0  0  0  0  0  0  0  0  0  0  0
  -21.7717  -31.8736   17.6219 C   0  0  0  0  0  0  0  0  0  0  0  0
  -29.9420  -20.2421   22.1901 C   0  0  0  0  0  0  0  0  0  0  0  0
  -20.6986  -29.1515   27.7537 C   0  0  0  0  0  0  0  0  0  0  0  0
  -24.8018  -31.7455   22.7586 C   0  0  0  0  0  0  0  0  0  0  0  0
  -24.0636  -30.0503   20.4507 C   0  0  0  0  0  0  0  0  0  0  0  0
  -20.4096  -29.0320   26.2595 C   0  0  0  0  0  0  0  0  0  0  0  0
  -31.5154  -17.5460   23.9025 C   0  0  0  0  0  0  0  0  0  0  0  0
  -21.4862  -28.1977   25.5726 C   0  0  0  0  0  0  0  0  0  0  0  0
  -30.9352  -16.3005   23.2285 C   0  0  0  0  0  0  0  0  0  0  0  0
  -30.4762  -18.6586   24.0291 C   0  0  0  0  0  0  0  0  0  0  0  0
  -29.2187  -17.7754   22.1034 C   0  0  0  0  0  0  0  0  0  0  0  0
  -22.8641  -28.8573   25.7058 C   0  0  1  0  0  0  0  0  0  0  0  0
  -23.4407  -31.0626   22.6665 C   0  0  1  0  0  0  0  0  0  0  0  0
  -30.2461  -16.6507   21.8950 C   0  0  2  0  0  0  0  0  0  0  0  0
  -20.2649  -32.7016   15.7940 C   0  0  0  0  0  0  0  0  0  0  0  0
  -20.6296  -28.0825   20.5270 C   0  0  0  0  0  0  0  0  0  0  0  0
  -19.9292  -28.7319   18.2127 C   0  0  0  0  0  0  0  0  0  0  0  0
  -18.9555  -29.9087   20.1850 C   0  0  0  0  0  0  0  0  0  0  0  0
  -23.2796  -34.4075   17.3681 C   0  0  0  0  0  0  0  0  0  0  0  0
  -30.6269  -27.6781   19.6350 C   0  0  0  0  0  0  0  0  0  0  0  0
  -29.7048  -26.4698   19.7208 C   0  0  0  0  0  0  0  0  0  0  0  0
  -30.0410  -28.9195   20.2972 C   0  0  0  0  0  0  0  0  0  1  0  0
  -21.3589  -30.3534   19.5385 C   0  0  1  0  0  0  0  0  0  0  0  0
  -21.2003  -33.0960   16.9264 C   0  0  2  0  0  0  0  0  0  0  0  0
  -20.2455  -29.2716   19.6239 C   0  0  0  0  0  0  0  0  0  0  0  0
  -28.3414  -15.1342   21.5029 N   0  0  0  0  0  0  0  0  0  0  0  0
  -29.6270  -15.4281   21.2440 N   0  0  0  0  0  0  0  0  0  0  0  0
  -23.0654  -30.7337   21.2898 N   0  0  0  0  0  0  0  0  0  0  0  0
  -29.8687  -18.9391   22.7264 N   0  0  0  0  0  0  0  0  0  0  0  0
  -31.5232  -14.6980   20.0266 N   0  0  0  0  0  0  0  0  0  0  0  0
  -28.3721  -11.6362   18.9818 N   0  0  0  0  0  0  0  0  0  0  0  0
  -29.3578  -20.3814   20.9315 N   0  0  0  0  0  0  0  0  0  0  0  0
  -22.9916  -29.9547   24.7709 N   0  0  0  0  0  0  0  0  0  0  0  0
  -21.0118  -31.5041   18.7116 N   0  0  0  0  0  0  0  0  0  0  0  0
  -29.4545  -26.1127   21.1340 N   0  0  0  0  0  0  0  0  0  0  0  0
  -22.2979  -33.9302   16.3605 N   0  3  0  0  0  0  0  0  0  0  0  0
  -30.5558  -12.2500   18.6453 O   0  0  0  0  0  0  0  0  0  0  0  0
  -23.6571  -28.7240   22.9094 O   0  0  0  0  0  0  0  0  0  0  0  0
  -20.8718  -31.4713   21.5731 O   0  0  0  0  0  0  0  0  0  0  0  0
  -22.7882  -31.3013   17.2350 O   0  0  0  0  0  0  0  0  0  0  0  0
  -30.5070  -21.1601   22.7902 O   0  0  0  0  0  0  0  0  0  0  0  0
  -26.8800  -26.1186   21.0911 O   0  0  0  0  0  0  0  0  0  0  0  0
  -28.0817  -24.9484   22.9648 O   0  0  0  0  0  0  0  0  0  0  0  0
  -23.1198  -11.5508   20.8370 O   0  0  0  0  0  0  0  0  0  0  0  0
  -28.8229  -29.2605   19.6366 O   0  0  0  0  0  0  0  0  0  1  0  0
  -22.9748   -6.0652   21.3765 F   0  0  0  0  0  0  0  0  0  0  0  0
  -27.0871  -22.6196   17.3402 F   0  0  0  0  0  0  0  0  0  0  0  0
  -21.8171  -10.3694   22.9700 F   0  0  0  0  0  0  0  0  0  0  0  0
  -28.0051  -25.3385   21.5700 S   0  0  0  0  0  0  0  0  0  0  0  0
  1  2  1  0  0  0  0
  1  5  2  0  0  0  0
  2  6  2  0  0  0  0
  3  8  2  0  0  0  0
  3 18  1  0  0  0  0
  4  9  1  0  0  0  0
  4 18  2  0  0  0  0
  5 20  1  0  0  0  0
  6 22  1  0  0  0  0
  7 10  2  0  0  0  0
  7 21  1  0  0  0  0
  8 25  1  0  0  0  0
  9 25  2  0  0  0  0
 10 26  1  0  0  0  0
 11 12  2  0  0  0  0
 11 27  1  0  0  0  0
 12 28  1  0  0  0  0
 13 23  1  0  0  0  0
 13 26  2  0  0  0  0
 14 24  2  0  0  0  0
 14 29  1  0  0  0  0
 15 24  1  0  0  0  0
 15 31  2  0  0  0  0
 16 28  2  0  0  0  0
 16 30  1  0  0  0  0
 17 29  2  0  0  0  0
 17 31  1  0  0  0  0
 18 32  1  0  0  0  0
 19 32  1  0  0  0  0
 19 33  2  0  0  0  0
 19 34  1  0  0  0  0
 20 22  2  0  0  0  0
 20 39  1  0  0  0  0
 21 23  2  0  0  0  0
 21 40  1  0  0  0  0
 22 48  1  0  0  0  0
 23 41  1  0  0  0  0
 24 68  1  0  0  0  0
 25 80  1  0  0  0  0
 26 81  1  0  0  0  0
 27 30  2  0  0  0  0
 27 80  1  0  0  0  0
 28 82  1  0  0  0  0
 29 83  1  0  0  0  0
 30 84  1  0  0  0  0
 31 85  1  0  0  0  0
 32 62  2  0  0  0  0
 33 63  1  0  0  0  0
 33 66  1  0  0  0  0
 34 67  1  0  0  0  0
 34 73  2  0  0  0  0
 35 49  1  0  0  0  0
 35 69  1  0  0  0  0
 35 74  2  0  0  0  0
 36 59  1  0  0  0  0
 36 64  1  0  0  0  0
 36 75  2  0  0  0  0
 37 60  1  0  0  0  0
 37 70  1  0  0  0  0
 37 76  2  0  0  0  0
 38 65  1  0  0  0  0
 38 68  1  0  0  0  0
 38 77  2  0  0  0  0
 39 42  1  0  0  0  0
 40 49  1  0  0  0  0
 41 64  1  0  0  0  0
 42 44  1  0  0  0  0
 43 45  1  0  0  0  0
 43 46  1  0  0  0  0
 44 48  1  0  0  0  0
 45 50  1  0  0  0  0
 46 65  1  0  0  0  0
 47 50  1  0  0  0  0
 47 65  1  0  0  0  0
 48 69  1  0  0  0  0
 49 64  1  0  0  0  0
 50 63  1  0  0  0  0
 51 60  1  0  0  0  0
 52 61  1  0  0  0  0
 53 61  1  0  0  0  0
 54 61  1  0  0  0  0
 55 72  1  0  0  0  0
 56 57  1  0  0  0  0
 56 58  1  0  0  0  0
 57 71  1  0  0  0  0
 58 81  1  0  0  0  0
 59 61  1  0  0  0  0
 59 70  1  0  0  0  0
 60 72  1  0  0  0  0
 62 63  1  0  0  0  0
 71 85  1  0  0  0  0
 78 85  2  0  0  0  0
 79 85  2  0  0  0  0
M  CHG  1  72   1
M  ISO  4  38 100  58 101  68 100  81 101
M  END
> <Batch ID>
0071

> <Smiles>
CNC(C)C(=O)NC(C(=O)N1Cc2cc([101O:1][101CH2:1]CCNS(=O)(=O)c3cc(F)cc([100NH:0][100C:0](=O)N4CCCC(n5nc(-c6ccc(Oc7ccc(F)cc7F)cc6)c(C(N)=O)c5N)C4)c3)ccc2CC1C(=O)NC1CCCc2ccccc21)C(C)(C)C

> <Shape>
0.267

> <Color>
0.072

> <Negative vol penalty>
0.000

$$$$

  -OEChem-04042323353D

 82 89  0     1  0  0  0  0  0999 V2000
  -29.7091  -24.2068   14.4152 C   0  0  0  0  0  0  0  0  0  0  0  0
  -28.4928  -24.1327   15.0866 C   0  0  0  0  0  0  0  0  0  0  0  0
  -29.3117  -18.7766   21.0833 C   0  0  0  0  0  0  0  0  0  0  0  0
  -27.2442  -17.5399   21.2658 C   0  0  0  0  0  0  0  0  0  0  0  0
  -30.8579  -24.6039   15.0982 C   0  0  0  0  0  0  0  0  0  0  0  0
  -28.4249  -24.4546   16.4416 C   0  0  0  0  0  0  0  0  0  0  0  0
  -23.7674  -27.1631   19.3533 C   0  0  0  0  0  0  0  0  0  0  0  0
  -30.0242  -17.5784   21.0353 C   0  0  0  0  0  0  0  0  0  0  0  0
  -27.9567  -16.3417   21.2176 C   0  0  0  0  0  0  0  0  0  0  0  0
  -22.7245  -26.6575   20.1281 C   0  0  0  0  0  0  0  0  0  0  0  0
  -29.4245  -14.4113   18.8640 C   0  0  0  0  0  0  0  0  0  0  0  0
  -28.9353  -13.4010   18.0360 C   0  0  0  0  0  0  0  0  0  0  0  0
  -23.9981  -27.1091   22.1264 C   0  0  0  0  0  0  0  0  0  0  0  0
  -28.7098  -11.9426   19.9489 C   0  0  0  0  0  0  0  0  0  0  0  0
  -27.9217  -18.7574   21.1987 C   0  0  0  0  0  0  0  0  0  0  0  0
  -26.6581  -20.7151   20.1604 C   0  0  0  0  0  0  0  0  0  0  0  0
  -30.8022  -24.9402   16.4600 C   0  0  0  0  0  0  0  0  0  0  0  0
  -24.9400  -27.6362   19.9596 C   0  0  0  0  0  0  0  0  0  0  0  0
  -29.5744  -24.8553   17.1438 C   0  0  0  0  0  0  0  0  0  0  0  0
  -25.0535  -27.6225   21.3571 C   0  0  0  0  0  0  0  0  0  0  0  0
  -29.3467  -16.3610   21.1024 C   0  0  0  0  0  0  0  0  0  0  0  0
  -22.8408  -26.6278   21.5147 C   0  0  0  0  0  0  0  0  0  0  0  0
  -29.5565  -14.1873   20.2344 C   0  0  0  0  0  0  0  0  0  0  0  0
  -28.5779  -12.1667   18.5785 C   0  0  0  0  0  0  0  0  0  0  0  0
  -29.1991  -12.9529   20.7769 C   0  0  0  0  0  0  0  0  0  0  0  0
  -27.1852  -19.9948   21.2490 C   0  0  0  0  0  0  0  0  0  0  0  0
  -26.0538  -21.8080   20.7322 C   0  0  0  0  0  0  0  0  0  0  0  0
  -21.3050  -24.3073   23.6910 C   0  0  0  0  0  0  0  0  0  0  0  0
  -21.8308  -24.7997   22.5675 C   0  0  0  0  0  0  0  0  0  1  0  0
  -26.7099  -20.4225   18.7578 C   0  0  0  0  0  0  0  0  0  0  0  0
  -21.4414  -21.9776   26.0908 C   0  0  0  0  0  0  0  0  0  0  0  0
  -20.8574  -21.6315   27.4338 C   0  0  0  0  0  0  0  0  0  0  0  0
  -21.3454  -22.8458   23.9518 C   0  0  0  0  0  0  0  0  0  0  0  0
  -28.0076  -26.8091   19.8605 C   0  0  0  0  0  0  0  0  0  0  0  0
  -23.8262  -22.7400   26.2351 C   0  0  0  0  0  0  0  0  0  0  0  0
  -28.3833  -29.4788   21.6643 C   0  0  0  0  0  0  0  0  0  0  0  0
  -27.0046  -31.7360   23.8209 C   0  0  0  0  0  0  0  0  0  0  0  0
  -32.0795  -25.3184   17.1671 C   0  0  0  0  0  0  0  0  0  0  0  0
  -26.0451  -28.2031   19.1112 C   0  0  0  0  0  0  0  0  0  0  0  0
  -26.2832  -28.1373   22.0580 C   0  0  0  0  0  0  0  0  0  0  0  0
  -31.8513  -26.0033   18.5121 C   0  0  0  0  0  0  0  0  0  0  0  0
  -26.3200  -24.6776   24.5418 C   0  0  0  0  0  0  0  0  0  0  0  0
  -30.8093  -25.2444   19.3276 C   0  0  0  0  0  0  0  0  0  0  0  0
  -26.7968  -23.7510   23.4241 C   0  0  0  0  0  0  0  0  0  0  0  0
  -25.9693  -23.8956   25.8038 C   0  0  0  0  0  0  0  0  0  0  0  0
  -25.4425  -21.8803   24.4687 C   0  0  0  0  0  0  0  0  0  0  0  0
  -29.4556  -25.2204   18.6076 C   0  0  1  0  0  0  0  0  0  0  0  0
  -27.4026  -28.1835   19.8070 C   0  0  1  0  0  0  0  0  0  0  0  0
  -25.7779  -22.6270   23.1655 C   0  0  2  0  0  0  0  0  0  0  0  0
  -20.3299  -22.2504   29.8051 C   0  0  0  0  0  0  0  0  0  0  0  0
  -23.2496  -20.3749   26.6906 C   0  0  0  0  0  0  0  0  0  0  0  0
  -27.5693  -33.7859   25.1538 C   0  0  0  0  0  0  0  0  0  0  0  0
  -29.8678  -27.7484   23.6921 C   0  0  0  0  0  0  0  0  0  0  0  0
  -29.5660  -29.5802   25.3718 C   0  0  0  0  0  0  0  0  0  0  0  0
  -30.8860  -29.9981   23.2968 C   0  0  0  0  0  0  0  0  0  0  0  0
  -24.9959  -33.3659   22.3830 C   0  0  0  0  0  0  0  0  0  0  0  0
  -20.9753  -22.6890   28.5033 C   0  0  0  0  0  0  0  0  0  0  0  0
  -22.8937  -21.6109   25.8752 C   0  0  1  0  0  0  0  0  0  0  0  0
  -28.3719  -29.7800   23.1435 C   0  0  1  0  0  0  0  0  0  0  0  0
  -27.0230  -33.2539   23.8380 C   0  0  2  0  0  0  0  0  0  0  0  0
  -29.6504  -29.2651   23.8631 C   0  0  0  0  0  0  0  0  0  0  0  0
  -26.9377  -20.5807   22.4234 N   0  0  0  0  0  0  0  0  0  0  0  0
  -20.7529  -22.5565   25.1564 N   0  0  0  0  0  0  0  0  0  0  0  0
  -26.2485  -21.6809   22.0761 N   0  0  0  0  0  0  0  0  0  0  0  0
  -27.3389  -28.6759   21.1845 N   0  0  0  0  0  0  0  0  0  0  0  0
  -25.0165  -22.8231   25.5123 N   0  0  0  0  0  0  0  0  0  0  0  0
  -25.3803  -22.8557   20.2115 N   0  0  0  0  0  0  0  0  0  0  0  0
  -27.3704  -19.2584   18.3421 N   0  0  0  0  0  0  0  0  0  0  0  0
  -28.7797  -26.4910   18.7596 N   0  0  0  0  0  0  0  0  0  0  0  0
  -28.1554  -31.2176   23.2658 N   0  0  0  0  0  0  0  0  0  0  0  0
  -25.6456  -33.7907   23.6497 N   0  3  0  0  0  0  0  0  0  0  0  0
  -26.2001  -21.1797   17.8973 O   0  0  0  0  0  0  0  0  0  0  0  0
  -20.3511  -20.5272   27.5618 O   0  0  0  0  0  0  0  0  0  0  0  0
  -21.8149  -22.0404   23.1563 O   0  0  0  0  0  0  0  0  0  0  0  0
  -27.7911  -26.0910   20.8296 O   0  0  0  0  0  0  0  0  0  0  0  0
  -23.5034  -23.5254   27.1301 O   0  0  0  0  0  0  0  0  0  0  0  0
  -29.2818  -29.9449   20.9592 O   0  0  0  0  0  0  0  0  0  0  0  0
  -26.0651  -31.0763   24.2597 O   0  0  0  0  0  0  0  0  0  0  0  0
  -30.0416  -15.1916   21.0552 O   0  0  0  0  0  0  0  0  0  0  0  0
  -21.8246  -26.1343   22.2733 O   0  0  0  0  0  0  0  0  0  1  0  0
  -28.1067  -11.1971   17.7835 F   0  0  0  0  0  0  0  0  0  0  0  0
  -29.3225  -12.7322   22.0929 F   0  0  0  0  0  0  0  0  0  0  0  0
  1  2  1  0  0  0  0
  1  5  2  0  0  0  0
  2  6  2  0  0  0  0
  3  8  2  0  0  0  0
  3 15  1  0  0  0  0
  4  9  1  0  0  0  0
  4 15  2  0  0  0  0
  5 17  1  0  0  0  0
  6 19  1  0  0  0  0
  7 10  2  0  0  0  0
  7 18  1  0  0  0  0
  8 21  1  0  0  0  0
  9 21  2  0  0  0  0
 10 22  1  0  0  0  0
 11 12  2  0  0  0  0
 11 23  1  0  0  0  0
 12 24  1  0  0  0  0
 13 20  1  0  0  0  0
 13 22  2  0  0  0  0
 14 24  2  0  0  0  0
 14 25  1  0  0  0  0
 15 26  1  0  0  0  0
 16 26  1  0  0  0  0
 16 27  2  0  0  0  0
 16 30  1  0  0  0  0
 17 19  2  0  0  0  0
 17 38  1  0  0  0  0
 18 20  2  0  0  0  0
 18 39  1  0  0  0  0
 19 47  1  0  0  0  0
 20 40  1  0  0  0  0
 21 79  1  0  0  0  0
 22 80  1  0  0  0  0
 23 25  2  0  0  0  0
 23 79  1  0  0  0  0
 24 81  1  0  0  0  0
 25 82  1  0  0  0  0
 26 62  2  0  0  0  0
 27 64  1  0  0  0  0
 27 67  1  0  0  0  0
 28 29  2  0  0  0  0
 28 33  1  0  0  0  0
 29 80  1  0  0  0  0
 30 68  1  0  0  0  0
 30 72  2  0  0  0  0
 31 32  1  0  0  0  0
 31 58  1  0  0  0  0
 31 63  2  0  0  0  0
 32 57  1  0  0  0  0
 32 73  2  0  0  0  0
 33 63  1  0  0  0  0
 33 74  2  0  0  0  0
 34 48  1  0  0  0  0
 34 69  1  0  0  0  0
 34 75  2  0  0  0  0
 35 58  1  0  0  0  0
 35 66  1  0  0  0  0
 35 76  2  0  0  0  0
 36 59  1  0  0  0  0
 36 65  1  0  0  0  0
 36 77  2  0  0  0  0
 37 60  1  0  0  0  0
 37 70  1  0  0  0  0
 37 78  2  0  0  0  0
 38 41  1  0  0  0  0
 39 48  1  0  0  0  0
 40 65  1  0  0  0  0
 41 43  1  0  0  0  0
 42 44  1  0  0  0  0
 42 45  1  0  0  0  0
 43 47  1  0  0  0  0
 44 49  1  0  0  0  0
 45 66  1  0  0  0  0
 46 49  1  0  0  0  0
 46 66  1  0  0  0  0
 47 69  1  0  0  0  0
 48 65  1  0  0  0  0
 49 64  1  0  0  0  0
 50 57  1  0  0  0  0
 51 58  1  0  0  0  0
 52 60  1  0  0  0  0
 53 61  1  0  0  0  0
 54 61  1  0  0  0  0
 55 61  1  0  0  0  0
 56 71  1  0  0  0  0
 59 61  1  0  0  0  0
 59 70  1  0  0  0  0
 60 71  1  0  0  0  0
 62 64  1  0  0  0  0
M  CHG  1  71   1
M  ISO  4  29 101  35 100  58 100  80 101
M  END
> <Batch ID>
0071

> <Smiles>
C=CC(=O)C(NC(=O)C=[101CH:1][101O:1]c1ccc2c(c1)CN(C(=O)C(NC(=O)C(C)NC)C(C)(C)C)C(C(=O)NC1CCCc3ccccc31)C2)[100CH:0](C)[100C:0](=O)N1CCCC(n2nc(-c3ccc(Oc4ccc(F)cc4F)cc3)c(C(N)=O)c2N)C1

> <Shape>
0.196

> <Color>
0.046

> <Negative vol penalty>
0.000

$$$$

  -OEChem-04042323353D

 90 99  0     1  0  0  0  0  0999 V2000
  -18.1156  -26.4003   25.3513 C   0  0  0  0  0  0  0  0  0  0  0  0
  -19.4622  -26.4832   25.0122 C   0  0  0  0  0  0  0  0  0  0  0  0
  -24.6088   -8.6919   21.1142 C   0  0  0  0  0  0  0  0  0  0  0  0
  -22.8383  -10.3000   20.7733 C   0  0  0  0  0  0  0  0  0  0  0  0
  -28.4600  -21.7195   20.4420 C   0  0  0  0  0  0  0  0  0  0  0  0
  -26.5176  -21.9570   21.8588 C   0  0  0  0  0  0  0  0  0  0  0  0
  -17.2009  -27.2920   24.7926 C   0  0  0  0  0  0  0  0  0  0  0  0
  -19.8949  -27.4573   24.1131 C   0  0  0  0  0  0  0  0  0  0  0  0
  -24.1172  -29.7881   25.6573 C   0  0  0  0  0  0  0  0  0  0  0  0
  -28.8299  -23.0334   20.7287 C   0  0  0  0  0  0  0  0  0  0  0  0
  -26.8875  -23.2710   22.1457 C   0  0  0  0  0  0  0  0  0  0  0  0
  -23.6601   -7.6993   21.3597 C   0  0  0  0  0  0  0  0  0  0  0  0
  -21.8895   -9.3074   21.0188 C   0  0  0  0  0  0  0  0  0  0  0  0
  -25.3206  -29.1053   25.4855 C   0  0  0  0  0  0  0  0  0  0  0  0
  -21.6764   -6.7286   23.9185 C   0  0  0  0  0  0  0  0  0  0  0  0
  -21.8904   -5.8837   25.0074 C   0  0  0  0  0  0  0  0  0  0  0  0
  -25.7689  -30.4063   23.5042 C   0  0  0  0  0  0  0  0  0  0  0  0
  -21.9241   -3.9783   23.5223 C   0  0  0  0  0  0  0  0  0  0  0  0
  -24.1979   -9.9922   20.8210 C   0  0  0  0  0  0  0  0  0  0  0  0
  -27.3038  -21.1813   21.0070 C   0  0  0  0  0  0  0  0  0  0  0  0
  -25.7371  -11.3711   19.3253 C   0  0  0  0  0  0  0  0  0  0  0  0
  -17.6241  -28.2837   23.8936 C   0  0  0  0  0  0  0  0  0  0  0  0
  -23.7248  -30.7792   24.7462 C   0  0  0  0  0  0  0  0  0  0  0  0
  -18.9849  -28.3623   23.5408 C   0  0  0  0  0  0  0  0  0  0  0  0
  -24.5613  -31.1020   23.6681 C   0  0  0  0  0  0  0  0  0  0  0  0
  -28.0437  -23.8092   21.5806 C   0  0  0  0  0  0  0  0  0  0  0  0
  -22.3004   -8.0070   21.3120 C   0  0  0  0  0  0  0  0  0  0  0  0
  -26.1453  -29.4124   24.4073 C   0  0  0  0  0  0  0  0  0  0  0  0
  -21.5861   -6.1984   22.6314 C   0  0  0  0  0  0  0  0  0  0  0  0
  -22.0143   -4.5085   24.8094 C   0  0  0  0  0  0  0  0  0  0  0  0
  -21.7100   -4.8233   22.4334 C   0  0  0  0  0  0  0  0  0  0  0  0
  -25.1775  -11.0181   20.5679 C   0  0  0  0  0  0  0  0  0  0  0  0
  -26.6073  -12.3926   19.6184 C   0  0  0  0  0  0  0  0  0  0  0  0
  -27.7380  -26.0587   22.7098 C   0  0  0  0  0  0  0  0  0  0  0  0
  -29.4896  -17.9421   18.5092 C   0  0  0  0  0  0  0  0  0  0  0  0
  -26.9180  -19.8114   20.7079 C   0  0  0  0  0  0  0  0  0  0  0  0
  -25.4922  -10.8246   18.0226 C   0  0  0  0  0  0  0  0  0  0  0  0
  -21.2766  -31.1517   22.7534 C   0  0  0  0  0  0  0  0  0  0  0  0
  -22.5905  -34.0837   22.3067 C   0  0  0  0  0  0  0  0  0  0  0  0
  -25.3671  -36.0639   22.4321 C   0  0  0  0  0  0  0  0  0  0  0  0
  -27.8111  -17.1469   22.2816 C   0  0  0  0  0  0  0  0  0  0  0  0
  -16.5913  -29.1950   23.2792 C   0  0  0  0  0  0  0  0  0  0  0  0
  -22.4364  -31.5251   24.9605 C   0  0  0  0  0  0  0  0  0  0  0  0
  -24.1954  -32.1718   22.6731 C   0  0  0  0  0  0  0  0  0  0  0  0
  -17.1884  -30.4370   22.6225 C   0  0  0  0  0  0  0  0  0  0  0  0
  -28.2939  -14.1057   24.0689 C   0  0  0  0  0  0  0  0  0  0  0  0
  -18.3815  -30.0586   21.7507 C   0  0  0  0  0  0  0  0  0  0  0  0
  -27.5673  -13.0623   23.2184 C   0  0  0  0  0  0  0  0  0  0  0  0
  -29.4580  -27.2303   21.5552 C   0  0  0  0  0  0  0  0  0  0  0  0
  -27.5619  -15.4459   24.0651 C   0  0  0  0  0  0  0  0  0  0  0  0
  -29.6454  -25.7397   21.3557 C   0  0  0  0  0  0  0  0  0  0  0  0
  -26.5485  -14.9477   21.8746 C   0  0  0  0  0  0  0  0  0  0  0  0
  -19.4967  -29.4210   22.5882 C   0  0  1  0  0  0  0  0  0  0  0  0
  -28.5997  -27.3071   22.8095 C   0  0  1  0  0  0  0  0  0  0  0  0
  -21.8929  -32.1582   23.6834 C   0  0  1  0  0  0  0  0  0  0  0  0
  -27.2786  -13.5956   21.8023 C   0  0  2  0  0  0  0  0  0  0  0  0
  -26.1382  -38.4070   21.9706 C   0  0  0  0  0  0  0  0  0  0  0  0
  -22.5758  -33.4962   19.3126 C   0  0  0  0  0  0  0  0  0  0  0  0
  -24.1810  -35.3925   19.0034 C   0  0  0  0  0  0  0  0  0  0  0  0
  -21.9027  -35.8265   19.9218 C   0  0  0  0  0  0  0  0  0  0  0  0
  -26.1420  -36.4890   25.2566 C   0  0  0  0  0  0  0  0  0  0  0  0
  -28.1973  -18.6317   18.8843 C   0  0  0  0  0  0  0  0  0  0  0  0
  -27.7863  -28.5847   22.8980 C   0  0  0  0  0  0  0  0  0  1  0  0
  -27.9886  -18.7462   20.3922 C   0  0  2  0  0  0  0  0  0  0  0  0
  -23.6201  -34.6618   21.3661 C   0  0  1  0  0  0  0  0  0  0  0  0
  -25.5926  -37.4468   23.0162 C   0  0  2  0  0  0  0  0  0  0  0  0
  -23.0762  -34.8227   19.9184 C   0  0  0  0  0  0  0  0  0  0  0  0
  -25.6524  -11.7553   21.5754 N   0  0  0  0  0  0  0  0  0  0  0  0
  -26.5197  -12.5817   20.9663 N   0  0  0  0  0  0  0  0  0  0  0  0
  -28.4232  -25.1534   21.8735 N   0  0  0  0  0  0  0  0  0  0  0  0
  -22.9226  -32.8685   22.9222 N   0  0  0  0  0  0  0  0  0  0  0  0
  -27.3202  -15.8966   22.6924 N   0  0  0  0  0  0  0  0  0  0  0  0
  -27.4313  -13.1384   18.8521 N   0  0  0  0  0  0  0  0  0  0  0  0
  -24.5671   -9.7789   17.8999 N   0  0  0  0  0  0  0  0  0  0  0  0
  -20.2318  -30.4382   23.3090 N   0  0  0  0  0  0  0  0  0  0  0  0
  -24.0758  -35.9068   21.9750 N   0  0  0  0  0  0  0  0  0  0  0  0
  -27.5435  -17.4946   20.9632 N   0  0  0  0  0  0  0  0  0  0  0  0
  -26.5631  -37.3804   24.1452 N   0  3  0  0  0  0  0  0  0  0  0  0
  -26.6898  -25.9181   23.3230 O   0  0  0  0  0  0  0  0  0  0  0  0
  -30.2832  -17.4557   19.3074 O   0  0  0  0  0  0  0  0  0  0  0  0
  -25.7128  -19.4868   20.6826 O   0  0  0  0  0  0  0  0  0  0  0  0
  -26.0886  -11.2399   17.0002 O   0  0  0  0  0  0  0  0  0  0  0  0
  -21.7156  -31.0324   21.6155 O   0  0  0  0  0  0  0  0  0  0  0  0
  -21.5336  -34.6916   22.4941 O   0  0  0  0  0  0  0  0  0  0  0  0
  -26.2495  -35.2098   22.3826 O   0  0  0  0  0  0  0  0  0  0  0  0
  -28.4457  -17.8954   23.0325 O   0  0  0  0  0  0  0  0  0  0  0  0
  -21.3743   -7.0387   21.5512 O   0  0  0  0  0  0  0  0  0  0  0  0
  -27.3201  -28.7470   24.2369 O   0  0  0  0  0  0  0  0  0  1  0  0
  -22.2214   -3.6974   25.8550 F   0  0  0  0  0  0  0  0  0  0  0  0
  -21.6254   -4.3082   21.1991 F   0  0  0  0  0  0  0  0  0  0  0  0
  1  2  1  0  0  0  0
  1  7  2  0  0  0  0
  2  8  2  0  0  0  0
  3 12  2  0  0  0  0
  3 19  1  0  0  0  0
  4 13  1  0  0  0  0
  4 19  2  0  0  0  0
  5 10  2  0  0  0  0
  5 20  1  0  0  0  0
  6 11  1  0  0  0  0
  6 20  2  0  0  0  0
  7 22  1  0  0  0  0
  8 24  1  0  0  0  0
  9 14  2  0  0  0  0
  9 23  1  0  0  0  0
 10 26  1  0  0  0  0
 11 26  2  0  0  0  0
 12 27  1  0  0  0  0
 13 27  2  0  0  0  0
 14 28  1  0  0  0  0
 15 16  2  0  0  0  0
 15 29  1  0  0  0  0
 16 30  1  0  0  0  0
 17 25  1  0  0  0  0
 17 28  2  0  0  0  0
 18 30  2  0  0  0  0
 18 31  1  0  0  0  0
 19 32  1  0  0  0  0
 20 36  1  0  0  0  0
 21 32  1  0  0  0  0
 21 33  2  0  0  0  0
 21 37  1  0  0  0  0
 22 24  2  0  0  0  0
 22 42  1  0  0  0  0
 23 25  2  0  0  0  0
 23 43  1  0  0  0  0
 24 53  1  0  0  0  0
 25 44  1  0  0  0  0
 26 70  1  0  0  0  0
 27 87  1  0  0  0  0
 28 88  1  0  0  0  0
 29 31  2  0  0  0  0
 29 87  1  0  0  0  0
 30 89  1  0  0  0  0
 31 90  1  0  0  0  0
 32 68  2  0  0  0  0
 33 69  1  0  0  0  0
 33 73  1  0  0  0  0
 34 54  1  0  0  0  0
 34 70  1  0  0  0  0
 34 79  2  0  0  0  0
 35 62  1  0  0  0  0
 35 80  2  0  0  0  0
 36 64  1  0  0  0  0
 36 81  2  0  0  0  0
 37 74  1  0  0  0  0
 37 82  2  0  0  0  0
 38 55  1  0  0  0  0
 38 75  1  0  0  0  0
 38 83  2  0  0  0  0
 39 65  1  0  0  0  0
 39 71  1  0  0  0  0
 39 84  2  0  0  0  0
 40 66  1  0  0  0  0
 40 76  1  0  0  0  0
 40 85  2  0  0  0  0
 41 72  1  0  0  0  0
 41 77  1  0  0  0  0
 41 86  2  0  0  0  0
 42 45  1  0  0  0  0
 43 55  1  0  0  0  0
 44 71  1  0  0  0  0
 45 47  1  0  0  0  0
 46 48  1  0  0  0  0
 46 50  1  0  0  0  0
 47 53  1  0  0  0  0
 48 56  1  0  0  0  0
 49 51  1  0  0  0  0
 49 54  1  0  0  0  0
 50 72  1  0  0  0  0
 51 70  1  0  0  0  0
 52 56  1  0  0  0  0
 52 72  1  0  0  0  0
 53 75  1  0  0  0  0
 54 63  1  0  0  0  0
 55 71  1  0  0  0  0
 56 69  1  0  0  0  0
 57 66  1  0  0  0  0
 58 67  1  0  0  0  0
 59 67  1  0  0  0  0
 60 67  1  0  0  0  0
 61 78  1  0  0  0  0
 62 64  1  0  0  0  0
 63 88  1  0  0  0  0
 64 77  1  0  0  0  0
 65 67  1  0  0  0  0
 65 76  1  0  0  0  0
 66 78  1  0  0  0  0
 68 69  1  0  0  0  0
M  CHG  1  78   1
M  ISO  4  41 100  63 101  77 100  88 101
M  END
> <Batch ID>
0071

> <Smiles>
CNC(C)C(=O)NC(C(=O)N1Cc2cc([101O:1][101CH2:1]C3CCN(c4ccc(C(=O)C(C=CO)[100NH:0][100C:0](=O)N5CCCC(n6nc(-c7ccc(Oc8ccc(F)cc8F)cc7)c(C(N)=O)c6N)C5)cc4)C3=O)ccc2CC1C(=O)NC1CCCc2ccccc21)C(C)(C)C

> <Shape>
0.283

> <Color>
0.148

> <Negative vol penalty>
0.000

$$$$

  -OEChem-04042323353D

 89 98  0     1  0  0  0  0  0999 V2000
  -27.6445  -37.5367   22.7354 C   0  0  0  0  0  0  0  0  0  0  0  0
  -28.1537  -36.5140   21.9415 C   0  0  0  0  0  0  0  0  0  0  0  0
  -24.5562   -9.2187   21.6510 C   0  0  0  0  0  0  0  0  0  0  0  0
  -23.1596  -10.7570   20.4180 C   0  0  0  0  0  0  0  0  0  0  0  0
  -26.8558  -37.2304   23.8436 C   0  0  0  0  0  0  0  0  0  0  0  0
  -27.8754  -35.1844   22.2561 C   0  0  0  0  0  0  0  0  0  0  0  0
  -26.7830  -28.8232   19.1481 C   0  0  0  0  0  0  0  0  0  0  0  0
  -23.4572   -8.8382   22.4211 C   0  0  0  0  0  0  0  0  0  0  0  0
  -22.0606  -10.3765   21.1881 C   0  0  0  0  0  0  0  0  0  0  0  0
  -27.2348  -27.5055   19.2039 C   0  0  0  0  0  0  0  0  0  0  0  0
  -20.7595   -6.8269   22.0894 C   0  0  0  0  0  0  0  0  0  0  0  0
  -20.5670   -5.4641   22.3155 C   0  0  0  0  0  0  0  0  0  0  0  0
  -25.7953  -27.0985   21.0964 C   0  0  0  0  0  0  0  0  0  0  0  0
  -26.2817  -18.9920   16.3955 C   0  0  0  0  0  0  0  0  0  0  0  0
  -27.9383  -18.9910   18.6401 C   0  0  0  0  0  0  0  0  0  0  0  0
  -20.7482   -5.8333   24.6962 C   0  0  0  0  0  0  0  0  0  0  0  0
  -24.4074  -10.1781   20.6494 C   0  0  0  0  0  0  0  0  0  0  0  0
  -25.9742   -9.9949   18.6446 C   0  0  0  0  0  0  0  0  0  0  0  0
  -26.5597  -35.8967   24.1663 C   0  0  0  0  0  0  0  0  0  0  0  0
  -25.8405  -29.2924   20.0744 C   0  0  0  0  0  0  0  0  0  0  0  0
  -27.0831  -34.8599   23.3704 C   0  0  0  0  0  0  0  0  0  0  0  0
  -25.3313  -28.4220   21.0486 C   0  0  0  0  0  0  0  0  0  0  0  0
  -26.5750  -17.7931   17.0452 C   0  0  0  0  0  0  0  0  0  0  0  0
  -27.6450  -20.1899   17.9904 C   0  0  0  0  0  0  0  0  0  0  0  0
  -26.8167  -20.1905   16.8681 C   0  0  0  0  0  0  0  0  0  0  0  0
  -27.4033  -17.7926   18.1675 C   0  0  0  0  0  0  0  0  0  0  0  0
  -22.2094   -9.4171   22.1897 C   0  0  0  0  0  0  0  0  0  0  0  0
  -26.7431  -26.6437   20.1800 C   0  0  0  0  0  0  0  0  0  0  0  0
  -20.9465   -7.6930   23.1668 C   0  0  0  0  0  0  0  0  0  0  0  0
  -20.5613   -4.9672   23.6188 C   0  0  0  0  0  0  0  0  0  0  0  0
  -20.9408   -7.1962   24.4702 C   0  0  0  0  0  0  0  0  0  0  0  0
  -25.5424  -10.5719   19.8539 C   0  0  0  0  0  0  0  0  0  0  0  0
  -27.0847  -10.7233   18.2940 C   0  0  0  0  0  0  0  0  0  0  0  0
  -27.4919  -22.5303   18.9537 C   0  0  0  0  0  0  0  0  0  0  0  0
  -25.4210   -8.8987   17.9044 C   0  0  0  0  0  0  0  0  0  0  0  0
  -25.8256  -31.5509   22.3110 C   0  0  0  0  0  0  0  0  0  0  0  0
  -22.6918  -30.7478   22.5493 C   0  0  0  0  0  0  0  0  0  0  0  0
  -20.2588  -28.4007   22.0818 C   0  0  0  0  0  0  0  0  0  0  0  0
  -28.8806  -16.2841   19.5417 C   0  0  0  0  0  0  0  0  0  0  0  0
  -25.7418  -35.6130   25.4014 C   0  0  0  0  0  0  0  0  0  0  0  0
  -25.3435  -30.7092   19.9840 C   0  0  0  0  0  0  0  0  0  0  0  0
  -24.3032  -28.8709   22.0536 C   0  0  0  0  0  0  0  0  0  0  0  0
  -25.1836  -34.1930   25.4493 C   0  0  0  0  0  0  0  0  0  0  0  0
  -30.6532  -13.2715   20.2192 C   0  0  0  0  0  0  0  0  0  0  0  0
  -26.2673  -33.1810   25.0913 C   0  0  0  0  0  0  0  0  0  0  0  0
  -29.5844  -12.1842   20.0864 C   0  0  0  0  0  0  0  0  0  0  0  0
  -29.7999  -23.0901   18.7970 C   0  0  0  0  0  0  0  0  0  0  0  0
  -30.0902  -14.5470   20.8434 C   0  0  0  0  0  0  0  0  0  0  0  0
  -29.6350  -21.5921   18.6358 C   0  0  0  0  0  0  0  0  0  0  0  0
  -27.8228  -13.9961   20.0531 C   0  0  0  0  0  0  0  0  0  0  0  0
  -26.7828  -33.4062   23.6647 C   0  0  1  0  0  0  0  0  0  0  0  0
  -28.5190  -23.5056   19.5059 C   0  0  1  0  0  0  0  0  0  0  0  0
  -24.7648  -31.2243   21.2982 C   0  0  1  0  0  0  0  0  0  0  0  0
  -28.3271  -12.7145   19.3697 C   0  0  2  0  0  0  0  0  0  0  0  0
  -17.7995  -28.0211   22.4062 C   0  0  0  0  0  0  0  0  0  0  0  0
  -24.6348  -16.2172   17.1496 C   0  0  0  0  0  0  0  0  0  0  0  0
  -23.1500  -30.3503   25.5396 C   0  0  0  0  0  0  0  0  0  0  0  0
  -20.9888  -29.0897   25.6323 C   0  0  0  0  0  0  0  0  0  0  0  0
  -21.0022  -31.4907   24.9558 C   0  0  0  0  0  0  0  0  0  0  0  0
  -19.8190  -28.0079   19.1816 C   0  0  0  0  0  0  0  0  0  0  0  0
  -28.1487  -24.9571   19.2659 C   0  0  0  0  0  0  0  0  0  1  0  0
  -21.9029  -29.7485   23.3604 C   0  0  1  0  0  0  0  0  0  0  0  0
  -18.8828  -28.4889   21.4468 C   0  0  2  0  0  0  0  0  0  0  0  0
  -25.9886  -16.5243   16.5166 C   0  0  0  0  0  0  0  0  0  0  0  0
  -21.7818  -30.1616   24.8545 C   0  0  0  0  0  0  0  0  0  0  0  0
  -26.3156  -11.5883   20.2453 N   0  0  0  0  0  0  0  0  0  0  0  0
  -27.2444  -11.6557   19.2764 N   0  0  0  0  0  0  0  0  0  0  0  0
  -28.2034  -21.4037   18.4921 N   0  0  0  0  0  0  0  0  0  0  0  0
  -23.8532  -30.2670   21.9282 N   0  0  0  0  0  0  0  0  0  0  0  0
  -28.9037  -14.9927   20.1098 N   0  0  0  0  0  0  0  0  0  0  0  0
  -26.5062  -21.3934   16.1944 N   0  0  0  0  0  0  0  0  0  0  0  0
  -27.9303  -10.6506   17.2442 N   0  0  0  0  0  0  0  0  0  0  0  0
  -24.2778   -8.2625   18.4070 N   0  0  0  0  0  0  0  0  0  0  0  0
  -27.7135  -16.5847   18.8403 N   0  0  0  0  0  0  0  0  0  0  0  0
  -25.8440  -32.8771   22.6987 N   0  0  0  0  0  0  0  0  0  0  0  0
  -20.6229  -29.5891   22.6789 N   0  0  0  0  0  0  0  0  0  0  0  0
  -18.8227  -27.6428   20.2214 N   0  3  0  0  0  0  0  0  0  0  0  0
  -26.2869  -22.7311   18.9975 O   0  0  0  0  0  0  0  0  0  0  0  0
  -25.9351   -8.4848   16.8377 O   0  0  0  0  0  0  0  0  0  0  0  0
  -26.5711  -30.6650   22.7123 O   0  0  0  0  0  0  0  0  0  0  0  0
  -22.2884  -31.9104   22.4637 O   0  0  0  0  0  0  0  0  0  0  0  0
  -20.9408  -27.3786   22.0545 O   0  0  0  0  0  0  0  0  0  0  0  0
  -29.8377  -17.0557   19.6451 O   0  0  0  0  0  0  0  0  0  0  0  0
  -21.1368   -9.0459   22.9408 O   0  0  0  0  0  0  0  0  0  0  0  0
  -27.1828  -25.3571   20.2372 O   0  0  0  0  0  0  0  0  0  1  0  0
  -20.3748   -3.6587   23.8358 F   0  0  0  0  0  0  0  0  0  0  0  0
  -21.1188   -8.0235   25.5093 F   0  0  0  0  0  0  0  0  0  0  0  0
  -26.7915  -15.4348   16.7330 F   0  0  0  0  0  0  0  0  0  0  0  0
  -25.8031  -16.5476   15.1587 F   0  0  0  0  0  0  0  0  0  0  0  0
  1  2  1  0  0  0  0
  1  5  2  0  0  0  0
  2  6  2  0  0  0  0
  3  8  2  0  0  0  0
  3 17  1  0  0  0  0
  4  9  1  0  0  0  0
  4 17  2  0  0  0  0
  5 19  1  0  0  0  0
  6 21  1  0  0  0  0
  7 10  2  0  0  0  0
  7 20  1  0  0  0  0
  8 27  1  0  0  0  0
  9 27  2  0  0  0  0
 10 28  1  0  0  0  0
 11 12  2  0  0  0  0
 11 29  1  0  0  0  0
 12 30  1  0  0  0  0
 13 22  1  0  0  0  0
 13 28  2  0  0  0  0
 14 23  2  0  0  0  0
 14 25  1  0  0  0  0
 15 24  1  0  0  0  0
 15 26  2  0  0  0  0
 16 30  2  0  0  0  0
 16 31  1  0  0  0  0
 17 32  1  0  0  0  0
 18 32  1  0  0  0  0
 18 33  2  0  0  0  0
 18 35  1  0  0  0  0
 19 21  2  0  0  0  0
 19 40  1  0  0  0  0
 20 22  2  0  0  0  0
 20 41  1  0  0  0  0
 21 51  1  0  0  0  0
 22 42  1  0  0  0  0
 23 26  1  0  0  0  0
 23 64  1  0  0  0  0
 24 25  2  0  0  0  0
 24 68  1  0  0  0  0
 25 71  1  0  0  0  0
 26 74  1  0  0  0  0
 27 84  1  0  0  0  0
 28 85  1  0  0  0  0
 29 31  2  0  0  0  0
 29 84  1  0  0  0  0
 30 86  1  0  0  0  0
 31 87  1  0  0  0  0
 32 66  2  0  0  0  0
 33 67  1  0  0  0  0
 33 72  1  0  0  0  0
 34 52  1  0  0  0  0
 34 68  1  0  0  0  0
 34 78  2  0  0  0  0
 35 73  1  0  0  0  0
 35 79  2  0  0  0  0
 36 53  1  0  0  0  0
 36 75  1  0  0  0  0
 36 80  2  0  0  0  0
 37 62  1  0  0  0  0
 37 69  1  0  0  0  0
 37 81  2  0  0  0  0
 38 63  1  0  0  0  0
 38 76  1  0  0  0  0
 38 82  2  0  0  0  0
 39 70  1  0  0  0  0
 39 74  1  0  0  0  0
 39 83  2  0  0  0  0
 40 43  1  0  0  0  0
 41 53  1  0  0  0  0
 42 69  1  0  0  0  0
 43 45  1  0  0  0  0
 44 46  1  0  0  0  0
 44 48  1  0  0  0  0
 45 51  1  0  0  0  0
 46 54  1  0  0  0  0
 47 49  1  0  0  0  0
 47 52  1  0  0  0  0
 48 70  1  0  0  0  0
 49 68  1  0  0  0  0
 50 54  1  0  0  0  0
 50 70  1  0  0  0  0
 51 75  1  0  0  0  0
 52 61  1  0  0  0  0
 53 69  1  0  0  0  0
 54 67  1  0  0  0  0
 55 63  1  0  0  0  0
 56 64  1  0  0  0  0
 57 65  1  0  0  0  0
 58 65  1  0  0  0  0
 59 65  1  0  0  0  0
 60 77  1  0  0  0  0
 61 85  1  0  0  0  0
 62 65  1  0  0  0  0
 62 76  1  0  0  0  0
 63 77  1  0  0  0  0
 64 88  1  0  0  0  0
 64 89  1  0  0  0  0
 66 67  1  0  0  0  0
M  CHG  1  77   1
M  ISO  4  39 100  61 101  74 100  85 101
M  END
> <Batch ID>
0071

> <Smiles>
CNC(C)C(=O)NC(C(=O)N1Cc2cc([101O:1][101CH2:1]C3CCN(c4cc([100NH:0][100C:0](=O)N5CCCC(n6nc(-c7ccc(Oc8ccc(F)cc8F)cc7)c(C(N)=O)c6N)C5)c(C(C)(F)F)cc4N)C3=O)ccc2CC1C(=O)NC1CCCc2ccccc21)C(C)(C)C

> <Shape>
0.312

> <Color>
0.088

> <Negative vol penalty>
0.000

$$$$

  -OEChem-04042323353D

 91101  0     1  0  0  0  0  0999 V2000
  -23.3237  -35.7898   17.6241 C   0  0  0  0  0  0  0  0  0  0  0  0
  -23.9575  -34.6171   18.0225 C   0  0  0  0  0  0  0  0  0  0  0  0
  -26.6364  -12.4783   21.6215 C   0  0  0  0  0  0  0  0  0  0  0  0
  -26.2481  -13.5685   19.5007 C   0  0  0  0  0  0  0  0  0  0  0  0
  -22.7418  -36.6246   18.5772 C   0  0  0  0  0  0  0  0  0  0  0  0
  -24.0106  -34.2792   19.3743 C   0  0  0  0  0  0  0  0  0  0  0  0
  -28.7948  -22.0378   17.1387 C   0  0  0  0  0  0  0  0  0  0  0  0
  -22.9196  -29.4038   20.2023 C   0  0  0  0  0  0  0  0  0  0  0  0
  -29.2483  -20.9553   17.8924 C   0  0  0  0  0  0  0  0  0  0  0  0
  -25.3461  -11.9498   21.5861 C   0  0  0  0  0  0  0  0  0  0  0  0
  -24.9577  -13.0400   19.4653 C   0  0  0  0  0  0  0  0  0  0  0  0
  -23.9231  -28.4729   19.9376 C   0  0  0  0  0  0  0  0  0  0  0  0
  -23.7411   -9.3965   20.0570 C   0  0  0  0  0  0  0  0  0  0  0  0
  -23.5826   -8.0507   20.3873 C   0  0  0  0  0  0  0  0  0  0  0  0
  -24.4434  -28.3735   22.2910 C   0  0  0  0  0  0  0  0  0  0  0  0
  -29.6157  -22.4215   19.7772 C   0  0  0  0  0  0  0  0  0  0  0  0
  -22.1213   -8.6699   22.2090 C   0  0  0  0  0  0  0  0  0  0  0  0
  -27.0874  -13.2877   20.5788 C   0  0  0  0  0  0  0  0  0  0  0  0
  -29.5928  -13.2504   20.0999 C   0  0  0  0  0  0  0  0  0  0  0  0
  -22.7794  -36.2919   19.9405 C   0  0  0  0  0  0  0  0  0  0  0  0
  -22.6772  -29.8355   21.5144 C   0  0  0  0  0  0  0  0  0  0  0  0
  -23.4298  -35.1111   20.3466 C   0  0  0  0  0  0  0  0  0  0  0  0
  -28.7517  -23.3122   17.7042 C   0  0  0  0  0  0  0  0  0  0  0  0
  -23.4345  -29.3081   22.5701 C   0  0  0  0  0  0  0  0  0  0  0  0
  -29.1622  -23.5041   19.0234 C   0  0  0  0  0  0  0  0  0  0  0  0
  -29.6587  -21.1471   19.2117 C   0  0  0  0  0  0  0  0  0  0  0  0
  -24.5067  -12.2306   20.5080 C   0  0  0  0  0  0  0  0  0  0  0  0
  -24.6871  -27.9598   20.9817 C   0  0  0  0  0  0  0  0  0  0  0  0
  -23.0898  -10.3791   20.8027 C   0  0  0  0  0  0  0  0  0  0  0  0
  -22.7727   -7.6874   21.4633 C   0  0  0  0  0  0  0  0  0  0  0  0
  -22.2799  -10.0158   21.8786 C   0  0  0  0  0  0  0  0  0  0  0  0
  -28.4201  -13.8344   20.6150 C   0  0  0  0  0  0  0  0  0  0  0  0
  -30.5826  -14.1590   20.3848 C   0  0  0  0  0  0  0  0  0  0  0  0
  -29.0891  -27.3233   20.7551 C   0  0  0  0  0  0  0  0  0  0  0  0
  -27.9972  -26.5652   20.8789 C   0  0  0  0  0  0  0  0  0  0  0  0
  -30.2133  -26.7269   20.0125 C   0  0  0  0  0  0  0  0  0  0  0  0
  -29.7715  -11.9986   19.4241 C   0  0  0  0  0  0  0  0  0  0  0  0
  -22.8203  -32.6323   23.0181 C   0  0  0  0  0  0  0  0  0  0  0  0
  -21.5513  -30.9354   25.4742 C   0  0  0  0  0  0  0  0  0  0  0  0
  -21.0906  -27.9007   26.9659 C   0  0  0  0  0  0  0  0  0  0  0  0
  -30.5633  -20.0641   21.2985 C   0  0  0  0  0  0  0  0  0  0  0  0
  -22.1777  -37.2495   20.9383 C   0  0  0  0  0  0  0  0  0  0  0  0
  -21.5732  -30.8202   21.7864 C   0  0  0  0  0  0  0  0  0  0  0  0
  -23.2006  -29.7236   23.9987 C   0  0  0  0  0  0  0  0  0  0  0  0
  -27.9125  -25.1845   20.2984 C   0  0  0  0  0  0  0  0  0  0  0  0
  -21.9509  -36.6313   22.3155 C   0  0  0  0  0  0  0  0  0  0  0  0
  -26.7857  -24.9159   14.9948 C   0  0  0  0  0  0  0  0  0  0  0  0
  -28.1421  -24.5405   14.4255 C   0  0  0  0  0  0  0  0  0  0  0  0
  -31.7422  -17.5656   23.5447 C   0  0  0  0  0  0  0  0  0  0  0  0
  -26.8078  -24.2861   16.3793 C   0  0  0  0  0  0  0  0  0  0  0  0
  -29.0946  -24.7325   15.6001 C   0  0  0  0  0  0  0  0  0  0  0  0
  -23.1855  -35.8545   22.7618 C   0  0  0  0  0  0  0  0  0  0  0  0
  -31.1357  -16.2713   22.9979 C   0  0  0  0  0  0  0  0  0  0  0  0
  -30.7862  -18.7476   23.3943 C   0  0  0  0  0  0  0  0  0  0  0  0
  -29.6607  -17.6632   21.4900 C   0  0  0  0  0  0  0  0  0  0  0  0
  -28.2570  -24.4636   16.8669 C   0  0  0  0  0  0  0  0  0  0  0  0
  -23.4866  -34.6977   21.8012 C   0  0  1  0  0  0  0  0  0  0  0  0
  -21.7559  -31.5749   23.0996 C   0  0  1  0  0  0  0  0  0  0  0  0
  -30.6121  -16.4576   21.5603 C   0  0  2  0  0  0  0  0  0  0  0  0
  -31.3814  -28.3684   18.5820 C   0  0  0  0  0  0  0  0  0  0  0  0
  -20.0443  -26.8357   28.9830 C   0  0  0  0  0  0  0  0  0  0  0  0
  -23.8492  -31.9566   27.2024 C   0  0  0  0  0  0  0  0  0  0  0  0
  -23.3081  -30.1605   28.8606 C   0  0  0  0  0  0  0  0  0  0  0  0
  -21.6224  -31.9242   28.3405 C   0  0  0  0  0  0  0  0  0  0  0  0
  -19.2805  -26.2540   25.3013 C   0  0  0  0  0  0  0  0  0  0  0  0
  -26.7932  -27.0466   21.6032 C   0  0  0  0  0  0  0  0  0  1  0  0
  -31.4559  -27.5706   19.8603 C   0  0  0  0  0  0  0  0  0  0  0  0
  -22.1139  -30.1345   26.6236 C   0  0  1  0  0  0  0  0  0  0  0  0
  -19.8487  -27.2327   27.5280 C   0  0  2  0  0  0  0  0  0  0  0  0
  -22.7294  -31.0374   27.7297 C   0  0  0  0  0  0  0  0  0  0  0  0
  -28.6426  -15.0220   21.1843 N   0  0  0  0  0  0  0  0  0  0  0  0
  -30.2308  -25.5483   19.4814 N   0  0  0  0  0  0  0  0  0  0  0  0
  -29.9666  -15.1917   21.0285 N   0  0  0  0  0  0  0  0  0  0  0  0
  -29.1269  -24.7585   19.5980 N   0  0  0  0  0  0  0  0  0  0  0  0
  -22.1139  -30.6936   24.2129 N   0  0  0  0  0  0  0  0  0  0  0  0
  -30.3350  -18.8649   22.0060 N   0  0  0  0  0  0  0  0  0  0  0  0
  -31.9111  -14.1674   20.1450 N   0  0  0  0  0  0  0  0  0  0  0  0
  -28.6485  -11.1869   19.2133 N   0  0  0  0  0  0  0  0  0  0  0  0
  -30.1198  -20.0471   19.9766 N   0  0  0  0  0  0  0  0  0  0  0  0
  -22.5896  -33.5892   22.0483 N   0  0  0  0  0  0  0  0  0  0  0  0
  -21.0325  -29.2728   27.0887 N   0  0  0  0  0  0  0  0  0  0  0  0
  -19.5211  -26.0069   26.7463 N   0  3  0  0  0  0  0  0  0  0  0  0
  -30.8963  -11.6038   19.0338 O   0  0  0  0  0  0  0  0  0  0  0  0
  -23.7791  -32.5844   23.7798 O   0  0  0  0  0  0  0  0  0  0  0  0
  -20.6411  -31.7404   25.6864 O   0  0  0  0  0  0  0  0  0  0  0  0
  -22.0211  -27.2682   26.4711 O   0  0  0  0  0  0  0  0  0  0  0  0
  -31.1364  -21.0251   21.8183 O   0  0  0  0  0  0  0  0  0  0  0  0
  -23.2476  -11.7148   20.4730 O   0  0  0  0  0  0  0  0  0  0  0  0
  -25.6677  -27.0515   20.7260 O   0  0  0  0  0  0  0  0  0  1  0  0
  -22.6193   -6.3948   21.7794 F   0  0  0  0  0  0  0  0  0  0  0  0
  -21.6507  -10.9552   22.5980 F   0  0  0  0  0  0  0  0  0  0  0  0
  1  2  1  0  0  0  0
  1  5  2  0  0  0  0
  2  6  2  0  0  0  0
  3 10  2  0  0  0  0
  3 18  1  0  0  0  0
  4 11  1  0  0  0  0
  4 18  2  0  0  0  0
  5 20  1  0  0  0  0
  6 22  1  0  0  0  0
  7  9  2  0  0  0  0
  7 23  1  0  0  0  0
  8 12  2  0  0  0  0
  8 21  1  0  0  0  0
  9 26  1  0  0  0  0
 10 27  1  0  0  0  0
 11 27  2  0  0  0  0
 12 28  1  0  0  0  0
 13 14  2  0  0  0  0
 13 29  1  0  0  0  0
 14 30  1  0  0  0  0
 15 24  1  0  0  0  0
 15 28  2  0  0  0  0
 16 25  1  0  0  0  0
 16 26  2  0  0  0  0
 17 30  2  0  0  0  0
 17 31  1  0  0  0  0
 18 32  1  0  0  0  0
 19 32  1  0  0  0  0
 19 33  2  0  0  0  0
 19 37  1  0  0  0  0
 20 22  2  0  0  0  0
 20 42  1  0  0  0  0
 21 24  2  0  0  0  0
 21 43  1  0  0  0  0
 22 57  1  0  0  0  0
 23 25  2  0  0  0  0
 23 56  1  0  0  0  0
 24 44  1  0  0  0  0
 25 74  1  0  0  0  0
 26 79  1  0  0  0  0
 27 88  1  0  0  0  0
 28 89  1  0  0  0  0
 29 31  2  0  0  0  0
 29 88  1  0  0  0  0
 30 90  1  0  0  0  0
 31 91  1  0  0  0  0
 32 71  2  0  0  0  0
 33 73  1  0  0  0  0
 33 77  1  0  0  0  0
 34 35  2  0  0  0  0
 34 36  1  0  0  0  0
 35 45  1  0  0  0  0
 35 66  1  0  0  0  0
 36 67  1  0  0  0  0
 36 72  2  0  0  0  0
 37 78  1  0  0  0  0
 37 83  2  0  0  0  0
 38 58  1  0  0  0  0
 38 80  1  0  0  0  0
 38 84  2  0  0  0  0
 39 68  1  0  0  0  0
 39 75  1  0  0  0  0
 39 85  2  0  0  0  0
 40 69  1  0  0  0  0
 40 81  1  0  0  0  0
 40 86  2  0  0  0  0
 41 76  1  0  0  0  0
 41 79  1  0  0  0  0
 41 87  2  0  0  0  0
 42 46  1  0  0  0  0
 43 58  1  0  0  0  0
 44 75  1  0  0  0  0
 45 74  1  0  0  0  0
 46 52  1  0  0  0  0
 47 48  1  0  0  0  0
 47 50  1  0  0  0  0
 48 51  1  0  0  0  0
 49 53  1  0  0  0  0
 49 54  1  0  0  0  0
 50 56  1  0  0  0  0
 51 56  1  0  0  0  0
 52 57  1  0  0  0  0
 53 59  1  0  0  0  0
 54 76  1  0  0  0  0
 55 59  1  0  0  0  0
 55 76  1  0  0  0  0
 57 80  1  0  0  0  0
 58 75  1  0  0  0  0
 59 73  1  0  0  0  0
 60 67  1  0  0  0  0
 61 69  1  0  0  0  0
 62 70  1  0  0  0  0
 63 70  1  0  0  0  0
 64 70  1  0  0  0  0
 65 82  1  0  0  0  0
 66 89  1  0  0  0  0
 68 70  1  0  0  0  0
 68 81  1  0  0  0  0
 69 82  1  0  0  0  0
 71 73  1  0  0  0  0
 72 74  1  0  0  0  0
M  CHG  1  82   1
M  ISO  4  41 100  66 101  79 100  89 101
M  END
> <Batch ID>
0071

> <Smiles>
CCC1=NN(c2cc([100NH:0][100C:0](=O)N3CCCC(n4nc(-c5ccc(Oc6ccc(F)cc6F)cc5)c(C(N)=O)c4N)C3)ccc2C2CCCC2)CC([101CH2:1][101O:1]c2ccc3c(c2)CN(C(=O)C(NC(=O)C(C)NC)C(C)(C)C)C(C(=O)NC2CCCc4ccccc42)C3)=C1

> <Shape>
0.264

> <Color>
0.073

> <Negative vol penalty>
0.000

$$$$

  -OEChem-04042323353D

 87 96  0     1  0  0  0  0  0999 V2000
  -26.6087  -36.3479   25.2678 C   0  0  0  0  0  0  0  0  0  0  0  0
  -27.2708  -35.2778   24.6744 C   0  0  0  0  0  0  0  0  0  0  0  0
  -26.8216  -10.3931   20.8398 C   0  0  0  0  0  0  0  0  0  0  0  0
  -27.4161  -11.8815   22.6476 C   0  0  0  0  0  0  0  0  0  0  0  0
  -25.3112  -36.1823   25.7504 C   0  0  0  0  0  0  0  0  0  0  0  0
  -26.6360  -34.0411   24.5643 C   0  0  0  0  0  0  0  0  0  0  0  0
  -27.2170  -29.9982   20.0011 C   0  0  0  0  0  0  0  0  0  0  0  0
  -28.3708  -20.9988   22.1614 C   0  0  0  0  0  0  0  0  0  0  0  0
  -28.9796  -21.9097   21.2981 C   0  0  0  0  0  0  0  0  0  0  0  0
  -27.7714   -9.4735   21.2845 C   0  0  0  0  0  0  0  0  0  0  0  0
  -28.3659  -10.9618   23.0924 C   0  0  0  0  0  0  0  0  0  0  0  0
  -27.9839  -28.8420   19.8642 C   0  0  0  0  0  0  0  0  0  0  0  0
  -28.0311   -7.1406   23.7183 C   0  0  0  0  0  0  0  0  0  0  0  0
  -27.6545   -5.7991   23.7815 C   0  0  0  0  0  0  0  0  0  0  0  0
  -26.0938  -27.5133   20.5577 C   0  0  0  0  0  0  0  0  0  0  0  0
  -28.0143  -20.7604   19.4048 C   0  0  0  0  0  0  0  0  0  0  0  0
  -29.4098   -5.2328   22.2209 C   0  0  0  0  0  0  0  0  0  0  0  0
  -26.6440  -11.5972   21.5213 C   0  0  0  0  0  0  0  0  0  0  0  0
  -24.3106  -12.6251   21.4435 C   0  0  0  0  0  0  0  0  0  0  0  0
  -24.6566  -34.9456   25.6374 C   0  0  0  0  0  0  0  0  0  0  0  0
  -25.8836  -29.9214   20.4284 C   0  0  0  0  0  0  0  0  0  0  0  0
  -25.3289  -33.8585   25.0470 C   0  0  0  0  0  0  0  0  0  0  0  0
  -25.3112  -28.6698   20.6967 C   0  0  0  0  0  0  0  0  0  0  0  0
  -27.5838  -19.9687   21.6464 C   0  0  0  0  0  0  0  0  0  0  0  0
  -28.8013  -21.7905   19.9198 C   0  0  0  0  0  0  0  0  0  0  0  0
  -27.4055  -19.8495   20.2681 C   0  0  0  0  0  0  0  0  0  0  0  0
  -28.5435   -9.7578   22.4108 C   0  0  0  0  0  0  0  0  0  0  0  0
  -27.4233  -27.5996   20.1453 C   0  0  0  0  0  0  0  0  0  0  0  0
  -29.0970   -7.5283   22.9063 C   0  0  0  0  0  0  0  0  0  0  0  0
  -28.3439   -4.8452   23.0328 C   0  0  0  0  0  0  0  0  0  0  0  0
  -29.7864   -6.5744   22.1577 C   0  0  0  0  0  0  0  0  0  0  0  0
  -25.6635  -12.5478   21.0620 C   0  0  0  0  0  0  0  0  0  0  0  0
  -23.8135  -13.6895   20.7319 C   0  0  0  0  0  0  0  0  0  0  0  0
  -29.4355  -25.0983   18.5370 C   0  0  0  0  0  0  0  0  0  0  0  0
  -29.9591  -24.8602   17.1689 C   0  0  0  0  0  0  0  0  0  0  0  0
  -29.8185  -22.3589   17.7272 C   0  0  0  0  0  0  0  0  0  0  0  0
  -28.6879  -26.1809   18.7819 C   0  0  0  0  0  0  0  0  0  1  0  0
  -23.5695  -11.8080   22.3593 C   0  0  0  0  0  0  0  0  0  0  0  0
  -24.2635  -31.0224   22.9318 C   0  0  0  0  0  0  0  0  0  0  0  0
  -21.7177  -29.8220   21.3192 C   0  0  0  0  0  0  0  0  0  0  0  0
  -20.5347  -27.6089   19.0063 C   0  0  0  0  0  0  0  0  0  0  0  0
  -26.3425  -18.5654   18.3793 C   0  0  0  0  0  0  0  0  0  0  0  0
  -23.2714  -34.8019   26.2163 C   0  0  0  0  0  0  0  0  0  0  0  0
  -25.0617  -31.1757   20.5453 C   0  0  0  0  0  0  0  0  0  0  0  0
  -23.8782  -28.5315   21.1392 C   0  0  0  0  0  0  0  0  0  0  0  0
  -29.8018  -24.0567   19.5461 C   0  0  0  0  0  0  0  0  0  0  0  0
  -30.4435  -23.4626   16.8938 C   0  0  0  0  0  0  0  0  0  0  0  0
  -22.5309  -33.5613   25.7236 C   0  0  0  0  0  0  0  0  0  0  0  0
  -24.4654  -16.0902   16.6396 C   0  0  0  0  0  0  0  0  0  0  0  0
  -23.4378  -32.3366   25.7907 C   0  0  0  0  0  0  0  0  0  0  0  0
  -24.4313  -14.9101   17.6135 C   0  0  0  0  0  0  0  0  0  0  0  0
  -25.8028  -16.8268   16.6879 C   0  0  0  0  0  0  0  0  0  0  0  0
  -26.1943  -16.0739   19.0007 C   0  0  0  0  0  0  0  0  0  0  0  0
  -24.6646  -32.5083   24.8868 C   0  0  1  0  0  0  0  0  0  0  0  0
  -23.8676  -31.0224   21.4824 C   0  0  1  0  0  0  0  0  0  0  0  0
  -24.8436  -15.3403   19.0349 C   0  0  2  0  0  0  0  0  0  0  0  0
  -26.9438  -19.0075   22.5948 C   0  0  0  0  0  0  0  0  0  0  0  0
  -18.4041  -26.8355   17.9295 C   0  0  0  0  0  0  0  0  0  0  0  0
  -21.0044  -28.2728   23.8493 C   0  0  0  0  0  0  0  0  0  0  0  0
  -19.4936  -26.8380   22.4610 C   0  0  0  0  0  0  0  0  0  0  0  0
  -19.0509  -29.2849   22.6601 C   0  0  0  0  0  0  0  0  0  0  0  0
  -21.4678  -28.4107   16.3145 C   0  0  0  0  0  0  0  0  0  0  0  0
  -21.0114  -28.4885   21.2764 C   0  0  1  0  0  0  0  0  0  0  0  0
  -19.5863  -27.7873   17.8344 C   0  0  2  0  0  0  0  0  0  0  0  0
  -20.1677  -28.2235   22.5552 C   0  0  0  0  0  0  0  0  0  0  0  0
  -26.0041  -13.4880   20.1766 N   0  0  0  0  0  0  0  0  0  0  0  0
  -24.8580  -14.1662   19.9958 N   0  0  0  0  0  0  0  0  0  0  0  0
  -29.4306  -22.7317   19.0283 N   0  0  0  0  0  0  0  0  0  0  0  0
  -23.1174  -29.7875   21.2446 N   0  0  0  0  0  0  0  0  0  0  0  0
  -26.1259  -17.2072   18.0648 N   0  0  0  0  0  0  0  0  0  0  0  0
  -22.5891  -14.2548   20.6701 N   0  0  0  0  0  0  0  0  0  0  0  0
  -24.2343  -10.7567   23.0052 N   0  0  0  0  0  0  0  0  0  0  0  0
  -26.6100  -18.8099   19.7259 N   0  0  0  0  0  0  0  0  0  0  0  0
  -24.3085  -32.2799   23.5028 N   0  0  0  0  0  0  0  0  0  0  0  0
  -20.2400  -28.4747   20.0382 N   0  0  0  0  0  0  0  0  0  0  0  0
  -20.2959  -27.5285   16.5497 N   0  3  0  0  0  0  0  0  0  0  0  0
  -30.0369  -25.7506   16.3272 O   0  0  0  0  0  0  0  0  0  0  0  0
  -29.7573  -21.2232   17.2517 O   0  0  0  0  0  0  0  0  0  0  0  0
  -22.3498  -11.9940   22.5855 O   0  0  0  0  0  0  0  0  0  0  0  0
  -24.5085  -29.9599   23.4912 O   0  0  0  0  0  0  0  0  0  0  0  0
  -21.0518  -30.8565   21.4081 O   0  0  0  0  0  0  0  0  0  0  0  0
  -21.4436  -26.7816   19.0077 O   0  0  0  0  0  0  0  0  0  0  0  0
  -26.2675  -19.4499   17.5226 O   0  0  0  0  0  0  0  0  0  0  0  0
  -29.4702   -8.8605   22.8452 O   0  0  0  0  0  0  0  0  0  0  0  0
  -28.1699  -26.4695   20.0132 O   0  0  0  0  0  0  0  0  0  1  0  0
  -27.9831   -3.5567   23.0948 F   0  0  0  0  0  0  0  0  0  0  0  0
  -30.8119   -6.9407   21.3767 F   0  0  0  0  0  0  0  0  0  0  0  0
  1  2  1  0  0  0  0
  1  5  2  0  0  0  0
  2  6  2  0  0  0  0
  3 10  2  0  0  0  0
  3 18  1  0  0  0  0
  4 11  1  0  0  0  0
  4 18  2  0  0  0  0
  5 20  1  0  0  0  0
  6 22  1  0  0  0  0
  7 12  2  0  0  0  0
  7 21  1  0  0  0  0
  8  9  2  0  0  0  0
  8 24  1  0  0  0  0
  9 25  1  0  0  0  0
 10 27  1  0  0  0  0
 11 27  2  0  0  0  0
 12 28  1  0  0  0  0
 13 14  2  0  0  0  0
 13 29  1  0  0  0  0
 14 30  1  0  0  0  0
 15 23  1  0  0  0  0
 15 28  2  0  0  0  0
 16 25  2  0  0  0  0
 16 26  1  0  0  0  0
 17 30  2  0  0  0  0
 17 31  1  0  0  0  0
 18 32  1  0  0  0  0
 19 32  1  0  0  0  0
 19 33  2  0  0  0  0
 19 38  1  0  0  0  0
 20 22  2  0  0  0  0
 20 43  1  0  0  0  0
 21 23  2  0  0  0  0
 21 44  1  0  0  0  0
 22 54  1  0  0  0  0
 23 45  1  0  0  0  0
 24 26  2  0  0  0  0
 24 57  1  0  0  0  0
 25 68  1  0  0  0  0
 26 73  1  0  0  0  0
 27 84  1  0  0  0  0
 28 85  1  0  0  0  0
 29 31  2  0  0  0  0
 29 84  1  0  0  0  0
 30 86  1  0  0  0  0
 31 87  1  0  0  0  0
 32 66  2  0  0  0  0
 33 67  1  0  0  0  0
 33 71  1  0  0  0  0
 34 35  1  0  0  0  0
 34 37  2  0  0  0  0
 34 46  1  0  0  0  0
 35 47  1  0  0  0  0
 35 77  2  0  0  0  0
 36 47  1  0  0  0  0
 36 68  1  0  0  0  0
 36 78  2  0  0  0  0
 37 85  1  0  0  0  0
 38 72  1  0  0  0  0
 38 79  2  0  0  0  0
 39 55  1  0  0  0  0
 39 74  1  0  0  0  0
 39 80  2  0  0  0  0
 40 63  1  0  0  0  0
 40 69  1  0  0  0  0
 40 81  2  0  0  0  0
 41 64  1  0  0  0  0
 41 75  1  0  0  0  0
 41 82  2  0  0  0  0
 42 70  1  0  0  0  0
 42 73  1  0  0  0  0
 42 83  2  0  0  0  0
 43 48  1  0  0  0  0
 44 55  1  0  0  0  0
 45 69  1  0  0  0  0
 46 68  1  0  0  0  0
 48 50  1  0  0  0  0
 49 51  1  0  0  0  0
 49 52  1  0  0  0  0
 50 54  1  0  0  0  0
 51 56  1  0  0  0  0
 52 70  1  0  0  0  0
 53 56  1  0  0  0  0
 53 70  1  0  0  0  0
 54 74  1  0  0  0  0
 55 69  1  0  0  0  0
 56 67  1  0  0  0  0
 58 64  1  0  0  0  0
 59 65  1  0  0  0  0
 60 65  1  0  0  0  0
 61 65  1  0  0  0  0
 62 76  1  0  0  0  0
 63 65  1  0  0  0  0
 63 75  1  0  0  0  0
 64 76  1  0  0  0  0
 66 67  1  0  0  0  0
M  CHG  1  76   1
M  ISO  4  37 101  42 100  73 100  85 101
M  END
> <Batch ID>
0071

> <Smiles>
CNC(C)C(=O)NC(C(=O)N1Cc2cc([101O:1][101CH:1]=C3CN(c4ccc(C)c([100NH:0][100C:0](=O)N5CCCC(n6nc(-c7ccc(Oc8ccc(F)cc8F)cc7)c(C(N)=O)c6N)C5)c4)C(=O)CC3=O)ccc2CC1C(=O)NC1CCCc2ccccc21)C(C)(C)C

> <Shape>
0.268

> <Color>
0.073

> <Negative vol penalty>
0.000

$$$$

  -OEChem-04042323353D

 91100  0     1  0  0  0  0  0999 V2000
  -17.1140  -26.4956   26.1802 C   0  0  0  0  0  0  0  0  0  0  0  0
  -18.0629  -25.5663   25.7661 C   0  0  0  0  0  0  0  0  0  0  0  0
  -30.7249  -19.8054   18.9772 C   0  0  0  0  0  0  0  0  0  0  0  0
  -29.2605  -20.1106   20.8744 C   0  0  0  0  0  0  0  0  0  0  0  0
  -16.9629  -27.6937   25.4834 C   0  0  0  0  0  0  0  0  0  0  0  0
  -18.8605  -25.8342   24.6542 C   0  0  0  0  0  0  0  0  0  0  0  0
  -23.7323  -24.6961   25.4386 C   0  0  0  0  0  0  0  0  0  0  0  0
  -30.4094  -21.0875   18.5275 C   0  0  0  0  0  0  0  0  0  0  0  0
  -28.9450  -21.3928   20.4247 C   0  0  0  0  0  0  0  0  0  0  0  0
  -24.0921  -23.3513   25.3636 C   0  0  0  0  0  0  0  0  0  0  0  0
  -30.2677  -24.4159   17.0725 C   0  0  0  0  0  0  0  0  0  0  0  0
  -31.3160  -25.2268   16.6377 C   0  0  0  0  0  0  0  0  0  0  0  0
  -24.9178  -23.7032   23.1245 C   0  0  0  0  0  0  0  0  0  0  0  0
  -22.0507  -15.0752   21.4461 C   0  0  0  0  0  0  0  0  0  0  0  0
  -32.3345  -25.0821   18.8238 C   0  0  0  0  0  0  0  0  0  0  0  0
  -23.3937  -12.7704   20.8715 C   0  0  0  0  0  0  0  0  0  0  0  0
  -30.1503  -19.3169   20.1507 C   0  0  0  0  0  0  0  0  0  0  0  0
  -31.5230  -17.6291   21.4828 C   0  0  0  0  0  0  0  0  0  0  0  0
  -17.7657  -27.9807   24.3682 C   0  0  0  0  0  0  0  0  0  0  0  0
  -23.9530  -25.5537   24.3512 C   0  0  0  0  0  0  0  0  0  0  0  0
  -18.7191  -27.0368   23.9410 C   0  0  0  0  0  0  0  0  0  0  0  0
  -24.5623  -25.0592   23.1892 C   0  0  0  0  0  0  0  0  0  0  0  0
  -23.4253  -15.1196   21.2412 C   0  0  0  0  0  0  0  0  0  0  0  0
  -24.1170  -13.9497   20.9480 C   0  0  0  0  0  0  0  0  0  0  0  0
  -29.5195  -21.8812   19.2512 C   0  0  0  0  0  0  0  0  0  0  0  0
  -24.6823  -22.8540   24.2054 C   0  0  0  0  0  0  0  0  0  0  0  0
  -30.2527  -23.9381   18.3829 C   0  0  0  0  0  0  0  0  0  0  0  0
  -32.3494  -25.5599   17.5134 C   0  0  0  0  0  0  0  0  0  0  0  0
  -31.2861  -24.2712   19.2585 C   0  0  0  0  0  0  0  0  0  0  0  0
  -30.4754  -17.9924   20.6155 C   0  0  0  0  0  0  0  0  0  0  0  0
  -21.4198  -13.8455   21.3472 C   0  0  0  0  0  0  0  0  0  0  0  0
  -31.4050  -16.2668   21.6120 C   0  0  0  0  0  0  0  0  0  0  0  0
  -17.8743  -13.0432   21.6222 C   0  0  0  0  0  0  0  0  0  0  0  0
  -19.3179  -12.6609   21.4847 C   0  0  0  0  0  0  0  0  0  0  0  0
  -16.8219  -12.2407   21.7994 C   0  0  0  0  0  0  0  0  0  0  0  0
  -32.5141  -18.4497   22.1153 C   0  0  0  0  0  0  0  0  0  0  0  0
  -22.0892  -27.2865   22.4467 C   0  0  0  0  0  0  0  0  0  0  0  0
  -24.6621  -19.4614   22.9457 C   0  0  0  0  0  0  0  0  0  0  0  0
  -24.9255  -28.3649   21.3002 C   0  0  0  0  0  0  0  0  0  0  0  0
  -23.5426  -17.6020   21.6252 C   0  0  0  0  0  0  0  0  0  0  0  0
  -28.3513  -27.9208   20.2589 C   0  0  0  0  0  0  0  0  0  0  0  0
  -26.3267  -12.8392   20.4341 C   0  0  0  0  0  0  0  0  0  0  0  0
  -17.5334  -29.2686   23.6186 C   0  0  0  0  0  0  0  0  0  0  0  0
  -23.5837  -27.0079   24.4579 C   0  0  0  0  0  0  0  0  0  0  0  0
  -24.8393  -25.9429   22.0014 C   0  0  0  0  0  0  0  0  0  0  0  0
  -17.8204  -14.5422   21.5720 C   0  0  0  0  0  0  0  0  0  0  0  0
  -18.6753  -29.6390   22.6756 C   0  0  0  0  0  0  0  0  0  0  0  0
  -29.7093  -12.5752   18.9689 C   0  0  0  0  0  0  0  0  0  0  0  0
  -19.1017  -28.4279   21.8520 C   0  0  0  0  0  0  0  0  0  0  0  0
  -30.4931  -13.7797   19.4924 C   0  0  0  0  0  0  0  0  0  0  0  0
  -19.2508  -14.9551   21.9044 C   0  0  0  0  0  0  0  0  0  0  0  0
  -28.6437  -12.0931   19.9435 C   0  0  0  0  0  0  0  0  0  0  0  0
  -28.2523  -14.5148   20.4466 C   0  0  0  0  0  0  0  0  0  0  0  0
  -19.6202  -27.3018   22.7545 C   0  0  1  0  0  0  0  0  0  0  0  0
  -23.3851  -27.6750   23.1004 C   0  0  1  0  0  0  0  0  0  0  0  0
  -29.7770  -14.5141   20.6381 C   0  0  2  0  0  0  0  0  0  0  0  0
  -30.0443  -29.5932   19.4625 C   0  0  0  0  0  0  0  0  0  0  0  0
  -23.9507  -27.5920   18.5141 C   0  0  0  0  0  0  0  0  0  0  0  0
  -26.3181  -27.7566   17.7161 C   0  0  0  0  0  0  0  0  0  0  0  0
  -25.1671  -29.7743   18.6256 C   0  0  0  0  0  0  0  0  0  0  0  0
  -30.3042  -27.1017   22.3263 C   0  0  0  0  0  0  0  0  0  0  0  0
  -24.5841  -18.7043   21.6363 C   0  0  0  0  0  0  0  0  0  0  0  0
  -25.0018  -20.9344   22.8383 C   0  0  0  0  0  0  0  0  0  1  0  0
  -25.8711  -27.9310   20.2063 C   0  0  1  0  0  0  0  0  0  0  0  0
  -29.5382  -28.7842   20.6466 C   0  0  2  0  0  0  0  0  0  0  0  0
  -25.3199  -28.2461   18.7870 C   0  0  0  0  0  0  0  0  0  0  0  0
  -22.0581  -12.6879   21.0643 N   0  0  0  0  0  0  0  0  0  0  0  0
  -29.7457  -16.9454   20.2214 N   0  0  0  0  0  0  0  0  0  0  0  0
  -30.3358  -15.9107   20.8438 N   0  0  0  0  0  0  0  0  0  0  0  0
  -20.0611  -13.7746   21.5476 N   0  0  0  0  0  0  0  0  0  0  0  0
  -24.4542  -27.3559   22.1520 N   0  0  0  0  0  0  0  0  0  0  0  0
  -27.6967  -13.1614   20.2757 N   0  0  0  0  0  0  0  0  0  0  0  0
  -32.1127  -15.3506   22.3065 N   0  0  0  0  0  0  0  0  0  0  0  0
  -32.4913  -19.8302   21.8746 N   0  0  0  0  0  0  0  0  0  0  0  0
  -24.0967  -16.3623   21.3347 N   0  0  0  0  0  0  0  0  0  0  0  0
  -25.5175  -13.9385   20.7321 N   0  0  0  0  0  0  0  0  0  0  0  0
  -20.9683  -27.5884   23.1962 N   0  0  0  0  0  0  0  0  0  0  0  0
  -27.1538  -28.5597   20.5023 N   0  0  0  0  0  0  0  0  0  0  0  0
  -19.6479  -11.3829   21.3428 N   0  3  0  0  0  0  0  0  0  0  0  0
  -30.6554  -27.9343   21.1471 N   0  3  0  0  0  0  0  0  0  0  0  0
  -33.4040  -17.9707   22.8584 O   0  0  0  0  0  0  0  0  0  0  0  0
  -22.1050  -26.7536   21.3433 O   0  0  0  0  0  0  0  0  0  0  0  0
  -24.4696  -18.9155   24.0312 O   0  0  0  0  0  0  0  0  0  0  0  0
  -24.6221  -29.5564   21.3998 O   0  0  0  0  0  0  0  0  0  0  0  0
  -22.3693  -17.8572   21.8835 O   0  0  0  0  0  0  0  0  0  0  0  0
  -28.4742  -26.7940   19.7838 O   0  0  0  0  0  0  0  0  0  0  0  0
  -25.9131  -11.6855   20.2996 O   0  0  0  0  0  0  0  0  0  0  0  0
  -29.2117  -23.1324   18.8127 O   0  0  0  0  0  0  0  0  0  0  0  0
  -25.0338  -21.5415   24.1293 O   0  0  0  0  0  0  0  0  0  1  0  0
  -33.3568  -26.3375   17.0953 F   0  0  0  0  0  0  0  0  0  0  0  0
  -31.2778  -23.8142   20.5183 F   0  0  0  0  0  0  0  0  0  0  0  0
  1  2  1  0  0  0  0
  1  5  2  0  0  0  0
  2  6  2  0  0  0  0
  3  8  2  0  0  0  0
  3 17  1  0  0  0  0
  4  9  1  0  0  0  0
  4 17  2  0  0  0  0
  5 19  1  0  0  0  0
  6 21  1  0  0  0  0
  7 10  2  0  0  0  0
  7 20  1  0  0  0  0
  8 25  1  0  0  0  0
  9 25  2  0  0  0  0
 10 26  1  0  0  0  0
 11 12  2  0  0  0  0
 11 27  1  0  0  0  0
 12 28  1  0  0  0  0
 13 22  1  0  0  0  0
 13 26  2  0  0  0  0
 14 23  2  0  0  0  0
 14 31  1  0  0  0  0
 15 28  2  0  0  0  0
 15 29  1  0  0  0  0
 16 24  2  0  0  0  0
 16 67  1  0  0  0  0
 17 30  1  0  0  0  0
 18 30  1  0  0  0  0
 18 32  2  0  0  0  0
 18 36  1  0  0  0  0
 19 21  2  0  0  0  0
 19 43  1  0  0  0  0
 20 22  2  0  0  0  0
 20 44  1  0  0  0  0
 21 54  1  0  0  0  0
 22 45  1  0  0  0  0
 23 24  1  0  0  0  0
 23 75  1  0  0  0  0
 24 76  1  0  0  0  0
 25 88  1  0  0  0  0
 26 89  1  0  0  0  0
 27 29  2  0  0  0  0
 27 88  1  0  0  0  0
 28 90  1  0  0  0  0
 29 91  1  0  0  0  0
 30 68  2  0  0  0  0
 31 67  2  0  0  0  0
 31 70  1  0  0  0  0
 32 69  1  0  0  0  0
 32 73  1  0  0  0  0
 33 34  1  0  0  0  0
 33 35  2  0  0  0  0
 33 46  1  0  0  0  0
 34 70  1  0  0  0  0
 34 79  2  0  0  0  0
 36 74  1  0  0  0  0
 36 81  2  0  0  0  0
 37 55  1  0  0  0  0
 37 77  1  0  0  0  0
 37 82  2  0  0  0  0
 38 62  1  0  0  0  0
 38 63  1  0  0  0  0
 38 83  2  0  0  0  0
 39 64  1  0  0  0  0
 39 71  1  0  0  0  0
 39 84  2  0  0  0  0
 40 62  1  0  0  0  0
 40 75  1  0  0  0  0
 40 85  2  0  0  0  0
 41 65  1  0  0  0  0
 41 78  1  0  0  0  0
 41 86  2  0  0  0  0
 42 72  1  0  0  0  0
 42 76  1  0  0  0  0
 42 87  2  0  0  0  0
 43 47  1  0  0  0  0
 44 55  1  0  0  0  0
 45 71  1  0  0  0  0
 46 51  1  0  0  0  0
 47 49  1  0  0  0  0
 48 50  1  0  0  0  0
 48 52  1  0  0  0  0
 49 54  1  0  0  0  0
 50 56  1  0  0  0  0
 51 70  1  0  0  0  0
 52 72  1  0  0  0  0
 53 56  1  0  0  0  0
 53 72  1  0  0  0  0
 54 77  1  0  0  0  0
 55 71  1  0  0  0  0
 56 69  1  0  0  0  0
 57 65  1  0  0  0  0
 58 66  1  0  0  0  0
 59 66  1  0  0  0  0
 60 66  1  0  0  0  0
 61 80  1  0  0  0  0
 63 89  1  0  0  0  0
 64 66  1  0  0  0  0
 64 78  1  0  0  0  0
 65 80  1  0  0  0  0
 68 69  1  0  0  0  0
M  CHG  2  79   1  80   1
M  ISO  4  42 100  63 101  76 100  89 101
M  END
> <Batch ID>
0071

> <Smiles>
C=C1CCN(c2cc(NC(=O)CC(=O)[101CH2:1][101O:1]c3ccc4c(c3)CN(C(=O)C(NC(=O)C(C)NC)C(C)(C)C)C(C(=O)NC3CCCc5ccccc53)C4)c([100NH:0][100C:0](=O)N3CCCC(n4nc(-c5ccc(Oc6ccc(F)cc6F)cc5)c(C(N)=O)c4N)C3)cn2)C1=N

> <Shape>
0.263

> <Color>
0.076

> <Negative vol penalty>
0.000

$$$$

  -OEChem-04042323353D

 85 93  0     1  0  0  0  0  0999 V2000
  -24.4352  -21.1768   20.2996 C   0  0  0  0  0  0  0  0  0  0  0  0
  -25.4840  -21.0150   21.1992 C   0  0  0  0  0  0  0  0  0  0  0  0
  -23.0020   -9.8906   19.9847 C   0  0  0  0  0  0  0  0  0  0  0  0
  -23.7241   -9.9489   22.2895 C   0  0  0  0  0  0  0  0  0  0  0  0
  -24.1115  -22.4488   19.8294 C   0  0  0  0  0  0  0  0  0  0  0  0
  -26.2105  -22.1251   21.6283 C   0  0  0  0  0  0  0  0  0  0  0  0
  -27.0261  -22.0997   26.6262 C   0  0  0  0  0  0  0  0  0  0  0  0
  -22.2356   -8.7567   20.2535 C   0  0  0  0  0  0  0  0  0  0  0  0
  -22.9576   -8.8150   22.5584 C   0  0  0  0  0  0  0  0  0  0  0  0
  -28.0355  -21.2641   27.1024 C   0  0  0  0  0  0  0  0  0  0  0  0
  -23.2037   -5.4747   22.0971 C   0  0  0  0  0  0  0  0  0  0  0  0
  -23.7906   -4.4600   22.8531 C   0  0  0  0  0  0  0  0  0  0  0  0
  -30.4655  -18.3571   23.9791 C   0  0  0  0  0  0  0  0  0  0  0  0
  -29.5267  -23.1551   27.2420 C   0  0  0  0  0  0  0  0  0  0  0  0
  -32.0534  -16.5570   22.5575 C   0  0  0  0  0  0  0  0  0  0  0  0
  -22.0644   -4.7075   24.5252 C   0  0  0  0  0  0  0  0  0  0  0  0
  -23.7464  -10.4867   21.0027 C   0  0  0  0  0  0  0  0  0  0  0  0
  -31.8488  -18.3553   24.1579 C   0  0  0  0  0  0  0  0  0  0  0  0
  -24.1310  -13.0019   20.8195 C   0  0  0  0  0  0  0  0  0  0  0  0
  -24.8282  -23.5763   20.2605 C   0  0  0  0  0  0  0  0  0  0  0  0
  -27.2632  -23.4697   26.4437 C   0  0  0  0  0  0  0  0  0  0  0  0
  -25.8970  -23.4133   21.1624 C   0  0  0  0  0  0  0  0  0  0  0  0
  -28.5179  -24.0064   26.7658 C   0  0  0  0  0  0  0  0  0  0  0  0
  -32.6428  -17.4553   23.4471 C   0  0  0  0  0  0  0  0  0  0  0  0
  -30.6700  -16.5587   22.3787 C   0  0  0  0  0  0  0  0  0  0  0  0
  -22.2133   -8.2189   21.5403 C   0  0  0  0  0  0  0  0  0  0  0  0
  -29.2869  -21.7913   27.4076 C   0  0  0  0  0  0  0  0  0  0  0  0
  -22.0472   -6.1058   22.5551 C   0  0  0  0  0  0  0  0  0  0  0  0
  -23.2210   -4.0764   24.0672 C   0  0  0  0  0  0  0  0  0  0  0  0
  -29.8760  -17.4587   23.0895 C   0  0  0  0  0  0  0  0  0  0  0  0
  -21.4775   -5.7222   23.7692 C   0  0  0  0  0  0  0  0  0  0  0  0
  -24.5388  -11.6578   20.7256 C   0  0  0  0  0  0  0  0  0  0  0  0
  -25.2410  -13.7238   20.4544 C   0  0  0  0  0  0  0  0  0  0  0  0
  -32.4491  -19.3205   25.1145 C   0  0  0  0  0  0  0  0  0  0  0  0
  -22.8623  -13.5490   21.2026 C   0  0  0  0  0  0  0  0  0  0  0  0
  -27.2382  -25.4375   23.9475 C   0  0  0  0  0  0  0  0  0  0  0  0
  -27.6991  -27.7028   26.2231 C   0  0  0  0  0  0  0  0  0  0  0  0
  -28.8159  -28.4804   29.3528 C   0  0  0  0  0  0  0  0  0  0  0  0
  -30.7198  -14.6875   20.6927 C   0  0  0  0  0  0  0  0  0  0  0  0
  -24.4719  -24.9254   19.6881 C   0  0  0  0  0  0  0  0  0  0  0  0
  -26.1557  -24.3622   25.9545 C   0  0  0  0  0  0  0  0  0  0  0  0
  -28.8172  -25.4739   26.6068 C   0  0  0  0  0  0  0  0  0  0  0  0
  -25.0500  -26.0951   20.4804 C   0  0  0  0  0  0  0  0  0  0  0  0
  -29.6056  -12.2271   18.3729 C   0  0  0  0  0  0  0  0  0  0  0  0
  -26.5206  -25.8478   20.8013 C   0  0  0  0  0  0  0  0  0  0  0  0
  -28.1545  -11.9702   18.7859 C   0  0  0  0  0  0  0  0  0  0  0  0
  -30.5044  -12.4746   19.5831 C   0  0  0  0  0  0  0  0  0  0  0  0
  -28.5869  -13.2668   20.9116 C   0  0  0  0  0  0  0  0  0  0  0  0
  -26.6926  -24.5961   21.6704 C   0  0  1  0  0  0  0  0  0  0  0  0
  -26.6647  -25.6526   25.3196 C   0  0  1  0  0  0  0  0  0  0  0  0
  -27.6309  -13.0765   19.7227 C   0  0  2  0  0  0  0  0  0  0  0  0
  -34.1268  -17.4326   23.6187 C   0  0  0  0  0  0  0  0  0  0  0  0
  -29.0971  -30.4214   30.9183 C   0  0  0  0  0  0  0  0  0  0  0  0
  -32.5320  -19.3549   28.8010 C   0  0  0  0  0  0  0  0  0  0  0  0
  -30.1207  -28.6408   24.6213 C   0  0  0  0  0  0  0  0  0  0  0  0
  -30.8874  -29.8957   26.6474 C   0  0  0  0  0  0  0  0  0  0  0  0
  -28.7176  -30.4829   25.5659 C   0  0  0  0  0  0  0  0  0  0  0  0
  -27.0174  -27.2669   31.3657 C   0  0  0  0  0  0  0  0  0  0  0  0
  -31.6176  -21.3431   27.5590 C   0  0  0  0  0  0  0  0  0  1  0  0
  -28.9059  -28.3301   26.8782 C   0  0  1  0  0  0  0  0  0  0  0  0
  -28.1873  -29.2861   30.4753 C   0  0  2  0  0  0  0  0  0  0  0  0
  -32.4953  -20.0959   27.4709 C   0  0  2  0  0  0  0  0  0  0  0  0
  -29.6532  -29.3093   25.9295 C   0  0  0  0  0  0  0  0  0  0  0  0
  -25.8086  -11.5305   20.3315 N   0  0  0  0  0  0  0  0  0  0  0  0
  -26.2084  -12.8039   20.1745 N   0  0  0  0  0  0  0  0  0  0  0  0
  -27.7038  -26.3046   26.1193 N   0  0  0  0  0  0  0  0  0  0  0  0
  -29.9478  -13.5379   20.4224 N   0  0  0  0  0  0  0  0  0  0  0  0
  -25.4742  -15.0492   20.3485 N   0  0  0  0  0  0  0  0  0  0  0  0
  -21.8304  -12.6656   21.5475 N   0  0  0  0  0  0  0  0  0  0  0  0
  -30.0742  -15.6449   21.4745 N   0  0  0  0  0  0  0  0  0  0  0  0
  -32.0223  -19.2135   26.4286 N   0  0  0  0  0  0  0  0  0  0  0  0
  -26.3485  -24.8849   23.0461 N   0  0  0  0  0  0  0  0  0  0  0  0
  -28.4279  -28.9425   28.1130 N   0  0  0  0  0  0  0  0  0  0  0  0
  -27.9187  -28.4126   31.6525 N   0  3  0  0  0  0  0  0  0  0  0  0
  -33.2530  -20.1526   24.7023 O   0  0  0  0  0  0  0  0  0  0  0  0
  -22.6452  -14.7843   21.2223 O   0  0  0  0  0  0  0  0  0  0  0  0
  -28.4014  -25.7510   23.7229 O   0  0  0  0  0  0  0  0  0  0  0  0
  -26.7827  -28.4262   25.8249 O   0  0  0  0  0  0  0  0  0  0  0  0
  -29.5781  -27.5377   29.5555 O   0  0  0  0  0  0  0  0  0  0  0  0
  -31.8590  -14.8255   20.2398 O   0  0  0  0  0  0  0  0  0  0  0  0
  -21.4653   -7.1125   21.8030 O   0  0  0  0  0  0  0  0  0  0  0  0
  -30.2741  -20.9778   27.8719 O   0  0  0  0  0  0  0  0  0  1  0  0
  -23.7838   -3.1009   24.7923 F   0  0  0  0  0  0  0  0  0  0  0  0
  -28.5454  -17.4684   22.9262 F   0  0  0  0  0  0  0  0  0  0  0  0
  -20.3658   -6.3240   24.2139 F   0  0  0  0  0  0  0  0  0  0  0  0
  1  2  1  0  0  0  0
  1  5  2  0  0  0  0
  2  6  2  0  0  0  0
  3  8  2  0  0  0  0
  3 17  1  0  0  0  0
  4  9  1  0  0  0  0
  4 17  2  0  0  0  0
  5 20  1  0  0  0  0
  6 22  1  0  0  0  0
  7 10  2  0  0  0  0
  7 21  1  0  0  0  0
  8 26  1  0  0  0  0
  9 26  2  0  0  0  0
 10 27  1  0  0  0  0
 11 12  2  0  0  0  0
 11 28  1  0  0  0  0
 12 29  1  0  0  0  0
 13 18  1  0  0  0  0
 13 30  2  0  0  0  0
 14 23  1  0  0  0  0
 14 27  2  0  0  0  0
 15 24  1  0  0  0  0
 15 25  2  0  0  0  0
 16 29  2  0  0  0  0
 16 31  1  0  0  0  0
 17 32  1  0  0  0  0
 18 24  2  0  0  0  0
 18 34  1  0  0  0  0
 19 32  1  0  0  0  0
 19 33  2  0  0  0  0
 19 35  1  0  0  0  0
 20 22  2  0  0  0  0
 20 40  1  0  0  0  0
 21 23  2  0  0  0  0
 21 41  1  0  0  0  0
 22 49  1  0  0  0  0
 23 42  1  0  0  0  0
 24 52  1  0  0  0  0
 25 30  1  0  0  0  0
 25 70  1  0  0  0  0
 26 81  1  0  0  0  0
 27 82  1  0  0  0  0
 28 31  2  0  0  0  0
 28 81  1  0  0  0  0
 29 83  1  0  0  0  0
 30 84  1  0  0  0  0
 31 85  1  0  0  0  0
 32 64  2  0  0  0  0
 33 65  1  0  0  0  0
 33 68  1  0  0  0  0
 34 71  1  0  0  0  0
 34 75  2  0  0  0  0
 35 69  1  0  0  0  0
 35 76  2  0  0  0  0
 36 50  1  0  0  0  0
 36 72  1  0  0  0  0
 36 77  2  0  0  0  0
 37 60  1  0  0  0  0
 37 66  1  0  0  0  0
 37 78  2  0  0  0  0
 38 61  1  0  0  0  0
 38 73  1  0  0  0  0
 38 79  2  0  0  0  0
 39 67  1  0  0  0  0
 39 70  1  0  0  0  0
 39 80  2  0  0  0  0
 40 43  1  0  0  0  0
 41 50  1  0  0  0  0
 42 66  1  0  0  0  0
 43 45  1  0  0  0  0
 44 46  1  0  0  0  0
 44 47  1  0  0  0  0
 45 49  1  0  0  0  0
 46 51  1  0  0  0  0
 47 67  1  0  0  0  0
 48 51  1  0  0  0  0
 48 67  1  0  0  0  0
 49 72  1  0  0  0  0
 50 66  1  0  0  0  0
 51 65  1  0  0  0  0
 53 61  1  0  0  0  0
 54 62  1  0  0  0  0
 55 63  1  0  0  0  0
 56 63  1  0  0  0  0
 57 63  1  0  0  0  0
 58 74  1  0  0  0  0
 59 62  1  0  0  0  0
 59 82  1  0  0  0  0
 60 63  1  0  0  0  0
 60 73  1  0  0  0  0
 61 74  1  0  0  0  0
 62 71  1  0  0  0  0
 64 65  1  0  0  0  0
M  CHG  1  74   1
M  ISO  4  39 100  59 101  70 100  82 101
M  END
> <Batch ID>
0071

> <Smiles>
CNC(C)C(=O)NC(C(=O)N1Cc2cc([101O:1][101CH2:1]C(C)NC(=O)c3cc(F)c([100NH:0][100C:0](=O)N4CCCC(n5nc(-c6ccc(Oc7ccc(F)cc7F)cc6)c(C(N)=O)c5N)C4)cc3C)ccc2CC1C(=O)NC1CCCc2ccccc21)C(C)(C)C

> <Shape>
0.186

> <Color>
0.198

> <Negative vol penalty>
0.000

$$$$

  -OEChem-04042323353D

 86 95  0     1  0  0  0  0  0999 V2000
  -25.4489  -37.4561   24.8364 C   0  0  0  0  0  0  0  0  0  0  0  0
  -26.2081  -36.3005   24.6830 C   0  0  0  0  0  0  0  0  0  0  0  0
  -24.2511   -9.0123   21.5309 C   0  0  0  0  0  0  0  0  0  0  0  0
  -24.4126  -10.5441   23.3923 C   0  0  0  0  0  0  0  0  0  0  0  0
  -24.0579  -37.3737   24.8842 C   0  0  0  0  0  0  0  0  0  0  0  0
  -25.5768  -35.0615   24.5785 C   0  0  0  0  0  0  0  0  0  0  0  0
  -27.3881  -30.2792   21.2090 C   0  0  0  0  0  0  0  0  0  0  0  0
  -27.4173  -20.4457   19.9508 C   0  0  0  0  0  0  0  0  0  0  0  0
  -27.3674  -19.0695   19.7292 C   0  0  0  0  0  0  0  0  0  0  0  0
  -23.8724   -7.9920   22.4034 C   0  0  0  0  0  0  0  0  0  0  0  0
  -24.0338   -9.5238   24.2648 C   0  0  0  0  0  0  0  0  0  0  0  0
  -28.0931  -29.1197   21.5288 C   0  0  0  0  0  0  0  0  0  0  0  0
  -21.0732   -7.0168   24.0302 C   0  0  0  0  0  0  0  0  0  0  0  0
  -19.9990   -6.2095   23.6562 C   0  0  0  0  0  0  0  0  0  0  0  0
  -26.0102  -27.9275   21.7720 C   0  0  0  0  0  0  0  0  0  0  0  0
  -29.7815  -18.9772   19.7596 C   0  0  0  0  0  0  0  0  0  0  0  0
  -21.4354   -4.2680   23.7215 C   0  0  0  0  0  0  0  0  0  0  0  0
  -24.5213  -10.2883   22.0254 C   0  0  0  0  0  0  0  0  0  0  0  0
  -24.0671  -12.2463   20.4545 C   0  0  0  0  0  0  0  0  0  0  0  0
  -23.4088  -36.1341   24.7706 C   0  0  0  0  0  0  0  0  0  0  0  0
  -25.9862  -30.2743   21.1789 C   0  0  0  0  0  0  0  0  0  0  0  0
  -24.1758  -34.9623   24.6262 C   0  0  0  0  0  0  0  0  0  0  0  0
  -25.2898  -29.0876   21.4490 C   0  0  0  0  0  0  0  0  0  0  0  0
  -28.6492  -21.0877   20.0767 C   0  0  0  0  0  0  0  0  0  0  0  0
  -28.5495  -18.3352   19.6337 C   0  0  0  0  0  0  0  0  0  0  0  0
  -29.8313  -20.3535   19.9811 C   0  0  0  0  0  0  0  0  0  0  0  0
  -23.7637   -8.2478   23.7703 C   0  0  0  0  0  0  0  0  0  0  0  0
  -27.4042  -27.9444   21.8132 C   0  0  0  0  0  0  0  0  0  0  0  0
  -22.3286   -6.4498   24.2498 C   0  0  0  0  0  0  0  0  0  0  0  0
  -20.1801   -4.8351   23.5018 C   0  0  0  0  0  0  0  0  0  0  0  0
  -22.5097   -5.0753   24.0955 C   0  0  0  0  0  0  0  0  0  0  0  0
  -24.9131  -11.3425   21.1247 C   0  0  0  0  0  0  0  0  0  0  0  0
  -24.9200  -13.0407   19.7279 C   0  0  0  0  0  0  0  0  0  0  0  0
  -29.1344  -24.7096   20.0972 C   0  0  0  0  0  0  0  0  0  0  0  0
  -29.2816  -23.3690   19.4439 C   0  0  0  0  0  0  0  0  0  0  0  0
  -22.6380  -12.3579   20.4861 C   0  0  0  0  0  0  0  0  0  0  0  0
  -23.7027  -31.7938   22.7852 C   0  0  0  0  0  0  0  0  0  0  0  0
  -21.7584  -30.3188   20.6483 C   0  0  0  0  0  0  0  0  0  0  0  0
  -21.2727  -27.7283   18.4802 C   0  0  0  0  0  0  0  0  0  0  0  0
  -29.5770  -16.0610   19.2891 C   0  0  0  0  0  0  0  0  0  0  0  0
  -21.9049  -36.0899   24.8753 C   0  0  0  0  0  0  0  0  0  0  0  0
  -25.2411  -31.5266   20.8059 C   0  0  0  0  0  0  0  0  0  0  0  0
  -23.7855  -29.0245   21.4103 C   0  0  0  0  0  0  0  0  0  0  0  0
  -21.2981  -34.7792   24.3812 C   0  0  0  0  0  0  0  0  0  0  0  0
  -29.8663  -12.5503   18.7712 C   0  0  0  0  0  0  0  0  0  0  0  0
  -22.0651  -33.5888   24.9482 C   0  0  0  0  0  0  0  0  0  0  0  0
  -28.5339  -11.9974   19.2822 C   0  0  0  0  0  0  0  0  0  0  0  0
  -30.3553  -13.7241   19.6178 C   0  0  0  0  0  0  0  0  0  0  0  0
  -28.0649  -23.1128   21.4475 C   0  0  0  0  0  0  0  0  0  0  0  0
  -28.0504  -14.2574   20.3049 C   0  0  0  0  0  0  0  0  0  0  0  0
  -23.5267  -33.6027   24.4846 C   0  0  1  0  0  0  0  0  0  0  0  0
  -28.5720  -24.5571   21.4776 C   0  0  2  0  0  0  0  0  0  0  0  0
  -23.8006  -31.5368   21.3080 C   0  0  1  0  0  0  0  0  0  0  0  0
  -27.4852  -13.1152   19.4449 C   0  0  2  0  0  0  0  0  0  0  0  0
  -19.5694  -26.7696   16.9065 C   0  0  0  0  0  0  0  0  0  0  0  0
  -20.1765  -29.2377   23.0229 C   0  0  0  0  0  0  0  0  0  0  0  0
  -19.1233  -27.5752   21.4753 C   0  0  0  0  0  0  0  0  0  0  0  0
  -18.7751  -30.0172   21.1039 C   0  0  0  0  0  0  0  0  0  0  0  0
  -23.0735  -28.0460   16.1532 C   0  0  0  0  0  0  0  0  0  0  0  0
  -27.4849  -25.5678   21.7743 C   0  0  0  0  0  0  0  0  0  1  0  0
  -21.0322  -28.9962   20.5990 C   0  0  1  0  0  0  0  0  0  0  0  0
  -20.7686  -27.6939   17.0488 C   0  0  2  0  0  0  0  0  0  0  0  0
  -19.8051  -28.9579   21.5530 C   0  0  0  0  0  0  0  0  0  0  0  0
  -26.2044  -11.5431   20.8482 N   0  0  0  0  0  0  0  0  0  0  0  0
  -26.1761  -12.5821   19.9963 N   0  0  0  0  0  0  0  0  0  0  0  0
  -28.6744  -22.4603   20.2954 N   0  0  0  0  0  0  0  0  0  0  0  0
  -23.1020  -30.2767   21.0466 N   0  0  0  0  0  0  0  0  0  0  0  0
  -29.3112  -14.7455   19.7245 N   0  0  0  0  0  0  0  0  0  0  0  0
  -31.0901  -20.9838   20.1044 N   0  0  0  0  0  0  0  0  0  0  0  0
  -24.7105  -14.0797   18.8919 N   0  0  0  0  0  0  0  0  0  0  0  0
  -21.9154  -11.4616   21.2854 N   0  0  0  0  0  0  0  0  0  0  0  0
  -28.4987  -16.9371   19.4092 N   0  0  0  0  0  0  0  0  0  0  0  0
  -23.6285  -33.1325   23.1196 N   0  0  0  0  0  0  0  0  0  0  0  0
  -20.7063  -28.7615   19.1964 N   0  0  0  0  0  0  0  0  0  0  0  0
  -21.8423  -27.2150   16.1329 N   0  3  0  0  0  0  0  0  0  0  0  0
  -29.4769  -25.7285   19.5321 O   0  0  0  0  0  0  0  0  0  0  0  0
  -29.8388  -23.2296   18.3751 O   0  0  0  0  0  0  0  0  0  0  0  0
  -22.0191  -13.2160   19.8123 O   0  0  0  0  0  0  0  0  0  0  0  0
  -23.6935  -30.8475   23.5638 O   0  0  0  0  0  0  0  0  0  0  0  0
  -21.1576  -31.3505   20.3377 O   0  0  0  0  0  0  0  0  0  0  0  0
  -22.0848  -26.9174   18.9202 O   0  0  0  0  0  0  0  0  0  0  0  0
  -30.6715  -16.3798   18.8173 O   0  0  0  0  0  0  0  0  0  0  0  0
  -23.3939   -7.2525   24.6219 O   0  0  0  0  0  0  0  0  0  0  0  0
  -28.0898  -26.8114   22.1263 O   0  0  0  0  0  0  0  0  0  1  0  0
  -19.1481   -4.0598   23.1441 F   0  0  0  0  0  0  0  0  0  0  0  0
  -23.7131   -4.5247   24.3063 F   0  0  0  0  0  0  0  0  0  0  0  0
  1  2  1  0  0  0  0
  1  5  2  0  0  0  0
  2  6  2  0  0  0  0
  3 10  2  0  0  0  0
  3 18  1  0  0  0  0
  4 11  1  0  0  0  0
  4 18  2  0  0  0  0
  5 20  1  0  0  0  0
  6 22  1  0  0  0  0
  7 12  2  0  0  0  0
  7 21  1  0  0  0  0
  8  9  2  0  0  0  0
  8 24  1  0  0  0  0
  9 25  1  0  0  0  0
 10 27  1  0  0  0  0
 11 27  2  0  0  0  0
 12 28  1  0  0  0  0
 13 14  2  0  0  0  0
 13 29  1  0  0  0  0
 14 30  1  0  0  0  0
 15 23  1  0  0  0  0
 15 28  2  0  0  0  0
 16 25  2  0  0  0  0
 16 26  1  0  0  0  0
 17 30  2  0  0  0  0
 17 31  1  0  0  0  0
 18 32  1  0  0  0  0
 19 32  1  0  0  0  0
 19 33  2  0  0  0  0
 19 36  1  0  0  0  0
 20 22  2  0  0  0  0
 20 41  1  0  0  0  0
 21 23  2  0  0  0  0
 21 42  1  0  0  0  0
 22 51  1  0  0  0  0
 23 43  1  0  0  0  0
 24 26  2  0  0  0  0
 24 66  1  0  0  0  0
 25 72  1  0  0  0  0
 26 69  1  0  0  0  0
 27 83  1  0  0  0  0
 28 84  1  0  0  0  0
 29 31  2  0  0  0  0
 29 83  1  0  0  0  0
 30 85  1  0  0  0  0
 31 86  1  0  0  0  0
 32 64  2  0  0  0  0
 33 65  1  0  0  0  0
 33 70  1  0  0  0  0
 34 35  1  0  0  0  0
 34 52  1  0  0  0  0
 34 76  2  0  0  0  0
 35 66  1  0  0  0  0
 35 77  2  0  0  0  0
 36 71  1  0  0  0  0
 36 78  2  0  0  0  0
 37 53  1  0  0  0  0
 37 73  1  0  0  0  0
 37 79  2  0  0  0  0
 38 61  1  0  0  0  0
 38 67  1  0  0  0  0
 38 80  2  0  0  0  0
 39 62  1  0  0  0  0
 39 74  1  0  0  0  0
 39 81  2  0  0  0  0
 40 68  1  0  0  0  0
 40 72  1  0  0  0  0
 40 82  2  0  0  0  0
 41 44  1  0  0  0  0
 42 53  1  0  0  0  0
 43 67  1  0  0  0  0
 44 46  1  0  0  0  0
 45 47  1  0  0  0  0
 45 48  1  0  0  0  0
 46 51  1  0  0  0  0
 47 54  1  0  0  0  0
 48 68  1  0  0  0  0
 49 52  1  0  0  0  0
 49 66  1  0  0  0  0
 50 54  1  0  0  0  0
 50 68  1  0  0  0  0
 51 73  1  0  0  0  0
 52 60  1  0  0  0  0
 53 67  1  0  0  0  0
 54 65  1  0  0  0  0
 55 62  1  0  0  0  0
 56 63  1  0  0  0  0
 57 63  1  0  0  0  0
 58 63  1  0  0  0  0
 59 75  1  0  0  0  0
 60 84  1  0  0  0  0
 61 63  1  0  0  0  0
 61 74  1  0  0  0  0
 62 75  1  0  0  0  0
 64 65  1  0  0  0  0
M  CHG  1  75   1
M  ISO  4  40 100  60 101  72 100  84 101
M  END
> <Batch ID>
0071

> <Smiles>
CNC(C)C(=O)NC(C(=O)N1Cc2cc([101O:1][101CH2:1]C3CN(c4ccc([100NH:0][100C:0](=O)N5CCCC(n6nc(-c7ccc(Oc8ccc(F)cc8F)cc7)c(C(N)=O)c6N)C5)cc4N)C(=O)C3=O)ccc2CC1C(=O)NC1CCCc2ccccc21)C(C)(C)C

> <Shape>
0.330

> <Color>
0.092

> <Negative vol penalty>
0.000

$$$$

  -OEChem-04042323353D

 83 91  0     1  0  0  0  0  0999 V2000
  -23.9349   -8.0447   22.0635 C   0  0  0  0  0  0  0  0  0  0  0  0
  -24.6216   -9.0687   21.4192 C   0  0  0  0  0  0  0  0  0  0  0  0
  -21.9887  -28.3495   21.3623 C   0  0  0  0  0  0  0  0  0  0  0  0
  -22.9554  -27.3724   23.3492 C   0  0  0  0  0  0  0  0  0  0  0  0
  -22.5754   -8.1845   22.3394 C   0  0  0  0  0  0  0  0  0  0  0  0
  -23.9489  -10.2328   21.0493 C   0  0  0  0  0  0  0  0  0  0  0  0
  -26.5555  -14.4251   22.1783 C   0  0  0  0  0  0  0  0  0  0  0  0
  -20.7177  -28.2387   21.9262 C   0  0  0  0  0  0  0  0  0  0  0  0
  -21.6844  -27.2616   23.9131 C   0  0  0  0  0  0  0  0  0  0  0  0
  -27.6053  -14.7704   21.3283 C   0  0  0  0  0  0  0  0  0  0  0  0
  -18.8474  -29.9026   24.1992 C   0  0  0  0  0  0  0  0  0  0  0  0
  -17.9938  -31.0007   24.0945 C   0  0  0  0  0  0  0  0  0  0  0  0
  -26.1856  -16.3906   20.2427 C   0  0  0  0  0  0  0  0  0  0  0  0
  -30.0151  -19.9872   23.0567 C   0  0  0  0  0  0  0  0  0  0  0  0
  -29.2942  -22.2906   22.9501 C   0  0  0  0  0  0  0  0  0  0  0  0
  -29.5407  -21.0067   20.9184 C   0  0  0  0  0  0  0  0  0  0  0  0
  -16.4000  -29.6465   22.8850 C   0  0  0  0  0  0  0  0  0  0  0  0
  -23.1075  -27.9163   22.0738 C   0  0  0  0  0  0  0  0  0  0  0  0
  -25.3059  -29.1194   21.5970 C   0  0  0  0  0  0  0  0  0  0  0  0
  -21.8878   -9.3548   21.9814 C   0  0  0  0  0  0  0  0  0  0  0  0
  -25.3075  -15.0534   22.0595 C   0  0  0  0  0  0  0  0  0  0  0  0
  -22.5786  -10.3878   21.3194 C   0  0  0  0  0  0  0  0  0  0  0  0
  -25.1223  -16.0533   21.0941 C   0  0  0  0  0  0  0  0  0  0  0  0
  -29.6926  -21.1830   23.6984 C   0  0  0  0  0  0  0  0  0  0  0  0
  -29.9392  -19.8991   21.6667 C   0  0  0  0  0  0  0  0  0  0  0  0
  -29.2182  -22.2025   21.5600 C   0  0  0  0  0  0  0  0  0  0  0  0
  -20.5656  -27.6948   23.2016 C   0  0  0  0  0  0  0  0  0  0  0  0
  -27.4196  -15.7512   20.3585 C   0  0  0  0  0  0  0  0  0  0  0  0
  -18.4773  -28.6763   23.6467 C   0  0  0  0  0  0  0  0  0  0  0  0
  -16.7701  -30.8727   23.4374 C   0  0  0  0  0  0  0  0  0  0  0  0
  -17.2536  -28.5483   22.9897 C   0  0  0  0  0  0  0  0  0  0  0  0
  -24.4207  -28.0299   21.4916 C   0  0  0  0  0  0  0  0  0  0  0  0
  -26.4088  -28.7370   20.8733 C   0  0  0  0  0  0  0  0  0  0  0  0
  -25.1456  -30.3658   22.2874 C   0  0  0  0  0  0  0  0  0  0  0  0
  -22.3594  -14.0757   21.3836 C   0  0  0  0  0  0  0  0  0  0  0  0
  -21.5965  -17.1475   22.0940 C   0  0  0  0  0  0  0  0  0  0  0  0
  -30.2464  -18.4231   19.6490 C   0  0  0  0  0  0  0  0  0  0  0  0
  -22.6018  -20.3994   22.3414 C   0  0  0  0  0  0  0  0  0  0  0  0
  -28.6869  -23.4093   19.4134 C   0  0  0  0  0  0  0  0  0  0  0  0
  -20.4077   -9.4407   22.2582 C   0  0  0  0  0  0  0  0  0  0  0  0
  -24.1931  -14.6884   23.0016 C   0  0  0  0  0  0  0  0  0  0  0  0
  -23.8079  -16.7721   20.9389 C   0  0  0  0  0  0  0  0  0  0  0  0
  -19.8527  -10.8599   22.1687 C   0  0  0  0  0  0  0  0  0  0  0  0
  -27.6867  -25.9851   17.1681 C   0  0  0  0  0  0  0  0  0  0  0  0
  -20.3608  -11.5534   20.9086 C   0  0  0  0  0  0  0  0  0  0  0  0
  -26.8212  -26.9042   18.0331 C   0  0  0  0  0  0  0  0  0  0  0  0
  -27.4941  -24.5146   17.5345 C   0  0  0  0  0  0  0  0  0  0  0  0
  -26.8099  -25.1196   19.8225 C   0  0  0  0  0  0  0  0  0  0  0  0
  -21.8893  -11.6759   20.9247 C   0  0  1  0  0  0  0  0  0  0  0  0
  -22.8111  -15.0296   22.4530 C   0  0  1  0  0  0  0  0  0  0  0  0
  -27.0181  -26.6153   19.5342 C   0  0  2  0  0  0  0  0  0  0  0  0
  -29.7753  -21.2771   25.1848 C   0  0  0  0  0  0  0  0  0  0  0  0
  -21.7447  -22.6884   22.9098 C   0  0  0  0  0  0  0  0  0  0  0  0
  -20.2065  -17.2978   19.3819 C   0  0  0  0  0  0  0  0  0  0  0  0
  -20.2151  -19.7925   19.5939 C   0  0  0  0  0  0  0  0  0  0  0  0
  -18.9688  -18.4059   21.2513 C   0  0  0  0  0  0  0  0  0  0  0  0
  -24.4920  -20.6725   24.6023 C   0  0  0  0  0  0  0  0  0  0  0  0
  -30.6714  -16.9849   19.3756 C   0  0  0  0  0  0  0  0  0  0  0  0
  -29.7674  -15.9579   20.0405 C   0  0  0  0  0  0  0  0  0  1  0  0
  -21.4963  -18.4331   21.3090 C   0  0  1  0  0  0  0  0  0  0  0  0
  -22.4153  -21.4306   23.4397 C   0  0  2  0  0  0  0  0  0  0  0  0
  -20.2460  -18.4676   20.3854 C   0  0  0  0  0  0  0  0  0  0  0  0
  -24.9182  -27.0303   20.7586 N   0  0  0  0  0  0  0  0  0  0  0  0
  -26.1280  -27.4903   20.3967 N   0  0  0  0  0  0  0  0  0  0  0  0
  -22.7471  -16.3755   21.8795 N   0  0  0  0  0  0  0  0  0  0  0  0
  -27.7006  -24.3159   18.9707 N   0  0  0  0  0  0  0  0  0  0  0  0
  -27.5817  -29.3488   20.6044 N   0  0  0  0  0  0  0  0  0  0  0  0
  -23.9499  -30.5961   22.9815 N   0  0  0  0  0  0  0  0  0  0  0  0
  -30.2666  -18.6857   21.0162 N   0  0  0  0  0  0  0  0  0  0  0  0
  -28.8148  -23.3281   20.7997 N   0  0  0  0  0  0  0  0  0  0  0  0
  -22.3006  -12.7575   21.7938 N   0  0  0  0  0  0  0  0  0  0  0  0
  -21.5462  -19.5139   22.2877 N   0  0  0  0  0  0  0  0  0  0  0  0
  -23.7332  -21.8106   24.0226 N   0  3  0  0  0  0  0  0  0  0  0  0
  -26.0295  -31.2557   22.2751 O   0  0  0  0  0  0  0  0  0  0  0  0
  -22.0832  -14.5042   20.2692 O   0  0  0  0  0  0  0  0  0  0  0  0
  -20.6908  -16.8431   22.8741 O   0  0  0  0  0  0  0  0  0  0  0  0
  -29.9395  -19.1958   18.7472 O   0  0  0  0  0  0  0  0  0  0  0  0
  -23.5837  -20.3835   21.6024 O   0  0  0  0  0  0  0  0  0  0  0  0
  -29.3865  -22.7734   18.6209 O   0  0  0  0  0  0  0  0  0  0  0  0
  -19.3255  -27.5868   23.7522 O   0  0  0  0  0  0  0  0  0  0  0  0
  -28.4425  -16.0896   19.5271 O   0  0  0  0  0  0  0  0  0  1  0  0
  -15.9498  -31.9270   23.3383 F   0  0  0  0  0  0  0  0  0  0  0  0
  -16.8921  -27.3726   22.4580 F   0  0  0  0  0  0  0  0  0  0  0  0
  1  2  1  0  0  0  0
  1  5  2  0  0  0  0
  2  6  2  0  0  0  0
  3  8  2  0  0  0  0
  3 18  1  0  0  0  0
  4  9  1  0  0  0  0
  4 18  2  0  0  0  0
  5 20  1  0  0  0  0
  6 22  1  0  0  0  0
  7 10  2  0  0  0  0
  7 21  1  0  0  0  0
  8 27  1  0  0  0  0
  9 27  2  0  0  0  0
 10 28  1  0  0  0  0
 11 12  2  0  0  0  0
 11 29  1  0  0  0  0
 12 30  1  0  0  0  0
 13 23  1  0  0  0  0
 13 28  2  0  0  0  0
 14 24  2  0  0  0  0
 14 25  1  0  0  0  0
 15 24  1  0  0  0  0
 15 26  2  0  0  0  0
 16 25  2  0  0  0  0
 16 26  1  0  0  0  0
 17 30  2  0  0  0  0
 17 31  1  0  0  0  0
 18 32  1  0  0  0  0
 19 32  1  0  0  0  0
 19 33  2  0  0  0  0
 19 34  1  0  0  0  0
 20 22  2  0  0  0  0
 20 40  1  0  0  0  0
 21 23  2  0  0  0  0
 21 41  1  0  0  0  0
 22 49  1  0  0  0  0
 23 42  1  0  0  0  0
 24 52  1  0  0  0  0
 25 69  1  0  0  0  0
 26 70  1  0  0  0  0
 27 80  1  0  0  0  0
 28 81  1  0  0  0  0
 29 31  2  0  0  0  0
 29 80  1  0  0  0  0
 30 82  1  0  0  0  0
 31 83  1  0  0  0  0
 32 63  2  0  0  0  0
 33 64  1  0  0  0  0
 33 67  1  0  0  0  0
 34 68  1  0  0  0  0
 34 74  2  0  0  0  0
 35 50  1  0  0  0  0
 35 71  1  0  0  0  0
 35 75  2  0  0  0  0
 36 60  1  0  0  0  0
 36 65  1  0  0  0  0
 36 76  2  0  0  0  0
 37 58  1  0  0  0  0
 37 69  1  0  0  0  0
 37 77  2  0  0  0  0
 38 61  1  0  0  0  0
 38 72  1  0  0  0  0
 38 78  2  0  0  0  0
 39 66  1  0  0  0  0
 39 70  1  0  0  0  0
 39 79  2  0  0  0  0
 40 43  1  0  0  0  0
 41 50  1  0  0  0  0
 42 65  1  0  0  0  0
 43 45  1  0  0  0  0
 44 46  1  0  0  0  0
 44 47  1  0  0  0  0
 45 49  1  0  0  0  0
 46 51  1  0  0  0  0
 47 66  1  0  0  0  0
 48 51  1  0  0  0  0
 48 66  1  0  0  0  0
 49 71  1  0  0  0  0
 50 65  1  0  0  0  0
 51 64  1  0  0  0  0
 53 61  1  0  0  0  0
 54 62  1  0  0  0  0
 55 62  1  0  0  0  0
 56 62  1  0  0  0  0
 57 73  1  0  0  0  0
 58 59  1  0  0  0  0
 59 81  1  0  0  0  0
 60 62  1  0  0  0  0
 60 72  1  0  0  0  0
 61 73  1  0  0  0  0
 63 64  1  0  0  0  0
M  CHG  1  73   1
M  ISO  4  39 100  59 101  70 100  81 101
M  END
> <Batch ID>
0071

> <Smiles>
CNC(C)C(=O)NC(C(=O)N1Cc2cc([101O:1][101CH2:1]CC(=O)Nc3cc(C)cc([100NH:0][100C:0](=O)N4CCCC(n5nc(-c6ccc(Oc7ccc(F)cc7F)cc6)c(C(N)=O)c5N)C4)c3)ccc2CC1C(=O)NC1CCCc2ccccc21)C(C)(C)C

> <Shape>
0.248

> <Color>
0.086

> <Negative vol penalty>
0.000

$$$$

  -OEChem-04042323353D

 85 93  0     1  0  0  0  0  0999 V2000
  -27.2273  -20.2141   26.5492 C   0  0  0  0  0  0  0  0  0  0  0  0
  -27.4084  -20.9808   25.4026 C   0  0  0  0  0  0  0  0  0  0  0  0
  -26.4790  -11.5509   21.2442 C   0  0  0  0  0  0  0  0  0  0  0  0
  -25.4566  -13.0625   19.6609 C   0  0  0  0  0  0  0  0  0  0  0  0
  -26.0867  -20.3904   27.3314 C   0  0  0  0  0  0  0  0  0  0  0  0
  -26.4483  -21.9237   25.0369 C   0  0  0  0  0  0  0  0  0  0  0  0
  -28.4956  -26.3408   23.6432 C   0  0  0  0  0  0  0  0  0  0  0  0
  -25.2163  -11.1829   21.7085 C   0  0  0  0  0  0  0  0  0  0  0  0
  -24.1937  -12.6945   20.1252 C   0  0  0  0  0  0  0  0  0  0  0  0
  -29.0435  -26.4130   22.3632 C   0  0  0  0  0  0  0  0  0  0  0  0
  -22.6922   -9.1601   20.7236 C   0  0  0  0  0  0  0  0  0  0  0  0
  -22.4433   -7.8014   20.9175 C   0  0  0  0  0  0  0  0  0  0  0  0
  -28.2920  -21.5020   17.5151 C   0  0  0  0  0  0  0  0  0  0  0  0
  -27.0460  -27.5130   21.5766 C   0  0  0  0  0  0  0  0  0  0  0  0
  -30.1793  -21.2760   19.5571 C   0  0  0  0  0  0  0  0  0  0  0  0
  -21.9992   -8.2164   23.2558 C   0  0  0  0  0  0  0  0  0  0  0  0
  -26.5992  -12.4907   20.2204 C   0  0  0  0  0  0  0  0  0  0  0  0
  -28.7177  -22.6399   18.2004 C   0  0  0  0  0  0  0  0  0  0  0  0
  -28.6337  -12.2726   18.6969 C   0  0  0  0  0  0  0  0  0  0  0  0
  -25.1168  -21.3427   26.9804 C   0  0  0  0  0  0  0  0  0  0  0  0
  -27.2121  -26.8453   23.8975 C   0  0  0  0  0  0  0  0  0  0  0  0
  -25.2930  -22.1120   25.8144 C   0  0  0  0  0  0  0  0  0  0  0  0
  -26.4850  -27.4484   22.8612 C   0  0  0  0  0  0  0  0  0  0  0  0
  -29.7536  -20.1381   18.8719 C   0  0  0  0  0  0  0  0  0  0  0  0
  -24.0736  -11.7547   21.1489 C   0  0  0  0  0  0  0  0  0  0  0  0
  -28.3176  -26.9965   21.3291 C   0  0  0  0  0  0  0  0  0  0  0  0
  -22.5946  -10.0470   21.7958 C   0  0  0  0  0  0  0  0  0  0  0  0
  -22.0968   -7.3295   22.1835 C   0  0  0  0  0  0  0  0  0  0  0  0
  -28.8099  -20.2511   17.8509 C   0  0  0  0  0  0  0  0  0  0  0  0
  -29.6613  -22.5269   19.2214 C   0  0  0  0  0  0  0  0  0  0  0  0
  -22.2481   -9.5751   23.0619 C   0  0  0  0  0  0  0  0  0  0  0  0
  -27.9034  -12.8716   19.7408 C   0  0  0  0  0  0  0  0  0  0  0  0
  -29.7993  -12.9964   18.6339 C   0  0  0  0  0  0  0  0  0  0  0  0
  -28.1638  -23.9702   17.8390 C   0  0  0  0  0  0  0  0  0  0  0  0
  -28.2892  -11.1612   17.8591 C   0  0  0  0  0  0  0  0  0  0  0  0
  -24.4631  -25.5900   24.8828 C   0  0  0  0  0  0  0  0  0  0  0  0
  -23.5090  -28.6901   24.9178 C   0  0  0  0  0  0  0  0  0  0  0  0
  -23.9325  -31.8653   23.7407 C   0  0  0  0  0  0  0  0  0  0  0  0
  -31.2246  -18.5837   20.2008 C   0  0  0  0  0  0  0  0  0  0  0  0
  -23.8776  -21.4644   27.8313 C   0  0  0  0  0  0  0  0  0  0  0  0
  -26.6460  -26.7838   25.2896 C   0  0  0  0  0  0  0  0  0  0  0  0
  -25.1112  -28.0231   23.0866 C   0  0  0  0  0  0  0  0  0  0  0  0
  -23.0889  -22.7468   27.5790 C   0  0  0  0  0  0  0  0  0  0  0  0
  -32.7506  -15.5882   21.3737 C   0  0  0  0  0  0  0  0  0  0  0  0
  -22.9246  -22.9865   26.0816 C   0  0  0  0  0  0  0  0  0  0  0  0
  -31.7500  -14.4964   20.9877 C   0  0  0  0  0  0  0  0  0  0  0  0
  -32.0482  -16.8743   21.8054 C   0  0  0  0  0  0  0  0  0  0  0  0
  -30.0634  -16.3037   20.4622 C   0  0  0  0  0  0  0  0  0  0  0  0
  -24.2861  -23.1623   25.3983 C   0  0  1  0  0  0  0  0  0  0  0  0
  -25.1230  -26.8672   25.3196 C   0  0  1  0  0  0  0  0  0  0  0  0
  -30.7245  -15.0104   19.9583 C   0  0  2  0  0  0  0  0  0  0  0  0
  -22.9769  -34.1783   23.9250 C   0  0  0  0  0  0  0  0  0  0  0  0
  -29.8121  -27.2269   17.3139 C   0  0  0  0  0  0  0  0  0  0  0  0
  -21.1569  -27.8556   23.1624 C   0  0  0  0  0  0  0  0  0  0  0  0
  -20.8035  -30.2714   22.6082 C   0  0  0  0  0  0  0  0  0  0  0  0
  -20.5838  -29.4897   24.9668 C   0  0  0  0  0  0  0  0  0  0  0  0
  -26.4812  -32.9615   24.7710 C   0  0  0  0  0  0  0  0  0  0  0  0
  -27.9376  -27.0363   18.9817 C   0  0  0  0  0  0  0  0  0  1  0  0
  -22.8788  -29.6261   23.9150 C   0  0  1  0  0  0  0  0  0  0  0  0
  -24.0151  -33.2019   24.4556 C   0  0  2  0  0  0  0  0  0  0  0  0
  -28.6059  -26.4103   17.7590 C   0  0  2  0  0  0  0  0  0  0  0  0
  -21.3808  -29.2982   23.6581 C   0  0  0  0  0  0  0  0  0  0  0  0
  -28.5509  -13.8969   20.3007 N   0  0  0  0  0  0  0  0  0  0  0  0
  -29.7003  -13.9477   19.6062 N   0  0  0  0  0  0  0  0  0  0  0  0
  -24.5984  -27.9333   24.4638 N   0  0  0  0  0  0  0  0  0  0  0  0
  -31.0951  -17.3035   20.7796 N   0  0  0  0  0  0  0  0  0  0  0  0
  -30.8890  -12.9054   17.8423 N   0  0  0  0  0  0  0  0  0  0  0  0
  -27.0526  -10.5323   18.0584 N   0  0  0  0  0  0  0  0  0  0  0  0
  -30.2815  -18.8684   19.2139 N   0  0  0  0  0  0  0  0  0  0  0  0
  -29.0081  -25.0507   18.0393 N   0  0  0  0  0  0  0  0  0  0  0  0
  -24.8075  -24.4896   25.6444 N   0  0  0  0  0  0  0  0  0  0  0  0
  -23.1182  -30.9771   24.4110 N   0  0  0  0  0  0  0  0  0  0  0  0
  -25.3653  -33.8053   24.2713 N   0  3  0  0  0  0  0  0  0  0  0  0
  -27.0141  -24.0461   17.4137 O   0  0  0  0  0  0  0  0  0  0  0  0
  -29.0622  -10.7281   16.9712 O   0  0  0  0  0  0  0  0  0  0  0  0
  -23.6970  -25.6021   23.9264 O   0  0  0  0  0  0  0  0  0  0  0  0
  -23.0559  -28.6377   26.0640 O   0  0  0  0  0  0  0  0  0  0  0  0
  -24.5276  -31.6336   22.6906 O   0  0  0  0  0  0  0  0  0  0  0  0
  -32.1240  -19.3591   20.5353 O   0  0  0  0  0  0  0  0  0  0  0  0
  -22.8412  -11.3957   21.6016 O   0  0  0  0  0  0  0  0  0  0  0  0
  -28.8498  -27.0677   20.0786 O   0  0  0  0  0  0  0  0  0  1  0  0
  -21.8563   -6.0250   22.3692 F   0  0  0  0  0  0  0  0  0  0  0  0
  -28.3933  -19.1642   17.1856 F   0  0  0  0  0  0  0  0  0  0  0  0
  -30.0789  -23.6138   19.8863 F   0  0  0  0  0  0  0  0  0  0  0  0
  -22.1516  -10.4225   24.0955 F   0  0  0  0  0  0  0  0  0  0  0  0
  1  2  1  0  0  0  0
  1  5  2  0  0  0  0
  2  6  2  0  0  0  0
  3  8  2  0  0  0  0
  3 17  1  0  0  0  0
  4  9  1  0  0  0  0
  4 17  2  0  0  0  0
  5 20  1  0  0  0  0
  6 22  1  0  0  0  0
  7 10  2  0  0  0  0
  7 21  1  0  0  0  0
  8 25  1  0  0  0  0
  9 25  2  0  0  0  0
 10 26  1  0  0  0  0
 11 12  2  0  0  0  0
 11 27  1  0  0  0  0
 12 28  1  0  0  0  0
 13 18  1  0  0  0  0
 13 29  2  0  0  0  0
 14 23  1  0  0  0  0
 14 26  2  0  0  0  0
 15 24  2  0  0  0  0
 15 30  1  0  0  0  0
 16 28  2  0  0  0  0
 16 31  1  0  0  0  0
 17 32  1  0  0  0  0
 18 30  2  0  0  0  0
 18 34  1  0  0  0  0
 19 32  1  0  0  0  0
 19 33  2  0  0  0  0
 19 35  1  0  0  0  0
 20 22  2  0  0  0  0
 20 40  1  0  0  0  0
 21 23  2  0  0  0  0
 21 41  1  0  0  0  0
 22 49  1  0  0  0  0
 23 42  1  0  0  0  0
 24 29  1  0  0  0  0
 24 69  1  0  0  0  0
 25 80  1  0  0  0  0
 26 81  1  0  0  0  0
 27 31  2  0  0  0  0
 27 80  1  0  0  0  0
 28 82  1  0  0  0  0
 29 83  1  0  0  0  0
 30 84  1  0  0  0  0
 31 85  1  0  0  0  0
 32 63  2  0  0  0  0
 33 64  1  0  0  0  0
 33 67  1  0  0  0  0
 34 70  1  0  0  0  0
 34 74  2  0  0  0  0
 35 68  1  0  0  0  0
 35 75  2  0  0  0  0
 36 50  1  0  0  0  0
 36 71  1  0  0  0  0
 36 76  2  0  0  0  0
 37 59  1  0  0  0  0
 37 65  1  0  0  0  0
 37 77  2  0  0  0  0
 38 60  1  0  0  0  0
 38 72  1  0  0  0  0
 38 78  2  0  0  0  0
 39 66  1  0  0  0  0
 39 69  1  0  0  0  0
 39 79  2  0  0  0  0
 40 43  1  0  0  0  0
 41 50  1  0  0  0  0
 42 65  1  0  0  0  0
 43 45  1  0  0  0  0
 44 46  1  0  0  0  0
 44 47  1  0  0  0  0
 45 49  1  0  0  0  0
 46 51  1  0  0  0  0
 47 66  1  0  0  0  0
 48 51  1  0  0  0  0
 48 66  1  0  0  0  0
 49 71  1  0  0  0  0
 50 65  1  0  0  0  0
 51 64  1  0  0  0  0
 52 60  1  0  0  0  0
 53 61  1  0  0  0  0
 54 62  1  0  0  0  0
 55 62  1  0  0  0  0
 56 62  1  0  0  0  0
 57 73  1  0  0  0  0
 58 61  1  0  0  0  0
 58 81  1  0  0  0  0
 59 62  1  0  0  0  0
 59 72  1  0  0  0  0
 60 73  1  0  0  0  0
 61 70  1  0  0  0  0
 63 64  1  0  0  0  0
M  CHG  1  73   1
M  ISO  4  39 100  58 101  69 100  81 101
M  END
> <Batch ID>
0071

> <Smiles>
CNC(C)C(=O)NC(C(=O)N1Cc2cc([101O:1][101CH2:1]C(C)NC(=O)c3cc(F)c([100NH:0][100C:0](=O)N4CCCC(n5nc(-c6ccc(Oc7ccc(F)cc7F)cc6)c(C(N)=O)c5N)C4)cc3F)ccc2CC1C(=O)NC1CCCc2ccccc21)C(C)(C)C

> <Shape>
0.255

> <Color>
0.067

> <Negative vol penalty>
0.000

$$$$

  -OEChem-04042323353D

 85 93  0     1  0  0  0  0  0999 V2000
  -15.8047  -24.2117   30.0645 C   0  0  0  0  0  0  0  0  0  0  0  0
  -16.6950  -23.2952   29.5143 C   0  0  0  0  0  0  0  0  0  0  0  0
  -23.0446  -10.0924   19.9321 C   0  0  0  0  0  0  0  0  0  0  0  0
  -23.7541   -9.9153   22.2348 C   0  0  0  0  0  0  0  0  0  0  0  0
  -15.2167  -25.1828   29.2551 C   0  0  0  0  0  0  0  0  0  0  0  0
  -16.9970  -23.3485   28.1540 C   0  0  0  0  0  0  0  0  0  0  0  0
  -22.3722  -22.1347   23.5770 C   0  0  0  0  0  0  0  0  0  0  0  0
  -26.6975  -19.2956   15.1557 C   0  0  0  0  0  0  0  0  0  0  0  0
  -25.9033  -19.6449   16.2479 C   0  0  0  0  0  0  0  0  0  0  0  0
  -22.2255   -8.9757   20.0986 C   0  0  0  0  0  0  0  0  0  0  0  0
  -22.9349   -8.7987   22.4014 C   0  0  0  0  0  0  0  0  0  0  0  0
  -22.6500  -21.4365   22.4026 C   0  0  0  0  0  0  0  0  0  0  0  0
  -19.2031   -8.2824   21.4466 C   0  0  0  0  0  0  0  0  0  0  0  0
  -17.9066   -8.3477   20.9364 C   0  0  0  0  0  0  0  0  0  0  0  0
  -21.6349  -23.2073   21.1169 C   0  0  0  0  0  0  0  0  0  0  0  0
  -18.3729   -6.4549   19.5091 C   0  0  0  0  0  0  0  0  0  0  0  0
  -23.8090  -10.5621   21.0002 C   0  0  0  0  0  0  0  0  0  0  0  0
  -28.0853  -17.9422   16.5977 C   0  0  0  0  0  0  0  0  0  0  0  0
  -24.3093  -13.0633   21.0393 C   0  0  0  0  0  0  0  0  0  0  0  0
  -15.5191  -25.2542   27.8861 C   0  0  0  0  0  0  0  0  0  0  0  0
  -21.7129  -23.3714   23.5307 C   0  0  0  0  0  0  0  0  0  0  0  0
  -16.4115  -24.3207   27.3253 C   0  0  0  0  0  0  0  0  0  0  0  0
  -21.3522  -23.9204   22.2919 C   0  0  0  0  0  0  0  0  0  0  0  0
  -27.7885  -18.4442   15.3306 C   0  0  0  0  0  0  0  0  0  0  0  0
  -26.2001  -19.1430   17.5150 C   0  0  0  0  0  0  0  0  0  0  0  0
  -22.1706   -8.3289   21.3332 C   0  0  0  0  0  0  0  0  0  0  0  0
  -22.2787  -21.9714   21.1725 C   0  0  0  0  0  0  0  0  0  0  0  0
  -20.0846   -7.3034   20.9880 C   0  0  0  0  0  0  0  0  0  0  0  0
  -17.4915   -7.4340   19.9677 C   0  0  0  0  0  0  0  0  0  0  0  0
  -19.6695   -6.3897   20.0193 C   0  0  0  0  0  0  0  0  0  0  0  0
  -27.2912  -18.2916   17.6899 C   0  0  0  0  0  0  0  0  0  0  0  0
  -24.6558  -11.7152   20.8287 C   0  0  0  0  0  0  0  0  0  0  0  0
  -25.4533  -13.7625   20.7414 C   0  0  0  0  0  0  0  0  0  0  0  0
  -29.2418  -17.0336   16.8068 C   0  0  0  0  0  0  0  0  0  0  0  0
  -23.0645  -13.6326   21.4661 C   0  0  0  0  0  0  0  0  0  0  0  0
  -18.9542  -24.4859   24.6494 C   0  0  0  0  0  0  0  0  0  0  0  0
  -20.0895  -27.3113   23.5311 C   0  0  0  0  0  0  0  0  0  0  0  0
  -24.2791  -20.3329   18.6230 C   0  0  0  0  0  0  0  0  0  0  0  0
  -22.1631  -28.9496   21.3717 C   0  0  0  0  0  0  0  0  0  0  0  0
  -29.8659  -14.7542   17.5408 C   0  0  0  0  0  0  0  0  0  0  0  0
  -14.8224  -26.2919   27.0420 C   0  0  0  0  0  0  0  0  0  0  0  0
  -21.4445  -24.1246   24.8048 C   0  0  0  0  0  0  0  0  0  0  0  0
  -20.6605  -25.2541   22.1867 C   0  0  0  0  0  0  0  0  0  0  0  0
  -15.4828  -26.5158   25.6840 C   0  0  0  0  0  0  0  0  0  0  0  0
  -30.1813  -12.1481   19.9084 C   0  0  0  0  0  0  0  0  0  0  0  0
  -15.7976  -25.1807   25.0168 C   0  0  0  0  0  0  0  0  0  0  0  0
  -28.7446  -11.9169   20.3845 C   0  0  0  0  0  0  0  0  0  0  0  0
  -30.2401  -12.4647   18.4147 C   0  0  0  0  0  0  0  0  0  0  0  0
  -27.9345  -13.3254   18.4496 C   0  0  0  0  0  0  0  0  0  0  0  0
  -16.7834  -24.3619   25.8590 C   0  0  1  0  0  0  0  0  0  0  0  0
  -20.3091  -25.1350   24.6736 C   0  0  1  0  0  0  0  0  0  0  0  0
  -27.8156  -13.0724   19.9612 C   0  0  1  0  0  0  0  0  0  0  0  0
  -28.6216  -18.0867   14.1429 C   0  0  0  0  0  0  0  0  0  0  0  0
  -22.8437  -31.2591   20.6643 C   0  0  0  0  0  0  0  0  0  0  0  0
  -17.4799  -27.6015   21.9769 C   0  0  0  0  0  0  0  0  0  0  0  0
  -18.5813  -29.3752   20.5951 C   0  0  0  0  0  0  0  0  0  0  0  0
  -18.2944  -29.7082   23.0507 C   0  0  0  0  0  0  0  0  0  0  0  0
  -24.9747  -28.4927   22.1747 C   0  0  0  0  0  0  0  0  0  0  0  0
  -23.7035  -20.4542   20.0217 C   0  0  0  0  0  0  0  0  0  1  0  0
  -20.0112  -28.0500   22.2169 C   0  0  1  0  0  0  0  0  0  0  0  0
  -23.1448  -30.0875   21.5859 C   0  0  2  0  0  0  0  0  0  0  0  0
  -18.6030  -28.6577   21.9617 C   0  0  0  0  0  0  0  0  0  0  0  0
  -25.9210  -11.5646   20.4278 N   0  0  0  0  0  0  0  0  0  0  0  0
  -26.3794  -12.8272   20.3841 N   0  0  0  0  0  0  0  0  0  0  0  0
  -20.4142  -25.9491   23.4610 N   0  0  0  0  0  0  0  0  0  0  0  0
  -29.3404  -13.5752   18.0977 N   0  0  0  0  0  0  0  0  0  0  0  0
  -25.7474  -15.0800   20.7528 N   0  0  0  0  0  0  0  0  0  0  0  0
  -21.9912  -12.7708   21.7297 N   0  0  0  0  0  0  0  0  0  0  0  0
  -25.3937  -19.5011   18.6212 N   0  0  0  0  0  0  0  0  0  0  0  0
  -28.9320  -15.7714   17.3142 N   0  0  0  0  0  0  0  0  0  0  0  0
  -18.1301  -24.8649   25.6918 N   0  0  0  0  0  0  0  0  0  0  0  0
  -21.0909  -29.0309   22.2350 N   0  0  0  0  0  0  0  0  0  0  0  0
  -24.5372  -29.6270   21.3210 N   0  3  0  0  0  0  0  0  0  0  0  0
  -30.3664  -17.4153   16.4945 O   0  0  0  0  0  0  0  0  0  0  0  0
  -22.9039  -14.8702   21.5936 O   0  0  0  0  0  0  0  0  0  0  0  0
  -18.6766  -23.7005   23.7507 O   0  0  0  0  0  0  0  0  0  0  0  0
  -19.8776  -27.9220   24.5817 O   0  0  0  0  0  0  0  0  0  0  0  0
  -23.7775  -20.9181   17.6688 O   0  0  0  0  0  0  0  0  0  0  0  0
  -22.3287  -28.0782   20.5211 O   0  0  0  0  0  0  0  0  0  0  0  0
  -31.0683  -14.9029   17.3014 O   0  0  0  0  0  0  0  0  0  0  0  0
  -21.3712   -7.2394   21.4962 O   0  0  0  0  0  0  0  0  0  0  0  0
  -22.5480  -21.2916   20.0248 O   0  0  0  0  0  0  0  0  0  1  0  0
  -16.2459   -7.4958   19.4789 F   0  0  0  0  0  0  0  0  0  0  0  0
  -20.5115   -5.4462   19.5758 F   0  0  0  0  0  0  0  0  0  0  0  0
  -27.5761  -17.8100   18.9097 F   0  0  0  0  0  0  0  0  0  0  0  0
  1  2  1  0  0  0  0
  1  5  2  0  0  0  0
  2  6  2  0  0  0  0
  3 10  2  0  0  0  0
  3 17  1  0  0  0  0
  4 11  1  0  0  0  0
  4 17  2  0  0  0  0
  5 20  1  0  0  0  0
  6 22  1  0  0  0  0
  7 12  2  0  0  0  0
  7 21  1  0  0  0  0
  8  9  2  0  0  0  0
  8 24  1  0  0  0  0
  9 25  1  0  0  0  0
 10 26  1  0  0  0  0
 11 26  2  0  0  0  0
 12 27  1  0  0  0  0
 13 14  2  0  0  0  0
 13 28  1  0  0  0  0
 14 29  1  0  0  0  0
 15 23  1  0  0  0  0
 15 27  2  0  0  0  0
 16 29  2  0  0  0  0
 16 30  1  0  0  0  0
 17 32  1  0  0  0  0
 18 24  2  0  0  0  0
 18 31  1  0  0  0  0
 18 34  1  0  0  0  0
 19 32  1  0  0  0  0
 19 33  2  0  0  0  0
 19 35  1  0  0  0  0
 20 22  2  0  0  0  0
 20 41  1  0  0  0  0
 21 23  2  0  0  0  0
 21 42  1  0  0  0  0
 22 50  1  0  0  0  0
 23 43  1  0  0  0  0
 24 53  1  0  0  0  0
 25 31  2  0  0  0  0
 25 69  1  0  0  0  0
 26 81  1  0  0  0  0
 27 82  1  0  0  0  0
 28 30  2  0  0  0  0
 28 81  1  0  0  0  0
 29 83  1  0  0  0  0
 30 84  1  0  0  0  0
 31 85  1  0  0  0  0
 32 63  2  0  0  0  0
 33 64  1  0  0  0  0
 33 67  1  0  0  0  0
 34 70  1  0  0  0  0
 34 74  2  0  0  0  0
 35 68  1  0  0  0  0
 35 75  2  0  0  0  0
 36 51  1  0  0  0  0
 36 71  1  0  0  0  0
 36 76  2  0  0  0  0
 37 60  1  0  0  0  0
 37 65  1  0  0  0  0
 37 77  2  0  0  0  0
 38 59  1  0  0  0  0
 38 69  1  0  0  0  0
 38 78  2  0  0  0  0
 39 61  1  0  0  0  0
 39 72  1  0  0  0  0
 39 79  2  0  0  0  0
 40 66  1  0  0  0  0
 40 70  1  0  0  0  0
 40 80  2  0  0  0  0
 41 44  1  0  0  0  0
 42 51  1  0  0  0  0
 43 65  1  0  0  0  0
 44 46  1  0  0  0  0
 45 47  1  0  0  0  0
 45 48  1  0  0  0  0
 46 50  1  0  0  0  0
 47 52  1  0  0  0  0
 48 66  1  0  0  0  0
 49 52  1  0  0  0  0
 49 66  1  0  0  0  0
 50 71  1  0  0  0  0
 51 65  1  0  0  0  0
 52 64  1  0  0  0  0
 54 61  1  0  0  0  0
 55 62  1  0  0  0  0
 56 62  1  0  0  0  0
 57 62  1  0  0  0  0
 58 73  1  0  0  0  0
 59 82  1  0  0  0  0
 60 62  1  0  0  0  0
 60 72  1  0  0  0  0
 61 73  1  0  0  0  0
 63 64  1  0  0  0  0
M  CHG  1  73   1
M  ISO  4  40 100  59 101  70 100  82 101
M  END
> <Batch ID>
0071

> <Smiles>
CNC(C)C(=O)NC(C(=O)N1Cc2cc([101O:1][101CH2:1]C(=O)Nc3ccc(C)c(C(=O)[100NH:0][100C:0](=O)N4CCCC(n5nc(-c6ccc(Oc7ccc(F)cc7F)cc6)c(C(N)=O)c5N)C4)c3F)ccc2CC1C(=O)NC1CCCc2ccccc21)C(C)(C)C

> <Shape>
0.197

> <Color>
0.167

> <Negative vol penalty>
0.000

$$$$

  -OEChem-04042323353D

 83 91  0     1  0  0  0  0  0999 V2000
  -19.4159  -30.1893   20.6421 C   0  0  0  0  0  0  0  0  0  0  0  0
  -20.4990  -29.4337   21.0796 C   0  0  0  0  0  0  0  0  0  0  0  0
  -23.0580   -9.9437   21.5063 C   0  0  0  0  0  0  0  0  0  0  0  0
  -23.7736  -10.8940   23.6091 C   0  0  0  0  0  0  0  0  0  0  0  0
  -18.2084  -30.1424   21.3375 C   0  0  0  0  0  0  0  0  0  0  0  0
  -20.3754  -28.6314   22.2134 C   0  0  0  0  0  0  0  0  0  0  0  0
  -22.3691  -24.0225   21.5587 C   0  0  0  0  0  0  0  0  0  0  0  0
  -32.5349  -18.4462   21.7558 C   0  0  0  0  0  0  0  0  0  0  0  0
  -31.9679  -17.2635   21.2811 C   0  0  0  0  0  0  0  0  0  0  0  0
  -22.3138   -8.9845   22.1930 C   0  0  0  0  0  0  0  0  0  0  0  0
  -23.0293   -9.9348   24.2958 C   0  0  0  0  0  0  0  0  0  0  0  0
  -23.7565  -23.9115   21.6402 C   0  0  0  0  0  0  0  0  0  0  0  0
  -22.8928   -6.0799   23.8216 C   0  0  0  0  0  0  0  0  0  0  0  0
  -22.9816   -4.7578   23.3859 C   0  0  0  0  0  0  0  0  0  0  0  0
  -23.5524  -23.0972   23.9017 C   0  0  0  0  0  0  0  0  0  0  0  0
  -29.7699  -18.2542   21.4380 C   0  0  0  0  0  0  0  0  0  0  0  0
  -20.6036   -4.7389   22.9590 C   0  0  0  0  0  0  0  0  0  0  0  0
  -23.7879  -10.8985   22.2143 C   0  0  0  0  0  0  0  0  0  0  0  0
  -24.1225  -13.1588   21.0800 C   0  0  0  0  0  0  0  0  0  0  0  0
  -18.0670  -29.3317   22.4748 C   0  0  0  0  0  0  0  0  0  0  0  0
  -21.5622  -23.6815   22.6537 C   0  0  0  0  0  0  0  0  0  0  0  0
  -19.1652  -28.5746   22.9254 C   0  0  0  0  0  0  0  0  0  0  0  0
  -22.1549  -23.2023   23.8307 C   0  0  0  0  0  0  0  0  0  0  0  0
  -31.7193  -19.5329   22.0716 C   0  0  0  0  0  0  0  0  0  0  0  0
  -30.5855  -17.1675   21.1222 C   0  0  0  0  0  0  0  0  0  0  0  0
  -30.3369  -19.4369   21.9127 C   0  0  0  0  0  0  0  0  0  0  0  0
  -22.2994   -8.9800   23.5877 C   0  0  0  0  0  0  0  0  0  0  0  0
  -24.3485  -23.4515   22.8128 C   0  0  0  0  0  0  0  0  0  0  0  0
  -21.6595   -6.7314   23.8261 C   0  0  0  0  0  0  0  0  0  0  0  0
  -21.8370   -4.0873   22.9546 C   0  0  0  0  0  0  0  0  0  0  0  0
  -20.5149   -6.0609   23.3947 C   0  0  0  0  0  0  0  0  0  0  0  0
  -24.5573  -11.8893   21.5055 C   0  0  0  0  0  0  0  0  0  0  0  0
  -25.2186  -13.7072   20.4602 C   0  0  0  0  0  0  0  0  0  0  0  0
  -27.5904  -21.9133   22.5530 C   0  0  0  0  0  0  0  0  0  0  0  0
  -26.2768  -22.1597   22.5235 C   0  0  0  0  0  0  0  0  0  1  0  0
  -22.8423  -13.7862   21.2316 C   0  0  0  0  0  0  0  0  0  0  0  0
  -28.1086  -20.5819   22.1228 C   0  0  0  0  0  0  0  0  0  0  0  0
  -19.5191  -25.2560   24.5112 C   0  0  0  0  0  0  0  0  0  0  0  0
  -18.9629  -22.3046   25.7368 C   0  0  0  0  0  0  0  0  0  0  0  0
  -20.0956  -19.1308   26.2759 C   0  0  0  0  0  0  0  0  0  0  0  0
  -30.6765  -14.7947   20.2807 C   0  0  0  0  0  0  0  0  0  0  0  0
  -16.7564  -29.3500   23.2210 C   0  0  0  0  0  0  0  0  0  0  0  0
  -20.0657  -23.7816   22.5406 C   0  0  0  0  0  0  0  0  0  0  0  0
  -21.3321  -22.8039   25.0276 C   0  0  0  0  0  0  0  0  0  0  0  0
  -16.5941  -28.1862   24.1954 C   0  0  0  0  0  0  0  0  0  0  0  0
  -29.6169  -11.6125   19.0858 C   0  0  0  0  0  0  0  0  0  0  0  0
  -17.8598  -28.0060   25.0274 C   0  0  0  0  0  0  0  0  0  0  0  0
  -28.1704  -11.5052   19.5738 C   0  0  0  0  0  0  0  0  0  0  0  0
  -30.5079  -12.3218   20.1040 C   0  0  0  0  0  0  0  0  0  0  0  0
  -28.5720  -13.5250   21.0387 C   0  0  0  0  0  0  0  0  0  0  0  0
  -19.0628  -27.6731   24.1366 C   0  0  1  0  0  0  0  0  0  0  0  0
  -19.3704  -23.8942   23.8939 C   0  0  1  0  0  0  0  0  0  0  0  0
  -27.6227  -12.8755   20.0187 C   0  0  2  0  0  0  0  0  0  0  0  0
  -32.3541  -20.7873   22.5780 C   0  0  0  0  0  0  0  0  0  0  0  0
  -19.4320  -16.9562   27.3381 C   0  0  0  0  0  0  0  0  0  0  0  0
  -19.5420  -23.4772   28.4935 C   0  0  0  0  0  0  0  0  0  0  0  0
  -19.8018  -21.1411   29.3558 C   0  0  0  0  0  0  0  0  0  0  0  0
  -17.6129  -21.8873   28.4204 C   0  0  0  0  0  0  0  0  0  0  0  0
  -20.2451  -17.6909   23.6946 C   0  0  0  0  0  0  0  0  0  0  0  0
  -19.5564  -21.4820   26.8549 C   0  0  1  0  0  0  0  0  0  0  0  0
  -19.4427  -17.7777   26.0584 C   0  0  2  0  0  0  0  0  0  0  0  0
  -19.1442  -22.0062   28.2595 C   0  0  0  0  0  0  0  0  0  0  0  0
  -25.8304  -11.6454   21.1831 N   0  0  0  0  0  0  0  0  0  0  0  0
  -26.2049  -12.7692   20.5483 N   0  0  0  0  0  0  0  0  0  0  0  0
  -19.8734  -22.9256   24.8701 N   0  0  0  0  0  0  0  0  0  0  0  0
  -29.9283  -13.6144   20.4754 N   0  0  0  0  0  0  0  0  0  0  0  0
  -25.4254  -14.8954   19.8537 N   0  0  0  0  0  0  0  0  0  0  0  0
  -21.8275  -13.0823   21.8942 N   0  0  0  0  0  0  0  0  0  0  0  0
  -29.4922  -20.5294   22.2281 N   0  0  0  0  0  0  0  0  0  0  0  0
  -30.0100  -15.9657   20.6400 N   0  0  0  0  0  0  0  0  0  0  0  0
  -19.0232  -26.2840   23.7323 N   0  0  0  0  0  0  0  0  0  0  0  0
  -19.1682  -20.0999   26.5953 N   0  0  0  0  0  0  0  0  0  0  0  0
  -20.1773  -17.0101   25.0133 N   0  3  0  0  0  0  0  0  0  0  0  0
  -22.6004  -14.9305   20.7781 O   0  0  0  0  0  0  0  0  0  0  0  0
  -27.3504  -19.6991   21.7388 O   0  0  0  0  0  0  0  0  0  0  0  0
  -20.0435  -25.3658   25.6133 O   0  0  0  0  0  0  0  0  0  0  0  0
  -17.7366  -22.3870   25.6319 O   0  0  0  0  0  0  0  0  0  0  0  0
  -21.3075  -19.3093   26.1765 O   0  0  0  0  0  0  0  0  0  0  0  0
  -31.8137  -14.7708   19.8031 O   0  0  0  0  0  0  0  0  0  0  0  0
  -21.5731   -8.0443   24.2582 O   0  0  0  0  0  0  0  0  0  0  0  0
  -25.7025  -23.3428   22.8952 O   0  0  0  0  0  0  0  0  0  1  0  0
  -21.9227   -2.8182   22.5348 F   0  0  0  0  0  0  0  0  0  0  0  0
  -19.3274   -6.6821   23.3956 F   0  0  0  0  0  0  0  0  0  0  0  0
  1  2  1  0  0  0  0
  1  5  2  0  0  0  0
  2  6  2  0  0  0  0
  3 10  2  0  0  0  0
  3 18  1  0  0  0  0
  4 11  1  0  0  0  0
  4 18  2  0  0  0  0
  5 20  1  0  0  0  0
  6 22  1  0  0  0  0
  7 12  2  0  0  0  0
  7 21  1  0  0  0  0
  8  9  2  0  0  0  0
  8 24  1  0  0  0  0
  9 25  1  0  0  0  0
 10 27  1  0  0  0  0
 11 27  2  0  0  0  0
 12 28  1  0  0  0  0
 13 14  2  0  0  0  0
 13 29  1  0  0  0  0
 14 30  1  0  0  0  0
 15 23  1  0  0  0  0
 15 28  2  0  0  0  0
 16 25  2  0  0  0  0
 16 26  1  0  0  0  0
 17 30  2  0  0  0  0
 17 31  1  0  0  0  0
 18 32  1  0  0  0  0
 19 32  1  0  0  0  0
 19 33  2  0  0  0  0
 19 36  1  0  0  0  0
 20 22  2  0  0  0  0
 20 42  1  0  0  0  0
 21 23  2  0  0  0  0
 21 43  1  0  0  0  0
 22 51  1  0  0  0  0
 23 44  1  0  0  0  0
 24 26  2  0  0  0  0
 24 54  1  0  0  0  0
 25 70  1  0  0  0  0
 26 69  1  0  0  0  0
 27 80  1  0  0  0  0
 28 81  1  0  0  0  0
 29 31  2  0  0  0  0
 29 80  1  0  0  0  0
 30 82  1  0  0  0  0
 31 83  1  0  0  0  0
 32 63  2  0  0  0  0
 33 64  1  0  0  0  0
 33 67  1  0  0  0  0
 34 35  2  0  0  0  0
 34 37  1  0  0  0  0
 35 81  1  0  0  0  0
 36 68  1  0  0  0  0
 36 74  2  0  0  0  0
 37 69  1  0  0  0  0
 37 75  2  0  0  0  0
 38 52  1  0  0  0  0
 38 71  1  0  0  0  0
 38 76  2  0  0  0  0
 39 60  1  0  0  0  0
 39 65  1  0  0  0  0
 39 77  2  0  0  0  0
 40 61  1  0  0  0  0
 40 72  1  0  0  0  0
 40 78  2  0  0  0  0
 41 66  1  0  0  0  0
 41 70  1  0  0  0  0
 41 79  2  0  0  0  0
 42 45  1  0  0  0  0
 43 52  1  0  0  0  0
 44 65  1  0  0  0  0
 45 47  1  0  0  0  0
 46 48  1  0  0  0  0
 46 49  1  0  0  0  0
 47 51  1  0  0  0  0
 48 53  1  0  0  0  0
 49 66  1  0  0  0  0
 50 53  1  0  0  0  0
 50 66  1  0  0  0  0
 51 71  1  0  0  0  0
 52 65  1  0  0  0  0
 53 64  1  0  0  0  0
 55 61  1  0  0  0  0
 56 62  1  0  0  0  0
 57 62  1  0  0  0  0
 58 62  1  0  0  0  0
 59 73  1  0  0  0  0
 60 62  1  0  0  0  0
 60 72  1  0  0  0  0
 61 73  1  0  0  0  0
 63 64  1  0  0  0  0
M  CHG  1  73   1
M  ISO  4  35 101  41 100  70 100  81 101
M  END
> <Batch ID>
0071

> <Smiles>
CNC(C)C(=O)NC(C(=O)N1Cc2cc([101O:1][101CH:1]=CC(=O)Nc3cc([100NH:0][100C:0](=O)N4CCCC(n5nc(-c6ccc(Oc7ccc(F)cc7F)cc6)c(C(N)=O)c5N)C4)ccc3C)ccc2CC1C(=O)NC1CCCc2ccccc21)C(C)(C)C

> <Shape>
0.207

> <Color>
0.161

> <Negative vol penalty>
0.000

$$$$

  -OEChem-04042323353D

 86 95  0     1  0  0  0  0  0999 V2000
  -29.5185  -36.7002   21.7197 C   0  0  0  0  0  0  0  0  0  0  0  0
  -29.7144  -35.3782   21.3331 C   0  0  0  0  0  0  0  0  0  0  0  0
  -23.9521  -12.2443   20.2711 C   0  0  0  0  0  0  0  0  0  0  0  0
  -25.1170  -14.3214   20.6779 C   0  0  0  0  0  0  0  0  0  0  0  0
  -22.6166  -21.4975   20.5972 C   0  0  0  0  0  0  0  0  0  0  0  0
  -28.5760  -37.0061   22.7005 C   0  0  0  0  0  0  0  0  0  0  0  0
  -28.9684  -34.3612   21.9278 C   0  0  0  0  0  0  0  0  0  0  0  0
  -26.9520  -29.2315   19.2584 C   0  0  0  0  0  0  0  0  0  0  0  0
  -23.7816  -21.9116   19.9517 C   0  0  0  0  0  0  0  0  0  0  0  0
  -25.0569  -11.7621   19.5694 C   0  0  0  0  0  0  0  0  0  0  0  0
  -26.2219  -13.8392   19.9762 C   0  0  0  0  0  0  0  0  0  0  0  0
  -27.4399  -27.9255   19.2476 C   0  0  0  0  0  0  0  0  0  0  0  0
  -28.8177  -11.7526   20.5494 C   0  0  0  0  0  0  0  0  0  0  0  0
  -30.0783  -11.9511   21.1126 C   0  0  0  0  0  0  0  0  0  0  0  0
  -25.9434  -27.3582   21.0527 C   0  0  0  0  0  0  0  0  0  0  0  0
  -25.1096  -20.7711   21.6169 C   0  0  0  0  0  0  0  0  0  0  0  0
  -30.7482  -13.2172   19.1670 C   0  0  0  0  0  0  0  0  0  0  0  0
  -23.9821  -13.5240   20.8253 C   0  0  0  0  0  0  0  0  0  0  0  0
  -22.6980  -20.7203   21.7527 C   0  0  0  0  0  0  0  0  0  0  0  0
  -22.2602  -13.4697   22.7068 C   0  0  0  0  0  0  0  0  0  0  0  0
  -27.8113  -35.9933   23.3006 C   0  0  0  0  0  0  0  0  0  0  0  0
  -25.9623  -29.6141   20.1751 C   0  0  0  0  0  0  0  0  0  0  0  0
  -28.0157  -34.6537   22.9184 C   0  0  0  0  0  0  0  0  0  0  0  0
  -25.4429  -28.6690   21.0712 C   0  0  0  0  0  0  0  0  0  0  0  0
  -23.9445  -20.3571   22.2625 C   0  0  0  0  0  0  0  0  0  0  0  0
  -25.0281  -21.5484   20.4615 C   0  0  0  0  0  0  0  0  0  0  0  0
  -26.1918  -12.5595   19.4220 C   0  0  0  0  0  0  0  0  0  0  0  0
  -26.9376  -26.9893   20.1468 C   0  0  0  0  0  0  0  0  0  0  0  0
  -28.5224  -12.2864   19.2949 C   0  0  0  0  0  0  0  0  0  0  0  0
  -31.0435  -12.6834   20.4214 C   0  0  0  0  0  0  0  0  0  0  0  0
  -29.4876  -13.0187   18.6038 C   0  0  0  0  0  0  0  0  0  0  0  0
  -22.8409  -14.0229   21.5498 C   0  0  0  0  0  0  0  0  0  0  0  0
  -21.2129  -14.3085   23.0000 C   0  0  0  0  0  0  0  0  0  0  0  0
  -27.6438  -23.7119   18.9027 C   0  0  0  0  0  0  0  0  0  0  0  0
  -21.4654  -20.3011   22.4063 C   0  0  0  0  0  0  0  0  0  0  0  0
  -22.6341  -12.3020   23.4500 C   0  0  0  0  0  0  0  0  0  0  0  0
  -20.2221  -20.0780   21.6332 C   0  0  0  0  0  0  0  0  0  0  0  0
  -25.7978  -31.7216   22.5490 C   0  0  0  0  0  0  0  0  0  0  0  0
  -22.6822  -30.8208   22.6129 C   0  0  0  0  0  0  0  0  0  0  0  0
  -20.8261  -27.7387   22.3425 C   0  0  0  0  0  0  0  0  0  0  0  0
  -26.8378  -36.3677   24.3900 C   0  0  0  0  0  0  0  0  0  0  0  0
  -25.4276  -31.0199   20.1560 C   0  0  0  0  0  0  0  0  0  0  0  0
  -24.3654  -29.0239   22.0619 C   0  0  0  0  0  0  0  0  0  0  0  0
  -26.2232  -23.2213   19.0748 C   0  0  0  0  0  0  0  0  0  0  0  0
  -25.8232  -35.2711   24.7036 C   0  0  0  0  0  0  0  0  0  0  0  0
  -18.0906  -17.2789   20.9416 C   0  0  0  0  0  0  0  0  0  0  0  0
  -26.5203  -33.9206   24.8347 C   0  0  0  0  0  0  0  0  0  0  0  0
  -19.0256  -16.0787   21.0871 C   0  0  0  0  0  0  0  0  0  0  0  0
  -28.3282  -21.5041   18.7094 C   0  0  0  0  0  0  0  0  0  0  0  0
  -18.8219  -18.4906   20.3730 C   0  0  0  0  0  0  0  0  0  0  0  0
  -27.4037  -21.1475   19.8649 C   0  0  0  0  0  0  0  0  0  0  0  0
  -20.9745  -17.6850   21.3034 C   0  0  0  0  0  0  0  0  0  0  0  0
  -27.2084  -33.5253   23.5226 C   0  0  1  0  0  0  0  0  0  0  0  0
  -24.7855  -31.4330   21.4768 C   0  0  1  0  0  0  0  0  0  0  0  0
  -20.2780  -16.4499   21.9009 C   0  0  2  0  0  0  0  0  0  0  0  0
  -24.0598  -19.5247   23.4977 C   0  0  0  0  0  0  0  0  0  0  0  0
  -18.4823  -27.3094   21.5552 C   0  0  0  0  0  0  0  0  0  0  0  0
  -21.9601  -31.0270   25.5703 C   0  0  0  0  0  0  0  0  0  0  0  0
  -20.3170  -29.1694   25.2270 C   0  0  0  0  0  0  0  0  0  0  0  0
  -20.0341  -31.3245   24.0029 C   0  0  0  0  0  0  0  0  0  0  0  0
  -21.7396  -25.7753   20.3252 C   0  0  0  0  0  0  0  0  0  0  0  0
  -27.8728  -25.2001   18.8898 C   0  0  0  0  0  0  0  0  0  1  0  0
  -21.8934  -29.7501   23.3273 C   0  0  1  0  0  0  0  0  0  0  0  0
  -19.9557  -27.3012   21.1783 C   0  0  2  0  0  0  0  0  0  0  0  0
  -21.0786  -30.3142   24.5254 C   0  0  0  0  0  0  0  0  0  0  0  0
  -22.2144  -15.1276   21.1362 N   0  0  0  0  0  0  0  0  0  0  0  0
  -28.6534  -22.9284   18.7223 N   0  0  0  0  0  0  0  0  0  0  0  0
  -21.3725  -20.0953   23.6910 N   0  0  0  0  0  0  0  0  0  0  0  0
  -21.2291  -15.2753   22.0381 N   0  0  0  0  0  0  0  0  0  0  0  0
  -26.1931  -21.9642   19.8168 N   0  0  3  0  0  0  0  0  0  0  0  0
  -20.0243  -18.7933   21.1467 N   0  0  0  0  0  0  0  0  0  0  0  0
  -23.8796  -30.4127   22.0083 N   0  0  0  0  0  0  0  0  0  0  0  0
  -20.2888  -14.3060   23.9841 N   0  0  0  0  0  0  0  0  0  0  0  0
  -23.7353  -11.5546   23.0106 N   0  0  0  0  0  0  0  0  0  0  0  0
  -26.2362  -33.0318   22.5708 N   0  0  0  0  0  0  0  0  0  0  0  0
  -21.0812  -29.0934   22.3087 N   0  0  0  0  0  0  0  0  0  0  0  0
  -20.3227  -25.9229   20.7464 N   0  3  0  0  0  0  0  0  0  0  0  0
  -22.0002  -11.9232   24.4640 O   0  0  0  0  0  0  0  0  0  0  0  0
  -19.4980  -21.0566   21.5049 O   0  0  0  0  0  0  0  0  0  0  0  0
  -26.1536  -30.8225   23.3018 O   0  0  0  0  0  0  0  0  0  0  0  0
  -22.2483  -31.9752   22.5861 O   0  0  0  0  0  0  0  0  0  0  0  0
  -21.2355  -26.9576   23.1985 O   0  0  0  0  0  0  0  0  0  0  0  0
  -27.2702  -12.0892   18.7375 O   0  0  0  0  0  0  0  0  0  0  0  0
  -27.4125  -25.7141   20.1389 O   0  0  0  0  0  0  0  0  0  1  0  0
  -32.2535  -12.8752   20.9630 F   0  0  0  0  0  0  0  0  0  0  0  0
  -29.2093  -13.5350   17.3988 F   0  0  0  0  0  0  0  0  0  0  0  0
  1  2  1  0  0  0  0
  1  6  2  0  0  0  0
  2  7  2  0  0  0  0
  3 10  2  0  0  0  0
  3 18  1  0  0  0  0
  4 11  1  0  0  0  0
  4 18  2  0  0  0  0
  5  9  2  0  0  0  0
  5 19  1  0  0  0  0
  6 21  1  0  0  0  0
  7 23  1  0  0  0  0
  8 12  2  0  0  0  0
  8 22  1  0  0  0  0
  9 26  1  0  0  0  0
 10 27  1  0  0  0  0
 11 27  2  0  0  0  0
 12 28  1  0  0  0  0
 13 14  2  0  0  0  0
 13 29  1  0  0  0  0
 14 30  1  0  0  0  0
 15 24  1  0  0  0  0
 15 28  2  0  0  0  0
 16 25  1  0  0  0  0
 16 26  2  0  0  0  0
 17 30  2  0  0  0  0
 17 31  1  0  0  0  0
 18 32  1  0  0  0  0
 19 25  2  0  0  0  0
 19 35  1  0  0  0  0
 20 32  1  0  0  0  0
 20 33  2  0  0  0  0
 20 36  1  0  0  0  0
 21 23  2  0  0  0  0
 21 41  1  0  0  0  0
 22 24  2  0  0  0  0
 22 42  1  0  0  0  0
 23 53  1  0  0  0  0
 24 43  1  0  0  0  0
 25 56  1  0  0  0  0
 26 70  1  0  0  0  0
 27 83  1  0  0  0  0
 28 84  1  0  0  0  0
 29 31  2  0  0  0  0
 29 83  1  0  0  0  0
 30 85  1  0  0  0  0
 31 86  1  0  0  0  0
 32 66  2  0  0  0  0
 33 69  1  0  0  0  0
 33 73  1  0  0  0  0
 34 44  1  0  0  0  0
 34 62  1  0  0  0  0
 34 67  2  0  0  0  0
 35 37  1  0  0  0  0
 35 68  2  0  0  0  0
 36 74  1  0  0  0  0
 36 78  2  0  0  0  0
 37 71  1  0  0  0  0
 37 79  2  0  0  0  0
 38 54  1  0  0  0  0
 38 75  1  0  0  0  0
 38 80  2  0  0  0  0
 39 63  1  0  0  0  0
 39 72  1  0  0  0  0
 39 81  2  0  0  0  0
 40 64  1  0  0  0  0
 40 76  1  0  0  0  0
 40 82  2  0  0  0  0
 41 45  1  0  0  0  0
 42 54  1  0  0  0  0
 43 72  1  0  0  0  0
 44 70  1  0  0  0  0
 45 47  1  0  0  0  0
 46 48  1  0  0  0  0
 46 50  1  0  0  0  0
 47 53  1  0  0  0  0
 48 55  1  0  0  0  0
 49 51  1  0  0  0  0
 49 67  1  0  0  0  0
 50 71  1  0  0  0  0
 51 70  1  0  0  0  0
 52 55  1  0  0  0  0
 52 71  1  0  0  0  0
 53 75  1  0  0  0  0
 54 72  1  0  0  0  0
 55 69  1  0  0  0  0
 57 64  1  0  0  0  0
 58 65  1  0  0  0  0
 59 65  1  0  0  0  0
 60 65  1  0  0  0  0
 61 77  1  0  0  0  0
 62 84  1  0  0  0  0
 63 65  1  0  0  0  0
 63 76  1  0  0  0  0
 64 77  1  0  0  0  0
 66 69  1  0  0  0  0
M  CHG  1  77   1
M  ISO  4  35 100  37 100  62 101  84 101
M  END
> <Batch ID>
0071

> <Smiles>
CNC(C)C(=O)NC(C(=O)N1Cc2cc([101O:1][101CH2:1]C3=NCCN(c4ccc([100C:0](=N)[100C:0](=O)N5CCCC(n6nc(-c7ccc(Oc8ccc(F)cc8F)cc7)c(C(N)=O)c6N)C5)c(C)c4)C3)ccc2CC1C(=O)NC1CCCc2ccccc21)C(C)(C)C

> <Shape>
0.260

> <Color>
0.104

> <Negative vol penalty>
0.000

$$$$

  -OEChem-04042323353D

 85 93  0     1  0  0  0  0  0999 V2000
  -28.9962  -31.1111   28.2409 C   0  0  0  0  0  0  0  0  0  0  0  0
  -29.6164  -29.8658   28.2490 C   0  0  0  0  0  0  0  0  0  0  0  0
  -22.9997   -9.8936   19.9817 C   0  0  0  0  0  0  0  0  0  0  0  0
  -23.7233   -9.9468   22.2862 C   0  0  0  0  0  0  0  0  0  0  0  0
  -27.6329  -31.2115   28.5151 C   0  0  0  0  0  0  0  0  0  0  0  0
  -28.8737  -28.7202   28.5325 C   0  0  0  0  0  0  0  0  0  0  0  0
  -29.8959  -24.9079   25.3596 C   0  0  0  0  0  0  0  0  0  0  0  0
  -22.2327   -8.7596   20.2487 C   0  0  0  0  0  0  0  0  0  0  0  0
  -22.9563   -8.8127   22.5532 C   0  0  0  0  0  0  0  0  0  0  0  0
  -31.0714  -24.1922   25.5821 C   0  0  0  0  0  0  0  0  0  0  0  0
  -21.4732   -5.7213   23.7587 C   0  0  0  0  0  0  0  0  0  0  0  0
  -22.0584   -4.7061   24.5153 C   0  0  0  0  0  0  0  0  0  0  0  0
  -30.4708  -18.3477   23.9881 C   0  0  0  0  0  0  0  0  0  0  0  0
  -29.8005  -22.4552   26.6716 C   0  0  0  0  0  0  0  0  0  0  0  0
  -32.0569  -16.5492   22.5625 C   0  0  0  0  0  0  0  0  0  0  0  0
  -23.7858   -4.4568   22.8447 C   0  0  0  0  0  0  0  0  0  0  0  0
  -23.7451  -10.4872   21.0005 C   0  0  0  0  0  0  0  0  0  0  0  0
  -31.8542  -18.3448   24.1662 C   0  0  0  0  0  0  0  0  0  0  0  0
  -24.1312  -13.0025   20.8222 C   0  0  0  0  0  0  0  0  0  0  0  0
  -26.8712  -30.0654   28.7926 C   0  0  0  0  0  0  0  0  0  0  0  0
  -28.6630  -24.4070   25.8019 C   0  0  0  0  0  0  0  0  0  0  0  0
  -27.4992  -28.8054   28.8120 C   0  0  0  0  0  0  0  0  0  0  0  0
  -28.6104  -23.1654   26.4512 C   0  0  0  0  0  0  0  0  0  0  0  0
  -30.6734  -16.5520   22.3845 C   0  0  0  0  0  0  0  0  0  0  0  0
  -22.2110   -8.2192   21.5344 C   0  0  0  0  0  0  0  0  0  0  0  0
  -31.0242  -22.9670   26.2407 C   0  0  0  0  0  0  0  0  0  0  0  0
  -22.0442   -6.1042   22.5450 C   0  0  0  0  0  0  0  0  0  0  0  0
  -23.2147   -4.0739   24.0584 C   0  0  0  0  0  0  0  0  0  0  0  0
  -29.8804  -17.4512   23.0973 C   0  0  0  0  0  0  0  0  0  0  0  0
  -32.6473  -17.4456   23.4534 C   0  0  0  0  0  0  0  0  0  0  0  0
  -23.2005   -5.4720   22.0880 C   0  0  0  0  0  0  0  0  0  0  0  0
  -24.5381  -11.6583   20.7252 C   0  0  0  0  0  0  0  0  0  0  0  0
  -25.2414  -13.7244   20.4578 C   0  0  0  0  0  0  0  0  0  0  0  0
  -32.4765  -19.2948   25.1100 C   0  0  0  0  0  0  0  0  0  0  0  0
  -22.8631  -13.5496   21.2073 C   0  0  0  0  0  0  0  0  0  0  0  0
  -26.4457  -25.3960   27.8534 C   0  0  0  0  0  0  0  0  0  0  0  0
  -24.8092  -22.8360   26.7173 C   0  0  0  0  0  0  0  0  0  0  0  0
  -24.9011  -19.7715   25.2182 C   0  0  0  0  0  0  0  0  0  0  0  0
  -30.7209  -14.6843   20.6946 C   0  0  0  0  0  0  0  0  0  0  0  0
  -25.4102  -30.2289   29.1296 C   0  0  0  0  0  0  0  0  0  0  0  0
  -27.4008  -25.1787   25.5304 C   0  0  0  0  0  0  0  0  0  0  0  0
  -27.3097  -22.5741   26.9278 C   0  0  0  0  0  0  0  0  0  0  0  0
  -24.6178  -28.9265   29.0518 C   0  0  0  0  0  0  0  0  0  0  0  0
  -29.6036  -12.2294   18.3704 C   0  0  0  0  0  0  0  0  0  0  0  0
  -25.3679  -27.8022   29.7589 C   0  0  0  0  0  0  0  0  0  0  0  0
  -28.1527  -11.9725   18.7838 C   0  0  0  0  0  0  0  0  0  0  0  0
  -30.5034  -12.4738   19.5806 C   0  0  0  0  0  0  0  0  0  0  0  0
  -28.5873  -13.2645   20.9119 C   0  0  0  0  0  0  0  0  0  0  0  0
  -26.7223  -27.5370   29.0906 C   0  0  1  0  0  0  0  0  0  0  0  0
  -26.2628  -24.8159   26.4795 C   0  0  1  0  0  0  0  0  0  0  0  0
  -27.6304  -13.0772   19.7233 C   0  0  2  0  0  0  0  0  0  0  0  0
  -23.4058  -17.9064   24.4548 C   0  0  0  0  0  0  0  0  0  0  0  0
  -35.4335  -21.4027   24.8731 C   0  0  0  0  0  0  0  0  0  0  0  0
  -24.4715  -21.9261   29.6101 C   0  0  0  0  0  0  0  0  0  0  0  0
  -23.8416  -19.6605   28.7507 C   0  0  0  0  0  0  0  0  0  0  0  0
  -22.4374  -21.6425   28.1830 C   0  0  0  0  0  0  0  0  0  0  0  0
  -25.7569  -20.0824   22.4022 C   0  0  0  0  0  0  0  0  0  0  0  0
  -33.2215  -22.4273   25.5083 C   0  0  0  0  0  0  0  0  0  1  0  0
  -24.7056  -21.3788   27.0978 C   0  0  1  0  0  0  0  0  0  0  0  0
  -24.1111  -19.1938   24.0577 C   0  0  2  0  0  0  0  0  0  0  0  0
  -34.0585  -21.1558   25.4716 C   0  0  1  0  0  0  0  0  0  0  0  0
  -23.8889  -21.1637   28.4033 C   0  0  0  0  0  0  0  0  0  0  0  0
  -25.8076  -11.5311   20.3300 N   0  0  0  0  0  0  0  0  0  0  0  0
  -26.2080  -12.8046   20.1754 N   0  0  0  0  0  0  0  0  0  0  0  0
  -26.1037  -23.3696   26.6444 N   0  0  0  0  0  0  0  0  0  0  0  0
  -29.9480  -13.5357   20.4224 N   0  0  0  0  0  0  0  0  0  0  0  0
  -25.4753  -15.0500   20.3546 N   0  0  0  0  0  0  0  0  0  0  0  0
  -32.1131  -19.2364   26.3912 N   0  0  0  0  0  0  0  0  0  0  0  0
  -21.8308  -12.6661   21.5510 N   0  0  0  0  0  0  0  0  0  0  0  0
  -30.0764  -15.6405   21.4788 N   0  0  0  0  0  0  0  0  0  0  0  0
  -26.5447  -26.7742   27.8736 N   0  0  0  0  0  0  0  0  0  0  0  0
  -24.1614  -20.6903   25.9323 N   0  0  0  0  0  0  0  0  0  0  0  0
  -33.3695  -20.1652   24.6318 N   0  3  0  0  0  0  0  0  0  0  0  0
  -25.0160  -18.8994   22.9107 N   0  3  0  0  0  0  0  0  0  0  0  0
  -22.6467  -14.7850   21.2296 O   0  0  0  0  0  0  0  0  0  0  0  0
  -26.4919  -24.6487   28.8235 O   0  0  0  0  0  0  0  0  0  0  0  0
  -23.7799  -23.4753   26.4862 O   0  0  0  0  0  0  0  0  0  0  0  0
  -26.0572  -19.4382   25.4685 O   0  0  0  0  0  0  0  0  0  0  0  0
  -31.8600  -14.8225   20.2412 O   0  0  0  0  0  0  0  0  0  0  0  0
  -21.4624   -7.1128   21.7953 O   0  0  0  0  0  0  0  0  0  0  0  0
  -32.1702  -22.2666   26.4598 O   0  0  0  0  0  0  0  0  0  1  0  0
  -23.7775   -3.1001   24.7858 F   0  0  0  0  0  0  0  0  0  0  0  0
  -28.5495  -17.4626   22.9343 F   0  0  0  0  0  0  0  0  0  0  0  0
  -33.9776  -17.4351   23.6178 F   0  0  0  0  0  0  0  0  0  0  0  0
  -23.7544   -5.8363   20.9234 F   0  0  0  0  0  0  0  0  0  0  0  0
  1  2  1  0  0  0  0
  1  5  2  0  0  0  0
  2  6  2  0  0  0  0
  3  8  2  0  0  0  0
  3 17  1  0  0  0  0
  4  9  1  0  0  0  0
  4 17  2  0  0  0  0
  5 20  1  0  0  0  0
  6 22  1  0  0  0  0
  7 10  2  0  0  0  0
  7 21  1  0  0  0  0
  8 25  1  0  0  0  0
  9 25  2  0  0  0  0
 10 26  1  0  0  0  0
 11 12  2  0  0  0  0
 11 27  1  0  0  0  0
 12 28  1  0  0  0  0
 13 18  1  0  0  0  0
 13 29  2  0  0  0  0
 14 23  1  0  0  0  0
 14 26  2  0  0  0  0
 15 24  2  0  0  0  0
 15 30  1  0  0  0  0
 16 28  2  0  0  0  0
 16 31  1  0  0  0  0
 17 32  1  0  0  0  0
 18 30  2  0  0  0  0
 18 34  1  0  0  0  0
 19 32  1  0  0  0  0
 19 33  2  0  0  0  0
 19 35  1  0  0  0  0
 20 22  2  0  0  0  0
 20 40  1  0  0  0  0
 21 23  2  0  0  0  0
 21 41  1  0  0  0  0
 22 49  1  0  0  0  0
 23 42  1  0  0  0  0
 24 29  1  0  0  0  0
 24 70  1  0  0  0  0
 25 80  1  0  0  0  0
 26 81  1  0  0  0  0
 27 31  2  0  0  0  0
 27 80  1  0  0  0  0
 28 82  1  0  0  0  0
 29 83  1  0  0  0  0
 30 84  1  0  0  0  0
 31 85  1  0  0  0  0
 32 63  2  0  0  0  0
 33 64  1  0  0  0  0
 33 67  1  0  0  0  0
 34 68  1  0  0  0  0
 34 73  2  0  0  0  0
 35 69  1  0  0  0  0
 35 75  2  0  0  0  0
 36 50  1  0  0  0  0
 36 71  1  0  0  0  0
 36 76  2  0  0  0  0
 37 59  1  0  0  0  0
 37 65  1  0  0  0  0
 37 77  2  0  0  0  0
 38 60  1  0  0  0  0
 38 72  1  0  0  0  0
 38 78  2  0  0  0  0
 39 66  1  0  0  0  0
 39 70  1  0  0  0  0
 39 79  2  0  0  0  0
 40 43  1  0  0  0  0
 41 50  1  0  0  0  0
 42 65  1  0  0  0  0
 43 45  1  0  0  0  0
 44 46  1  0  0  0  0
 44 47  1  0  0  0  0
 45 49  1  0  0  0  0
 46 51  1  0  0  0  0
 47 66  1  0  0  0  0
 48 51  1  0  0  0  0
 48 66  1  0  0  0  0
 49 71  1  0  0  0  0
 50 65  1  0  0  0  0
 51 64  1  0  0  0  0
 52 60  1  0  0  0  0
 53 61  1  0  0  0  0
 54 62  1  0  0  0  0
 55 62  1  0  0  0  0
 56 62  1  0  0  0  0
 57 74  1  0  0  0  0
 58 61  1  0  0  0  0
 58 81  1  0  0  0  0
 59 62  1  0  0  0  0
 59 72  1  0  0  0  0
 60 74  1  0  0  0  0
 61 73  1  0  0  0  0
 63 64  1  0  0  0  0
M  CHG  2  73   1  74   1
M  ISO  4  39 100  58 101  70 100  81 101
M  END
> <Batch ID>
0071

> <Smiles>
CNC(C)C(=O)NC(C(=O)N1Cc2cc([101O:1][101CH2:1]C(C)NC(=N)c3cc(F)c([100NH:0][100C:0](=O)N4CCCC(n5nc(-c6ccc(Oc7ccc(F)cc7F)cc6)c(C(N)=O)c5N)C4)cc3F)ccc2CC1C(=O)NC1CCCc2ccccc21)C(C)(C)C

> <Shape>
0.172

> <Color>
0.193

> <Negative vol penalty>
0.000

$$$$

  -OEChem-04042323353D

 83 91  0     1  0  0  0  0  0999 V2000
  -19.4715  -30.3010   20.5841 C   0  0  0  0  0  0  0  0  0  0  0  0
  -20.5483  -29.5381   21.0247 C   0  0  0  0  0  0  0  0  0  0  0  0
  -23.0602   -9.9424   21.5084 C   0  0  0  0  0  0  0  0  0  0  0  0
  -23.7641  -10.9054   23.6095 C   0  0  0  0  0  0  0  0  0  0  0  0
  -18.2635  -30.2667   21.2795 C   0  0  0  0  0  0  0  0  0  0  0  0
  -20.4179  -28.7413   22.1615 C   0  0  0  0  0  0  0  0  0  0  0  0
  -22.3734  -24.1136   21.5250 C   0  0  0  0  0  0  0  0  0  0  0  0
  -31.9447  -17.2934   21.2832 C   0  0  0  0  0  0  0  0  0  0  0  0
  -22.3167   -8.9838   22.1968 C   0  0  0  0  0  0  0  0  0  0  0  0
  -23.0205   -9.9468   24.2979 C   0  0  0  0  0  0  0  0  0  0  0  0
  -23.7598  -23.9914   21.6071 C   0  0  0  0  0  0  0  0  0  0  0  0
  -22.8997   -6.0892   23.8417 C   0  0  0  0  0  0  0  0  0  0  0  0
  -32.5053  -18.4805   21.7544 C   0  0  0  0  0  0  0  0  0  0  0  0
  -22.9950   -4.7654   23.4128 C   0  0  0  0  0  0  0  0  0  0  0  0
  -23.5488  -23.1875   23.8717 C   0  0  0  0  0  0  0  0  0  0  0  0
  -29.7424  -18.2764   21.4265 C   0  0  0  0  0  0  0  0  0  0  0  0
  -20.6188   -4.7358   22.9765 C   0  0  0  0  0  0  0  0  0  0  0  0
  -23.7840  -10.9032   22.2147 C   0  0  0  0  0  0  0  0  0  0  0  0
  -24.1149  -13.1592   21.0709 C   0  0  0  0  0  0  0  0  0  0  0  0
  -18.1153  -29.4616   22.4199 C   0  0  0  0  0  0  0  0  0  0  0  0
  -21.5636  -23.7834   22.6212 C   0  0  0  0  0  0  0  0  0  0  0  0
  -19.2072  -28.6972   22.8736 C   0  0  0  0  0  0  0  0  0  0  0  0
  -22.1522  -23.3040   23.8001 C   0  0  0  0  0  0  0  0  0  0  0  0
  -30.5633  -17.1913   21.1192 C   0  0  0  0  0  0  0  0  0  0  0  0
  -30.3029  -19.4635   21.8978 C   0  0  0  0  0  0  0  0  0  0  0  0
  -22.2969   -8.9860   23.5915 C   0  0  0  0  0  0  0  0  0  0  0  0
  -24.3479  -23.5310   22.7815 C   0  0  0  0  0  0  0  0  0  0  0  0
  -21.6640   -6.7363   23.8382 C   0  0  0  0  0  0  0  0  0  0  0  0
  -21.8545   -4.0887   22.9801 C   0  0  0  0  0  0  0  0  0  0  0  0
  -31.6844  -19.5656   22.0617 C   0  0  0  0  0  0  0  0  0  0  0  0
  -20.5236   -6.0596   23.4055 C   0  0  0  0  0  0  0  0  0  0  0  0
  -24.5526  -11.8933   21.5042 C   0  0  0  0  0  0  0  0  0  0  0  0
  -25.2115  -13.7086   20.4527 C   0  0  0  0  0  0  0  0  0  0  0  0
  -27.5770  -21.9650   22.5282 C   0  0  0  0  0  0  0  0  0  0  0  0
  -26.2654  -22.2221   22.4975 C   0  0  0  0  0  0  0  0  0  1  0  0
  -22.8319  -13.7828   21.2144 C   0  0  0  0  0  0  0  0  0  0  0  0
  -28.0842  -20.6277   22.1032 C   0  0  0  0  0  0  0  0  0  0  0  0
  -19.5334  -25.3820   24.4723 C   0  0  0  0  0  0  0  0  0  0  0  0
  -18.9527  -22.4401   25.7092 C   0  0  0  0  0  0  0  0  0  0  0  0
  -20.0590  -19.2591   26.2608 C   0  0  0  0  0  0  0  0  0  0  0  0
  -30.6661  -14.8148   20.2896 C   0  0  0  0  0  0  0  0  0  0  0  0
  -16.8049  -29.4937   23.1658 C   0  0  0  0  0  0  0  0  0  0  0  0
  -20.0680  -23.8955   22.5075 C   0  0  0  0  0  0  0  0  0  0  0  0
  -21.3260  -22.9170   24.9984 C   0  0  0  0  0  0  0  0  0  0  0  0
  -16.6328  -28.3351   24.1448 C   0  0  0  0  0  0  0  0  0  0  0  0
  -29.6227  -11.6231   19.1058 C   0  0  0  0  0  0  0  0  0  0  0  0
  -17.8969  -28.1476   24.9776 C   0  0  0  0  0  0  0  0  0  0  0  0
  -28.1747  -11.5130   19.5886 C   0  0  0  0  0  0  0  0  0  0  0  0
  -30.5071  -12.3405   20.1241 C   0  0  0  0  0  0  0  0  0  0  0  0
  -28.5632  -13.5413   21.0454 C   0  0  0  0  0  0  0  0  0  0  0  0
  -19.0972  -27.8013   24.0882 C   0  0  1  0  0  0  0  0  0  0  0  0
  -19.3735  -24.0191   23.8602 C   0  0  1  0  0  0  0  0  0  0  0  0
  -27.6203  -12.8834   20.0247 C   0  0  2  0  0  0  0  0  0  0  0  0
  -19.3773  -17.0942   27.3313 C   0  0  0  0  0  0  0  0  0  0  0  0
  -19.5412  -23.6185   28.4615 C   0  0  0  0  0  0  0  0  0  0  0  0
  -19.7815  -21.2837   29.3328 C   0  0  0  0  0  0  0  0  0  0  0  0
  -17.5990  -22.0443   28.3943 C   0  0  0  0  0  0  0  0  0  0  0  0
  -20.1968  -17.8080   23.6851 C   0  0  0  0  0  0  0  0  0  0  0  0
  -19.5392  -21.6170   26.8306 C   0  0  1  0  0  0  0  0  0  0  0  0
  -19.3949  -17.9106   26.0484 C   0  0  2  0  0  0  0  0  0  0  0  0
  -19.1312  -22.1499   28.2331 C   0  0  0  0  0  0  0  0  0  0  0  0
  -25.8278  -11.6525   21.1880 N   0  0  0  0  0  0  0  0  0  0  0  0
  -26.2008  -12.7746   20.5493 N   0  0  0  0  0  0  0  0  0  0  0  0
  -19.8683  -23.0502   24.8402 N   0  0  0  0  0  0  0  0  0  0  0  0
  -29.9214  -13.6328   20.4870 N   0  0  0  0  0  0  0  0  0  0  0  0
  -25.4165  -14.8946   19.8413 N   0  0  0  0  0  0  0  0  0  0  0  0
  -21.8170  -13.0784   21.8763 N   0  0  0  0  0  0  0  0  0  0  0  0
  -29.4672  -20.5642   22.2089 N   0  0  0  0  0  0  0  0  0  0  0  0
  -29.9941  -15.9852   20.6406 N   0  0  0  0  0  0  0  0  0  0  0  0
  -19.0462  -26.4111   23.6893 N   0  0  0  0  0  0  0  0  0  0  0  0
  -19.1396  -20.2371   26.5763 N   0  0  0  0  0  0  0  0  0  0  0  0
  -20.1233  -17.1330   25.0064 N   0  3  0  0  0  0  0  0  0  0  0  0
  -22.5877  -14.9240   20.7544 O   0  0  0  0  0  0  0  0  0  0  0  0
  -27.3187  -19.7497   21.7225 O   0  0  0  0  0  0  0  0  0  0  0  0
  -20.0586  -25.4917   25.5740 O   0  0  0  0  0  0  0  0  0  0  0  0
  -17.7271  -22.5323   25.6038 O   0  0  0  0  0  0  0  0  0  0  0  0
  -21.2724  -19.4272   26.1608 O   0  0  0  0  0  0  0  0  0  0  0  0
  -31.8053  -14.7927   19.8166 O   0  0  0  0  0  0  0  0  0  0  0  0
  -21.5713   -8.0509   24.2636 O   0  0  0  0  0  0  0  0  0  0  0  0
  -25.7009  -23.4114   22.8645 O   0  0  0  0  0  0  0  0  0  1  0  0
  -21.9464   -2.8179   22.5668 F   0  0  0  0  0  0  0  0  0  0  0  0
  -32.2344  -20.7012   22.5142 F   0  0  0  0  0  0  0  0  0  0  0  0
  -19.3339   -6.6765   23.3987 F   0  0  0  0  0  0  0  0  0  0  0  0
  1  2  1  0  0  0  0
  1  5  2  0  0  0  0
  2  6  2  0  0  0  0
  3  9  2  0  0  0  0
  3 18  1  0  0  0  0
  4 10  1  0  0  0  0
  4 18  2  0  0  0  0
  5 20  1  0  0  0  0
  6 22  1  0  0  0  0
  7 11  2  0  0  0  0
  7 21  1  0  0  0  0
  8 13  2  0  0  0  0
  8 24  1  0  0  0  0
  9 26  1  0  0  0  0
 10 26  2  0  0  0  0
 11 27  1  0  0  0  0
 12 14  2  0  0  0  0
 12 28  1  0  0  0  0
 13 30  1  0  0  0  0
 14 29  1  0  0  0  0
 15 23  1  0  0  0  0
 15 27  2  0  0  0  0
 16 24  2  0  0  0  0
 16 25  1  0  0  0  0
 17 29  2  0  0  0  0
 17 31  1  0  0  0  0
 18 32  1  0  0  0  0
 19 32  1  0  0  0  0
 19 33  2  0  0  0  0
 19 36  1  0  0  0  0
 20 22  2  0  0  0  0
 20 42  1  0  0  0  0
 21 23  2  0  0  0  0
 21 43  1  0  0  0  0
 22 51  1  0  0  0  0
 23 44  1  0  0  0  0
 24 69  1  0  0  0  0
 25 30  2  0  0  0  0
 25 68  1  0  0  0  0
 26 79  1  0  0  0  0
 27 80  1  0  0  0  0
 28 31  2  0  0  0  0
 28 79  1  0  0  0  0
 29 81  1  0  0  0  0
 30 82  1  0  0  0  0
 31 83  1  0  0  0  0
 32 62  2  0  0  0  0
 33 63  1  0  0  0  0
 33 66  1  0  0  0  0
 34 35  2  0  0  0  0
 34 37  1  0  0  0  0
 35 80  1  0  0  0  0
 36 67  1  0  0  0  0
 36 73  2  0  0  0  0
 37 68  1  0  0  0  0
 37 74  2  0  0  0  0
 38 52  1  0  0  0  0
 38 70  1  0  0  0  0
 38 75  2  0  0  0  0
 39 59  1  0  0  0  0
 39 64  1  0  0  0  0
 39 76  2  0  0  0  0
 40 60  1  0  0  0  0
 40 71  1  0  0  0  0
 40 77  2  0  0  0  0
 41 65  1  0  0  0  0
 41 69  1  0  0  0  0
 41 78  2  0  0  0  0
 42 45  1  0  0  0  0
 43 52  1  0  0  0  0
 44 64  1  0  0  0  0
 45 47  1  0  0  0  0
 46 48  1  0  0  0  0
 46 49  1  0  0  0  0
 47 51  1  0  0  0  0
 48 53  1  0  0  0  0
 49 65  1  0  0  0  0
 50 53  1  0  0  0  0
 50 65  1  0  0  0  0
 51 70  1  0  0  0  0
 52 64  1  0  0  0  0
 53 63  1  0  0  0  0
 54 60  1  0  0  0  0
 55 61  1  0  0  0  0
 56 61  1  0  0  0  0
 57 61  1  0  0  0  0
 58 72  1  0  0  0  0
 59 61  1  0  0  0  0
 59 71  1  0  0  0  0
 60 72  1  0  0  0  0
 62 63  1  0  0  0  0
M  CHG  1  72   1
M  ISO  4  35 101  41 100  69 100  80 101
M  END
> <Batch ID>
0071

> <Smiles>
CNC(C)C(=O)NC(C(=O)N1Cc2cc([101O:1][101CH:1]=CC(=O)Nc3cc([100NH:0][100C:0](=O)N4CCCC(n5nc(-c6ccc(Oc7ccc(F)cc7F)cc6)c(C(N)=O)c5N)C4)ccc3F)ccc2CC1C(=O)NC1CCCc2ccccc21)C(C)(C)C

> <Shape>
0.208

> <Color>
0.163

> <Negative vol penalty>
0.000

$$$$

  -OEChem-04042323353D

 87 96  0     1  0  0  0  0  0999 V2000
  -32.7352  -12.2724   20.9179 C   0  0  0  0  0  0  0  0  0  0  0  0
  -32.3402  -13.5971   21.0745 C   0  0  0  0  0  0  0  0  0  0  0  0
  -29.1745  -26.0819   18.5071 C   0  0  0  0  0  0  0  0  0  0  0  0
  -27.7124  -24.9581   20.0680 C   0  0  0  0  0  0  0  0  0  0  0  0
  -31.8528  -11.3434   20.3682 C   0  0  0  0  0  0  0  0  0  0  0  0
  -31.0628  -13.9938   20.6804 C   0  0  0  0  0  0  0  0  0  0  0  0
  -27.5338  -18.2257   23.3530 C   0  0  0  0  0  0  0  0  0  0  0  0
  -18.1996  -28.7850   22.6614 C   0  0  0  0  0  0  0  0  0  0  0  0
  -19.5500  -29.1310   22.7085 C   0  0  0  0  0  0  0  0  0  0  0  0
  -30.1811  -25.1567   18.7838 C   0  0  0  0  0  0  0  0  0  0  0  0
  -28.7189  -24.0329   20.3447 C   0  0  0  0  0  0  0  0  0  0  0  0
  -27.2911  -19.5667   23.0586 C   0  0  0  0  0  0  0  0  0  0  0  0
  -30.0310  -21.2749   18.8981 C   0  0  0  0  0  0  0  0  0  0  0  0
  -29.6750  -19.9271   18.9459 C   0  0  0  0  0  0  0  0  0  0  0  0
  -25.3024  -18.9348   21.8483 C   0  0  0  0  0  0  0  0  0  0  0  0
  -18.8042  -26.4611   22.3951 C   0  0  0  0  0  0  0  0  0  0  0  0
  -30.4226  -19.8110   21.2404 C   0  0  0  0  0  0  0  0  0  0  0  0
  -27.9402  -25.9826   19.1493 C   0  0  0  0  0  0  0  0  0  0  0  0
  -26.2992  -27.1940   17.6172 C   0  0  0  0  0  0  0  0  0  0  0  0
  -30.5605  -11.7268   19.9761 C   0  0  0  0  0  0  0  0  0  0  0  0
  -26.6670  -17.2266   22.8872 C   0  0  0  0  0  0  0  0  0  0  0  0
  -30.1627  -13.0693   20.1237 C   0  0  0  0  0  0  0  0  0  0  0  0
  -25.5349  -17.5821   22.1403 C   0  0  0  0  0  0  0  0  0  0  0  0
  -20.1547  -26.8071   22.4421 C   0  0  0  0  0  0  0  0  0  0  0  0
  -17.8266  -27.4500   22.5047 C   0  0  0  0  0  0  0  0  0  0  0  0
  -20.5275  -28.1421   22.5988 C   0  0  0  0  0  0  0  0  0  0  0  0
  -29.9533  -24.1322   19.7026 C   0  0  0  0  0  0  0  0  0  0  0  0
  -26.1769  -19.9212   22.3037 C   0  0  0  0  0  0  0  0  0  0  0  0
  -30.5829  -21.8907   20.0215 C   0  0  0  0  0  0  0  0  0  0  0  0
  -29.8707  -19.1952   20.1171 C   0  0  0  0  0  0  0  0  0  0  0  0
  -30.7787  -21.1588   21.1926 C   0  0  0  0  0  0  0  0  0  0  0  0
  -26.9003  -26.9383   18.8643 C   0  0  0  0  0  0  0  0  0  0  0  0
  -25.3785  -28.1800   17.8756 C   0  0  0  0  0  0  0  0  0  0  0  0
  -26.5505  -26.5940   16.3396 C   0  0  0  0  0  0  0  0  0  0  0  0
  -24.3866  -23.0718   22.2418 C   0  0  0  0  0  0  0  0  0  0  0  0
  -26.9639  -14.7238   20.9504 C   0  0  0  0  0  0  0  0  0  0  0  0
  -23.9195  -14.1239   21.8961 C   0  0  0  0  0  0  0  0  0  0  0  0
  -21.1480  -14.0143   23.3851 C   0  0  0  0  0  0  0  0  0  0  0  0
  -22.4099  -29.8041   22.8005 C   0  0  0  0  0  0  0  0  0  0  0  0
  -29.6584  -10.6971   19.3431 C   0  0  0  0  0  0  0  0  0  0  0  0
  -26.9282  -15.7870   23.2360 C   0  0  0  0  0  0  0  0  0  0  0  0
  -24.5626  -16.5494   21.6338 C   0  0  0  0  0  0  0  0  0  0  0  0
  -28.1918  -11.1181   19.2972 C   0  0  0  0  0  0  0  0  0  0  0  0
  -24.5572  -31.8543   20.8351 C   0  0  0  0  0  0  0  0  0  0  0  0
  -28.0636  -12.5519   18.7926 C   0  0  0  0  0  0  0  0  0  0  0  0
  -25.3427  -30.8499   19.9888 C   0  0  0  0  0  0  0  0  0  0  0  0
  -23.0028  -24.7784   21.1148 C   0  0  0  0  0  0  0  0  0  0  0  0
  -22.4900  -24.0955   23.4666 C   0  0  0  0  0  0  0  0  0  0  0  0
  -24.2942  -31.3256   22.2440 C   0  0  0  0  0  0  0  0  0  0  0  0
  -21.6229  -25.4255   21.0039 C   0  0  0  0  0  0  0  0  0  0  0  0
  -21.1090  -24.7369   23.3474 C   0  0  0  0  0  0  0  0  0  0  0  0
  -24.4484  -28.9966   21.4559 C   0  0  0  0  0  0  0  0  0  0  0  0
  -28.7766  -13.5328   19.7311 C   0  0  1  0  0  0  0  0  0  0  0  0
  -22.9992  -23.6190   22.1083 C   0  0  0  0  0  0  0  0  0  0  0  0
  -26.2599  -14.8086   22.2751 C   0  0  1  0  0  0  0  0  0  0  0  0
  -24.6814  -29.4579   20.0079 C   0  0  2  0  0  0  0  0  0  0  0  0
  -20.7742  -11.5970   23.9458 C   0  0  0  0  0  0  0  0  0  0  0  0
  -23.4654  -15.2952   19.1155 C   0  0  0  0  0  0  0  0  0  0  0  0
  -21.0171  -14.8618   19.4090 C   0  0  0  0  0  0  0  0  0  0  0  0
  -22.6282  -12.9574   19.4122 C   0  0  0  0  0  0  0  0  0  0  0  0
  -18.2269  -14.2503   22.9723 C   0  0  0  0  0  0  0  0  0  0  0  0
  -24.5751  -21.6206   21.8540 C   0  0  0  0  0  0  0  0  0  1  0  0
  -22.5489  -14.5171   21.4004 C   0  0  1  0  0  0  0  0  0  0  0  0
  -20.1638  -12.9897   23.9199 C   0  0  2  0  0  0  0  0  0  0  0  0
  -22.4291  -14.4239   19.8530 C   0  0  0  0  0  0  0  0  0  0  0  0
  -26.4034  -27.7004   19.8422 N   0  0  0  0  0  0  0  0  0  0  0  0
  -25.4803  -28.4448   19.2096 N   0  0  0  0  0  0  0  0  0  0  0  0
  -21.1194  -25.7984   22.3306 N   0  0  0  0  0  0  0  0  0  0  0  0
  -24.8647  -15.1547   21.9958 N   0  0  0  0  0  0  0  0  0  0  0  0
  -23.6626  -30.0056   22.1834 N   0  0  0  0  0  0  0  0  0  0  0  0
  -16.4611  -27.1006   22.4578 N   0  0  0  0  0  0  0  0  0  0  0  0
  -24.4999  -28.8376   17.0895 N   0  0  0  0  0  0  0  0  0  0  0  0
  -25.8150  -25.4566   15.9793 N   0  0  0  0  0  0  0  0  0  0  0  0
  -21.8928  -28.5179   22.6491 N   0  0  0  0  0  0  0  0  0  0  0  0
  -27.9728  -13.7805   20.9089 N   0  0  0  0  0  0  0  0  0  0  0  0
  -21.5975  -13.6813   22.1248 N   0  0  0  0  0  0  0  0  0  0  0  0
  -18.9417  -12.9515   23.0679 N   0  3  0  0  0  0  0  0  0  0  0  0
  -27.4137  -27.0431   15.5479 O   0  0  0  0  0  0  0  0  0  0  0  0
  -25.3137  -23.7722   22.6456 O   0  0  0  0  0  0  0  0  0  0  0  0
  -26.6164  -15.4586   20.0334 O   0  0  0  0  0  0  0  0  0  0  0  0
  -24.1412  -12.9468   22.1911 O   0  0  0  0  0  0  0  0  0  0  0  0
  -21.4817  -15.0122   24.0202 O   0  0  0  0  0  0  0  0  0  0  0  0
  -21.8254  -30.7136   23.3947 O   0  0  0  0  0  0  0  0  0  0  0  0
  -30.9351  -23.2291   19.9726 O   0  0  0  0  0  0  0  0  0  0  0  0
  -25.9380  -21.2293   22.0143 O   0  0  0  0  0  0  0  0  0  1  0  0
  -29.5274  -17.9013   20.1633 F   0  0  0  0  0  0  0  0  0  0  0  0
  -31.3073  -21.7453   22.2753 F   0  0  0  0  0  0  0  0  0  0  0  0
  1  2  1  0  0  0  0
  1  5  2  0  0  0  0
  2  6  2  0  0  0  0
  3 10  2  0  0  0  0
  3 18  1  0  0  0  0
  4 11  1  0  0  0  0
  4 18  2  0  0  0  0
  5 20  1  0  0  0  0
  6 22  1  0  0  0  0
  7 12  2  0  0  0  0
  7 21  1  0  0  0  0
  8  9  2  0  0  0  0
  8 25  1  0  0  0  0
  9 26  1  0  0  0  0
 10 27  1  0  0  0  0
 11 27  2  0  0  0  0
 12 28  1  0  0  0  0
 13 14  2  0  0  0  0
 13 29  1  0  0  0  0
 14 30  1  0  0  0  0
 15 23  1  0  0  0  0
 15 28  2  0  0  0  0
 16 24  1  0  0  0  0
 16 25  2  0  0  0  0
 17 30  2  0  0  0  0
 17 31  1  0  0  0  0
 18 32  1  0  0  0  0
 19 32  1  0  0  0  0
 19 33  2  0  0  0  0
 19 34  1  0  0  0  0
 20 22  2  0  0  0  0
 20 40  1  0  0  0  0
 21 23  2  0  0  0  0
 21 41  1  0  0  0  0
 22 53  1  0  0  0  0
 23 42  1  0  0  0  0
 24 26  2  0  0  0  0
 24 68  1  0  0  0  0
 25 71  1  0  0  0  0
 26 74  1  0  0  0  0
 27 84  1  0  0  0  0
 28 85  1  0  0  0  0
 29 31  2  0  0  0  0
 29 84  1  0  0  0  0
 30 86  1  0  0  0  0
 31 87  1  0  0  0  0
 32 66  2  0  0  0  0
 33 67  1  0  0  0  0
 33 72  1  0  0  0  0
 34 73  1  0  0  0  0
 34 78  2  0  0  0  0
 35 54  1  0  0  0  0
 35 62  1  0  0  0  0
 35 79  2  0  0  0  0
 36 55  1  0  0  0  0
 36 75  1  0  0  0  0
 36 80  2  0  0  0  0
 37 63  1  0  0  0  0
 37 69  1  0  0  0  0
 37 81  2  0  0  0  0
 38 64  1  0  0  0  0
 38 76  1  0  0  0  0
 38 82  2  0  0  0  0
 39 70  1  0  0  0  0
 39 74  1  0  0  0  0
 39 83  2  0  0  0  0
 40 43  1  0  0  0  0
 41 55  1  0  0  0  0
 42 69  1  0  0  0  0
 43 45  1  0  0  0  0
 44 46  1  0  0  0  0
 44 49  1  0  0  0  0
 45 53  1  0  0  0  0
 46 56  1  0  0  0  0
 47 50  1  0  0  0  0
 47 54  1  0  0  0  0
 48 51  1  0  0  0  0
 48 54  1  0  0  0  0
 49 70  1  0  0  0  0
 50 68  1  0  0  0  0
 51 68  1  0  0  0  0
 52 56  1  0  0  0  0
 52 70  1  0  0  0  0
 53 75  1  0  0  0  0
 55 69  1  0  0  0  0
 56 67  1  0  0  0  0
 57 64  1  0  0  0  0
 58 65  1  0  0  0  0
 59 65  1  0  0  0  0
 60 65  1  0  0  0  0
 61 77  1  0  0  0  0
 62 85  1  0  0  0  0
 63 65  1  0  0  0  0
 63 76  1  0  0  0  0
 64 77  1  0  0  0  0
 66 67  1  0  0  0  0
M  CHG  1  77   1
M  ISO  4  39 100  62 101  74 100  85 101
M  END
> <Batch ID>
0071

> <Smiles>
CNC(C)C(=O)NC(C(=O)N1Cc2cc([101O:1][101CH2:1]C(=O)C3CCN(c4cc(N)ccc4[100NH:0][100C:0](=O)N4CCCC(n5nc(-c6ccc(Oc7ccc(F)cc7F)cc6)c(C(N)=O)c5N)C4)CC3)ccc2CC1C(=O)NC1CCCc2ccccc21)C(C)(C)C

> <Shape>
0.258

> <Color>
0.064

> <Negative vol penalty>
0.000

$$$$

  -OEChem-04042323353D

 88 97  0     1  0  0  0  0  0999 V2000
  -16.6861  -26.9492   21.8818 C   0  0  0  0  0  0  0  0  0  0  0  0
  -17.9519  -26.3721   21.8921 C   0  0  0  0  0  0  0  0  0  0  0  0
  -22.6641  -10.1995   20.7791 C   0  0  0  0  0  0  0  0  0  0  0  0
  -24.5305   -8.8156   21.4411 C   0  0  0  0  0  0  0  0  0  0  0  0
  -31.8295  -19.4026   21.7801 C   0  0  0  0  0  0  0  0  0  0  0  0
  -16.5445  -28.3114   21.6207 C   0  0  0  0  0  0  0  0  0  0  0  0
  -19.0768  -27.1567   21.6401 C   0  0  0  0  0  0  0  0  0  0  0  0
  -22.8582  -26.2280   24.8779 C   0  0  0  0  0  0  0  0  0  0  0  0
  -31.6030  -18.0970   21.3447 C   0  0  0  0  0  0  0  0  0  0  0  0
  -21.8424   -9.5225   21.6802 C   0  0  0  0  0  0  0  0  0  0  0  0
  -23.7089   -8.1386   22.3423 C   0  0  0  0  0  0  0  0  0  0  0  0
  -23.6182  -25.0803   24.6570 C   0  0  0  0  0  0  0  0  0  0  0  0
  -21.3645   -5.7049   22.2325 C   0  0  0  0  0  0  0  0  0  0  0  0
  -21.4491   -4.3131   22.2671 C   0  0  0  0  0  0  0  0  0  0  0  0
  -25.3317  -26.4224   23.6170 C   0  0  0  0  0  0  0  0  0  0  0  0
  -29.2693  -18.3053   21.9342 C   0  0  0  0  0  0  0  0  0  0  0  0
  -22.1019   -4.4106   24.5912 C   0  0  0  0  0  0  0  0  0  0  0  0
  -24.0082   -9.8460   20.6595 C   0  0  0  0  0  0  0  0  0  0  0  0
  -30.7760  -20.1596   22.2927 C   0  0  0  0  0  0  0  0  0  0  0  0
  -24.6946  -10.6361   18.3331 C   0  0  0  0  0  0  0  0  0  0  0  0
  -17.6689  -29.1151   21.3749 C   0  0  0  0  0  0  0  0  0  0  0  0
  -23.3251  -27.4824   24.4596 C   0  0  0  0  0  0  0  0  0  0  0  0
  -18.9499  -28.5307   21.3741 C   0  0  0  0  0  0  0  0  0  0  0  0
  -24.5769  -27.5849   23.8361 C   0  0  0  0  0  0  0  0  0  0  0  0
  -29.4959  -19.6110   22.3697 C   0  0  0  0  0  0  0  0  0  0  0  0
  -30.3229  -17.5483   21.4218 C   0  0  0  0  0  0  0  0  0  0  0  0
  -22.3648   -8.4920   22.4619 C   0  0  0  0  0  0  0  0  0  0  0  0
  -24.8538  -25.1770   24.0238 C   0  0  0  0  0  0  0  0  0  0  0  0
  -21.6486   -6.4496   23.3772 C   0  0  0  0  0  0  0  0  0  0  0  0
  -21.8178   -3.6659   23.4465 C   0  0  0  0  0  0  0  0  0  0  0  0
  -22.0173   -5.8025   24.5566 C   0  0  0  0  0  0  0  0  0  0  0  0
  -24.8574  -10.5447   19.7284 C   0  0  0  0  0  0  0  0  0  0  0  0
  -25.7546  -11.4020   17.9132 C   0  0  0  0  0  0  0  0  0  0  0  0
  -28.4162  -20.8703   24.2143 C   0  0  0  0  0  0  0  0  0  0  0  0
  -31.0468  -21.5204   22.7393 C   0  0  0  0  0  0  0  0  0  0  0  0
  -23.6762  -10.0787   17.4917 C   0  0  0  0  0  0  0  0  0  0  0  0
  -22.3014  -29.6886   22.4131 C   0  0  0  0  0  0  0  0  0  0  0  0
  -24.7807  -31.3980   23.6188 C   0  0  0  0  0  0  0  0  0  0  0  0
  -27.8161  -31.3932   25.1786 C   0  0  0  0  0  0  0  0  0  0  0  0
  -28.8874  -15.5160   20.9820 C   0  0  0  0  0  0  0  0  0  0  0  0
  -17.4621  -30.5735   21.0509 C   0  0  0  0  0  0  0  0  0  0  0  0
  -22.5053  -28.7142   24.7293 C   0  0  0  0  0  0  0  0  0  0  0  0
  -25.1324  -28.9105   23.3860 C   0  0  0  0  0  0  0  0  0  0  0  0
  -27.3714  -21.9140   24.5664 C   0  0  0  0  0  0  0  0  0  0  0  0
  -18.7347  -31.4089   21.1638 C   0  0  0  0  0  0  0  0  0  0  0  0
  -30.1543  -12.0901   19.8062 C   0  0  0  0  0  0  0  0  0  0  0  0
  -19.8980  -30.7060   20.4713 C   0  0  0  0  0  0  0  0  0  0  0  0
  -28.9897  -11.6844   18.9060 C   0  0  0  0  0  0  0  0  0  0  0  0
  -26.2417  -21.6062   22.4032 C   0  0  0  0  0  0  0  0  0  0  0  0
  -30.2447  -13.6000   19.9884 C   0  0  0  0  0  0  0  0  0  0  0  0
  -27.1601  -20.4363   22.0866 C   0  0  0  0  0  0  0  0  0  0  0  0
  -27.7964  -13.3488   20.4345 C   0  0  0  0  0  0  0  0  0  0  0  0
  -20.1962  -29.3536   21.1298 C   0  0  1  0  0  0  0  0  0  0  0  0
  -22.8475  -29.8750   23.8004 C   0  0  1  0  0  0  0  0  0  0  0  0
  -26.0212  -21.6927   23.9046 C   0  0  2  0  0  0  0  0  0  0  0  0
  -27.7277  -12.5411   19.1290 C   0  0  2  0  0  0  0  0  0  0  0  0
  -32.0524  -21.7855   23.8572 C   0  0  0  0  0  0  0  0  0  0  0  0
  -29.6132  -32.9422   25.9960 C   0  0  0  0  0  0  0  0  0  0  0  0
  -25.7357  -31.8006   20.7489 C   0  0  0  0  0  0  0  0  0  0  0  0
  -27.9608  -32.4972   21.6609 C   0  0  0  0  0  0  0  0  0  0  0  0
  -25.9208  -33.8263   22.2039 C   0  0  0  0  0  0  0  0  0  0  0  0
  -27.4790  -30.4942   27.9780 C   0  0  0  0  0  0  0  0  0  0  0  0
  -25.0506  -22.8180   24.2528 C   0  0  0  0  0  0  0  0  0  1  0  0
  -26.2407  -31.5558   23.2691 C   0  0  1  0  0  0  0  0  0  0  0  0
  -28.3432  -32.1887   26.3592 C   0  0  2  0  0  0  0  0  0  0  0  0
  -26.4534  -32.3946   21.9773 C   0  0  0  0  0  0  0  0  0  0  0  0
  -25.9359  -11.2000   20.1658 N   0  0  0  0  0  0  0  0  0  0  0  0
  -30.4328  -22.5530   22.2141 N   0  0  0  0  0  0  0  0  0  0  0  0
  -26.4605  -11.7105   19.0387 N   0  0  0  0  0  0  0  0  0  0  0  0
  -28.3875  -20.3772   22.8984 N   0  0  0  0  0  0  0  0  0  0  0  0
  -24.2905  -30.0853   23.6666 N   0  0  0  0  0  0  0  0  0  0  0  0
  -28.9917  -14.1994   20.4702 N   0  0  0  0  0  0  0  0  0  0  0  0
  -26.1424  -11.8350   16.6948 N   0  0  0  0  0  0  0  0  0  0  0  0
  -23.8797   -8.8005   16.9538 N   0  0  0  0  0  0  0  0  0  0  0  0
  -30.0936  -16.2214   20.9794 N   0  0  0  0  0  0  0  0  0  0  0  0
  -20.9282  -29.5429   22.3639 N   0  0  0  0  0  0  0  0  0  0  0  0
  -26.8868  -32.1094   24.4542 N   0  0  0  0  0  0  0  0  0  0  0  0
  -28.6457  -31.2809   27.5018 N   0  3  0  0  0  0  0  0  0  0  0  0
  -29.2484  -20.5694   25.0744 O   0  0  0  0  0  0  0  0  0  0  0  0
  -22.6246  -10.7024   17.2115 O   0  0  0  0  0  0  0  0  0  0  0  0
  -23.0690  -29.6793   21.4578 O   0  0  0  0  0  0  0  0  0  0  0  0
  -24.1019  -32.4021   23.8483 O   0  0  0  0  0  0  0  0  0  0  0  0
  -28.1939  -30.2521   24.9223 O   0  0  0  0  0  0  0  0  0  0  0  0
  -27.8127  -15.9751   21.3747 O   0  0  0  0  0  0  0  0  0  0  0  0
  -21.5633   -7.8313   23.3415 O   0  0  0  0  0  0  0  0  0  0  0  0
  -25.5974  -24.0582   23.8063 O   0  0  0  0  0  0  0  0  0  1  0  0
  -21.8975   -2.3292   23.4800 F   0  0  0  0  0  0  0  0  0  0  0  0
  -22.2902   -6.5125   25.6598 F   0  0  0  0  0  0  0  0  0  0  0  0
  1  2  1  0  0  0  0
  1  6  2  0  0  0  0
  2  7  2  0  0  0  0
  3 10  2  0  0  0  0
  3 18  1  0  0  0  0
  4 11  1  0  0  0  0
  4 18  2  0  0  0  0
  5  9  2  0  0  0  0
  5 19  1  0  0  0  0
  6 21  1  0  0  0  0
  7 23  1  0  0  0  0
  8 12  2  0  0  0  0
  8 22  1  0  0  0  0
  9 26  1  0  0  0  0
 10 27  1  0  0  0  0
 11 27  2  0  0  0  0
 12 28  1  0  0  0  0
 13 14  2  0  0  0  0
 13 29  1  0  0  0  0
 14 30  1  0  0  0  0
 15 24  1  0  0  0  0
 15 28  2  0  0  0  0
 16 25  1  0  0  0  0
 16 26  2  0  0  0  0
 17 30  2  0  0  0  0
 17 31  1  0  0  0  0
 18 32  1  0  0  0  0
 19 25  2  0  0  0  0
 19 35  1  0  0  0  0
 20 32  1  0  0  0  0
 20 33  2  0  0  0  0
 20 36  1  0  0  0  0
 21 23  2  0  0  0  0
 21 41  1  0  0  0  0
 22 24  2  0  0  0  0
 22 42  1  0  0  0  0
 23 53  1  0  0  0  0
 24 43  1  0  0  0  0
 25 70  1  0  0  0  0
 26 75  1  0  0  0  0
 27 85  1  0  0  0  0
 28 86  1  0  0  0  0
 29 31  2  0  0  0  0
 29 85  1  0  0  0  0
 30 87  1  0  0  0  0
 31 88  1  0  0  0  0
 32 67  2  0  0  0  0
 33 69  1  0  0  0  0
 33 73  1  0  0  0  0
 34 44  1  0  0  0  0
 34 70  1  0  0  0  0
 34 79  2  0  0  0  0
 35 57  1  0  0  0  0
 35 68  2  0  0  0  0
 36 74  1  0  0  0  0
 36 80  2  0  0  0  0
 37 54  1  0  0  0  0
 37 76  1  0  0  0  0
 37 81  2  0  0  0  0
 38 64  1  0  0  0  0
 38 71  1  0  0  0  0
 38 82  2  0  0  0  0
 39 65  1  0  0  0  0
 39 77  1  0  0  0  0
 39 83  2  0  0  0  0
 40 72  1  0  0  0  0
 40 75  1  0  0  0  0
 40 84  2  0  0  0  0
 41 45  1  0  0  0  0
 42 54  1  0  0  0  0
 43 71  1  0  0  0  0
 44 55  1  0  0  0  0
 45 47  1  0  0  0  0
 46 48  1  0  0  0  0
 46 50  1  0  0  0  0
 47 53  1  0  0  0  0
 48 56  1  0  0  0  0
 49 51  1  0  0  0  0
 49 55  1  0  0  0  0
 50 72  1  0  0  0  0
 51 70  1  0  0  0  0
 52 56  1  0  0  0  0
 52 72  1  0  0  0  0
 53 76  1  0  0  0  0
 54 71  1  0  0  0  0
 55 63  1  0  0  0  0
 56 69  1  0  0  0  0
 58 65  1  0  0  0  0
 59 66  1  0  0  0  0
 60 66  1  0  0  0  0
 61 66  1  0  0  0  0
 62 78  1  0  0  0  0
 63 86  1  0  0  0  0
 64 66  1  0  0  0  0
 64 77  1  0  0  0  0
 65 78  1  0  0  0  0
 67 69  1  0  0  0  0
M  CHG  1  78   1
M  ISO  4  40 100  63 101  75 100  86 101
M  END
> <Batch ID>
0071

> <Smiles>
CNC(C)C(=O)NC(C(=O)N1Cc2cc([101O:1][101CH2:1]C3CCN(c4cc([100NH:0][100C:0](=O)N5CCCC(n6nc(-c7ccc(Oc8ccc(F)cc8F)cc7)c(C(N)=O)c6N)C5)ccc4C(C)=N)C(=O)C3)ccc2CC1C(=O)NC1CCCc2ccccc21)C(C)(C)C

> <Shape>
0.274

> <Color>
0.093

> <Negative vol penalty>
0.000

$$$$

  -OEChem-04042323353D

 85 93  0     1  0  0  0  0  0999 V2000
  -27.8764  -37.7548   20.9092 C   0  0  0  0  0  0  0  0  0  0  0  0
  -28.3437  -36.5017   20.5263 C   0  0  0  0  0  0  0  0  0  0  0  0
  -26.6323  -10.7689   19.4159 C   0  0  0  0  0  0  0  0  0  0  0  0
  -25.3198  -12.0262   17.8242 C   0  0  0  0  0  0  0  0  0  0  0  0
  -26.9793  -37.8687   21.9704 C   0  0  0  0  0  0  0  0  0  0  0  0
  -27.9150  -35.3616   21.2052 C   0  0  0  0  0  0  0  0  0  0  0  0
  -26.9380  -29.8059   18.8207 C   0  0  0  0  0  0  0  0  0  0  0  0
  -25.6508   -9.7782   19.4428 C   0  0  0  0  0  0  0  0  0  0  0  0
  -24.3382  -11.0355   17.8510 C   0  0  0  0  0  0  0  0  0  0  0  0
  -27.7176  -28.6507   18.7840 C   0  0  0  0  0  0  0  0  0  0  0  0
  -22.6295   -9.3042   20.8820 C   0  0  0  0  0  0  0  0  0  0  0  0
  -22.2479   -8.8047   22.1271 C   0  0  0  0  0  0  0  0  0  0  0  0
  -30.4350  -21.2627   15.0885 C   0  0  0  0  0  0  0  0  0  0  0  0
  -26.5643  -27.8177   20.7321 C   0  0  0  0  0  0  0  0  0  0  0  0
  -29.5197  -21.7965   17.6692 C   0  0  0  0  0  0  0  0  0  0  0  0
  -22.9409   -6.5910   21.4514 C   0  0  0  0  0  0  0  0  0  0  0  0
  -26.4668  -11.8930   18.6067 C   0  0  0  0  0  0  0  0  0  0  0  0
  -30.1517  -22.5739   15.4707 C   0  0  0  0  0  0  0  0  0  0  0  0
  -28.5922  -12.9894   17.7188 C   0  0  0  0  0  0  0  0  0  0  0  0
  -26.5320  -36.7286   22.6565 C   0  0  0  0  0  0  0  0  0  0  0  0
  -25.9716  -29.9809   19.8216 C   0  0  0  0  0  0  0  0  0  0  0  0
  -27.0122  -35.4604   22.2775 C   0  0  0  0  0  0  0  0  0  0  0  0
  -25.7720  -28.9749   20.7778 C   0  0  0  0  0  0  0  0  0  0  0  0
  -29.6941  -22.8408   16.7610 C   0  0  0  0  0  0  0  0  0  0  0  0
  -29.8029  -20.4853   17.2869 C   0  0  0  0  0  0  0  0  0  0  0  0
  -24.5038   -9.9115   18.6603 C   0  0  0  0  0  0  0  0  0  0  0  0
  -27.5328  -27.6576   19.7414 C   0  0  0  0  0  0  0  0  0  0  0  0
  -23.1668   -8.4472   19.9215 C   0  0  0  0  0  0  0  0  0  0  0  0
  -22.4036   -7.4481   22.4119 C   0  0  0  0  0  0  0  0  0  0  0  0
  -30.2606  -20.2184   15.9966 C   0  0  0  0  0  0  0  0  0  0  0  0
  -23.3225   -7.0906   20.2063 C   0  0  0  0  0  0  0  0  0  0  0  0
  -27.4801  -12.9170   18.5789 C   0  0  0  0  0  0  0  0  0  0  0  0
  -29.2407  -14.1410   18.0924 C   0  0  0  0  0  0  0  0  0  0  0  0
  -30.3403  -23.6411   14.5089 C   0  0  0  0  0  0  0  0  0  0  0  0
  -29.0022  -12.0956   16.6754 C   0  0  0  0  0  0  0  0  0  0  0  0
  -25.5259  -32.0794   22.1671 C   0  0  0  0  0  0  0  0  0  0  0  0
  -22.7296  -30.4784   22.5419 C   0  0  0  0  0  0  0  0  0  0  0  0
  -28.9372  -24.5849   18.4101 C   0  0  0  0  0  0  0  0  0  0  0  0
  -20.9597  -27.5950   22.0951 C   0  0  0  0  0  0  0  0  0  0  0  0
  -29.1770  -19.5204   19.5283 C   0  0  0  0  0  0  0  0  0  0  0  0
  -25.5986  -36.9058   23.8278 C   0  0  0  0  0  0  0  0  0  0  0  0
  -25.1204  -31.2210   19.8316 C   0  0  0  0  0  0  0  0  0  0  0  0
  -24.7337  -29.1053   21.8611 C   0  0  0  0  0  0  0  0  0  0  0  0
  -24.9038  -35.6150   24.2538 C   0  0  0  0  0  0  0  0  0  0  0  0
  -28.5673  -17.1455   22.1100 C   0  0  0  0  0  0  0  0  0  0  0  0
  -25.9089  -34.4708   24.3389 C   0  0  0  0  0  0  0  0  0  0  0  0
  -28.3216  -15.8396   21.3508 C   0  0  0  0  0  0  0  0  0  0  0  0
  -27.9880  -18.3497   21.3696 C   0  0  0  0  0  0  0  0  0  0  0  0
  -28.1679  -17.1759   19.2112 C   0  0  0  0  0  0  0  0  0  0  0  0
  -26.5514  -34.1981   22.9735 C   0  0  1  0  0  0  0  0  0  0  0  0
  -24.5191  -31.5220   21.2010 C   0  0  1  0  0  0  0  0  0  0  0  0
  -28.7902  -15.9426   19.8861 C   0  0  2  0  0  0  0  0  0  0  0  0
  -18.7099  -26.5757   22.5389 C   0  0  0  0  0  0  0  0  0  0  0  0
  -23.4773  -30.1124   25.4774 C   0  0  0  0  0  0  0  0  0  0  0  0
  -21.7267  -28.3289   25.6287 C   0  0  0  0  0  0  0  0  0  0  0  0
  -21.0732  -30.6718   25.0751 C   0  0  0  0  0  0  0  0  0  0  0  0
  -20.4400  -27.2003   19.2084 C   0  0  0  0  0  0  0  0  0  0  0  0
  -28.7484  -26.0904   18.4291 C   0  0  0  0  0  0  0  0  0  1  0  0
  -22.2828  -29.2807   23.3449 C   0  0  1  0  0  0  0  0  0  0  0  0
  -19.5677  -27.3426   21.5445 C   0  0  2  0  0  0  0  0  0  0  0  0
  -22.1610  -29.5966   24.8624 C   0  0  0  0  0  0  0  0  0  0  0  0
  -27.4225  -13.9410   19.4346 N   0  0  0  0  0  0  0  0  0  0  0  0
  -28.5065  -14.6677   19.1140 N   0  0  0  0  0  0  0  0  0  0  0  0
  -23.9308  -30.3390   21.8324 N   0  0  0  0  0  0  0  0  0  0  0  0
  -28.4791  -18.3845   19.9904 N   0  0  0  0  0  0  0  0  0  0  0  0
  -30.3618  -14.7444   17.6434 N   0  0  0  0  0  0  0  0  0  0  0  0
  -31.5214  -24.2723   14.4192 N   0  0  0  0  0  0  0  0  0  0  0  0
  -28.2210  -10.9596   16.4234 N   0  0  0  0  0  0  0  0  0  0  0  0
  -29.3991  -24.1637   17.1678 N   0  0  0  0  0  0  0  0  0  0  0  0
  -29.6241  -19.4259   18.2108 N   0  0  0  0  0  0  0  0  0  0  0  0
  -25.6426  -33.4557   22.1265 N   0  0  0  0  0  0  0  0  0  0  0  0
  -21.0441  -28.8161   22.7300 N   0  0  0  0  0  0  0  0  0  0  0  0
  -29.3363  -24.0077   13.6971 N   0  3  0  0  0  0  0  0  0  0  0  0
  -19.6449  -26.5526   20.2832 N   0  3  0  0  0  0  0  0  0  0  0  0
  -30.0398  -12.2898   15.9978 O   0  0  0  0  0  0  0  0  0  0  0  0
  -26.1495  -31.3173   22.8966 O   0  0  0  0  0  0  0  0  0  0  0  0
  -22.0347  -31.4976   22.5385 O   0  0  0  0  0  0  0  0  0  0  0  0
  -28.6952  -23.8946   19.3946 O   0  0  0  0  0  0  0  0  0  0  0  0
  -21.8791  -26.7879   21.9773 O   0  0  0  0  0  0  0  0  0  0  0  0
  -29.3879  -20.4933   20.2569 O   0  0  0  0  0  0  0  0  0  0  0  0
  -23.5459   -8.9448   18.6861 O   0  0  0  0  0  0  0  0  0  0  0  0
  -28.2928  -26.5292   19.7082 O   0  0  0  0  0  0  0  0  0  1  0  0
  -22.0385   -6.9688   23.6082 F   0  0  0  0  0  0  0  0  0  0  0  0
  -30.5358  -18.9621   15.6181 F   0  0  0  0  0  0  0  0  0  0  0  0
  -23.8392   -6.2626   19.2880 F   0  0  0  0  0  0  0  0  0  0  0  0
  1  2  1  0  0  0  0
  1  5  2  0  0  0  0
  2  6  2  0  0  0  0
  3  8  2  0  0  0  0
  3 17  1  0  0  0  0
  4  9  1  0  0  0  0
  4 17  2  0  0  0  0
  5 20  1  0  0  0  0
  6 22  1  0  0  0  0
  7 10  2  0  0  0  0
  7 21  1  0  0  0  0
  8 26  1  0  0  0  0
  9 26  2  0  0  0  0
 10 27  1  0  0  0  0
 11 12  2  0  0  0  0
 11 28  1  0  0  0  0
 12 29  1  0  0  0  0
 13 18  1  0  0  0  0
 13 30  2  0  0  0  0
 14 23  1  0  0  0  0
 14 27  2  0  0  0  0
 15 24  1  0  0  0  0
 15 25  2  0  0  0  0
 16 29  2  0  0  0  0
 16 31  1  0  0  0  0
 17 32  1  0  0  0  0
 18 24  2  0  0  0  0
 18 34  1  0  0  0  0
 19 32  1  0  0  0  0
 19 33  2  0  0  0  0
 19 35  1  0  0  0  0
 20 22  2  0  0  0  0
 20 41  1  0  0  0  0
 21 23  2  0  0  0  0
 21 42  1  0  0  0  0
 22 50  1  0  0  0  0
 23 43  1  0  0  0  0
 24 69  1  0  0  0  0
 25 30  1  0  0  0  0
 25 70  1  0  0  0  0
 26 81  1  0  0  0  0
 27 82  1  0  0  0  0
 28 31  2  0  0  0  0
 28 81  1  0  0  0  0
 29 83  1  0  0  0  0
 30 84  1  0  0  0  0
 31 85  1  0  0  0  0
 32 62  2  0  0  0  0
 33 63  1  0  0  0  0
 33 66  1  0  0  0  0
 34 67  1  0  0  0  0
 34 73  2  0  0  0  0
 35 68  1  0  0  0  0
 35 75  2  0  0  0  0
 36 51  1  0  0  0  0
 36 71  1  0  0  0  0
 36 76  2  0  0  0  0
 37 59  1  0  0  0  0
 37 64  1  0  0  0  0
 37 77  2  0  0  0  0
 38 58  1  0  0  0  0
 38 69  1  0  0  0  0
 38 78  2  0  0  0  0
 39 60  1  0  0  0  0
 39 72  1  0  0  0  0
 39 79  2  0  0  0  0
 40 65  1  0  0  0  0
 40 70  1  0  0  0  0
 40 80  2  0  0  0  0
 41 44  1  0  0  0  0
 42 51  1  0  0  0  0
 43 64  1  0  0  0  0
 44 46  1  0  0  0  0
 45 47  1  0  0  0  0
 45 48  1  0  0  0  0
 46 50  1  0  0  0  0
 47 52  1  0  0  0  0
 48 65  1  0  0  0  0
 49 52  1  0  0  0  0
 49 65  1  0  0  0  0
 50 71  1  0  0  0  0
 51 64  1  0  0  0  0
 52 63  1  0  0  0  0
 53 60  1  0  0  0  0
 54 61  1  0  0  0  0
 55 61  1  0  0  0  0
 56 61  1  0  0  0  0
 57 74  1  0  0  0  0
 58 82  1  0  0  0  0
 59 61  1  0  0  0  0
 59 72  1  0  0  0  0
 60 74  1  0  0  0  0
 62 63  1  0  0  0  0
M  CHG  2  73   1  74   1
M  ISO  4  40 100  58 101  70 100  82 101
M  END
> <Batch ID>
0071

> <Smiles>
CNC(C)C(=O)NC(C(=O)N1Cc2cc([101O:1][101CH2:1]C(=O)Nc3cc([100NH:0][100C:0](=O)N4CCCC(n5nc(-c6ccc(Oc7ccc(F)cc7F)cc6)c(C(N)=O)c5N)C4)c(F)cc3C(=N)N)ccc2CC1C(=O)NC1CCCc2ccccc21)C(C)(C)C

> <Shape>
0.290

> <Color>
0.077

> <Negative vol penalty>
0.000

$$$$

  -OEChem-04042323353D

 86 95  0     1  0  0  0  0  0999 V2000
  -22.5479   -9.1517   26.7223 C   0  0  0  0  0  0  0  0  0  0  0  0
  -23.4760  -10.1757   26.5626 C   0  0  0  0  0  0  0  0  0  0  0  0
  -23.0763   -9.8665   19.9410 C   0  0  0  0  0  0  0  0  0  0  0  0
  -23.8346   -9.8750   22.2349 C   0  0  0  0  0  0  0  0  0  0  0  0
  -21.1893   -9.4517   26.8131 C   0  0  0  0  0  0  0  0  0  0  0  0
  -23.0459  -11.5003   26.4925 C   0  0  0  0  0  0  0  0  0  0  0  0
  -31.3163  -19.0829   20.6039 C   0  0  0  0  0  0  0  0  0  0  0  0
  -25.9629  -16.4369   28.6436 C   0  0  0  0  0  0  0  0  0  0  0  0
  -31.1493  -17.6981   20.5984 C   0  0  0  0  0  0  0  0  0  0  0  0
  -22.3324   -8.7134   20.1911 C   0  0  0  0  0  0  0  0  0  0  0  0
  -23.0907   -8.7218   22.4851 C   0  0  0  0  0  0  0  0  0  0  0  0
  -26.7725  -17.3904   28.0280 C   0  0  0  0  0  0  0  0  0  0  0  0
  -19.8623   -7.9238   23.0858 C   0  0  0  0  0  0  0  0  0  0  0  0
  -19.1046   -7.8844   24.2562 C   0  0  0  0  0  0  0  0  0  0  0  0
  -24.8646  -18.8469   27.7883 C   0  0  0  0  0  0  0  0  0  0  0  0
  -29.5161  -17.8881   22.3686 C   0  0  0  0  0  0  0  0  0  0  0  0
  -20.3458   -5.9476   24.9947 C   0  0  0  0  0  0  0  0  0  0  0  0
  -23.8274  -10.4473   20.9629 C   0  0  0  0  0  0  0  0  0  0  0  0
  -24.1688  -12.9725   20.8416 C   0  0  0  0  0  0  0  0  0  0  0  0
  -20.7432  -10.7814   26.7538 C   0  0  0  0  0  0  0  0  0  0  0  0
  -24.5935  -16.6771   28.8267 C   0  0  0  0  0  0  0  0  0  0  0  0
  -21.6800  -11.8183   26.5812 C   0  0  0  0  0  0  0  0  0  0  0  0
  -30.5833  -19.8703   21.4919 C   0  0  0  0  0  0  0  0  0  0  0  0
  -24.0402  -17.8959   28.4089 C   0  0  0  0  0  0  0  0  0  0  0  0
  -30.2492  -17.1007   21.4807 C   0  0  0  0  0  0  0  0  0  0  0  0
  -29.6831  -19.2729   22.3742 C   0  0  0  0  0  0  0  0  0  0  0  0
  -22.3396   -8.1410   21.4631 C   0  0  0  0  0  0  0  0  0  0  0  0
  -26.2229  -18.5944   27.5976 C   0  0  0  0  0  0  0  0  0  0  0  0
  -20.8618   -6.9750   22.8698 C   0  0  0  0  0  0  0  0  0  0  0  0
  -19.3463   -6.8963   25.2107 C   0  0  0  0  0  0  0  0  0  0  0  0
  -21.1035   -5.9870   23.8242 C   0  0  0  0  0  0  0  0  0  0  0  0
  -24.5964  -11.6382   20.7050 C   0  0  0  0  0  0  0  0  0  0  0  0
  -25.2611  -13.7219   20.4786 C   0  0  0  0  0  0  0  0  0  0  0  0
  -22.8980  -13.4883   21.2593 C   0  0  0  0  0  0  0  0  0  0  0  0
  -21.9179  -15.2949   27.8096 C   0  0  0  0  0  0  0  0  0  0  0  0
  -20.5168  -17.4213   29.8191 C   0  0  0  0  0  0  0  0  0  0  0  0
  -27.9988  -19.6144   24.2154 C   0  0  0  0  0  0  0  0  0  0  0  0
  -20.7068  -20.3964   31.4803 C   0  0  0  0  0  0  0  0  0  0  0  0
  -30.7270  -14.7686   20.6564 C   0  0  0  0  0  0  0  0  0  0  0  0
  -19.2607  -11.0529   26.8090 C   0  0  0  0  0  0  0  0  0  0  0  0
  -23.7390  -15.6494   29.5167 C   0  0  0  0  0  0  0  0  0  0  0  0
  -22.5799  -18.2110   28.6003 C   0  0  0  0  0  0  0  0  0  0  0  0
  -18.9190  -12.5116   27.1019 C   0  0  0  0  0  0  0  0  0  0  0  0
  -30.7180  -23.3045   20.4240 C   0  0  0  0  0  0  0  0  0  0  0  0
  -29.6146  -12.3532   18.2888 C   0  0  0  0  0  0  0  0  0  0  0  0
  -31.6458  -22.0776   20.3393 C   0  0  0  0  0  0  0  0  0  0  0  0
  -29.6358  -22.3508   20.9657 C   0  0  0  0  0  0  0  0  0  0  0  0
  -19.7593  -13.4416   26.2325 C   0  0  0  0  0  0  0  0  0  0  0  0
  -28.1747  -12.0616   18.7176 C   0  0  0  0  0  0  0  0  0  0  0  0
  -30.5289  -12.5829   19.4910 C   0  0  0  0  0  0  0  0  0  0  0  0
  -28.6209  -13.3078   20.8705 C   0  0  0  0  0  0  0  0  0  0  0  0
  -30.7926  -21.4402   21.4775 C   0  0  0  0  0  0  0  0  0  0  0  0
  -21.2546  -13.2695   26.5257 C   0  0  1  0  0  0  0  0  0  0  0  0
  -22.2556  -15.7878   29.1883 C   0  0  1  0  0  0  0  0  0  0  0  0
  -27.6489  -13.1337   19.6921 C   0  0  2  0  0  0  0  0  0  0  0  0
  -19.3909  -21.8831   33.0150 C   0  0  0  0  0  0  0  0  0  0  0  0
  -18.7879  -18.3133   27.4686 C   0  0  0  0  0  0  0  0  0  0  0  0
  -18.2047  -20.3718   28.7688 C   0  0  0  0  0  0  0  0  0  0  0  0
  -17.5716  -18.1238   29.6455 C   0  0  0  0  0  0  0  0  0  0  0  0
  -22.7511  -20.2011   33.6114 C   0  0  0  0  0  0  0  0  0  0  0  0
  -27.4190  -20.7926   24.9899 C   0  0  0  0  0  0  0  0  0  0  0  0
  -26.3910  -20.3756   26.0308 C   0  0  0  0  0  0  0  0  0  1  0  0
  -19.9979  -18.8330   29.6893 C   0  0  1  0  0  0  0  0  0  0  0  0
  -20.4167  -20.7641   32.9243 C   0  0  2  0  0  0  0  0  0  0  0  0
  -18.6677  -18.9040   28.8875 C   0  0  0  0  0  0  0  0  0  0  0  0
  -25.8616  -11.5423   20.2876 N   0  0  0  0  0  0  0  0  0  0  0  0
  -26.2383  -12.8259   20.1588 N   0  0  0  0  0  0  0  0  0  0  0  0
  -21.7844  -17.1716   29.2744 N   0  0  0  0  0  0  0  0  0  0  0  0
  -29.9691  -13.6141   20.3673 N   0  0  0  0  0  0  0  0  0  0  0  0
  -25.4713  -15.0534   20.4050 N   0  0  0  0  0  0  0  0  0  0  0  0
  -21.8860  -12.5791   21.5965 N   0  0  0  0  0  0  0  0  0  0  0  0
  -28.9307  -20.0572   23.2805 N   0  0  0  0  0  0  0  0  0  0  0  0
  -30.0789  -15.6940   21.4738 N   0  0  0  0  0  0  0  0  0  0  0  0
  -21.6104  -13.9490   27.7530 N   0  0  0  0  0  0  0  0  0  0  0  0
  -19.9066  -19.3607   31.0463 N   0  0  0  0  0  0  0  0  0  0  0  0
  -21.6639  -21.2135   33.6050 N   0  3  0  0  0  0  0  0  0  0  0  0
  -22.6615  -14.7189   21.3158 O   0  0  0  0  0  0  0  0  0  0  0  0
  -21.9337  -16.0782   26.8673 O   0  0  0  0  0  0  0  0  0  0  0  0
  -19.8261  -16.5731   30.3893 O   0  0  0  0  0  0  0  0  0  0  0  0
  -27.6523  -18.4577   24.4306 O   0  0  0  0  0  0  0  0  0  0  0  0
  -21.5556  -20.9729   30.8038 O   0  0  0  0  0  0  0  0  0  0  0  0
  -31.8564  -14.9373   20.1895 O   0  0  0  0  0  0  0  0  0  0  0  0
  -21.6137   -7.0160   21.7076 O   0  0  0  0  0  0  0  0  0  0  0  0
  -27.0108  -19.5266   26.9958 O   0  0  0  0  0  0  0  0  0  1  0  0
  -18.6196   -6.8595   26.3353 F   0  0  0  0  0  0  0  0  0  0  0  0
  -22.0632   -5.0736   23.6228 F   0  0  0  0  0  0  0  0  0  0  0  0
  1  2  1  0  0  0  0
  1  5  2  0  0  0  0
  2  6  2  0  0  0  0
  3 10  2  0  0  0  0
  3 18  1  0  0  0  0
  4 11  1  0  0  0  0
  4 18  2  0  0  0  0
  5 20  1  0  0  0  0
  6 22  1  0  0  0  0
  7  9  2  0  0  0  0
  7 23  1  0  0  0  0
  8 12  2  0  0  0  0
  8 21  1  0  0  0  0
  9 25  1  0  0  0  0
 10 27  1  0  0  0  0
 11 27  2  0  0  0  0
 12 28  1  0  0  0  0
 13 14  2  0  0  0  0
 13 29  1  0  0  0  0
 14 30  1  0  0  0  0
 15 24  1  0  0  0  0
 15 28  2  0  0  0  0
 16 25  2  0  0  0  0
 16 26  1  0  0  0  0
 17 30  2  0  0  0  0
 17 31  1  0  0  0  0
 18 32  1  0  0  0  0
 19 32  1  0  0  0  0
 19 33  2  0  0  0  0
 19 34  1  0  0  0  0
 20 22  2  0  0  0  0
 20 40  1  0  0  0  0
 21 24  2  0  0  0  0
 21 41  1  0  0  0  0
 22 53  1  0  0  0  0
 23 26  2  0  0  0  0
 23 52  1  0  0  0  0
 24 42  1  0  0  0  0
 25 73  1  0  0  0  0
 26 72  1  0  0  0  0
 27 83  1  0  0  0  0
 28 84  1  0  0  0  0
 29 31  2  0  0  0  0
 29 83  1  0  0  0  0
 30 85  1  0  0  0  0
 31 86  1  0  0  0  0
 32 66  2  0  0  0  0
 33 67  1  0  0  0  0
 33 70  1  0  0  0  0
 34 71  1  0  0  0  0
 34 77  2  0  0  0  0
 35 54  1  0  0  0  0
 35 74  1  0  0  0  0
 35 78  2  0  0  0  0
 36 63  1  0  0  0  0
 36 68  1  0  0  0  0
 36 79  2  0  0  0  0
 37 61  1  0  0  0  0
 37 72  1  0  0  0  0
 37 80  2  0  0  0  0
 38 64  1  0  0  0  0
 38 75  1  0  0  0  0
 38 81  2  0  0  0  0
 39 69  1  0  0  0  0
 39 73  1  0  0  0  0
 39 82  2  0  0  0  0
 40 43  1  0  0  0  0
 41 54  1  0  0  0  0
 42 68  1  0  0  0  0
 43 48  1  0  0  0  0
 44 46  1  0  0  0  0
 44 47  1  0  0  0  0
 45 49  1  0  0  0  0
 45 50  1  0  0  0  0
 46 52  1  0  0  0  0
 47 52  1  0  0  0  0
 48 53  1  0  0  0  0
 49 55  1  0  0  0  0
 50 69  1  0  0  0  0
 51 55  1  0  0  0  0
 51 69  1  0  0  0  0
 53 74  1  0  0  0  0
 54 68  1  0  0  0  0
 55 67  1  0  0  0  0
 56 64  1  0  0  0  0
 57 65  1  0  0  0  0
 58 65  1  0  0  0  0
 59 65  1  0  0  0  0
 60 76  1  0  0  0  0
 61 62  1  0  0  0  0
 62 84  1  0  0  0  0
 63 65  1  0  0  0  0
 63 75  1  0  0  0  0
 64 76  1  0  0  0  0
 66 67  1  0  0  0  0
M  CHG  1  76   1
M  ISO  4  39 100  62 101  73 100  84 101
M  END
> <Batch ID>
0071

> <Smiles>
CNC(C)C(=O)NC(C(=O)N1Cc2cc([101O:1][101CH2:1]CC(=O)Nc3cc([100NH:0][100C:0](=O)N4CCCC(n5nc(-c6ccc(Oc7ccc(F)cc7F)cc6)c(C(N)=O)c5N)C4)ccc3C3CCC3)ccc2CC1C(=O)NC1CCCc2ccccc21)C(C)(C)C

> <Shape>
0.187

> <Color>
0.188

> <Negative vol penalty>
0.000

$$$$

  -OEChem-04042323353D

 80 87  0     1  0  0  0  0  0999 V2000
  -23.1420  -23.7932   19.7254 C   0  0  0  0  0  0  0  0  0  0  0  0
  -24.2818  -23.0404   19.9892 C   0  0  0  0  0  0  0  0  0  0  0  0
  -26.3283  -29.0254   19.0175 C   0  0  0  0  0  0  0  0  0  0  0  0
  -26.3915  -28.8875   21.4287 C   0  0  0  0  0  0  0  0  0  0  0  0
  -21.8909  -23.3249   20.1243 C   0  0  0  0  0  0  0  0  0  0  0  0
  -24.1711  -21.8192   20.6531 C   0  0  0  0  0  0  0  0  0  0  0  0
  -26.9637  -18.1808   18.5064 C   0  0  0  0  0  0  0  0  0  0  0  0
  -25.0722  -29.6280   19.0848 C   0  0  0  0  0  0  0  0  0  0  0  0
  -25.1353  -29.4902   21.4961 C   0  0  0  0  0  0  0  0  0  0  0  0
  -28.3330  -18.1909   18.7684 C   0  0  0  0  0  0  0  0  0  0  0  0
  -21.9074  -28.5746   21.0802 C   0  0  0  0  0  0  0  0  0  0  0  0
  -20.9670  -28.0176   21.9469 C   0  0  0  0  0  0  0  0  0  0  0  0
  -28.0229  -16.4636   20.4235 C   0  0  0  0  0  0  0  0  0  0  0  0
  -20.8457  -30.1053   23.1569 C   0  0  0  0  0  0  0  0  0  0  0  0
  -26.9880  -28.6551   20.1895 C   0  0  0  0  0  0  0  0  0  0  0  0
  -29.5381  -28.6742   20.1247 C   0  0  0  0  0  0  0  0  0  0  0  0
  -21.7638  -22.0927   20.7848 C   0  0  0  0  0  0  0  0  0  0  0  0
  -26.1107  -17.3182   19.2098 C   0  0  0  0  0  0  0  0  0  0  0  0
  -22.9172  -21.3345   21.0624 C   0  0  0  0  0  0  0  0  0  0  0  0
  -26.6435  -16.4426   20.1667 C   0  0  0  0  0  0  0  0  0  0  0  0
  -24.4757  -29.8604   20.3241 C   0  0  0  0  0  0  0  0  0  0  0  0
  -28.8624  -17.3343   19.7291 C   0  0  0  0  0  0  0  0  0  0  0  0
  -22.3170  -29.8969   21.2519 C   0  0  0  0  0  0  0  0  0  0  0  0
  -20.4361  -28.7829   22.9852 C   0  0  0  0  0  0  0  0  0  0  0  0
  -21.7861  -30.6622   22.2902 C   0  0  0  0  0  0  0  0  0  0  0  0
  -28.2853  -28.0320   20.1205 C   0  0  0  0  0  0  0  0  0  0  0  0
  -30.4493  -27.6498   20.0430 C   0  0  0  0  0  0  0  0  0  0  0  0
  -29.8502  -30.0718   20.1960 C   0  0  0  0  0  0  0  0  0  0  0  0
  -32.0965  -18.8984   22.1347 C   0  0  0  0  0  0  0  0  0  0  0  0
  -31.9499  -17.6866   21.5633 C   0  0  0  0  0  0  0  0  0  0  0  0
  -33.4917  -19.4169   22.2883 C   0  0  0  0  0  0  0  0  0  0  0  0
  -23.6444  -17.7136   21.1757 C   0  0  0  0  0  0  0  0  0  0  0  0
  -23.4577  -14.4821   20.9635 C   0  0  0  0  0  0  0  0  0  0  0  0
  -25.0377  -11.5240   20.3310 C   0  0  0  0  0  0  0  0  0  0  0  0
  -30.1524  -21.9824   21.6704 C   0  0  0  0  0  0  0  0  0  0  0  0
  -20.3953  -21.6502   21.2387 C   0  0  0  0  0  0  0  0  0  0  0  0
  -24.6397  -17.3005   18.8965 C   0  0  0  0  0  0  0  0  0  0  0  0
  -25.7734  -15.4830   20.9351 C   0  0  0  0  0  0  0  0  0  0  0  0
  -20.3241  -20.1698   21.6045 C   0  0  0  0  0  0  0  0  0  0  0  0
  -30.9382  -23.1985   18.3536 C   0  0  0  0  0  0  0  0  0  0  0  0
  -21.5042  -19.7813   22.4895 C   0  0  0  0  0  0  0  0  0  0  0  0
  -30.4595  -24.6488   18.4401 C   0  0  0  0  0  0  0  0  0  0  0  0
  -30.0095  -22.2631   19.1222 C   0  0  0  0  0  0  0  0  0  0  0  0
  -29.3301  -24.0814   20.6406 C   0  0  0  0  0  0  0  0  0  0  0  0
  -22.8353  -19.9932   21.7583 C   0  0  1  0  0  0  0  0  0  0  0  0
  -23.7925  -16.7446   20.0369 C   0  0  1  0  0  0  0  0  0  0  0  0
  -30.2397  -25.0801   19.9022 C   0  0  2  0  0  0  0  0  0  0  0  0
  -33.8269  -20.7132   21.6005 C   0  0  0  0  0  0  0  0  0  0  0  0
  -24.6342   -9.0479   20.2743 C   0  0  0  0  0  0  0  0  0  0  0  0
  -23.5304  -14.4028   24.0129 C   0  0  0  0  0  0  0  0  0  0  0  0
  -24.0803  -11.9647   23.8669 C   0  0  0  0  0  0  0  0  0  0  0  0
  -21.9126  -12.8086   22.9661 C   0  0  0  0  0  0  0  0  0  0  0  0
  -25.7045  -11.3642   17.4520 C   0  0  0  0  0  0  0  0  0  0  0  0
  -30.9947  -19.8229   22.5559 C   0  0  0  0  0  0  0  0  0  0  0  0
  -30.6308  -17.0066   21.3112 C   0  0  1  0  0  0  0  0  0  1  0  0
  -24.0548  -13.3243   21.7264 C   0  0  1  0  0  0  0  0  0  0  0  0
  -24.6469  -10.3376   19.4685 C   0  0  2  0  0  0  0  0  0  0  0  0
  -23.4109  -13.1444   23.1302 C   0  0  0  0  0  0  0  0  0  0  0  0
  -28.3877  -26.7026   20.0423 N   0  0  0  0  0  0  0  0  0  0  0  0
  -29.7156  -26.5011   19.9965 N   0  0  0  0  0  0  0  0  0  0  0  0
  -24.3407  -15.5077   20.5973 N   0  0  0  0  0  0  0  0  0  0  0  0
  -29.8575  -22.7189   20.5111 N   0  0  0  0  0  0  0  0  0  0  0  0
  -31.7987  -27.6286   20.0072 N   0  0  0  0  0  0  0  0  0  0  0  0
  -28.7935  -30.9891   20.2753 N   0  0  0  0  0  0  0  0  0  0  0  0
  -23.0718  -18.9192   20.8176 N   0  0  0  0  0  0  0  0  0  0  0  0
  -23.9328  -12.1576   20.8591 N   0  0  0  0  0  0  0  0  0  0  0  0
  -30.6409  -20.6986   21.4609 N   0  0  0  0  0  0  0  0  0  0  0  0
  -25.6082  -10.1778   18.3409 N   0  3  0  0  0  0  0  0  0  0  0  0
  -31.0306  -30.4955   20.1729 O   0  0  0  0  0  0  0  0  0  0  0  0
  -34.3330  -18.7885   22.9275 O   0  0  0  0  0  0  0  0  0  0  0  0
  -24.0203  -17.3908   22.2965 O   0  0  0  0  0  0  0  0  0  0  0  0
  -22.2535  -14.4732   20.6960 O   0  0  0  0  0  0  0  0  0  0  0  0
  -26.2065  -11.8534   20.5206 O   0  0  0  0  0  0  0  0  0  0  0  0
  -29.9971  -22.4374   22.8088 O   0  0  0  0  0  0  0  0  0  0  0  0
  -33.0565  -16.9369   21.1944 O   0  0  0  0  0  0  0  0  0  0  0  0
  -23.2501  -30.4487   20.3902 O   0  0  0  0  0  0  0  0  0  0  0  0
  -30.1985  -17.3426   19.9873 O   0  0  0  0  0  0  0  0  0  1  0  0
  -19.5320  -28.2484   23.8164 F   0  0  0  0  0  0  0  0  0  0  0  0
  -22.1748  -31.9335   22.4595 F   0  0  0  0  0  0  0  0  0  0  0  0
  -30.7987  -15.6548   21.3676 F   0  0  0  0  0  0  0  0  0  0  0  0
  1  2  1  0  0  0  0
  1  5  2  0  0  0  0
  2  6  2  0  0  0  0
  3  8  2  0  0  0  0
  3 15  1  0  0  0  0
  4  9  1  0  0  0  0
  4 15  2  0  0  0  0
  5 17  1  0  0  0  0
  6 19  1  0  0  0  0
  7 10  2  0  0  0  0
  7 18  1  0  0  0  0
  8 21  1  0  0  0  0
  9 21  2  0  0  0  0
 10 22  1  0  0  0  0
 11 12  2  0  0  0  0
 11 23  1  0  0  0  0
 12 24  1  0  0  0  0
 13 20  1  0  0  0  0
 13 22  2  0  0  0  0
 14 24  2  0  0  0  0
 14 25  1  0  0  0  0
 15 26  1  0  0  0  0
 16 26  1  0  0  0  0
 16 27  2  0  0  0  0
 16 28  1  0  0  0  0
 17 19  2  0  0  0  0
 17 36  1  0  0  0  0
 18 20  2  0  0  0  0
 18 37  1  0  0  0  0
 19 45  1  0  0  0  0
 20 38  1  0  0  0  0
 21 76  1  0  0  0  0
 22 77  1  0  0  0  0
 23 25  2  0  0  0  0
 23 76  1  0  0  0  0
 24 78  1  0  0  0  0
 25 79  1  0  0  0  0
 26 59  2  0  0  0  0
 27 60  1  0  0  0  0
 27 63  1  0  0  0  0
 28 64  1  0  0  0  0
 28 69  2  0  0  0  0
 29 30  2  0  0  0  0
 29 31  1  0  0  0  0
 29 54  1  0  0  0  0
 30 55  1  0  0  0  0
 30 75  1  0  0  0  0
 31 48  1  0  0  0  0
 31 70  2  0  0  0  0
 32 46  1  0  0  0  0
 32 65  1  0  0  0  0
 32 71  2  0  0  0  0
 33 56  1  0  0  0  0
 33 61  1  0  0  0  0
 33 72  2  0  0  0  0
 34 57  1  0  0  0  0
 34 66  1  0  0  0  0
 34 73  2  0  0  0  0
 35 62  1  0  0  0  0
 35 67  1  0  0  0  0
 35 74  2  0  0  0  0
 36 39  1  0  0  0  0
 37 46  1  0  0  0  0
 38 61  1  0  0  0  0
 39 41  1  0  0  0  0
 40 42  1  0  0  0  0
 40 43  1  0  0  0  0
 41 45  1  0  0  0  0
 42 47  1  0  0  0  0
 43 62  1  0  0  0  0
 44 47  1  0  0  0  0
 44 62  1  0  0  0  0
 45 65  1  0  0  0  0
 46 61  1  0  0  0  0
 47 60  1  0  0  0  0
 49 57  1  0  0  0  0
 50 58  1  0  0  0  0
 51 58  1  0  0  0  0
 52 58  1  0  0  0  0
 53 68  1  0  0  0  0
 54 67  1  0  0  0  0
 55 77  1  0  0  0  0
 55 80  1  0  0  0  0
 56 58  1  0  0  0  0
 56 66  1  0  0  0  0
 57 68  1  0  0  0  0
 59 60  1  0  0  0  0
M  CHG  1  68   1
M  ISO  4  35 100  55 101  67 100  77 101
M  END
> <Batch ID>
0071

> <Smiles>
CNC(C)C(=O)NC(C(=O)N1Cc2cc([101O:1][101CH:1](F)C(=O)C(C[100NH:0][100C:0](=O)N3CCCC(n4nc(-c5ccc(Oc6ccc(F)cc6F)cc5)c(C(N)=O)c4N)C3)C(C)=O)ccc2CC1C(=O)NC1CCCc2ccccc21)C(C)(C)C

> <Shape>
0.240

> <Color>
0.082

> <Negative vol penalty>
0.000

$$$$

  -OEChem-04042323353D

 90 99  0     1  0  0  0  0  0999 V2000
  -17.9920  -31.1975   19.8048 C   0  0  0  0  0  0  0  0  0  0  0  0
  -19.2917  -30.9279   19.3881 C   0  0  0  0  0  0  0  0  0  0  0  0
  -26.2068  -12.0600   21.3965 C   0  0  0  0  0  0  0  0  0  0  0  0
  -25.7088  -13.3267   19.4004 C   0  0  0  0  0  0  0  0  0  0  0  0
  -17.6644  -31.1185   21.1577 C   0  0  0  0  0  0  0  0  0  0  0  0
  -20.2648  -30.5801   20.3243 C   0  0  0  0  0  0  0  0  0  0  0  0
  -24.9056  -26.6638   19.5292 C   0  0  0  0  0  0  0  0  0  0  0  0
  -24.8507  -11.7736   21.5531 C   0  0  0  0  0  0  0  0  0  0  0  0
  -24.3527  -13.0403   19.5570 C   0  0  0  0  0  0  0  0  0  0  0  0
  -26.2523  -26.8550   19.2235 C   0  0  0  0  0  0  0  0  0  0  0  0
  -22.5849   -9.6441   20.2247 C   0  0  0  0  0  0  0  0  0  0  0  0
  -22.2313   -8.3310   20.5348 C   0  0  0  0  0  0  0  0  0  0  0  0
  -26.7954  -26.7387   21.5710 C   0  0  0  0  0  0  0  0  0  0  0  0
  -29.6955  -22.5806   17.5600 C   0  0  0  0  0  0  0  0  0  0  0  0
  -30.6744  -21.3916   19.4214 C   0  0  0  0  0  0  0  0  0  0  0  0
  -21.2061   -9.0914   22.5861 C   0  0  0  0  0  0  0  0  0  0  0  0
  -26.6359  -12.8366   20.3201 C   0  0  0  0  0  0  0  0  0  0  0  0
  -28.9877  -12.3810   19.4432 C   0  0  0  0  0  0  0  0  0  0  0  0
  -18.6317  -30.7602   22.1099 C   0  0  0  0  0  0  0  0  0  0  0  0
  -24.4915  -26.5193   20.8612 C   0  0  0  0  0  0  0  0  0  0  0  0
  -19.9502  -30.4975   21.6914 C   0  0  0  0  0  0  0  0  0  0  0  0
  -25.4431  -26.5432   21.8908 C   0  0  0  0  0  0  0  0  0  0  0  0
  -29.7490  -20.1652   17.5568 C   0  0  0  0  0  0  0  0  0  0  0  0
  -30.3302  -22.5930   18.8020 C   0  0  0  0  0  0  0  0  0  0  0  0
  -29.4048  -21.3667   16.9374 C   0  0  0  0  0  0  0  0  0  0  0  0
  -30.3838  -20.1776   18.7988 C   0  0  0  0  0  0  0  0  0  0  0  0
  -23.9236  -12.2637   20.6333 C   0  0  0  0  0  0  0  0  0  0  0  0
  -27.1971  -26.8953   20.2447 C   0  0  0  0  0  0  0  0  0  0  0  0
  -22.2492  -10.6810   21.0954 C   0  0  0  0  0  0  0  0  0  0  0  0
  -21.5419   -8.0546   21.7155 C   0  0  0  0  0  0  0  0  0  0  0  0
  -21.5598  -10.4046   22.2760 C   0  0  0  0  0  0  0  0  0  0  0  0
  -28.0365  -13.1333   20.1582 C   0  0  0  0  0  0  0  0  0  0  0  0
  -30.1608  -13.0795   19.5928 C   0  0  0  0  0  0  0  0  0  0  0  0
  -30.3462  -25.1248   18.9436 C   0  0  0  0  0  0  0  0  0  0  0  0
  -28.8253  -11.1600   18.7094 C   0  0  0  0  0  0  0  0  0  0  0  0
  -22.5789  -28.1520   22.8054 C   0  0  0  0  0  0  0  0  0  0  0  0
  -23.1314  -25.6598   24.8069 C   0  0  0  0  0  0  0  0  0  0  0  0
  -25.1680  -23.0816   25.7299 C   0  0  0  0  0  0  0  0  0  0  0  0
  -31.3791  -18.8277   20.6786 C   0  0  0  0  0  0  0  0  0  0  0  0
  -18.2417  -30.7340   23.5665 C   0  0  0  0  0  0  0  0  0  0  0  0
  -23.0384  -26.2871   21.1722 C   0  0  0  0  0  0  0  0  0  0  0  0
  -25.0528  -26.3728   23.3354 C   0  0  0  0  0  0  0  0  0  0  0  0
  -19.2411  -29.9935   24.4515 C   0  0  0  0  0  0  0  0  0  0  0  0
  -32.4018  -16.0292   22.6278 C   0  0  0  0  0  0  0  0  0  0  0  0
  -20.6666  -30.4281   24.1261 C   0  0  0  0  0  0  0  0  0  0  0  0
  -31.4891  -14.8990   22.1463 C   0  0  0  0  0  0  0  0  0  0  0  0
  -31.7174  -25.3290   20.8824 C   0  0  0  0  0  0  0  0  0  0  0  0
  -31.6706  -17.3699   22.6697 C   0  0  0  0  0  0  0  0  0  0  0  0
  -31.2395  -23.8953   20.7541 C   0  0  0  0  0  0  0  0  0  0  0  0
  -30.0859  -16.6197   20.9390 C   0  0  0  0  0  0  0  0  0  0  0  0
  -21.0277  -30.0929   22.6739 C   0  0  1  0  0  0  0  0  0  0  0  0
  -22.6655  -26.6657   22.6023 C   0  0  1  0  0  0  0  0  0  0  0  0
  -30.7961  -15.2614   20.8182 C   0  0  2  0  0  0  0  0  0  0  0  0
  -30.7238  -26.1265   20.0338 C   0  0  1  0  0  0  0  0  0  0  0  0
  -31.3649  -27.3810   19.4454 C   0  0  0  0  0  0  0  0  0  0  0  0
  -25.3739  -21.2441   27.4266 C   0  0  0  0  0  0  0  0  0  0  0  0
  -23.9856  -27.6997   26.9091 C   0  0  0  0  0  0  0  0  0  0  0  0
  -25.0535  -25.8309   28.1879 C   0  0  0  0  0  0  0  0  0  0  0  0
  -22.5914  -25.8183   27.7871 C   0  0  0  0  0  0  0  0  0  0  0  0
  -25.1075  -20.9871   23.6398 C   0  0  0  0  0  0  0  0  0  0  0  0
  -29.4664  -26.4925   20.8311 C   0  0  0  0  0  0  0  0  0  1  0  0
  -24.1627  -25.3456   25.8637 C   0  0  1  0  0  0  0  0  0  0  0  0
  -24.8715  -21.6261   26.0429 C   0  0  2  0  0  0  0  0  0  0  0  0
  -29.4375  -18.8621   16.8880 C   0  0  0  0  0  0  0  0  0  0  0  0
  -23.9558  -26.1788   27.1600 C   0  0  0  0  0  0  0  0  0  0  0  0
  -28.5601  -14.2259   20.7203 N   0  0  0  0  0  0  0  0  0  0  0  0
  -29.8530  -14.1653   20.3587 N   0  0  0  0  0  0  0  0  0  0  0  0
  -30.6286  -23.8352   19.4397 N   0  0  0  0  0  0  0  0  0  0  0  0
  -23.6191  -26.1548   23.5891 N   0  0  0  0  0  0  0  0  0  0  0  0
  -31.0425  -17.6485   21.3764 N   0  0  0  0  0  0  0  0  0  0  0  0
  -28.7615  -21.3753   15.6800 N   0  0  0  0  0  0  0  0  0  0  0  0
  -31.4152  -12.8647   19.1427 N   0  0  0  0  0  0  0  0  0  0  0  0
  -27.5523  -10.5760   18.6573 N   0  0  0  0  0  0  0  0  0  0  0  0
  -30.7436  -18.9692   19.4454 N   0  0  0  0  0  0  0  0  0  0  0  0
  -21.3314  -28.6842   22.5410 N   0  0  0  0  0  0  0  0  0  0  0  0
  -24.1122  -23.9018   26.0669 N   0  0  0  0  0  0  0  0  0  0  0  0
  -25.5275  -20.7371   25.0427 N   0  3  0  0  0  0  0  0  0  0  0  0
  -29.8365  -25.4564   17.8822 O   0  0  0  0  0  0  0  0  0  0  0  0
  -29.7842  -10.5946   18.1311 O   0  0  0  0  0  0  0  0  0  0  0  0
  -23.5701  -28.7699   23.1761 O   0  0  0  0  0  0  0  0  0  0  0  0
  -21.9378  -25.4662   25.0504 O   0  0  0  0  0  0  0  0  0  0  0  0
  -26.2315  -23.4541   25.2393 O   0  0  0  0  0  0  0  0  0  0  0  0
  -32.1932  -19.6381   21.1285 O   0  0  0  0  0  0  0  0  0  0  0  0
  -22.6003  -11.9842   20.7857 O   0  0  0  0  0  0  0  0  0  0  0  0
  -28.5122  -27.0824   19.9492 O   0  0  0  0  0  0  0  0  0  1  0  0
  -21.2010   -6.7937   22.0123 F   0  0  0  0  0  0  0  0  0  0  0  0
  -21.2334  -11.3966   23.1157 F   0  0  0  0  0  0  0  0  0  0  0  0
  -28.8180  -19.0070   15.6819 F   0  0  0  0  0  0  0  0  0  0  0  0
  -30.5433  -18.1049   16.6376 F   0  0  0  0  0  0  0  0  0  0  0  0
  -28.6124  -18.0783   17.6373 F   0  0  0  0  0  0  0  0  0  0  0  0
  1  2  1  0  0  0  0
  1  5  2  0  0  0  0
  2  6  2  0  0  0  0
  3  8  2  0  0  0  0
  3 17  1  0  0  0  0
  4  9  1  0  0  0  0
  4 17  2  0  0  0  0
  5 19  1  0  0  0  0
  6 21  1  0  0  0  0
  7 10  2  0  0  0  0
  7 20  1  0  0  0  0
  8 27  1  0  0  0  0
  9 27  2  0  0  0  0
 10 28  1  0  0  0  0
 11 12  2  0  0  0  0
 11 29  1  0  0  0  0
 12 30  1  0  0  0  0
 13 22  1  0  0  0  0
 13 28  2  0  0  0  0
 14 24  1  0  0  0  0
 14 25  2  0  0  0  0
 15 24  2  0  0  0  0
 15 26  1  0  0  0  0
 16 30  2  0  0  0  0
 16 31  1  0  0  0  0
 17 32  1  0  0  0  0
 18 32  1  0  0  0  0
 18 33  2  0  0  0  0
 18 35  1  0  0  0  0
 19 21  2  0  0  0  0
 19 40  1  0  0  0  0
 20 22  2  0  0  0  0
 20 41  1  0  0  0  0
 21 51  1  0  0  0  0
 22 42  1  0  0  0  0
 23 25  1  0  0  0  0
 23 26  2  0  0  0  0
 23 64  1  0  0  0  0
 24 68  1  0  0  0  0
 25 71  1  0  0  0  0
 26 74  1  0  0  0  0
 27 84  1  0  0  0  0
 28 85  1  0  0  0  0
 29 31  2  0  0  0  0
 29 84  1  0  0  0  0
 30 86  1  0  0  0  0
 31 87  1  0  0  0  0
 32 66  2  0  0  0  0
 33 67  1  0  0  0  0
 33 72  1  0  0  0  0
 34 54  1  0  0  0  0
 34 68  1  0  0  0  0
 34 78  2  0  0  0  0
 35 73  1  0  0  0  0
 35 79  2  0  0  0  0
 36 52  1  0  0  0  0
 36 75  1  0  0  0  0
 36 80  2  0  0  0  0
 37 62  1  0  0  0  0
 37 69  1  0  0  0  0
 37 81  2  0  0  0  0
 38 63  1  0  0  0  0
 38 76  1  0  0  0  0
 38 82  2  0  0  0  0
 39 70  1  0  0  0  0
 39 74  1  0  0  0  0
 39 83  2  0  0  0  0
 40 43  1  0  0  0  0
 41 52  1  0  0  0  0
 42 69  1  0  0  0  0
 43 45  1  0  0  0  0
 44 46  1  0  0  0  0
 44 48  1  0  0  0  0
 45 51  1  0  0  0  0
 46 53  1  0  0  0  0
 47 49  1  0  0  0  0
 47 54  1  0  0  0  0
 48 70  1  0  0  0  0
 49 68  1  0  0  0  0
 50 53  1  0  0  0  0
 50 70  1  0  0  0  0
 51 75  1  0  0  0  0
 52 69  1  0  0  0  0
 53 67  1  0  0  0  0
 54 55  1  0  0  0  0
 54 61  1  0  0  0  0
 56 63  1  0  0  0  0
 57 65  1  0  0  0  0
 58 65  1  0  0  0  0
 59 65  1  0  0  0  0
 60 77  1  0  0  0  0
 61 85  1  0  0  0  0
 62 65  1  0  0  0  0
 62 76  1  0  0  0  0
 63 77  1  0  0  0  0
 64 88  1  0  0  0  0
 64 89  1  0  0  0  0
 64 90  1  0  0  0  0
 66 67  1  0  0  0  0
M  CHG  1  77   1
M  ISO  4  39 100  61 101  74 100  85 101
M  END
> <Batch ID>
0071

> <Smiles>
CNC(C)C(=O)NC(C(=O)N1Cc2cc([101O:1][101CH2:1]C3(C)CCN(c4cc(N)c(C(F)(F)F)c([100NH:0][100C:0](=O)N5CCCC(n6nc(-c7ccc(Oc8ccc(F)cc8F)cc7)c(C(N)=O)c6N)C5)c4)C3=O)ccc2CC1C(=O)NC1CCCc2ccccc21)C(C)(C)C

> <Shape>
0.265

> <Color>
0.080

> <Negative vol penalty>
0.000

$$$$

  -OEChem-04042323353D

 91100  0     1  0  0  0  0  0999 V2000
  -26.3107  -37.4639   24.7414 C   0  0  0  0  0  0  0  0  0  0  0  0
  -27.0005  -36.7342   23.7785 C   0  0  0  0  0  0  0  0  0  0  0  0
  -24.5209   -9.0263   20.4994 C   0  0  0  0  0  0  0  0  0  0  0  0
  -22.9224  -10.7778   20.9618 C   0  0  0  0  0  0  0  0  0  0  0  0
  -25.5542  -36.8013   25.7072 C   0  0  0  0  0  0  0  0  0  0  0  0
  -26.9350  -35.3413   23.7815 C   0  0  0  0  0  0  0  0  0  0  0  0
  -26.9771  -29.7409   19.3150 C   0  0  0  0  0  0  0  0  0  0  0  0
  -29.8195  -20.7628   19.9244 C   0  0  0  0  0  0  0  0  0  0  0  0
  -29.5261  -19.5360   20.5197 C   0  0  0  0  0  0  0  0  0  0  0  0
  -23.5850   -8.0688   20.8905 C   0  0  0  0  0  0  0  0  0  0  0  0
  -21.9864   -9.8204   21.3529 C   0  0  0  0  0  0  0  0  0  0  0  0
  -27.6365  -28.5292   19.1132 C   0  0  0  0  0  0  0  0  0  0  0  0
  -20.8668   -6.5558   19.5657 C   0  0  0  0  0  0  0  0  0  0  0  0
  -20.7159   -5.4289   18.7577 C   0  0  0  0  0  0  0  0  0  0  0  0
  -26.2343  -27.4952   20.7817 C   0  0  0  0  0  0  0  0  0  0  0  0
  -28.1309  -20.3523   18.2460 C   0  0  0  0  0  0  0  0  0  0  0  0
  -21.3423   -4.0145   20.6135 C   0  0  0  0  0  0  0  0  0  0  0  0
  -24.1896  -10.3808   20.5351 C   0  0  0  0  0  0  0  0  0  0  0  0
  -25.3513  -11.8902   18.8381 C   0  0  0  0  0  0  0  0  0  0  0  0
  -25.4717  -35.4000   25.7161 C   0  0  0  0  0  0  0  0  0  0  0  0
  -25.9470  -29.8417   20.2611 C   0  0  0  0  0  0  0  0  0  0  0  0
  -26.1778  -34.6593   24.7491 C   0  0  0  0  0  0  0  0  0  0  0  0
  -25.5617  -28.7087   20.9918 C   0  0  0  0  0  0  0  0  0  0  0  0
  -29.1218  -21.1710   18.7876 C   0  0  0  0  0  0  0  0  0  0  0  0
  -28.5351  -18.7172   19.9781 C   0  0  0  0  0  0  0  0  0  0  0  0
  -27.8375  -19.1254   18.8413 C   0  0  0  0  0  0  0  0  0  0  0  0
  -22.3177   -8.4659   21.3172 C   0  0  0  0  0  0  0  0  0  0  0  0
  -27.2670  -27.4068   19.8486 C   0  0  0  0  0  0  0  0  0  0  0  0
  -21.2555   -6.4121   20.8976 C   0  0  0  0  0  0  0  0  0  0  0  0
  -20.9536   -4.1582   19.2816 C   0  0  0  0  0  0  0  0  0  0  0  0
  -21.4932   -5.1414   21.4215 C   0  0  0  0  0  0  0  0  0  0  0  0
  -25.1562  -11.3703   20.1317 C   0  0  0  0  0  0  0  0  0  0  0  0
  -26.3784  -12.7909   18.9814 C   0  0  0  0  0  0  0  0  0  0  0  0
  -28.4623  -24.5108   18.1026 C   0  0  0  0  0  0  0  0  0  0  0  0
  -28.4188  -23.9062   16.7489 C   0  0  0  0  0  0  0  0  0  0  0  0
  -28.8156  -16.3187   15.8316 C   0  0  0  0  0  0  0  0  0  0  0  0
  -27.8689  -25.6665   18.4065 C   0  0  0  0  0  0  0  0  0  1  0  0
  -28.5052  -17.2167   16.7720 C   0  0  0  0  0  0  0  0  0  0  0  0
  -24.6655  -11.5863   17.6162 C   0  0  0  0  0  0  0  0  0  0  0  0
  -27.1022  -17.3339   17.2672 C   0  0  0  0  0  0  0  0  0  0  0  0
  -25.5055  -31.5161   22.9266 C   0  0  0  0  0  0  0  0  0  0  0  0
  -22.5399  -30.2086   22.7938 C   0  0  0  0  0  0  0  0  0  0  0  0
  -20.5359  -27.6792   21.6835 C   0  0  0  0  0  0  0  0  0  0  0  0
  -28.8687  -16.9414   21.7335 C   0  0  0  0  0  0  0  0  0  0  0  0
  -24.6795  -34.7264   26.8086 C   0  0  0  0  0  0  0  0  0  0  0  0
  -25.2277  -31.1495   20.4479 C   0  0  0  0  0  0  0  0  0  0  0  0
  -24.4485  -28.7593   22.0051 C   0  0  0  0  0  0  0  0  0  0  0  0
  -29.2445  -23.6124   19.0045 C   0  0  0  0  0  0  0  0  0  0  0  0
  -24.3596  -33.2629   26.5152 C   0  0  0  0  0  0  0  0  0  0  0  0
  -29.5061  -13.6286   22.8721 C   0  0  0  0  0  0  0  0  0  0  0  0
  -25.6030  -32.5347   26.0145 C   0  0  0  0  0  0  0  0  0  0  0  0
  -28.4473  -12.7885   22.1542 C   0  0  0  0  0  0  0  0  0  0  0  0
  -28.9639  -14.9977   23.2788 C   0  0  0  0  0  0  0  0  0  0  0  0
  -27.2882  -14.9289   21.4742 C   0  0  0  0  0  0  0  0  0  0  0  0
  -26.1115  -33.1481   24.7043 C   0  0  1  0  0  0  0  0  0  0  0  0
  -24.5389  -31.2641   21.8042 C   0  0  1  0  0  0  0  0  0  0  0  0
  -27.8069  -13.5659   20.9875 C   0  0  2  0  0  0  0  0  0  0  0  0
  -18.1641  -26.8638   21.7671 C   0  0  0  0  0  0  0  0  0  0  0  0
  -22.9793  -29.2309   25.6505 C   0  0  0  0  0  0  0  0  0  0  0  0
  -21.0514  -27.6647   25.3369 C   0  0  0  0  0  0  0  0  0  0  0  0
  -20.6899  -30.1288   25.1958 C   0  0  0  0  0  0  0  0  0  0  0  0
  -29.6524  -21.9561   15.7815 C   0  0  0  0  0  0  0  0  0  0  0  0
  -25.4433  -18.4256   18.8086 C   0  0  0  0  0  0  0  0  0  0  0  0
  -20.2413  -27.8787   18.7454 C   0  0  0  0  0  0  0  0  0  0  0  0
  -21.9041  -28.9448   23.3207 C   0  0  1  0  0  0  0  0  0  0  0  0
  -19.1808  -27.6940   20.9993 C   0  0  2  0  0  0  0  0  0  0  0  0
  -21.6785  -28.9915   24.8584 C   0  0  0  0  0  0  0  0  0  0  0  0
  -25.9922  -11.8967   21.0306 N   0  0  0  0  0  0  0  0  0  0  0  0
  -26.7227  -12.7567   20.3006 N   0  0  0  0  0  0  0  0  0  0  0  0
  -29.4187  -22.4109   18.1858 N   0  0  2  0  0  0  0  0  0  0  0  0
  -29.0138  -22.6605   16.8713 N   0  0  0  0  0  0  0  0  0  0  0  0
  -23.7799  -30.0623   22.1561 N   0  0  0  0  0  0  0  0  0  0  0  0
  -28.3766  -15.6774   22.1221 N   0  0  0  0  0  0  0  0  0  0  0  0
  -27.0115  -13.6007   18.1063 N   0  0  0  0  0  0  0  0  0  0  0  0
  -23.6351  -10.6368   17.6468 N   0  0  0  0  0  0  0  0  0  0  0  0
  -28.2556  -17.4754   20.6006 N   0  0  0  0  0  0  0  0  0  0  0  0
  -25.2971  -32.7095   23.5913 N   0  0  0  0  0  0  0  0  0  0  0  0
  -20.6854  -28.7463   22.5437 N   0  0  0  0  0  0  0  0  0  0  0  0
  -26.8410  -18.3216   18.2797 N   0  0  0  0  0  0  0  0  0  0  0  0
  -19.2914  -27.1429   19.6191 N   0  3  0  0  0  0  0  0  0  0  0  0
  -28.0037  -24.4590   15.7440 O   0  0  0  0  0  0  0  0  0  0  0  0
  -24.9688  -12.1283   16.5264 O   0  0  0  0  0  0  0  0  0  0  0  0
  -26.2466  -16.5735   16.8134 O   0  0  0  0  0  0  0  0  0  0  0  0
  -26.3751  -30.6884   23.1724 O   0  0  0  0  0  0  0  0  0  0  0  0
  -21.9543  -31.2849   22.9362 O   0  0  0  0  0  0  0  0  0  0  0  0
  -21.3761  -26.8060   21.4784 O   0  0  0  0  0  0  0  0  0  0  0  0
  -29.7864  -17.4961   22.3436 O   0  0  0  0  0  0  0  0  0  0  0  0
  -21.4041   -7.5319   21.6987 O   0  0  0  0  0  0  0  0  0  0  0  0
  -27.9094  -26.2230   19.6540 O   0  0  0  0  0  0  0  0  0  1  0  0
  -20.8071   -3.0760   18.5060 F   0  0  0  0  0  0  0  0  0  0  0  0
  -21.8657   -4.9970   22.7006 F   0  0  0  0  0  0  0  0  0  0  0  0
  1  2  1  0  0  0  0
  1  5  2  0  0  0  0
  2  6  2  0  0  0  0
  3 10  2  0  0  0  0
  3 18  1  0  0  0  0
  4 11  1  0  0  0  0
  4 18  2  0  0  0  0
  5 20  1  0  0  0  0
  6 22  1  0  0  0  0
  7 12  2  0  0  0  0
  7 21  1  0  0  0  0
  8  9  2  0  0  0  0
  8 24  1  0  0  0  0
  9 25  1  0  0  0  0
 10 27  1  0  0  0  0
 11 27  2  0  0  0  0
 12 28  1  0  0  0  0
 13 14  2  0  0  0  0
 13 29  1  0  0  0  0
 14 30  1  0  0  0  0
 15 23  1  0  0  0  0
 15 28  2  0  0  0  0
 16 24  2  0  0  0  0
 16 26  1  0  0  0  0
 17 30  2  0  0  0  0
 17 31  1  0  0  0  0
 18 32  1  0  0  0  0
 19 32  1  0  0  0  0
 19 33  2  0  0  0  0
 19 39  1  0  0  0  0
 20 22  2  0  0  0  0
 20 45  1  0  0  0  0
 21 23  2  0  0  0  0
 21 46  1  0  0  0  0
 22 55  1  0  0  0  0
 23 47  1  0  0  0  0
 24 70  1  0  0  0  0
 25 26  2  0  0  0  0
 25 76  1  0  0  0  0
 26 79  1  0  0  0  0
 27 88  1  0  0  0  0
 28 89  1  0  0  0  0
 29 31  2  0  0  0  0
 29 88  1  0  0  0  0
 30 90  1  0  0  0  0
 31 91  1  0  0  0  0
 32 68  2  0  0  0  0
 33 69  1  0  0  0  0
 33 74  1  0  0  0  0
 34 35  1  0  0  0  0
 34 37  2  0  0  0  0
 34 48  1  0  0  0  0
 35 71  1  0  0  0  0
 35 81  2  0  0  0  0
 36 38  2  0  0  0  0
 37 89  1  0  0  0  0
 38 40  1  0  0  0  0
 39 75  1  0  0  0  0
 39 82  2  0  0  0  0
 40 79  1  0  0  0  0
 40 83  2  0  0  0  0
 41 56  1  0  0  0  0
 41 77  1  0  0  0  0
 41 84  2  0  0  0  0
 42 65  1  0  0  0  0
 42 72  1  0  0  0  0
 42 85  2  0  0  0  0
 43 66  1  0  0  0  0
 43 78  1  0  0  0  0
 43 86  2  0  0  0  0
 44 73  1  0  0  0  0
 44 76  1  0  0  0  0
 44 87  2  0  0  0  0
 45 49  1  0  0  0  0
 46 56  1  0  0  0  0
 47 72  1  0  0  0  0
 48 70  1  0  0  0  0
 49 51  1  0  0  0  0
 50 52  1  0  0  0  0
 50 53  1  0  0  0  0
 51 55  1  0  0  0  0
 52 57  1  0  0  0  0
 53 73  1  0  0  0  0
 54 57  1  0  0  0  0
 54 73  1  0  0  0  0
 55 77  1  0  0  0  0
 56 72  1  0  0  0  0
 57 69  1  0  0  0  0
 58 66  1  0  0  0  0
 59 67  1  0  0  0  0
 60 67  1  0  0  0  0
 61 67  1  0  0  0  0
 62 71  1  0  0  0  0
 63 79  1  0  0  0  0
 64 80  1  0  0  0  0
 65 67  1  0  0  0  0
 65 78  1  0  0  0  0
 66 80  1  0  0  0  0
 68 69  1  0  0  0  0
 70 71  1  0  0  0  0
M  CHG  1  80   1
M  ISO  4  37 101  44 100  76 100  89 101
M  END
> <Batch ID>
0071

> <Smiles>
C=CC(=O)N(C)c1cc(N2CC(=[101CH:1][101O:1]c3ccc4c(c3)CN(C(=O)C(NC(=O)C(C)NC)C(C)(C)C)C(C(=O)NC3CCCc5ccccc53)C4)C(=O)N2C)ccc1[100NH:0][100C:0](=O)N1CCCC(n2nc(-c3ccc(Oc4ccc(F)cc4F)cc3)c(C(N)=O)c2N)C1

> <Shape>
0.334

> <Color>
0.097

> <Negative vol penalty>
0.000

$$$$

  -OEChem-04042323353D

 84 92  0     1  0  0  0  0  0999 V2000
  -29.4148  -33.8599   17.9362 C   0  0  0  0  0  0  0  0  0  0  0  0
  -29.8314  -32.8486   18.7959 C   0  0  0  0  0  0  0  0  0  0  0  0
  -23.0687   -9.8776   19.9379 C   0  0  0  0  0  0  0  0  0  0  0  0
  -23.8346   -9.8718   22.2293 C   0  0  0  0  0  0  0  0  0  0  0  0
  -28.1413  -33.8121   17.3708 C   0  0  0  0  0  0  0  0  0  0  0  0
  -28.9741  -31.7894   19.0917 C   0  0  0  0  0  0  0  0  0  0  0  0
  -30.5414  -25.9554   20.0986 C   0  0  0  0  0  0  0  0  0  0  0  0
  -22.3217   -8.7258   20.1846 C   0  0  0  0  0  0  0  0  0  0  0  0
  -23.0875   -8.7199   22.4761 C   0  0  0  0  0  0  0  0  0  0  0  0
  -30.7318  -25.2241   21.2703 C   0  0  0  0  0  0  0  0  0  0  0  0
  -19.8584   -7.9299   23.0834 C   0  0  0  0  0  0  0  0  0  0  0  0
  -19.1044   -7.8872   24.2561 C   0  0  0  0  0  0  0  0  0  0  0  0
  -28.4700  -24.3997   21.1159 C   0  0  0  0  0  0  0  0  0  0  0  0
  -31.8896  -18.3192   24.2121 C   0  0  0  0  0  0  0  0  0  0  0  0
  -32.0848  -16.5757   22.5510 C   0  0  0  0  0  0  0  0  0  0  0  0
  -20.3414   -5.9424   24.9806 C   0  0  0  0  0  0  0  0  0  0  0  0
  -23.8252  -10.4506   20.9602 C   0  0  0  0  0  0  0  0  0  0  0  0
  -24.1749  -12.9752   20.8507 C   0  0  0  0  0  0  0  0  0  0  0  0
  -27.2715  -32.7468   17.6522 C   0  0  0  0  0  0  0  0  0  0  0  0
  -29.3083  -25.9229   19.4316 C   0  0  0  0  0  0  0  0  0  0  0  0
  -27.6871  -31.7280   18.5306 C   0  0  0  0  0  0  0  0  0  0  0  0
  -28.2674  -25.1294   19.9346 C   0  0  0  0  0  0  0  0  0  0  0  0
  -30.5031  -18.3089   24.0600 C   0  0  0  0  0  0  0  0  0  0  0  0
  -30.6983  -16.5653   22.3989 C   0  0  0  0  0  0  0  0  0  0  0  0
  -22.3311   -8.1470   21.4537 C   0  0  0  0  0  0  0  0  0  0  0  0
  -29.6950  -24.4484   21.7807 C   0  0  0  0  0  0  0  0  0  0  0  0
  -20.8539   -6.9789   22.8592 C   0  0  0  0  0  0  0  0  0  0  0  0
  -19.3459   -6.8934   25.2047 C   0  0  0  0  0  0  0  0  0  0  0  0
  -32.6805  -17.4526   23.4576 C   0  0  0  0  0  0  0  0  0  0  0  0
  -21.0954   -5.9851   23.8078 C   0  0  0  0  0  0  0  0  0  0  0  0
  -29.9075  -17.4320   23.1535 C   0  0  0  0  0  0  0  0  0  0  0  0
  -24.5975  -11.6401   20.7059 C   0  0  0  0  0  0  0  0  0  0  0  0
  -25.2686  -13.7227   20.4879 C   0  0  0  0  0  0  0  0  0  0  0  0
  -22.9072  -13.4932   21.2753 C   0  0  0  0  0  0  0  0  0  0  0  0
  -27.0955  -28.0847   18.7010 C   0  0  0  0  0  0  0  0  0  0  0  0
  -25.7705  -25.6088   17.0773 C   0  0  0  0  0  0  0  0  0  0  0  0
  -29.8812  -21.5326   23.9281 C   0  0  0  0  0  0  0  0  0  0  0  0
  -25.4474  -22.2322   16.7018 C   0  0  0  0  0  0  0  0  0  0  0  0
  -30.7386  -14.7497   20.6530 C   0  0  0  0  0  0  0  0  0  0  0  0
  -25.8868  -32.7629   17.0545 C   0  0  0  0  0  0  0  0  0  0  0  0
  -29.1277  -26.6964   18.1543 C   0  0  0  0  0  0  0  0  0  0  0  0
  -26.9309  -25.0444   19.2453 C   0  0  0  0  0  0  0  0  0  0  0  0
  -25.1776  -31.4129   17.1243 C   0  0  0  0  0  0  0  0  0  0  0  0
  -29.6101  -12.3503   18.2768 C   0  0  0  0  0  0  0  0  0  0  0  0
  -25.3219  -30.8054   18.5160 C   0  0  0  0  0  0  0  0  0  0  0  0
  -28.1706  -12.0614   18.7088 C   0  0  0  0  0  0  0  0  0  0  0  0
  -30.5291  -12.5707   19.4771 C   0  0  0  0  0  0  0  0  0  0  0  0
  -28.6281  -13.2951   20.8666 C   0  0  0  0  0  0  0  0  0  0  0  0
  -26.7951  -30.5497   18.8563 C   0  0  1  0  0  0  0  0  0  0  0  0
  -27.6653  -26.9945   17.8381 C   0  0  1  0  0  0  0  0  0  0  0  0
  -27.6517  -13.1303   19.6906 C   0  0  2  0  0  0  0  0  0  0  0  0
  -24.2655  -20.5088   15.3123 C   0  0  0  0  0  0  0  0  0  0  0  0
  -23.1856  -26.1542   18.6039 C   0  0  0  0  0  0  0  0  0  0  0  0
  -22.3792  -23.8880   17.9094 C   0  0  0  0  0  0  0  0  0  0  0  0
  -22.8731  -25.6178   16.1813 C   0  0  0  0  0  0  0  0  0  0  0  0
  -28.0012  -21.1057   15.7179 C   0  0  0  0  0  0  0  0  0  0  0  0
  -29.6555  -19.2434   24.8738 C   0  0  0  0  0  0  0  0  0  0  0  0
  -29.1353  -22.5231   23.0597 C   0  0  0  0  0  0  0  0  0  1  0  0
  -24.7858  -24.5149   17.4130 C   0  0  1  0  0  0  0  0  0  0  0  0
  -25.5267  -21.3430   15.4739 C   0  0  2  0  0  0  0  0  0  0  0  0
  -23.3303  -25.0466   17.5412 C   0  0  0  0  0  0  0  0  0  0  0  0
  -25.8609  -11.5421   20.2838 N   0  0  0  0  0  0  0  0  0  0  0  0
  -26.2417  -12.8250   20.1603 N   0  0  0  0  0  0  0  0  0  0  0  0
  -26.8013  -25.8239   18.0031 N   0  0  0  0  0  0  0  0  0  0  0  0
  -29.9758  -13.5993   20.3606 N   0  0  0  0  0  0  0  0  0  0  0  0
  -25.4831  -15.0538   20.4204 N   0  0  0  0  0  0  0  0  0  0  0  0
  -21.8932  -12.5858   21.6111 N   0  0  0  0  0  0  0  0  0  0  0  0
  -30.0964  -15.6732   21.4773 N   0  0  0  0  0  0  0  0  0  0  0  0
  -27.2684  -29.3562   18.1885 N   0  0  0  0  0  0  0  0  0  0  0  0
  -29.1691  -20.3543   24.0888 N   0  0  0  0  0  0  0  0  0  0  0  0
  -24.9579  -23.4842   16.3950 N   0  0  0  0  0  0  0  0  0  0  0  0
  -26.6913  -20.4190   15.5780 N   0  3  0  0  0  0  0  0  0  0  0  0
  -22.6751  -14.7243   21.3388 O   0  0  0  0  0  0  0  0  0  0  0  0
  -26.5389  -27.7936   19.7533 O   0  0  0  0  0  0  0  0  0  0  0  0
  -25.6345  -26.2440   16.0287 O   0  0  0  0  0  0  0  0  0  0  0  0
  -30.9814  -21.7743   24.4170 O   0  0  0  0  0  0  0  0  0  0  0  0
  -25.7823  -21.8527   17.8218 O   0  0  0  0  0  0  0  0  0  0  0  0
  -31.8670  -14.9169   20.1832 O   0  0  0  0  0  0  0  0  0  0  0  0
  -21.6021   -7.0231   21.6949 O   0  0  0  0  0  0  0  0  0  0  0  0
  -29.8779  -23.7341   22.9245 O   0  0  0  0  0  0  0  0  0  1  0  0
  -18.6228   -6.8534   26.3315 F   0  0  0  0  0  0  0  0  0  0  0  0
  -34.0119  -17.4623   23.6039 F   0  0  0  0  0  0  0  0  0  0  0  0
  -22.0512   -5.0695   23.5986 F   0  0  0  0  0  0  0  0  0  0  0  0
  -28.5737  -17.4237   23.0084 F   0  0  0  0  0  0  0  0  0  0  0  0
  1  2  1  0  0  0  0
  1  5  2  0  0  0  0
  2  6  2  0  0  0  0
  3  8  2  0  0  0  0
  3 17  1  0  0  0  0
  4  9  1  0  0  0  0
  4 17  2  0  0  0  0
  5 19  1  0  0  0  0
  6 21  1  0  0  0  0
  7 10  2  0  0  0  0
  7 20  1  0  0  0  0
  8 25  1  0  0  0  0
  9 25  2  0  0  0  0
 10 26  1  0  0  0  0
 11 12  2  0  0  0  0
 11 27  1  0  0  0  0
 12 28  1  0  0  0  0
 13 22  1  0  0  0  0
 13 26  2  0  0  0  0
 14 23  1  0  0  0  0
 14 29  2  0  0  0  0
 15 24  2  0  0  0  0
 15 29  1  0  0  0  0
 16 28  2  0  0  0  0
 16 30  1  0  0  0  0
 17 32  1  0  0  0  0
 18 32  1  0  0  0  0
 18 33  2  0  0  0  0
 18 34  1  0  0  0  0
 19 21  2  0  0  0  0
 19 40  1  0  0  0  0
 20 22  2  0  0  0  0
 20 41  1  0  0  0  0
 21 49  1  0  0  0  0
 22 42  1  0  0  0  0
 23 31  2  0  0  0  0
 23 57  1  0  0  0  0
 24 31  1  0  0  0  0
 24 68  1  0  0  0  0
 25 79  1  0  0  0  0
 26 80  1  0  0  0  0
 27 30  2  0  0  0  0
 27 79  1  0  0  0  0
 28 81  1  0  0  0  0
 29 82  1  0  0  0  0
 30 83  1  0  0  0  0
 31 84  1  0  0  0  0
 32 62  2  0  0  0  0
 33 63  1  0  0  0  0
 33 66  1  0  0  0  0
 34 67  1  0  0  0  0
 34 73  2  0  0  0  0
 35 50  1  0  0  0  0
 35 69  1  0  0  0  0
 35 74  2  0  0  0  0
 36 59  1  0  0  0  0
 36 64  1  0  0  0  0
 36 75  2  0  0  0  0
 37 58  1  0  0  0  0
 37 70  1  0  0  0  0
 37 76  2  0  0  0  0
 38 60  1  0  0  0  0
 38 71  1  0  0  0  0
 38 77  2  0  0  0  0
 39 65  1  0  0  0  0
 39 68  1  0  0  0  0
 39 78  2  0  0  0  0
 40 43  1  0  0  0  0
 41 50  1  0  0  0  0
 42 64  1  0  0  0  0
 43 45  1  0  0  0  0
 44 46  1  0  0  0  0
 44 47  1  0  0  0  0
 45 49  1  0  0  0  0
 46 51  1  0  0  0  0
 47 65  1  0  0  0  0
 48 51  1  0  0  0  0
 48 65  1  0  0  0  0
 49 69  1  0  0  0  0
 50 64  1  0  0  0  0
 51 63  1  0  0  0  0
 52 60  1  0  0  0  0
 53 61  1  0  0  0  0
 54 61  1  0  0  0  0
 55 61  1  0  0  0  0
 56 72  1  0  0  0  0
 57 70  1  0  0  0  0
 58 80  1  0  0  0  0
 59 61  1  0  0  0  0
 59 71  1  0  0  0  0
 60 72  1  0  0  0  0
 62 63  1  0  0  0  0
M  CHG  1  72   1
M  ISO  4  39 100  58 101  68 100  80 101
M  END
> <Batch ID>
0071

> <Smiles>
CNC(C)C(=O)NC(C(=O)N1Cc2cc([101O:1][101CH2:1]C(=O)NCc3cc(F)cc([100NH:0][100C:0](=O)N4CCCC(n5nc(-c6ccc(Oc7ccc(F)cc7F)cc6)c(C(N)=O)c5N)C4)c3F)ccc2CC1C(=O)NC1CCCc2ccccc21)C(C)(C)C

> <Shape>
0.217

> <Color>
0.192

> <Negative vol penalty>
0.000

$$$$

  -OEChem-04042323353D

 89 97  0     1  0  0  0  0  0999 V2000
  -28.6428  -36.1398   18.6940 C   0  0  0  0  0  0  0  0  0  0  0  0
  -29.2407  -34.9090   18.9448 C   0  0  0  0  0  0  0  0  0  0  0  0
  -24.3200   -9.4887   21.2296 C   0  0  0  0  0  0  0  0  0  0  0  0
  -24.8821  -10.4020   23.3946 C   0  0  0  0  0  0  0  0  0  0  0  0
  -27.3962  -36.4332   19.2452 C   0  0  0  0  0  0  0  0  0  0  0  0
  -28.5928  -33.9712   19.7480 C   0  0  0  0  0  0  0  0  0  0  0  0
  -28.7201  -27.8796   19.1293 C   0  0  0  0  0  0  0  0  0  0  0  0
  -23.9731   -8.2786   21.8302 C   0  0  0  0  0  0  0  0  0  0  0  0
  -24.5351   -9.1918   23.9952 C   0  0  0  0  0  0  0  0  0  0  0  0
  -29.4655  -26.8876   19.7650 C   0  0  0  0  0  0  0  0  0  0  0  0
  -21.3496   -7.0112   23.5460 C   0  0  0  0  0  0  0  0  0  0  0  0
  -20.1630   -6.4019   23.1382 C   0  0  0  0  0  0  0  0  0  0  0  0
  -28.2929  -20.7183   22.4288 C   0  0  0  0  0  0  0  0  0  0  0  0
  -27.6438  -26.5115   21.3010 C   0  0  0  0  0  0  0  0  0  0  0  0
  -30.4568  -19.2502   21.4567 C   0  0  0  0  0  0  0  0  0  0  0  0
  -21.4066   -4.4571   22.4252 C   0  0  0  0  0  0  0  0  0  0  0  0
  -24.7746  -10.5505   22.0118 C   0  0  0  0  0  0  0  0  0  0  0  0
  -29.5856  -21.2325   22.5286 C   0  0  0  0  0  0  0  0  0  0  0  0
  -24.2907  -12.9011   21.1469 C   0  0  0  0  0  0  0  0  0  0  0  0
  -26.7283  -35.4948   20.0476 C   0  0  0  0  0  0  0  0  0  0  0  0
  -27.4330  -28.2031   19.5823 C   0  0  0  0  0  0  0  0  0  0  0  0
  -27.3367  -34.2528   20.3116 C   0  0  0  0  0  0  0  0  0  0  0  0
  -26.8831  -27.5062   20.6677 C   0  0  0  0  0  0  0  0  0  0  0  0
  -29.1640  -18.7360   21.3569 C   0  0  0  0  0  0  0  0  0  0  0  0
  -24.0806   -8.1301   23.2130 C   0  0  0  0  0  0  0  0  0  0  0  0
  -28.9285  -26.2054   20.8528 C   0  0  0  0  0  0  0  0  0  0  0  0
  -22.5647   -6.3435   23.3933 C   0  0  0  0  0  0  0  0  0  0  0  0
  -20.1915   -5.1248   22.5778 C   0  0  0  0  0  0  0  0  0  0  0  0
  -28.0820  -19.4700   21.8429 C   0  0  0  0  0  0  0  0  0  0  0  0
  -30.6676  -20.4985   22.0426 C   0  0  0  0  0  0  0  0  0  0  0  0
  -22.5932   -5.0665   22.8329 C   0  0  0  0  0  0  0  0  0  0  0  0
  -25.1337  -11.8006   21.3920 C   0  0  0  0  0  0  0  0  0  0  0  0
  -25.1043  -13.8296   20.5449 C   0  0  0  0  0  0  0  0  0  0  0  0
  -29.8054  -22.5626   23.1528 C   0  0  0  0  0  0  0  0  0  0  0  0
  -22.8967  -13.0690   21.4375 C   0  0  0  0  0  0  0  0  0  0  0  0
  -26.0628  -30.8145   20.7683 C   0  0  0  0  0  0  0  0  0  0  0  0
  -23.3701  -29.0158   20.5774 C   0  0  0  0  0  0  0  0  0  0  0  0
  -21.9631  -25.9083   20.4737 C   0  0  0  0  0  0  0  0  0  0  0  0
  -30.4551  -25.6974   22.5334 C   0  0  0  0  0  0  0  0  0  1  0  0
  -29.9162  -16.6131   20.2284 C   0  0  0  0  0  0  0  0  0  0  0  0
  -25.4037  -35.8753   20.6602 C   0  0  0  0  0  0  0  0  0  0  0  0
  -26.6315  -29.2572   18.8690 C   0  0  0  0  0  0  0  0  0  0  0  0
  -25.4980  -27.8016   21.1801 C   0  0  0  0  0  0  0  0  0  0  0  0
  -24.6143  -34.6827   21.1939 C   0  0  0  0  0  0  0  0  0  0  0  0
  -29.8009  -13.3956   18.7079 C   0  0  0  0  0  0  0  0  0  0  0  0
  -25.5180  -33.7691   22.0157 C   0  0  0  0  0  0  0  0  0  0  0  0
  -28.5071  -12.7844   19.2505 C   0  0  0  0  0  0  0  0  0  0  0  0
  -30.5109  -14.2463   19.7596 C   0  0  0  0  0  0  0  0  0  0  0  0
  -28.3845  -14.6694   20.9294 C   0  0  0  0  0  0  0  0  0  0  0  0
  -26.6542  -33.1998   21.1575 C   0  0  1  0  0  0  0  0  0  0  0  0
  -25.5310  -29.8602   19.7367 C   0  0  1  0  0  0  0  0  0  0  0  0
  -27.6005  -13.8566   19.8861 C   0  0  2  0  0  0  0  0  0  0  0  0
  -33.1672  -23.5964   25.3223 C   0  0  0  0  0  0  0  0  0  0  0  0
  -19.7364  -24.7571   20.3559 C   0  0  0  0  0  0  0  0  0  0  0  0
  -33.2489  -25.0083   21.6673 C   0  0  0  0  0  0  0  0  0  0  0  0
  -22.8933  -29.6416   23.5255 C   0  0  0  0  0  0  0  0  0  0  0  0
  -21.2512  -27.7527   23.5890 C   0  0  0  0  0  0  0  0  0  0  0  0
  -20.8403  -29.7107   22.0990 C   0  0  0  0  0  0  0  0  0  0  0  0
  -22.6399  -24.6104   17.9015 C   0  0  0  0  0  0  0  0  0  0  0  0
  -33.5593  -23.7461   23.8585 C   0  0  0  0  0  0  0  0  0  0  0  0
  -22.6570  -28.0574   21.5005 C   0  0  1  0  0  0  0  0  0  0  0  0
  -20.9085  -25.3101   19.5602 C   0  0  2  0  0  0  0  0  0  0  0  0
  -31.2505  -24.5788   23.2021 C   0  0  2  0  0  0  0  0  0  0  0  0
  -32.7722  -24.8487   23.1178 C   0  0  2  0  0  0  0  0  0  0  0  0
  -21.9373  -28.7862   22.6703 C   0  0  0  0  0  0  0  0  0  0  0  0
  -26.3868  -12.0091   20.9793 N   0  0  0  0  0  0  0  0  0  0  0  0
  -26.3371  -13.2512   20.4687 N   0  0  0  0  0  0  0  0  0  0  0  0
  -24.7562  -28.8451   20.4532 N   0  0  0  0  0  0  0  0  0  0  0  0
  -29.5920  -15.2426   20.3144 N   0  0  0  0  0  0  0  0  0  0  0  0
  -24.8782  -15.0761   20.0786 N   0  0  0  0  0  0  0  0  0  0  0  0
  -22.2121  -12.0155   22.0588 N   0  0  0  0  0  0  0  0  0  0  0  0
  -28.9519  -17.4682   20.7608 N   0  0  0  0  0  0  0  0  0  0  0  0
  -30.8926  -23.2836   22.6797 N   0  0  0  0  0  0  0  0  0  0  0  0
  -26.1674  -32.1196   20.3264 N   0  0  0  0  0  0  0  0  0  0  0  0
  -21.7715  -27.2614   20.6574 N   0  0  0  0  0  0  0  0  0  0  0  0
  -21.4918  -24.2026   18.7514 N   0  3  0  0  0  0  0  0  0  0  0  0
  -29.0495  -22.9392   24.0445 O   0  0  0  0  0  0  0  0  0  0  0  0
  -22.2728  -14.1157   21.1397 O   0  0  0  0  0  0  0  0  0  0  0  0
  -26.3550  -30.3980   21.8831 O   0  0  0  0  0  0  0  0  0  0  0  0
  -22.7202  -29.8793   19.9828 O   0  0  0  0  0  0  0  0  0  0  0  0
  -22.8643  -25.2413   20.9771 O   0  0  0  0  0  0  0  0  0  0  0  0
  -30.5224  -26.8686   22.8936 O   0  0  0  0  0  0  0  0  0  0  0  0
  -30.9591  -17.0010   19.6955 O   0  0  0  0  0  0  0  0  0  0  0  0
  -23.7418   -6.9494   23.7994 O   0  0  0  0  0  0  0  0  0  0  0  0
  -29.6542  -25.2371   21.4755 O   0  0  0  0  0  0  0  0  0  1  0  0
  -19.0517   -4.5392   22.1877 F   0  0  0  0  0  0  0  0  0  0  0  0
  -26.8351  -18.9856   21.7525 F   0  0  0  0  0  0  0  0  0  0  0  0
  -31.9146  -20.9830   22.1320 F   0  0  0  0  0  0  0  0  0  0  0  0
  -23.7575   -4.4196   22.6848 F   0  0  0  0  0  0  0  0  0  0  0  0
  1  2  1  0  0  0  0
  1  5  2  0  0  0  0
  2  6  2  0  0  0  0
  3  8  2  0  0  0  0
  3 17  1  0  0  0  0
  4  9  1  0  0  0  0
  4 17  2  0  0  0  0
  5 20  1  0  0  0  0
  6 22  1  0  0  0  0
  7 10  2  0  0  0  0
  7 21  1  0  0  0  0
  8 25  1  0  0  0  0
  9 25  2  0  0  0  0
 10 26  1  0  0  0  0
 11 12  2  0  0  0  0
 11 27  1  0  0  0  0
 12 28  1  0  0  0  0
 13 18  1  0  0  0  0
 13 29  2  0  0  0  0
 14 23  1  0  0  0  0
 14 26  2  0  0  0  0
 15 24  2  0  0  0  0
 15 30  1  0  0  0  0
 16 28  2  0  0  0  0
 16 31  1  0  0  0  0
 17 32  1  0  0  0  0
 18 30  2  0  0  0  0
 18 34  1  0  0  0  0
 19 32  1  0  0  0  0
 19 33  2  0  0  0  0
 19 35  1  0  0  0  0
 20 22  2  0  0  0  0
 20 41  1  0  0  0  0
 21 23  2  0  0  0  0
 21 42  1  0  0  0  0
 22 50  1  0  0  0  0
 23 43  1  0  0  0  0
 24 29  1  0  0  0  0
 24 72  1  0  0  0  0
 25 84  1  0  0  0  0
 26 85  1  0  0  0  0
 27 31  2  0  0  0  0
 27 84  1  0  0  0  0
 28 86  1  0  0  0  0
 29 87  1  0  0  0  0
 30 88  1  0  0  0  0
 31 89  1  0  0  0  0
 32 66  2  0  0  0  0
 33 67  1  0  0  0  0
 33 70  1  0  0  0  0
 34 73  1  0  0  0  0
 34 77  2  0  0  0  0
 35 71  1  0  0  0  0
 35 78  2  0  0  0  0
 36 51  1  0  0  0  0
 36 74  1  0  0  0  0
 36 79  2  0  0  0  0
 37 61  1  0  0  0  0
 37 68  1  0  0  0  0
 37 80  2  0  0  0  0
 38 62  1  0  0  0  0
 38 75  1  0  0  0  0
 38 81  2  0  0  0  0
 39 63  1  0  0  0  0
 39 82  2  0  0  0  0
 39 85  1  0  0  0  0
 40 69  1  0  0  0  0
 40 72  1  0  0  0  0
 40 83  2  0  0  0  0
 41 44  1  0  0  0  0
 42 51  1  0  0  0  0
 43 68  1  0  0  0  0
 44 46  1  0  0  0  0
 45 47  1  0  0  0  0
 45 48  1  0  0  0  0
 46 50  1  0  0  0  0
 47 52  1  0  0  0  0
 48 69  1  0  0  0  0
 49 52  1  0  0  0  0
 49 69  1  0  0  0  0
 50 74  1  0  0  0  0
 51 68  1  0  0  0  0
 52 67  1  0  0  0  0
 53 60  1  0  0  0  0
 54 62  1  0  0  0  0
 55 64  1  0  0  0  0
 56 65  1  0  0  0  0
 57 65  1  0  0  0  0
 58 65  1  0  0  0  0
 59 76  1  0  0  0  0
 60 64  1  0  0  0  0
 61 65  1  0  0  0  0
 61 75  1  0  0  0  0
 62 76  1  0  0  0  0
 63 64  1  0  0  0  0
 63 73  1  0  0  0  0
 66 67  1  0  0  0  0
M  CHG  1  76   1
M  ISO  4  39 101  40 100  72 100  85 101
M  END
> <Batch ID>
0071

> <Smiles>
CCC(C)C(NC(=O)c1cc(F)c([100NH:0][100C:0](=O)N2CCCC(n3nc(-c4ccc(Oc5ccc(F)cc5F)cc4)c(C(N)=O)c3N)C2)cc1F)[101C:1](=O)[101O:1]c1ccc2c(c1)CN(C(=O)C(NC(=O)C(C)NC)C(C)(C)C)C(C(=O)NC1CCCc3ccccc31)C2

> <Shape>
0.272

> <Color>
0.115

> <Negative vol penalty>
0.000

$$$$

  -OEChem-04042323353D

 86 95  0     1  0  0  0  0  0999 V2000
  -27.7064  -37.7794   19.1266 C   0  0  0  0  0  0  0  0  0  0  0  0
  -28.2066  -36.4886   18.9884 C   0  0  0  0  0  0  0  0  0  0  0  0
  -24.3556   -9.0337   21.3551 C   0  0  0  0  0  0  0  0  0  0  0  0
  -23.8990  -10.5904   23.1454 C   0  0  0  0  0  0  0  0  0  0  0  0
  -26.8065  -38.0710   20.1508 C   0  0  0  0  0  0  0  0  0  0  0  0
  -27.8079  -35.4889   19.8750 C   0  0  0  0  0  0  0  0  0  0  0  0
  -26.9776  -29.5562   18.6024 C   0  0  0  0  0  0  0  0  0  0  0  0
  -25.6161  -21.8235   19.7733 C   0  0  0  0  0  0  0  0  0  0  0  0
  -24.6010  -20.8924   19.5540 C   0  0  0  0  0  0  0  0  0  0  0  0
  -24.1619   -7.9672   22.2329 C   0  0  0  0  0  0  0  0  0  0  0  0
  -23.7053   -9.5239   24.0233 C   0  0  0  0  0  0  0  0  0  0  0  0
  -27.7873  -28.4358   18.7836 C   0  0  0  0  0  0  0  0  0  0  0  0
  -21.5516   -6.3154   23.6081 C   0  0  0  0  0  0  0  0  0  0  0  0
  -20.7759   -5.2441   23.1653 C   0  0  0  0  0  0  0  0  0  0  0  0
  -26.6558  -27.9616   20.8607 C   0  0  0  0  0  0  0  0  0  0  0  0
  -27.2595  -20.0553   19.6742 C   0  0  0  0  0  0  0  0  0  0  0  0
  -22.6543   -3.7564   23.4741 C   0  0  0  0  0  0  0  0  0  0  0  0
  -24.2242  -10.3453   21.8113 C   0  0  0  0  0  0  0  0  0  0  0  0
  -23.4524  -12.0799   20.1075 C   0  0  0  0  0  0  0  0  0  0  0  0
  -26.3891  -37.0722   21.0445 C   0  0  0  0  0  0  0  0  0  0  0  0
  -26.0067  -29.8945   19.5559 C   0  0  0  0  0  0  0  0  0  0  0  0
  -26.9025  -35.7678   20.9129 C   0  0  0  0  0  0  0  0  0  0  0  0
  -25.8334  -29.0854   20.6879 C   0  0  0  0  0  0  0  0  0  0  0  0
  -26.9454  -21.4050   19.8333 C   0  0  0  0  0  0  0  0  0  0  0  0
  -24.9151  -19.5427   19.3950 C   0  0  0  0  0  0  0  0  0  0  0  0
  -26.2443  -19.1241   19.4550 C   0  0  0  0  0  0  0  0  0  0  0  0
  -23.8367   -8.2123   23.5671 C   0  0  0  0  0  0  0  0  0  0  0  0
  -27.6284  -27.6399   19.9143 C   0  0  0  0  0  0  0  0  0  0  0  0
  -22.8787   -6.1073   23.9838 C   0  0  0  0  0  0  0  0  0  0  0  0
  -21.3272   -3.9646   23.0984 C   0  0  0  0  0  0  0  0  0  0  0  0
  -23.4301   -4.8278   23.9168 C   0  0  0  0  0  0  0  0  0  0  0  0
  -24.4248  -11.4474   20.9051 C   0  0  0  0  0  0  0  0  0  0  0  0
  -24.1434  -13.0578   19.4346 C   0  0  0  0  0  0  0  0  0  0  0  0
  -30.1192  -23.1906   20.9368 C   0  0  0  0  0  0  0  0  0  0  0  0
  -29.1825  -22.0454   20.7128 C   0  0  0  0  0  0  0  0  0  0  0  0
  -22.0500  -11.8079   19.9858 C   0  0  0  0  0  0  0  0  0  0  0  0
  -25.5055  -32.3909   21.4587 C   0  0  0  0  0  0  0  0  0  0  0  0
  -22.7522  -30.8196   22.1463 C   0  0  0  0  0  0  0  0  0  0  0  0
  -21.0587  -27.8593   22.2680 C   0  0  0  0  0  0  0  0  0  0  0  0
  -27.8642  -17.1988   19.3308 C   0  0  0  0  0  0  0  0  0  0  0  0
  -25.4511  -37.4462   22.1647 C   0  0  0  0  0  0  0  0  0  0  0  0
  -25.1233  -31.0912   19.3325 C   0  0  0  0  0  0  0  0  0  0  0  0
  -24.7918  -29.3938   21.7312 C   0  0  0  0  0  0  0  0  0  0  0  0
  -24.7904  -36.2433   22.8332 C   0  0  0  0  0  0  0  0  0  0  0  0
  -29.1203  -13.8818   19.0191 C   0  0  0  0  0  0  0  0  0  0  0  0
  -25.8252  -35.1629   23.1308 C   0  0  0  0  0  0  0  0  0  0  0  0
  -27.9307  -13.0048   19.4164 C   0  0  0  0  0  0  0  0  0  0  0  0
  -29.1859  -15.1602   19.8528 C   0  0  0  0  0  0  0  0  0  0  0  0
  -26.7596  -15.0748   20.2712 C   0  0  0  0  0  0  0  0  0  0  0  0
  -27.7732  -23.7644   19.6868 C   0  0  0  0  0  0  0  0  0  0  0  0
  -26.4749  -34.6505   21.8397 C   0  0  1  0  0  0  0  0  0  0  0  0
  -24.5140  -31.6331   20.6219 C   0  0  1  0  0  0  0  0  0  0  0  0
  -26.6142  -13.8064   19.4147 C   0  0  2  0  0  0  0  0  0  0  0  0
  -29.0821  -24.4025   19.2315 C   0  0  1  0  0  0  0  0  0  0  0  0
  -18.8364  -26.8860   22.9095 C   0  0  0  0  0  0  0  0  0  0  0  0
  -23.5086  -31.0417   25.0940 C   0  0  0  0  0  0  0  0  0  0  0  0
  -21.8054  -29.2756   25.5922 C   0  0  0  0  0  0  0  0  0  0  0  0
  -21.0907  -31.4515   24.6037 C   0  0  0  0  0  0  0  0  0  0  0  0
  -20.5502  -26.9060   19.5127 C   0  0  0  0  0  0  0  0  0  0  0  0
  -28.8850  -25.8824   18.9202 C   0  0  0  0  0  0  0  0  0  1  0  0
  -22.3368  -29.7866   23.1658 C   0  0  1  0  0  0  0  0  0  0  0  0
  -19.6739  -27.4703   21.7826 C   0  0  2  0  0  0  0  0  0  0  0  0
  -22.2064  -30.3839   24.5954 C   0  0  0  0  0  0  0  0  0  0  0  0
  -25.6409  -11.9787   20.7539 N   0  0  0  0  0  0  0  0  0  0  0  0
  -30.0939  -24.2931   20.2798 N   0  0  0  0  0  0  0  0  0  0  0  0
  -25.4373  -12.9553   19.8535 N   0  0  0  0  0  0  0  0  0  0  0  0
  -27.9932  -22.3667   20.0564 N   0  0  0  0  0  0  0  0  0  0  0  0
  -23.9568  -30.5780   21.4708 N   0  0  0  0  0  0  0  0  0  0  0  0
  -27.9053  -15.8690   19.8007 N   0  0  0  0  0  0  0  0  0  0  0  0
  -23.8706  -18.6165   19.1761 N   0  0  0  0  0  0  0  0  0  0  0  0
  -23.7643  -13.9866   18.5313 N   0  0  0  0  0  0  0  0  0  0  0  0
  -21.5024  -10.7679   20.7493 N   0  0  0  0  0  0  0  0  0  0  0  0
  -26.5875  -17.7586   19.2957 N   0  0  0  0  0  0  0  0  0  0  0  0
  -25.5860  -33.7365   21.1549 N   0  0  0  0  0  0  0  0  0  0  0  0
  -21.1109  -29.1811   22.6571 N   0  0  0  0  0  0  0  0  0  0  0  0
  -19.7722  -26.4557   20.6954 N   0  3  0  0  0  0  0  0  0  0  0  0
  -29.5559  -20.9788   21.1823 O   0  0  0  0  0  0  0  0  0  0  0  0
  -21.3076  -12.4567   19.2103 O   0  0  0  0  0  0  0  0  0  0  0  0
  -26.1488  -31.7989   22.3174 O   0  0  0  0  0  0  0  0  0  0  0  0
  -22.0308  -31.8010   21.9513 O   0  0  0  0  0  0  0  0  0  0  0  0
  -21.9990  -27.0686   22.3024 O   0  0  0  0  0  0  0  0  0  0  0  0
  -28.8827  -17.7876   18.9594 O   0  0  0  0  0  0  0  0  0  0  0  0
  -23.6473   -7.1718   24.4239 O   0  0  0  0  0  0  0  0  0  0  0  0
  -28.4178  -26.5461   20.0940 O   0  0  0  0  0  0  0  0  0  1  0  0
  -20.5817   -2.9356   22.6746 F   0  0  0  0  0  0  0  0  0  0  0  0
  -24.7041   -4.6214   24.2776 F   0  0  0  0  0  0  0  0  0  0  0  0
  1  2  1  0  0  0  0
  1  5  2  0  0  0  0
  2  6  2  0  0  0  0
  3 10  2  0  0  0  0
  3 18  1  0  0  0  0
  4 11  1  0  0  0  0
  4 18  2  0  0  0  0
  5 20  1  0  0  0  0
  6 22  1  0  0  0  0
  7 12  2  0  0  0  0
  7 21  1  0  0  0  0
  8  9  2  0  0  0  0
  8 24  1  0  0  0  0
  9 25  1  0  0  0  0
 10 27  1  0  0  0  0
 11 27  2  0  0  0  0
 12 28  1  0  0  0  0
 13 14  2  0  0  0  0
 13 29  1  0  0  0  0
 14 30  1  0  0  0  0
 15 23  1  0  0  0  0
 15 28  2  0  0  0  0
 16 24  2  0  0  0  0
 16 26  1  0  0  0  0
 17 30  2  0  0  0  0
 17 31  1  0  0  0  0
 18 32  1  0  0  0  0
 19 32  1  0  0  0  0
 19 33  2  0  0  0  0
 19 36  1  0  0  0  0
 20 22  2  0  0  0  0
 20 41  1  0  0  0  0
 21 23  2  0  0  0  0
 21 42  1  0  0  0  0
 22 51  1  0  0  0  0
 23 43  1  0  0  0  0
 24 67  1  0  0  0  0
 25 26  2  0  0  0  0
 25 70  1  0  0  0  0
 26 73  1  0  0  0  0
 27 83  1  0  0  0  0
 28 84  1  0  0  0  0
 29 31  2  0  0  0  0
 29 83  1  0  0  0  0
 30 85  1  0  0  0  0
 31 86  1  0  0  0  0
 32 64  2  0  0  0  0
 33 66  1  0  0  0  0
 33 71  1  0  0  0  0
 34 35  1  0  0  0  0
 34 65  2  0  0  0  0
 35 67  1  0  0  0  0
 35 77  2  0  0  0  0
 36 72  1  0  0  0  0
 36 78  2  0  0  0  0
 37 52  1  0  0  0  0
 37 74  1  0  0  0  0
 37 79  2  0  0  0  0
 38 61  1  0  0  0  0
 38 68  1  0  0  0  0
 38 80  2  0  0  0  0
 39 62  1  0  0  0  0
 39 75  1  0  0  0  0
 39 81  2  0  0  0  0
 40 69  1  0  0  0  0
 40 73  1  0  0  0  0
 40 82  2  0  0  0  0
 41 44  1  0  0  0  0
 42 52  1  0  0  0  0
 43 68  1  0  0  0  0
 44 46  1  0  0  0  0
 45 47  1  0  0  0  0
 45 48  1  0  0  0  0
 46 51  1  0  0  0  0
 47 53  1  0  0  0  0
 48 69  1  0  0  0  0
 49 53  1  0  0  0  0
 49 69  1  0  0  0  0
 50 54  1  0  0  0  0
 50 67  1  0  0  0  0
 51 74  1  0  0  0  0
 52 68  1  0  0  0  0
 53 66  1  0  0  0  0
 54 60  1  0  0  0  0
 54 65  1  0  0  0  0
 55 62  1  0  0  0  0
 56 63  1  0  0  0  0
 57 63  1  0  0  0  0
 58 63  1  0  0  0  0
 59 76  1  0  0  0  0
 60 84  1  0  0  0  0
 61 63  1  0  0  0  0
 61 75  1  0  0  0  0
 62 76  1  0  0  0  0
 64 66  1  0  0  0  0
M  CHG  1  76   1
M  ISO  4  40 100  60 101  73 100  84 101
M  END
> <Batch ID>
0071

> <Smiles>
CNC(C)C(=O)NC(C(=O)N1Cc2cc([101O:1][101CH2:1]C3CN(c4ccc(N)c([100NH:0][100C:0](=O)N5CCCC(n6nc(-c7ccc(Oc8ccc(F)cc8F)cc7)c(C(N)=O)c6N)C5)c4)C(=O)C=N3)ccc2CC1C(=O)NC1CCCc2ccccc21)C(C)(C)C

> <Shape>
0.305

> <Color>
0.100

> <Negative vol penalty>
0.000

$$$$

  -OEChem-04042323353D

 89 98  0     1  0  0  0  0  0999 V2000
  -18.6554  -28.3207   21.6805 C   0  0  0  0  0  0  0  0  0  0  0  0
  -19.8944  -27.7048   21.8258 C   0  0  0  0  0  0  0  0  0  0  0  0
  -23.1678   -9.9580   21.8520 C   0  0  0  0  0  0  0  0  0  0  0  0
  -23.8089  -11.2155   23.8129 C   0  0  0  0  0  0  0  0  0  0  0  0
  -17.8047  -28.4405   22.7786 C   0  0  0  0  0  0  0  0  0  0  0  0
  -20.2839  -27.2095   23.0697 C   0  0  0  0  0  0  0  0  0  0  0  0
  -22.3492  -22.5959   22.7636 C   0  0  0  0  0  0  0  0  0  0  0  0
  -22.4243   -9.0901   22.6517 C   0  0  0  0  0  0  0  0  0  0  0  0
  -23.0653  -10.3476   24.6126 C   0  0  0  0  0  0  0  0  0  0  0  0
  -23.6708  -22.5176   22.3267 C   0  0  0  0  0  0  0  0  0  0  0  0
  -19.4140   -9.0844   24.1916 C   0  0  0  0  0  0  0  0  0  0  0  0
  -18.1343   -8.7389   23.7574 C   0  0  0  0  0  0  0  0  0  0  0  0
  -24.4068  -22.2910   24.6128 C   0  0  0  0  0  0  0  0  0  0  0  0
  -31.7839  -17.4605   19.5505 C   0  0  0  0  0  0  0  0  0  0  0  0
  -29.6569  -18.3590   20.2618 C   0  0  0  0  0  0  0  0  0  0  0  0
  -18.7816   -6.4119   23.7016 C   0  0  0  0  0  0  0  0  0  0  0  0
  -23.8602  -11.0207   22.4326 C   0  0  0  0  0  0  0  0  0  0  0  0
  -24.1811  -13.1025   20.9937 C   0  0  0  0  0  0  0  0  0  0  0  0
  -18.1799  -27.9378   24.0344 C   0  0  0  0  0  0  0  0  0  0  0  0
  -22.0468  -22.5331   24.1315 C   0  0  0  0  0  0  0  0  0  0  0  0
  -19.4380  -27.3240   24.1860 C   0  0  0  0  0  0  0  0  0  0  0  0
  -23.0803  -22.3661   25.0643 C   0  0  0  0  0  0  0  0  0  0  0  0
  -32.2441  -18.7522   19.2950 C   0  0  0  0  0  0  0  0  0  0  0  0
  -30.1172  -19.6507   20.0064 C   0  0  0  0  0  0  0  0  0  0  0  0
  -30.4903  -17.2639   20.0338 C   0  0  0  0  0  0  0  0  0  0  0  0
  -22.3730   -9.2849   24.0320 C   0  0  0  0  0  0  0  0  0  0  0  0
  -24.7001  -22.3681   23.2515 C   0  0  0  0  0  0  0  0  0  0  0  0
  -20.3776   -8.0937   24.3807 C   0  0  0  0  0  0  0  0  0  0  0  0
  -17.8181   -7.4027   23.5125 C   0  0  0  0  0  0  0  0  0  0  0  0
  -20.0613   -6.7574   24.1358 C   0  0  0  0  0  0  0  0  0  0  0  0
  -31.4108  -19.8473   19.5230 C   0  0  0  0  0  0  0  0  0  0  0  0
  -24.6289  -11.9172   21.6072 C   0  0  0  0  0  0  0  0  0  0  0  0
  -25.2824  -13.5816   20.3274 C   0  0  0  0  0  0  0  0  0  0  0  0
  -28.2408  -20.8611   21.2077 C   0  0  0  0  0  0  0  0  0  0  0  0
  -22.8854  -13.7157   21.0235 C   0  0  0  0  0  0  0  0  0  0  0  0
  -20.6924  -24.5074   26.2222 C   0  0  0  0  0  0  0  0  0  0  0  0
  -20.9358  -21.9508   28.2038 C   0  0  0  0  0  0  0  0  0  0  0  0
  -22.5047  -19.0187   28.9709 C   0  0  0  0  0  0  0  0  0  0  0  0
  -30.7211  -14.7568   20.1218 C   0  0  0  0  0  0  0  0  0  0  0  0
  -17.2465  -28.1329   25.2029 C   0  0  0  0  0  0  0  0  0  0  0  0
  -20.6138  -22.5921   24.5847 C   0  0  0  0  0  0  0  0  0  0  0  0
  -22.8070  -22.2730   26.5425 C   0  0  0  0  0  0  0  0  0  0  0  0
  -17.5777  -27.2476   26.4015 C   0  0  0  0  0  0  0  0  0  0  0  0
  -29.7552  -11.4130   19.3716 C   0  0  0  0  0  0  0  0  0  0  0  0
  -19.0734  -27.2885   26.6983 C   0  0  0  0  0  0  0  0  0  0  0  0
  -28.2986  -11.3436   19.8359 C   0  0  0  0  0  0  0  0  0  0  0  0
  -28.0971  -22.7430   19.7579 C   0  0  0  0  0  0  0  0  0  0  0  0
  -30.6050  -12.2809   20.2981 C   0  0  0  0  0  0  0  0  0  0  0  0
  -29.3999  -22.0119   19.5030 C   0  0  0  0  0  0  0  0  0  0  0  0
  -28.6222  -13.5608   21.0047 C   0  0  0  0  0  0  0  0  0  0  0  0
  -19.8858  -26.7519   25.5135 C   0  0  1  0  0  0  0  0  0  0  0  0
  -27.7101  -22.2847   21.1565 C   0  0  1  0  0  0  0  0  0  0  0  0
  -20.4643  -23.0338   26.0372 C   0  0  1  0  0  0  0  0  0  0  0  0
  -27.7129  -12.7505   20.0664 C   0  0  2  0  0  0  0  0  0  0  0  0
  -22.5091  -17.1730   30.6711 C   0  0  0  0  0  0  0  0  0  0  0  0
  -33.8354  -18.2372   17.4113 C   0  0  0  0  0  0  0  0  0  0  0  0
  -34.6921  -18.3971   19.7728 C   0  0  0  0  0  0  0  0  0  0  0  0
  -34.0368  -20.4484   18.5302 C   0  0  0  0  0  0  0  0  0  0  0  0
  -22.3761  -23.7769   30.1789 C   0  0  0  0  0  0  0  0  0  0  0  0
  -23.1745  -21.7310   31.3810 C   0  0  0  0  0  0  0  0  0  0  0  0
  -20.7311  -22.2063   31.2190 C   0  0  0  0  0  0  0  0  0  0  0  0
  -21.8291  -16.9822   26.9325 C   0  0  0  0  0  0  0  0  0  0  0  0
  -26.2189  -22.3725   21.4214 C   0  0  0  0  0  0  0  0  0  1  0  0
  -21.9831  -21.4365   29.1618 C   0  0  1  0  0  0  0  0  0  0  0  0
  -21.9592  -17.6499   29.3358 C   0  0  2  0  0  0  0  0  0  0  0  0
  -33.6285  -18.9586   18.7791 C   0  0  0  0  0  0  0  0  0  0  0  0
  -22.0718  -22.2913   30.4575 C   0  0  0  0  0  0  0  0  0  0  0  0
  -25.9144  -11.6590   21.3530 N   0  0  0  0  0  0  0  0  0  0  0  0
  -26.2839  -12.6887   20.5724 N   0  0  0  0  0  0  0  0  0  0  0  0
  -29.2626  -20.7696   20.2401 N   0  0  0  0  0  0  0  0  0  0  0  0
  -21.3901  -22.3422   26.9365 N   0  0  0  0  0  0  0  0  0  0  0  0
  -29.9909  -13.5998   20.4663 N   0  0  0  0  0  0  0  0  0  0  0  0
  -25.4823  -14.6752   19.5616 N   0  0  0  0  0  0  0  0  0  0  0  0
  -21.8671  -13.0908   21.7563 N   0  0  0  0  0  0  0  0  0  0  0  0
  -30.0229  -15.9517   20.2935 N   0  0  0  0  0  0  0  0  0  0  0  0
  -19.8404  -25.3058   25.4832 N   0  0  0  0  0  0  0  0  0  0  0  0
  -21.6691  -20.0308   29.3937 N   0  0  0  0  0  0  0  0  0  0  0  0
  -22.3264  -16.6510   28.2926 N   0  3  0  0  0  0  0  0  0  0  0  0
  -27.8468  -20.0283   22.0112 O   0  0  0  0  0  0  0  0  0  0  0  0
  -22.6335  -14.7775   20.4048 O   0  0  0  0  0  0  0  0  0  0  0  0
  -21.5750  -24.8916   26.9806 O   0  0  0  0  0  0  0  0  0  0  0  0
  -19.7569  -21.9965   28.5642 O   0  0  0  0  0  0  0  0  0  0  0  0
  -23.5676  -19.1747   28.3740 O   0  0  0  0  0  0  0  0  0  0  0  0
  -31.8709  -14.6908   19.6794 O   0  0  0  0  0  0  0  0  0  0  0  0
  -21.6474   -8.4383   24.8126 O   0  0  0  0  0  0  0  0  0  0  0  0
  -25.9911  -22.2921   22.8278 O   0  0  0  0  0  0  0  0  0  1  0  0
  -16.5886   -7.0708   23.0970 F   0  0  0  0  0  0  0  0  0  0  0  0
  -20.9824   -5.8011   24.3168 F   0  0  0  0  0  0  0  0  0  0  0  0
  -31.8555  -21.0887   19.2761 F   0  0  0  0  0  0  0  0  0  0  0  0
  1  2  1  0  0  0  0
  1  5  2  0  0  0  0
  2  6  2  0  0  0  0
  3  8  2  0  0  0  0
  3 17  1  0  0  0  0
  4  9  1  0  0  0  0
  4 17  2  0  0  0  0
  5 19  1  0  0  0  0
  6 21  1  0  0  0  0
  7 10  2  0  0  0  0
  7 20  1  0  0  0  0
  8 26  1  0  0  0  0
  9 26  2  0  0  0  0
 10 27  1  0  0  0  0
 11 12  2  0  0  0  0
 11 28  1  0  0  0  0
 12 29  1  0  0  0  0
 13 22  1  0  0  0  0
 13 27  2  0  0  0  0
 14 23  2  0  0  0  0
 14 25  1  0  0  0  0
 15 24  1  0  0  0  0
 15 25  2  0  0  0  0
 16 29  2  0  0  0  0
 16 30  1  0  0  0  0
 17 32  1  0  0  0  0
 18 32  1  0  0  0  0
 18 33  2  0  0  0  0
 18 35  1  0  0  0  0
 19 21  2  0  0  0  0
 19 40  1  0  0  0  0
 20 22  2  0  0  0  0
 20 41  1  0  0  0  0
 21 51  1  0  0  0  0
 22 42  1  0  0  0  0
 23 31  1  0  0  0  0
 23 66  1  0  0  0  0
 24 31  2  0  0  0  0
 24 70  1  0  0  0  0
 25 75  1  0  0  0  0
 26 85  1  0  0  0  0
 27 86  1  0  0  0  0
 28 30  2  0  0  0  0
 28 85  1  0  0  0  0
 29 87  1  0  0  0  0
 30 88  1  0  0  0  0
 31 89  1  0  0  0  0
 32 68  2  0  0  0  0
 33 69  1  0  0  0  0
 33 73  1  0  0  0  0
 34 52  1  0  0  0  0
 34 70  1  0  0  0  0
 34 79  2  0  0  0  0
 35 74  1  0  0  0  0
 35 80  2  0  0  0  0
 36 53  1  0  0  0  0
 36 76  1  0  0  0  0
 36 81  2  0  0  0  0
 37 64  1  0  0  0  0
 37 71  1  0  0  0  0
 37 82  2  0  0  0  0
 38 65  1  0  0  0  0
 38 77  1  0  0  0  0
 38 83  2  0  0  0  0
 39 72  1  0  0  0  0
 39 75  1  0  0  0  0
 39 84  2  0  0  0  0
 40 43  1  0  0  0  0
 41 53  1  0  0  0  0
 42 71  1  0  0  0  0
 43 45  1  0  0  0  0
 44 46  1  0  0  0  0
 44 48  1  0  0  0  0
 45 51  1  0  0  0  0
 46 54  1  0  0  0  0
 47 49  1  0  0  0  0
 47 52  1  0  0  0  0
 48 72  1  0  0  0  0
 49 70  1  0  0  0  0
 50 54  1  0  0  0  0
 50 72  1  0  0  0  0
 51 76  1  0  0  0  0
 52 63  1  0  0  0  0
 53 71  1  0  0  0  0
 54 69  1  0  0  0  0
 55 65  1  0  0  0  0
 56 66  1  0  0  0  0
 57 66  1  0  0  0  0
 58 66  1  0  0  0  0
 59 67  1  0  0  0  0
 60 67  1  0  0  0  0
 61 67  1  0  0  0  0
 62 78  1  0  0  0  0
 63 86  1  0  0  0  0
 64 67  1  0  0  0  0
 64 77  1  0  0  0  0
 65 78  1  0  0  0  0
 68 69  1  0  0  0  0
M  CHG  1  78   1
M  ISO  4  39 100  63 101  75 100  86 101
M  END
> <Batch ID>
0071

> <Smiles>
CNC(C)C(=O)NC(C(=O)N1Cc2cc([101O:1][101CH2:1]C3CCN(c4cc([100NH:0][100C:0](=O)N5CCCC(n6nc(-c7ccc(Oc8ccc(F)cc8F)cc7)c(C(N)=O)c6N)C5)cc(C(C)(C)C)c4F)C3=O)ccc2CC1C(=O)NC1CCCc2ccccc21)C(C)(C)C

> <Shape>
0.184

> <Color>
0.122

> <Negative vol penalty>
0.000

$$$$

  -OEChem-04042323353D

 83 91  0     1  0  0  0  0  0999 V2000
  -21.3412  -30.5680   14.4984 C   0  0  0  0  0  0  0  0  0  0  0  0
  -22.5384  -30.0804   15.0125 C   0  0  0  0  0  0  0  0  0  0  0  0
  -23.9636   -9.6631   21.9471 C   0  0  0  0  0  0  0  0  0  0  0  0
  -24.6499  -11.0908   23.7714 C   0  0  0  0  0  0  0  0  0  0  0  0
  -31.0768  -19.9703   19.6383 C   0  0  0  0  0  0  0  0  0  0  0  0
  -28.7348  -20.4620   19.9702 C   0  0  0  0  0  0  0  0  0  0  0  0
  -20.7960  -31.7476   15.0035 C   0  0  0  0  0  0  0  0  0  0  0  0
  -23.1918  -30.7729   16.0314 C   0  0  0  0  0  0  0  0  0  0  0  0
  -24.8367  -27.7126   19.7156 C   0  0  0  0  0  0  0  0  0  0  0  0
  -30.7643  -18.6285   19.4205 C   0  0  0  0  0  0  0  0  0  0  0  0
  -28.4222  -19.1202   19.7523 C   0  0  0  0  0  0  0  0  0  0  0  0
  -23.5513   -8.6935   22.8611 C   0  0  0  0  0  0  0  0  0  0  0  0
  -24.2376  -10.1211   24.6854 C   0  0  0  0  0  0  0  0  0  0  0  0
  -26.0028  -26.9893   19.4693 C   0  0  0  0  0  0  0  0  0  0  0  0
  -20.8972   -8.1443   24.8827 C   0  0  0  0  0  0  0  0  0  0  0  0
  -19.6600   -7.5366   24.6692 C   0  0  0  0  0  0  0  0  0  0  0  0
  -27.2642  -28.5985   20.7493 C   0  0  0  0  0  0  0  0  0  0  0  0
  -20.7450   -5.3839   24.5091 C   0  0  0  0  0  0  0  0  0  0  0  0
  -24.5129  -10.8618   22.4023 C   0  0  0  0  0  0  0  0  0  0  0  0
  -30.0621  -20.8870   19.9132 C   0  0  0  0  0  0  0  0  0  0  0  0
  -24.1678  -12.9142   20.9271 C   0  0  0  0  0  0  0  0  0  0  0  0
  -21.4380  -32.4498   16.0356 C   0  0  0  0  0  0  0  0  0  0  0  0
  -24.8773  -28.8922   20.4728 C   0  0  0  0  0  0  0  0  0  0  0  0
  -22.6553  -31.9638   16.5498 C   0  0  0  0  0  0  0  0  0  0  0  0
  -26.0967  -29.3336   21.0060 C   0  0  0  0  0  0  0  0  0  0  0  0
  -29.4370  -18.2034   19.4775 C   0  0  0  0  0  0  0  0  0  0  0  0
  -23.6883   -8.9224   24.2302 C   0  0  0  0  0  0  0  0  0  0  0  0
  -27.2173  -27.4337   19.9838 C   0  0  0  0  0  0  0  0  0  0  0  0
  -22.0584   -7.3718   24.9094 C   0  0  0  0  0  0  0  0  0  0  0  0
  -19.5839   -6.1564   24.4824 C   0  0  0  0  0  0  0  0  0  0  0  0
  -21.9823   -5.9916   24.7226 C   0  0  0  0  0  0  0  0  0  0  0  0
  -24.9395  -11.8637   21.4587 C   0  0  0  0  0  0  0  0  0  0  0  0
  -25.0259  -13.5787   20.0854 C   0  0  0  0  0  0  0  0  0  0  0  0
  -30.3949  -22.3157   20.1453 C   0  0  0  0  0  0  0  0  0  0  0  0
  -22.7978  -13.2587   21.1724 C   0  0  0  0  0  0  0  0  0  0  0  0
  -24.2009  -31.9459   19.9060 C   0  0  0  0  0  0  0  0  0  0  0  0
  -24.7706  -32.2578   23.0841 C   0  0  0  0  0  0  0  0  0  0  0  0
  -29.4908  -24.6091   20.0106 C   0  0  0  0  0  0  0  0  0  0  0  0
  -26.3007  -31.0504   25.8854 C   0  0  0  0  0  0  0  0  0  0  0  0
  -30.0076  -15.8024   18.9715 C   0  0  0  0  0  0  0  0  0  0  0  0
  -20.8346  -33.7456   16.5167 C   0  0  0  0  0  0  0  0  0  0  0  0
  -23.6063  -29.6466   20.7519 C   0  0  0  0  0  0  0  0  0  0  0  0
  -26.1908  -30.5828   21.8421 C   0  0  0  0  0  0  0  0  0  0  0  0
  -21.3970  -34.2198   17.8543 C   0  0  0  0  0  0  0  0  0  0  0  0
  -29.6262  -12.3092   18.3980 C   0  0  0  0  0  0  0  0  0  0  0  0
  -22.9194  -34.1239   17.8575 C   0  0  0  0  0  0  0  0  0  0  0  0
  -28.3094  -11.9683   19.0994 C   0  0  0  0  0  0  0  0  0  0  0  0
  -30.4235  -13.3604   19.1681 C   0  0  0  0  0  0  0  0  0  0  0  0
  -28.3661  -14.2452   20.1946 C   0  0  0  0  0  0  0  0  0  0  0  0
  -23.3811  -32.6734   17.6722 C   0  0  1  0  0  0  0  0  0  0  0  0
  -23.8460  -31.1115   21.1041 C   0  0  1  0  0  0  0  0  0  0  0  0
  -27.4980  -13.2381   19.4227 C   0  0  2  0  0  0  0  0  0  0  0  0
  -26.6127  -31.5414   28.3265 C   0  0  0  0  0  0  0  0  0  0  0  0
  -26.7601  -34.4626   22.3838 C   0  0  0  0  0  0  0  0  0  0  0  0
  -27.7055  -34.2467   24.6920 C   0  0  0  0  0  0  0  0  0  0  0  0
  -25.3306  -34.9426   24.3789 C   0  0  0  0  0  0  0  0  0  0  0  0
  -25.0226  -28.5021   26.6802 C   0  0  0  0  0  0  0  0  0  0  0  0
  -28.2260  -25.3190   19.5757 C   0  0  0  0  0  0  0  0  0  1  0  0
  -25.9887  -32.5434   23.9289 C   0  0  1  0  0  0  0  0  0  0  0  0
  -25.7806  -30.8026   27.2899 C   0  0  2  0  0  0  0  0  0  0  0  0
  -26.4451  -34.0263   23.8286 C   0  0  0  0  0  0  0  0  0  0  0  0
  -26.1916  -11.8570   20.9935 N   0  0  0  0  0  0  0  0  0  0  0  0
  -26.2131  -12.9116   20.1607 N   0  0  0  0  0  0  0  0  0  0  0  0
  -24.9215  -31.2891   22.0818 N   0  0  0  0  0  0  0  0  0  0  0  0
  -29.5921  -14.5362   19.4349 N   0  0  0  0  0  0  0  0  0  0  0  0
  -24.8732  -14.6628   19.2954 N   0  0  0  0  0  0  0  0  0  0  0  0
  -22.0603  -12.4701   22.0660 N   0  0  0  0  0  0  0  0  0  0  0  0
  -29.1206  -16.8401   19.2559 N   0  0  0  0  0  0  0  0  0  0  0  0
  -29.3878  -23.2282   19.8356 N   0  0  0  0  0  0  0  0  0  0  0  0
  -23.2427  -31.9368   18.9103 N   0  0  0  0  0  0  0  0  0  0  0  0
  -25.6575  -32.1104   25.2821 N   0  0  0  0  0  0  0  0  0  0  0  0
  -25.8188  -29.3470   27.6072 N   0  3  0  0  0  0  0  0  0  0  0  0
  -31.4945  -22.6058   20.6087 O   0  0  0  0  0  0  0  0  0  0  0  0
  -22.2394  -14.2270   20.6031 O   0  0  0  0  0  0  0  0  0  0  0  0
  -25.2645  -32.5541   19.8869 O   0  0  0  0  0  0  0  0  0  0  0  0
  -23.7217  -32.8666   23.3099 O   0  0  0  0  0  0  0  0  0  0  0  0
  -30.4679  -25.2051   20.4553 O   0  0  0  0  0  0  0  0  0  0  0  0
  -27.1913  -30.3738   25.3759 O   0  0  0  0  0  0  0  0  0  0  0  0
  -31.0589  -15.9506   18.3431 O   0  0  0  0  0  0  0  0  0  0  0  0
  -23.2858   -7.9765   25.1223 O   0  0  0  0  0  0  0  0  0  0  0  0
  -28.3571  -26.7300   19.7443 O   0  0  0  0  0  0  0  0  0  1  0  0
  -18.3956   -5.5728   24.2788 F   0  0  0  0  0  0  0  0  0  0  0  0
  -23.0942   -5.2441   24.7483 F   0  0  0  0  0  0  0  0  0  0  0  0
  1  2  1  0  0  0  0
  1  7  2  0  0  0  0
  2  8  2  0  0  0  0
  3 12  2  0  0  0  0
  3 19  1  0  0  0  0
  4 13  1  0  0  0  0
  4 19  2  0  0  0  0
  5 10  2  0  0  0  0
  5 20  1  0  0  0  0
  6 11  1  0  0  0  0
  6 20  2  0  0  0  0
  7 22  1  0  0  0  0
  8 24  1  0  0  0  0
  9 14  2  0  0  0  0
  9 23  1  0  0  0  0
 10 26  1  0  0  0  0
 11 26  2  0  0  0  0
 12 27  1  0  0  0  0
 13 27  2  0  0  0  0
 14 28  1  0  0  0  0
 15 16  2  0  0  0  0
 15 29  1  0  0  0  0
 16 30  1  0  0  0  0
 17 25  1  0  0  0  0
 17 28  2  0  0  0  0
 18 30  2  0  0  0  0
 18 31  1  0  0  0  0
 19 32  1  0  0  0  0
 20 34  1  0  0  0  0
 21 32  1  0  0  0  0
 21 33  2  0  0  0  0
 21 35  1  0  0  0  0
 22 24  2  0  0  0  0
 22 41  1  0  0  0  0
 23 25  2  0  0  0  0
 23 42  1  0  0  0  0
 24 50  1  0  0  0  0
 25 43  1  0  0  0  0
 26 68  1  0  0  0  0
 27 80  1  0  0  0  0
 28 81  1  0  0  0  0
 29 31  2  0  0  0  0
 29 80  1  0  0  0  0
 30 82  1  0  0  0  0
 31 83  1  0  0  0  0
 32 62  2  0  0  0  0
 33 63  1  0  0  0  0
 33 66  1  0  0  0  0
 34 69  1  0  0  0  0
 34 73  2  0  0  0  0
 35 67  1  0  0  0  0
 35 74  2  0  0  0  0
 36 51  1  0  0  0  0
 36 70  1  0  0  0  0
 36 75  2  0  0  0  0
 37 59  1  0  0  0  0
 37 64  1  0  0  0  0
 37 76  2  0  0  0  0
 38 58  1  0  0  0  0
 38 69  1  0  0  0  0
 38 77  2  0  0  0  0
 39 60  1  0  0  0  0
 39 71  1  0  0  0  0
 39 78  2  0  0  0  0
 40 65  1  0  0  0  0
 40 68  1  0  0  0  0
 40 79  2  0  0  0  0
 41 44  1  0  0  0  0
 42 51  1  0  0  0  0
 43 64  1  0  0  0  0
 44 46  1  0  0  0  0
 45 47  1  0  0  0  0
 45 48  1  0  0  0  0
 46 50  1  0  0  0  0
 47 52  1  0  0  0  0
 48 65  1  0  0  0  0
 49 52  1  0  0  0  0
 49 65  1  0  0  0  0
 50 70  1  0  0  0  0
 51 64  1  0  0  0  0
 52 63  1  0  0  0  0
 53 60  1  0  0  0  0
 54 61  1  0  0  0  0
 55 61  1  0  0  0  0
 56 61  1  0  0  0  0
 57 72  1  0  0  0  0
 58 81  1  0  0  0  0
 59 61  1  0  0  0  0
 59 71  1  0  0  0  0
 60 72  1  0  0  0  0
 62 63  1  0  0  0  0
M  CHG  1  72   1
M  ISO  4  40 100  58 101  68 100  81 101
M  END
> <Batch ID>
0071

> <Smiles>
CNC(C)C(=O)NC(C(=O)N1Cc2cc([101O:1][101CH2:1]C(=O)NC(=O)c3ccc([100NH:0][100C:0](=O)N4CCCC(n5nc(-c6ccc(Oc7ccc(F)cc7F)cc6)c(C(N)=O)c5N)C4)cc3)ccc2CC1C(=O)NC1CCCc2ccccc21)C(C)(C)C

> <Shape>
0.330

> <Color>
0.168

> <Negative vol penalty>
0.000

$$$$

  -OEChem-04042323353D

 88 97  0     1  0  0  0  0  0999 V2000
  -32.3480  -14.2235   20.3626 C   0  0  0  0  0  0  0  0  0  0  0  0
  -31.5502  -15.3281   20.6434 C   0  0  0  0  0  0  0  0  0  0  0  0
  -28.6486  -23.6716   22.4953 C   0  0  0  0  0  0  0  0  0  0  0  0
  -30.2848  -25.4091   22.1201 C   0  0  0  0  0  0  0  0  0  0  0  0
  -31.7657  -13.0439   19.9004 C   0  0  0  0  0  0  0  0  0  0  0  0
  -30.1698  -15.2541   20.4612 C   0  0  0  0  0  0  0  0  0  0  0  0
  -27.5892  -17.2548   24.3320 C   0  0  0  0  0  0  0  0  0  0  0  0
  -27.0330  -26.0744   23.4122 C   0  0  0  0  0  0  0  0  0  0  0  0
  -27.5767  -27.2945   23.0105 C   0  0  0  0  0  0  0  0  0  0  0  0
  -29.3587  -23.2451   23.6175 C   0  0  0  0  0  0  0  0  0  0  0  0
  -30.9950  -24.9826   23.2423 C   0  0  0  0  0  0  0  0  0  0  0  0
  -27.5002  -18.6450   24.3871 C   0  0  0  0  0  0  0  0  0  0  0  0
  -30.9352  -21.4726   26.3737 C   0  0  0  0  0  0  0  0  0  0  0  0
  -31.1377  -20.1017   26.5325 C   0  0  0  0  0  0  0  0  0  0  0  0
  -25.2813  -18.5342   23.4471 C   0  0  0  0  0  0  0  0  0  0  0  0
  -25.3500  -27.2453   24.6904 C   0  0  0  0  0  0  0  0  0  0  0  0
  -32.3224  -20.0329   24.4280 C   0  0  0  0  0  0  0  0  0  0  0  0
  -29.1116  -24.7536   21.7466 C   0  0  0  0  0  0  0  0  0  0  0  0
  -28.0827  -24.4445   19.4328 C   0  0  0  0  0  0  0  0  0  0  0  0
  -30.3764  -12.9524   19.7216 C   0  0  0  0  0  0  0  0  0  0  0  0
  -26.5274  -16.4932   23.8231 C   0  0  0  0  0  0  0  0  0  0  0  0
  -29.5685  -14.0727   19.9949 C   0  0  0  0  0  0  0  0  0  0  0  0
  -25.3583  -17.1342   23.3890 C   0  0  0  0  0  0  0  0  0  0  0  0
  -25.8938  -28.4654   24.2888 C   0  0  0  0  0  0  0  0  0  0  0  0
  -25.9196  -26.0498   24.2521 C   0  0  0  0  0  0  0  0  0  0  0  0
  -27.0072  -28.4900   23.4488 C   0  0  0  0  0  0  0  0  0  0  0  0
  -30.5320  -23.9006   23.9910 C   0  0  0  0  0  0  0  0  0  0  0  0
  -26.3473  -19.2851   23.9419 C   0  0  0  0  0  0  0  0  0  0  0  0
  -31.4262  -22.1236   25.2420 C   0  0  0  0  0  0  0  0  0  0  0  0
  -31.8313  -19.3818   25.5597 C   0  0  0  0  0  0  0  0  0  0  0  0
  -32.1199  -21.4038   24.2692 C   0  0  0  0  0  0  0  0  0  0  0  0
  -28.3788  -25.1943   20.5869 C   0  0  0  0  0  0  0  0  0  0  0  0
  -27.3736  -25.3085   18.6346 C   0  0  0  0  0  0  0  0  0  0  0  0
  -25.0736  -22.5123   24.8650 C   0  0  0  0  0  0  0  0  0  0  0  0
  -24.2480  -24.6154   25.4993 C   0  0  0  0  0  0  0  0  0  0  0  0
  -25.2559  -21.1927   24.7425 C   0  0  0  0  0  0  0  0  0  1  0  0
  -28.4186  -23.0883   19.1111 C   0  0  0  0  0  0  0  0  0  0  0  0
  -26.1648  -14.5116   21.3643 C   0  0  0  0  0  0  0  0  0  0  0  0
  -23.2443  -14.0246   22.6894 C   0  0  0  0  0  0  0  0  0  0  0  0
  -28.0919  -30.6784   23.9308 C   0  0  0  0  0  0  0  0  0  0  0  0
  -20.6760  -16.0457   24.2179 C   0  0  0  0  0  0  0  0  0  0  0  0
  -27.8890  -29.8786   21.6481 C   0  0  0  0  0  0  0  0  0  0  0  0
  -29.7976  -11.6715   19.1749 C   0  0  0  0  0  0  0  0  0  0  0  0
  -26.6286  -14.9927   23.7952 C   0  0  0  0  0  0  0  0  0  0  0  0
  -24.1823  -16.3610   22.8528 C   0  0  0  0  0  0  0  0  0  0  0  0
  -23.9913  -23.1372   25.6731 C   0  0  0  0  0  0  0  0  0  0  0  0
  -25.9306  -23.5418   24.2167 C   0  0  0  0  0  0  0  0  0  0  0  0
  -28.2875  -11.5552   19.3654 C   0  0  0  0  0  0  0  0  0  0  0  0
  -24.7967  -28.1231   20.6505 C   0  0  0  0  0  0  0  0  0  0  0  0
  -27.5968  -12.8534   18.9598 C   0  0  0  0  0  0  0  0  0  0  0  0
  -25.1017  -27.7513   19.2044 C   0  0  0  0  0  0  0  0  0  0  0  0
  -25.4478  -29.4445   21.0455 C   0  0  0  0  0  0  0  0  0  0  0  0
  -27.2711  -29.0616   19.3905 C   0  0  0  0  0  0  0  0  0  0  0  0
  -28.0646  -14.0235   19.8335 C   0  0  1  0  0  0  0  0  0  0  0  0
  -25.6889  -14.3492   22.7802 C   0  0  1  0  0  0  0  0  0  0  0  0
  -26.6063  -27.7648   18.8941 C   0  0  1  0  0  0  0  0  0  0  0  0
  -25.2622  -29.7305   24.7717 C   0  0  0  0  0  0  0  0  0  0  0  0
  -28.3117  -30.2012   25.3501 C   0  0  0  0  0  0  0  0  0  0  0  0
  -18.9331  -15.4535   25.9235 C   0  0  0  0  0  0  0  0  0  0  0  0
  -21.4550  -13.5361   20.2666 C   0  0  0  0  0  0  0  0  0  0  0  0
  -19.5552  -14.5345   21.5559 C   0  0  0  0  0  0  0  0  0  0  0  0
  -20.6654  -12.4586   22.3809 C   0  0  0  0  0  0  0  0  0  0  0  0
  -21.5529  -18.2103   26.0357 C   0  0  0  0  0  0  0  0  0  0  0  0
  -21.8854  -14.6667   22.5475 C   0  0  1  0  0  0  0  0  0  0  0  0
  -20.2997  -16.0778   25.6882 C   0  0  2  0  0  0  0  0  0  0  0  0
  -20.9142  -13.8138   21.6835 C   0  0  0  0  0  0  0  0  0  0  0  0
  -27.8973  -26.4389   20.5308 N   0  0  0  0  0  0  0  0  0  0  0  0
  -27.2916  -26.4778   19.3318 N   0  0  0  0  0  0  0  0  0  0  0  0
  -25.3597  -24.7969   24.6622 N   0  0  0  0  0  0  0  0  0  0  0  0
  -24.3320  -14.8965   22.8400 N   0  0  0  0  0  0  0  0  0  0  0  0
  -26.8855  -29.4634   20.7465 N   0  0  0  0  0  0  0  0  0  0  0  0
  -26.8187  -25.1745   17.4113 N   0  0  0  0  0  0  0  0  0  0  0  0
  -27.5250  -22.0733   19.4794 N   0  0  0  0  0  0  0  0  0  0  0  0
  -27.4175  -13.9786   21.1272 N   0  0  0  0  0  0  0  0  0  0  0  0
  -21.4113  -14.9224   23.9033 N   0  0  0  0  0  0  0  0  0  0  0  0
  -27.5836  -29.7415   23.0206 N   0  0  0  0  0  0  0  0  0  0  0  0
  -20.2661  -17.4829   26.1837 N   0  3  0  0  0  0  0  0  0  0  0  0
  -23.5382  -25.4512   26.0444 O   0  0  0  0  0  0  0  0  0  0  0  0
  -29.4875  -22.7839   18.5294 O   0  0  0  0  0  0  0  0  0  0  0  0
  -25.4479  -15.0772   20.5470 O   0  0  0  0  0  0  0  0  0  0  0  0
  -23.3365  -12.7946   22.6745 O   0  0  0  0  0  0  0  0  0  0  0  0
  -28.3206  -31.8562   23.6413 O   0  0  0  0  0  0  0  0  0  0  0  0
  -20.3471  -16.9269   23.4268 O   0  0  0  0  0  0  0  0  0  0  0  0
  -28.9495  -30.3930   21.2719 O   0  0  0  0  0  0  0  0  0  0  0  0
  -31.2251  -23.4849   25.0862 O   0  0  0  0  0  0  0  0  0  0  0  0
  -26.2580  -20.6420   23.9940 O   0  0  0  0  0  0  0  0  0  1  0  0
  -32.0270  -18.0656   25.7131 F   0  0  0  0  0  0  0  0  0  0  0  0
  -32.5950  -22.0240   23.1804 F   0  0  0  0  0  0  0  0  0  0  0  0
  1  2  1  0  0  0  0
  1  5  2  0  0  0  0
  2  6  2  0  0  0  0
  3 10  2  0  0  0  0
  3 18  1  0  0  0  0
  4 11  1  0  0  0  0
  4 18  2  0  0  0  0
  5 20  1  0  0  0  0
  6 22  1  0  0  0  0
  7 12  2  0  0  0  0
  7 21  1  0  0  0  0
  8  9  2  0  0  0  0
  8 25  1  0  0  0  0
  9 26  1  0  0  0  0
 10 27  1  0  0  0  0
 11 27  2  0  0  0  0
 12 28  1  0  0  0  0
 13 14  2  0  0  0  0
 13 29  1  0  0  0  0
 14 30  1  0  0  0  0
 15 23  1  0  0  0  0
 15 28  2  0  0  0  0
 16 24  1  0  0  0  0
 16 25  2  0  0  0  0
 17 30  2  0  0  0  0
 17 31  1  0  0  0  0
 18 32  1  0  0  0  0
 19 32  1  0  0  0  0
 19 33  2  0  0  0  0
 19 37  1  0  0  0  0
 20 22  2  0  0  0  0
 20 43  1  0  0  0  0
 21 23  2  0  0  0  0
 21 44  1  0  0  0  0
 22 54  1  0  0  0  0
 23 45  1  0  0  0  0
 24 26  2  0  0  0  0
 24 57  1  0  0  0  0
 25 69  1  0  0  0  0
 26 76  1  0  0  0  0
 27 85  1  0  0  0  0
 28 86  1  0  0  0  0
 29 31  2  0  0  0  0
 29 85  1  0  0  0  0
 30 87  1  0  0  0  0
 31 88  1  0  0  0  0
 32 67  2  0  0  0  0
 33 68  1  0  0  0  0
 33 72  1  0  0  0  0
 34 36  2  0  0  0  0
 34 46  1  0  0  0  0
 34 47  1  0  0  0  0
 35 46  1  0  0  0  0
 35 69  1  0  0  0  0
 35 78  2  0  0  0  0
 36 86  1  0  0  0  0
 37 73  1  0  0  0  0
 37 79  2  0  0  0  0
 38 55  1  0  0  0  0
 38 74  1  0  0  0  0
 38 80  2  0  0  0  0
 39 64  1  0  0  0  0
 39 70  1  0  0  0  0
 39 81  2  0  0  0  0
 40 58  1  0  0  0  0
 40 76  1  0  0  0  0
 40 82  2  0  0  0  0
 41 65  1  0  0  0  0
 41 75  1  0  0  0  0
 41 83  2  0  0  0  0
 42 71  1  0  0  0  0
 42 76  1  0  0  0  0
 42 84  2  0  0  0  0
 43 48  1  0  0  0  0
 44 55  1  0  0  0  0
 45 70  1  0  0  0  0
 47 69  1  0  0  0  0
 48 50  1  0  0  0  0
 49 51  1  0  0  0  0
 49 52  1  0  0  0  0
 50 54  1  0  0  0  0
 51 56  1  0  0  0  0
 52 71  1  0  0  0  0
 53 56  1  0  0  0  0
 53 71  1  0  0  0  0
 54 74  1  0  0  0  0
 55 70  1  0  0  0  0
 56 68  1  0  0  0  0
 59 65  1  0  0  0  0
 60 66  1  0  0  0  0
 61 66  1  0  0  0  0
 62 66  1  0  0  0  0
 63 77  1  0  0  0  0
 64 66  1  0  0  0  0
 64 75  1  0  0  0  0
 65 77  1  0  0  0  0
 67 68  1  0  0  0  0
M  CHG  1  77   1
M  ISO  4  36 101  42 100  76 100  86 101
M  END
> <Batch ID>
0071

> <Smiles>
CNC(C)C(=O)NC(C(=O)N1Cc2cc([101O:1][101CH:1]=C3CC(=O)N(c4ccc([100N:0](C(C)=O)[100C:0](=O)N5CCCC(n6nc(-c7ccc(Oc8ccc(F)cc8F)cc7)c(C(N)=O)c6N)C5)c(C)c4)C3)ccc2CC1C(=O)NC1CCCc2ccccc21)C(C)(C)C

> <Shape>
0.162

> <Color>
0.078

> <Negative vol penalty>
0.000

$$$$

  -OEChem-04042323353D

 83 91  0     1  0  0  0  0  0999 V2000
  -19.0425  -24.3629   23.2836 C   0  0  0  0  0  0  0  0  0  0  0  0
  -20.3576  -24.4747   22.8438 C   0  0  0  0  0  0  0  0  0  0  0  0
  -23.9367   -9.3372   21.7556 C   0  0  0  0  0  0  0  0  0  0  0  0
  -24.1270  -11.0395   23.4594 C   0  0  0  0  0  0  0  0  0  0  0  0
  -28.1838  -20.2410   19.2401 C   0  0  0  0  0  0  0  0  0  0  0  0
  -30.5747  -19.9547   19.4370 C   0  0  0  0  0  0  0  0  0  0  0  0
  -18.2205  -25.4886   23.3134 C   0  0  0  0  0  0  0  0  0  0  0  0
  -20.8511  -25.7123   22.4324 C   0  0  0  0  0  0  0  0  0  0  0  0
  -25.4622  -26.6796   24.2891 C   0  0  0  0  0  0  0  0  0  0  0  0
  -28.0250  -18.8578   19.1563 C   0  0  0  0  0  0  0  0  0  0  0  0
  -30.4159  -18.5715   19.3532 C   0  0  0  0  0  0  0  0  0  0  0  0
  -23.4207   -8.4497   22.6998 C   0  0  0  0  0  0  0  0  0  0  0  0
  -23.6110  -10.1520   24.4037 C   0  0  0  0  0  0  0  0  0  0  0  0
  -26.5423  -26.0514   23.6706 C   0  0  0  0  0  0  0  0  0  0  0  0
  -20.4589   -7.8851   24.2301 C   0  0  0  0  0  0  0  0  0  0  0  0
  -19.3406   -7.1333   23.8699 C   0  0  0  0  0  0  0  0  0  0  0  0
  -27.0136  -28.0776   22.4494 C   0  0  0  0  0  0  0  0  0  0  0  0
  -20.5942   -5.0986   24.2246 C   0  0  0  0  0  0  0  0  0  0  0  0
  -24.2900  -10.6321   22.1354 C   0  0  0  0  0  0  0  0  0  0  0  0
  -29.4586  -20.7895   19.3804 C   0  0  0  0  0  0  0  0  0  0  0  0
  -24.0999  -12.4430   20.3487 C   0  0  0  0  0  0  0  0  0  0  0  0
  -18.7071  -26.7425   22.9113 C   0  0  0  0  0  0  0  0  0  0  0  0
  -25.1425  -28.0104   23.9837 C   0  0  0  0  0  0  0  0  0  0  0  0
  -20.0344  -26.8557   22.4556 C   0  0  0  0  0  0  0  0  0  0  0  0
  -25.9305  -28.7212   23.0673 C   0  0  0  0  0  0  0  0  0  0  0  0
  -29.1411  -18.0230   19.2129 C   0  0  0  0  0  0  0  0  0  0  0  0
  -23.2578   -8.8571   24.0239 C   0  0  0  0  0  0  0  0  0  0  0  0
  -27.3164  -26.7495   22.7484 C   0  0  0  0  0  0  0  0  0  0  0  0
  -21.6449   -7.2436   24.5874 C   0  0  0  0  0  0  0  0  0  0  0  0
  -19.4082   -5.7400   23.8671 C   0  0  0  0  0  0  0  0  0  0  0  0
  -21.7125   -5.8504   24.5847 C   0  0  0  0  0  0  0  0  0  0  0  0
  -24.8236  -11.5492   21.1605 C   0  0  0  0  0  0  0  0  0  0  0  0
  -25.0592  -13.0833   19.6030 C   0  0  0  0  0  0  0  0  0  0  0  0
  -29.6269  -22.2546   19.4690 C   0  0  0  0  0  0  0  0  0  0  0  0
  -22.6867  -12.6738   20.2752 C   0  0  0  0  0  0  0  0  0  0  0  0
  -22.6242  -29.4782   22.7160 C   0  0  0  0  0  0  0  0  0  0  0  0
  -24.2944  -32.1547   23.4707 C   0  0  0  0  0  0  0  0  0  0  0  0
  -29.0609  -24.3221   20.7242 C   0  0  0  0  0  0  0  0  0  0  0  0
  -27.3206  -33.5980   24.1078 C   0  0  0  0  0  0  0  0  0  0  0  0
  -29.9819  -15.6487   19.1675 C   0  0  0  0  0  0  0  0  0  0  0  0
  -17.7668  -27.9217   22.9163 C   0  0  0  0  0  0  0  0  0  0  0  0
  -23.9905  -28.6820   24.6795 C   0  0  0  0  0  0  0  0  0  0  0  0
  -25.6416  -30.1580   22.7199 C   0  0  0  0  0  0  0  0  0  0  0  0
  -18.4784  -29.2686   22.8181 C   0  0  0  0  0  0  0  0  0  0  0  0
  -29.9892  -12.0910   19.0265 C   0  0  0  0  0  0  0  0  0  0  0  0
  -19.5370  -29.2342   21.7203 C   0  0  0  0  0  0  0  0  0  0  0  0
  -28.5864  -11.7064   19.5023 C   0  0  0  0  0  0  0  0  0  0  0  0
  -30.5312  -13.3040   19.7805 C   0  0  0  0  0  0  0  0  0  0  0  0
  -28.2471  -14.0940   20.2580 C   0  0  0  0  0  0  0  0  0  0  0  0
  -20.6137  -28.1857   22.0247 C   0  0  1  0  0  0  0  0  0  0  0  0
  -23.4438  -29.8802   23.9095 C   0  0  1  0  0  0  0  0  0  0  0  0
  -27.6329  -12.9172   19.4824 C   0  0  2  0  0  0  0  0  0  0  0  0
  -28.3719  -35.8098   24.6554 C   0  0  0  0  0  0  0  0  0  0  0  0
  -23.9686  -33.0263   20.5648 C   0  0  0  0  0  0  0  0  0  0  0  0
  -25.7931  -34.7002   20.9352 C   0  0  0  0  0  0  0  0  0  0  0  0
  -23.6744  -34.8575   22.2424 C   0  0  0  0  0  0  0  0  0  0  0  0
  -28.3615  -32.5950   26.6903 C   0  0  0  0  0  0  0  0  0  0  0  0
  -28.2780  -24.7284   21.9443 C   0  0  0  0  0  0  0  0  0  1  0  0
  -25.3191  -33.0099   22.7652 C   0  0  1  0  0  0  0  0  0  0  0  0
  -27.7801  -34.5266   25.2173 C   0  0  2  0  0  0  0  0  0  0  0  0
  -24.6933  -33.8708   21.6318 C   0  0  0  0  0  0  0  0  0  0  0  0
  -26.1411  -11.6130   20.9504 N   0  0  0  0  0  0  0  0  0  0  0  0
  -26.2528  -12.5545   19.9979 N   0  0  0  0  0  0  0  0  0  0  0  0
  -24.5007  -30.7687   23.4220 N   0  0  0  0  0  0  0  0  0  0  0  0
  -29.5768  -14.4130   19.7150 N   0  0  0  0  0  0  0  0  0  0  0  0
  -24.9899  -14.0414   18.6545 N   0  0  0  0  0  0  0  0  0  0  0  0
  -21.8438  -11.9296   21.1118 N   0  0  0  0  0  0  0  0  0  0  0  0
  -28.9800  -16.6178   19.1278 N   0  0  0  0  0  0  0  0  0  0  0  0
  -29.0241  -22.9000   20.4771 N   0  0  0  0  0  0  0  0  0  0  0  0
  -21.5361  -28.6835   23.0226 N   0  0  0  0  0  0  0  0  0  0  0  0
  -25.9887  -33.7851   23.8040 N   0  0  0  0  0  0  0  0  0  0  0  0
  -30.3732  -22.8505   18.5394 N   0  3  0  0  0  0  0  0  0  0  0  0
  -28.8157  -33.8591   26.0558 N   0  3  0  0  0  0  0  0  0  0  0  0
  -22.1850  -13.5034   19.4792 O   0  0  0  0  0  0  0  0  0  0  0  0
  -22.9537  -29.8620   21.5999 O   0  0  0  0  0  0  0  0  0  0  0  0
  -23.3498  -32.6968   24.0498 O   0  0  0  0  0  0  0  0  0  0  0  0
  -29.6762  -25.0875   19.9960 O   0  0  0  0  0  0  0  0  0  0  0  0
  -28.0693  -32.7902   23.5624 O   0  0  0  0  0  0  0  0  0  0  0  0
  -31.1251  -15.8249   18.7386 O   0  0  0  0  0  0  0  0  0  0  0  0
  -22.7541   -7.9914   24.9455 O   0  0  0  0  0  0  0  0  0  0  0  0
  -28.3708  -26.1385   22.1428 O   0  0  0  0  0  0  0  0  0  1  0  0
  -18.3337   -5.0182   23.5227 F   0  0  0  0  0  0  0  0  0  0  0  0
  -22.8488   -5.2286   24.9282 F   0  0  0  0  0  0  0  0  0  0  0  0
  1  2  1  0  0  0  0
  1  7  2  0  0  0  0
  2  8  2  0  0  0  0
  3 12  2  0  0  0  0
  3 19  1  0  0  0  0
  4 13  1  0  0  0  0
  4 19  2  0  0  0  0
  5 10  2  0  0  0  0
  5 20  1  0  0  0  0
  6 11  1  0  0  0  0
  6 20  2  0  0  0  0
  7 22  1  0  0  0  0
  8 24  1  0  0  0  0
  9 14  2  0  0  0  0
  9 23  1  0  0  0  0
 10 26  1  0  0  0  0
 11 26  2  0  0  0  0
 12 27  1  0  0  0  0
 13 27  2  0  0  0  0
 14 28  1  0  0  0  0
 15 16  2  0  0  0  0
 15 29  1  0  0  0  0
 16 30  1  0  0  0  0
 17 25  1  0  0  0  0
 17 28  2  0  0  0  0
 18 30  2  0  0  0  0
 18 31  1  0  0  0  0
 19 32  1  0  0  0  0
 20 34  1  0  0  0  0
 21 32  1  0  0  0  0
 21 33  2  0  0  0  0
 21 35  1  0  0  0  0
 22 24  2  0  0  0  0
 22 41  1  0  0  0  0
 23 25  2  0  0  0  0
 23 42  1  0  0  0  0
 24 50  1  0  0  0  0
 25 43  1  0  0  0  0
 26 68  1  0  0  0  0
 27 80  1  0  0  0  0
 28 81  1  0  0  0  0
 29 31  2  0  0  0  0
 29 80  1  0  0  0  0
 30 82  1  0  0  0  0
 31 83  1  0  0  0  0
 32 62  2  0  0  0  0
 33 63  1  0  0  0  0
 33 66  1  0  0  0  0
 34 69  1  0  0  0  0
 34 72  2  0  0  0  0
 35 67  1  0  0  0  0
 35 74  2  0  0  0  0
 36 51  1  0  0  0  0
 36 70  1  0  0  0  0
 36 75  2  0  0  0  0
 37 59  1  0  0  0  0
 37 64  1  0  0  0  0
 37 76  2  0  0  0  0
 38 58  1  0  0  0  0
 38 69  1  0  0  0  0
 38 77  2  0  0  0  0
 39 60  1  0  0  0  0
 39 71  1  0  0  0  0
 39 78  2  0  0  0  0
 40 65  1  0  0  0  0
 40 68  1  0  0  0  0
 40 79  2  0  0  0  0
 41 44  1  0  0  0  0
 42 51  1  0  0  0  0
 43 64  1  0  0  0  0
 44 46  1  0  0  0  0
 45 47  1  0  0  0  0
 45 48  1  0  0  0  0
 46 50  1  0  0  0  0
 47 52  1  0  0  0  0
 48 65  1  0  0  0  0
 49 52  1  0  0  0  0
 49 65  1  0  0  0  0
 50 70  1  0  0  0  0
 51 64  1  0  0  0  0
 52 63  1  0  0  0  0
 53 60  1  0  0  0  0
 54 61  1  0  0  0  0
 55 61  1  0  0  0  0
 56 61  1  0  0  0  0
 57 73  1  0  0  0  0
 58 81  1  0  0  0  0
 59 61  1  0  0  0  0
 59 71  1  0  0  0  0
 60 73  1  0  0  0  0
 62 63  1  0  0  0  0
M  CHG  2  72   1  73   1
M  ISO  4  40 100  58 101  68 100  81 101
M  END
> <Batch ID>
0071

> <Smiles>
CNC(C)C(=O)NC(C(=O)N1Cc2cc([101O:1][101CH2:1]C(=O)NC(=N)c3ccc([100NH:0][100C:0](=O)N4CCCC(n5nc(-c6ccc(Oc7ccc(F)cc7F)cc6)c(C(N)=O)c5N)C4)cc3)ccc2CC1C(=O)NC1CCCc2ccccc21)C(C)(C)C

> <Shape>
0.321

> <Color>
0.113

> <Negative vol penalty>
0.000

$$$$

  -OEChem-04042323353D

 89 98  0     1  0  0  0  0  0999 V2000
  -22.2572  -24.2243   21.3622 C   0  0  0  0  0  0  0  0  0  0  0  0
  -23.3794  -23.9394   22.1335 C   0  0  0  0  0  0  0  0  0  0  0  0
  -22.9895   -9.8294   20.0503 C   0  0  0  0  0  0  0  0  0  0  0  0
  -23.6716  -10.0179   22.3603 C   0  0  0  0  0  0  0  0  0  0  0  0
  -22.3669  -24.2969   19.9742 C   0  0  0  0  0  0  0  0  0  0  0  0
  -24.6118  -23.7258   21.5171 C   0  0  0  0  0  0  0  0  0  0  0  0
  -30.1279  -25.2733   23.6812 C   0  0  0  0  0  0  0  0  0  0  0  0
  -22.2155   -8.7139   20.3698 C   0  0  0  0  0  0  0  0  0  0  0  0
  -22.8975   -8.9023   22.6799 C   0  0  0  0  0  0  0  0  0  0  0  0
  -31.1123  -24.5447   24.3476 C   0  0  0  0  0  0  0  0  0  0  0  0
  -23.1429   -5.5408   22.4140 C   0  0  0  0  0  0  0  0  0  0  0  0
  -23.7139   -4.5699   23.2367 C   0  0  0  0  0  0  0  0  0  0  0  0
  -30.4403  -18.5001   23.6877 C   0  0  0  0  0  0  0  0  0  0  0  0
  -32.2426  -24.1653   22.2505 C   0  0  0  0  0  0  0  0  0  0  0  0
  -32.0140  -16.6008   22.3843 C   0  0  0  0  0  0  0  0  0  0  0  0
  -21.9595   -4.9151   24.8616 C   0  0  0  0  0  0  0  0  0  0  0  0
  -23.7176  -10.4814   21.0456 C   0  0  0  0  0  0  0  0  0  0  0  0
  -29.8453  -17.5604   22.8459 C   0  0  0  0  0  0  0  0  0  0  0  0
  -24.1119  -12.9814   20.7261 C   0  0  0  0  0  0  0  0  0  0  0  0
  -23.6032  -24.0936   19.3411 C   0  0  0  0  0  0  0  0  0  0  0  0
  -30.1878  -25.4444   22.2907 C   0  0  0  0  0  0  0  0  0  0  0  0
  -24.7379  -23.7944   20.1192 C   0  0  0  0  0  0  0  0  0  0  0  0
  -31.2591  -24.8986   21.5692 C   0  0  0  0  0  0  0  0  0  0  0  0
  -32.6090  -17.5406   23.2260 C   0  0  0  0  0  0  0  0  0  0  0  0
  -31.8222  -18.4902   23.8777 C   0  0  0  0  0  0  0  0  0  0  0  0
  -30.6322  -16.6107   22.1943 C   0  0  0  0  0  0  0  0  0  0  0  0
  -22.1695   -8.2504   21.6846 C   0  0  0  0  0  0  0  0  0  0  0  0
  -32.1682  -23.9882   23.6319 C   0  0  0  0  0  0  0  0  0  0  0  0
  -21.9802   -6.1989   22.8151 C   0  0  0  0  0  0  0  0  0  0  0  0
  -23.1222   -4.2570   24.4605 C   0  0  0  0  0  0  0  0  0  0  0  0
  -21.3886   -5.8860   24.0389 C   0  0  0  0  0  0  0  0  0  0  0  0
  -24.5178  -11.6334   20.7160 C   0  0  0  0  0  0  0  0  0  0  0  0
  -25.2300  -13.6795   20.3399 C   0  0  0  0  0  0  0  0  0  0  0  0
  -33.3801  -20.4243   24.3899 C   0  0  0  0  0  0  0  0  0  0  0  0
  -28.3993  -17.6007   22.6665 C   0  0  0  0  0  0  0  0  0  0  0  0
  -22.8382  -13.5516   21.0552 C   0  0  0  0  0  0  0  0  0  0  0  0
  -28.3289  -24.6210   19.8473 C   0  0  0  0  0  0  0  0  0  0  0  0
  -30.4448  -26.3949   18.1448 C   0  0  0  0  0  0  0  0  0  0  0  0
  -33.5848  -27.7085   17.8958 C   0  0  0  0  0  0  0  0  0  0  0  0
  -30.7063  -14.6464   20.6188 C   0  0  0  0  0  0  0  0  0  0  0  0
  -23.6629  -24.1355   17.8347 C   0  0  0  0  0  0  0  0  0  0  0  0
  -29.1324  -26.2556   21.5903 C   0  0  0  0  0  0  0  0  0  0  0  0
  -31.3803  -25.0706   20.0778 C   0  0  0  0  0  0  0  0  0  0  0  0
  -25.0809  -24.2664   17.2847 C   0  0  0  0  0  0  0  0  0  0  0  0
  -29.6261  -12.0595   18.4237 C   0  0  0  0  0  0  0  0  0  0  0  0
  -26.0179  -23.2880   17.9859 C   0  0  0  0  0  0  0  0  0  0  0  0
  -28.1674  -11.8289   18.8252 C   0  0  0  0  0  0  0  0  0  0  0  0
  -33.1111  -20.4343   26.7582 C   0  0  0  0  0  0  0  0  0  0  0  0
  -30.5044  -12.3741   19.6334 C   0  0  0  0  0  0  0  0  0  0  0  0
  -32.0163  -19.5919   26.1320 C   0  0  0  0  0  0  0  0  0  0  0  0
  -28.5662  -13.2439   20.8809 C   0  0  0  0  0  0  0  0  0  0  0  0
  -26.0971  -23.5810   19.4891 C   0  0  1  0  0  0  0  0  0  0  0  0
  -29.0179  -25.9313   20.1040 C   0  0  1  0  0  0  0  0  0  0  0  0
  -27.6305  -12.9876   19.6882 C   0  0  2  0  0  0  0  0  0  0  0  0
  -33.5985  -21.3198   25.6085 C   0  0  1  0  0  0  0  0  0  0  0  0
  -34.0915  -17.5070   23.4116 C   0  0  0  0  0  0  0  0  0  0  0  0
  -27.5756  -18.1079   23.8123 C   0  0  0  0  0  0  0  0  0  0  0  0
  -35.0691  -21.6965   25.7716 C   0  0  0  0  0  0  0  0  0  0  0  0
  -35.0306  -29.0816   16.3721 C   0  0  0  0  0  0  0  0  0  0  0  0
  -30.8073  -23.9796   16.3160 C   0  0  0  0  0  0  0  0  0  0  0  0
  -32.8940  -25.0468   15.4358 C   0  0  0  0  0  0  0  0  0  0  0  0
  -30.6920  -26.1782   15.1298 C   0  0  0  0  0  0  0  0  0  0  0  0
  -33.9279  -29.8237   19.9372 C   0  0  0  0  0  0  0  0  0  0  0  0
  -32.7372  -22.5796   25.4617 C   0  0  0  0  0  0  0  0  0  1  0  0
  -31.7433  -26.1133   17.4282 C   0  0  1  0  0  0  0  0  0  0  0  0
  -34.0678  -29.1053   17.5491 C   0  0  2  0  0  0  0  0  0  0  0  0
  -31.5311  -25.3244   16.1053 C   0  0  0  0  0  0  0  0  0  0  0  0
  -25.7939  -11.4819   20.3521 N   0  0  0  0  0  0  0  0  0  0  0  0
  -26.1997  -12.7436   20.1298 N   0  0  0  0  0  0  0  0  0  0  0  0
  -32.4121  -19.4611   24.7425 N   0  0  0  0  0  0  0  0  0  0  0  0
  -30.3202  -25.8668   19.4376 N   0  0  0  0  0  0  0  0  0  0  0  0
  -29.9361  -13.4844   20.4009 N   0  0  0  0  0  0  0  0  0  0  0  0
  -25.4684  -14.9964   20.1628 N   0  0  0  0  0  0  0  0  0  0  0  0
  -21.7982  -12.6909   21.4317 N   0  0  0  0  0  0  0  0  0  0  0  0
  -30.0497  -15.6478   21.3333 N   0  0  0  0  0  0  0  0  0  0  0  0
  -26.9550  -24.7198   19.7375 N   0  0  0  0  0  0  0  0  0  0  0  0
  -32.4024  -27.4033   17.2555 N   0  0  0  0  0  0  0  0  0  0  0  0
  -34.7660  -29.7163   18.7153 N   0  3  0  0  0  0  0  0  0  0  0  0
  -33.9362  -20.6127   23.3168 O   0  0  0  0  0  0  0  0  0  0  0  0
  -27.8071  -17.2453   21.6476 O   0  0  0  0  0  0  0  0  0  0  0  0
  -22.6240  -14.7863   21.0006 O   0  0  0  0  0  0  0  0  0  0  0  0
  -28.9946  -23.5964   19.7541 O   0  0  0  0  0  0  0  0  0  0  0  0
  -29.5761  -27.0651   17.5811 O   0  0  0  0  0  0  0  0  0  0  0  0
  -34.1972  -26.9614   18.6556 O   0  0  0  0  0  0  0  0  0  0  0  0
  -31.8536  -14.7564   20.1787 O   0  0  0  0  0  0  0  0  0  0  0  0
  -21.4141   -7.1620   21.9968 O   0  0  0  0  0  0  0  0  0  0  0  0
  -33.1300  -23.2760   24.2797 O   0  0  0  0  0  0  0  0  0  1  0  0
  -23.6698   -3.3236   25.2498 F   0  0  0  0  0  0  0  0  0  0  0  0
  -20.2709   -6.5140   24.4290 F   0  0  0  0  0  0  0  0  0  0  0  0
  1  2  1  0  0  0  0
  1  5  2  0  0  0  0
  2  6  2  0  0  0  0
  3  8  2  0  0  0  0
  3 17  1  0  0  0  0
  4  9  1  0  0  0  0
  4 17  2  0  0  0  0
  5 20  1  0  0  0  0
  6 22  1  0  0  0  0
  7 10  2  0  0  0  0
  7 21  1  0  0  0  0
  8 27  1  0  0  0  0
  9 27  2  0  0  0  0
 10 28  1  0  0  0  0
 11 12  2  0  0  0  0
 11 29  1  0  0  0  0
 12 30  1  0  0  0  0
 13 18  2  0  0  0  0
 13 25  1  0  0  0  0
 14 23  1  0  0  0  0
 14 28  2  0  0  0  0
 15 24  1  0  0  0  0
 15 26  2  0  0  0  0
 16 30  2  0  0  0  0
 16 31  1  0  0  0  0
 17 32  1  0  0  0  0
 18 26  1  0  0  0  0
 18 35  1  0  0  0  0
 19 32  1  0  0  0  0
 19 33  2  0  0  0  0
 19 36  1  0  0  0  0
 20 22  2  0  0  0  0
 20 41  1  0  0  0  0
 21 23  2  0  0  0  0
 21 42  1  0  0  0  0
 22 52  1  0  0  0  0
 23 43  1  0  0  0  0
 24 25  2  0  0  0  0
 24 56  1  0  0  0  0
 25 70  1  0  0  0  0
 26 75  1  0  0  0  0
 27 86  1  0  0  0  0
 28 87  1  0  0  0  0
 29 31  2  0  0  0  0
 29 86  1  0  0  0  0
 30 88  1  0  0  0  0
 31 89  1  0  0  0  0
 32 68  2  0  0  0  0
 33 69  1  0  0  0  0
 33 73  1  0  0  0  0
 34 55  1  0  0  0  0
 34 70  1  0  0  0  0
 34 79  2  0  0  0  0
 35 57  1  0  0  0  0
 35 80  2  0  0  0  0
 36 74  1  0  0  0  0
 36 81  2  0  0  0  0
 37 53  1  0  0  0  0
 37 76  1  0  0  0  0
 37 82  2  0  0  0  0
 38 65  1  0  0  0  0
 38 71  1  0  0  0  0
 38 83  2  0  0  0  0
 39 66  1  0  0  0  0
 39 77  1  0  0  0  0
 39 84  2  0  0  0  0
 40 72  1  0  0  0  0
 40 75  1  0  0  0  0
 40 85  2  0  0  0  0
 41 44  1  0  0  0  0
 42 53  1  0  0  0  0
 43 71  1  0  0  0  0
 44 46  1  0  0  0  0
 45 47  1  0  0  0  0
 45 49  1  0  0  0  0
 46 52  1  0  0  0  0
 47 54  1  0  0  0  0
 48 50  1  0  0  0  0
 48 55  1  0  0  0  0
 49 72  1  0  0  0  0
 50 70  1  0  0  0  0
 51 54  1  0  0  0  0
 51 72  1  0  0  0  0
 52 76  1  0  0  0  0
 53 71  1  0  0  0  0
 54 69  1  0  0  0  0
 55 58  1  0  0  0  0
 55 64  1  0  0  0  0
 59 66  1  0  0  0  0
 60 67  1  0  0  0  0
 61 67  1  0  0  0  0
 62 67  1  0  0  0  0
 63 78  1  0  0  0  0
 64 87  1  0  0  0  0
 65 67  1  0  0  0  0
 65 77  1  0  0  0  0
 66 78  1  0  0  0  0
 68 69  1  0  0  0  0
M  CHG  1  78   1
M  ISO  4  40 100  64 101  75 100  87 101
M  END
> <Batch ID>
0071

> <Smiles>
CNC(C)C(=O)NC(C(=O)N1Cc2cc([101O:1][101CH2:1]C3(C)CCN(c4cc(C(C)=O)c([100NH:0][100C:0](=O)N5CCCC(n6nc(-c7ccc(Oc8ccc(F)cc8F)cc7)c(C(N)=O)c6N)C5)cc4C)C3=O)ccc2CC1C(=O)NC1CCCc2ccccc21)C(C)(C)C

> <Shape>
0.224

> <Color>
0.197

> <Negative vol penalty>
0.000

$$$$

  -OEChem-04042323353D

 87 96  0     1  0  0  0  0  0999 V2000
  -20.1129  -37.6080   20.7969 C   0  0  0  0  0  0  0  0  0  0  0  0
  -20.9942  -37.1073   19.8440 C   0  0  0  0  0  0  0  0  0  0  0  0
  -23.8934   -8.7709   19.7195 C   0  0  0  0  0  0  0  0  0  0  0  0
  -23.1744  -10.3076   21.4395 C   0  0  0  0  0  0  0  0  0  0  0  0
  -27.2390  -23.6763   18.6292 C   0  0  0  0  0  0  0  0  0  0  0  0
  -20.4017  -37.4678   22.1537 C   0  0  0  0  0  0  0  0  0  0  0  0
  -22.1655  -36.4671   20.2474 C   0  0  0  0  0  0  0  0  0  0  0  0
  -24.7919  -29.3085   18.5495 C   0  0  0  0  0  0  0  0  0  0  0  0
  -27.8474  -22.4366   18.4324 C   0  0  0  0  0  0  0  0  0  0  0  0
  -23.1310   -7.7597   20.3042 C   0  0  0  0  0  0  0  0  0  0  0  0
  -22.4119   -9.2964   22.0242 C   0  0  0  0  0  0  0  0  0  0  0  0
  -25.2845  -28.0072   18.4488 C   0  0  0  0  0  0  0  0  0  0  0  0
  -19.8811   -6.8317   20.4039 C   0  0  0  0  0  0  0  0  0  0  0  0
  -19.1016   -6.0386   19.5620 C   0  0  0  0  0  0  0  0  0  0  0  0
  -26.4162  -28.2601   20.5709 C   0  0  0  0  0  0  0  0  0  0  0  0
  -26.7740  -21.5935   20.4259 C   0  0  0  0  0  0  0  0  0  0  0  0
  -20.3062   -4.0767   20.2948 C   0  0  0  0  0  0  0  0  0  0  0  0
  -23.9152  -10.0448   20.2872 C   0  0  0  0  0  0  0  0  0  0  0  0
  -26.3983  -23.8747   19.7244 C   0  0  0  0  0  0  0  0  0  0  0  0
  -24.2899  -12.0029   18.6957 C   0  0  0  0  0  0  0  0  0  0  0  0
  -21.5723  -36.8170   22.5740 C   0  0  0  0  0  0  0  0  0  0  0  0
  -25.0973  -30.0861   19.6699 C   0  0  0  0  0  0  0  0  0  0  0  0
  -22.4708  -36.3193   21.6110 C   0  0  0  0  0  0  0  0  0  0  0  0
  -25.9154  -29.5598   20.6831 C   0  0  0  0  0  0  0  0  0  0  0  0
  -27.6148  -21.3952   19.3307 C   0  0  0  0  0  0  0  0  0  0  0  0
  -26.1657  -22.8333   20.6227 C   0  0  0  0  0  0  0  0  0  0  0  0
  -22.3902   -8.0225   21.4565 C   0  0  0  0  0  0  0  0  0  0  0  0
  -26.0949  -27.4844   19.4569 C   0  0  0  0  0  0  0  0  0  0  0  0
  -20.8733   -6.2474   21.1912 C   0  0  0  0  0  0  0  0  0  0  0  0
  -19.3140   -4.6611   19.5075 C   0  0  0  0  0  0  0  0  0  0  0  0
  -21.0858   -4.8699   21.1367 C   0  0  0  0  0  0  0  0  0  0  0  0
  -24.7030  -11.0896   19.6841 C   0  0  0  0  0  0  0  0  0  0  0  0
  -25.3970  -12.7820   18.4637 C   0  0  0  0  0  0  0  0  0  0  0  0
  -29.1065  -19.7762   18.0764 C   0  0  0  0  0  0  0  0  0  0  0  0
  -25.7707  -25.1964   19.9034 C   0  0  0  0  0  0  0  0  0  1  0  0
  -23.0189  -12.1353   18.0454 C   0  0  0  0  0  0  0  0  0  0  0  0
  -24.6826  -33.3639   21.4476 C   0  0  0  0  0  0  0  0  0  0  0  0
  -24.5285  -31.1666   23.5826 C   0  0  0  0  0  0  0  0  0  0  0  0
  -23.9962  -28.4372   25.5585 C   0  0  0  0  0  0  0  0  0  0  0  0
  -29.7539  -15.7268   20.3321 C   0  0  0  0  0  0  0  0  0  0  0  0
  -21.8648  -36.7312   24.0511 C   0  0  0  0  0  0  0  0  0  0  0  0
  -24.6392  -31.5141   19.7913 C   0  0  0  0  0  0  0  0  0  0  0  0
  -26.2462  -30.4448   21.8537 C   0  0  0  0  0  0  0  0  0  0  0  0
  -29.4204  -18.3037   18.2254 C   0  0  0  0  0  0  0  0  0  0  0  0
  -22.9433  -35.7089   24.4001 C   0  0  0  0  0  0  0  0  0  0  0  0
  -30.1951  -12.2134   19.9609 C   0  0  0  0  0  0  0  0  0  0  0  0
  -24.1407  -35.8563   23.4666 C   0  0  0  0  0  0  0  0  0  0  0  0
  -28.7716  -11.6830   19.7807 C   0  0  0  0  0  0  0  0  0  0  0  0
  -30.2428  -13.3777   20.9479 C   0  0  0  0  0  0  0  0  0  0  0  0
  -27.8972  -13.9569   20.4614 C   0  0  0  0  0  0  0  0  0  0  0  0
  -27.9668  -18.9870   19.9861 C   0  0  0  0  0  0  0  0  0  0  0  0
  -23.7394  -35.5967   22.0095 C   0  0  1  0  0  0  0  0  0  0  0  0
  -24.3172  -31.9235   21.2398 C   0  0  1  0  0  0  0  0  0  0  0  0
  -27.7901  -12.8182   19.4327 C   0  0  2  0  0  0  0  0  0  0  0  0
  -29.1095  -18.0351   19.6874 C   0  0  1  0  0  0  0  0  0  0  0  0
  -23.4927  -27.7905   27.9304 C   0  0  0  0  0  0  0  0  0  0  0  0
  -27.4249  -31.7384   24.3495 C   0  0  0  0  0  0  0  0  0  0  0  0
  -27.1217  -30.2393   26.3316 C   0  0  0  0  0  0  0  0  0  0  0  0
  -25.7463  -32.3089   26.1133 C   0  0  0  0  0  0  0  0  0  0  0  0
  -24.5551  -21.9509   22.3118 C   0  0  0  0  0  0  0  0  0  0  0  0
  -21.4450  -27.1499   24.7883 C   0  0  0  0  0  0  0  0  0  0  0  0
  -25.2699  -30.3390   24.6018 C   0  0  1  0  0  0  0  0  0  0  0  0
  -22.9063  -28.1202   26.5665 C   0  0  2  0  0  0  0  0  0  0  0  0
  -26.3858  -31.1467   25.3227 C   0  0  0  0  0  0  0  0  0  0  0  0
  -25.9735  -11.2704   20.0544 N   0  0  0  0  0  0  0  0  0  0  0  0
  -24.6263  -25.4182   20.4609 N   0  0  0  0  0  0  0  0  0  0  0  0
  -26.3683  -12.3062   19.2946 N   0  0  0  0  0  0  0  0  0  0  0  0
  -28.2374  -20.1275   19.1288 N   0  0  0  0  0  0  0  0  0  0  0  0
  -25.0464  -31.1810   22.2818 N   0  0  0  0  0  0  0  0  0  0  0  0
  -29.2900  -14.4207   20.5600 N   0  0  0  0  0  0  0  0  0  0  0  0
  -25.6248  -13.8206   17.6320 N   0  0  0  0  0  0  0  0  0  0  0  0
  -21.9904  -11.2528   18.4028 N   0  0  0  0  0  0  0  0  0  0  0  0
  -25.3190  -23.0140   21.7390 N   0  0  0  0  0  0  0  0  0  0  0  0
  -23.6109  -34.1759   21.7661 N   0  0  0  0  0  0  0  0  0  0  0  0
  -24.2569  -29.7897   25.4966 N   0  0  0  0  0  0  0  0  0  0  0  0
  -28.7862  -16.6528   19.9620 N   0  0  0  0  0  0  0  0  0  0  0  0
  -22.0995  -26.9543   26.1076 N   0  3  0  0  0  0  0  0  0  0  0  0
  -29.5252  -20.4462   17.1436 O   0  0  0  0  0  0  0  0  0  0  0  0
  -22.8067  -12.9997   17.1615 O   0  0  0  0  0  0  0  0  0  0  0  0
  -25.8510  -33.7139   21.3294 O   0  0  0  0  0  0  0  0  0  0  0  0
  -23.5206  -31.7890   23.9290 O   0  0  0  0  0  0  0  0  0  0  0  0
  -24.5625  -27.5711   24.8953 O   0  0  0  0  0  0  0  0  0  0  0  0
  -30.9431  -16.0430   20.4445 O   0  0  0  0  0  0  0  0  0  0  0  0
  -21.6459   -7.0361   22.0271 O   0  0  0  0  0  0  0  0  0  0  0  0
  -26.5687  -26.2118   19.3545 O   0  0  0  0  0  0  0  0  0  1  0  0
  -18.5643   -3.8993   18.7001 F   0  0  0  0  0  0  0  0  0  0  0  0
  -22.0367   -4.3026   21.8916 F   0  0  0  0  0  0  0  0  0  0  0  0
  1  2  1  0  0  0  0
  1  6  2  0  0  0  0
  2  7  2  0  0  0  0
  3 10  2  0  0  0  0
  3 18  1  0  0  0  0
  4 11  1  0  0  0  0
  4 18  2  0  0  0  0
  5  9  2  0  0  0  0
  5 19  1  0  0  0  0
  6 21  1  0  0  0  0
  7 23  1  0  0  0  0
  8 12  2  0  0  0  0
  8 22  1  0  0  0  0
  9 25  1  0  0  0  0
 10 27  1  0  0  0  0
 11 27  2  0  0  0  0
 12 28  1  0  0  0  0
 13 14  2  0  0  0  0
 13 29  1  0  0  0  0
 14 30  1  0  0  0  0
 15 24  1  0  0  0  0
 15 28  2  0  0  0  0
 16 25  2  0  0  0  0
 16 26  1  0  0  0  0
 17 30  2  0  0  0  0
 17 31  1  0  0  0  0
 18 32  1  0  0  0  0
 19 26  2  0  0  0  0
 19 35  1  0  0  0  0
 20 32  1  0  0  0  0
 20 33  2  0  0  0  0
 20 36  1  0  0  0  0
 21 23  2  0  0  0  0
 21 41  1  0  0  0  0
 22 24  2  0  0  0  0
 22 42  1  0  0  0  0
 23 52  1  0  0  0  0
 24 43  1  0  0  0  0
 25 68  1  0  0  0  0
 26 73  1  0  0  0  0
 27 84  1  0  0  0  0
 28 85  1  0  0  0  0
 29 31  2  0  0  0  0
 29 84  1  0  0  0  0
 30 86  1  0  0  0  0
 31 87  1  0  0  0  0
 32 65  2  0  0  0  0
 33 67  1  0  0  0  0
 33 71  1  0  0  0  0
 34 44  1  0  0  0  0
 34 68  1  0  0  0  0
 34 78  2  0  0  0  0
 35 66  2  0  0  0  0
 35 85  1  0  0  0  0
 36 72  1  0  0  0  0
 36 79  2  0  0  0  0
 37 53  1  0  0  0  0
 37 74  1  0  0  0  0
 37 80  2  0  0  0  0
 38 62  1  0  0  0  0
 38 69  1  0  0  0  0
 38 81  2  0  0  0  0
 39 63  1  0  0  0  0
 39 75  1  0  0  0  0
 39 82  2  0  0  0  0
 40 70  1  0  0  0  0
 40 76  1  0  0  0  0
 40 83  2  0  0  0  0
 41 45  1  0  0  0  0
 42 53  1  0  0  0  0
 43 69  1  0  0  0  0
 44 55  1  0  0  0  0
 45 47  1  0  0  0  0
 46 48  1  0  0  0  0
 46 49  1  0  0  0  0
 47 52  1  0  0  0  0
 48 54  1  0  0  0  0
 49 70  1  0  0  0  0
 50 54  1  0  0  0  0
 50 70  1  0  0  0  0
 51 55  1  0  0  0  0
 51 68  1  0  0  0  0
 52 74  1  0  0  0  0
 53 69  1  0  0  0  0
 54 67  1  0  0  0  0
 55 76  1  0  0  0  0
 56 63  1  0  0  0  0
 57 64  1  0  0  0  0
 58 64  1  0  0  0  0
 59 64  1  0  0  0  0
 60 73  1  0  0  0  0
 61 77  1  0  0  0  0
 62 64  1  0  0  0  0
 62 75  1  0  0  0  0
 63 77  1  0  0  0  0
 65 67  1  0  0  0  0
M  CHG  1  77   1
M  ISO  4  35 101  40 100  76 100  85 101
M  END
> <Batch ID>
0071

> <Smiles>
CNc1cc(N2CC([100NH:0][100C:0](=O)N3CCCC(n4nc(-c5ccc(Oc6ccc(F)cc6F)cc5)c(C(N)=O)c4N)C3)CC2=O)ccc1[101C:1](=N)[101O:1]c1ccc2c(c1)CN(C(=O)C(NC(=O)C(C)NC)C(C)(C)C)C(C(=O)NC1CCCc3ccccc31)C2

> <Shape>
0.258

> <Color>
0.115

> <Negative vol penalty>
0.000

$$$$

  -OEChem-04042323353D

 83 91  0     1  0  0  0  0  0999 V2000
  -26.4116   -3.0934   29.5230 C   0  0  0  0  0  0  0  0  0  0  0  0
  -27.2811   -4.1780   29.4691 C   0  0  0  0  0  0  0  0  0  0  0  0
  -23.1902   -9.8195   19.9318 C   0  0  0  0  0  0  0  0  0  0  0  0
  -23.5704   -9.9990   22.3109 C   0  0  0  0  0  0  0  0  0  0  0  0
  -33.3883  -11.7948   25.1071 C   0  0  0  0  0  0  0  0  0  0  0  0
  -25.0428   -3.2892   29.3448 C   0  0  0  0  0  0  0  0  0  0  0  0
  -26.7823   -5.4591   29.2357 C   0  0  0  0  0  0  0  0  0  0  0  0
  -28.8095   -8.9252   32.3214 C   0  0  0  0  0  0  0  0  0  0  0  0
  -32.6604  -12.1060   23.9587 C   0  0  0  0  0  0  0  0  0  0  0  0
  -22.4244   -8.6726   20.1406 C   0  0  0  0  0  0  0  0  0  0  0  0
  -22.8045   -8.8520   22.5198 C   0  0  0  0  0  0  0  0  0  0  0  0
  -30.0926   -9.3770   32.0160 C   0  0  0  0  0  0  0  0  0  0  0  0
  -23.2063   -5.5055   22.2539 C   0  0  0  0  0  0  0  0  0  0  0  0
  -23.7056   -4.5440   23.1323 C   0  0  0  0  0  0  0  0  0  0  0  0
  -29.1498  -11.3586   31.0141 C   0  0  0  0  0  0  0  0  0  0  0  0
  -30.7007  -12.5145   25.3115 C   0  0  0  0  0  0  0  0  0  0  0  0
  -21.7501   -4.8028   24.5274 C   0  0  0  0  0  0  0  0  0  0  0  0
  -23.7633  -10.4827   21.0169 C   0  0  0  0  0  0  0  0  0  0  0  0
  -32.7724  -11.8433   26.3577 C   0  0  0  0  0  0  0  0  0  0  0  0
  -24.1011  -12.9995   20.7740 C   0  0  0  0  0  0  0  0  0  0  0  0
  -24.5259   -4.5746   29.1187 C   0  0  0  0  0  0  0  0  0  0  0  0
  -27.6845   -9.6828   31.9652 C   0  0  0  0  0  0  0  0  0  0  0  0
  -25.4054   -5.6721   29.0529 C   0  0  0  0  0  0  0  0  0  0  0  0
  -27.8536  -10.9154   31.3185 C   0  0  0  0  0  0  0  0  0  0  0  0
  -31.3166  -12.4659   24.0608 C   0  0  0  0  0  0  0  0  0  0  0  0
  -22.2315   -8.1888   21.4346 C   0  0  0  0  0  0  0  0  0  0  0  0
  -30.2628  -10.5924   31.3596 C   0  0  0  0  0  0  0  0  0  0  0  0
  -21.9789   -6.1159   22.5123 C   0  0  0  0  0  0  0  0  0  0  0  0
  -22.9776   -4.1926   24.2690 C   0  0  0  0  0  0  0  0  0  0  0  0
  -31.4286  -12.2032   26.4599 C   0  0  0  0  0  0  0  0  0  0  0  0
  -21.2508   -5.7645   23.6490 C   0  0  0  0  0  0  0  0  0  0  0  0
  -24.5549  -11.6672   20.8017 C   0  0  0  0  0  0  0  0  0  0  0  0
  -25.2319  -13.7426   20.5381 C   0  0  0  0  0  0  0  0  0  0  0  0
  -33.5456  -11.5127   27.5716 C   0  0  0  0  0  0  0  0  0  0  0  0
  -22.7759  -13.5190   20.9461 C   0  0  0  0  0  0  0  0  0  0  0  0
  -25.1718   -9.2151   30.0755 C   0  0  0  0  0  0  0  0  0  0  0  0
  -24.2011  -12.0501   31.3176 C   0  0  0  0  0  0  0  0  0  0  0  0
  -25.0472  -15.0052   32.8002 C   0  0  0  0  0  0  0  0  0  0  0  0
  -31.0374  -12.7831   21.5773 C   0  0  0  0  0  0  0  0  0  0  0  0
  -23.0441   -4.7304   28.8848 C   0  0  0  0  0  0  0  0  0  0  0  0
  -26.3084   -9.1942   32.3257 C   0  0  0  0  0  0  0  0  0  0  0  0
  -26.6794  -11.7761   30.9326 C   0  0  0  0  0  0  0  0  0  0  0  0
  -22.5550   -6.1706   29.0150 C   0  0  0  0  0  0  0  0  0  0  0  0
  -29.5223  -13.4656   18.4284 C   0  0  0  0  0  0  0  0  0  0  0  0
  -23.4773   -7.1183   28.2549 C   0  0  0  0  0  0  0  0  0  0  0  0
  -28.0344  -13.2090   18.6788 C   0  0  0  0  0  0  0  0  0  0  0  0
  -30.4043  -12.4805   19.1935 C   0  0  0  0  0  0  0  0  0  0  0  0
  -28.6459  -12.1379   20.8846 C   0  0  0  0  0  0  0  0  0  0  0  0
  -24.8998   -7.0804   28.8265 C   0  0  1  0  0  0  0  0  0  0  0  0
  -25.2117   -9.8032   31.4576 C   0  0  1  0  0  0  0  0  0  0  0  0
  -27.7192  -13.1464   20.1862 C   0  0  2  0  0  0  0  0  0  0  0  0
  -24.0403  -17.1361   33.6621 C   0  0  0  0  0  0  0  0  0  0  0  0
  -23.8676  -13.0481   28.4535 C   0  0  0  0  0  0  0  0  0  0  0  0
  -23.7961  -15.3847   29.3500 C   0  0  0  0  0  0  0  0  0  0  0  0
  -22.0436  -13.7400   30.0184 C   0  0  0  0  0  0  0  0  0  0  0  0
  -26.0082  -14.4831   35.5503 C   0  0  0  0  0  0  0  0  0  0  0  0
  -33.5531  -10.6088   29.8693 C   0  0  0  0  0  0  0  0  0  0  0  0
  -32.5124  -10.0455   30.8156 C   0  0  0  0  0  0  0  0  0  1  0  0
  -24.3849  -13.5007   30.9422 C   0  0  1  0  0  0  0  0  0  0  0  0
  -24.4803  -15.7229   34.0118 C   0  0  2  0  0  0  0  0  0  0  0  0
  -23.5453  -13.9015   29.6964 C   0  0  0  0  0  0  0  0  0  0  0  0
  -25.8713  -11.5666   20.5995 N   0  0  0  0  0  0  0  0  0  0  0  0
  -26.2544  -12.8451   20.4423 N   0  0  0  0  0  0  0  0  0  0  0  0
  -25.3539  -11.2522   31.3011 N   0  0  0  0  0  0  0  0  0  0  0  0
  -30.0517  -12.4783   20.6150 N   0  0  0  0  0  0  0  0  0  0  0  0
  -25.4414  -15.0696   20.4052 N   0  0  0  0  0  0  0  0  0  0  0  0
  -34.8546  -11.7646   27.5705 N   0  0  0  0  0  0  0  0  0  0  0  0
  -21.7296  -12.6164   21.1806 N   0  0  0  0  0  0  0  0  0  0  0  0
  -30.5777  -12.7821   22.8938 N   0  0  0  0  0  0  0  0  0  0  0  0
  -24.9729   -7.8479   30.0513 N   0  0  0  0  0  0  0  0  0  0  0  0
  -24.0814  -14.2743   32.1413 N   0  0  0  0  0  0  0  0  0  0  0  0
  -32.8971  -10.9751   28.6116 N   0  3  0  0  0  0  0  0  0  0  0  0
  -25.5037  -15.8032   35.0922 N   0  3  0  0  0  0  0  0  0  0  0  0
  -22.5243  -14.7460   20.8772 O   0  0  0  0  0  0  0  0  0  0  0  0
  -25.3098   -9.9478   29.1029 O   0  0  0  0  0  0  0  0  0  0  0  0
  -23.0775  -11.6417   31.6213 O   0  0  0  0  0  0  0  0  0  0  0  0
  -26.2279  -15.0879   32.4691 O   0  0  0  0  0  0  0  0  0  0  0  0
  -32.1972  -13.0536   21.2551 O   0  0  0  0  0  0  0  0  0  0  0  0
  -21.4841   -7.0698   21.6388 O   0  0  0  0  0  0  0  0  0  0  0  0
  -31.5140  -11.0355   31.0597 O   0  0  0  0  0  0  0  0  0  1  0  0
  -23.4565   -3.2680   25.1116 F   0  0  0  0  0  0  0  0  0  0  0  0
  -30.8276  -12.2508   27.6571 F   0  0  0  0  0  0  0  0  0  0  0  0
  -20.0705   -6.3465   23.9018 F   0  0  0  0  0  0  0  0  0  0  0  0
  1  2  1  0  0  0  0
  1  6  2  0  0  0  0
  2  7  2  0  0  0  0
  3 10  2  0  0  0  0
  3 18  1  0  0  0  0
  4 11  1  0  0  0  0
  4 18  2  0  0  0  0
  5  9  2  0  0  0  0
  5 19  1  0  0  0  0
  6 21  1  0  0  0  0
  7 23  1  0  0  0  0
  8 12  2  0  0  0  0
  8 22  1  0  0  0  0
  9 25  1  0  0  0  0
 10 26  1  0  0  0  0
 11 26  2  0  0  0  0
 12 27  1  0  0  0  0
 13 14  2  0  0  0  0
 13 28  1  0  0  0  0
 14 29  1  0  0  0  0
 15 24  1  0  0  0  0
 15 27  2  0  0  0  0
 16 25  2  0  0  0  0
 16 30  1  0  0  0  0
 17 29  2  0  0  0  0
 17 31  1  0  0  0  0
 18 32  1  0  0  0  0
 19 30  2  0  0  0  0
 19 34  1  0  0  0  0
 20 32  1  0  0  0  0
 20 33  2  0  0  0  0
 20 35  1  0  0  0  0
 21 23  2  0  0  0  0
 21 40  1  0  0  0  0
 22 24  2  0  0  0  0
 22 41  1  0  0  0  0
 23 49  1  0  0  0  0
 24 42  1  0  0  0  0
 25 69  1  0  0  0  0
 26 79  1  0  0  0  0
 27 80  1  0  0  0  0
 28 31  2  0  0  0  0
 28 79  1  0  0  0  0
 29 81  1  0  0  0  0
 30 82  1  0  0  0  0
 31 83  1  0  0  0  0
 32 62  2  0  0  0  0
 33 63  1  0  0  0  0
 33 66  1  0  0  0  0
 34 67  1  0  0  0  0
 34 72  2  0  0  0  0
 35 68  1  0  0  0  0
 35 74  2  0  0  0  0
 36 50  1  0  0  0  0
 36 70  1  0  0  0  0
 36 75  2  0  0  0  0
 37 59  1  0  0  0  0
 37 64  1  0  0  0  0
 37 76  2  0  0  0  0
 38 60  1  0  0  0  0
 38 71  1  0  0  0  0
 38 77  2  0  0  0  0
 39 65  1  0  0  0  0
 39 69  1  0  0  0  0
 39 78  2  0  0  0  0
 40 43  1  0  0  0  0
 41 50  1  0  0  0  0
 42 64  1  0  0  0  0
 43 45  1  0  0  0  0
 44 46  1  0  0  0  0
 44 47  1  0  0  0  0
 45 49  1  0  0  0  0
 46 51  1  0  0  0  0
 47 65  1  0  0  0  0
 48 51  1  0  0  0  0
 48 65  1  0  0  0  0
 49 70  1  0  0  0  0
 50 64  1  0  0  0  0
 51 63  1  0  0  0  0
 52 60  1  0  0  0  0
 53 61  1  0  0  0  0
 54 61  1  0  0  0  0
 55 61  1  0  0  0  0
 56 73  1  0  0  0  0
 57 58  1  0  0  0  0
 57 72  1  0  0  0  0
 58 80  1  0  0  0  0
 59 61  1  0  0  0  0
 59 71  1  0  0  0  0
 60 73  1  0  0  0  0
 62 63  1  0  0  0  0
M  CHG  2  72   1  73   1
M  ISO  4  39 100  58 101  69 100  80 101
M  END
> <Batch ID>
0071

> <Smiles>
CNC(C)C(=O)NC(C(=O)N1Cc2cc([101O:1][101CH2:1]CNC(=N)c3ccc([100NH:0][100C:0](=O)N4CCCC(n5nc(-c6ccc(Oc7ccc(F)cc7F)cc6)c(C(N)=O)c5N)C4)cc3F)ccc2CC1C(=O)NC1CCCc2ccccc21)C(C)(C)C

> <Shape>
0.140

> <Color>
0.178

> <Negative vol penalty>
0.000

$$$$

  -OEChem-04042323353D

 86 94  0     1  0  0  0  0  0999 V2000
  -25.6126  -35.9012   22.3221 C   0  0  0  0  0  0  0  0  0  0  0  0
  -26.1846  -34.6337   22.2812 C   0  0  0  0  0  0  0  0  0  0  0  0
  -23.0507   -9.8926   19.9270 C   0  0  0  0  0  0  0  0  0  0  0  0
  -23.8251   -9.8557   22.2152 C   0  0  0  0  0  0  0  0  0  0  0  0
  -29.7787  -19.1844   22.4667 C   0  0  0  0  0  0  0  0  0  0  0  0
  -24.5465  -36.2111   21.4787 C   0  0  0  0  0  0  0  0  0  0  0  0
  -25.6900  -33.6750   21.3976 C   0  0  0  0  0  0  0  0  0  0  0  0
  -28.9046  -29.3674   18.4621 C   0  0  0  0  0  0  0  0  0  0  0  0
  -29.5960  -17.8019   22.4382 C   0  0  0  0  0  0  0  0  0  0  0  0
  -22.2960   -8.7437   20.1639 C   0  0  0  0  0  0  0  0  0  0  0  0
  -23.0703   -8.7069   22.4522 C   0  0  0  0  0  0  0  0  0  0  0  0
  -29.1195  -28.0152   18.7248 C   0  0  0  0  0  0  0  0  0  0  0  0
  -19.3484   -7.9565   21.6217 C   0  0  0  0  0  0  0  0  0  0  0  0
  -18.0381   -7.9319   21.1443 C   0  0  0  0  0  0  0  0  0  0  0  0
  -27.3235  -27.4434   17.2192 C   0  0  0  0  0  0  0  0  0  0  0  0
  -31.2141  -17.6248   20.6528 C   0  0  0  0  0  0  0  0  0  0  0  0
  -18.5683   -6.0037   19.7885 C   0  0  0  0  0  0  0  0  0  0  0  0
  -23.8154  -10.4485   20.9527 C   0  0  0  0  0  0  0  0  0  0  0  0
  -30.6791  -19.7872   21.5881 C   0  0  0  0  0  0  0  0  0  0  0  0
  -24.1838  -12.9714   20.8695 C   0  0  0  0  0  0  0  0  0  0  0  0
  -24.0449  -35.2588   20.5775 C   0  0  0  0  0  0  0  0  0  0  0  0
  -27.8887  -29.7690   17.5828 C   0  0  0  0  0  0  0  0  0  0  0  0
  -24.6153  -33.9721   20.5423 C   0  0  0  0  0  0  0  0  0  0  0  0
  -27.0994  -28.8013   16.9450 C   0  0  0  0  0  0  0  0  0  0  0  0
  -30.3137  -17.0221   21.5313 C   0  0  0  0  0  0  0  0  0  0  0  0
  -22.3057   -8.1509   21.4265 C   0  0  0  0  0  0  0  0  0  0  0  0
  -28.3270  -27.0531   18.1056 C   0  0  0  0  0  0  0  0  0  0  0  0
  -20.2688   -7.0047   21.1825 C   0  0  0  0  0  0  0  0  0  0  0  0
  -17.6480   -6.9555   20.2277 C   0  0  0  0  0  0  0  0  0  0  0  0
  -31.3968  -19.0074   20.6812 C   0  0  0  0  0  0  0  0  0  0  0  0
  -19.8787   -6.0283   20.2660 C   0  0  0  0  0  0  0  0  0  0  0  0
  -24.5957  -11.6349   20.7084 C   0  0  0  0  0  0  0  0  0  0  0  0
  -25.2817  -13.7147   20.5108 C   0  0  0  0  0  0  0  0  0  0  0  0
  -30.8698  -21.2512   21.6203 C   0  0  0  0  0  0  0  0  0  0  0  0
  -22.9217  -13.4943   21.3046 C   0  0  0  0  0  0  0  0  0  0  0  0
  -25.2470  -31.5157   17.8553 C   0  0  0  0  0  0  0  0  0  0  0  0
  -29.6747  -23.9010   19.4608 C   0  0  0  0  0  0  0  0  0  0  0  0
  -25.1241  -31.1254   14.6374 C   0  0  0  0  0  0  0  0  0  0  0  0
  -26.0113  -29.2806   11.9068 C   0  0  0  0  0  0  0  0  0  0  0  0
  -30.7600  -14.6985   20.6663 C   0  0  0  0  0  0  0  0  0  0  0  0
  -22.8603  -35.6252   19.7190 C   0  0  0  0  0  0  0  0  0  0  0  0
  -27.6871  -31.2304   17.2895 C   0  0  0  0  0  0  0  0  0  0  0  0
  -26.0090  -29.1793   15.9773 C   0  0  0  0  0  0  0  0  0  0  0  0
  -22.6390  -34.6717   18.5476 C   0  0  0  0  0  0  0  0  0  0  0  0
  -29.6045  -12.3339   18.2682 C   0  0  0  0  0  0  0  0  0  0  0  0
  -22.7317  -33.2224   19.0140 C   0  0  0  0  0  0  0  0  0  0  0  0
  -28.1645  -12.0512   18.7025 C   0  0  0  0  0  0  0  0  0  0  0  0
  -30.5296  -12.5341   19.4673 C   0  0  0  0  0  0  0  0  0  0  0  0
  -28.6394  -13.2576   20.8719 C   0  0  0  0  0  0  0  0  0  0  0  0
  -24.1229  -32.9130   19.5801 C   0  0  1  0  0  0  0  0  0  0  0  0
  -26.2877  -31.5485   16.7720 C   0  0  1  0  0  0  0  0  0  0  0  0
  -27.6573  -13.1131   19.6979 C   0  0  2  0  0  0  0  0  0  0  0  0
  -32.1334  -23.7385   19.9470 C   0  0  0  0  0  0  0  0  0  0  0  0
  -25.7303  -29.1900    9.4147 C   0  0  0  0  0  0  0  0  0  0  0  0
  -22.2805  -30.0797   14.9985 C   0  0  0  0  0  0  0  0  0  0  0  0
  -22.4067  -29.1393   12.6816 C   0  0  0  0  0  0  0  0  0  0  0  0
  -22.5915  -31.6012   13.0382 C   0  0  0  0  0  0  0  0  0  0  0  0
  -28.9243  -29.5392   11.4525 C   0  0  0  0  0  0  0  0  0  0  0  0
  -29.5808  -25.4038   19.2734 C   0  0  0  0  0  0  0  0  0  1  0  0
  -30.7339  -23.4084   20.4267 C   0  0  2  0  0  0  0  0  0  0  0  0
  -24.5159  -30.1041   13.7068 C   0  0  1  0  0  0  0  0  0  0  0  0
  -26.5943  -29.6843   10.5645 C   0  0  2  0  0  0  0  0  0  0  0  0
  -22.9679  -30.2237   13.6259 C   0  0  0  0  0  0  0  0  0  0  0  0
  -25.8568  -11.5320   20.2805 N   0  0  0  0  0  0  0  0  0  0  0  0
  -26.2468  -12.8133   20.1696 N   0  0  0  0  0  0  0  0  0  0  0  0
  -25.8467  -30.6212   15.7281 N   0  0  0  0  0  0  0  0  0  0  0  0
  -29.9874  -13.5572   20.3641 N   0  0  0  0  0  0  0  0  0  0  0  0
  -25.5061  -15.0448   20.4570 N   0  0  0  0  0  0  0  0  0  0  0  0
  -21.9021  -12.5910   21.6343 N   0  0  0  0  0  0  0  0  0  0  0  0
  -30.1279  -15.6176   21.5031 N   0  0  0  0  0  0  0  0  0  0  0  0
  -30.6017  -21.9574   20.5119 N   0  0  0  0  0  0  0  0  0  0  0  0
  -25.0744  -32.7222   18.5064 N   0  0  0  0  0  0  0  0  0  0  0  0
  -25.1953  -30.2636   12.4256 N   0  0  0  0  0  0  0  0  0  0  0  0
  -31.3036  -21.8035   22.7534 N   0  3  0  0  0  0  0  0  0  0  0  0
  -27.9625  -29.1164   10.4022 N   0  3  0  0  0  0  0  0  0  0  0  0
  -22.6992  -14.7264   21.3824 O   0  0  0  0  0  0  0  0  0  0  0  0
  -24.6441  -30.4733   18.0826 O   0  0  0  0  0  0  0  0  0  0  0  0
  -28.9278  -23.1302   18.8576 O   0  0  0  0  0  0  0  0  0  0  0  0
  -24.9700  -32.3263   14.4013 O   0  0  0  0  0  0  0  0  0  0  0  0
  -26.2525  -28.1997   12.4398 O   0  0  0  0  0  0  0  0  0  0  0  0
  -31.8879  -14.8623   20.1940 O   0  0  0  0  0  0  0  0  0  0  0  0
  -21.5691   -7.0300   21.6581 O   0  0  0  0  0  0  0  0  0  0  0  0
  -28.5342  -25.7325   18.3607 O   0  0  0  0  0  0  0  0  0  1  0  0
  -16.3892   -6.9310   19.7705 F   0  0  0  0  0  0  0  0  0  0  0  0
  -32.2628  -19.5777   19.8318 F   0  0  0  0  0  0  0  0  0  0  0  0
  -20.7581   -5.1106   19.8413 F   0  0  0  0  0  0  0  0  0  0  0  0
  1  2  1  0  0  0  0
  1  6  2  0  0  0  0
  2  7  2  0  0  0  0
  3 10  2  0  0  0  0
  3 18  1  0  0  0  0
  4 11  1  0  0  0  0
  4 18  2  0  0  0  0
  5  9  2  0  0  0  0
  5 19  1  0  0  0  0
  6 21  1  0  0  0  0
  7 23  1  0  0  0  0
  8 12  2  0  0  0  0
  8 22  1  0  0  0  0
  9 25  1  0  0  0  0
 10 26  1  0  0  0  0
 11 26  2  0  0  0  0
 12 27  1  0  0  0  0
 13 14  2  0  0  0  0
 13 28  1  0  0  0  0
 14 29  1  0  0  0  0
 15 24  1  0  0  0  0
 15 27  2  0  0  0  0
 16 25  2  0  0  0  0
 16 30  1  0  0  0  0
 17 29  2  0  0  0  0
 17 31  1  0  0  0  0
 18 32  1  0  0  0  0
 19 30  2  0  0  0  0
 19 34  1  0  0  0  0
 20 32  1  0  0  0  0
 20 33  2  0  0  0  0
 20 35  1  0  0  0  0
 21 23  2  0  0  0  0
 21 41  1  0  0  0  0
 22 24  2  0  0  0  0
 22 42  1  0  0  0  0
 23 50  1  0  0  0  0
 24 43  1  0  0  0  0
 25 70  1  0  0  0  0
 26 82  1  0  0  0  0
 27 83  1  0  0  0  0
 28 31  2  0  0  0  0
 28 82  1  0  0  0  0
 29 84  1  0  0  0  0
 30 85  1  0  0  0  0
 31 86  1  0  0  0  0
 32 64  2  0  0  0  0
 33 65  1  0  0  0  0
 33 68  1  0  0  0  0
 34 71  1  0  0  0  0
 34 74  2  0  0  0  0
 35 69  1  0  0  0  0
 35 76  2  0  0  0  0
 36 51  1  0  0  0  0
 36 72  1  0  0  0  0
 36 77  2  0  0  0  0
 37 59  1  0  0  0  0
 37 60  1  0  0  0  0
 37 78  2  0  0  0  0
 38 61  1  0  0  0  0
 38 66  1  0  0  0  0
 38 79  2  0  0  0  0
 39 62  1  0  0  0  0
 39 73  1  0  0  0  0
 39 80  2  0  0  0  0
 40 67  1  0  0  0  0
 40 70  1  0  0  0  0
 40 81  2  0  0  0  0
 41 44  1  0  0  0  0
 42 51  1  0  0  0  0
 43 66  1  0  0  0  0
 44 46  1  0  0  0  0
 45 47  1  0  0  0  0
 45 48  1  0  0  0  0
 46 50  1  0  0  0  0
 47 52  1  0  0  0  0
 48 67  1  0  0  0  0
 49 52  1  0  0  0  0
 49 67  1  0  0  0  0
 50 72  1  0  0  0  0
 51 66  1  0  0  0  0
 52 65  1  0  0  0  0
 53 60  1  0  0  0  0
 54 62  1  0  0  0  0
 55 63  1  0  0  0  0
 56 63  1  0  0  0  0
 57 63  1  0  0  0  0
 58 75  1  0  0  0  0
 59 83  1  0  0  0  0
 60 71  1  0  0  0  0
 61 63  1  0  0  0  0
 61 73  1  0  0  0  0
 62 75  1  0  0  0  0
 64 65  1  0  0  0  0
M  CHG  2  74   1  75   1
M  ISO  4  40 100  59 101  70 100  83 101
M  END
> <Batch ID>
0071

> <Smiles>
CNC(C)C(=O)NC(C(=O)N1Cc2cc([101O:1][101CH2:1]C(=O)C(C)NC(=N)c3ccc([100NH:0][100C:0](=O)N4CCCC(n5nc(-c6ccc(Oc7ccc(F)cc7F)cc6)c(C(N)=O)c5N)C4)cc3F)ccc2CC1C(=O)NC1CCCc2ccccc21)C(C)(C)C

> <Shape>
0.209

> <Color>
0.208

> <Negative vol penalty>
0.000

$$$$

  -OEChem-04042323353D

 86 95  0     1  0  0  0  0  0999 V2000
  -29.2873  -31.7372   26.3782 C   0  0  0  0  0  0  0  0  0  0  0  0
  -29.0171  -30.6072   25.6131 C   0  0  0  0  0  0  0  0  0  0  0  0
  -22.4799  -11.6293   21.3127 C   0  0  0  0  0  0  0  0  0  0  0  0
  -24.1154  -10.3032   22.4973 C   0  0  0  0  0  0  0  0  0  0  0  0
  -28.2430  -32.5619   26.7945 C   0  0  0  0  0  0  0  0  0  0  0  0
  -27.7021  -30.3006   25.2647 C   0  0  0  0  0  0  0  0  0  0  0  0
  -27.2422  -28.9638   20.4019 C   0  0  0  0  0  0  0  0  0  0  0  0
  -21.5738  -11.4448   22.3569 C   0  0  0  0  0  0  0  0  0  0  0  0
  -23.2094  -10.1187   23.5417 C   0  0  0  0  0  0  0  0  0  0  0  0
  -27.6275  -27.6687   20.0584 C   0  0  0  0  0  0  0  0  0  0  0  0
  -20.5126   -8.1846   24.1878 C   0  0  0  0  0  0  0  0  0  0  0  0
  -20.3793   -6.8983   24.7105 C   0  0  0  0  0  0  0  0  0  0  0  0
  -25.3155  -26.9808   20.0825 C   0  0  0  0  0  0  0  0  0  0  0  0
  -29.7903  -18.3661   18.7960 C   0  0  0  0  0  0  0  0  0  0  0  0
  -27.3712  -19.7061   18.4288 C   0  0  0  0  0  0  0  0  0  0  0  0
  -21.0681   -7.7085   26.8799 C   0  0  0  0  0  0  0  0  0  0  0  0
  -23.7507  -11.0585   21.3828 C   0  0  0  0  0  0  0  0  0  0  0  0
  -24.5231  -10.8659   18.9592 C   0  0  0  0  0  0  0  0  0  0  0  0
  -26.9156  -32.2705   26.4428 C   0  0  0  0  0  0  0  0  0  0  0  0
  -25.8892  -29.2751   20.5993 C   0  0  0  0  0  0  0  0  0  0  0  0
  -26.6390  -31.1214   25.6777 C   0  0  0  0  0  0  0  0  0  0  0  0
  -24.9154  -28.2812   20.4259 C   0  0  0  0  0  0  0  0  0  0  0  0
  -29.7872  -19.7111   18.4266 C   0  0  0  0  0  0  0  0  0  0  0  0
  -28.5776  -20.3811   18.2430 C   0  0  0  0  0  0  0  0  0  0  0  0
  -28.5839  -17.6910   18.9817 C   0  0  0  0  0  0  0  0  0  0  0  0
  -21.9386  -10.6895   23.4715 C   0  0  0  0  0  0  0  0  0  0  0  0
  -26.6644  -26.6763   19.9015 C   0  0  0  0  0  0  0  0  0  0  0  0
  -20.9237   -9.2329   25.0111 C   0  0  0  0  0  0  0  0  0  0  0  0
  -20.6571   -6.6602   26.0566 C   0  0  0  0  0  0  0  0  0  0  0  0
  -27.3743  -18.3610   18.7982 C   0  0  0  0  0  0  0  0  0  0  0  0
  -21.2014   -8.9948   26.3571 C   0  0  0  0  0  0  0  0  0  0  0  0
  -24.6869  -11.2482   20.3041 C   0  0  0  0  0  0  0  0  0  0  0  0
  -25.6844  -11.2661   18.3446 C   0  0  0  0  0  0  0  0  0  0  0  0
  -28.1214  -24.0305   17.9610 C   0  0  0  0  0  0  0  0  0  0  0  0
  -29.1029  -22.3147   16.6962 C   0  0  0  0  0  0  0  0  0  0  0  0
  -27.7071  -25.2281   18.3894 C   0  0  0  0  0  0  0  0  0  1  0  0
  -23.4199  -10.2078   18.3224 C   0  0  0  0  0  0  0  0  0  0  0  0
  -24.1624  -30.3163   23.0564 C   0  0  0  0  0  0  0  0  0  0  0  0
  -21.8058  -30.4706   20.8327 C   0  0  0  0  0  0  0  0  0  0  0  0
  -20.6353  -28.4385   18.0908 C   0  0  0  0  0  0  0  0  0  0  0  0
  -29.7018  -15.5138   19.5787 C   0  0  0  0  0  0  0  0  0  0  0  0
  -25.8155  -33.1656   26.9560 C   0  0  0  0  0  0  0  0  0  0  0  0
  -25.4876  -30.6832   20.9434 C   0  0  0  0  0  0  0  0  0  0  0  0
  -23.4480  -28.5687   20.6066 C   0  0  0  0  0  0  0  0  0  0  0  0
  -28.8514  -23.8038   16.6840 C   0  0  0  0  0  0  0  0  0  0  0  0
  -27.9173  -22.7568   18.7031 C   0  0  0  0  0  0  0  0  0  0  0  0
  -24.4869  -32.9761   26.2285 C   0  0  0  0  0  0  0  0  0  0  0  0
  -30.3269  -12.0248   19.2419 C   0  0  0  0  0  0  0  0  0  0  0  0
  -24.1613  -31.4923   26.0894 C   0  0  0  0  0  0  0  0  0  0  0  0
  -28.9360  -11.3954   19.3476 C   0  0  0  0  0  0  0  0  0  0  0  0
  -30.4769  -13.2283   20.1708 C   0  0  0  0  0  0  0  0  0  0  0  0
  -28.0459  -13.6258   20.1349 C   0  0  0  0  0  0  0  0  0  0  0  0
  -25.2282  -30.7690   25.2587 C   0  0  1  0  0  0  0  0  0  0  0  0
  -24.1246  -30.7666   21.6234 C   0  0  1  0  0  0  0  0  0  0  0  0
  -27.8255  -12.4494   19.1700 C   0  0  2  0  0  0  0  0  0  0  0  0
  -31.0944  -20.4093   18.2341 C   0  0  0  0  0  0  0  0  0  0  0  0
  -19.4162  -29.0758   15.9921 C   0  0  0  0  0  0  0  0  0  0  0  0
  -19.2954  -29.8035   22.4335 C   0  0  0  0  0  0  0  0  0  0  0  0
  -18.3189  -28.8071   20.3545 C   0  0  0  0  0  0  0  0  0  0  0  0
  -18.8994  -31.2323   20.4195 C   0  0  0  0  0  0  0  0  0  0  0  0
  -22.6818  -27.1615   16.3761 C   0  0  0  0  0  0  0  0  0  0  0  0
  -20.7534  -29.5162   20.3222 C   0  0  1  0  0  0  0  0  0  0  0  0
  -20.7662  -28.7472   16.6103 C   0  0  2  0  0  0  0  0  0  0  0  0
  -19.3416  -29.8304   20.8927 C   0  0  0  0  0  0  0  0  0  0  0  0
  -25.8599  -11.8453   20.5312 N   0  0  0  0  0  0  0  0  0  0  0  0
  -26.4437  -11.8411   19.3207 N   0  0  0  0  0  0  0  0  0  0  0  0
  -28.5527  -21.7618   17.8629 N   0  0  0  0  0  0  0  0  0  0  0  0
  -23.1061  -29.9591   20.9489 N   0  0  0  0  0  0  0  0  0  0  0  0
  -29.3928  -14.1862   19.9431 N   0  0  0  0  0  0  0  0  0  0  0  0
  -26.1199  -11.1786   17.0698 N   0  0  0  0  0  0  0  0  0  0  0  0
  -23.4145   -8.8071   18.2747 N   0  0  0  0  0  0  0  0  0  0  0  0
  -28.5891  -16.3246   19.3567 N   0  0  0  0  0  0  0  0  0  0  0  0
  -25.0371  -31.0347   23.8490 N   0  0  0  0  0  0  0  0  0  0  0  0
  -20.8332  -29.5614   18.8662 N   0  0  0  0  0  0  0  0  0  0  0  0
  -21.3427  -27.5790   15.8865 N   0  3  0  0  0  0  0  0  0  0  0  0
  -29.7028  -21.7648   15.7811 O   0  0  0  0  0  0  0  0  0  0  0  0
  -22.4751  -10.8436   17.7963 O   0  0  0  0  0  0  0  0  0  0  0  0
  -23.4495  -29.3870   23.4168 O   0  0  0  0  0  0  0  0  0  0  0  0
  -21.4874  -31.6294   21.1110 O   0  0  0  0  0  0  0  0  0  0  0  0
  -20.3792  -27.3144   18.5168 O   0  0  0  0  0  0  0  0  0  0  0  0
  -30.8673  -15.8955   19.4449 O   0  0  0  0  0  0  0  0  0  0  0  0
  -21.0548  -10.5095   24.4908 O   0  0  0  0  0  0  0  0  0  0  0  0
  -27.0379  -25.4112   19.5668 O   0  0  0  0  0  0  0  0  0  1  0  0
  -20.5275   -5.4252   26.5587 F   0  0  0  0  0  0  0  0  0  0  0  0
  -26.2093  -17.7216   18.9750 F   0  0  0  0  0  0  0  0  0  0  0  0
  -21.5956   -9.9981   27.1533 F   0  0  0  0  0  0  0  0  0  0  0  0
  1  2  1  0  0  0  0
  1  5  2  0  0  0  0
  2  6  2  0  0  0  0
  3  8  2  0  0  0  0
  3 17  1  0  0  0  0
  4  9  1  0  0  0  0
  4 17  2  0  0  0  0
  5 19  1  0  0  0  0
  6 21  1  0  0  0  0
  7 10  2  0  0  0  0
  7 20  1  0  0  0  0
  8 26  1  0  0  0  0
  9 26  2  0  0  0  0
 10 27  1  0  0  0  0
 11 12  2  0  0  0  0
 11 28  1  0  0  0  0
 12 29  1  0  0  0  0
 13 22  1  0  0  0  0
 13 27  2  0  0  0  0
 14 23  1  0  0  0  0
 14 25  2  0  0  0  0
 15 24  1  0  0  0  0
 15 30  2  0  0  0  0
 16 29  2  0  0  0  0
 16 31  1  0  0  0  0
 17 32  1  0  0  0  0
 18 32  1  0  0  0  0
 18 33  2  0  0  0  0
 18 37  1  0  0  0  0
 19 21  2  0  0  0  0
 19 42  1  0  0  0  0
 20 22  2  0  0  0  0
 20 43  1  0  0  0  0
 21 53  1  0  0  0  0
 22 44  1  0  0  0  0
 23 24  2  0  0  0  0
 23 56  1  0  0  0  0
 24 67  1  0  0  0  0
 25 30  1  0  0  0  0
 25 72  1  0  0  0  0
 26 82  1  0  0  0  0
 27 83  1  0  0  0  0
 28 31  2  0  0  0  0
 28 82  1  0  0  0  0
 29 84  1  0  0  0  0
 30 85  1  0  0  0  0
 31 86  1  0  0  0  0
 32 65  2  0  0  0  0
 33 66  1  0  0  0  0
 33 70  1  0  0  0  0
 34 36  2  0  0  0  0
 34 45  1  0  0  0  0
 34 46  1  0  0  0  0
 35 45  1  0  0  0  0
 35 67  1  0  0  0  0
 35 76  2  0  0  0  0
 36 83  1  0  0  0  0
 37 71  1  0  0  0  0
 37 77  2  0  0  0  0
 38 54  1  0  0  0  0
 38 73  1  0  0  0  0
 38 78  2  0  0  0  0
 39 62  1  0  0  0  0
 39 68  1  0  0  0  0
 39 79  2  0  0  0  0
 40 63  1  0  0  0  0
 40 74  1  0  0  0  0
 40 80  2  0  0  0  0
 41 69  1  0  0  0  0
 41 72  1  0  0  0  0
 41 81  2  0  0  0  0
 42 47  1  0  0  0  0
 43 54  1  0  0  0  0
 44 68  1  0  0  0  0
 46 67  1  0  0  0  0
 47 49  1  0  0  0  0
 48 50  1  0  0  0  0
 48 51  1  0  0  0  0
 49 53  1  0  0  0  0
 50 55  1  0  0  0  0
 51 69  1  0  0  0  0
 52 55  1  0  0  0  0
 52 69  1  0  0  0  0
 53 73  1  0  0  0  0
 54 68  1  0  0  0  0
 55 66  1  0  0  0  0
 57 63  1  0  0  0  0
 58 64  1  0  0  0  0
 59 64  1  0  0  0  0
 60 64  1  0  0  0  0
 61 75  1  0  0  0  0
 62 64  1  0  0  0  0
 62 74  1  0  0  0  0
 63 75  1  0  0  0  0
 65 66  1  0  0  0  0
M  CHG  1  75   1
M  ISO  4  36 101  41 100  72 100  83 101
M  END
> <Batch ID>
0071

> <Smiles>
CNC(C)C(=O)NC(C(=O)N1Cc2cc([101O:1][101CH:1]=C3CC(=O)N(c4cc(F)c([100NH:0][100C:0](=O)N5CCCC(n6nc(-c7ccc(Oc8ccc(F)cc8F)cc7)c(C(N)=O)c6N)C5)cc4C)C3)ccc2CC1C(=O)NC1CCCc2ccccc21)C(C)(C)C

> <Shape>
0.269

> <Color>
0.086

> <Negative vol penalty>
0.000

$$$$

  -OEChem-04042323353D

 86 95  0     1  0  0  0  0  0999 V2000
  -28.2065  -36.8989   22.4934 C   0  0  0  0  0  0  0  0  0  0  0  0
  -28.6795  -35.6408   22.1342 C   0  0  0  0  0  0  0  0  0  0  0  0
  -23.4090   -9.8233   19.9104 C   0  0  0  0  0  0  0  0  0  0  0  0
  -24.1723   -9.8920   22.2016 C   0  0  0  0  0  0  0  0  0  0  0  0
  -27.0483  -37.0139   23.2609 C   0  0  0  0  0  0  0  0  0  0  0  0
  -27.9950  -34.4970   22.5433 C   0  0  0  0  0  0  0  0  0  0  0  0
  -27.3844  -29.2601   19.4275 C   0  0  0  0  0  0  0  0  0  0  0  0
  -22.8433   -8.5685   20.1364 C   0  0  0  0  0  0  0  0  0  0  0  0
  -23.6066   -8.6372   22.4277 C   0  0  0  0  0  0  0  0  0  0  0  0
  -28.0607  -28.0429   19.4972 C   0  0  0  0  0  0  0  0  0  0  0  0
  -20.5334   -7.3624   23.0199 C   0  0  0  0  0  0  0  0  0  0  0  0
  -19.7970   -7.1867   24.1913 C   0  0  0  0  0  0  0  0  0  0  0  0
  -26.3346  -27.1734   20.9407 C   0  0  0  0  0  0  0  0  0  0  0  0
  -29.6640  -20.1235   20.4716 C   0  0  0  0  0  0  0  0  0  0  0  0
  -29.1430  -20.0449   22.8294 C   0  0  0  0  0  0  0  0  0  0  0  0
  -21.3127   -5.4366   24.8818 C   0  0  0  0  0  0  0  0  0  0  0  0
  -24.0735  -10.4850   20.9429 C   0  0  0  0  0  0  0  0  0  0  0  0
  -24.0414  -13.0350   20.8780 C   0  0  0  0  0  0  0  0  0  0  0  0
  -26.3438  -35.8712   23.6715 C   0  0  0  0  0  0  0  0  0  0  0  0
  -26.1817  -29.4470   20.1239 C   0  0  0  0  0  0  0  0  0  0  0  0
  -26.8269  -34.5968   23.3182 C   0  0  0  0  0  0  0  0  0  0  0  0
  -25.6437  -28.3931   20.8762 C   0  0  0  0  0  0  0  0  0  0  0  0
  -29.3857  -20.7811   21.6698 C   0  0  0  0  0  0  0  0  0  0  0  0
  -29.4567  -17.9933   21.5926 C   0  0  0  0  0  0  0  0  0  0  0  0
  -22.9421   -7.9755   21.3951 C   0  0  0  0  0  0  0  0  0  0  0  0
  -27.5373  -27.0003   20.2562 C   0  0  0  0  0  0  0  0  0  0  0  0
  -21.6595   -6.5751   22.7793 C   0  0  0  0  0  0  0  0  0  0  0  0
  -20.1866   -6.2239   25.1223 C   0  0  0  0  0  0  0  0  0  0  0  0
  -29.6994  -18.7296   20.4330 C   0  0  0  0  0  0  0  0  0  0  0  0
  -29.1785  -18.6510   22.7908 C   0  0  0  0  0  0  0  0  0  0  0  0
  -22.0491   -5.6122   23.7103 C   0  0  0  0  0  0  0  0  0  0  0  0
  -24.6586  -11.7810   20.7098 C   0  0  0  0  0  0  0  0  0  0  0  0
  -25.0100  -13.9440   20.5289 C   0  0  0  0  0  0  0  0  0  0  0  0
  -29.1098  -23.0349   22.7151 C   0  0  0  0  0  0  0  0  0  0  0  0
  -22.7114  -13.3500   21.3112 C   0  0  0  0  0  0  0  0  0  0  0  0
  -25.2127  -31.3896   22.4458 C   0  0  0  0  0  0  0  0  0  0  0  0
  -22.3275  -30.0349   21.8435 C   0  0  0  0  0  0  0  0  0  0  0  0
  -20.5747  -27.3744   20.6202 C   0  0  0  0  0  0  0  0  0  0  0  0
  -30.2651  -15.7750   20.7141 C   0  0  0  0  0  0  0  0  0  0  0  0
  -25.1229  -36.0441   24.5399 C   0  0  0  0  0  0  0  0  0  0  0  0
  -25.4508  -30.7573   20.0169 C   0  0  0  0  0  0  0  0  0  0  0  0
  -24.3454  -28.5361   21.6261 C   0  0  0  0  0  0  0  0  0  0  0  0
  -24.2484  -34.7953   24.6167 C   0  0  0  0  0  0  0  0  0  0  0  0
  -29.5030  -13.2756   18.2955 C   0  0  0  0  0  0  0  0  0  0  0  0
  -25.1049  -33.5583   24.8680 C   0  0  0  0  0  0  0  0  0  0  0  0
  -28.1239  -12.7671   18.7219 C   0  0  0  0  0  0  0  0  0  0  0  0
  -30.3814  -13.6100   19.4998 C   0  0  0  0  0  0  0  0  0  0  0  0
  -28.3966  -14.0174   20.9012 C   0  0  0  0  0  0  0  0  0  0  0  0
  -29.5639  -23.1480   20.6608 C   0  0  0  0  0  0  0  0  0  0  0  0
  -26.0985  -33.3332   23.7219 C   0  0  1  0  0  0  0  0  0  0  0  0
  -24.4971  -31.0063   21.1814 C   0  0  1  0  0  0  0  0  0  0  0  0
  -27.4531  -13.7290   19.7221 C   0  0  2  0  0  0  0  0  0  0  0  0
  -29.3024  -24.2361   21.7451 C   0  0  2  0  0  0  0  0  0  0  0  0
  -30.5090  -25.1079   22.0749 C   0  0  0  0  0  0  0  0  0  0  0  0
  -18.2299  -26.5402   20.2986 C   0  0  0  0  0  0  0  0  0  0  0  0
  -22.1576  -29.3731   24.8173 C   0  0  0  0  0  0  0  0  0  0  0  0
  -20.3228  -27.7561   24.2814 C   0  0  0  0  0  0  0  0  0  0  0  0
  -20.0198  -30.1861   23.8057 C   0  0  0  0  0  0  0  0  0  0  0  0
  -20.8964  -27.2559   17.6806 C   0  0  0  0  0  0  0  0  0  0  0  0
  -28.0452  -25.0556   21.5274 C   0  0  0  0  0  0  0  0  0  1  0  0
  -21.5855  -28.8258   22.3598 C   0  0  1  0  0  0  0  0  0  0  0  0
  -19.3908  -27.2978   19.6731 C   0  0  2  0  0  0  0  0  0  0  0  0
  -21.0469  -29.0329   23.8036 C   0  0  0  0  0  0  0  0  0  0  0  0
  -25.9215  -11.8805   20.2866 N   0  0  0  0  0  0  0  0  0  0  0  0
  -26.1057  -13.2079   20.1858 N   0  0  0  0  0  0  0  0  0  0  0  0
  -29.3501  -22.1555   21.7080 N   0  0  0  0  0  0  0  0  0  0  0  0
  -23.6714  -29.8385   21.4953 N   0  0  0  0  0  0  0  0  0  0  0  0
  -29.6824  -14.5287   20.4011 N   0  0  0  0  0  0  0  0  0  0  0  0
  -25.0228  -15.2932   20.4849 N   0  0  0  0  0  0  0  0  0  0  0  0
  -21.8454  -12.2954   21.6306 N   0  0  0  0  0  0  0  0  0  0  0  0
  -29.4938  -16.5774   21.5542 N   0  0  0  0  0  0  0  0  0  0  0  0
  -25.4290  -32.7477   22.5802 N   0  0  0  0  0  0  0  0  0  0  0  0
  -20.5522  -28.5291   21.3735 N   0  0  0  0  0  0  0  0  0  0  0  0
  -19.7799  -26.6044   18.4127 N   0  3  0  0  0  0  0  0  0  0  0  0
  -28.8521  -22.8923   23.8887 O   0  0  0  0  0  0  0  0  0  0  0  0
  -22.2979  -14.5312   21.3963 O   0  0  0  0  0  0  0  0  0  0  0  0
  -25.5427  -30.5178   23.2413 O   0  0  0  0  0  0  0  0  0  0  0  0
  -21.7345  -31.1121   21.7459 O   0  0  0  0  0  0  0  0  0  0  0  0
  -21.4316  -26.4959   20.6878 O   0  0  0  0  0  0  0  0  0  0  0  0
  -31.3547  -16.1173   20.2477 O   0  0  0  0  0  0  0  0  0  0  0  0
  -22.3901   -6.7512   21.6161 O   0  0  0  0  0  0  0  0  0  0  0  0
  -28.1956  -25.8114   20.3264 O   0  0  0  0  0  0  0  0  0  1  0  0
  -19.4802   -6.0564   26.2480 F   0  0  0  0  0  0  0  0  0  0  0  0
  -29.9675  -18.1082   19.2755 F   0  0  0  0  0  0  0  0  0  0  0  0
  -28.9430  -17.9538   23.9116 F   0  0  0  0  0  0  0  0  0  0  0  0
  -23.1307   -4.8537   23.4853 F   0  0  0  0  0  0  0  0  0  0  0  0
  1  2  1  0  0  0  0
  1  5  2  0  0  0  0
  2  6  2  0  0  0  0
  3  8  2  0  0  0  0
  3 17  1  0  0  0  0
  4  9  1  0  0  0  0
  4 17  2  0  0  0  0
  5 19  1  0  0  0  0
  6 21  1  0  0  0  0
  7 10  2  0  0  0  0
  7 20  1  0  0  0  0
  8 25  1  0  0  0  0
  9 25  2  0  0  0  0
 10 26  1  0  0  0  0
 11 12  2  0  0  0  0
 11 27  1  0  0  0  0
 12 28  1  0  0  0  0
 13 22  1  0  0  0  0
 13 26  2  0  0  0  0
 14 23  1  0  0  0  0
 14 29  2  0  0  0  0
 15 23  2  0  0  0  0
 15 30  1  0  0  0  0
 16 28  2  0  0  0  0
 16 31  1  0  0  0  0
 17 32  1  0  0  0  0
 18 32  1  0  0  0  0
 18 33  2  0  0  0  0
 18 35  1  0  0  0  0
 19 21  2  0  0  0  0
 19 40  1  0  0  0  0
 20 22  2  0  0  0  0
 20 41  1  0  0  0  0
 21 50  1  0  0  0  0
 22 42  1  0  0  0  0
 23 66  1  0  0  0  0
 24 29  1  0  0  0  0
 24 30  2  0  0  0  0
 24 71  1  0  0  0  0
 25 81  1  0  0  0  0
 26 82  1  0  0  0  0
 27 31  2  0  0  0  0
 27 81  1  0  0  0  0
 28 83  1  0  0  0  0
 29 84  1  0  0  0  0
 30 85  1  0  0  0  0
 31 86  1  0  0  0  0
 32 64  2  0  0  0  0
 33 65  1  0  0  0  0
 33 69  1  0  0  0  0
 34 53  1  0  0  0  0
 34 66  1  0  0  0  0
 34 75  2  0  0  0  0
 35 70  1  0  0  0  0
 35 76  2  0  0  0  0
 36 51  1  0  0  0  0
 36 72  1  0  0  0  0
 36 77  2  0  0  0  0
 37 61  1  0  0  0  0
 37 67  1  0  0  0  0
 37 78  2  0  0  0  0
 38 62  1  0  0  0  0
 38 73  1  0  0  0  0
 38 79  2  0  0  0  0
 39 68  1  0  0  0  0
 39 71  1  0  0  0  0
 39 80  2  0  0  0  0
 40 43  1  0  0  0  0
 41 51  1  0  0  0  0
 42 67  1  0  0  0  0
 43 45  1  0  0  0  0
 44 46  1  0  0  0  0
 44 47  1  0  0  0  0
 45 50  1  0  0  0  0
 46 52  1  0  0  0  0
 47 68  1  0  0  0  0
 48 52  1  0  0  0  0
 48 68  1  0  0  0  0
 49 53  1  0  0  0  0
 49 66  1  0  0  0  0
 50 72  1  0  0  0  0
 51 67  1  0  0  0  0
 52 65  1  0  0  0  0
 53 54  1  0  0  0  0
 53 60  1  0  0  0  0
 55 62  1  0  0  0  0
 56 63  1  0  0  0  0
 57 63  1  0  0  0  0
 58 63  1  0  0  0  0
 59 74  1  0  0  0  0
 60 82  1  0  0  0  0
 61 63  1  0  0  0  0
 61 73  1  0  0  0  0
 62 74  1  0  0  0  0
 64 65  1  0  0  0  0
M  CHG  1  74   1
M  ISO  4  39 100  60 101  71 100  82 101
M  END
> <Batch ID>
0071

> <Smiles>
CNC(C)C(=O)NC(C(=O)N1Cc2cc([101O:1][101CH2:1]C3(C)CN(c4cc(F)c([100NH:0][100C:0](=O)N5CCCC(n6nc(-c7ccc(Oc8ccc(F)cc8F)cc7)c(C(N)=O)c6N)C5)c(F)c4)C3=O)ccc2CC1C(=O)NC1CCCc2ccccc21)C(C)(C)C

> <Shape>
0.407

> <Color>
0.183

> <Negative vol penalty>
0.000

$$$$

  -OEChem-04042323353D

 83 91  0     1  0  0  0  0  0999 V2000
  -20.7070  -33.9165   15.3762 C   0  0  0  0  0  0  0  0  0  0  0  0
  -21.5300  -32.7999   15.4822 C   0  0  0  0  0  0  0  0  0  0  0  0
  -32.2564  -18.5006   21.1899 C   0  0  0  0  0  0  0  0  0  0  0  0
  -22.9327  -11.5986   21.5332 C   0  0  0  0  0  0  0  0  0  0  0  0
  -22.9220  -13.9949   21.2250 C   0  0  0  0  0  0  0  0  0  0  0  0
  -20.9190  -35.0184   16.2037 C   0  0  0  0  0  0  0  0  0  0  0  0
  -22.5662  -32.7849   16.4151 C   0  0  0  0  0  0  0  0  0  0  0  0
  -24.6134  -27.9492   19.5664 C   0  0  0  0  0  0  0  0  0  0  0  0
  -31.4568  -19.6085   20.9094 C   0  0  0  0  0  0  0  0  0  0  0  0
  -31.8228  -17.2214   20.8414 C   0  0  0  0  0  0  0  0  0  0  0  0
  -21.9161  -11.7160   22.4810 C   0  0  0  0  0  0  0  0  0  0  0  0
  -21.9053  -14.1122   22.1727 C   0  0  0  0  0  0  0  0  0  0  0  0
  -25.6987  -27.0954   19.3741 C   0  0  0  0  0  0  0  0  0  0  0  0
  -18.5582  -13.6644   22.3011 C   0  0  0  0  0  0  0  0  0  0  0  0
  -17.4842  -14.5009   21.9971 C   0  0  0  0  0  0  0  0  0  0  0  0
  -27.0050  -28.4198   20.9098 C   0  0  0  0  0  0  0  0  0  0  0  0
  -29.7899  -18.1581   19.9321 C   0  0  0  0  0  0  0  0  0  0  0  0
  -17.9817  -15.8461   23.9414 C   0  0  0  0  0  0  0  0  0  0  0  0
  -23.4357  -12.7381   20.9052 C   0  0  0  0  0  0  0  0  0  0  0  0
  -24.3382  -12.4385   18.5380 C   0  0  0  0  0  0  0  0  0  0  0  0
  -21.9523  -35.0131   17.1539 C   0  0  0  0  0  0  0  0  0  0  0  0
  -24.7194  -29.0528   20.4249 C   0  0  0  0  0  0  0  0  0  0  0  0
  -22.7931  -33.8883   17.2552 C   0  0  0  0  0  0  0  0  0  0  0  0
  -25.9188  -29.2846   21.1133 C   0  0  0  0  0  0  0  0  0  0  0  0
  -30.2236  -19.4373   20.2805 C   0  0  0  0  0  0  0  0  0  0  0  0
  -30.5896  -17.0501   20.2126 C   0  0  0  0  0  0  0  0  0  0  0  0
  -21.4024  -12.9727   22.8007 C   0  0  0  0  0  0  0  0  0  0  0  0
  -26.8956  -27.3323   20.0436 C   0  0  0  0  0  0  0  0  0  0  0  0
  -19.3439  -13.9186   23.4253 C   0  0  0  0  0  0  0  0  0  0  0  0
  -17.1960  -15.5918   22.8172 C   0  0  0  0  0  0  0  0  0  0  0  0
  -19.0557  -15.0095   24.2454 C   0  0  0  0  0  0  0  0  0  0  0  0
  -24.4863  -12.6176   19.9265 C   0  0  0  0  0  0  0  0  0  0  0  0
  -25.6245  -12.3836   18.0598 C   0  0  0  0  0  0  0  0  0  0  0  0
  -23.1445  -12.3315   17.7510 C   0  0  0  0  0  0  0  0  0  0  0  0
  -24.5009  -32.2035   20.0655 C   0  0  0  0  0  0  0  0  0  0  0  0
  -24.7528  -32.1982   23.2995 C   0  0  0  0  0  0  0  0  0  0  0  0
  -29.6888  -21.8983   20.2713 C   0  0  0  0  0  0  0  0  0  0  0  0
  -25.8009  -30.5901   26.1213 C   0  0  0  0  0  0  0  0  0  0  0  0
  -30.8213  -14.5459   20.0656 C   0  0  0  0  0  0  0  0  0  0  0  0
  -22.1724  -36.2463   17.9938 C   0  0  0  0  0  0  0  0  0  0  0  0
  -23.5311  -29.9490   20.6421 C   0  0  0  0  0  0  0  0  0  0  0  0
  -26.0777  -30.4439   22.0615 C   0  0  0  0  0  0  0  0  0  0  0  0
  -23.0573  -36.0025   19.2136 C   0  0  0  0  0  0  0  0  0  0  0  0
  -30.0581  -11.1378   19.3733 C   0  0  0  0  0  0  0  0  0  0  0  0
  -24.2963  -35.2029   18.8230 C   0  0  0  0  0  0  0  0  0  0  0  0
  -28.5294  -11.1154   19.3042 C   0  0  0  0  0  0  0  0  0  0  0  0
  -30.5634  -12.1035   20.4438 C   0  0  0  0  0  0  0  0  0  0  0  0
  -28.5053  -13.4474   20.2779 C   0  0  0  0  0  0  0  0  0  0  0  0
  -23.9122  -33.8244   18.2719 C   0  0  1  0  0  0  0  0  0  0  0  0
  -23.9139  -31.3378   21.1442 C   0  0  1  0  0  0  0  0  0  0  0  0
  -27.9505  -12.5375   19.1698 C   0  0  2  0  0  0  0  0  0  0  0  0
  -25.9023  -30.8514   28.6150 C   0  0  0  0  0  0  0  0  0  0  0  0
  -27.0700  -34.1602   22.9972 C   0  0  0  0  0  0  0  0  0  0  0  0
  -27.7210  -33.6473   25.3597 C   0  0  0  0  0  0  0  0  0  0  0  0
  -25.5021  -34.6789   24.8753 C   0  0  0  0  0  0  0  0  0  0  0  0
  -24.1313  -28.1857   26.5575 C   0  0  0  0  0  0  0  0  0  0  0  0
  -28.5472  -22.7873   19.7981 C   0  0  0  0  0  0  0  0  0  0  0  0
  -28.7992  -24.2651   20.0766 C   0  0  0  0  0  0  0  0  0  0  0  0
  -27.6675  -25.1371   19.5526 C   0  0  0  0  0  0  0  0  0  1  0  0
  -25.8969  -32.2530   24.2828 C   0  0  1  0  0  0  0  0  0  0  0  0
  -25.1024  -30.3110   27.4399 C   0  0  2  0  0  0  0  0  0  0  0  0
  -26.5454  -33.6640   24.3595 C   0  0  0  0  0  0  0  0  0  0  0  0
  -25.7658  -12.6726   20.3057 N   0  0  0  0  0  0  0  0  0  0  0  0
  -26.4334  -12.5272   19.1485 N   0  0  0  0  0  0  0  0  0  0  0  0
  -24.8892  -31.2953   22.2356 N   0  0  0  0  0  0  0  0  0  0  0  0
  -29.9763  -13.4312   20.2504 N   0  0  0  0  0  0  0  0  0  0  0  0
  -26.1313  -12.2269   16.8184 N   0  0  0  0  0  0  0  0  0  0  0  0
  -21.9058  -12.4089   18.4020 N   0  0  0  0  0  0  0  0  0  0  0  0
  -29.4131  -20.5619   19.9958 N   0  0  0  0  0  0  0  0  0  0  0  0
  -30.1497  -15.7505   19.8588 N   0  0  0  0  0  0  0  0  0  0  0  0
  -23.5640  -32.9271   19.3527 N   0  0  0  0  0  0  0  0  0  0  0  0
  -25.3670  -31.7691   25.5531 N   0  0  0  0  0  0  0  0  0  0  0  0
  -24.9212  -28.8440   27.6297 N   0  3  0  0  0  0  0  0  0  0  0  0
  -23.1756  -12.1555   16.5094 O   0  0  0  0  0  0  0  0  0  0  0  0
  -25.7142  -32.2153   19.8936 O   0  0  0  0  0  0  0  0  0  0  0  0
  -23.7709  -32.9245   23.4731 O   0  0  0  0  0  0  0  0  0  0  0  0
  -30.6885  -22.3562   20.8147 O   0  0  0  0  0  0  0  0  0  0  0  0
  -26.6493  -29.8392   25.6449 O   0  0  0  0  0  0  0  0  0  0  0  0
  -32.0500  -14.4353   20.0618 O   0  0  0  0  0  0  0  0  0  0  0  0
  -20.4102  -13.0876   23.7254 O   0  0  0  0  0  0  0  0  0  0  0  0
  -27.9567  -26.5009   19.8572 O   0  0  0  0  0  0  0  0  0  1  0  0
  -16.1657  -16.3960   22.5243 F   0  0  0  0  0  0  0  0  0  0  0  0
  -19.8076  -15.2595   25.3261 F   0  0  0  0  0  0  0  0  0  0  0  0
  1  2  1  0  0  0  0
  1  6  2  0  0  0  0
  2  7  2  0  0  0  0
  3  9  2  0  0  0  0
  3 10  1  0  0  0  0
  4 11  2  0  0  0  0
  4 19  1  0  0  0  0
  5 12  1  0  0  0  0
  5 19  2  0  0  0  0
  6 21  1  0  0  0  0
  7 23  1  0  0  0  0
  8 13  2  0  0  0  0
  8 22  1  0  0  0  0
  9 25  1  0  0  0  0
 10 26  2  0  0  0  0
 11 27  1  0  0  0  0
 12 27  2  0  0  0  0
 13 28  1  0  0  0  0
 14 15  2  0  0  0  0
 14 29  1  0  0  0  0
 15 30  1  0  0  0  0
 16 24  1  0  0  0  0
 16 28  2  0  0  0  0
 17 25  2  0  0  0  0
 17 26  1  0  0  0  0
 18 30  2  0  0  0  0
 18 31  1  0  0  0  0
 19 32  1  0  0  0  0
 20 32  1  0  0  0  0
 20 33  2  0  0  0  0
 20 34  1  0  0  0  0
 21 23  2  0  0  0  0
 21 40  1  0  0  0  0
 22 24  2  0  0  0  0
 22 41  1  0  0  0  0
 23 49  1  0  0  0  0
 24 42  1  0  0  0  0
 25 69  1  0  0  0  0
 26 70  1  0  0  0  0
 27 80  1  0  0  0  0
 28 81  1  0  0  0  0
 29 31  2  0  0  0  0
 29 80  1  0  0  0  0
 30 82  1  0  0  0  0
 31 83  1  0  0  0  0
 32 63  2  0  0  0  0
 33 64  1  0  0  0  0
 33 67  1  0  0  0  0
 34 68  1  0  0  0  0
 34 74  2  0  0  0  0
 35 50  1  0  0  0  0
 35 71  1  0  0  0  0
 35 75  2  0  0  0  0
 36 60  1  0  0  0  0
 36 65  1  0  0  0  0
 36 76  2  0  0  0  0
 37 57  1  0  0  0  0
 37 69  1  0  0  0  0
 37 77  2  0  0  0  0
 38 61  1  0  0  0  0
 38 72  1  0  0  0  0
 38 78  2  0  0  0  0
 39 66  1  0  0  0  0
 39 70  1  0  0  0  0
 39 79  2  0  0  0  0
 40 43  1  0  0  0  0
 41 50  1  0  0  0  0
 42 65  1  0  0  0  0
 43 45  1  0  0  0  0
 44 46  1  0  0  0  0
 44 47  1  0  0  0  0
 45 49  1  0  0  0  0
 46 51  1  0  0  0  0
 47 66  1  0  0  0  0
 48 51  1  0  0  0  0
 48 66  1  0  0  0  0
 49 71  1  0  0  0  0
 50 65  1  0  0  0  0
 51 64  1  0  0  0  0
 52 61  1  0  0  0  0
 53 62  1  0  0  0  0
 54 62  1  0  0  0  0
 55 62  1  0  0  0  0
 56 73  1  0  0  0  0
 57 58  1  0  0  0  0
 58 59  1  0  0  0  0
 59 81  1  0  0  0  0
 60 62  1  0  0  0  0
 60 72  1  0  0  0  0
 61 73  1  0  0  0  0
 63 64  1  0  0  0  0
M  CHG  1  73   1
M  ISO  4  39 100  59 101  70 100  81 101
M  END
> <Batch ID>
0071

> <Smiles>
CNC(C)C(=O)NC(C(=O)N1Cc2cc([101O:1][101CH2:1]CCC(=O)Nc3cccc([100NH:0][100C:0](=O)N4CCCC(n5nc(-c6ccc(Oc7ccc(F)cc7F)cc6)c(C(N)=O)c5N)C4)c3)ccc2CC1C(=O)NC1CCCc2ccccc21)C(C)(C)C

> <Shape>
0.275

> <Color>
0.101

> <Negative vol penalty>
0.000

$$$$

  -OEChem-04042323353D

 89 98  0     1  0  0  0  0  0999 V2000
  -23.0519  -28.3429   28.4977 C   0  0  0  0  0  0  0  0  0  0  0  0
  -23.8271  -27.2384   28.1594 C   0  0  0  0  0  0  0  0  0  0  0  0
  -23.0296  -10.0203   19.8754 C   0  0  0  0  0  0  0  0  0  0  0  0
  -23.8455   -9.8488   22.1430 C   0  0  0  0  0  0  0  0  0  0  0  0
  -22.3951  -29.0637   27.5012 C   0  0  0  0  0  0  0  0  0  0  0  0
  -23.9450  -26.8533   26.8244 C   0  0  0  0  0  0  0  0  0  0  0  0
  -28.7159  -25.7477   25.5354 C   0  0  0  0  0  0  0  0  0  0  0  0
  -22.2591   -8.8733   20.0659 C   0  0  0  0  0  0  0  0  0  0  0  0
  -23.0750   -8.7018   22.3335 C   0  0  0  0  0  0  0  0  0  0  0  0
  -29.2105  -24.5054   25.9299 C   0  0  0  0  0  0  0  0  0  0  0  0
  -19.8410   -7.9522   22.9656 C   0  0  0  0  0  0  0  0  0  0  0  0
  -19.1122   -7.8523   24.1507 C   0  0  0  0  0  0  0  0  0  0  0  0
  -28.8034  -23.6460   23.7129 C   0  0  0  0  0  0  0  0  0  0  0  0
  -32.1500  -17.9584   24.4695 C   0  0  0  0  0  0  0  0  0  0  0  0
  -32.2689  -16.3200   22.6980 C   0  0  0  0  0  0  0  0  0  0  0  0
  -30.1256  -17.1854   23.4011 C   0  0  0  0  0  0  0  0  0  0  0  0
  -20.3149   -5.8358   24.7203 C   0  0  0  0  0  0  0  0  0  0  0  0
  -23.8228  -10.5081   20.9140 C   0  0  0  0  0  0  0  0  0  0  0  0
  -24.2343  -13.0253   20.9572 C   0  0  0  0  0  0  0  0  0  0  0  0
  -22.5128  -28.6930   26.1523 C   0  0  0  0  0  0  0  0  0  0  0  0
  -28.2505  -25.9458   24.2275 C   0  0  0  0  0  0  0  0  0  0  0  0
  -23.2880  -27.5689   25.8090 C   0  0  0  0  0  0  0  0  0  0  0  0
  -28.3058  -24.8926   23.3036 C   0  0  0  0  0  0  0  0  0  0  0  0
  -32.9041  -17.1238   23.6446 C   0  0  0  0  0  0  0  0  0  0  0  0
  -30.7608  -17.9892   24.3478 C   0  0  0  0  0  0  0  0  0  0  0  0
  -30.8797  -16.3508   22.5762 C   0  0  0  0  0  0  0  0  0  0  0  0
  -22.2818   -8.2140   21.2949 C   0  0  0  0  0  0  0  0  0  0  0  0
  -29.2516  -23.4534   25.0195 C   0  0  0  0  0  0  0  0  0  0  0  0
  -20.8067   -6.9938   22.6578 C   0  0  0  0  0  0  0  0  0  0  0  0
  -19.3492   -6.7941   25.0281 C   0  0  0  0  0  0  0  0  0  0  0  0
  -21.0436   -5.9357   23.5351 C   0  0  0  0  0  0  0  0  0  0  0  0
  -24.6194  -11.6926   20.7177 C   0  0  0  0  0  0  0  0  0  0  0  0
  -25.3384  -13.7681   20.6171 C   0  0  0  0  0  0  0  0  0  0  0  0
  -28.6534  -18.9650   25.1756 C   0  0  0  0  0  0  0  0  0  0  0  0
  -28.2422  -19.8263   26.1133 C   0  0  0  0  0  0  0  0  0  0  0  0
  -25.9954  -20.3330   25.4127 C   0  0  0  0  0  0  0  0  0  0  0  0
  -26.8882  -20.1688   26.4124 C   0  0  0  0  0  0  0  0  0  0  0  0
  -22.9899  -13.5453   21.4438 C   0  0  0  0  0  0  0  0  0  0  0  0
  -25.4517  -26.7220   22.9360 C   0  0  0  0  0  0  0  0  0  0  0  0
  -27.1840  -26.8181   20.1952 C   0  0  0  0  0  0  0  0  0  0  0  0
  -29.9461  -25.7877   18.4759 C   0  0  0  0  0  0  0  0  0  0  0  0
  -30.8351  -14.6507   20.7177 C   0  0  0  0  0  0  0  0  0  0  0  0
  -21.7459  -29.4745   25.1151 C   0  0  0  0  0  0  0  0  0  0  0  0
  -27.7448  -27.2995   23.8100 C   0  0  0  0  0  0  0  0  0  0  0  0
  -27.8372  -25.0593   21.8819 C   0  0  0  0  0  0  0  0  0  0  0  0
  -22.2250  -29.2252   23.6873 C   0  0  0  0  0  0  0  0  0  0  0  0
  -29.5937  -12.4367   18.2209 C   0  0  0  0  0  0  0  0  0  0  0  0
  -22.3997  -27.7308   23.4362 C   0  0  0  0  0  0  0  0  0  0  0  0
  -28.1572  -12.1554   18.6676 C   0  0  0  0  0  0  0  0  0  0  0  0
  -30.5442  -12.5574   19.4106 C   0  0  0  0  0  0  0  0  0  0  0  0
  -30.6345  -19.6471   26.2032 C   0  0  0  0  0  0  0  0  0  0  0  0
  -28.6935  -13.2365   20.8881 C   0  0  0  0  0  0  0  0  0  0  0  0
  -23.4604  -27.1348   24.3696 C   0  0  1  0  0  0  0  0  0  0  0  0
  -29.4292  -20.3731   26.8714 C   0  0  1  0  0  0  0  0  0  0  0  0
  -26.8195  -27.2441   22.5983 C   0  0  1  0  0  0  0  0  0  0  0  0
  -27.6874  -13.1711   19.7274 C   0  0  2  0  0  0  0  0  0  0  0  0
  -31.0703  -26.0030   16.2427 C   0  0  0  0  0  0  0  0  0  0  0  0
  -25.1434  -24.8990   18.9857 C   0  0  0  0  0  0  0  0  0  0  0  0
  -26.7846  -24.4164   17.1576 C   0  0  0  0  0  0  0  0  0  0  0  0
  -25.8927  -26.7272   17.4525 C   0  0  0  0  0  0  0  0  0  0  0  0
  -32.3608  -27.0046   19.6789 C   0  0  0  0  0  0  0  0  0  0  0  0
  -29.5666  -21.8773   26.7723 C   0  0  0  0  0  0  0  0  0  1  0  0
  -27.5526  -25.8163   19.1278 C   0  0  1  0  0  0  0  0  0  0  0  0
  -30.9666  -26.5559   17.6556 C   0  0  2  0  0  0  0  0  0  0  0  0
  -34.3894  -17.0910   23.7749 C   0  0  0  0  0  0  0  0  0  0  0  0
  -26.3504  -25.4607   18.2081 C   0  0  0  0  0  0  0  0  0  0  0  0
  -25.8703  -11.5915   20.2605 N   0  0  0  0  0  0  0  0  0  0  0  0
  -26.2808  -12.8702   20.2100 N   0  0  0  0  0  0  0  0  0  0  0  0
  -30.0193  -18.8102   25.1595 N   0  0  0  0  0  0  0  0  0  0  0  0
  -27.3455  -26.3999   21.5237 N   0  0  0  0  0  0  0  0  0  0  0  0
  -30.0370  -13.5401   20.3707 N   0  0  0  0  0  0  0  0  0  0  0  0
  -25.5853  -15.0953   20.6294 N   0  0  0  0  0  0  0  0  0  0  0  0
  -21.9608  -12.6428   21.7451 N   0  0  0  0  0  0  0  0  0  0  0  0
  -35.0360  -18.0769   22.9065 N   0  0  0  0  0  0  0  0  0  0  0  0
  -30.2350  -15.5344   21.6141 N   0  0  0  0  0  0  0  0  0  0  0  0
  -24.7892  -27.4605   23.8979 N   0  0  0  0  0  0  0  0  0  0  0  0
  -28.7001  -26.3758   18.4216 N   0  0  0  0  0  0  0  0  0  0  0  0
  -32.3114  -26.4731   18.2926 N   0  3  0  0  0  0  0  0  0  0  0  0
  -22.7908  -14.7750   21.5911 O   0  0  0  0  0  0  0  0  0  0  0  0
  -25.0280  -25.7240   22.3650 O   0  0  0  0  0  0  0  0  0  0  0  0
  -26.7748  -27.9333   19.8625 O   0  0  0  0  0  0  0  0  0  0  0  0
  -30.2254  -24.7660   19.0993 O   0  0  0  0  0  0  0  0  0  0  0  0
  -31.9568  -14.8205   20.2329 O   0  0  0  0  0  0  0  0  0  0  0  0
  -21.5299   -7.0948   21.4812 O   0  0  0  0  0  0  0  0  0  0  0  0
  -29.7332  -22.2396   25.4022 O   0  0  0  0  0  0  0  0  0  1  0  0
  -18.6503   -6.6991   26.1668 F   0  0  0  0  0  0  0  0  0  0  0  0
  -21.9709   -5.0126   23.2454 F   0  0  0  0  0  0  0  0  0  0  0  0
  -34.8137  -17.3375   25.0554 F   0  0  0  0  0  0  0  0  0  0  0  0
  -34.9271  -15.8666   23.4726 F   0  0  0  0  0  0  0  0  0  0  0  0
  1  2  1  0  0  0  0
  1  5  2  0  0  0  0
  2  6  2  0  0  0  0
  3  8  2  0  0  0  0
  3 18  1  0  0  0  0
  4  9  1  0  0  0  0
  4 18  2  0  0  0  0
  5 20  1  0  0  0  0
  6 22  1  0  0  0  0
  7 10  2  0  0  0  0
  7 21  1  0  0  0  0
  8 27  1  0  0  0  0
  9 27  2  0  0  0  0
 10 28  1  0  0  0  0
 11 12  2  0  0  0  0
 11 29  1  0  0  0  0
 12 30  1  0  0  0  0
 13 23  1  0  0  0  0
 13 28  2  0  0  0  0
 14 24  1  0  0  0  0
 14 25  2  0  0  0  0
 15 24  2  0  0  0  0
 15 26  1  0  0  0  0
 16 25  1  0  0  0  0
 16 26  2  0  0  0  0
 17 30  2  0  0  0  0
 17 31  1  0  0  0  0
 18 32  1  0  0  0  0
 19 32  1  0  0  0  0
 19 33  2  0  0  0  0
 19 38  1  0  0  0  0
 20 22  2  0  0  0  0
 20 43  1  0  0  0  0
 21 23  2  0  0  0  0
 21 44  1  0  0  0  0
 22 53  1  0  0  0  0
 23 45  1  0  0  0  0
 24 65  1  0  0  0  0
 25 69  1  0  0  0  0
 26 75  1  0  0  0  0
 27 84  1  0  0  0  0
 28 85  1  0  0  0  0
 29 31  2  0  0  0  0
 29 84  1  0  0  0  0
 30 86  1  0  0  0  0
 31 87  1  0  0  0  0
 32 67  2  0  0  0  0
 33 68  1  0  0  0  0
 33 72  1  0  0  0  0
 34 35  2  0  0  0  0
 34 69  1  0  0  0  0
 35 37  1  0  0  0  0
 35 54  1  0  0  0  0
 36 37  2  0  0  0  0
 38 73  1  0  0  0  0
 38 79  2  0  0  0  0
 39 55  1  0  0  0  0
 39 76  1  0  0  0  0
 39 80  2  0  0  0  0
 40 63  1  0  0  0  0
 40 70  1  0  0  0  0
 40 81  2  0  0  0  0
 41 64  1  0  0  0  0
 41 77  1  0  0  0  0
 41 82  2  0  0  0  0
 42 71  1  0  0  0  0
 42 75  1  0  0  0  0
 42 83  2  0  0  0  0
 43 46  1  0  0  0  0
 44 55  1  0  0  0  0
 45 70  1  0  0  0  0
 46 48  1  0  0  0  0
 47 49  1  0  0  0  0
 47 50  1  0  0  0  0
 48 53  1  0  0  0  0
 49 56  1  0  0  0  0
 50 71  1  0  0  0  0
 51 54  1  0  0  0  0
 51 69  1  0  0  0  0
 52 56  1  0  0  0  0
 52 71  1  0  0  0  0
 53 76  1  0  0  0  0
 54 62  1  0  0  0  0
 55 70  1  0  0  0  0
 56 68  1  0  0  0  0
 57 64  1  0  0  0  0
 58 66  1  0  0  0  0
 59 66  1  0  0  0  0
 60 66  1  0  0  0  0
 61 78  1  0  0  0  0
 62 85  1  0  0  0  0
 63 66  1  0  0  0  0
 63 77  1  0  0  0  0
 64 78  1  0  0  0  0
 65 74  1  0  0  0  0
 65 88  1  0  0  0  0
 65 89  1  0  0  0  0
 67 68  1  0  0  0  0
M  CHG  1  78   1
M  ISO  4  42 100  62 101  75 100  85 101
M  END
> <Batch ID>
0071

> <Smiles>
C=CC1=CN(c2cc([100NH:0][100C:0](=O)N3CCCC(n4nc(-c5ccc(Oc6ccc(F)cc6F)cc5)c(C(N)=O)c4N)C3)cc(C(N)(F)F)c2)CC1[101CH2:1][101O:1]c1ccc2c(c1)CN(C(=O)C(NC(=O)C(C)NC)C(C)(C)C)C(C(=O)NC1CCCc3ccccc31)C2

> <Shape>
0.225

> <Color>
0.191

> <Negative vol penalty>
0.000

$$$$

  -OEChem-04042323353D

 87 96  0     1  0  0  0  0  0999 V2000
  -32.3771  -28.4643   15.6469 C   0  0  0  0  0  0  0  0  0  0  0  0
  -31.4345  -27.8120   16.4352 C   0  0  0  0  0  0  0  0  0  0  0  0
  -22.7752  -11.4715   18.9006 C   0  0  0  0  0  0  0  0  0  0  0  0
  -23.1721   -9.9056   20.6970 C   0  0  0  0  0  0  0  0  0  0  0  0
  -28.2967  -18.5991   21.8953 C   0  0  0  0  0  0  0  0  0  0  0  0
  -33.0130  -29.6088   16.1260 C   0  0  0  0  0  0  0  0  0  0  0  0
  -31.1281  -28.3033   17.7038 C   0  0  0  0  0  0  0  0  0  0  0  0
  -26.1456  -28.3822   18.6053 C   0  0  0  0  0  0  0  0  0  0  0  0
  -27.3541  -19.5739   22.2220 C   0  0  0  0  0  0  0  0  0  0  0  0
  -21.8034  -10.6209   18.3737 C   0  0  0  0  0  0  0  0  0  0  0  0
  -22.2003   -9.0549   20.1702 C   0  0  0  0  0  0  0  0  0  0  0  0
  -25.5390  -27.1711   18.9357 C   0  0  0  0  0  0  0  0  0  0  0  0
  -18.8274   -8.8480   20.1356 C   0  0  0  0  0  0  0  0  0  0  0  0
  -17.9097   -8.2864   21.0233 C   0  0  0  0  0  0  0  0  0  0  0  0
  -25.5962  -27.7857   21.2677 C   0  0  0  0  0  0  0  0  0  0  0  0
  -28.1412  -20.9468   20.3964 C   0  0  0  0  0  0  0  0  0  0  0  0
  -18.6501   -6.0755   20.3903 C   0  0  0  0  0  0  0  0  0  0  0  0
  -23.4596  -11.1139   20.0622 C   0  0  0  0  0  0  0  0  0  0  0  0
  -29.1617  -18.7981   20.8192 C   0  0  0  0  0  0  0  0  0  0  0  0
  -24.2732  -13.0221   21.5470 C   0  0  0  0  0  0  0  0  0  0  0  0
  -32.7072  -30.1199   17.3972 C   0  0  0  0  0  0  0  0  0  0  0  0
  -26.4925  -29.3010   19.6062 C   0  0  0  0  0  0  0  0  0  0  0  0
  -31.7615  -29.4550   18.2009 C   0  0  0  0  0  0  0  0  0  0  0  0
  -26.2047  -29.0088   20.9471 C   0  0  0  0  0  0  0  0  0  0  0  0
  -29.0839  -19.9719   20.0697 C   0  0  0  0  0  0  0  0  0  0  0  0
  -27.2763  -20.7478   21.4725 C   0  0  0  0  0  0  0  0  0  0  0  0
  -21.5159   -9.4126   19.0085 C   0  0  0  0  0  0  0  0  0  0  0  0
  -25.2669  -26.8715   20.2674 C   0  0  0  0  0  0  0  0  0  0  0  0
  -19.6564   -8.0233   19.3752 C   0  0  0  0  0  0  0  0  0  0  0  0
  -17.8210   -6.9002   21.1507 C   0  0  0  0  0  0  0  0  0  0  0  0
  -19.5678   -6.6371   19.5025 C   0  0  0  0  0  0  0  0  0  0  0  0
  -24.4639  -11.9919   20.6066 C   0  0  0  0  0  0  0  0  0  0  0  0
  -25.5262  -13.5527   21.7338 C   0  0  0  0  0  0  0  0  0  0  0  0
  -26.1102  -22.9761   21.1507 C   0  0  0  0  0  0  0  0  0  0  0  0
  -30.1561  -17.7434   20.4943 C   0  0  0  0  0  0  0  0  0  0  0  0
  -23.0709  -13.4601   22.1938 C   0  0  0  0  0  0  0  0  0  0  0  0
  -29.2165  -30.5769   20.6334 C   0  0  0  0  0  0  0  0  0  0  0  0
  -27.2324  -32.3587   22.4804 C   0  0  0  0  0  0  0  0  0  0  0  0
  -24.1950  -32.6709   24.0046 C   0  0  0  0  0  0  0  0  0  0  0  0
  -30.3844  -15.3803   19.7960 C   0  0  0  0  0  0  0  0  0  0  0  0
  -33.4551  -31.3329   17.8911 C   0  0  0  0  0  0  0  0  0  0  0  0
  -27.1219  -30.6145   19.2309 C   0  0  0  0  0  0  0  0  0  0  0  0
  -26.5388  -29.9701   22.0575 C   0  0  0  0  0  0  0  0  0  0  0  0
  -32.8003  -32.0034   19.0961 C   0  0  0  0  0  0  0  0  0  0  0  0
  -30.0691  -11.8870   20.2368 C   0  0  0  0  0  0  0  0  0  0  0  0
  -32.4087  -30.9616   20.1392 C   0  0  0  0  0  0  0  0  0  0  0  0
  -28.5676  -11.6850   20.4580 C   0  0  0  0  0  0  0  0  0  0  0  0
  -24.8244  -22.9542   23.1533 C   0  0  0  0  0  0  0  0  0  0  0  0
  -30.3487  -12.9742   19.2001 C   0  0  0  0  0  0  0  0  0  0  0  0
  -25.3535  -21.5601   22.8816 C   0  0  0  0  0  0  0  0  0  0  0  0
  -28.1877  -14.0551   19.6691 C   0  0  0  0  0  0  0  0  0  0  0  0
  -31.3841  -29.9714   19.5724 C   0  0  1  0  0  0  0  0  0  0  0  0
  -24.8906  -23.6225   21.7877 C   0  0  1  0  0  0  0  0  0  0  0  0
  -27.8996  -31.2536   20.3773 C   0  0  1  0  0  0  0  0  0  0  0  0
  -27.8551  -13.0197   20.7555 C   0  0  1  0  0  0  0  0  0  0  0  0
  -29.9990  -20.2107   18.9133 C   0  0  0  0  0  0  0  0  0  0  0  0
  -22.8794  -34.2206   25.4760 C   0  0  0  0  0  0  0  0  0  0  0  0
  -28.8696  -31.4553   24.8916 C   0  0  0  0  0  0  0  0  0  0  0  0
  -26.9966  -32.2252   26.3638 C   0  0  0  0  0  0  0  0  0  0  0  0
  -28.2055  -33.8662   24.9255 C   0  0  0  0  0  0  0  0  0  0  0  0
  -22.0976  -33.0304   21.9477 C   0  0  0  0  0  0  0  0  0  0  0  0
  -24.9933  -25.1339   21.8680 C   0  0  0  0  0  0  0  0  0  1  0  0
  -26.6273  -32.2063   23.8550 C   0  0  1  0  0  0  0  0  0  0  0  0
  -23.2016  -33.8180   24.0453 C   0  0  2  0  0  0  0  0  0  0  0  0
  -27.6701  -32.4191   24.9885 C   0  0  0  0  0  0  0  0  0  0  0  0
  -25.7378  -11.8736   20.2227 N   0  0  0  0  0  0  0  0  0  0  0  0
  -26.3588  -12.8363   20.9253 N   0  0  0  0  0  0  0  0  0  0  0  0
  -26.3115  -21.7446   21.8075 N   0  0  0  0  0  0  0  0  0  0  0  0
  -27.1590  -31.2385   21.6404 N   0  0  0  0  0  0  0  0  0  0  0  0
  -29.6463  -14.2075   19.5593 N   0  0  0  0  0  0  0  0  0  0  0  0
  -25.9859  -14.5576   22.5092 N   0  0  0  0  0  0  0  0  0  0  0  0
  -21.8704  -12.8050   21.8870 N   0  0  0  0  0  0  0  0  0  0  0  0
  -29.6254  -16.4934   20.1744 N   0  0  0  0  0  0  0  0  0  0  0  0
  -30.0662  -30.5688   19.5437 N   0  0  0  0  0  0  0  0  0  0  0  0
  -25.4938  -33.1233   23.9060 N   0  0  0  0  0  0  0  0  0  0  0  0
  -21.9319  -33.4279   23.3695 N   0  3  0  0  0  0  0  0  0  0  0  0
  -26.7110  -23.4666   20.2058 O   0  0  0  0  0  0  0  0  0  0  0  0
  -31.3502  -18.0294   20.4861 O   0  0  0  0  0  0  0  0  0  0  0  0
  -23.0587  -14.4151   23.0070 O   0  0  0  0  0  0  0  0  0  0  0  0
  -29.4454  -30.0990   21.7384 O   0  0  0  0  0  0  0  0  0  0  0  0
  -27.7449  -33.4343   22.1611 O   0  0  0  0  0  0  0  0  0  0  0  0
  -23.8533  -31.4915   24.0590 O   0  0  0  0  0  0  0  0  0  0  0  0
  -31.6160  -15.4236   19.7149 O   0  0  0  0  0  0  0  0  0  0  0  0
  -20.5676   -8.5823   18.4948 O   0  0  0  0  0  0  0  0  0  0  0  0
  -24.6756  -25.6898   20.5927 O   0  0  0  0  0  0  0  0  0  1  0  0
  -16.9407   -6.3612   22.0044 F   0  0  0  0  0  0  0  0  0  0  0  0
  -20.3624   -5.8397   18.7755 F   0  0  0  0  0  0  0  0  0  0  0  0
  1  2  1  0  0  0  0
  1  6  2  0  0  0  0
  2  7  2  0  0  0  0
  3 10  2  0  0  0  0
  3 18  1  0  0  0  0
  4 11  1  0  0  0  0
  4 18  2  0  0  0  0
  5  9  2  0  0  0  0
  5 19  1  0  0  0  0
  6 21  1  0  0  0  0
  7 23  1  0  0  0  0
  8 12  2  0  0  0  0
  8 22  1  0  0  0  0
  9 26  1  0  0  0  0
 10 27  1  0  0  0  0
 11 27  2  0  0  0  0
 12 28  1  0  0  0  0
 13 14  2  0  0  0  0
 13 29  1  0  0  0  0
 14 30  1  0  0  0  0
 15 24  1  0  0  0  0
 15 28  2  0  0  0  0
 16 25  1  0  0  0  0
 16 26  2  0  0  0  0
 17 30  2  0  0  0  0
 17 31  1  0  0  0  0
 18 32  1  0  0  0  0
 19 25  2  0  0  0  0
 19 35  1  0  0  0  0
 20 32  1  0  0  0  0
 20 33  2  0  0  0  0
 20 36  1  0  0  0  0
 21 23  2  0  0  0  0
 21 41  1  0  0  0  0
 22 24  2  0  0  0  0
 22 42  1  0  0  0  0
 23 52  1  0  0  0  0
 24 43  1  0  0  0  0
 25 56  1  0  0  0  0
 26 68  1  0  0  0  0
 27 84  1  0  0  0  0
 28 85  1  0  0  0  0
 29 31  2  0  0  0  0
 29 84  1  0  0  0  0
 30 86  1  0  0  0  0
 31 87  1  0  0  0  0
 32 66  2  0  0  0  0
 33 67  1  0  0  0  0
 33 71  1  0  0  0  0
 34 53  1  0  0  0  0
 34 68  1  0  0  0  0
 34 77  2  0  0  0  0
 35 73  1  0  0  0  0
 35 78  2  0  0  0  0
 36 72  1  0  0  0  0
 36 79  2  0  0  0  0
 37 54  1  0  0  0  0
 37 74  1  0  0  0  0
 37 80  2  0  0  0  0
 38 63  1  0  0  0  0
 38 69  1  0  0  0  0
 38 81  2  0  0  0  0
 39 64  1  0  0  0  0
 39 75  1  0  0  0  0
 39 82  2  0  0  0  0
 40 70  1  0  0  0  0
 40 73  1  0  0  0  0
 40 83  2  0  0  0  0
 41 44  1  0  0  0  0
 42 54  1  0  0  0  0
 43 69  1  0  0  0  0
 44 46  1  0  0  0  0
 45 47  1  0  0  0  0
 45 49  1  0  0  0  0
 46 52  1  0  0  0  0
 47 55  1  0  0  0  0
 48 50  1  0  0  0  0
 48 53  1  0  0  0  0
 49 70  1  0  0  0  0
 50 68  1  0  0  0  0
 51 55  1  0  0  0  0
 51 70  1  0  0  0  0
 52 74  1  0  0  0  0
 53 62  1  0  0  0  0
 54 69  1  0  0  0  0
 55 67  1  0  0  0  0
 57 64  1  0  0  0  0
 58 65  1  0  0  0  0
 59 65  1  0  0  0  0
 60 65  1  0  0  0  0
 61 76  1  0  0  0  0
 62 85  1  0  0  0  0
 63 65  1  0  0  0  0
 63 75  1  0  0  0  0
 64 76  1  0  0  0  0
 66 67  1  0  0  0  0
M  CHG  1  76   1
M  ISO  4  40 100  62 101  73 100  85 101
M  END
> <Batch ID>
0071

> <Smiles>
CNC(C)C(=O)NC(C(=O)N1Cc2cc([101O:1][101CH2:1]C3CCN(c4ccc(C(=O)[100NH:0][100C:0](=O)N5CCCC(n6nc(-c7ccc(Oc8ccc(F)cc8F)cc7)c(C(N)=O)c6N)C5)c(C)c4)C3=O)ccc2CC1C(=O)NC1CCCc2ccccc21)C(C)(C)C

> <Shape>
0.233

> <Color>
0.125

> <Negative vol penalty>
0.000

$$$$

  -OEChem-04042323353D

 87 94  0     1  0  0  0  0  0999 V2000
  -30.2958  -24.1991   16.7763 C   0  0  0  0  0  0  0  0  0  0  0  0
  -29.6927  -23.8075   17.9673 C   0  0  0  0  0  0  0  0  0  0  0  0
  -23.2661  -13.1724   19.0317 C   0  0  0  0  0  0  0  0  0  0  0  0
  -23.4613  -12.7697   21.4059 C   0  0  0  0  0  0  0  0  0  0  0  0
  -30.3049  -25.5445   16.4103 C   0  0  0  0  0  0  0  0  0  0  0  0
  -29.0992  -24.7613   18.7935 C   0  0  0  0  0  0  0  0  0  0  0  0
  -24.5680  -23.2926   20.5128 C   0  0  0  0  0  0  0  0  0  0  0  0
  -22.7934  -11.8727   18.8501 C   0  0  0  0  0  0  0  0  0  0  0  0
  -22.9886  -11.4700   21.2243 C   0  0  0  0  0  0  0  0  0  0  0  0
  -24.5521  -22.3802   21.5668 C   0  0  0  0  0  0  0  0  0  0  0  0
  -24.2093   -8.5003   20.1653 C   0  0  0  0  0  0  0  0  0  0  0  0
  -24.8800   -7.4690   20.8227 C   0  0  0  0  0  0  0  0  0  0  0  0
  -24.1428  -24.1845   23.1147 C   0  0  0  0  0  0  0  0  0  0  0  0
  -22.8478   -6.8961   21.9970 C   0  0  0  0  0  0  0  0  0  0  0  0
  -23.6001  -13.6209   20.3096 C   0  0  0  0  0  0  0  0  0  0  0  0
  -23.3257  -16.1174   20.7564 C   0  0  0  0  0  0  0  0  0  0  0  0
  -29.7027  -26.5139   17.2278 C   0  0  0  0  0  0  0  0  0  0  0  0
  -24.3820  -24.6615   20.7536 C   0  0  0  0  0  0  0  0  0  0  0  0
  -29.1014  -26.1210   18.4387 C   0  0  0  0  0  0  0  0  0  0  0  0
  -24.1543  -25.1120   22.0617 C   0  0  0  0  0  0  0  0  0  0  0  0
  -22.6547  -11.0215   19.9464 C   0  0  0  0  0  0  0  0  0  0  0  0
  -24.3423  -22.8264   22.8683 C   0  0  0  0  0  0  0  0  0  0  0  0
  -22.8579   -8.7295   20.4237 C   0  0  0  0  0  0  0  0  0  0  0  0
  -24.1992   -6.6669   21.7386 C   0  0  0  0  0  0  0  0  0  0  0  0
  -22.1771   -7.9274   21.3396 C   0  0  0  0  0  0  0  0  0  0  0  0
  -24.0890  -14.9632   20.4977 C   0  0  0  0  0  0  0  0  0  0  0  0
  -24.2519  -17.1271   20.8523 C   0  0  0  0  0  0  0  0  0  0  0  0
  -23.2106  -20.5746   26.9762 C   0  0  0  0  0  0  0  0  0  0  0  0
  -24.5256  -20.4066   26.8108 C   0  0  0  0  0  0  0  0  0  0  0  0
  -21.9064  -16.2638   20.8975 C   0  0  0  0  0  0  0  0  0  0  0  0
  -25.3910  -21.2606   25.9400 C   0  0  0  0  0  0  0  0  0  0  0  0
  -26.1434  -27.2733   20.3296 C   0  0  0  0  0  0  0  0  0  0  0  0
  -29.1386  -19.0172   22.8112 C   0  0  0  0  0  0  0  0  0  0  0  0
  -23.4304  -28.7830   21.2691 C   0  0  0  0  0  0  0  0  0  0  0  0
  -28.4223  -24.8615   24.3696 C   0  0  0  0  0  0  0  0  0  0  0  0
  -30.8647  -20.6027   25.6409 C   0  0  0  0  0  0  0  0  0  0  0  0
  -20.4726  -28.6371   22.9652 C   0  0  0  0  0  0  0  0  0  0  0  0
  -29.7792  -27.9620   16.8133 C   0  0  0  0  0  0  0  0  0  0  0  0
  -24.3753  -25.6298   19.6025 C   0  0  0  0  0  0  0  0  0  0  0  0
  -23.9291  -26.5688   22.3709 C   0  0  0  0  0  0  0  0  0  0  0  0
  -28.8000  -28.8625   17.5622 C   0  0  0  0  0  0  0  0  0  0  0  0
  -29.1722  -17.2123   19.7159 C   0  0  0  0  0  0  0  0  0  0  0  0
  -28.8428  -28.5694   19.0585 C   0  0  0  0  0  0  0  0  0  0  0  0
  -27.8018  -16.5369   19.6792 C   0  0  0  0  0  0  0  0  0  0  0  0
  -29.7180  -17.2910   21.1382 C   0  0  0  0  0  0  0  0  0  0  0  0
  -27.4264  -17.2874   22.0711 C   0  0  0  0  0  0  0  0  0  0  0  0
  -28.4254  -27.1228   19.3495 C   0  0  1  0  0  0  0  0  0  0  0  0
  -24.6873  -27.0621   20.0248 C   0  0  1  0  0  0  0  0  0  0  0  0
  -26.8251  -17.2150   20.6563 C   0  0  2  0  0  0  0  0  0  0  0  0
  -29.4783  -25.6336   23.6507 C   0  0  0  0  0  0  0  0  0  0  0  0
  -31.5467  -20.0107   26.8295 C   0  0  0  0  0  0  0  0  0  0  0  0
  -18.4876  -30.0405   23.5879 C   0  0  0  0  0  0  0  0  0  0  0  0
  -25.1057  -30.2107   23.3822 C   0  0  0  0  0  0  0  0  0  0  0  0
  -22.9789  -30.8357   24.5459 C   0  0  0  0  0  0  0  0  0  0  0  0
  -23.4213  -31.6586   22.2329 C   0  0  0  0  0  0  0  0  0  0  0  0
  -18.6072  -26.8416   21.5316 C   0  0  0  0  0  0  0  0  0  0  0  0
  -24.7616  -22.4130   25.1725 C   0  0  0  0  0  0  0  0  0  1  0  0
  -28.0876  -19.6143   23.7128 C   0  0  0  0  0  0  0  0  0  0  0  0
  -28.0542  -22.9038   25.8578 C   0  0  0  0  0  0  0  0  0  0  0  0
  -22.8549  -29.2213   22.5942 C   0  0  1  0  0  0  0  0  0  0  0  0
  -19.0675  -29.0622   22.5783 C   0  0  2  0  0  0  0  0  0  0  0  0
  -27.5437  -21.7183   25.0349 C   0  0  1  0  0  0  0  0  0  0  0  0
  -28.6628  -20.7973   24.5024 C   0  0  1  0  0  0  0  0  0  0  0  0
  -23.5963  -30.4543   23.1835 C   0  0  0  0  0  0  0  0  0  0  0  0
  -25.3991  -15.2151   20.4332 N   0  0  0  0  0  0  0  0  0  0  0  0
  -26.6461  -20.9494   25.8798 N   0  0  0  0  0  0  0  0  0  0  0  0
  -25.4662  -16.5393   20.6527 N   0  0  0  0  0  0  0  0  0  0  0  0
  -23.9379  -27.4772   21.2124 N   0  0  0  0  0  0  0  0  0  0  0  0
  -28.7519  -17.9210   22.0399 N   0  0  0  0  0  0  0  0  0  0  0  0
  -24.1378  -18.4516   21.0871 N   0  0  0  0  0  0  0  0  0  0  0  0
  -21.1012  -15.1238   20.7696 N   0  0  0  0  0  0  0  0  0  0  0  0
  -26.9867  -26.9867   19.2730 N   0  0  0  0  0  0  0  0  0  0  0  0
  -28.8989  -23.7785   25.0924 N   0  0  0  0  0  0  0  0  0  0  0  0
  -21.4289  -29.4324   22.3700 N   0  0  0  0  0  0  0  0  0  0  0  0
  -29.5152  -20.3206   25.5712 N   0  0  0  0  0  0  0  0  0  0  0  0
  -18.1692  -27.8754   22.5044 N   0  3  0  0  0  0  0  0  0  0  0  0
  -21.3669  -17.3754   21.1138 O   0  0  0  0  0  0  0  0  0  0  0  0
  -26.4770  -27.6684   21.4405 O   0  0  0  0  0  0  0  0  0  0  0  0
  -30.2681  -19.5133   22.7922 O   0  0  0  0  0  0  0  0  0  0  0  0
  -23.4232  -29.5678   20.3174 O   0  0  0  0  0  0  0  0  0  0  0  0
  -27.2519  -25.2145   24.2840 O   0  0  0  0  0  0  0  0  0  0  0  0
  -31.5125  -21.2696   24.8426 O   0  0  0  0  0  0  0  0  0  0  0  0
  -20.6990  -27.6962   23.7228 O   0  0  0  0  0  0  0  0  0  0  0  0
  -22.1932   -9.7533   19.7696 O   0  0  0  0  0  0  0  0  0  0  0  0
  -24.3270  -21.9380   23.8990 O   0  0  0  0  0  0  0  0  0  1  0  0
  -24.8430   -5.6756   22.3687 F   0  0  0  0  0  0  0  0  0  0  0  0
  -20.8785   -8.1420   21.5912 F   0  0  0  0  0  0  0  0  0  0  0  0
  1  2  1  0  0  0  0
  1  5  2  0  0  0  0
  2  6  2  0  0  0  0
  3  8  2  0  0  0  0
  3 15  1  0  0  0  0
  4  9  1  0  0  0  0
  4 15  2  0  0  0  0
  5 17  1  0  0  0  0
  6 19  1  0  0  0  0
  7 10  2  0  0  0  0
  7 18  1  0  0  0  0
  8 21  1  0  0  0  0
  9 21  2  0  0  0  0
 10 22  1  0  0  0  0
 11 12  2  0  0  0  0
 11 23  1  0  0  0  0
 12 24  1  0  0  0  0
 13 20  1  0  0  0  0
 13 22  2  0  0  0  0
 14 24  2  0  0  0  0
 14 25  1  0  0  0  0
 15 26  1  0  0  0  0
 16 26  1  0  0  0  0
 16 27  2  0  0  0  0
 16 30  1  0  0  0  0
 17 19  2  0  0  0  0
 17 38  1  0  0  0  0
 18 20  2  0  0  0  0
 18 39  1  0  0  0  0
 19 47  1  0  0  0  0
 20 40  1  0  0  0  0
 21 84  1  0  0  0  0
 22 85  1  0  0  0  0
 23 25  2  0  0  0  0
 23 84  1  0  0  0  0
 24 86  1  0  0  0  0
 25 87  1  0  0  0  0
 26 65  2  0  0  0  0
 27 67  1  0  0  0  0
 27 70  1  0  0  0  0
 28 29  2  0  0  0  0
 29 31  1  0  0  0  0
 30 71  1  0  0  0  0
 30 77  2  0  0  0  0
 31 57  1  0  0  0  0
 31 66  2  0  0  0  0
 32 48  1  0  0  0  0
 32 72  1  0  0  0  0
 32 78  2  0  0  0  0
 33 58  1  0  0  0  0
 33 69  1  0  0  0  0
 33 79  2  0  0  0  0
 34 60  1  0  0  0  0
 34 68  1  0  0  0  0
 34 80  2  0  0  0  0
 35 50  1  0  0  0  0
 35 73  1  0  0  0  0
 35 81  2  0  0  0  0
 36 51  1  0  0  0  0
 36 75  1  0  0  0  0
 36 82  2  0  0  0  0
 37 61  1  0  0  0  0
 37 74  1  0  0  0  0
 37 83  2  0  0  0  0
 38 41  1  0  0  0  0
 39 48  1  0  0  0  0
 40 68  1  0  0  0  0
 41 43  1  0  0  0  0
 42 44  1  0  0  0  0
 42 45  1  0  0  0  0
 43 47  1  0  0  0  0
 44 49  1  0  0  0  0
 45 69  1  0  0  0  0
 46 49  1  0  0  0  0
 46 69  1  0  0  0  0
 47 72  1  0  0  0  0
 48 68  1  0  0  0  0
 49 67  1  0  0  0  0
 52 61  1  0  0  0  0
 53 64  1  0  0  0  0
 54 64  1  0  0  0  0
 55 64  1  0  0  0  0
 56 76  1  0  0  0  0
 57 85  1  0  0  0  0
 58 63  1  0  0  0  0
 59 62  1  0  0  0  0
 59 73  1  0  0  0  0
 60 64  1  0  0  0  0
 60 74  1  0  0  0  0
 61 76  1  0  0  0  0
 62 63  1  0  0  0  0
 62 66  1  0  0  0  0
 63 75  1  0  0  0  0
 65 67  1  0  0  0  0
M  CHG  1  76   1
M  ISO  4  33 100  57 101  58 100  85 101
M  END
> <Batch ID>
0071

> <Smiles>
C=CC(=NC(CNC(C)=O)C([100CH2:0][100C:0](=O)N1CCCC(n2nc(-c3ccc(Oc4ccc(F)cc4F)cc3)c(C(N)=O)c2N)C1)NC(C)=O)[101CH2:1][101O:1]c1ccc2c(c1)CN(C(=O)C(NC(=O)C(C)NC)C(C)(C)C)C(C(=O)NC1CCCc3ccccc31)C2

> <Shape>
0.217

> <Color>
0.037

> <Negative vol penalty>
0.000

$$$$

  -OEChem-04042323353D

 85 93  0     1  0  0  0  0  0999 V2000
  -26.2580  -34.7800   24.6830 C   0  0  0  0  0  0  0  0  0  0  0  0
  -26.7650  -33.5648   24.2338 C   0  0  0  0  0  0  0  0  0  0  0  0
  -22.2216  -11.2810   21.5692 C   0  0  0  0  0  0  0  0  0  0  0  0
  -23.2035  -11.5974   19.3845 C   0  0  0  0  0  0  0  0  0  0  0  0
  -27.1065  -21.7301   18.3738 C   0  0  0  0  0  0  0  0  0  0  0  0
  -25.2124  -22.9945   17.5669 C   0  0  0  0  0  0  0  0  0  0  0  0
  -24.9299  -34.8694   25.0975 C   0  0  0  0  0  0  0  0  0  0  0  0
  -25.9443  -32.4380   24.1999 C   0  0  0  0  0  0  0  0  0  0  0  0
  -26.4155  -29.8202   19.8907 C   0  0  0  0  0  0  0  0  0  0  0  0
  -26.2414  -20.8424   19.0134 C   0  0  0  0  0  0  0  0  0  0  0  0
  -24.3473  -22.1067   18.2065 C   0  0  0  0  0  0  0  0  0  0  0  0
  -21.9039   -9.9644   21.2358 C   0  0  0  0  0  0  0  0  0  0  0  0
  -22.8858  -10.2807   19.0511 C   0  0  0  0  0  0  0  0  0  0  0  0
  -27.5353  -28.9995   19.7634 C   0  0  0  0  0  0  0  0  0  0  0  0
  -19.5350   -8.3516   19.4437 C   0  0  0  0  0  0  0  0  0  0  0  0
  -18.2591   -7.8913   19.7689 C   0  0  0  0  0  0  0  0  0  0  0  0
  -26.1903  -27.0839   20.3470 C   0  0  0  0  0  0  0  0  0  0  0  0
  -19.2337   -6.1696   21.1557 C   0  0  0  0  0  0  0  0  0  0  0  0
  -22.8714  -12.0975   20.6436 C   0  0  0  0  0  0  0  0  0  0  0  0
  -26.5920  -22.8063   17.6506 C   0  0  0  0  0  0  0  0  0  0  0  0
  -24.3857  -13.9206   21.5872 C   0  0  0  0  0  0  0  0  0  0  0  0
  -24.0898  -33.7454   25.0596 C   0  0  0  0  0  0  0  0  0  0  0  0
  -25.1749  -29.2796   20.2583 C   0  0  0  0  0  0  0  0  0  0  0  0
  -24.6040  -32.5121   24.6156 C   0  0  0  0  0  0  0  0  0  0  0  0
  -25.0557  -27.8995   20.4758 C   0  0  0  0  0  0  0  0  0  0  0  0
  -24.8618  -21.0306   18.9297 C   0  0  0  0  0  0  0  0  0  0  0  0
  -22.2360   -9.4642   19.9767 C   0  0  0  0  0  0  0  0  0  0  0  0
  -27.4235  -27.6316   19.9944 C   0  0  0  0  0  0  0  0  0  0  0  0
  -20.6603   -7.7208   19.9744 C   0  0  0  0  0  0  0  0  0  0  0  0
  -18.1084   -6.8004   20.6250 C   0  0  0  0  0  0  0  0  0  0  0  0
  -20.5096   -6.6299   20.8304 C   0  0  0  0  0  0  0  0  0  0  0  0
  -23.1993  -13.4578   20.9872 C   0  0  0  0  0  0  0  0  0  0  0  0
  -24.2058  -15.2775   21.7020 C   0  0  0  0  0  0  0  0  0  0  0  0
  -27.5080  -23.7466   16.9732 C   0  0  0  0  0  0  0  0  0  0  0  0
  -25.5466  -13.1895   22.0036 C   0  0  0  0  0  0  0  0  0  0  0  0
  -23.1930  -29.6774   22.7113 C   0  0  0  0  0  0  0  0  0  0  0  0
  -21.2659  -27.7379   20.9658 C   0  0  0  0  0  0  0  0  0  0  0  0
  -29.3522  -25.3904   17.2534 C   0  0  0  0  0  0  0  0  0  0  0  0
  -20.9883  -25.3344   18.5589 C   0  0  0  0  0  0  0  0  0  0  0  0
  -22.5892  -20.1719   19.5962 C   0  0  0  0  0  0  0  0  0  0  0  0
  -22.6742  -33.8798   25.5624 C   0  0  0  0  0  0  0  0  0  0  0  0
  -23.9707  -30.1744   20.3652 C   0  0  0  0  0  0  0  0  0  0  0  0
  -23.7420  -27.2668   20.8529 C   0  0  0  0  0  0  0  0  0  0  0  0
  -21.7665  -32.7266   25.1422 C   0  0  0  0  0  0  0  0  0  0  0  0
  -20.0681  -18.1186   21.0472 C   0  0  0  0  0  0  0  0  0  0  0  0
  -22.4592  -31.3884   25.3790 C   0  0  0  0  0  0  0  0  0  0  0  0
  -20.7556  -16.7611   21.2103 C   0  0  0  0  0  0  0  0  0  0  0  0
  -20.5070  -18.8264   19.7665 C   0  0  0  0  0  0  0  0  0  0  0  0
  -22.6470  -17.6058   19.7625 C   0  0  0  0  0  0  0  0  0  0  0  0
  -23.7381  -31.2733   24.5408 C   0  0  1  0  0  0  0  0  0  0  0  0
  -22.8699  -29.5921   21.2464 C   0  0  1  0  0  0  0  0  0  0  0  0
  -22.2857  -16.8839   21.0709 C   0  0  2  0  0  0  0  0  0  0  0  0
  -31.5895  -26.3379   17.8275 C   0  0  0  0  0  0  0  0  0  0  0  0
  -19.2873  -23.9190   17.3753 C   0  0  0  0  0  0  0  0  0  0  0  0
  -21.0397  -25.9532   23.4303 C   0  0  0  0  0  0  0  0  0  0  0  0
  -20.1573  -24.1380   21.9488 C   0  0  0  0  0  0  0  0  0  0  0  0
  -18.8993  -26.2797   22.1787 C   0  0  0  0  0  0  0  0  0  0  0  0
  -21.6816  -26.4971   15.9271 C   0  0  0  0  0  0  0  0  0  0  0  0
  -29.5118  -27.2263   18.9310 C   0  0  0  0  0  0  0  0  0  1  0  0
  -21.0592  -26.2458   20.8651 C   0  0  1  0  0  0  0  0  0  0  0  0
  -30.2032  -25.9881   18.3620 C   0  0  1  0  0  0  0  0  0  0  0  0
  -20.0760  -25.2191   17.3511 C   0  0  2  0  0  0  0  0  0  0  0  0
  -20.3142  -25.6661   22.1005 C   0  0  0  0  0  0  0  0  0  0  0  0
  -22.3299  -14.4408   20.7383 N   0  0  0  0  0  0  0  0  0  0  0  0
  -22.9706  -15.5348   21.1842 N   0  0  0  0  0  0  0  0  0  0  0  0
  -22.5949  -28.1844   20.9511 N   0  0  0  0  0  0  0  0  0  0  0  0
  -21.9679  -18.9098   19.7052 N   0  0  0  0  0  0  0  0  0  0  0  0
  -24.9853  -16.2636   22.1943 N   0  0  0  0  0  0  0  0  0  0  0  0
  -25.5661  -11.8012   21.8121 N   0  0  0  0  0  0  0  0  0  0  0  0
  -23.9830  -20.1289   19.5794 N   0  0  0  0  0  0  0  0  0  0  0  0
  -28.3907  -24.4189   17.7246 N   0  0  0  0  0  0  0  0  0  0  0  0
  -23.4144  -30.9639   23.1646 N   0  0  0  0  0  0  0  0  0  0  0  0
  -20.3811  -26.0125   19.5947 N   0  0  0  0  0  0  0  0  0  0  0  0
  -27.4032  -23.8708   15.6505 N   0  3  0  0  0  0  0  0  0  0  0  0
  -20.8741  -25.2612   16.0932 N   0  3  0  0  0  0  0  0  0  0  0  0
  -26.5306  -13.7484   22.5448 O   0  0  0  0  0  0  0  0  0  0  0  0
  -23.2367  -28.6522   23.3811 O   0  0  0  0  0  0  0  0  0  0  0  0
  -20.2842  -28.4803   21.0470 O   0  0  0  0  0  0  0  0  0  0  0  0
  -29.4328  -25.6842   16.0688 O   0  0  0  0  0  0  0  0  0  0  0  0
  -22.1244  -24.8663   18.5826 O   0  0  0  0  0  0  0  0  0  0  0  0
  -21.9339  -21.2161   19.5505 O   0  0  0  0  0  0  0  0  0  0  0  0
  -21.9263   -8.1795   19.6511 O   0  0  0  0  0  0  0  0  0  0  0  0
  -28.5151  -26.8283   19.8716 O   0  0  0  0  0  0  0  0  0  1  0  0
  -16.8831   -6.3594   20.9385 F   0  0  0  0  0  0  0  0  0  0  0  0
  -21.5869   -6.0206   21.3443 F   0  0  0  0  0  0  0  0  0  0  0  0
  1  2  1  0  0  0  0
  1  7  2  0  0  0  0
  2  8  2  0  0  0  0
  3 12  2  0  0  0  0
  3 19  1  0  0  0  0
  4 13  1  0  0  0  0
  4 19  2  0  0  0  0
  5 10  2  0  0  0  0
  5 20  1  0  0  0  0
  6 11  1  0  0  0  0
  6 20  2  0  0  0  0
  7 22  1  0  0  0  0
  8 24  1  0  0  0  0
  9 14  2  0  0  0  0
  9 23  1  0  0  0  0
 10 26  1  0  0  0  0
 11 26  2  0  0  0  0
 12 27  1  0  0  0  0
 13 27  2  0  0  0  0
 14 28  1  0  0  0  0
 15 16  2  0  0  0  0
 15 29  1  0  0  0  0
 16 30  1  0  0  0  0
 17 25  1  0  0  0  0
 17 28  2  0  0  0  0
 18 30  2  0  0  0  0
 18 31  1  0  0  0  0
 19 32  1  0  0  0  0
 20 34  1  0  0  0  0
 21 32  1  0  0  0  0
 21 33  2  0  0  0  0
 21 35  1  0  0  0  0
 22 24  2  0  0  0  0
 22 41  1  0  0  0  0
 23 25  2  0  0  0  0
 23 42  1  0  0  0  0
 24 50  1  0  0  0  0
 25 43  1  0  0  0  0
 26 70  1  0  0  0  0
 27 82  1  0  0  0  0
 28 83  1  0  0  0  0
 29 31  2  0  0  0  0
 29 82  1  0  0  0  0
 30 84  1  0  0  0  0
 31 85  1  0  0  0  0
 32 64  2  0  0  0  0
 33 65  1  0  0  0  0
 33 68  1  0  0  0  0
 34 71  1  0  0  0  0
 34 74  2  0  0  0  0
 35 69  1  0  0  0  0
 35 76  2  0  0  0  0
 36 51  1  0  0  0  0
 36 72  1  0  0  0  0
 36 77  2  0  0  0  0
 37 60  1  0  0  0  0
 37 66  1  0  0  0  0
 37 78  2  0  0  0  0
 38 61  1  0  0  0  0
 38 71  1  0  0  0  0
 38 79  2  0  0  0  0
 39 62  1  0  0  0  0
 39 73  1  0  0  0  0
 39 80  2  0  0  0  0
 40 67  1  0  0  0  0
 40 70  1  0  0  0  0
 40 81  2  0  0  0  0
 41 44  1  0  0  0  0
 42 51  1  0  0  0  0
 43 66  1  0  0  0  0
 44 46  1  0  0  0  0
 45 47  1  0  0  0  0
 45 48  1  0  0  0  0
 46 50  1  0  0  0  0
 47 52  1  0  0  0  0
 48 67  1  0  0  0  0
 49 52  1  0  0  0  0
 49 67  1  0  0  0  0
 50 72  1  0  0  0  0
 51 66  1  0  0  0  0
 52 65  1  0  0  0  0
 53 61  1  0  0  0  0
 54 62  1  0  0  0  0
 55 63  1  0  0  0  0
 56 63  1  0  0  0  0
 57 63  1  0  0  0  0
 58 75  1  0  0  0  0
 59 61  1  0  0  0  0
 59 83  1  0  0  0  0
 60 63  1  0  0  0  0
 60 73  1  0  0  0  0
 62 75  1  0  0  0  0
 64 65  1  0  0  0  0
M  CHG  2  74   1  75   1
M  ISO  4  40 100  59 101  70 100  83 101
M  END
> <Batch ID>
0071

> <Smiles>
CNC(C)C(=O)NC(C(=O)N1Cc2cc([101O:1][101CH2:1]C(C)C(=O)NC(=N)c3ccc([100NH:0][100C:0](=O)N4CCCC(n5nc(-c6ccc(Oc7ccc(F)cc7F)cc6)c(C(N)=O)c5N)C4)cc3)ccc2CC1C(=O)NC1CCCc2ccccc21)C(C)(C)C

> <Shape>
0.213

> <Color>
0.072

> <Negative vol penalty>
0.000

$$$$

  -OEChem-04042323353D

 87 96  0     1  0  0  0  0  0999 V2000
  -23.3466  -33.0583   29.1200 C   0  0  0  0  0  0  0  0  0  0  0  0
  -23.8576  -31.7839   28.8962 C   0  0  0  0  0  0  0  0  0  0  0  0
  -23.0864   -9.7565   19.9744 C   0  0  0  0  0  0  0  0  0  0  0  0
  -23.7058   -9.9474   22.3018 C   0  0  0  0  0  0  0  0  0  0  0  0
  -22.6127  -33.6989   28.1225 C   0  0  0  0  0  0  0  0  0  0  0  0
  -23.6340  -31.1488   27.6751 C   0  0  0  0  0  0  0  0  0  0  0  0
  -27.4583  -27.3780   24.7320 C   0  0  0  0  0  0  0  0  0  0  0  0
  -22.3416   -8.6138   20.2663 C   0  0  0  0  0  0  0  0  0  0  0  0
  -22.9610   -8.8047   22.5938 C   0  0  0  0  0  0  0  0  0  0  0  0
  -27.5319  -25.9878   24.6570 C   0  0  0  0  0  0  0  0  0  0  0  0
  -23.3220   -5.4552   22.3083 C   0  0  0  0  0  0  0  0  0  0  0  0
  -23.9042   -4.4964   23.1373 C   0  0  0  0  0  0  0  0  0  0  0  0
  -26.2843  -26.0391   22.5931 C   0  0  0  0  0  0  0  0  0  0  0  0
  -31.6786  -17.4727   21.5428 C   0  0  0  0  0  0  0  0  0  0  0  0
  -29.5409  -17.9294   22.5716 C   0  0  0  0  0  0  0  0  0  0  0  0
  -22.1007   -4.7709   24.7213 C   0  0  0  0  0  0  0  0  0  0  0  0
  -23.7686  -10.4232   20.9922 C   0  0  0  0  0  0  0  0  0  0  0  0
  -24.0890  -12.9373   20.7016 C   0  0  0  0  0  0  0  0  0  0  0  0
  -22.3882  -33.0753   26.8850 C   0  0  0  0  0  0  0  0  0  0  0  0
  -26.7866  -28.1096   23.7421 C   0  0  0  0  0  0  0  0  0  0  0  0
  -22.8953  -31.7811   26.6606 C   0  0  0  0  0  0  0  0  0  0  0  0
  -26.2057  -27.4387   22.6565 C   0  0  0  0  0  0  0  0  0  0  0  0
  -32.1330  -18.7343   21.9268 C   0  0  0  0  0  0  0  0  0  0  0  0
  -31.2913  -19.5935   22.6332 C   0  0  0  0  0  0  0  0  0  0  0  0
  -29.9952  -19.1911   22.9557 C   0  0  0  0  0  0  0  0  0  0  0  0
  -30.3825  -17.0703   21.8651 C   0  0  0  0  0  0  0  0  0  0  0  0
  -22.2788   -8.1380   21.5760 C   0  0  0  0  0  0  0  0  0  0  0  0
  -26.9424  -25.3179   23.5890 C   0  0  0  0  0  0  0  0  0  0  0  0
  -22.1291   -6.0720   22.6858 C   0  0  0  0  0  0  0  0  0  0  0  0
  -23.2935   -4.1542   24.3438 C   0  0  0  0  0  0  0  0  0  0  0  0
  -21.5185   -5.7298   23.8923 C   0  0  0  0  0  0  0  0  0  0  0  0
  -24.5386  -11.6033   20.6911 C   0  0  0  0  0  0  0  0  0  0  0  0
  -25.1927  -13.6744   20.3482 C   0  0  0  0  0  0  0  0  0  0  0  0
  -28.6777  -21.3335   23.2767 C   0  0  0  0  0  0  0  0  0  0  0  0
  -22.7898  -13.4631   21.0038 C   0  0  0  0  0  0  0  0  0  0  0  0
  -24.2567  -30.0336   23.7033 C   0  0  0  0  0  0  0  0  0  0  0  0
  -25.1423  -30.4944   20.6169 C   0  0  0  0  0  0  0  0  0  0  0  0
  -26.7811  -29.3141   17.8659 C   0  0  0  0  0  0  0  0  0  0  0  0
  -30.6264  -14.8155   20.7684 C   0  0  0  0  0  0  0  0  0  0  0  0
  -21.5488  -33.7882   25.8546 C   0  0  0  0  0  0  0  0  0  0  0  0
  -26.7391  -29.6108   23.8236 C   0  0  0  0  0  0  0  0  0  0  0  0
  -25.4905  -28.1793   21.5572 C   0  0  0  0  0  0  0  0  0  0  0  0
  -21.6754  -33.1987   24.4522 C   0  0  0  0  0  0  0  0  0  0  0  0
  -29.6843  -12.2137   18.5278 C   0  0  0  0  0  0  0  0  0  0  0  0
  -21.5654  -31.6780   24.5003 C   0  0  0  0  0  0  0  0  0  0  0  0
  -28.2246  -11.9327   18.8917 C   0  0  0  0  0  0  0  0  0  0  0  0
  -28.0143  -20.9637   25.5323 C   0  0  0  0  0  0  0  0  0  0  0  0
  -30.5224  -12.5463   19.7610 C   0  0  0  0  0  0  0  0  0  0  0  0
  -28.5126  -19.6623   24.9362 C   0  0  0  0  0  0  0  0  0  0  0  0
  -28.5273  -13.3424   20.9673 C   0  0  0  0  0  0  0  0  0  0  0  0
  -22.6951  -31.0696   25.3401 C   0  0  1  0  0  0  0  0  0  0  0  0
  -27.6582  -21.7925   24.3067 C   0  0  1  0  0  0  0  0  0  0  0  0
  -25.5866  -30.2162   23.0283 C   0  0  1  0  0  0  0  0  0  0  0  0
  -27.6296  -13.0661   19.7502 C   0  0  2  0  0  0  0  0  0  0  0  0
  -31.7841  -20.9462   23.0431 C   0  0  0  0  0  0  0  0  0  0  0  0
  -33.5613  -20.1043   20.3874 C   0  0  0  0  0  0  0  0  0  0  0  0
  -27.2981  -29.8964   15.4803 C   0  0  0  0  0  0  0  0  0  0  0  0
  -22.2954  -29.7410   19.8185 C   0  0  0  0  0  0  0  0  0  0  0  0
  -23.1135  -29.4143   17.4749 C   0  0  0  0  0  0  0  0  0  0  0  0
  -23.2622  -31.6633   18.5439 C   0  0  0  0  0  0  0  0  0  0  0  0
  -29.6957  -29.3278   18.3794 C   0  0  0  0  0  0  0  0  0  0  0  0
  -33.5256  -19.1406   21.5694 C   0  0  0  0  0  0  0  0  0  0  0  0
  -27.7050  -23.2870   24.5636 C   0  0  0  0  0  0  0  0  0  1  0  0
  -24.8237  -29.8250   19.3019 C   0  0  1  0  0  0  0  0  0  0  0  0
  -27.7717  -29.9736   16.9234 C   0  0  2  0  0  0  0  0  0  0  0  0
  -23.3854  -30.1465   18.8064 C   0  0  0  0  0  0  0  0  0  0  0  0
  -25.8274  -11.4961   20.3574 N   0  0  0  0  0  0  0  0  0  0  0  0
  -26.1971  -12.7722   20.1548 N   0  0  0  0  0  0  0  0  0  0  0  0
  -29.1170  -20.0546   23.6767 N   0  0  0  0  0  0  0  0  0  0  0  0
  -25.4656  -29.6458   21.6851 N   0  0  0  0  0  0  0  0  0  0  0  0
  -29.8999  -13.6311   20.5229 N   0  0  0  0  0  0  0  0  0  0  0  0
  -25.3924  -14.9998   20.1871 N   0  0  0  0  0  0  0  0  0  0  0  0
  -21.7695  -12.5661   21.3481 N   0  0  0  0  0  0  0  0  0  0  0  0
  -29.9204  -15.7891   21.4743 N   0  0  0  0  0  0  0  0  0  0  0  0
  -23.9296  -31.0459   24.5852 N   0  0  0  0  0  0  0  0  0  0  0  0
  -25.8779  -30.2230   18.3752 N   0  0  0  0  0  0  0  0  0  0  0  0
  -29.1005  -29.3057   17.0184 N   0  3  0  0  0  0  0  0  0  0  0  0
  -28.9614  -21.9824   22.2803 O   0  0  0  0  0  0  0  0  0  0  0  0
  -22.5369  -14.6907   20.9535 O   0  0  0  0  0  0  0  0  0  0  0  0
  -23.5769  -29.0480   23.4422 O   0  0  0  0  0  0  0  0  0  0  0  0
  -25.1126  -31.7254   20.6917 O   0  0  0  0  0  0  0  0  0  0  0  0
  -26.8037  -28.1122   18.1216 O   0  0  0  0  0  0  0  0  0  0  0  0
  -31.7798  -14.9663   20.3574 O   0  0  0  0  0  0  0  0  0  0  0  0
  -21.5519   -7.0231   21.8613 O   0  0  0  0  0  0  0  0  0  0  0  0
  -27.0122  -23.9609   23.5137 O   0  0  0  0  0  0  0  0  0  1  0  0
  -23.8520   -3.2323   25.1391 F   0  0  0  0  0  0  0  0  0  0  0  0
  -20.3719   -6.3180   24.2598 F   0  0  0  0  0  0  0  0  0  0  0  0
  1  2  1  0  0  0  0
  1  5  2  0  0  0  0
  2  6  2  0  0  0  0
  3  8  2  0  0  0  0
  3 17  1  0  0  0  0
  4  9  1  0  0  0  0
  4 17  2  0  0  0  0
  5 19  1  0  0  0  0
  6 21  1  0  0  0  0
  7 10  2  0  0  0  0
  7 20  1  0  0  0  0
  8 27  1  0  0  0  0
  9 27  2  0  0  0  0
 10 28  1  0  0  0  0
 11 12  2  0  0  0  0
 11 29  1  0  0  0  0
 12 30  1  0  0  0  0
 13 22  1  0  0  0  0
 13 28  2  0  0  0  0
 14 23  1  0  0  0  0
 14 26  2  0  0  0  0
 15 25  2  0  0  0  0
 15 26  1  0  0  0  0
 16 30  2  0  0  0  0
 16 31  1  0  0  0  0
 17 32  1  0  0  0  0
 18 32  1  0  0  0  0
 18 33  2  0  0  0  0
 18 35  1  0  0  0  0
 19 21  2  0  0  0  0
 19 40  1  0  0  0  0
 20 22  2  0  0  0  0
 20 41  1  0  0  0  0
 21 51  1  0  0  0  0
 22 42  1  0  0  0  0
 23 24  2  0  0  0  0
 23 62  1  0  0  0  0
 24 25  1  0  0  0  0
 24 55  1  0  0  0  0
 25 69  1  0  0  0  0
 26 74  1  0  0  0  0
 27 84  1  0  0  0  0
 28 85  1  0  0  0  0
 29 31  2  0  0  0  0
 29 84  1  0  0  0  0
 30 86  1  0  0  0  0
 31 87  1  0  0  0  0
 32 67  2  0  0  0  0
 33 68  1  0  0  0  0
 33 72  1  0  0  0  0
 34 52  1  0  0  0  0
 34 69  1  0  0  0  0
 34 78  2  0  0  0  0
 35 73  1  0  0  0  0
 35 79  2  0  0  0  0
 36 53  1  0  0  0  0
 36 75  1  0  0  0  0
 36 80  2  0  0  0  0
 37 64  1  0  0  0  0
 37 70  1  0  0  0  0
 37 81  2  0  0  0  0
 38 65  1  0  0  0  0
 38 76  1  0  0  0  0
 38 82  2  0  0  0  0
 39 71  1  0  0  0  0
 39 74  1  0  0  0  0
 39 83  2  0  0  0  0
 40 43  1  0  0  0  0
 41 53  1  0  0  0  0
 42 70  1  0  0  0  0
 43 45  1  0  0  0  0
 44 46  1  0  0  0  0
 44 48  1  0  0  0  0
 45 51  1  0  0  0  0
 46 54  1  0  0  0  0
 47 49  1  0  0  0  0
 47 52  1  0  0  0  0
 48 71  1  0  0  0  0
 49 69  1  0  0  0  0
 50 54  1  0  0  0  0
 50 71  1  0  0  0  0
 51 75  1  0  0  0  0
 52 63  1  0  0  0  0
 53 70  1  0  0  0  0
 54 68  1  0  0  0  0
 56 62  1  0  0  0  0
 57 65  1  0  0  0  0
 58 66  1  0  0  0  0
 59 66  1  0  0  0  0
 60 66  1  0  0  0  0
 61 77  1  0  0  0  0
 63 85  1  0  0  0  0
 64 66  1  0  0  0  0
 64 76  1  0  0  0  0
 65 77  1  0  0  0  0
 67 68  1  0  0  0  0
M  CHG  1  77   1
M  ISO  4  39 100  63 101  74 100  85 101
M  END
> <Batch ID>
0071

> <Smiles>
CCc1cc([100NH:0][100C:0](=O)N2CCCC(n3nc(-c4ccc(Oc5ccc(F)cc5F)cc4)c(C(N)=O)c3N)C2)cc(N2CCC([101CH2:1][101O:1]c3ccc4c(c3)CN(C(=O)C(NC(=O)C(C)NC)C(C)(C)C)C(C(=O)NC3CCCc5ccccc53)C4)C2=O)c1C

> <Shape>
0.248

> <Color>
0.211

> <Negative vol penalty>
0.000

$$$$

  -OEChem-04042323353D

 84 92  0     1  0  0  0  0  0999 V2000
  -16.4853  -30.1542   23.3283 C   0  0  0  0  0  0  0  0  0  0  0  0
  -17.5580  -30.9202   23.7731 C   0  0  0  0  0  0  0  0  0  0  0  0
  -29.5964  -20.1665   18.5892 C   0  0  0  0  0  0  0  0  0  0  0  0
  -31.5622  -20.7334   19.8743 C   0  0  0  0  0  0  0  0  0  0  0  0
  -16.7000  -28.8541   22.8725 C   0  0  0  0  0  0  0  0  0  0  0  0
  -18.8461  -30.3862   23.7634 C   0  0  0  0  0  0  0  0  0  0  0  0
  -25.6846  -32.3199   22.8624 C   0  0  0  0  0  0  0  0  0  0  0  0
  -29.8781  -18.8106   18.7563 C   0  0  0  0  0  0  0  0  0  0  0  0
  -31.8439  -19.3775   20.0414 C   0  0  0  0  0  0  0  0  0  0  0  0
  -26.9242  -32.2197   23.4926 C   0  0  0  0  0  0  0  0  0  0  0  0
  -29.5235  -16.4721   21.1726 C   0  0  0  0  0  0  0  0  0  0  0  0
  -28.4682  -15.6288   21.5199 C   0  0  0  0  0  0  0  0  0  0  0  0
  -27.1865  -29.9904   22.6091 C   0  0  0  0  0  0  0  0  0  0  0  0
  -31.6327  -30.6253   19.8918 C   0  0  0  0  0  0  0  0  0  0  0  0
  -32.2169  -31.4878   17.7120 C   0  0  0  0  0  0  0  0  0  0  0  0
  -28.8238  -14.3520   19.4999 C   0  0  0  0  0  0  0  0  0  0  0  0
  -30.4385  -21.1279   19.1481 C   0  0  0  0  0  0  0  0  0  0  0  0
  -29.3651  -23.3442   19.8139 C   0  0  0  0  0  0  0  0  0  0  0  0
  -17.9927  -28.3073   22.8482 C   0  0  0  0  0  0  0  0  0  0  0  0
  -25.1809  -31.2501   22.1085 C   0  0  0  0  0  0  0  0  0  0  0  0
  -19.0782  -29.0772   23.3081 C   0  0  0  0  0  0  0  0  0  0  0  0
  -25.9414  -30.0805   21.9682 C   0  0  0  0  0  0  0  0  0  0  0  0
  -31.9202  -30.4085   18.5443 C   0  0  0  0  0  0  0  0  0  0  0  0
  -31.6418  -31.9215   20.4072 C   0  0  0  0  0  0  0  0  0  0  0  0
  -31.9385  -33.0008   19.5749 C   0  0  0  0  0  0  0  0  0  0  0  0
  -31.0018  -18.4161   19.4824 C   0  0  0  0  0  0  0  0  0  0  0  0
  -27.6741  -31.0538   23.3684 C   0  0  0  0  0  0  0  0  0  0  0  0
  -30.2290  -16.2555   19.9889 C   0  0  0  0  0  0  0  0  0  0  0  0
  -28.1184  -14.5687   20.6836 C   0  0  0  0  0  0  0  0  0  0  0  0
  -32.2261  -32.7840   18.2273 C   0  0  0  0  0  0  0  0  0  0  0  0
  -29.8791  -15.1954   19.1526 C   0  0  0  0  0  0  0  0  0  0  0  0
  -30.1483  -22.5286   18.9754 C   0  0  0  0  0  0  0  0  0  0  0  0
  -29.3987  -24.5814   19.2184 C   0  0  0  0  0  0  0  0  0  0  0  0
  -28.6695  -23.0131   21.0231 C   0  0  0  0  0  0  0  0  0  0  0  0
  -22.6226  -29.3741   22.3074 C   0  0  0  0  0  0  0  0  0  0  0  0
  -23.7025  -28.2575   19.4597 C   0  0  0  0  0  0  0  0  0  0  0  0
  -31.5869  -31.2400   22.8313 C   0  0  0  0  0  0  0  0  0  0  0  0
  -26.3342  -27.8069   17.3341 C   0  0  0  0  0  0  0  0  0  0  0  0
  -32.1726  -28.7043   16.7063 C   0  0  0  0  0  0  0  0  0  0  0  0
  -18.1690  -26.8809   22.3911 C   0  0  0  0  0  0  0  0  0  0  0  0
  -23.8540  -31.3840   21.4129 C   0  0  0  0  0  0  0  0  0  0  0  0
  -25.4546  -28.9111   21.1534 C   0  0  0  0  0  0  0  0  0  0  0  0
  -19.6156  -26.5212   22.0619 C   0  0  0  0  0  0  0  0  0  0  0  0
  -31.0870  -25.9989   14.6618 C   0  0  0  0  0  0  0  0  0  0  0  0
  -20.5517  -27.0150   23.1604 C   0  0  0  0  0  0  0  0  0  0  0  0
  -30.6816  -24.9220   15.6708 C   0  0  0  0  0  0  0  0  0  0  0  0
  -32.3088  -26.7860   15.1325 C   0  0  0  0  0  0  0  0  0  0  0  0
  -31.7905  -26.2839   17.4881 C   0  0  0  0  0  0  0  0  0  0  0  0
  -20.4935  -28.5419   23.2897 C   0  0  1  0  0  0  0  0  0  0  0  0
  -23.2082  -30.0392   21.0939 C   0  0  1  0  0  0  0  0  0  0  0  0
  -30.5252  -25.5077   17.0878 C   0  0  2  0  0  0  0  0  0  0  0  0
  -26.9145  -26.8292   15.0970 C   0  0  0  0  0  0  0  0  0  0  0  0
  -23.5908  -25.4539   20.6587 C   0  0  0  0  0  0  0  0  0  0  0  0
  -25.0410  -24.6665   18.7759 C   0  0  0  0  0  0  0  0  0  0  0  0
  -22.7827  -25.6116   18.2972 C   0  0  0  0  0  0  0  0  0  0  0  0
  -27.2072  -30.4324   16.2835 C   0  0  0  0  0  0  0  0  0  0  0  0
  -31.1133  -31.8453   24.1479 C   0  0  0  0  0  0  0  0  0  0  0  0
  -29.6250  -32.1598   24.1599 C   0  0  0  0  0  0  0  0  0  1  0  0
  -24.6437  -27.1582   19.0299 C   0  0  1  0  0  0  0  0  0  0  0  0
  -26.4876  -28.0804   15.8488 C   0  0  2  0  0  0  0  0  0  0  0  0
  -24.0231  -25.7437   19.2074 C   0  0  0  0  0  0  0  0  0  0  0  0
  -30.6431  -23.1917   17.9269 N   0  0  0  0  0  0  0  0  0  0  0  0
  -30.1696  -24.4372   18.1025 N   0  0  0  0  0  0  0  0  0  0  0  0
  -24.1484  -29.0880   20.4976 N   0  0  0  0  0  0  0  0  0  0  0  0
  -32.0865  -27.3142   16.4803 N   0  0  0  0  0  0  0  0  0  0  0  0
  -31.9520  -34.3215   20.0778 N   0  0  0  0  0  0  0  0  0  0  0  0
  -28.8436  -25.7677   19.5455 N   0  0  0  0  0  0  0  0  0  0  0  0
  -28.7401  -21.6953   21.4951 N   0  0  0  0  0  0  0  0  0  0  0  0
  -31.3464  -32.1173   21.7773 N   0  0  0  0  0  0  0  0  0  0  0  0
  -31.9099  -29.0923   18.0197 N   0  0  0  0  0  0  0  0  0  0  0  0
  -21.2583  -29.1681   22.2327 N   0  0  0  0  0  0  0  0  0  0  0  0
  -25.0375  -27.4703   17.6602 N   0  0  0  0  0  0  0  0  0  0  0  0
  -27.5117  -29.1386   15.6200 N   0  3  0  0  0  0  0  0  0  0  0  0
  -27.9916  -23.8569   21.6572 O   0  0  0  0  0  0  0  0  0  0  0  0
  -23.3546  -29.0691   23.2416 O   0  0  0  0  0  0  0  0  0  0  0  0
  -22.6150  -28.3794   18.8905 O   0  0  0  0  0  0  0  0  0  0  0  0
  -32.1010  -30.1281   22.7716 O   0  0  0  0  0  0  0  0  0  0  0  0
  -27.2718  -27.8807   18.1253 O   0  0  0  0  0  0  0  0  0  0  0  0
  -32.4315  -29.4950   15.7954 O   0  0  0  0  0  0  0  0  0  0  0  0
  -31.2769  -17.0932   19.6459 O   0  0  0  0  0  0  0  0  0  0  0  0
  -28.8840  -30.9532   23.9830 O   0  0  0  0  0  0  0  0  0  1  0  0
  -27.1059  -13.7579   21.0180 F   0  0  0  0  0  0  0  0  0  0  0  0
  -32.5117  -33.8136   17.4175 F   0  0  0  0  0  0  0  0  0  0  0  0
  -30.5539  -14.9815   18.0147 F   0  0  0  0  0  0  0  0  0  0  0  0
  1  2  1  0  0  0  0
  1  5  2  0  0  0  0
  2  6  2  0  0  0  0
  3  8  2  0  0  0  0
  3 17  1  0  0  0  0
  4  9  1  0  0  0  0
  4 17  2  0  0  0  0
  5 19  1  0  0  0  0
  6 21  1  0  0  0  0
  7 10  2  0  0  0  0
  7 20  1  0  0  0  0
  8 26  1  0  0  0  0
  9 26  2  0  0  0  0
 10 27  1  0  0  0  0
 11 12  2  0  0  0  0
 11 28  1  0  0  0  0
 12 29  1  0  0  0  0
 13 22  1  0  0  0  0
 13 27  2  0  0  0  0
 14 23  2  0  0  0  0
 14 24  1  0  0  0  0
 15 23  1  0  0  0  0
 15 30  2  0  0  0  0
 16 29  2  0  0  0  0
 16 31  1  0  0  0  0
 17 32  1  0  0  0  0
 18 32  1  0  0  0  0
 18 33  2  0  0  0  0
 18 34  1  0  0  0  0
 19 21  2  0  0  0  0
 19 40  1  0  0  0  0
 20 22  2  0  0  0  0
 20 41  1  0  0  0  0
 21 49  1  0  0  0  0
 22 42  1  0  0  0  0
 23 70  1  0  0  0  0
 24 25  2  0  0  0  0
 24 69  1  0  0  0  0
 25 30  1  0  0  0  0
 25 66  1  0  0  0  0
 26 80  1  0  0  0  0
 27 81  1  0  0  0  0
 28 31  2  0  0  0  0
 28 80  1  0  0  0  0
 29 82  1  0  0  0  0
 30 83  1  0  0  0  0
 31 84  1  0  0  0  0
 32 62  2  0  0  0  0
 33 63  1  0  0  0  0
 33 67  1  0  0  0  0
 34 68  1  0  0  0  0
 34 74  2  0  0  0  0
 35 50  1  0  0  0  0
 35 71  1  0  0  0  0
 35 75  2  0  0  0  0
 36 59  1  0  0  0  0
 36 64  1  0  0  0  0
 36 76  2  0  0  0  0
 37 57  1  0  0  0  0
 37 69  1  0  0  0  0
 37 77  2  0  0  0  0
 38 60  1  0  0  0  0
 38 72  1  0  0  0  0
 38 78  2  0  0  0  0
 39 65  1  0  0  0  0
 39 70  1  0  0  0  0
 39 79  2  0  0  0  0
 40 43  1  0  0  0  0
 41 50  1  0  0  0  0
 42 64  1  0  0  0  0
 43 45  1  0  0  0  0
 44 46  1  0  0  0  0
 44 47  1  0  0  0  0
 45 49  1  0  0  0  0
 46 51  1  0  0  0  0
 47 65  1  0  0  0  0
 48 51  1  0  0  0  0
 48 65  1  0  0  0  0
 49 71  1  0  0  0  0
 50 64  1  0  0  0  0
 51 63  1  0  0  0  0
 52 60  1  0  0  0  0
 53 61  1  0  0  0  0
 54 61  1  0  0  0  0
 55 61  1  0  0  0  0
 56 73  1  0  0  0  0
 57 58  1  0  0  0  0
 58 81  1  0  0  0  0
 59 61  1  0  0  0  0
 59 72  1  0  0  0  0
 60 73  1  0  0  0  0
 62 63  1  0  0  0  0
M  CHG  1  73   1
M  ISO  4  39 100  58 101  70 100  81 101
M  END
> <Batch ID>
0071

> <Smiles>
CNC(C)C(=O)NC(C(=O)N1Cc2cc([101O:1][101CH2:1]CC(=O)Nc3cc([100NH:0][100C:0](=O)N4CCCC(n5nc(-c6ccc(Oc7ccc(F)cc7F)cc6)c(C(N)=O)c5N)C4)cc(F)c3N)ccc2CC1C(=O)NC1CCCc2ccccc21)C(C)(C)C

> <Shape>
0.260

> <Color>
0.098

> <Negative vol penalty>
0.000

$$$$

  -OEChem-04042323353D

 87 96  0     1  0  0  0  0  0999 V2000
  -27.3569  -37.7719   22.2065 C   0  0  0  0  0  0  0  0  0  0  0  0
  -28.3621  -36.8310   22.0073 C   0  0  0  0  0  0  0  0  0  0  0  0
  -24.4777   -8.9701   21.5582 C   0  0  0  0  0  0  0  0  0  0  0  0
  -23.9956  -10.5579   23.3143 C   0  0  0  0  0  0  0  0  0  0  0  0
  -26.0872  -37.3593   22.6087 C   0  0  0  0  0  0  0  0  0  0  0  0
  -28.0985  -35.4770   22.2113 C   0  0  0  0  0  0  0  0  0  0  0  0
  -29.9226  -29.0017   19.7496 C   0  0  0  0  0  0  0  0  0  0  0  0
  -24.1185   -7.9228   22.4065 C   0  0  0  0  0  0  0  0  0  0  0  0
  -23.6363   -9.5105   24.1626 C   0  0  0  0  0  0  0  0  0  0  0  0
  -30.3821  -27.7666   20.2048 C   0  0  0  0  0  0  0  0  0  0  0  0
  -22.9837   -4.8552   23.9931 C   0  0  0  0  0  0  0  0  0  0  0  0
  -22.1667   -3.8512   23.4737 C   0  0  0  0  0  0  0  0  0  0  0  0
  -28.1297  -27.1630   20.8225 C   0  0  0  0  0  0  0  0  0  0  0  0
  -28.4137  -19.7305   20.2333 C   0  0  0  0  0  0  0  0  0  0  0  0
  -26.0761  -19.3740   19.7377 C   0  0  0  0  0  0  0  0  0  0  0  0
  -20.4505   -5.4874   23.0105 C   0  0  0  0  0  0  0  0  0  0  0  0
  -24.4164  -10.2877   22.0121 C   0  0  0  0  0  0  0  0  0  0  0  0
  -23.9464  -12.0826   20.2614 C   0  0  0  0  0  0  0  0  0  0  0  0
  -25.8053  -35.9987   22.8083 C   0  0  0  0  0  0  0  0  0  0  0  0
  -28.5625  -29.3316   19.8377 C   0  0  0  0  0  0  0  0  0  0  0  0
  -26.8243  -35.0460   22.6178 C   0  0  0  0  0  0  0  0  0  0  0  0
  -27.6551  -28.4020   20.3655 C   0  0  0  0  0  0  0  0  0  0  0  0
  -28.1765  -21.0983   20.3687 C   0  0  0  0  0  0  0  0  0  0  0  0
  -27.3636  -18.8683   19.9177 C   0  0  0  0  0  0  0  0  0  0  0  0
  -26.8890  -21.6040   20.1887 C   0  0  0  0  0  0  0  0  0  0  0  0
  -23.6977   -8.1930   23.7086 C   0  0  0  0  0  0  0  0  0  0  0  0
  -29.4861  -26.8482   20.7439 C   0  0  0  0  0  0  0  0  0  0  0  0
  -22.5342   -6.1754   24.0213 C   0  0  0  0  0  0  0  0  0  0  0  0
  -20.9001   -4.1672   22.9824 C   0  0  0  0  0  0  0  0  0  0  0  0
  -25.8388  -20.7418   19.8732 C   0  0  0  0  0  0  0  0  0  0  0  0
  -21.2675   -6.4914   23.5300 C   0  0  0  0  0  0  0  0  0  0  0  0
  -24.7879  -11.3700   21.1365 C   0  0  0  0  0  0  0  0  0  0  0  0
  -24.7736  -12.9997   19.6605 C   0  0  0  0  0  0  0  0  0  0  0  0
  -29.7439  -23.0406   19.9200 C   0  0  0  0  0  0  0  0  0  0  0  0
  -22.5425  -11.9294   20.0139 C   0  0  0  0  0  0  0  0  0  0  0  0
  -26.8923  -31.5787   21.3426 C   0  0  0  0  0  0  0  0  0  0  0  0
  -24.4209  -30.3184   19.6614 C   0  0  0  0  0  0  0  0  0  0  0  0
  -23.1048  -27.6309   18.0206 C   0  0  0  0  0  0  0  0  0  0  0  0
  -28.8217  -16.8140   19.9209 C   0  0  0  0  0  0  0  0  0  0  0  0
  -24.4310  -35.6050   23.2889 C   0  0  0  0  0  0  0  0  0  0  0  0
  -28.0788  -30.6575   19.3178 C   0  0  0  0  0  0  0  0  0  0  0  0
  -26.1819  -28.6996   20.4637 C   0  0  0  0  0  0  0  0  0  0  0  0
  -24.1297  -34.1180   23.1208 C   0  0  0  0  0  0  0  0  0  0  0  0
  -29.8192  -13.4036   19.6935 C   0  0  0  0  0  0  0  0  0  0  0  0
  -25.3017  -33.2766   23.6161 C   0  0  0  0  0  0  0  0  0  0  0  0
  -28.5299  -12.6292   19.9766 C   0  0  0  0  0  0  0  0  0  0  0  0
  -30.8318  -23.0714   22.0406 C   0  0  0  0  0  0  0  0  0  0  0  0
  -29.9170  -14.6712   20.5405 C   0  0  0  0  0  0  0  0  0  0  0  0
  -30.0672  -21.7705   21.8873 C   0  0  0  0  0  0  0  0  0  0  0  0
  -27.4645  -14.7893   20.7420 C   0  0  0  0  0  0  0  0  0  0  0  0
  -26.5704  -33.5659   22.8048 C   0  0  1  0  0  0  0  0  0  0  0  0
  -26.7495  -31.0900   19.9289 C   0  0  1  0  0  0  0  0  0  0  0  0
  -27.2903  -13.5384   19.8653 C   0  0  2  0  0  0  0  0  0  0  0  0
  -31.0038  -23.5698   20.6035 C   0  0  1  0  0  0  0  0  0  0  0  0
  -32.2333  -22.9463   19.9325 C   0  0  0  0  0  0  0  0  0  0  0  0
  -21.0510  -26.8906   16.7832 C   0  0  0  0  0  0  0  0  0  0  0  0
  -22.9371  -30.0155   22.3103 C   0  0  0  0  0  0  0  0  0  0  0  0
  -21.3566  -28.4470   21.1657 C   0  0  0  0  0  0  0  0  0  0  0  0
  -21.5244  -30.8181   20.4091 C   0  0  0  0  0  0  0  0  0  0  0  0
  -24.6343  -27.1557   15.5319 C   0  0  0  0  0  0  0  0  0  0  0  0
  -31.0785  -25.0935   20.5406 C   0  0  0  0  0  0  0  0  0  1  0  0
  -23.4153  -29.2183   19.9016 C   0  0  1  0  0  0  0  0  0  0  0  0
  -22.4357  -27.5080   16.6636 C   0  0  2  0  0  0  0  0  0  0  0  0
  -22.3363  -29.6196   20.9467 C   0  0  0  0  0  0  0  0  0  0  0  0
  -26.0527  -11.7975   21.0979 N   0  0  0  0  0  0  0  0  0  0  0  0
  -26.0121  -12.7887   20.1912 N   0  0  0  0  0  0  0  0  0  0  0  0
  -29.2673  -21.9609   20.6922 N   0  0  0  0  0  0  0  0  0  0  0  0
  -25.7588  -30.0119   19.9478 N   0  0  0  0  0  0  0  0  0  0  0  0
  -28.7098  -15.4850   20.3814 N   0  0  0  0  0  0  0  0  0  0  0  0
  -26.6291  -22.9868   20.3214 N   0  0  0  0  0  0  0  0  0  0  0  0
  -24.5551  -13.9580   18.7350 N   0  0  0  0  0  0  0  0  0  0  0  0
  -21.8444  -10.9383   20.7173 N   0  0  0  0  0  0  0  0  0  0  0  0
  -27.6044  -17.4790   19.7778 N   0  0  0  0  0  0  0  0  0  0  0  0
  -26.5147  -32.8956   21.5234 N   0  0  0  0  0  0  0  0  0  0  0  0
  -22.8769  -28.8646   18.5926 N   0  0  0  0  0  0  0  0  0  0  0  0
  -23.2545  -26.6536   15.7578 N   0  3  0  0  0  0  0  0  0  0  0  0
  -29.3234  -23.4860   18.8612 O   0  0  0  0  0  0  0  0  0  0  0  0
  -21.9287  -12.6390   19.1813 O   0  0  0  0  0  0  0  0  0  0  0  0
  -27.3124  -30.8170   22.2056 O   0  0  0  0  0  0  0  0  0  0  0  0
  -24.0346  -31.4070   19.2287 O   0  0  0  0  0  0  0  0  0  0  0  0
  -23.7609  -26.7219   18.5246 O   0  0  0  0  0  0  0  0  0  0  0  0
  -29.9147  -17.3157   19.6460 O   0  0  0  0  0  0  0  0  0  0  0  0
  -23.3469   -7.1712   24.5366 O   0  0  0  0  0  0  0  0  0  0  0  0
  -29.9321  -25.6422   21.1895 O   0  0  0  0  0  0  0  0  0  1  0  0
  -20.1161   -3.2031   22.4822 F   0  0  0  0  0  0  0  0  0  0  0  0
  -24.5978  -21.2170   19.6957 F   0  0  0  0  0  0  0  0  0  0  0  0
  -20.8306   -7.7581   23.5533 F   0  0  0  0  0  0  0  0  0  0  0  0
  1  2  1  0  0  0  0
  1  5  2  0  0  0  0
  2  6  2  0  0  0  0
  3  8  2  0  0  0  0
  3 17  1  0  0  0  0
  4  9  1  0  0  0  0
  4 17  2  0  0  0  0
  5 19  1  0  0  0  0
  6 21  1  0  0  0  0
  7 10  2  0  0  0  0
  7 20  1  0  0  0  0
  8 26  1  0  0  0  0
  9 26  2  0  0  0  0
 10 27  1  0  0  0  0
 11 12  2  0  0  0  0
 11 28  1  0  0  0  0
 12 29  1  0  0  0  0
 13 22  1  0  0  0  0
 13 27  2  0  0  0  0
 14 23  1  0  0  0  0
 14 24  2  0  0  0  0
 15 24  1  0  0  0  0
 15 30  2  0  0  0  0
 16 29  2  0  0  0  0
 16 31  1  0  0  0  0
 17 32  1  0  0  0  0
 18 32  1  0  0  0  0
 18 33  2  0  0  0  0
 18 35  1  0  0  0  0
 19 21  2  0  0  0  0
 19 40  1  0  0  0  0
 20 22  2  0  0  0  0
 20 41  1  0  0  0  0
 21 51  1  0  0  0  0
 22 42  1  0  0  0  0
 23 25  2  0  0  0  0
 23 67  1  0  0  0  0
 24 73  1  0  0  0  0
 25 30  1  0  0  0  0
 25 70  1  0  0  0  0
 26 83  1  0  0  0  0
 27 84  1  0  0  0  0
 28 31  2  0  0  0  0
 28 83  1  0  0  0  0
 29 85  1  0  0  0  0
 30 86  1  0  0  0  0
 31 87  1  0  0  0  0
 32 65  2  0  0  0  0
 33 66  1  0  0  0  0
 33 71  1  0  0  0  0
 34 54  1  0  0  0  0
 34 67  1  0  0  0  0
 34 77  2  0  0  0  0
 35 72  1  0  0  0  0
 35 78  2  0  0  0  0
 36 52  1  0  0  0  0
 36 74  1  0  0  0  0
 36 79  2  0  0  0  0
 37 62  1  0  0  0  0
 37 68  1  0  0  0  0
 37 80  2  0  0  0  0
 38 63  1  0  0  0  0
 38 75  1  0  0  0  0
 38 81  2  0  0  0  0
 39 69  1  0  0  0  0
 39 73  1  0  0  0  0
 39 82  2  0  0  0  0
 40 43  1  0  0  0  0
 41 52  1  0  0  0  0
 42 68  1  0  0  0  0
 43 45  1  0  0  0  0
 44 46  1  0  0  0  0
 44 48  1  0  0  0  0
 45 51  1  0  0  0  0
 46 53  1  0  0  0  0
 47 49  1  0  0  0  0
 47 54  1  0  0  0  0
 48 69  1  0  0  0  0
 49 67  1  0  0  0  0
 50 53  1  0  0  0  0
 50 69  1  0  0  0  0
 51 74  1  0  0  0  0
 52 68  1  0  0  0  0
 53 66  1  0  0  0  0
 54 55  1  0  0  0  0
 54 61  1  0  0  0  0
 56 63  1  0  0  0  0
 57 64  1  0  0  0  0
 58 64  1  0  0  0  0
 59 64  1  0  0  0  0
 60 76  1  0  0  0  0
 61 84  1  0  0  0  0
 62 64  1  0  0  0  0
 62 75  1  0  0  0  0
 63 76  1  0  0  0  0
 65 66  1  0  0  0  0
M  CHG  1  76   1
M  ISO  4  39 100  61 101  73 100  84 101
M  END
> <Batch ID>
0071

> <Smiles>
CNC(C)C(=O)NC(C(=O)N1Cc2cc([101O:1][101CH2:1]C3(C)CCN(c4cc([100NH:0][100C:0](=O)N5CCCC(n6nc(-c7ccc(Oc8ccc(F)cc8F)cc7)c(C(N)=O)c6N)C5)cc(F)c4N)C3=O)ccc2CC1C(=O)NC1CCCc2ccccc21)C(C)(C)C

> <Shape>
0.331

> <Color>
0.076

> <Negative vol penalty>
0.000

$$$$

  -OEChem-04042323353D

 86 94  0     1  0  0  0  0  0999 V2000
  -23.9416   -8.0464   22.0075 C   0  0  0  0  0  0  0  0  0  0  0  0
  -24.6237   -9.0767   21.3682 C   0  0  0  0  0  0  0  0  0  0  0  0
  -21.9867  -28.3369   21.3519 C   0  0  0  0  0  0  0  0  0  0  0  0
  -22.9608  -27.3735   23.3419 C   0  0  0  0  0  0  0  0  0  0  0  0
  -22.5845   -8.1840   22.2958 C   0  0  0  0  0  0  0  0  0  0  0  0
  -23.9488  -10.2449   21.0159 C   0  0  0  0  0  0  0  0  0  0  0  0
  -26.5671  -14.4239   22.1672 C   0  0  0  0  0  0  0  0  0  0  0  0
  -20.7176  -28.2275   21.9201 C   0  0  0  0  0  0  0  0  0  0  0  0
  -21.6917  -27.2641   23.9102 C   0  0  0  0  0  0  0  0  0  0  0  0
  -27.6102  -14.7774   21.3124 C   0  0  0  0  0  0  0  0  0  0  0  0
  -18.8511  -29.9021   24.1884 C   0  0  0  0  0  0  0  0  0  0  0  0
  -17.9954  -30.9982   24.0795 C   0  0  0  0  0  0  0  0  0  0  0  0
  -26.1827  -16.4095   20.2552 C   0  0  0  0  0  0  0  0  0  0  0  0
  -29.5484  -21.0036   20.9309 C   0  0  0  0  0  0  0  0  0  0  0  0
  -29.3073  -22.3004   22.9550 C   0  0  0  0  0  0  0  0  0  0  0  0
  -16.4003  -29.6340   22.8830 C   0  0  0  0  0  0  0  0  0  0  0  0
  -23.1083  -27.9099   22.0627 C   0  0  0  0  0  0  0  0  0  0  0  0
  -30.0301  -19.9981   23.0743 C   0  0  0  0  0  0  0  0  0  0  0  0
  -25.3033  -29.1138   21.5722 C   0  0  0  0  0  0  0  0  0  0  0  0
  -21.8948   -9.3584   21.9555 C   0  0  0  0  0  0  0  0  0  0  0  0
  -25.3185  -15.0540   22.0651 C   0  0  0  0  0  0  0  0  0  0  0  0
  -22.5808  -10.3978   21.2987 C   0  0  0  0  0  0  0  0  0  0  0  0
  -25.1262  -16.0640   21.1116 C   0  0  0  0  0  0  0  0  0  0  0  0
  -29.2270  -22.2032   21.5659 C   0  0  0  0  0  0  0  0  0  0  0  0
  -29.9499  -19.9010   21.6851 C   0  0  0  0  0  0  0  0  0  0  0  0
  -20.5700  -27.6911   23.1993 C   0  0  0  0  0  0  0  0  0  0  0  0
  -27.4172  -15.7683   20.3543 C   0  0  0  0  0  0  0  0  0  0  0  0
  -18.4815  -28.6719   23.6446 C   0  0  0  0  0  0  0  0  0  0  0  0
  -16.7700  -30.8641   23.4269 C   0  0  0  0  0  0  0  0  0  0  0  0
  -29.7088  -21.1978   23.7093 C   0  0  0  0  0  0  0  0  0  0  0  0
  -17.2561  -28.5379   22.9919 C   0  0  0  0  0  0  0  0  0  0  0  0
  -24.4196  -28.0221   21.4760 C   0  0  0  0  0  0  0  0  0  0  0  0
  -26.4047  -28.7287   20.8476 C   0  0  0  0  0  0  0  0  0  0  0  0
  -30.4486  -18.8631   23.8877 C   0  0  0  0  0  0  0  0  0  0  0  0
  -25.1429  -30.3640   22.2554 C   0  0  0  0  0  0  0  0  0  0  0  0
  -22.3644  -14.0850   21.4030 C   0  0  0  0  0  0  0  0  0  0  0  0
  -21.6092  -17.1496   22.1514 C   0  0  0  0  0  0  0  0  0  0  0  0
  -30.2399  -18.4459   19.6498 C   0  0  0  0  0  0  0  0  0  0  0  0
  -22.6185  -20.3983   22.4244 C   0  0  0  0  0  0  0  0  0  0  0  0
  -28.6874  -23.3960   19.4135 C   0  0  0  0  0  0  0  0  0  0  0  0
  -20.4170   -9.4422   22.2451 C   0  0  0  0  0  0  0  0  0  0  0  0
  -24.2116  -14.6799   23.0123 C   0  0  0  0  0  0  0  0  0  0  0  0
  -23.8110  -16.7851   20.9746 C   0  0  0  0  0  0  0  0  0  0  0  0
  -19.8621  -10.8625   22.1749 C   0  0  0  0  0  0  0  0  0  0  0  0
  -27.6763  -25.9564   17.1555 C   0  0  0  0  0  0  0  0  0  0  0  0
  -20.3605  -11.5688   20.9180 C   0  0  0  0  0  0  0  0  0  0  0  0
  -26.8118  -26.8793   18.0174 C   0  0  0  0  0  0  0  0  0  0  0  0
  -27.4873  -24.4878   17.5314 C   0  0  0  0  0  0  0  0  0  0  0  0
  -26.8087  -25.1056   19.8177 C   0  0  0  0  0  0  0  0  0  0  0  0
  -21.8891  -11.6903   20.9229 C   0  0  1  0  0  0  0  0  0  0  0  0
  -22.8254  -15.0275   22.4786 C   0  0  1  0  0  0  0  0  0  0  0  0
  -27.0137  -26.5999   19.5197 C   0  0  2  0  0  0  0  0  0  0  0  0
  -21.7675  -22.6817   23.0235 C   0  0  0  0  0  0  0  0  0  0  0  0
  -20.1975  -17.3289   19.4523 C   0  0  0  0  0  0  0  0  0  0  0  0
  -20.2093  -19.8212   19.6902 C   0  0  0  0  0  0  0  0  0  0  0  0
  -18.9756  -18.4182   21.3431 C   0  0  0  0  0  0  0  0  0  0  0  0
  -24.5271  -20.6468   24.6726 C   0  0  0  0  0  0  0  0  0  0  0  0
  -30.6618  -17.0103   19.3580 C   0  0  0  0  0  0  0  0  0  0  0  0
  -29.7625  -15.9770   20.0195 C   0  0  0  0  0  0  0  0  0  1  0  0
  -21.5035  -18.4434   21.3806 C   0  0  1  0  0  0  0  0  0  0  0  0
  -22.4416  -21.4181   23.5349 C   0  0  2  0  0  0  0  0  0  0  0  0
  -20.2458  -18.4882   20.4676 C   0  0  0  0  0  0  0  0  0  0  0  0
  -24.9166  -27.0189   20.7477 N   0  0  0  0  0  0  0  0  0  0  0  0
  -26.1245  -27.4787   20.3794 N   0  0  0  0  0  0  0  0  0  0  0  0
  -22.7576  -16.3793   21.9196 N   0  0  0  0  0  0  0  0  0  0  0  0
  -27.6983  -24.2983   18.9682 N   0  0  0  0  0  0  0  0  0  0  0  0
  -27.5758  -29.3408   20.5715 N   0  0  0  0  0  0  0  0  0  0  0  0
  -29.4607  -17.9960   24.3404 N   0  0  0  0  0  0  0  0  0  0  0  0
  -23.9489  -30.5966   22.9516 N   0  0  0  0  0  0  0  0  0  0  0  0
  -30.2713  -18.6942   21.0194 N   0  0  0  0  0  0  0  0  0  0  0  0
  -28.8195  -23.3234   20.7999 N   0  0  0  0  0  0  0  0  0  0  0  0
  -22.3081  -12.7626   21.7999 N   0  0  0  0  0  0  0  0  0  0  0  0
  -21.5620  -19.5139   22.3700 N   0  0  0  0  0  0  0  0  0  0  0  0
  -23.7644  -21.7913   24.1110 N   0  3  0  0  0  0  0  0  0  0  0  0
  -31.6421  -18.6850   24.1808 O   0  0  0  0  0  0  0  0  0  0  0  0
  -26.0253  -31.2553   22.2351 O   0  0  0  0  0  0  0  0  0  0  0  0
  -22.0795  -14.5252   20.2954 O   0  0  0  0  0  0  0  0  0  0  0  0
  -20.7097  -16.8377   22.9356 O   0  0  0  0  0  0  0  0  0  0  0  0
  -29.9262  -19.2281   18.7586 O   0  0  0  0  0  0  0  0  0  0  0  0
  -23.5944  -20.3895   21.6774 O   0  0  0  0  0  0  0  0  0  0  0  0
  -29.3858  -22.7564   18.6228 O   0  0  0  0  0  0  0  0  0  0  0  0
  -19.3318  -27.5844   23.7542 O   0  0  0  0  0  0  0  0  0  0  0  0
  -28.4335  -16.1148   19.5183 O   0  0  0  0  0  0  0  0  0  1  0  0
  -15.9477  -31.9164   23.3237 F   0  0  0  0  0  0  0  0  0  0  0  0
  -29.7832  -21.3046   25.0437 F   0  0  0  0  0  0  0  0  0  0  0  0
  -16.8949  -27.3583   22.4685 F   0  0  0  0  0  0  0  0  0  0  0  0
  1  2  1  0  0  0  0
  1  5  2  0  0  0  0
  2  6  2  0  0  0  0
  3  8  2  0  0  0  0
  3 17  1  0  0  0  0
  4  9  1  0  0  0  0
  4 17  2  0  0  0  0
  5 20  1  0  0  0  0
  6 22  1  0  0  0  0
  7 10  2  0  0  0  0
  7 21  1  0  0  0  0
  8 26  1  0  0  0  0
  9 26  2  0  0  0  0
 10 27  1  0  0  0  0
 11 12  2  0  0  0  0
 11 28  1  0  0  0  0
 12 29  1  0  0  0  0
 13 23  1  0  0  0  0
 13 27  2  0  0  0  0
 14 24  2  0  0  0  0
 14 25  1  0  0  0  0
 15 24  1  0  0  0  0
 15 30  2  0  0  0  0
 16 29  2  0  0  0  0
 16 31  1  0  0  0  0
 17 32  1  0  0  0  0
 18 25  2  0  0  0  0
 18 30  1  0  0  0  0
 18 34  1  0  0  0  0
 19 32  1  0  0  0  0
 19 33  2  0  0  0  0
 19 35  1  0  0  0  0
 20 22  2  0  0  0  0
 20 41  1  0  0  0  0
 21 23  2  0  0  0  0
 21 42  1  0  0  0  0
 22 50  1  0  0  0  0
 23 43  1  0  0  0  0
 24 71  1  0  0  0  0
 25 70  1  0  0  0  0
 26 82  1  0  0  0  0
 27 83  1  0  0  0  0
 28 31  2  0  0  0  0
 28 82  1  0  0  0  0
 29 84  1  0  0  0  0
 30 85  1  0  0  0  0
 31 86  1  0  0  0  0
 32 63  2  0  0  0  0
 33 64  1  0  0  0  0
 33 67  1  0  0  0  0
 34 68  1  0  0  0  0
 34 75  2  0  0  0  0
 35 69  1  0  0  0  0
 35 76  2  0  0  0  0
 36 51  1  0  0  0  0
 36 72  1  0  0  0  0
 36 77  2  0  0  0  0
 37 60  1  0  0  0  0
 37 65  1  0  0  0  0
 37 78  2  0  0  0  0
 38 58  1  0  0  0  0
 38 70  1  0  0  0  0
 38 79  2  0  0  0  0
 39 61  1  0  0  0  0
 39 73  1  0  0  0  0
 39 80  2  0  0  0  0
 40 66  1  0  0  0  0
 40 71  1  0  0  0  0
 40 81  2  0  0  0  0
 41 44  1  0  0  0  0
 42 51  1  0  0  0  0
 43 65  1  0  0  0  0
 44 46  1  0  0  0  0
 45 47  1  0  0  0  0
 45 48  1  0  0  0  0
 46 50  1  0  0  0  0
 47 52  1  0  0  0  0
 48 66  1  0  0  0  0
 49 52  1  0  0  0  0
 49 66  1  0  0  0  0
 50 72  1  0  0  0  0
 51 65  1  0  0  0  0
 52 64  1  0  0  0  0
 53 61  1  0  0  0  0
 54 62  1  0  0  0  0
 55 62  1  0  0  0  0
 56 62  1  0  0  0  0
 57 74  1  0  0  0  0
 58 59  1  0  0  0  0
 59 83  1  0  0  0  0
 60 62  1  0  0  0  0
 60 73  1  0  0  0  0
 61 74  1  0  0  0  0
 63 64  1  0  0  0  0
M  CHG  1  74   1
M  ISO  4  40 100  59 101  71 100  83 101
M  END
> <Batch ID>
0071

> <Smiles>
CNC(C)C(=O)NC(C(=O)N1Cc2cc([101O:1][101CH2:1]CC(=O)Nc3cc([100NH:0][100C:0](=O)N4CCCC(n5nc(-c6ccc(Oc7ccc(F)cc7F)cc6)c(C(N)=O)c5N)C4)cc(F)c3C(N)=O)ccc2CC1C(=O)NC1CCCc2ccccc21)C(C)(C)C

> <Shape>
0.246

> <Color>
0.084

> <Negative vol penalty>
0.000

$$$$

  -OEChem-04042323353D

 87 96  0     1  0  0  0  0  0999 V2000
  -17.2800  -30.8728   24.0133 C   0  0  0  0  0  0  0  0  0  0  0  0
  -17.8255  -29.8210   24.7424 C   0  0  0  0  0  0  0  0  0  0  0  0
  -28.1394  -16.1223   20.3054 C   0  0  0  0  0  0  0  0  0  0  0  0
  -30.1733  -14.8753   19.9243 C   0  0  0  0  0  0  0  0  0  0  0  0
  -17.5509  -30.9892   22.6506 C   0  0  0  0  0  0  0  0  0  0  0  0
  -18.6414  -28.8843   24.1089 C   0  0  0  0  0  0  0  0  0  0  0  0
  -24.3036  -24.6725   25.3403 C   0  0  0  0  0  0  0  0  0  0  0  0
  -29.1242  -21.8394   21.3359 C   0  0  0  0  0  0  0  0  0  0  0  0
  -29.6245  -22.5084   20.2189 C   0  0  0  0  0  0  0  0  0  0  0  0
  -27.3870  -15.0139   19.9167 C   0  0  0  0  0  0  0  0  0  0  0  0
  -29.4209  -13.7669   19.5357 C   0  0  0  0  0  0  0  0  0  0  0  0
  -24.7008  -23.3410   25.2254 C   0  0  0  0  0  0  0  0  0  0  0  0
  -26.3791  -12.0866   21.2760 C   0  0  0  0  0  0  0  0  0  0  0  0
  -25.2793  -11.7418   22.0617 C   0  0  0  0  0  0  0  0  0  0  0  0
  -25.1640  -23.6877   22.8835 C   0  0  0  0  0  0  0  0  0  0  0  0
  -27.5464  -20.6700   19.9288 C   0  0  0  0  0  0  0  0  0  0  0  0
  -23.8232  -12.0499   20.1585 C   0  0  0  0  0  0  0  0  0  0  0  0
  -29.5325  -16.0530   20.3092 C   0  0  0  0  0  0  0  0  0  0  0  0
  -30.7485  -17.5149   22.0097 C   0  0  0  0  0  0  0  0  0  0  0  0
  -18.3784  -30.0590   22.0021 C   0  0  0  0  0  0  0  0  0  0  0  0
  -24.3233  -25.5201   24.2234 C   0  0  0  0  0  0  0  0  0  0  0  0
  -18.9225  -28.9876   22.7359 C   0  0  0  0  0  0  0  0  0  0  0  0
  -24.7690  -25.0301   22.9875 C   0  0  0  0  0  0  0  0  0  0  0  0
  -28.0851  -20.9201   21.1909 C   0  0  0  0  0  0  0  0  0  0  0  0
  -29.0857  -22.2582   18.9569 C   0  0  0  0  0  0  0  0  0  0  0  0
  -28.0466  -21.3390   18.8118 C   0  0  0  0  0  0  0  0  0  0  0  0
  -28.0277  -13.8362   19.5319 C   0  0  0  0  0  0  0  0  0  0  0  0
  -25.1284  -22.8476   23.9962 C   0  0  0  0  0  0  0  0  0  0  0  0
  -26.2009  -12.4131   19.9316 C   0  0  0  0  0  0  0  0  0  0  0  0
  -24.0014  -11.7235   21.5029 C   0  0  0  0  0  0  0  0  0  0  0  0
  -24.9230  -12.3948   19.3729 C   0  0  0  0  0  0  0  0  0  0  0  0
  -30.3103  -17.1977   20.7100 C   0  0  0  0  0  0  0  0  0  0  0  0
  -31.4425  -18.6907   21.8607 C   0  0  0  0  0  0  0  0  0  0  0  0
  -26.5332  -19.2851   22.3462 C   0  0  0  0  0  0  0  0  0  0  0  0
  -30.5464  -16.8096   23.2416 C   0  0  0  0  0  0  0  0  0  0  0  0
  -22.1259  -27.1506   22.6058 C   0  0  0  0  0  0  0  0  0  0  0  0
  -24.7114  -28.3164   21.0315 C   0  0  0  0  0  0  0  0  0  0  0  0
  -27.9627  -27.8900   20.0860 C   0  0  0  0  0  0  0  0  0  0  0  0
  -30.9667  -22.8727   17.4156 C   0  0  0  0  0  0  0  0  0  0  0  0
  -18.6043  -30.1994   20.5175 C   0  0  0  0  0  0  0  0  0  0  0  0
  -23.9170  -26.9608   24.3699 C   0  0  0  0  0  0  0  0  0  0  0  0
  -24.8281  -25.9044   21.7625 C   0  0  0  0  0  0  0  0  0  0  0  0
  -26.4127  -18.7654   23.7640 C   0  0  0  0  0  0  0  0  0  0  0  0
  -19.7820  -29.3774   20.0002 C   0  0  0  0  0  0  0  0  0  0  0  0
  -34.0029  -21.1783   18.6820 C   0  0  0  0  0  0  0  0  0  0  0  0
  -19.7298  -27.9592   20.5596 C   0  0  0  0  0  0  0  0  0  0  0  0
  -33.4358  -19.9460   19.3843 C   0  0  0  0  0  0  0  0  0  0  0  0
  -33.1078  -21.6390   17.5357 C   0  0  0  0  0  0  0  0  0  0  0  0
  -31.1251  -20.6576   18.6524 C   0  0  0  0  0  0  0  0  0  0  0  0
  -28.1526  -20.3987   23.6577 C   0  0  0  0  0  0  0  0  0  0  0  0
  -19.8324  -27.9656   22.0896 C   0  0  1  0  0  0  0  0  0  0  0  0
  -23.4893  -27.5981   23.0514 C   0  0  1  0  0  0  0  0  0  0  0  0
  -31.9881  -20.1978   19.8369 C   0  0  1  0  0  0  0  0  0  0  0  0
  -27.0781  -19.8583   24.5903 C   0  0  1  0  0  0  0  0  0  0  0  0
  -29.7931  -28.9947   18.7718 C   0  0  0  0  0  0  0  0  0  0  0  0
  -23.3581  -27.4625   18.4336 C   0  0  0  0  0  0  0  0  0  0  0  0
  -25.5693  -27.7031   17.2842 C   0  0  0  0  0  0  0  0  0  0  0  0
  -24.4900  -29.6905   18.3369 C   0  0  0  0  0  0  0  0  0  0  0  0
  -28.7985  -24.0080   17.2114 C   0  0  0  0  0  0  0  0  0  0  0  0
  -29.7105  -28.0882   22.4661 C   0  0  0  0  0  0  0  0  0  0  0  0
  -26.0887  -20.9366   25.0363 C   0  0  0  0  0  0  0  0  0  1  0  0
  -25.4972  -27.9007   19.8114 C   0  0  1  0  0  0  0  0  0  0  0  0
  -29.1590  -28.8228   20.1434 C   0  0  2  0  0  0  0  0  0  0  0  0
  -24.7258  -28.1720   18.4890 C   0  0  0  0  0  0  0  0  0  0  0  0
  -30.6936  -18.0994   19.8023 N   0  0  0  0  0  0  0  0  0  0  0  0
  -31.3799  -18.9948   20.5326 N   0  0  0  0  0  0  0  0  0  0  0  0
  -27.5738  -20.2358   22.3337 N   0  0  0  0  0  0  0  0  0  0  0  0
  -24.4146  -27.3042   21.9552 N   0  0  0  0  0  0  0  0  0  0  0  0
  -31.7206  -21.8168   17.9678 N   0  0  0  0  0  0  0  0  0  0  0  0
  -27.4865  -21.0702   17.5427 N   0  0  0  0  0  0  0  0  0  0  0  0
  -32.0940  -19.4840   22.7375 N   0  0  0  0  0  0  0  0  0  0  0  0
  -29.8098  -15.6175   23.2158 N   0  0  0  0  0  0  0  0  0  0  0  0
  -21.2034  -28.1743   22.5034 N   0  0  0  0  0  0  0  0  0  0  0  0
  -26.7841  -28.5818   19.9030 N   0  0  0  0  0  0  0  0  0  0  0  0
  -29.6202  -22.9623   17.8169 N   0  0  0  0  0  0  0  0  0  0  0  0
  -27.6994  -19.2744   25.8049 N   0  3  0  0  0  0  0  0  0  0  0  0
  -30.1911  -28.2848   21.0742 N   0  3  0  0  0  0  0  0  0  0  0  0
  -25.8500  -18.8539   21.4288 O   0  0  0  0  0  0  0  0  0  0  0  0
  -30.9914  -17.2328   24.3354 O   0  0  0  0  0  0  0  0  0  0  0  0
  -21.9261  -25.9647   22.3709 O   0  0  0  0  0  0  0  0  0  0  0  0
  -24.3796  -29.4970   21.1638 O   0  0  0  0  0  0  0  0  0  0  0  0
  -28.0641  -26.6696   20.1891 O   0  0  0  0  0  0  0  0  0  0  0  0
  -31.4437  -23.6497   16.5793 O   0  0  0  0  0  0  0  0  0  0  0  0
  -27.2939  -12.7544   19.1528 O   0  0  0  0  0  0  0  0  0  0  0  0
  -25.5160  -21.5483   23.8812 O   0  0  0  0  0  0  0  0  0  1  0  0
  -22.9456  -11.3909   22.2571 F   0  0  0  0  0  0  0  0  0  0  0  0
  -24.7457  -12.7064   18.0817 F   0  0  0  0  0  0  0  0  0  0  0  0
  1  2  1  0  0  0  0
  1  5  2  0  0  0  0
  2  6  2  0  0  0  0
  3 10  2  0  0  0  0
  3 18  1  0  0  0  0
  4 11  1  0  0  0  0
  4 18  2  0  0  0  0
  5 20  1  0  0  0  0
  6 22  1  0  0  0  0
  7 12  2  0  0  0  0
  7 21  1  0  0  0  0
  8  9  2  0  0  0  0
  8 24  1  0  0  0  0
  9 25  1  0  0  0  0
 10 27  1  0  0  0  0
 11 27  2  0  0  0  0
 12 28  1  0  0  0  0
 13 14  2  0  0  0  0
 13 29  1  0  0  0  0
 14 30  1  0  0  0  0
 15 23  1  0  0  0  0
 15 28  2  0  0  0  0
 16 24  2  0  0  0  0
 16 26  1  0  0  0  0
 17 30  2  0  0  0  0
 17 31  1  0  0  0  0
 18 32  1  0  0  0  0
 19 32  1  0  0  0  0
 19 33  2  0  0  0  0
 19 35  1  0  0  0  0
 20 22  2  0  0  0  0
 20 40  1  0  0  0  0
 21 23  2  0  0  0  0
 21 41  1  0  0  0  0
 22 51  1  0  0  0  0
 23 42  1  0  0  0  0
 24 67  1  0  0  0  0
 25 26  2  0  0  0  0
 25 75  1  0  0  0  0
 26 70  1  0  0  0  0
 27 84  1  0  0  0  0
 28 85  1  0  0  0  0
 29 31  2  0  0  0  0
 29 84  1  0  0  0  0
 30 86  1  0  0  0  0
 31 87  1  0  0  0  0
 32 65  2  0  0  0  0
 33 66  1  0  0  0  0
 33 71  1  0  0  0  0
 34 43  1  0  0  0  0
 34 67  1  0  0  0  0
 34 78  2  0  0  0  0
 35 72  1  0  0  0  0
 35 79  2  0  0  0  0
 36 52  1  0  0  0  0
 36 73  1  0  0  0  0
 36 80  2  0  0  0  0
 37 62  1  0  0  0  0
 37 68  1  0  0  0  0
 37 81  2  0  0  0  0
 38 63  1  0  0  0  0
 38 74  1  0  0  0  0
 38 82  2  0  0  0  0
 39 69  1  0  0  0  0
 39 75  1  0  0  0  0
 39 83  2  0  0  0  0
 40 44  1  0  0  0  0
 41 52  1  0  0  0  0
 42 68  1  0  0  0  0
 43 54  1  0  0  0  0
 44 46  1  0  0  0  0
 45 47  1  0  0  0  0
 45 48  1  0  0  0  0
 46 51  1  0  0  0  0
 47 53  1  0  0  0  0
 48 69  1  0  0  0  0
 49 53  1  0  0  0  0
 49 69  1  0  0  0  0
 50 54  1  0  0  0  0
 50 67  1  0  0  0  0
 51 73  1  0  0  0  0
 52 68  1  0  0  0  0
 53 66  1  0  0  0  0
 54 61  1  0  0  0  0
 54 76  1  0  0  0  0
 55 63  1  0  0  0  0
 56 64  1  0  0  0  0
 57 64  1  0  0  0  0
 58 64  1  0  0  0  0
 59 75  1  0  0  0  0
 60 77  1  0  0  0  0
 61 85  1  0  0  0  0
 62 64  1  0  0  0  0
 62 74  1  0  0  0  0
 63 77  1  0  0  0  0
 65 66  1  0  0  0  0
M  CHG  2  76   1  77   1
M  ISO  4  39 100  61 101  75 100  85 101
M  END
> <Batch ID>
0071

> <Smiles>
CNC(C)C(=O)NC(C(=O)N1Cc2cc([101O:1][101CH2:1]C3(N)CC(=O)N(c4ccc([100N:0](C)[100C:0](=O)N5CCCC(n6nc(-c7ccc(Oc8ccc(F)cc8F)cc7)c(C(N)=O)c6N)C5)c(N)c4)C3)ccc2CC1C(=O)NC1CCCc2ccccc21)C(C)(C)C

> <Shape>
0.240

> <Color>
0.059

> <Negative vol penalty>
0.000

$$$$

  -OEChem-04042323353D

 90 99  0     1  0  0  0  0  0999 V2000
  -19.5595  -28.7659   23.6448 C   0  0  0  0  0  0  0  0  0  0  0  0
  -20.2576  -27.5626   23.6387 C   0  0  0  0  0  0  0  0  0  0  0  0
  -29.3764  -23.5395   21.3630 C   0  0  0  0  0  0  0  0  0  0  0  0
  -27.3699  -23.3031   20.0382 C   0  0  0  0  0  0  0  0  0  0  0  0
  -18.4735  -28.9448   22.7889 C   0  0  0  0  0  0  0  0  0  0  0  0
  -19.8695  -26.5370   22.7773 C   0  0  0  0  0  0  0  0  0  0  0  0
  -23.5267  -22.5081   19.9668 C   0  0  0  0  0  0  0  0  0  0  0  0
  -29.4463  -24.8888   21.0165 C   0  0  0  0  0  0  0  0  0  0  0  0
  -27.4398  -24.6524   19.6917 C   0  0  0  0  0  0  0  0  0  0  0  0
  -23.8760  -21.1916   20.2647 C   0  0  0  0  0  0  0  0  0  0  0  0
  -26.8872  -28.1200   18.7489 C   0  0  0  0  0  0  0  0  0  0  0  0
  -25.7103  -28.8664   18.8049 C   0  0  0  0  0  0  0  0  0  0  0  0
  -22.1585  -20.4031   18.7655 C   0  0  0  0  0  0  0  0  0  0  0  0
  -24.2100  -12.5984   21.3075 C   0  0  0  0  0  0  0  0  0  0  0  0
  -26.5398  -12.3598   19.7917 C   0  0  0  0  0  0  0  0  0  0  0  0
  -25.5120  -28.3771   21.1625 C   0  0  0  0  0  0  0  0  0  0  0  0
  -28.3383  -22.7466   20.8738 C   0  0  0  0  0  0  0  0  0  0  0  0
  -27.6009  -20.7920   22.3379 C   0  0  0  0  0  0  0  0  0  0  0  0
  -18.0779  -27.9245   21.9097 C   0  0  0  0  0  0  0  0  0  0  0  0
  -22.4816  -22.7823   19.0729 C   0  0  0  0  0  0  0  0  0  0  0  0
  -18.7764  -26.7020   21.9097 C   0  0  0  0  0  0  0  0  0  0  0  0
  -21.7995  -21.7239   18.4560 C   0  0  0  0  0  0  0  0  0  0  0  0
  -24.6145  -11.3471   20.8427 C   0  0  0  0  0  0  0  0  0  0  0  0
  -24.9704  -13.7305   21.0144 C   0  0  0  0  0  0  0  0  0  0  0  0
  -26.1353  -13.6112   20.2565 C   0  0  0  0  0  0  0  0  0  0  0  0
  -28.4779  -25.4453   20.1809 C   0  0  0  0  0  0  0  0  0  0  0  0
  -23.1900  -20.1389   19.6662 C   0  0  0  0  0  0  0  0  0  0  0  0
  -27.3766  -27.5020   19.8998 C   0  0  0  0  0  0  0  0  0  0  0  0
  -25.0227  -28.9950   20.0117 C   0  0  0  0  0  0  0  0  0  0  0  0
  -25.7794  -11.2277   20.0849 C   0  0  0  0  0  0  0  0  0  0  0  0
  -26.6890  -27.6306   21.1065 C   0  0  0  0  0  0  0  0  0  0  0  0
  -28.2659  -21.3526   21.2309 C   0  0  0  0  0  0  0  0  0  0  0  0
  -27.8307  -19.4423   22.2291 C   0  0  0  0  0  0  0  0  0  0  0  0
  -24.2078  -16.1304   20.7227 C   0  0  0  0  0  0  0  0  0  0  0  0
  -26.8430  -21.4340   23.3719 C   0  0  0  0  0  0  0  0  0  0  0  0
  -19.6741  -24.2572   19.2886 C   0  0  0  0  0  0  0  0  0  0  0  0
  -19.6151  -23.7772   16.0811 C   0  0  0  0  0  0  0  0  0  0  0  0
  -20.7051  -21.9656   13.4021 C   0  0  0  0  0  0  0  0  0  0  0  0
  -28.1049  -14.7763   19.2031 C   0  0  0  0  0  0  0  0  0  0  0  0
  -16.8685  -28.1470   21.0365 C   0  0  0  0  0  0  0  0  0  0  0  0
  -22.1347  -24.2079   18.7417 C   0  0  0  0  0  0  0  0  0  0  0  0
  -20.6834  -21.9650   17.4738 C   0  0  0  0  0  0  0  0  0  0  0  0
  -16.7538  -27.1474   19.8885 C   0  0  0  0  0  0  0  0  0  0  0  0
  -30.9847  -16.8700   19.2196 C   0  0  0  0  0  0  0  0  0  0  0  0
  -16.9900  -25.7270   20.3919 C   0  0  0  0  0  0  0  0  0  0  0  0
  -30.4794  -18.1767   19.8354 C   0  0  0  0  0  0  0  0  0  0  0  0
  -29.9296  -16.2181   18.3276 C   0  0  0  0  0  0  0  0  0  0  0  0
  -24.3157  -15.2522   22.9117 C   0  0  0  0  0  0  0  0  0  0  0  0
  -28.1155  -17.3210   19.5773 C   0  0  0  0  0  0  0  0  0  0  0  0
  -18.4013  -25.5749   20.9722 C   0  0  1  0  0  0  0  0  0  0  0  0
  -23.6768  -17.1893   21.6781 C   0  0  1  0  0  0  0  0  0  0  0  0
  -20.7140  -24.3691   18.2098 C   0  0  1  0  0  0  0  0  0  0  0  0
  -24.2799  -16.7706   23.0197 C   0  0  1  0  0  0  0  0  0  0  0  0
  -29.1203  -17.9812   20.5355 C   0  0  2  0  0  0  0  0  0  0  0  0
  -23.4832  -17.2519   24.2223 C   0  0  0  0  0  0  0  0  0  0  0  0
  -20.4530  -21.7854   10.9119 C   0  0  0  0  0  0  0  0  0  0  0  0
  -16.8900  -22.4566   16.4549 C   0  0  0  0  0  0  0  0  0  0  0  0
  -17.1279  -21.4771   14.1632 C   0  0  0  0  0  0  0  0  0  0  0  0
  -17.0589  -23.9532   14.4583 C   0  0  0  0  0  0  0  0  0  0  0  0
  -23.5800  -22.5081   12.9553 C   0  0  0  0  0  0  0  0  0  0  0  0
  -24.0586  -18.5978   21.2557 C   0  0  0  0  0  0  0  0  0  1  0  0
  -19.1207  -22.6767   15.1737 C   0  0  1  0  0  0  0  0  0  0  0  0
  -21.2538  -22.3933   12.0529 C   0  0  2  0  0  0  0  0  0  0  0  0
  -23.8008  -10.1379   21.1601 C   0  0  0  0  0  0  0  0  0  0  0  0
  -17.5691  -22.6360   15.0825 C   0  0  0  0  0  0  0  0  0  0  0  0
  -28.8729  -20.4340   20.4747 N   0  0  0  0  0  0  0  0  0  0  0  0
  -28.5902  -19.2827   21.1075 N   0  0  0  0  0  0  0  0  0  0  0  0
  -24.5347  -15.0004   21.4993 N   0  0  0  0  0  0  0  0  0  0  0  0
  -20.3772  -23.3763   17.1875 N   0  0  0  0  0  0  0  0  0  0  0  0
  -28.6706  -16.0608   19.0589 N   0  0  0  0  0  0  0  0  0  0  0  0
  -27.4553  -18.3882   22.9844 N   0  0  0  0  0  0  0  0  0  0  0  0
  -26.7059  -22.8282   23.3322 N   0  0  0  0  0  0  0  0  0  0  0  0
  -26.9248  -14.7459   19.9455 N   0  0  0  0  0  0  0  0  0  0  0  0
  -19.3750  -25.4555   19.9082 N   0  0  0  0  0  0  0  0  0  0  0  0
  -19.7896  -22.8728   13.8921 N   0  0  0  0  0  0  0  0  0  0  0  0
  -22.6738  -21.9639   11.9115 N   0  3  0  0  0  0  0  0  0  0  0  0
  -24.2511  -16.2846   19.5106 O   0  0  0  0  0  0  0  0  0  0  0  0
  -26.3172  -20.7919   24.3126 O   0  0  0  0  0  0  0  0  0  0  0  0
  -19.1787  -23.1647   19.5393 O   0  0  0  0  0  0  0  0  0  0  0  0
  -19.3414  -24.9500   15.8139 O   0  0  0  0  0  0  0  0  0  0  0  0
  -21.0510  -20.9283   13.9634 O   0  0  0  0  0  0  0  0  0  0  0  0
  -28.6432  -13.7731   18.7279 O   0  0  0  0  0  0  0  0  0  0  0  0
  -28.5456  -26.7620   19.8428 O   0  0  0  0  0  0  0  0  0  0  0  0
  -23.5285  -18.8530   19.9556 O   0  0  0  0  0  0  0  0  0  1  0  0
  -23.8932  -29.7132   20.0656 F   0  0  0  0  0  0  0  0  0  0  0  0
  -26.1756  -10.0295   19.6333 F   0  0  0  0  0  0  0  0  0  0  0  0
  -27.1548  -27.0403   22.2157 F   0  0  0  0  0  0  0  0  0  0  0  0
  -22.6914  -10.4062   21.9105 F   0  0  0  0  0  0  0  0  0  0  0  0
  -23.3335   -9.4877   20.0536 F   0  0  0  0  0  0  0  0  0  0  0  0
  -24.5024   -9.2033   21.8651 F   0  0  0  0  0  0  0  0  0  0  0  0
  1  2  1  0  0  0  0
  1  5  2  0  0  0  0
  2  6  2  0  0  0  0
  3  8  2  0  0  0  0
  3 17  1  0  0  0  0
  4  9  1  0  0  0  0
  4 17  2  0  0  0  0
  5 19  1  0  0  0  0
  6 21  1  0  0  0  0
  7 10  2  0  0  0  0
  7 20  1  0  0  0  0
  8 26  1  0  0  0  0
  9 26  2  0  0  0  0
 10 27  1  0  0  0  0
 11 12  2  0  0  0  0
 11 28  1  0  0  0  0
 12 29  1  0  0  0  0
 13 22  1  0  0  0  0
 13 27  2  0  0  0  0
 14 23  2  0  0  0  0
 14 24  1  0  0  0  0
 15 25  1  0  0  0  0
 15 30  2  0  0  0  0
 16 29  2  0  0  0  0
 16 31  1  0  0  0  0
 17 32  1  0  0  0  0
 18 32  1  0  0  0  0
 18 33  2  0  0  0  0
 18 35  1  0  0  0  0
 19 21  2  0  0  0  0
 19 40  1  0  0  0  0
 20 22  2  0  0  0  0
 20 41  1  0  0  0  0
 21 50  1  0  0  0  0
 22 42  1  0  0  0  0
 23 30  1  0  0  0  0
 23 64  1  0  0  0  0
 24 25  2  0  0  0  0
 24 68  1  0  0  0  0
 25 73  1  0  0  0  0
 26 83  1  0  0  0  0
 27 84  1  0  0  0  0
 28 31  2  0  0  0  0
 28 83  1  0  0  0  0
 29 85  1  0  0  0  0
 30 86  1  0  0  0  0
 31 87  1  0  0  0  0
 32 66  2  0  0  0  0
 33 67  1  0  0  0  0
 33 71  1  0  0  0  0
 34 51  1  0  0  0  0
 34 68  1  0  0  0  0
 34 77  2  0  0  0  0
 35 72  1  0  0  0  0
 35 78  2  0  0  0  0
 36 52  1  0  0  0  0
 36 74  1  0  0  0  0
 36 79  2  0  0  0  0
 37 62  1  0  0  0  0
 37 69  1  0  0  0  0
 37 80  2  0  0  0  0
 38 63  1  0  0  0  0
 38 75  1  0  0  0  0
 38 81  2  0  0  0  0
 39 70  1  0  0  0  0
 39 73  1  0  0  0  0
 39 82  2  0  0  0  0
 40 43  1  0  0  0  0
 41 52  1  0  0  0  0
 42 69  1  0  0  0  0
 43 45  1  0  0  0  0
 44 46  1  0  0  0  0
 44 47  1  0  0  0  0
 45 50  1  0  0  0  0
 46 54  1  0  0  0  0
 47 70  1  0  0  0  0
 48 53  1  0  0  0  0
 48 68  1  0  0  0  0
 49 54  1  0  0  0  0
 49 70  1  0  0  0  0
 50 74  1  0  0  0  0
 51 53  1  0  0  0  0
 51 61  1  0  0  0  0
 52 69  1  0  0  0  0
 53 55  1  0  0  0  0
 54 67  1  0  0  0  0
 56 63  1  0  0  0  0
 57 65  1  0  0  0  0
 58 65  1  0  0  0  0
 59 65  1  0  0  0  0
 60 76  1  0  0  0  0
 61 84  1  0  0  0  0
 62 65  1  0  0  0  0
 62 75  1  0  0  0  0
 63 76  1  0  0  0  0
 64 88  1  0  0  0  0
 64 89  1  0  0  0  0
 64 90  1  0  0  0  0
 66 67  1  0  0  0  0
M  CHG  1  76   1
M  ISO  4  39 100  61 101  73 100  84 101
M  END
> <Batch ID>
0071

> <Smiles>
CNC(C)C(=O)NC(C(=O)N1Cc2cc([101O:1][101CH2:1]C3C(=O)N(c4cc(C(F)(F)F)c(F)cc4[100NH:0][100C:0](=O)N4CCCC(n5nc(-c6ccc(Oc7ccc(F)cc7F)cc6)c(C(N)=O)c5N)C4)CC3C)ccc2CC1C(=O)NC1CCCc2ccccc21)C(C)(C)C

> <Shape>
0.210

> <Color>
0.087

> <Negative vol penalty>
0.000

$$$$

  -OEChem-04042323353D

 88 97  0     1  0  0  0  0  0999 V2000
  -21.5071  -12.9779   25.4861 C   0  0  0  0  0  0  0  0  0  0  0  0
  -22.2831  -14.0938   25.1891 C   0  0  0  0  0  0  0  0  0  0  0  0
  -22.9842   -9.8794   20.0190 C   0  0  0  0  0  0  0  0  0  0  0  0
  -23.7900   -9.9459   22.2957 C   0  0  0  0  0  0  0  0  0  0  0  0
  -20.1524  -12.9646   25.1567 C   0  0  0  0  0  0  0  0  0  0  0  0
  -21.7049  -15.1966   24.5616 C   0  0  0  0  0  0  0  0  0  0  0  0
  -23.1031  -19.5845   26.6680 C   0  0  0  0  0  0  0  0  0  0  0  0
  -31.8562  -18.1180   22.8982 C   0  0  0  0  0  0  0  0  0  0  0  0
  -31.5115  -17.0150   22.1171 C   0  0  0  0  0  0  0  0  0  0  0  0
  -22.2343   -8.7418   20.3176 C   0  0  0  0  0  0  0  0  0  0  0  0
  -23.0400   -8.8083   22.5944 C   0  0  0  0  0  0  0  0  0  0  0  0
  -24.3682  -20.0720   26.3433 C   0  0  0  0  0  0  0  0  0  0  0  0
  -23.2873   -5.4685   22.1299 C   0  0  0  0  0  0  0  0  0  0  0  0
  -23.9070   -4.4585   22.8655 C   0  0  0  0  0  0  0  0  0  0  0  0
  -23.3705  -21.5812   24.7476 C   0  0  0  0  0  0  0  0  0  0  0  0
  -29.4388  -18.0957   21.5059 C   0  0  0  0  0  0  0  0  0  0  0  0
  -22.2420   -4.6997   24.5995 C   0  0  0  0  0  0  0  0  0  0  0  0
  -23.7621  -10.4814   21.0080 C   0  0  0  0  0  0  0  0  0  0  0  0
  -24.1261  -12.9982   20.8066 C   0  0  0  0  0  0  0  0  0  0  0  0
  -19.5552  -14.0717   24.5335 C   0  0  0  0  0  0  0  0  0  0  0  0
  -21.9611  -20.0848   26.0260 C   0  0  0  0  0  0  0  0  0  0  0  0
  -20.3412  -15.1976   24.2223 C   0  0  0  0  0  0  0  0  0  0  0  0
  -22.0918  -21.1001   25.0678 C   0  0  0  0  0  0  0  0  0  0  0  0
  -30.9922  -19.2098   22.9833 C   0  0  0  0  0  0  0  0  0  0  0  0
  -29.7835  -19.1986   22.2871 C   0  0  0  0  0  0  0  0  0  0  0  0
  -30.3028  -17.0039   21.4209 C   0  0  0  0  0  0  0  0  0  0  0  0
  -22.2621   -8.2063   21.6053 C   0  0  0  0  0  0  0  0  0  0  0  0
  -24.5024  -21.0685   25.3809 C   0  0  0  0  0  0  0  0  0  0  0  0
  -22.1449   -6.0943   22.6290 C   0  0  0  0  0  0  0  0  0  0  0  0
  -23.3844   -4.0740   24.1003 C   0  0  0  0  0  0  0  0  0  0  0  0
  -21.6222   -5.7099   23.8638 C   0  0  0  0  0  0  0  0  0  0  0  0
  -24.5374  -11.6561   20.7000 C   0  0  0  0  0  0  0  0  0  0  0  0
  -25.2180  -13.7254   20.3998 C   0  0  0  0  0  0  0  0  0  0  0  0
  -28.8678  -21.4291   21.5138 C   0  0  0  0  0  0  0  0  0  0  0  0
  -22.8693  -13.5393   21.2351 C   0  0  0  0  0  0  0  0  0  0  0  0
  -19.7056  -18.8371   24.1660 C   0  0  0  0  0  0  0  0  0  0  0  0
  -18.3764  -21.7807   24.4668 C   0  0  0  0  0  0  0  0  0  0  0  0
  -18.8128  -25.1058   25.0997 C   0  0  0  0  0  0  0  0  0  0  0  0
  -30.6965  -14.7191   20.4354 C   0  0  0  0  0  0  0  0  0  0  0  0
  -18.0977  -13.9923   24.1540 C   0  0  0  0  0  0  0  0  0  0  0  0
  -20.6012  -19.5671   26.4068 C   0  0  0  0  0  0  0  0  0  0  0  0
  -20.8955  -21.6851   24.3642 C   0  0  0  0  0  0  0  0  0  0  0  0
  -27.6846  -22.2792   21.9166 C   0  0  0  0  0  0  0  0  0  0  0  0
  -17.4782  -15.3490   23.8287 C   0  0  0  0  0  0  0  0  0  0  0  0
  -29.5113  -12.2484   18.1621 C   0  0  0  0  0  0  0  0  0  0  0  0
  -18.3911  -16.1440   22.9006 C   0  0  0  0  0  0  0  0  0  0  0  0
  -28.0778  -11.9844   18.6285 C   0  0  0  0  0  0  0  0  0  0  0  0
  -30.4525  -12.5029   19.3381 C   0  0  0  0  0  0  0  0  0  0  0  0
  -27.7983  -20.3545   23.3201 C   0  0  0  0  0  0  0  0  0  0  0  0
  -28.5808  -13.2873   20.7347 C   0  0  0  0  0  0  0  0  0  0  0  0
  -19.7449  -16.4231   23.5645 C   0  0  1  0  0  0  0  0  0  0  0  0
  -19.5527  -19.7865   25.3205 C   0  0  1  0  0  0  0  0  0  0  0  0
  -27.3781  -21.8162   23.3337 C   0  0  2  0  0  0  0  0  0  0  0  0
  -27.5829  -13.0896   19.5820 C   0  0  2  0  0  0  0  0  0  0  0  0
  -17.5462  -27.2678   25.2364 C   0  0  0  0  0  0  0  0  0  0  0  0
  -18.2578  -21.9011   21.4203 C   0  0  0  0  0  0  0  0  0  0  0  0
  -17.8975  -24.3721   21.6015 C   0  0  0  0  0  0  0  0  0  0  0  0
  -16.2301  -22.7953   22.5793 C   0  0  0  0  0  0  0  0  0  0  0  0
  -19.5249  -25.4769   27.9482 C   0  0  0  0  0  0  0  0  0  0  0  0
  -25.9251  -22.0169   23.7280 C   0  0  0  0  0  0  0  0  0  1  0  0
  -18.4751  -23.0811   23.7064 C   0  0  1  0  0  0  0  0  0  0  0  0
  -18.0652  -26.0648   26.0085 C   0  0  2  0  0  0  0  0  0  0  0  0
  -31.3874  -20.3775   23.8277 C   0  0  0  0  0  0  0  0  0  0  0  0
  -17.7381  -23.0252   22.3385 C   0  0  0  0  0  0  0  0  0  0  0  0
  -25.7926  -11.5350   20.2598 N   0  0  0  0  0  0  0  0  0  0  0  0
  -26.1794  -12.8103   20.0862 N   0  0  0  0  0  0  0  0  0  0  0  0
  -28.8863  -20.3057   22.3616 N   0  0  0  0  0  0  0  0  0  0  0  0
  -19.5878  -21.1415   24.7666 N   0  0  0  0  0  0  0  0  0  0  0  0
  -29.9213  -13.5648   20.1955 N   0  0  0  0  0  0  0  0  0  0  0  0
  -25.4398  -15.0519   20.2833 N   0  0  0  0  0  0  0  0  0  0  0  0
  -21.8556  -12.6509   21.6191 N   0  0  0  0  0  0  0  0  0  0  0  0
  -29.9531  -15.8832   20.6275 N   0  0  0  0  0  0  0  0  0  0  0  0
  -19.6261  -17.5037   24.5198 N   0  0  0  0  0  0  0  0  0  0  0  0
  -17.9853  -24.1189   24.6072 N   0  0  0  0  0  0  0  0  0  0  0  0
  -18.9610  -26.5540   27.0944 N   0  3  0  0  0  0  0  0  0  0  0  0
  -29.5890  -21.7145   20.5687 O   0  0  0  0  0  0  0  0  0  0  0  0
  -22.6463  -14.7734   21.2607 O   0  0  0  0  0  0  0  0  0  0  0  0
  -19.8811  -19.2814   23.0375 O   0  0  0  0  0  0  0  0  0  0  0  0
  -17.2658  -21.3516   24.7894 O   0  0  0  0  0  0  0  0  0  0  0  0
  -20.0102  -25.2227   24.8486 O   0  0  0  0  0  0  0  0  0  0  0  0
  -31.9296  -14.6831   20.4410 O   0  0  0  0  0  0  0  0  0  0  0  0
  -21.5303   -7.0964   21.8971 O   0  0  0  0  0  0  0  0  0  0  0  0
  -25.7361  -21.5457   25.0617 O   0  0  0  0  0  0  0  0  0  1  0  0
  -23.9787   -3.1030   24.8060 F   0  0  0  0  0  0  0  0  0  0  0  0
  -20.5243   -6.3065   24.3480 F   0  0  0  0  0  0  0  0  0  0  0  0
  -32.5986  -20.2235   24.4377 F   0  0  0  0  0  0  0  0  0  0  0  0
  -31.4838  -21.5460   23.1291 F   0  0  0  0  0  0  0  0  0  0  0  0
  -30.4973  -20.6209   24.8320 F   0  0  0  0  0  0  0  0  0  0  0  0
  1  2  1  0  0  0  0
  1  5  2  0  0  0  0
  2  6  2  0  0  0  0
  3 10  2  0  0  0  0
  3 18  1  0  0  0  0
  4 11  1  0  0  0  0
  4 18  2  0  0  0  0
  5 20  1  0  0  0  0
  6 22  1  0  0  0  0
  7 12  2  0  0  0  0
  7 21  1  0  0  0  0
  8  9  2  0  0  0  0
  8 24  1  0  0  0  0
  9 26  1  0  0  0  0
 10 27  1  0  0  0  0
 11 27  2  0  0  0  0
 12 28  1  0  0  0  0
 13 14  2  0  0  0  0
 13 29  1  0  0  0  0
 14 30  1  0  0  0  0
 15 23  1  0  0  0  0
 15 28  2  0  0  0  0
 16 25  1  0  0  0  0
 16 26  2  0  0  0  0
 17 30  2  0  0  0  0
 17 31  1  0  0  0  0
 18 32  1  0  0  0  0
 19 32  1  0  0  0  0
 19 33  2  0  0  0  0
 19 35  1  0  0  0  0
 20 22  2  0  0  0  0
 20 40  1  0  0  0  0
 21 23  2  0  0  0  0
 21 41  1  0  0  0  0
 22 51  1  0  0  0  0
 23 42  1  0  0  0  0
 24 25  2  0  0  0  0
 24 63  1  0  0  0  0
 25 67  1  0  0  0  0
 26 72  1  0  0  0  0
 27 82  1  0  0  0  0
 28 83  1  0  0  0  0
 29 31  2  0  0  0  0
 29 82  1  0  0  0  0
 30 84  1  0  0  0  0
 31 85  1  0  0  0  0
 32 65  2  0  0  0  0
 33 66  1  0  0  0  0
 33 70  1  0  0  0  0
 34 43  1  0  0  0  0
 34 67  1  0  0  0  0
 34 76  2  0  0  0  0
 35 71  1  0  0  0  0
 35 77  2  0  0  0  0
 36 52  1  0  0  0  0
 36 73  1  0  0  0  0
 36 78  2  0  0  0  0
 37 61  1  0  0  0  0
 37 68  1  0  0  0  0
 37 79  2  0  0  0  0
 38 62  1  0  0  0  0
 38 74  1  0  0  0  0
 38 80  2  0  0  0  0
 39 69  1  0  0  0  0
 39 72  1  0  0  0  0
 39 81  2  0  0  0  0
 40 44  1  0  0  0  0
 41 52  1  0  0  0  0
 42 68  1  0  0  0  0
 43 53  1  0  0  0  0
 44 46  1  0  0  0  0
 45 47  1  0  0  0  0
 45 48  1  0  0  0  0
 46 51  1  0  0  0  0
 47 54  1  0  0  0  0
 48 69  1  0  0  0  0
 49 53  1  0  0  0  0
 49 67  1  0  0  0  0
 50 54  1  0  0  0  0
 50 69  1  0  0  0  0
 51 73  1  0  0  0  0
 52 68  1  0  0  0  0
 53 60  1  0  0  0  0
 54 66  1  0  0  0  0
 55 62  1  0  0  0  0
 56 64  1  0  0  0  0
 57 64  1  0  0  0  0
 58 64  1  0  0  0  0
 59 75  1  0  0  0  0
 60 83  1  0  0  0  0
 61 64  1  0  0  0  0
 61 74  1  0  0  0  0
 62 75  1  0  0  0  0
 63 86  1  0  0  0  0
 63 87  1  0  0  0  0
 63 88  1  0  0  0  0
 65 66  1  0  0  0  0
M  CHG  1  75   1
M  ISO  4  39 100  60 101  72 100  83 101
M  END
> <Batch ID>
0071

> <Smiles>
CNC(C)C(=O)NC(C(=O)N1Cc2cc([101O:1][101CH2:1]C3CC(=O)N(c4cc([100NH:0][100C:0](=O)N5CCCC(n6nc(-c7ccc(Oc8ccc(F)cc8F)cc7)c(C(N)=O)c6N)C5)ccc4C(F)(F)F)C3)ccc2CC1C(=O)NC1CCCc2ccccc21)C(C)(C)C

> <Shape>
0.197

> <Color>
0.194

> <Negative vol penalty>
0.000

$$$$

  -OEChem-04042323353D

 85 93  0     1  0  0  0  0  0999 V2000
  -29.2158  -36.7047   20.1158 C   0  0  0  0  0  0  0  0  0  0  0  0
  -29.4086  -35.3487   19.8717 C   0  0  0  0  0  0  0  0  0  0  0  0
  -24.7939   -8.6730   21.6212 C   0  0  0  0  0  0  0  0  0  0  0  0
  -23.2444  -10.0118   20.3392 C   0  0  0  0  0  0  0  0  0  0  0  0
  -28.3929  -37.1128   21.1647 C   0  0  0  0  0  0  0  0  0  0  0  0
  -28.7795  -34.4000   20.6772 C   0  0  0  0  0  0  0  0  0  0  0  0
  -26.6289  -28.9366   18.9361 C   0  0  0  0  0  0  0  0  0  0  0  0
  -23.7442   -8.2272   22.4244 C   0  0  0  0  0  0  0  0  0  0  0  0
  -22.1947   -9.5660   21.1423 C   0  0  0  0  0  0  0  0  0  0  0  0
  -27.1577  -27.6495   19.0225 C   0  0  0  0  0  0  0  0  0  0  0  0
  -21.2471   -5.9561   22.2264 C   0  0  0  0  0  0  0  0  0  0  0  0
  -21.1876   -4.5934   22.5181 C   0  0  0  0  0  0  0  0  0  0  0  0
  -25.0795  -19.7341   17.7759 C   0  0  0  0  0  0  0  0  0  0  0  0
  -25.2975  -17.3460   17.4826 C   0  0  0  0  0  0  0  0  0  0  0  0
  -25.9197  -27.2843   21.0605 C   0  0  0  0  0  0  0  0  0  0  0  0
  -26.9759  -18.5697   18.7164 C   0  0  0  0  0  0  0  0  0  0  0  0
  -21.3576   -5.0909   24.8762 C   0  0  0  0  0  0  0  0  0  0  0  0
  -24.5440   -9.5654   20.5786 C   0  0  0  0  0  0  0  0  0  0  0  0
  -24.5927  -18.5302   17.2668 C   0  0  0  0  0  0  0  0  0  0  0  0
  -26.1002   -9.4363   18.5614 C   0  0  0  0  0  0  0  0  0  0  0  0
  -27.7457  -36.1687   21.9774 C   0  0  0  0  0  0  0  0  0  0  0  0
  -25.7486  -29.4119   19.9187 C   0  0  0  0  0  0  0  0  0  0  0  0
  -27.9482  -34.7960   21.7388 C   0  0  0  0  0  0  0  0  0  0  0  0
  -25.3792  -28.5769   20.9829 C   0  0  0  0  0  0  0  0  0  0  0  0
  -26.2711  -19.7539   18.5007 C   0  0  0  0  0  0  0  0  0  0  0  0
  -26.4891  -17.3657   18.2074 C   0  0  0  0  0  0  0  0  0  0  0  0
  -22.4446   -8.6737   22.1849 C   0  0  0  0  0  0  0  0  0  0  0  0
  -26.8054  -26.8241   20.0864 C   0  0  0  0  0  0  0  0  0  0  0  0
  -21.3619   -6.8862   23.2595 C   0  0  0  0  0  0  0  0  0  0  0  0
  -21.2429   -4.1608   23.8430 C   0  0  0  0  0  0  0  0  0  0  0  0
  -21.4171   -6.4536   24.5845 C   0  0  0  0  0  0  0  0  0  0  0  0
  -25.6280  -10.0266   19.7490 C   0  0  0  0  0  0  0  0  0  0  0  0
  -27.1325  -10.2490   18.1609 C   0  0  0  0  0  0  0  0  0  0  0  0
  -27.0217  -23.2684   19.5824 C   0  0  0  0  0  0  0  0  0  0  0  0
  -26.6340  -24.5479   19.5765 C   0  0  0  0  0  0  0  0  0  1  0  0
  -23.3571  -18.5096   16.5157 C   0  0  0  0  0  0  0  0  0  0  0  0
  -25.6463   -8.2587   17.8811 C   0  0  0  0  0  0  0  0  0  0  0  0
  -26.1922  -22.2353   18.8962 C   0  0  0  0  0  0  0  0  0  0  0  0
  -25.8072  -31.7975   22.0185 C   0  0  0  0  0  0  0  0  0  0  0  0
  -22.7581  -30.8506   22.5917 C   0  0  0  0  0  0  0  0  0  0  0  0
  -20.4297  -28.3579   22.4837 C   0  0  0  0  0  0  0  0  0  0  0  0
  -28.4034  -16.0079   19.1230 C   0  0  0  0  0  0  0  0  0  0  0  0
  -26.9033  -36.6579   23.1288 C   0  0  0  0  0  0  0  0  0  0  0  0
  -25.1660  -30.7932   19.7967 C   0  0  0  0  0  0  0  0  0  0  0  0
  -24.4220  -29.0323   22.0529 C   0  0  0  0  0  0  0  0  0  0  0  0
  -25.9755  -35.5896   23.7018 C   0  0  0  0  0  0  0  0  0  0  0  0
  -30.4619  -13.2122   19.9128 C   0  0  0  0  0  0  0  0  0  0  0  0
  -26.7311  -34.2804   23.9063 C   0  0  0  0  0  0  0  0  0  0  0  0
  -29.5001  -12.0236   19.8464 C   0  0  0  0  0  0  0  0  0  0  0  0
  -29.7864  -14.4569   20.4856 C   0  0  0  0  0  0  0  0  0  0  0  0
  -27.5737  -13.6569   19.7554 C   0  0  0  0  0  0  0  0  0  0  0  0
  -27.2634  -33.7368   22.5749 C   0  0  1  0  0  0  0  0  0  0  0  0
  -24.6798  -31.3564   21.1285 C   0  0  1  0  0  0  0  0  0  0  0  0
  -28.1907  -12.3978   19.1247 C   0  0  2  0  0  0  0  0  0  0  0  0
  -18.0350  -27.8730   23.0562 C   0  0  0  0  0  0  0  0  0  0  0  0
  -23.5054  -30.6584   25.5437 C   0  0  0  0  0  0  0  0  0  0  0  0
  -21.4362  -29.2965   25.9071 C   0  0  0  0  0  0  0  0  0  0  0  0
  -21.2526  -31.6499   25.1003 C   0  0  0  0  0  0  0  0  0  0  0  0
  -19.7535  -27.7687   19.6633 C   0  0  0  0  0  0  0  0  0  0  0  0
  -22.1033  -29.8630   23.5269 C   0  0  1  0  0  0  0  0  0  0  0  0
  -18.9993  -28.3370   21.9757 C   0  0  2  0  0  0  0  0  0  0  0  0
  -22.0939  -30.3587   25.0006 C   0  0  0  0  0  0  0  0  0  0  0  0
  -26.3048  -11.1291   20.0813 N   0  0  0  0  0  0  0  0  0  0  0  0
  -27.2129  -11.2380   19.0967 N   0  0  0  0  0  0  0  0  0  0  0  0
  -23.8843  -30.3934   21.8927 N   0  0  0  0  0  0  0  0  0  0  0  0
  -28.5552  -14.7530   19.7498 N   0  0  0  0  0  0  0  0  0  0  0  0
  -27.9702  -10.2070   17.1032 N   0  0  0  0  0  0  0  0  0  0  0  0
  -22.6706  -19.6448   16.3027 N   0  0  0  0  0  0  0  0  0  0  0  0
  -24.5742   -7.5417   18.4295 N   0  0  0  0  0  0  0  0  0  0  0  0
  -26.7653  -20.9765   19.0180 N   0  0  0  0  0  0  0  0  0  0  0  0
  -27.2057  -16.1629   18.4258 N   0  0  0  0  0  0  0  0  0  0  0  0
  -26.1981  -33.1085   21.8234 N   0  0  0  0  0  0  0  0  0  0  0  0
  -20.7782  -29.5973   22.9775 N   0  0  0  0  0  0  0  0  0  0  0  0
  -22.8808  -17.3553   16.0196 N   0  3  0  0  0  0  0  0  0  0  0  0
  -18.8771  -27.4165   20.8100 N   0  3  0  0  0  0  0  0  0  0  0  0
  -26.1864   -7.8451   16.8272 O   0  0  0  0  0  0  0  0  0  0  0  0
  -25.1525  -22.5350   18.3209 O   0  0  0  0  0  0  0  0  0  0  0  0
  -26.2860  -31.0074   22.8236 O   0  0  0  0  0  0  0  0  0  0  0  0
  -22.2835  -31.9837   22.4798 O   0  0  0  0  0  0  0  0  0  0  0  0
  -21.1632  -27.3724   22.4496 O   0  0  0  0  0  0  0  0  0  0  0  0
  -29.2835  -16.8707   19.1763 O   0  0  0  0  0  0  0  0  0  0  0  0
  -21.4201   -8.2388   22.9683 O   0  0  0  0  0  0  0  0  0  0  0  0
  -27.3206  -25.5676   20.1735 O   0  0  0  0  0  0  0  0  0  1  0  0
  -21.1842   -2.8522   24.1231 F   0  0  0  0  0  0  0  0  0  0  0  0
  -21.5262   -7.3425   25.5814 F   0  0  0  0  0  0  0  0  0  0  0  0
  1  2  1  0  0  0  0
  1  5  2  0  0  0  0
  2  6  2  0  0  0  0
  3  8  2  0  0  0  0
  3 18  1  0  0  0  0
  4  9  1  0  0  0  0
  4 18  2  0  0  0  0
  5 21  1  0  0  0  0
  6 23  1  0  0  0  0
  7 10  2  0  0  0  0
  7 22  1  0  0  0  0
  8 27  1  0  0  0  0
  9 27  2  0  0  0  0
 10 28  1  0  0  0  0
 11 12  2  0  0  0  0
 11 29  1  0  0  0  0
 12 30  1  0  0  0  0
 13 19  1  0  0  0  0
 13 25  2  0  0  0  0
 14 19  2  0  0  0  0
 14 26  1  0  0  0  0
 15 24  1  0  0  0  0
 15 28  2  0  0  0  0
 16 25  1  0  0  0  0
 16 26  2  0  0  0  0
 17 30  2  0  0  0  0
 17 31  1  0  0  0  0
 18 32  1  0  0  0  0
 19 36  1  0  0  0  0
 20 32  1  0  0  0  0
 20 33  2  0  0  0  0
 20 37  1  0  0  0  0
 21 23  2  0  0  0  0
 21 43  1  0  0  0  0
 22 24  2  0  0  0  0
 22 44  1  0  0  0  0
 23 52  1  0  0  0  0
 24 45  1  0  0  0  0
 25 70  1  0  0  0  0
 26 71  1  0  0  0  0
 27 82  1  0  0  0  0
 28 83  1  0  0  0  0
 29 31  2  0  0  0  0
 29 82  1  0  0  0  0
 30 84  1  0  0  0  0
 31 85  1  0  0  0  0
 32 63  2  0  0  0  0
 33 64  1  0  0  0  0
 33 67  1  0  0  0  0
 34 35  2  0  0  0  0
 34 38  1  0  0  0  0
 35 83  1  0  0  0  0
 36 68  1  0  0  0  0
 36 74  2  0  0  0  0
 37 69  1  0  0  0  0
 37 76  2  0  0  0  0
 38 70  1  0  0  0  0
 38 77  2  0  0  0  0
 39 53  1  0  0  0  0
 39 72  1  0  0  0  0
 39 78  2  0  0  0  0
 40 60  1  0  0  0  0
 40 65  1  0  0  0  0
 40 79  2  0  0  0  0
 41 61  1  0  0  0  0
 41 73  1  0  0  0  0
 41 80  2  0  0  0  0
 42 66  1  0  0  0  0
 42 71  1  0  0  0  0
 42 81  2  0  0  0  0
 43 46  1  0  0  0  0
 44 53  1  0  0  0  0
 45 65  1  0  0  0  0
 46 48  1  0  0  0  0
 47 49  1  0  0  0  0
 47 50  1  0  0  0  0
 48 52  1  0  0  0  0
 49 54  1  0  0  0  0
 50 66  1  0  0  0  0
 51 54  1  0  0  0  0
 51 66  1  0  0  0  0
 52 72  1  0  0  0  0
 53 65  1  0  0  0  0
 54 64  1  0  0  0  0
 55 61  1  0  0  0  0
 56 62  1  0  0  0  0
 57 62  1  0  0  0  0
 58 62  1  0  0  0  0
 59 75  1  0  0  0  0
 60 62  1  0  0  0  0
 60 73  1  0  0  0  0
 61 75  1  0  0  0  0
 63 64  1  0  0  0  0
M  CHG  2  74   1  75   1
M  ISO  4  35 101  42 100  71 100  83 101
M  END
> <Batch ID>
0071

> <Smiles>
CNC(C)C(=O)NC(C(=O)N1Cc2cc([101O:1][101CH:1]=CC(=O)Nc3cc([100NH:0][100C:0](=O)N4CCCC(n5nc(-c6ccc(Oc7ccc(F)cc7F)cc6)c(C(N)=O)c5N)C4)cc(C(=N)N)c3)ccc2CC1C(=O)NC1CCCc2ccccc21)C(C)(C)C

> <Shape>
0.270

> <Color>
0.099

> <Negative vol penalty>
0.000

$$$$

  -OEChem-04042323352D

  0  0  0     0  0  0  0  0  0999 V2000
M  END
$$$$

  -OEChem-04042323353D

 83 91  0     1  0  0  0  0  0999 V2000
  -21.9300  -11.6204   21.5974 C   0  0  0  0  0  0  0  0  0  0  0  0
  -21.7401  -12.9614   21.9156 C   0  0  0  0  0  0  0  0  0  0  0  0
  -29.4462  -28.3936   19.2433 C   0  0  0  0  0  0  0  0  0  0  0  0
  -27.9007  -26.5600   18.9489 C   0  0  0  0  0  0  0  0  0  0  0  0
  -23.1822  -11.1760   21.1750 C   0  0  0  0  0  0  0  0  0  0  0  0
  -22.8026  -13.8585   21.8125 C   0  0  0  0  0  0  0  0  0  0  0  0
  -21.4710  -18.1970   19.5653 C   0  0  0  0  0  0  0  0  0  0  0  0
  -19.3367  -28.7057   23.3264 C   0  0  0  0  0  0  0  0  0  0  0  0
  -30.5004  -27.4871   19.3551 C   0  0  0  0  0  0  0  0  0  0  0  0
  -28.9550  -25.6535   19.0607 C   0  0  0  0  0  0  0  0  0  0  0  0
  -20.7718  -19.1248   20.3361 C   0  0  0  0  0  0  0  0  0  0  0  0
  -33.6494  -25.6709   19.3574 C   0  0  0  0  0  0  0  0  0  0  0  0
  -18.1336  -28.0188   23.4879 C   0  0  0  0  0  0  0  0  0  0  0  0
  -34.8209  -25.9486   18.6531 C   0  0  0  0  0  0  0  0  0  0  0  0
  -20.1088  -26.9958   21.8042 C   0  0  0  0  0  0  0  0  0  0  0  0
  -22.8125  -20.3626   20.6863 C   0  0  0  0  0  0  0  0  0  0  0  0
  -33.5850  -25.8991   16.5777 C   0  0  0  0  0  0  0  0  0  0  0  0
  -28.1463  -27.9300   19.0403 C   0  0  0  0  0  0  0  0  0  0  0  0
  -18.9056  -26.3088   21.9657 C   0  0  0  0  0  0  0  0  0  0  0  0
  -26.5709  -29.4643   17.7474 C   0  0  0  0  0  0  0  0  0  0  0  0
  -24.2581  -12.0700   21.0574 C   0  0  0  0  0  0  0  0  0  0  0  0
  -22.8506  -18.3393   19.3580 C   0  0  0  0  0  0  0  0  0  0  0  0
  -24.0707  -13.4253   21.3894 C   0  0  0  0  0  0  0  0  0  0  0  0
  -23.5264  -19.4366   19.9104 C   0  0  0  0  0  0  0  0  0  0  0  0
  -20.3243  -28.1943   22.4845 C   0  0  0  0  0  0  0  0  0  0  0  0
  -30.2548  -26.1171   19.2638 C   0  0  0  0  0  0  0  0  0  0  0  0
  -21.4431  -20.2062   20.8991 C   0  0  0  0  0  0  0  0  0  0  0  0
  -32.4457  -25.5072   18.6719 C   0  0  0  0  0  0  0  0  0  0  0  0
  -34.7887  -26.0628   17.2633 C   0  0  0  0  0  0  0  0  0  0  0  0
  -17.9180  -26.8203   22.8075 C   0  0  0  0  0  0  0  0  0  0  0  0
  -32.4135  -25.6213   17.2820 C   0  0  0  0  0  0  0  0  0  0  0  0
  -27.0568  -28.8659   18.9253 C   0  0  0  0  0  0  0  0  0  0  0  0
  -25.5384  -30.2655   18.1699 C   0  0  0  0  0  0  0  0  0  0  0  0
  -20.0764  -23.3626   21.8475 C   0  0  0  0  0  0  0  0  0  0  0  0
  -18.6786  -25.0297   21.2382 C   0  0  0  0  0  0  0  0  0  0  0  0
  -27.0132  -29.3097   16.3923 C   0  0  0  0  0  0  0  0  0  0  0  0
  -25.4165  -16.6027   20.0680 C   0  0  0  0  0  0  0  0  0  0  0  0
  -26.9468  -18.8523   18.3017 C   0  0  0  0  0  0  0  0  0  0  0  0
  -26.9824  -22.0311   17.0605 C   0  0  0  0  0  0  0  0  0  0  0  0
  -21.9198  -30.0942   22.9219 C   0  0  0  0  0  0  0  0  0  0  0  0
  -25.6052  -11.5339   20.6419 C   0  0  0  0  0  0  0  0  0  0  0  0
  -23.5853  -17.3444   18.5019 C   0  0  0  0  0  0  0  0  0  0  0  0
  -25.0031  -19.6459   19.7010 C   0  0  0  0  0  0  0  0  0  0  0  0
  -26.5830  -12.6198   20.2001 C   0  0  0  0  0  0  0  0  0  0  0  0
  -24.0605  -32.7757   21.9711 C   0  0  0  0  0  0  0  0  0  0  0  0
  -26.5770  -13.7791   21.1915 C   0  0  0  0  0  0  0  0  0  0  0  0
  -25.0238  -32.1332   20.9704 C   0  0  0  0  0  0  0  0  0  0  0  0
  -23.6997  -31.8184   23.1057 C   0  0  0  0  0  0  0  0  0  0  0  0
  -24.1577  -29.8659   21.6749 C   0  0  0  0  0  0  0  0  0  0  0  0
  -25.1923  -14.4338   21.2664 C   0  0  1  0  0  0  0  0  0  0  0  0
  -25.0843  -17.3065   18.7827 C   0  0  1  0  0  0  0  0  0  0  0  0
  -24.4993  -30.7698   20.4790 C   0  0  2  0  0  0  0  0  0  0  0  0
  -28.3831  -23.5924   15.6828 C   0  0  0  0  0  0  0  0  0  0  0  0
  -28.8208  -19.2610   20.6747 C   0  0  0  0  0  0  0  0  0  0  0  0
  -29.5522  -21.4185   19.6362 C   0  0  0  0  0  0  0  0  0  0  0  0
  -29.9482  -19.2644   18.4423 C   0  0  0  0  0  0  0  0  0  0  0  0
  -24.8654  -22.3077   15.0108 C   0  0  0  0  0  0  0  0  0  0  0  0
  -21.2519  -22.4536   21.6530 C   0  0  0  0  0  0  0  0  0  1  0  0
  -27.5975  -20.1823   18.5960 C   0  0  1  0  0  0  0  0  0  0  0  0
  -27.2616  -22.5654   15.6672 C   0  0  2  0  0  0  0  0  0  0  0  0
  -28.9522  -20.0268   19.3430 C   0  0  0  0  0  0  0  0  0  0  0  0
  -26.3881  -29.2539   20.0145 N   0  0  0  0  0  0  0  0  0  0  0  0
  -19.7652  -24.2398   20.9492 N   0  0  0  0  0  0  0  0  0  0  0  0
  -25.4715  -30.1048   19.5227 N   0  0  0  0  0  0  0  0  0  0  0  0
  -25.6786  -18.6425   18.8616 N   0  0  0  0  0  0  0  0  0  0  0  0
  -23.2065  -30.5499   22.5649 N   0  0  0  0  0  0  0  0  0  0  0  0
  -24.6904  -31.0848   17.5126 N   0  0  0  0  0  0  0  0  0  0  0  0
  -28.0871  -28.4469   16.1344 N   0  0  0  0  0  0  0  0  0  0  0  0
  -21.5463  -28.8927   22.3206 N   0  0  0  0  0  0  0  0  0  0  0  0
  -24.9773  -15.2937   20.1224 N   0  0  0  0  0  0  0  0  0  0  0  0
  -27.6962  -20.8800   17.3186 N   0  0  0  0  0  0  0  0  0  0  0  0
  -17.5133  -24.6604   20.8379 N   0  3  0  0  0  0  0  0  0  0  0  0
  -26.0412  -23.2107   15.1058 N   0  3  0  0  0  0  0  0  0  0  0  0
  -26.4827  -29.9311   15.4405 O   0  0  0  0  0  0  0  0  0  0  0  0
  -26.0274  -17.2024   20.9448 O   0  0  0  0  0  0  0  0  0  0  0  0
  -27.5387  -18.0327   17.5950 O   0  0  0  0  0  0  0  0  0  0  0  0
  -26.2112  -22.5821   17.8430 O   0  0  0  0  0  0  0  0  0  0  0  0
  -21.1914  -30.7371   23.6822 O   0  0  0  0  0  0  0  0  0  0  0  0
  -31.2833  -25.2323   19.3726 O   0  0  0  0  0  0  0  0  0  0  0  0
  -20.7631  -21.1129   21.6524 O   0  0  0  0  0  0  0  0  0  1  0  0
  -35.9135  -26.3310   16.5873 F   0  0  0  0  0  0  0  0  0  0  0  0
  -16.7581  -26.1685   22.9700 F   0  0  0  0  0  0  0  0  0  0  0  0
  -31.2599  -25.4662   16.6180 F   0  0  0  0  0  0  0  0  0  0  0  0
  1  2  1  0  0  0  0
  1  5  2  0  0  0  0
  2  6  2  0  0  0  0
  3  9  2  0  0  0  0
  3 18  1  0  0  0  0
  4 10  1  0  0  0  0
  4 18  2  0  0  0  0
  5 21  1  0  0  0  0
  6 23  1  0  0  0  0
  7 11  2  0  0  0  0
  7 22  1  0  0  0  0
  8 13  2  0  0  0  0
  8 25  1  0  0  0  0
  9 26  1  0  0  0  0
 10 26  2  0  0  0  0
 11 27  1  0  0  0  0
 12 14  2  0  0  0  0
 12 28  1  0  0  0  0
 13 30  1  0  0  0  0
 14 29  1  0  0  0  0
 15 19  1  0  0  0  0
 15 25  2  0  0  0  0
 16 24  1  0  0  0  0
 16 27  2  0  0  0  0
 17 29  2  0  0  0  0
 17 31  1  0  0  0  0
 18 32  1  0  0  0  0
 19 30  2  0  0  0  0
 19 35  1  0  0  0  0
 20 32  1  0  0  0  0
 20 33  2  0  0  0  0
 20 36  1  0  0  0  0
 21 23  2  0  0  0  0
 21 41  1  0  0  0  0
 22 24  2  0  0  0  0
 22 42  1  0  0  0  0
 23 50  1  0  0  0  0
 24 43  1  0  0  0  0
 25 69  1  0  0  0  0
 26 79  1  0  0  0  0
 27 80  1  0  0  0  0
 28 31  2  0  0  0  0
 28 79  1  0  0  0  0
 29 81  1  0  0  0  0
 30 82  1  0  0  0  0
 31 83  1  0  0  0  0
 32 62  2  0  0  0  0
 33 64  1  0  0  0  0
 33 67  1  0  0  0  0
 34 58  1  0  0  0  0
 34 63  2  0  0  0  0
 35 63  1  0  0  0  0
 35 72  2  0  0  0  0
 36 68  1  0  0  0  0
 36 74  2  0  0  0  0
 37 51  1  0  0  0  0
 37 70  1  0  0  0  0
 37 75  2  0  0  0  0
 38 59  1  0  0  0  0
 38 65  1  0  0  0  0
 38 76  2  0  0  0  0
 39 60  1  0  0  0  0
 39 71  1  0  0  0  0
 39 77  2  0  0  0  0
 40 66  1  0  0  0  0
 40 69  1  0  0  0  0
 40 78  2  0  0  0  0
 41 44  1  0  0  0  0
 42 51  1  0  0  0  0
 43 65  1  0  0  0  0
 44 46  1  0  0  0  0
 45 47  1  0  0  0  0
 45 48  1  0  0  0  0
 46 50  1  0  0  0  0
 47 52  1  0  0  0  0
 48 66  1  0  0  0  0
 49 52  1  0  0  0  0
 49 66  1  0  0  0  0
 50 70  1  0  0  0  0
 51 65  1  0  0  0  0
 52 64  1  0  0  0  0
 53 60  1  0  0  0  0
 54 61  1  0  0  0  0
 55 61  1  0  0  0  0
 56 61  1  0  0  0  0
 57 73  1  0  0  0  0
 58 80  1  0  0  0  0
 59 61  1  0  0  0  0
 59 71  1  0  0  0  0
 60 73  1  0  0  0  0
 62 64  1  0  0  0  0
M  CHG  2  72   1  73   1
M  ISO  4  40 100  58 101  69 100  80 101
M  END
> <Batch ID>
0071

> <Smiles>
CNC(C)C(=O)NC(C(=O)N1Cc2cc([101O:1][101CH2:1]C=NC(=N)c3cc([100NH:0][100C:0](=O)N4CCCC(n5nc(-c6ccc(Oc7ccc(F)cc7F)cc6)c(C(N)=O)c5N)C4)ccc3F)ccc2CC1C(=O)NC1CCCc2ccccc21)C(C)(C)C

> <Shape>
0.224

> <Color>
0.079

> <Negative vol penalty>
0.000

$$$$

  -OEChem-04042323353D

 85 94  0     1  0  0  0  0  0999 V2000
  -31.8559  -27.7600   16.5359 C   0  0  0  0  0  0  0  0  0  0  0  0
  -31.3586  -26.9965   17.5871 C   0  0  0  0  0  0  0  0  0  0  0  0
  -32.7790  -17.9040   22.2997 C   0  0  0  0  0  0  0  0  0  0  0  0
  -22.9979   -9.8812   20.8393 C   0  0  0  0  0  0  0  0  0  0  0  0
  -23.7661  -10.4588   23.0558 C   0  0  0  0  0  0  0  0  0  0  0  0
  -31.8880  -29.1500   16.6396 C   0  0  0  0  0  0  0  0  0  0  0  0
  -30.8941  -27.6225   18.7433 C   0  0  0  0  0  0  0  0  0  0  0  0
  -26.4976  -25.6993   20.3612 C   0  0  0  0  0  0  0  0  0  0  0  0
  -32.0064  -18.9540   22.7959 C   0  0  0  0  0  0  0  0  0  0  0  0
  -32.1652  -16.8323   21.6514 C   0  0  0  0  0  0  0  0  0  0  0  0
  -22.2255   -8.8509   21.3754 C   0  0  0  0  0  0  0  0  0  0  0  0
  -22.9937   -9.4285   23.5920 C   0  0  0  0  0  0  0  0  0  0  0  0
  -26.5471  -24.4863   21.0466 C   0  0  0  0  0  0  0  0  0  0  0  0
  -19.7483   -8.8964   24.3697 C   0  0  0  0  0  0  0  0  0  0  0  0
  -18.9949   -9.1789   25.5091 C   0  0  0  0  0  0  0  0  0  0  0  0
  -26.3758  -25.6700   23.1415 C   0  0  0  0  0  0  0  0  0  0  0  0
  -30.0062  -17.8605   21.9956 C   0  0  0  0  0  0  0  0  0  0  0  0
  -20.1887   -7.4650   26.7234 C   0  0  0  0  0  0  0  0  0  0  0  0
  -23.7683  -10.6851   21.6795 C   0  0  0  0  0  0  0  0  0  0  0  0
  -24.1745  -13.0845   20.9143 C   0  0  0  0  0  0  0  0  0  0  0  0
  -31.4146  -29.7939   17.7937 C   0  0  0  0  0  0  0  0  0  0  0  0
  -26.3977  -26.9096   21.0624 C   0  0  0  0  0  0  0  0  0  0  0  0
  -30.9210  -29.0224   18.8631 C   0  0  0  0  0  0  0  0  0  0  0  0
  -26.3227  -26.8969   22.4625 C   0  0  0  0  0  0  0  0  0  0  0  0
  -30.6200  -18.9323   22.6439 C   0  0  0  0  0  0  0  0  0  0  0  0
  -30.7788  -16.8105   21.4994 C   0  0  0  0  0  0  0  0  0  0  0  0
  -22.2234   -8.6246   22.7518 C   0  0  0  0  0  0  0  0  0  0  0  0
  -26.4891  -24.4717   22.4371 C   0  0  0  0  0  0  0  0  0  0  0  0
  -20.7219   -7.8982   24.4072 C   0  0  0  0  0  0  0  0  0  0  0  0
  -19.2151   -8.4632   26.6859 C   0  0  0  0  0  0  0  0  0  0  0  0
  -20.9421   -7.1825   25.5840 C   0  0  0  0  0  0  0  0  0  0  0  0
  -24.5668  -11.7492   21.1261 C   0  0  0  0  0  0  0  0  0  0  0  0
  -25.2843  -13.6867   20.3737 C   0  0  0  0  0  0  0  0  0  0  0  0
  -29.1042  -21.9423   24.1483 C   0  0  0  0  0  0  0  0  0  0  0  0
  -30.3054  -21.1292   23.8125 C   0  0  0  0  0  0  0  0  0  0  0  0
  -22.9193  -13.7235   21.1824 C   0  0  0  0  0  0  0  0  0  0  0  0
  -28.2219  -29.4977   21.3413 C   0  0  0  0  0  0  0  0  0  0  0  0
  -25.6866  -30.6268   23.0206 C   0  0  0  0  0  0  0  0  0  0  0  0
  -22.9105  -29.9446   24.8845 C   0  0  0  0  0  0  0  0  0  0  0  0
  -30.7762  -14.6006   20.2901 C   0  0  0  0  0  0  0  0  0  0  0  0
  -31.5132  -31.2965   17.8788 C   0  0  0  0  0  0  0  0  0  0  0  0
  -26.3185  -28.2079   20.3071 C   0  0  0  0  0  0  0  0  0  0  0  0
  -26.1946  -28.1673   23.2614 C   0  0  0  0  0  0  0  0  0  0  0  0
  -30.6552  -31.9014   18.9870 C   0  0  0  0  0  0  0  0  0  0  0  0
  -29.5913  -11.6879   18.6198 C   0  0  0  0  0  0  0  0  0  0  0  0
  -30.8349  -31.1230   20.2865 C   0  0  0  0  0  0  0  0  0  0  0  0
  -28.1462  -11.5541   19.1055 C   0  0  0  0  0  0  0  0  0  0  0  0
  -30.5164  -12.1947   19.7248 C   0  0  0  0  0  0  0  0  0  0  0  0
  -28.3735  -20.0029   23.0504 C   0  0  0  0  0  0  0  0  0  0  0  0
  -28.6338  -13.2994   20.8671 C   0  0  0  0  0  0  0  0  0  0  0  0
  -30.3850  -29.6661   20.1235 C   0  0  1  0  0  0  0  0  0  0  0  0
  -27.8568  -21.3420   23.5890 C   0  0  2  0  0  0  0  0  0  0  0  0
  -26.7346  -29.4130   21.1450 C   0  0  1  0  0  0  0  0  0  0  0  0
  -27.6525  -12.8539   19.7706 C   0  0  2  0  0  0  0  0  0  0  0  0
  -21.0623  -31.0739   26.1519 C   0  0  0  0  0  0  0  0  0  0  0  0
  -27.6273  -31.2490   25.2914 C   0  0  0  0  0  0  0  0  0  0  0  0
  -25.6579  -31.4647   26.8221 C   0  0  0  0  0  0  0  0  0  0  0  0
  -25.9020  -33.0123   24.8810 C   0  0  0  0  0  0  0  0  0  0  0  0
  -20.8327  -28.7494   23.1485 C   0  0  0  0  0  0  0  0  0  0  0  0
  -27.2703  -22.2263   22.5001 C   0  0  0  0  0  0  0  0  0  1  0  0
  -25.2671  -30.5998   24.4705 C   0  0  1  0  0  0  0  0  0  0  0  0
  -21.4940  -30.4863   24.8173 C   0  0  2  0  0  0  0  0  0  0  0  0
  -26.1180  -31.5575   25.3516 C   0  0  0  0  0  0  0  0  0  0  0  0
  -25.8272  -11.5163   20.7505 N   0  0  0  0  0  0  0  0  0  0  0  0
  -29.1910  -23.0191   24.8485 N   0  0  0  0  0  0  0  0  0  0  0  0
  -26.2366  -12.7134   20.2972 N   0  0  0  0  0  0  0  0  0  0  0  0
  -29.8294  -20.0084   23.1520 N   0  0  0  0  0  0  0  0  0  0  0  0
  -26.1274  -29.4117   22.4775 N   0  0  0  0  0  0  0  0  0  0  0  0
  -29.9874  -13.4308   20.3054 N   0  0  0  0  0  0  0  0  0  0  0  0
  -25.5286  -14.9486   19.9609 N   0  0  0  0  0  0  0  0  0  0  0  0
  -21.8856  -12.9582   21.7393 N   0  0  0  0  0  0  0  0  0  0  0  0
  -30.1559  -15.7215   20.8407 N   0  0  0  0  0  0  0  0  0  0  0  0
  -28.9412  -29.5753   20.1641 N   0  0  0  0  0  0  0  0  0  0  0  0
  -23.8365  -30.8856   24.4869 N   0  0  0  0  0  0  0  0  0  0  0  0
  -20.5409  -29.4005   24.4516 N   0  3  0  0  0  0  0  0  0  0  0  0
  -31.4120  -21.5120   24.1311 O   0  0  0  0  0  0  0  0  0  0  0  0
  -22.7150  -14.9330   20.9202 O   0  0  0  0  0  0  0  0  0  0  0  0
  -28.6826  -29.4944   22.4769 O   0  0  0  0  0  0  0  0  0  0  0  0
  -25.6188  -31.6854   22.3910 O   0  0  0  0  0  0  0  0  0  0  0  0
  -23.1698  -28.8022   25.2564 O   0  0  0  0  0  0  0  0  0  0  0  0
  -31.9075  -14.6140   19.7982 O   0  0  0  0  0  0  0  0  0  0  0  0
  -21.4696   -7.6194   23.2754 O   0  0  0  0  0  0  0  0  0  0  0  0
  -26.5379  -23.2891   23.1087 O   0  0  0  0  0  0  0  0  0  1  0  0
  -18.4926   -8.7356   27.7805 F   0  0  0  0  0  0  0  0  0  0  0  0
  -21.8769   -6.2232   25.6264 F   0  0  0  0  0  0  0  0  0  0  0  0
  1  2  1  0  0  0  0
  1  6  2  0  0  0  0
  2  7  2  0  0  0  0
  3  9  2  0  0  0  0
  3 10  1  0  0  0  0
  4 11  2  0  0  0  0
  4 19  1  0  0  0  0
  5 12  1  0  0  0  0
  5 19  2  0  0  0  0
  6 21  1  0  0  0  0
  7 23  1  0  0  0  0
  8 13  2  0  0  0  0
  8 22  1  0  0  0  0
  9 25  1  0  0  0  0
 10 26  2  0  0  0  0
 11 27  1  0  0  0  0
 12 27  2  0  0  0  0
 13 28  1  0  0  0  0
 14 15  2  0  0  0  0
 14 29  1  0  0  0  0
 15 30  1  0  0  0  0
 16 24  1  0  0  0  0
 16 28  2  0  0  0  0
 17 25  2  0  0  0  0
 17 26  1  0  0  0  0
 18 30  2  0  0  0  0
 18 31  1  0  0  0  0
 19 32  1  0  0  0  0
 20 32  1  0  0  0  0
 20 33  2  0  0  0  0
 20 36  1  0  0  0  0
 21 23  2  0  0  0  0
 21 41  1  0  0  0  0
 22 24  2  0  0  0  0
 22 42  1  0  0  0  0
 23 51  1  0  0  0  0
 24 43  1  0  0  0  0
 25 67  1  0  0  0  0
 26 72  1  0  0  0  0
 27 82  1  0  0  0  0
 28 83  1  0  0  0  0
 29 31  2  0  0  0  0
 29 82  1  0  0  0  0
 30 84  1  0  0  0  0
 31 85  1  0  0  0  0
 32 64  2  0  0  0  0
 33 66  1  0  0  0  0
 33 70  1  0  0  0  0
 34 35  1  0  0  0  0
 34 52  1  0  0  0  0
 34 65  2  0  0  0  0
 35 67  1  0  0  0  0
 35 76  2  0  0  0  0
 36 71  1  0  0  0  0
 36 77  2  0  0  0  0
 37 53  1  0  0  0  0
 37 73  1  0  0  0  0
 37 78  2  0  0  0  0
 38 61  1  0  0  0  0
 38 68  1  0  0  0  0
 38 79  2  0  0  0  0
 39 62  1  0  0  0  0
 39 74  1  0  0  0  0
 39 80  2  0  0  0  0
 40 69  1  0  0  0  0
 40 72  1  0  0  0  0
 40 81  2  0  0  0  0
 41 44  1  0  0  0  0
 42 53  1  0  0  0  0
 43 68  1  0  0  0  0
 44 46  1  0  0  0  0
 45 47  1  0  0  0  0
 45 48  1  0  0  0  0
 46 51  1  0  0  0  0
 47 54  1  0  0  0  0
 48 69  1  0  0  0  0
 49 52  1  0  0  0  0
 49 67  1  0  0  0  0
 50 54  1  0  0  0  0
 50 69  1  0  0  0  0
 51 73  1  0  0  0  0
 52 60  1  0  0  0  0
 53 68  1  0  0  0  0
 54 66  1  0  0  0  0
 55 62  1  0  0  0  0
 56 63  1  0  0  0  0
 57 63  1  0  0  0  0
 58 63  1  0  0  0  0
 59 75  1  0  0  0  0
 60 83  1  0  0  0  0
 61 63  1  0  0  0  0
 61 74  1  0  0  0  0
 62 75  1  0  0  0  0
 64 66  1  0  0  0  0
M  CHG  1  75   1
M  ISO  4  40 100  60 101  72 100  83 101
M  END
> <Batch ID>
0071

> <Smiles>
CNC(C)C(=O)NC(C(=O)N1Cc2cc([101O:1][101CH2:1]C3CN(c4cccc([100NH:0][100C:0](=O)N5CCCC(n6nc(-c7ccc(Oc8ccc(F)cc8F)cc7)c(C(N)=O)c6N)C5)c4)C(=O)C3=N)ccc2CC1C(=O)NC1CCCc2ccccc21)C(C)(C)C

> <Shape>
0.264

> <Color>
0.161

> <Negative vol penalty>
0.000

$$$$

  -OEChem-04042323353D

 91100  0     1  0  0  0  0  0999 V2000
  -19.5421  -26.9481   26.4027 C   0  0  0  0  0  0  0  0  0  0  0  0
  -20.9017  -26.8568   26.1224 C   0  0  0  0  0  0  0  0  0  0  0  0
  -24.6341  -15.0112   23.3588 C   0  0  0  0  0  0  0  0  0  0  0  0
  -23.7071  -16.0834   21.4023 C   0  0  0  0  0  0  0  0  0  0  0  0
  -18.6297  -27.1461   25.3673 C   0  0  0  0  0  0  0  0  0  0  0  0
  -21.3496  -26.9623   24.8060 C   0  0  0  0  0  0  0  0  0  0  0  0
  -26.5817  -29.5041   22.8903 C   0  0  0  0  0  0  0  0  0  0  0  0
  -30.1328  -22.2763   18.3581 C   0  0  0  0  0  0  0  0  0  0  0  0
  -29.9388  -20.9000   18.2410 C   0  0  0  0  0  0  0  0  0  0  0  0
  -24.1674  -16.0580   24.1537 C   0  0  0  0  0  0  0  0  0  0  0  0
  -23.2403  -17.1303   22.1972 C   0  0  0  0  0  0  0  0  0  0  0  0
  -27.8157  -28.9589   22.5387 C   0  0  0  0  0  0  0  0  0  0  0  0
  -22.1171  -20.2627   23.6587 C   0  0  0  0  0  0  0  0  0  0  0  0
  -22.3149  -21.5644   23.1983 C   0  0  0  0  0  0  0  0  0  0  0  0
  -27.1618  -28.9915   20.2170 C   0  0  0  0  0  0  0  0  0  0  0  0
  -29.5926  -22.1525   20.7097 C   0  0  0  0  0  0  0  0  0  0  0  0
  -24.7038  -21.2035   23.2042 C   0  0  0  0  0  0  0  0  0  0  0  0
  -24.4041  -15.0239   21.9831 C   0  0  0  0  0  0  0  0  0  0  0  0
  -24.2056  -12.7556   20.8329 C   0  0  0  0  0  0  0  0  0  0  0  0
  -19.0675  -27.2638   24.0387 C   0  0  0  0  0  0  0  0  0  0  0  0
  -25.6227  -29.7875   21.9073 C   0  0  0  0  0  0  0  0  0  0  0  0
  -20.4421  -27.1608   23.7517 C   0  0  0  0  0  0  0  0  0  0  0  0
  -25.9174  -29.5427   20.5585 C   0  0  0  0  0  0  0  0  0  0  0  0
  -29.9598  -22.9025   19.5924 C   0  0  0  0  0  0  0  0  0  0  0  0
  -29.5717  -20.1499   19.3583 C   0  0  0  0  0  0  0  0  0  0  0  0
  -29.3985  -20.7761   20.5926 C   0  0  0  0  0  0  0  0  0  0  0  0
  -23.4704  -17.1175   23.5730 C   0  0  0  0  0  0  0  0  0  0  0  0
  -28.1049  -28.6998   21.2022 C   0  0  0  0  0  0  0  0  0  0  0  0
  -23.2126  -19.4314   23.8920 C   0  0  0  0  0  0  0  0  0  0  0  0
  -23.6082  -22.0348   22.9710 C   0  0  0  0  0  0  0  0  0  0  0  0
  -24.5060  -19.9018   23.6647 C   0  0  0  0  0  0  0  0  0  0  0  0
  -24.8865  -13.9431   21.1614 C   0  0  0  0  0  0  0  0  0  0  0  0
  -25.0854  -12.0644   20.0362 C   0  0  0  0  0  0  0  0  0  0  0  0
  -30.0531  -25.1093   20.7627 C   0  0  0  0  0  0  0  0  0  0  0  0
  -22.8949  -12.3165   21.2139 C   0  0  0  0  0  0  0  0  0  0  0  0
  -22.6778  -28.7650   21.2857 C   0  0  0  0  0  0  0  0  0  0  0  0
  -22.7735  -31.0779   19.0134 C   0  0  0  0  0  0  0  0  0  0  0  0
  -28.8153  -20.5198   23.0254 C   0  0  0  0  0  0  0  0  0  0  0  0
  -24.6604  -33.0565   16.9709 C   0  0  0  0  0  0  0  0  0  0  0  0
  -29.2079  -15.8812   19.6146 C   0  0  0  0  0  0  0  0  0  0  0  0
  -28.9539  -17.9683   18.1489 C   0  0  0  0  0  0  0  0  0  0  0  0
  -18.0396  -27.4301   22.9476 C   0  0  0  0  0  0  0  0  0  0  0  0
  -24.3065  -30.4003   22.3003 C   0  0  0  0  0  0  0  0  0  0  0  0
  -24.9298  -29.8477   19.4629 C   0  0  0  0  0  0  0  0  0  0  0  0
  -18.6293  -27.9063   21.6226 C   0  0  0  0  0  0  0  0  0  0  0  0
  -29.2368  -12.4987   20.9965 C   0  0  0  0  0  0  0  0  0  0  0  0
  -19.8803  -27.1050   21.2764 C   0  0  0  0  0  0  0  0  0  0  0  0
  -28.4366  -11.6774   19.9930 C   0  0  0  0  0  0  0  0  0  0  0  0
  -29.9740  -13.6348   20.3034 C   0  0  0  0  0  0  0  0  0  0  0  0
  -28.1920  -13.7750   18.5657 C   0  0  0  0  0  0  0  0  0  0  0  0
  -30.5313  -25.2600   18.7164 C   0  0  0  0  0  0  0  0  0  0  0  0
  -20.9690  -27.2952   22.3394 C   0  0  1  0  0  0  0  0  0  0  0  0
  -23.2081  -30.1708   21.2667 C   0  0  1  0  0  0  0  0  0  0  0  0
  -27.4754  -12.5465   19.1672 C   0  0  2  0  0  0  0  0  0  0  0  0
  -30.4465  -26.3144   19.8606 C   0  0  2  0  0  0  0  0  0  0  0  0
  -28.4275  -19.4076   23.9672 C   0  0  0  0  0  0  0  0  0  0  0  0
  -31.7784  -26.9556   20.2342 C   0  0  0  0  0  0  0  0  0  0  0  0
  -24.4544  -34.8206   15.1980 C   0  0  0  0  0  0  0  0  0  0  0  0
  -21.9793  -28.9423   16.9841 C   0  0  0  0  0  0  0  0  0  0  0  0
  -22.7080  -30.4996   15.1642 C   0  0  0  0  0  0  0  0  0  0  0  0
  -20.8360  -31.1458   16.6810 C   0  0  0  0  0  0  0  0  0  0  0  0
  -26.1290  -35.0373   18.6075 C   0  0  0  0  0  0  0  0  0  0  0  0
  -29.3428  -27.3407   19.6934 C   0  0  0  0  0  0  0  0  0  1  0  0
  -23.2037  -31.1391   17.5676 C   0  0  1  0  0  0  0  0  0  0  0  0
  -24.6109  -34.5467   16.6857 C   0  0  2  0  0  0  0  0  0  0  0  0
  -22.1998  -30.4240   16.6198 C   0  0  0  0  0  0  0  0  0  0  0  0
  -26.1049  -14.0060   20.6179 N   0  0  0  0  0  0  0  0  0  0  0  0
  -26.1966  -12.8493   19.9399 N   0  0  0  0  0  0  0  0  0  0  0  0
  -30.1509  -24.2597   19.7074 N   0  0  0  0  0  0  0  0  0  0  0  0
  -23.6544  -30.4403   19.8984 N   0  0  0  0  0  0  0  0  0  0  0  0
  -29.0776  -14.4784   19.5109 N   0  0  0  0  0  0  0  0  0  0  0  0
  -25.0091  -10.8679   19.4158 N   0  0  0  0  0  0  0  0  0  0  0  0
  -22.1241  -13.1493   22.0365 N   0  0  0  0  0  0  0  0  0  0  0  0
  -29.0291  -20.0458   21.7261 N   0  0  0  0  0  0  0  0  0  0  0  0
  -29.3790  -18.7521   19.2139 N   0  0  0  0  0  0  0  0  0  0  0  0
  -21.6290  -28.5712   22.1643 N   0  0  0  0  0  0  0  0  0  0  0  0
  -23.4113  -32.5507   17.2630 N   0  0  0  0  0  0  0  0  0  0  0  0
  -28.9010  -16.5879   18.4326 N   0  0  0  0  0  0  0  0  0  0  0  0
  -25.8620  -35.2059   17.1559 N   0  3  0  0  0  0  0  0  0  0  0  0
  -29.7687  -24.9461   21.9275 O   0  0  0  0  0  0  0  0  0  0  0  0
  -22.4277  -11.2109   20.8495 O   0  0  0  0  0  0  0  0  0  0  0  0
  -23.1819  -27.9192   20.5562 O   0  0  0  0  0  0  0  0  0  0  0  0
  -21.6988  -31.5837   19.3465 O   0  0  0  0  0  0  0  0  0  0  0  0
  -28.9082  -21.6764   23.4237 O   0  0  0  0  0  0  0  0  0  0  0  0
  -25.7022  -32.4056   16.9344 O   0  0  0  0  0  0  0  0  0  0  0  0
  -29.5975  -16.4455   20.6405 O   0  0  0  0  0  0  0  0  0  0  0  0
  -23.0146  -18.1391   24.3483 O   0  0  0  0  0  0  0  0  0  0  0  0
  -29.3084  -28.1670   20.8563 O   0  0  0  0  0  0  0  0  0  1  0  0
  -23.7980  -23.2844   22.5274 F   0  0  0  0  0  0  0  0  0  0  0  0
  -25.5623  -19.1074   23.8858 F   0  0  0  0  0  0  0  0  0  0  0  0
  -28.5252  -18.4343   16.5949 S   0  0  0  0  0  0  0  0  0  0  0  0
  1  2  1  0  0  0  0
  1  5  2  0  0  0  0
  2  6  2  0  0  0  0
  3 10  2  0  0  0  0
  3 18  1  0  0  0  0
  4 11  1  0  0  0  0
  4 18  2  0  0  0  0
  5 20  1  0  0  0  0
  6 22  1  0  0  0  0
  7 12  2  0  0  0  0
  7 21  1  0  0  0  0
  8  9  2  0  0  0  0
  8 24  1  0  0  0  0
  9 25  1  0  0  0  0
 10 27  1  0  0  0  0
 11 27  2  0  0  0  0
 12 28  1  0  0  0  0
 13 14  2  0  0  0  0
 13 29  1  0  0  0  0
 14 30  1  0  0  0  0
 15 23  1  0  0  0  0
 15 28  2  0  0  0  0
 16 24  2  0  0  0  0
 16 26  1  0  0  0  0
 17 30  2  0  0  0  0
 17 31  1  0  0  0  0
 18 32  1  0  0  0  0
 19 32  1  0  0  0  0
 19 33  2  0  0  0  0
 19 35  1  0  0  0  0
 20 22  2  0  0  0  0
 20 42  1  0  0  0  0
 21 23  2  0  0  0  0
 21 43  1  0  0  0  0
 22 52  1  0  0  0  0
 23 44  1  0  0  0  0
 24 69  1  0  0  0  0
 25 26  2  0  0  0  0
 25 75  1  0  0  0  0
 26 74  1  0  0  0  0
 27 87  1  0  0  0  0
 28 88  1  0  0  0  0
 29 31  2  0  0  0  0
 29 87  1  0  0  0  0
 30 89  1  0  0  0  0
 31 90  1  0  0  0  0
 32 67  2  0  0  0  0
 33 68  1  0  0  0  0
 33 72  1  0  0  0  0
 34 55  1  0  0  0  0
 34 69  1  0  0  0  0
 34 80  2  0  0  0  0
 35 73  1  0  0  0  0
 35 81  2  0  0  0  0
 36 53  1  0  0  0  0
 36 76  1  0  0  0  0
 36 82  2  0  0  0  0
 37 64  1  0  0  0  0
 37 70  1  0  0  0  0
 37 83  2  0  0  0  0
 38 56  1  0  0  0  0
 38 74  1  0  0  0  0
 38 84  2  0  0  0  0
 39 65  1  0  0  0  0
 39 77  1  0  0  0  0
 39 85  2  0  0  0  0
 40 71  1  0  0  0  0
 40 78  1  0  0  0  0
 40 86  2  0  0  0  0
 41 75  1  0  0  0  0
 41 78  1  0  0  0  0
 41 91  2  0  0  0  0
 42 45  1  0  0  0  0
 43 53  1  0  0  0  0
 44 70  1  0  0  0  0
 45 47  1  0  0  0  0
 46 48  1  0  0  0  0
 46 49  1  0  0  0  0
 47 52  1  0  0  0  0
 48 54  1  0  0  0  0
 49 71  1  0  0  0  0
 50 54  1  0  0  0  0
 50 71  1  0  0  0  0
 51 55  1  0  0  0  0
 51 69  1  0  0  0  0
 52 76  1  0  0  0  0
 53 70  1  0  0  0  0
 54 68  1  0  0  0  0
 55 57  1  0  0  0  0
 55 63  1  0  0  0  0
 58 65  1  0  0  0  0
 59 66  1  0  0  0  0
 60 66  1  0  0  0  0
 61 66  1  0  0  0  0
 62 79  1  0  0  0  0
 63 88  1  0  0  0  0
 64 66  1  0  0  0  0
 64 77  1  0  0  0  0
 65 79  1  0  0  0  0
 67 68  1  0  0  0  0
M  CHG  1  79   1
M  ISO  4  40 100  63 101  78 100  88 101
M  END
> <Batch ID>
0071

> <Smiles>
CNC(C)C(=O)NC(C(=O)N1Cc2cc([101O:1][101CH2:1]C3(C)CN(c4ccc(NC(=S)[100NH:0][100C:0](=O)N5CCCC(n6nc(-c7ccc(Oc8ccc(F)cc8F)cc7)c(C(N)=O)c6N)C5)c(NC(C)=O)c4)C3=O)ccc2CC1C(=O)NC1CCCc2ccccc21)C(C)(C)C

> <Shape>
0.285

> <Color>
0.094

> <Negative vol penalty>
0.000

$$$$

  -OEChem-04042323353D

 86 95  0     1  0  0  0  0  0999 V2000
  -27.7026  -32.6582   27.5508 C   0  0  0  0  0  0  0  0  0  0  0  0
  -27.8862  -31.5650   26.7101 C   0  0  0  0  0  0  0  0  0  0  0  0
  -23.4663   -9.5325   20.2196 C   0  0  0  0  0  0  0  0  0  0  0  0
  -24.0531   -9.9629   22.5234 C   0  0  0  0  0  0  0  0  0  0  0  0
  -26.4255  -33.1851   27.7384 C   0  0  0  0  0  0  0  0  0  0  0  0
  -26.7925  -30.9974   26.0574 C   0  0  0  0  0  0  0  0  0  0  0  0
  -27.7395  -30.0064   21.1824 C   0  0  0  0  0  0  0  0  0  0  0  0
  -30.3170  -19.8364   19.9379 C   0  0  0  0  0  0  0  0  0  0  0  0
  -30.3244  -18.4562   20.1394 C   0  0  0  0  0  0  0  0  0  0  0  0
  -22.8730   -8.3275   20.5958 C   0  0  0  0  0  0  0  0  0  0  0  0
  -23.4597   -8.7579   22.8997 C   0  0  0  0  0  0  0  0  0  0  0  0
  -28.4911  -28.8669   20.8986 C   0  0  0  0  0  0  0  0  0  0  0  0
  -20.3381   -7.5844   23.4465 C   0  0  0  0  0  0  0  0  0  0  0  0
  -19.5127   -7.5935   24.5709 C   0  0  0  0  0  0  0  0  0  0  0  0
  -26.4651  -27.6708   20.3655 C   0  0  0  0  0  0  0  0  0  0  0  0
  -28.5535  -20.0657   21.5734 C   0  0  0  0  0  0  0  0  0  0  0  0
  -20.9543   -5.9776   25.6423 C   0  0  0  0  0  0  0  0  0  0  0  0
  -24.0564  -10.3502   21.1834 C   0  0  0  0  0  0  0  0  0  0  0  0
  -24.0539  -12.8581   20.7165 C   0  0  0  0  0  0  0  0  0  0  0  0
  -25.3169  -32.6297   27.0801 C   0  0  0  0  0  0  0  0  0  0  0  0
  -26.3419  -29.9834   21.0701 C   0  0  0  0  0  0  0  0  0  0  0  0
  -25.4991  -31.5166   26.2374 C   0  0  0  0  0  0  0  0  0  0  0  0
  -25.6984  -28.8121   20.6459 C   0  0  0  0  0  0  0  0  0  0  0  0
  -29.4316  -20.6412   20.6550 C   0  0  0  0  0  0  0  0  0  0  0  0
  -29.4463  -17.8807   21.0577 C   0  0  0  0  0  0  0  0  0  0  0  0
  -28.5609  -18.6854   21.7748 C   0  0  0  0  0  0  0  0  0  0  0  0
  -22.8697   -7.9402   21.9358 C   0  0  0  0  0  0  0  0  0  0  0  0
  -27.8537  -27.6980   20.4929 C   0  0  0  0  0  0  0  0  0  0  0  0
  -21.4717   -6.7719   23.4200 C   0  0  0  0  0  0  0  0  0  0  0  0
  -19.8208   -6.7901   25.6688 C   0  0  0  0  0  0  0  0  0  0  0  0
  -21.7798   -5.9685   24.5179 C   0  0  0  0  0  0  0  0  0  0  0  0
  -24.6700  -11.5948   20.7954 C   0  0  0  0  0  0  0  0  0  0  0  0
  -25.0551  -13.7033   20.3045 C   0  0  0  0  0  0  0  0  0  0  0  0
  -30.2266  -22.7839   19.5791 C   0  0  0  0  0  0  0  0  0  0  0  0
  -22.6978  -13.2340   20.9912 C   0  0  0  0  0  0  0  0  0  0  0  0
  -23.9223  -30.3927   23.0904 C   0  0  0  0  0  0  0  0  0  0  0  0
  -22.1411  -30.1932   20.3867 C   0  0  0  0  0  0  0  0  0  0  0  0
  -21.8748  -29.0922   17.1674 C   0  0  0  0  0  0  0  0  0  0  0  0
  -30.2981  -15.5538   20.6034 C   0  0  0  0  0  0  0  0  0  0  0  0
  -23.9490  -33.2041   27.3510 C   0  0  0  0  0  0  0  0  0  0  0  0
  -25.5477  -31.2288   21.3541 C   0  0  0  0  0  0  0  0  0  0  0  0
  -24.2020  -28.7414   20.4901 C   0  0  0  0  0  0  0  0  0  0  0  0
  -22.8967  -32.7790   26.3301 C   0  0  0  0  0  0  0  0  0  0  0  0
  -29.6989  -12.7030   18.5562 C   0  0  0  0  0  0  0  0  0  0  0  0
  -22.9768  -31.2773   26.0747 C   0  0  0  0  0  0  0  0  0  0  0  0
  -28.2864  -12.2645   18.9497 C   0  0  0  0  0  0  0  0  0  0  0  0
  -30.4859  -13.2250   19.7570 C   0  0  0  0  0  0  0  0  0  0  0  0
  -28.4039  -13.8429   20.9200 C   0  0  0  0  0  0  0  0  0  0  0  0
  -28.4683  -22.9224   21.0766 C   0  0  0  0  0  0  0  0  0  0  0  0
  -24.3412  -30.8887   25.4924 C   0  0  1  0  0  0  0  0  0  0  0  0
  -24.0903  -30.9417   21.7019 C   0  0  1  0  0  0  0  0  0  0  0  0
  -27.5505  -13.3701   19.7318 C   0  0  2  0  0  0  0  0  0  0  0  0
  -29.0252  -24.3006   20.7980 C   0  0  2  0  0  0  0  0  0  0  0  0
  -20.2854  -29.0476   15.2260 C   0  0  0  0  0  0  0  0  0  0  0  0
  -20.5273  -27.9986   21.7614 C   0  0  0  0  0  0  0  0  0  0  0  0
  -19.6224  -27.3550   19.5175 C   0  0  0  0  0  0  0  0  0  0  0  0
  -19.1623  -29.6260   20.4413 C   0  0  0  0  0  0  0  0  0  0  0  0
  -26.3881  -18.6984   23.0013 C   0  0  0  0  0  0  0  0  0  0  0  0
  -23.7449  -30.6150   15.4521 C   0  0  0  0  0  0  0  0  0  0  0  0
  -27.9599  -25.3226   20.4489 C   0  0  0  0  0  0  0  0  0  1  0  0
  -21.4872  -29.0707   19.6177 C   0  0  1  0  0  0  0  0  0  0  0  0
  -21.4286  -29.7930   15.8969 C   0  0  2  0  0  0  0  0  0  0  0  0
  -20.2279  -28.5130   20.3392 C   0  0  0  0  0  0  0  0  0  0  0  0
  -25.9625  -11.6296   20.4602 N   0  0  0  0  0  0  0  0  0  0  0  0
  -26.1666  -12.9251   20.1666 N   0  0  0  0  0  0  0  0  0  0  0  0
  -29.4245  -22.0508   20.4492 N   0  0  0  0  0  0  0  0  0  0  0  0
  -23.4688  -29.9834   20.7857 N   0  0  0  0  0  0  0  0  0  0  0  0
  -29.7290  -14.2723   20.4463 N   0  0  0  0  0  0  0  0  0  0  0  0
  -25.0842  -15.0288   20.0502 N   0  0  0  0  0  0  0  0  0  0  0  0
  -21.7998  -12.2406   21.4047 N   0  0  0  0  0  0  0  0  0  0  0  0
  -29.4727  -16.4765   21.2453 N   0  0  0  0  0  0  0  0  0  0  0  0
  -27.6632  -18.1234   22.7101 N   0  0  0  0  0  0  0  0  0  0  0  0
  -24.4037  -31.2220   24.0854 N   0  0  0  0  0  0  0  0  0  0  0  0
  -21.2282  -29.5897   18.2791 N   0  0  0  0  0  0  0  0  0  0  0  0
  -22.5603  -29.8852   14.9315 N   0  3  0  0  0  0  0  0  0  0  0  0
  -31.0830  -22.3944   18.7978 O   0  0  0  0  0  0  0  0  0  0  0  0
  -22.2904  -14.4129   20.8576 O   0  0  0  0  0  0  0  0  0  0  0  0
  -23.3937  -29.2984   23.2475 O   0  0  0  0  0  0  0  0  0  0  0  0
  -21.5000  -31.2212   20.6185 O   0  0  0  0  0  0  0  0  0  0  0  0
  -22.7103  -28.1909   17.1728 O   0  0  0  0  0  0  0  0  0  0  0  0
  -31.4234  -15.8212   20.1743 O   0  0  0  0  0  0  0  0  0  0  0  0
  -29.9032  -24.1176   19.6788 O   0  0  0  0  0  0  0  0  0  0  0  0
  -22.2906   -6.7646   22.3033 O   0  0  0  0  0  0  0  0  0  0  0  0
  -28.5848  -26.5842   20.2159 O   0  0  0  0  0  0  0  0  0  1  0  0
  -19.0289   -6.8001   26.7490 F   0  0  0  0  0  0  0  0  0  0  0  0
  -22.8680   -5.1868   24.4987 F   0  0  0  0  0  0  0  0  0  0  0  0
  1  2  1  0  0  0  0
  1  5  2  0  0  0  0
  2  6  2  0  0  0  0
  3 10  2  0  0  0  0
  3 18  1  0  0  0  0
  4 11  1  0  0  0  0
  4 18  2  0  0  0  0
  5 20  1  0  0  0  0
  6 22  1  0  0  0  0
  7 12  2  0  0  0  0
  7 21  1  0  0  0  0
  8  9  2  0  0  0  0
  8 24  1  0  0  0  0
  9 25  1  0  0  0  0
 10 27  1  0  0  0  0
 11 27  2  0  0  0  0
 12 28  1  0  0  0  0
 13 14  2  0  0  0  0
 13 29  1  0  0  0  0
 14 30  1  0  0  0  0
 15 23  1  0  0  0  0
 15 28  2  0  0  0  0
 16 24  2  0  0  0  0
 16 26  1  0  0  0  0
 17 30  2  0  0  0  0
 17 31  1  0  0  0  0
 18 32  1  0  0  0  0
 19 32  1  0  0  0  0
 19 33  2  0  0  0  0
 19 35  1  0  0  0  0
 20 22  2  0  0  0  0
 20 40  1  0  0  0  0
 21 23  2  0  0  0  0
 21 41  1  0  0  0  0
 22 50  1  0  0  0  0
 23 42  1  0  0  0  0
 24 66  1  0  0  0  0
 25 26  2  0  0  0  0
 25 71  1  0  0  0  0
 26 72  1  0  0  0  0
 27 83  1  0  0  0  0
 28 84  1  0  0  0  0
 29 31  2  0  0  0  0
 29 83  1  0  0  0  0
 30 85  1  0  0  0  0
 31 86  1  0  0  0  0
 32 64  2  0  0  0  0
 33 65  1  0  0  0  0
 33 69  1  0  0  0  0
 34 66  1  0  0  0  0
 34 76  2  0  0  0  0
 34 82  1  0  0  0  0
 35 70  1  0  0  0  0
 35 77  2  0  0  0  0
 36 51  1  0  0  0  0
 36 73  1  0  0  0  0
 36 78  2  0  0  0  0
 37 61  1  0  0  0  0
 37 67  1  0  0  0  0
 37 79  2  0  0  0  0
 38 62  1  0  0  0  0
 38 74  1  0  0  0  0
 38 80  2  0  0  0  0
 39 68  1  0  0  0  0
 39 71  1  0  0  0  0
 39 81  2  0  0  0  0
 40 43  1  0  0  0  0
 41 51  1  0  0  0  0
 42 67  1  0  0  0  0
 43 45  1  0  0  0  0
 44 46  1  0  0  0  0
 44 47  1  0  0  0  0
 45 50  1  0  0  0  0
 46 52  1  0  0  0  0
 47 68  1  0  0  0  0
 48 52  1  0  0  0  0
 48 68  1  0  0  0  0
 49 53  1  0  0  0  0
 49 66  1  0  0  0  0
 50 73  1  0  0  0  0
 51 67  1  0  0  0  0
 52 65  1  0  0  0  0
 53 60  1  0  0  0  0
 53 82  1  0  0  0  0
 54 62  1  0  0  0  0
 55 63  1  0  0  0  0
 56 63  1  0  0  0  0
 57 63  1  0  0  0  0
 58 72  1  0  0  0  0
 59 75  1  0  0  0  0
 60 84  1  0  0  0  0
 61 63  1  0  0  0  0
 61 74  1  0  0  0  0
 62 75  1  0  0  0  0
 64 65  1  0  0  0  0
M  CHG  1  75   1
M  ISO  4  39 100  60 101  71 100  84 101
M  END
> <Batch ID>
0071

> <Smiles>
CNc1cc(N2CC([101CH2:1][101O:1]c3ccc4c(c3)CN(C(=O)C(NC(=O)C(C)NC)C(C)(C)C)C(C(=O)NC3CCCc5ccccc53)C4)OC2=O)ccc1[100NH:0][100C:0](=O)N1CCCC(n2nc(-c3ccc(Oc4ccc(F)cc4F)cc3)c(C(N)=O)c2N)C1

> <Shape>
0.382

> <Color>
0.208

> <Negative vol penalty>
0.000

$$$$

  -OEChem-04042323353D

 84 92  0     1  0  0  0  0  0999 V2000
  -20.3122  -34.6576   22.0190 C   0  0  0  0  0  0  0  0  0  0  0  0
  -21.5729  -34.1575   21.7093 C   0  0  0  0  0  0  0  0  0  0  0  0
  -26.6433  -11.9117   21.0171 C   0  0  0  0  0  0  0  0  0  0  0  0
  -25.5087  -13.3404   19.4333 C   0  0  0  0  0  0  0  0  0  0  0  0
  -19.4375  -33.9042   22.8008 C   0  0  0  0  0  0  0  0  0  0  0  0
  -21.9600  -32.9041   22.1820 C   0  0  0  0  0  0  0  0  0  0  0  0
  -25.5248  -28.8296   19.3191 C   0  0  0  0  0  0  0  0  0  0  0  0
  -28.4631  -20.6403   17.3986 C   0  0  0  0  0  0  0  0  0  0  0  0
  -25.4122  -11.4933   21.5218 C   0  0  0  0  0  0  0  0  0  0  0  0
  -24.2775  -12.9220   19.9379 C   0  0  0  0  0  0  0  0  0  0  0  0
  -26.8810  -28.5268   19.4322 C   0  0  0  0  0  0  0  0  0  0  0  0
  -22.9642   -9.3327   20.6431 C   0  0  0  0  0  0  0  0  0  0  0  0
  -27.8759  -21.8568   17.0511 C   0  0  0  0  0  0  0  0  0  0  0  0
  -22.7863   -7.9679   20.8693 C   0  0  0  0  0  0  0  0  0  0  0  0
  -29.8245  -21.7678   19.0456 C   0  0  0  0  0  0  0  0  0  0  0  0
  -26.3464  -26.7246   20.9440 C   0  0  0  0  0  0  0  0  0  0  0  0
  -22.3829   -8.4084   23.2103 C   0  0  0  0  0  0  0  0  0  0  0  0
  -26.6916  -12.8353   19.9729 C   0  0  0  0  0  0  0  0  0  0  0  0
  -29.2372  -22.9844   18.6981 C   0  0  0  0  0  0  0  0  0  0  0  0
  -28.6944  -12.6838   18.4001 C   0  0  0  0  0  0  0  0  0  0  0  0
  -19.8104  -32.6368   23.2753 C   0  0  0  0  0  0  0  0  0  0  0  0
  -24.5684  -28.0878   20.0273 C   0  0  0  0  0  0  0  0  0  0  0  0
  -21.0900  -32.1336   22.9720 C   0  0  0  0  0  0  0  0  0  0  0  0
  -24.9785  -27.0184   20.8362 C   0  0  0  0  0  0  0  0  0  0  0  0
  -29.4374  -20.5958   18.3959 C   0  0  0  0  0  0  0  0  0  0  0  0
  -24.2292  -11.9984   20.9822 C   0  0  0  0  0  0  0  0  0  0  0  0
  -27.2922  -27.4761   20.2470 C   0  0  0  0  0  0  0  0  0  0  0  0
  -22.8515  -10.2354   21.7005 C   0  0  0  0  0  0  0  0  0  0  0  0
  -22.4956   -7.5057   22.1529 C   0  0  0  0  0  0  0  0  0  0  0  0
  -28.2629  -23.0289   17.7008 C   0  0  0  0  0  0  0  0  0  0  0  0
  -22.5608   -9.7732   22.9841 C   0  0  0  0  0  0  0  0  0  0  0  0
  -27.9632  -13.2683   19.4515 C   0  0  0  0  0  0  0  0  0  0  0  0
  -29.8217  -13.4610   18.2923 C   0  0  0  0  0  0  0  0  0  0  0  0
  -29.6494  -24.2239   19.3868 C   0  0  0  0  0  0  0  0  0  0  0  0
  -28.3825  -11.5406   17.5930 C   0  0  0  0  0  0  0  0  0  0  0  0
  -22.4235  -28.7589   22.2751 C   0  0  0  0  0  0  0  0  0  0  0  0
  -21.5234  -25.6810   21.7861 C   0  0  0  0  0  0  0  0  0  0  0  0
  -22.3650  -22.5515   20.7163 C   0  0  0  0  0  0  0  0  0  0  0  0
  -31.0155  -19.1406   19.7144 C   0  0  0  0  0  0  0  0  0  0  0  0
  -18.8486  -31.8796   24.1564 C   0  0  0  0  0  0  0  0  0  0  0  0
  -23.1073  -28.4100   19.8737 C   0  0  0  0  0  0  0  0  0  0  0  0
  -23.9900  -26.1784   21.6016 C   0  0  0  0  0  0  0  0  0  0  0  0
  -19.1946  -30.4003   24.3054 C   0  0  0  0  0  0  0  0  0  0  0  0
  -32.7139  -16.2458   20.9028 C   0  0  0  0  0  0  0  0  0  0  0  0
  -20.6817  -30.2267   24.5976 C   0  0  0  0  0  0  0  0  0  0  0  0
  -31.7576  -15.0998   20.5644 C   0  0  0  0  0  0  0  0  0  0  0  0
  -31.9615  -17.5053   21.3286 C   0  0  0  0  0  0  0  0  0  0  0  0
  -29.9727  -16.8134   20.0499 C   0  0  0  0  0  0  0  0  0  0  0  0
  -21.5371  -30.7676   23.4456 C   0  0  1  0  0  0  0  0  0  0  0  0
  -22.2603  -27.9156   21.0423 C   0  0  1  0  0  0  0  0  0  0  0  0
  -30.6823  -15.5433   19.5531 C   0  0  2  0  0  0  0  0  0  0  0  0
  -21.4311  -20.2349   20.4743 C   0  0  0  0  0  0  0  0  0  0  0  0
  -31.7665  -27.0042   18.3713 C   0  0  0  0  0  0  0  0  0  0  0  0
  -21.8373  -25.2434   24.7894 C   0  0  0  0  0  0  0  0  0  0  0  0
  -21.8313  -22.7769   24.3602 C   0  0  0  0  0  0  0  0  0  0  0  0
  -19.8292  -24.1470   23.7797 C   0  0  0  0  0  0  0  0  0  0  0  0
  -22.7330  -22.5846   17.7799 C   0  0  0  0  0  0  0  0  0  0  0  0
  -29.4422  -27.4579   19.2305 C   0  0  0  0  0  0  0  0  0  1  0  0
  -21.9184  -24.3460   22.3699 C   0  0  1  0  0  0  0  0  0  0  0  0
  -21.6541  -21.5769   19.7947 C   0  0  2  0  0  0  0  0  0  0  0  0
  -30.6173  -26.4895   19.2223 C   0  0  1  0  0  0  0  0  0  0  0  0
  -21.3731  -24.1452   23.8120 C   0  0  0  0  0  0  0  0  0  0  0  0
  -28.5746  -14.3344   19.9745 N   0  0  0  0  0  0  0  0  0  0  0  0
  -29.7020  -14.4260   19.2487 N   0  0  0  0  0  0  0  0  0  0  0  0
  -22.5732  -26.5368   21.4236 N   0  0  0  0  0  0  0  0  0  0  0  0
  -30.9628  -17.8676   20.3206 N   0  0  0  0  0  0  0  0  0  0  0  0
  -30.8938  -13.4063   17.4738 N   0  0  0  0  0  0  0  0  0  0  0  0
  -29.4810  -24.2944   20.7073 N   0  0  0  0  0  0  0  0  0  0  0  0
  -27.1833  -10.8575   17.8371 N   0  0  0  0  0  0  0  0  0  0  0  0
  -30.0346  -19.3599   18.7478 N   0  0  0  0  0  0  0  0  0  0  0  0
  -21.5525  -29.8295   22.3437 N   0  0  0  0  0  0  0  0  0  0  0  0
  -21.4728  -23.3357   21.4165 N   0  0  0  0  0  0  0  0  0  0  0  0
  -30.1673  -25.2114   18.6518 N   0  3  0  0  0  0  0  0  0  0  0  0
  -22.4581  -21.3508   18.5604 N   0  3  0  0  0  0  0  0  0  0  0  0
  -29.1524  -11.1270   16.6932 O   0  0  0  0  0  0  0  0  0  0  0  0
  -23.2754  -28.4595   23.1035 O   0  0  0  0  0  0  0  0  0  0  0  0
  -20.3276  -25.9515   21.6499 O   0  0  0  0  0  0  0  0  0  0  0  0
  -23.5892  -22.6086   20.8087 O   0  0  0  0  0  0  0  0  0  0  0  0
  -31.8846  -19.9647   20.0100 O   0  0  0  0  0  0  0  0  0  0  0  0
  -23.0276  -11.5902   21.4742 O   0  0  0  0  0  0  0  0  0  0  0  0
  -28.6154  -27.1788   20.3596 O   0  0  0  0  0  0  0  0  0  1  0  0
  -22.3233   -6.1952   22.3696 F   0  0  0  0  0  0  0  0  0  0  0  0
  -27.6933  -24.1933   17.3599 F   0  0  0  0  0  0  0  0  0  0  0  0
  -22.4502  -10.6358   24.0037 F   0  0  0  0  0  0  0  0  0  0  0  0
  1  2  1  0  0  0  0
  1  5  2  0  0  0  0
  2  6  2  0  0  0  0
  3  9  2  0  0  0  0
  3 18  1  0  0  0  0
  4 10  1  0  0  0  0
  4 18  2  0  0  0  0
  5 21  1  0  0  0  0
  6 23  1  0  0  0  0
  7 11  2  0  0  0  0
  7 22  1  0  0  0  0
  8 13  2  0  0  0  0
  8 25  1  0  0  0  0
  9 26  1  0  0  0  0
 10 26  2  0  0  0  0
 11 27  1  0  0  0  0
 12 14  2  0  0  0  0
 12 28  1  0  0  0  0
 13 30  1  0  0  0  0
 14 29  1  0  0  0  0
 15 19  1  0  0  0  0
 15 25  2  0  0  0  0
 16 24  1  0  0  0  0
 16 27  2  0  0  0  0
 17 29  2  0  0  0  0
 17 31  1  0  0  0  0
 18 32  1  0  0  0  0
 19 30  2  0  0  0  0
 19 34  1  0  0  0  0
 20 32  1  0  0  0  0
 20 33  2  0  0  0  0
 20 35  1  0  0  0  0
 21 23  2  0  0  0  0
 21 40  1  0  0  0  0
 22 24  2  0  0  0  0
 22 41  1  0  0  0  0
 23 49  1  0  0  0  0
 24 42  1  0  0  0  0
 25 70  1  0  0  0  0
 26 80  1  0  0  0  0
 27 81  1  0  0  0  0
 28 31  2  0  0  0  0
 28 80  1  0  0  0  0
 29 82  1  0  0  0  0
 30 83  1  0  0  0  0
 31 84  1  0  0  0  0
 32 63  2  0  0  0  0
 33 64  1  0  0  0  0
 33 67  1  0  0  0  0
 34 68  1  0  0  0  0
 34 73  2  0  0  0  0
 35 69  1  0  0  0  0
 35 75  2  0  0  0  0
 36 50  1  0  0  0  0
 36 71  1  0  0  0  0
 36 76  2  0  0  0  0
 37 59  1  0  0  0  0
 37 65  1  0  0  0  0
 37 77  2  0  0  0  0
 38 60  1  0  0  0  0
 38 72  1  0  0  0  0
 38 78  2  0  0  0  0
 39 66  1  0  0  0  0
 39 70  1  0  0  0  0
 39 79  2  0  0  0  0
 40 43  1  0  0  0  0
 41 50  1  0  0  0  0
 42 65  1  0  0  0  0
 43 45  1  0  0  0  0
 44 46  1  0  0  0  0
 44 47  1  0  0  0  0
 45 49  1  0  0  0  0
 46 51  1  0  0  0  0
 47 66  1  0  0  0  0
 48 51  1  0  0  0  0
 48 66  1  0  0  0  0
 49 71  1  0  0  0  0
 50 65  1  0  0  0  0
 51 64  1  0  0  0  0
 52 60  1  0  0  0  0
 53 61  1  0  0  0  0
 54 62  1  0  0  0  0
 55 62  1  0  0  0  0
 56 62  1  0  0  0  0
 57 74  1  0  0  0  0
 58 61  1  0  0  0  0
 58 81  1  0  0  0  0
 59 62  1  0  0  0  0
 59 72  1  0  0  0  0
 60 74  1  0  0  0  0
 61 73  1  0  0  0  0
 63 64  1  0  0  0  0
M  CHG  2  73   1  74   1
M  ISO  4  39 100  58 101  70 100  81 101
M  END
> <Batch ID>
0071

> <Smiles>
CNC(C)C(=O)NC(C(=O)N1Cc2cc([101O:1][101CH2:1]C(C)NC(=N)c3cc([100NH:0][100C:0](=O)N4CCCC(n5nc(-c6ccc(Oc7ccc(F)cc7F)cc6)c(C(N)=O)c5N)C4)ccc3F)ccc2CC1C(=O)NC1CCCc2ccccc21)C(C)(C)C

> <Shape>
0.266

> <Color>
0.090

> <Negative vol penalty>
0.000

$$$$

  -OEChem-04042323353D

 86 95  0     1  0  0  0  0  0999 V2000
  -23.2935   -7.8966   24.3476 C   0  0  0  0  0  0  0  0  0  0  0  0
  -24.3986   -8.7028   24.6010 C   0  0  0  0  0  0  0  0  0  0  0  0
  -24.8155  -31.7576   23.8480 C   0  0  0  0  0  0  0  0  0  0  0  0
  -26.8668  -31.9497   22.5860 C   0  0  0  0  0  0  0  0  0  0  0  0
  -22.6621   -7.9516   23.1058 C   0  0  0  0  0  0  0  0  0  0  0  0
  -24.8736   -9.5637   23.6122 C   0  0  0  0  0  0  0  0  0  0  0  0
  -28.0130  -15.9525   22.8096 C   0  0  0  0  0  0  0  0  0  0  0  0
  -25.3085  -32.6634   24.7871 C   0  0  0  0  0  0  0  0  0  0  0  0
  -27.3597  -32.8556   23.5251 C   0  0  0  0  0  0  0  0  0  0  0  0
  -29.1134  -16.5414   22.1882 C   0  0  0  0  0  0  0  0  0  0  0  0
  -29.0155  -35.4943   25.3995 C   0  0  0  0  0  0  0  0  0  0  0  0
  -29.6443  -36.6450   24.9239 C   0  0  0  0  0  0  0  0  0  0  0  0
  -27.8943  -16.6096   20.1077 C   0  0  0  0  0  0  0  0  0  0  0  0
  -29.7103  -23.3657   19.7546 C   0  0  0  0  0  0  0  0  0  0  0  0
  -30.1670  -25.5437   18.8140 C   0  0  0  0  0  0  0  0  0  0  0  0
  -27.6117  -37.2852   23.7856 C   0  0  0  0  0  0  0  0  0  0  0  0
  -25.5947  -31.4006   22.7474 C   0  0  0  0  0  0  0  0  0  0  0  0
  -24.3453  -30.7604   20.6175 C   0  0  0  0  0  0  0  0  0  0  0  0
  -23.1237   -8.8206   22.1046 C   0  0  0  0  0  0  0  0  0  0  0  0
  -26.8469  -15.6773   22.0809 C   0  0  0  0  0  0  0  0  0  0  0  0
  -24.2486   -9.6293   22.3554 C   0  0  0  0  0  0  0  0  0  0  0  0
  -26.7796  -16.0195   20.7228 C   0  0  0  0  0  0  0  0  0  0  0  0
  -31.0220  -22.9746   19.4859 C   0  0  0  0  0  0  0  0  0  0  0  0
  -29.2828  -24.6502   19.4186 C   0  0  0  0  0  0  0  0  0  0  0  0
  -26.5805  -33.2125   24.6257 C   0  0  0  0  0  0  0  0  0  0  0  0
  -29.0552  -16.8674   20.8364 C   0  0  0  0  0  0  0  0  0  0  0  0
  -27.6848  -35.2390   25.0681 C   0  0  0  0  0  0  0  0  0  0  0  0
  -28.9424  -37.5404   24.1169 C   0  0  0  0  0  0  0  0  0  0  0  0
  -31.4787  -25.1526   18.5454 C   0  0  0  0  0  0  0  0  0  0  0  0
  -26.9829  -36.1345   24.2612 C   0  0  0  0  0  0  0  0  0  0  0  0
  -31.9062  -23.8681   18.8814 C   0  0  0  0  0  0  0  0  0  0  0  0
  -25.0863  -30.4645   21.7772 C   0  0  0  0  0  0  0  0  0  0  0  0
  -24.1063  -29.5368   20.0411 C   0  0  0  0  0  0  0  0  0  0  0  0
  -30.6629  -20.4956   19.8790 C   0  0  0  0  0  0  0  0  0  0  0  0
  -23.9118  -32.0281   20.1067 C   0  0  0  0  0  0  0  0  0  0  0  0
  -25.2392  -13.0391   21.3332 C   0  0  0  0  0  0  0  0  0  0  0  0
  -23.1047  -15.1540   20.1113 C   0  0  0  0  0  0  0  0  0  0  0  0
  -22.5114  -18.2666   18.8437 C   0  0  0  0  0  0  0  0  0  0  0  0
  -26.9458  -24.2849   20.2855 C   0  0  0  0  0  0  0  0  0  0  0  0
  -22.4373   -8.8106   20.7617 C   0  0  0  0  0  0  0  0  0  0  0  0
  -25.6591  -15.0661   22.7722 C   0  0  0  0  0  0  0  0  0  0  0  0
  -25.5439  -15.7634   19.9007 C   0  0  0  0  0  0  0  0  0  0  0  0
  -22.7741  -10.0224   19.8965 C   0  0  0  0  0  0  0  0  0  0  0  0
  -23.5526  -24.9138   21.1616 C   0  0  0  0  0  0  0  0  0  0  0  0
  -24.2774  -10.2809   19.9017 C   0  0  0  0  0  0  0  0  0  0  0  0
  -23.4919  -26.4360   21.3074 C   0  0  0  0  0  0  0  0  0  0  0  0
  -32.7957  -20.0104   20.8174 C   0  0  0  0  0  0  0  0  0  0  0  0
  -24.8796  -24.3483   21.6645 C   0  0  0  0  0  0  0  0  0  0  0  0
  -32.8448  -21.3612   20.1319 C   0  0  0  0  0  0  0  0  0  0  0  0
  -26.0174  -26.4898   21.2301 C   0  0  0  0  0  0  0  0  0  0  0  0
  -24.7784  -10.5941   21.3168 C   0  0  1  0  0  0  0  0  0  0  0  0
  -31.6002  -19.3329   20.1633 C   0  0  1  0  0  0  0  0  0  0  0  0
  -24.7069  -14.3601   21.8119 C   0  0  1  0  0  0  0  0  0  0  0  0
  -24.7251  -27.1121   20.6767 C   0  0  2  0  0  0  0  0  0  0  0  0
  -20.6754  -19.6903   17.8954 C   0  0  0  0  0  0  0  0  0  0  0  0
  -23.2653  -13.6080   17.4856 C   0  0  0  0  0  0  0  0  0  0  0  0
  -22.2010  -15.5675   16.3474 C   0  0  0  0  0  0  0  0  0  0  0  0
  -20.9608  -14.3368   18.1278 C   0  0  0  0  0  0  0  0  0  0  0  0
  -22.7969  -20.2743   20.9993 C   0  0  0  0  0  0  0  0  0  0  0  0
  -30.9711  -18.2623   21.0348 C   0  0  0  0  0  0  0  0  0  1  0  0
  -22.9060  -15.8185   18.7704 C   0  0  1  0  0  0  0  0  0  0  0  0
  -21.4342  -19.2910   19.1514 C   0  0  2  0  0  0  0  0  0  0  0  0
  -22.3574  -14.8359   17.6975 C   0  0  0  0  0  0  0  0  0  0  0  0
  -25.3036  -29.1555   21.9303 N   0  0  0  0  0  0  0  0  0  0  0  0
  -24.6954  -28.6181   20.8591 N   0  0  0  0  0  0  0  0  0  0  0  0
  -31.4571  -21.6599   19.8310 N   0  0  0  0  0  0  0  0  0  0  0  0
  -24.4110  -15.1583   20.6205 N   0  0  0  0  0  0  0  0  0  0  0  0
  -26.0024  -25.0335   21.0206 N   0  0  0  0  0  0  0  0  0  0  0  0
  -23.4517  -29.1679   18.9196 N   0  0  0  0  0  0  0  0  0  0  0  0
  -24.2434  -33.1860   20.8234 N   0  0  0  0  0  0  0  0  0  0  0  0
  -27.9504  -25.0479   19.6910 N   0  0  0  0  0  0  0  0  0  0  0  0
  -24.4523  -11.9569   21.6783 N   0  0  0  0  0  0  0  0  0  0  0  0
  -22.0528  -16.9771   19.0114 N   0  0  0  0  0  0  0  0  0  0  0  0
  -22.0394  -20.5169   19.7446 N   0  3  0  0  0  0  0  0  0  0  0  0
  -29.4653  -20.3561   19.6776 O   0  0  0  0  0  0  0  0  0  0  0  0
  -23.2359  -32.1296   19.0548 O   0  0  0  0  0  0  0  0  0  0  0  0
  -26.2857  -13.0044   20.6965 O   0  0  0  0  0  0  0  0  0  0  0  0
  -22.1352  -14.6560   20.6890 O   0  0  0  0  0  0  0  0  0  0  0  0
  -23.6452  -18.5790   18.4866 O   0  0  0  0  0  0  0  0  0  0  0  0
  -26.8529  -23.0604   20.1677 O   0  0  0  0  0  0  0  0  0  0  0  0
  -27.0618  -34.0966   25.5418 O   0  0  0  0  0  0  0  0  0  0  0  0
  -30.1281  -17.4417   20.2273 O   0  0  0  0  0  0  0  0  0  1  0  0
  -29.5459  -38.6461   23.6615 F   0  0  0  0  0  0  0  0  0  0  0  0
  -32.3277  -26.0104   17.9646 F   0  0  0  0  0  0  0  0  0  0  0  0
  -25.7040  -35.8952   23.9405 F   0  0  0  0  0  0  0  0  0  0  0  0
  -33.1688  -23.5029   18.6178 F   0  0  0  0  0  0  0  0  0  0  0  0
  1  2  1  0  0  0  0
  1  5  2  0  0  0  0
  2  6  2  0  0  0  0
  3  8  2  0  0  0  0
  3 17  1  0  0  0  0
  4  9  1  0  0  0  0
  4 17  2  0  0  0  0
  5 19  1  0  0  0  0
  6 21  1  0  0  0  0
  7 10  2  0  0  0  0
  7 20  1  0  0  0  0
  8 25  1  0  0  0  0
  9 25  2  0  0  0  0
 10 26  1  0  0  0  0
 11 12  2  0  0  0  0
 11 27  1  0  0  0  0
 12 28  1  0  0  0  0
 13 22  1  0  0  0  0
 13 26  2  0  0  0  0
 14 23  1  0  0  0  0
 14 24  2  0  0  0  0
 15 24  1  0  0  0  0
 15 29  2  0  0  0  0
 16 28  2  0  0  0  0
 16 30  1  0  0  0  0
 17 32  1  0  0  0  0
 18 32  1  0  0  0  0
 18 33  2  0  0  0  0
 18 35  1  0  0  0  0
 19 21  2  0  0  0  0
 19 40  1  0  0  0  0
 20 22  2  0  0  0  0
 20 41  1  0  0  0  0
 21 51  1  0  0  0  0
 22 42  1  0  0  0  0
 23 31  2  0  0  0  0
 23 66  1  0  0  0  0
 24 71  1  0  0  0  0
 25 81  1  0  0  0  0
 26 82  1  0  0  0  0
 27 30  2  0  0  0  0
 27 81  1  0  0  0  0
 28 83  1  0  0  0  0
 29 31  1  0  0  0  0
 29 84  1  0  0  0  0
 30 85  1  0  0  0  0
 31 86  1  0  0  0  0
 32 64  2  0  0  0  0
 33 65  1  0  0  0  0
 33 69  1  0  0  0  0
 34 52  1  0  0  0  0
 34 66  1  0  0  0  0
 34 75  2  0  0  0  0
 35 70  1  0  0  0  0
 35 76  2  0  0  0  0
 36 53  1  0  0  0  0
 36 72  1  0  0  0  0
 36 77  2  0  0  0  0
 37 61  1  0  0  0  0
 37 67  1  0  0  0  0
 37 78  2  0  0  0  0
 38 62  1  0  0  0  0
 38 73  1  0  0  0  0
 38 79  2  0  0  0  0
 39 68  1  0  0  0  0
 39 71  1  0  0  0  0
 39 80  2  0  0  0  0
 40 43  1  0  0  0  0
 41 53  1  0  0  0  0
 42 67  1  0  0  0  0
 43 45  1  0  0  0  0
 44 46  1  0  0  0  0
 44 48  1  0  0  0  0
 45 51  1  0  0  0  0
 46 54  1  0  0  0  0
 47 49  1  0  0  0  0
 47 52  1  0  0  0  0
 48 68  1  0  0  0  0
 49 66  1  0  0  0  0
 50 54  1  0  0  0  0
 50 68  1  0  0  0  0
 51 72  1  0  0  0  0
 52 60  1  0  0  0  0
 53 67  1  0  0  0  0
 54 65  1  0  0  0  0
 55 62  1  0  0  0  0
 56 63  1  0  0  0  0
 57 63  1  0  0  0  0
 58 63  1  0  0  0  0
 59 74  1  0  0  0  0
 60 82  1  0  0  0  0
 61 63  1  0  0  0  0
 61 73  1  0  0  0  0
 62 74  1  0  0  0  0
 64 65  1  0  0  0  0
M  CHG  1  74   1
M  ISO  4  39 100  60 101  71 100  82 101
M  END
> <Batch ID>
0071

> <Smiles>
CNC(C)C(=O)NC(C(=O)N1Cc2cc([101O:1][101CH2:1]C3CCN(c4cc([100NH:0][100C:0](=O)N5CCCC(n6nc(-c7ccc(Oc8ccc(F)cc8F)cc7)c(C(N)=O)c6N)C5)cc(F)c4F)C3=O)ccc2CC1C(=O)NC1CCCc2ccccc21)C(C)(C)C

> <Shape>
0.253

> <Color>
0.084

> <Negative vol penalty>
0.000

$$$$

  -OEChem-04042323353D

 86 95  0     1  0  0  0  0  0999 V2000
  -23.5635   -8.3832   21.8455 C   0  0  0  0  0  0  0  0  0  0  0  0
  -24.7108   -9.1624   21.7362 C   0  0  0  0  0  0  0  0  0  0  0  0
  -19.6185  -29.0376   21.9774 C   0  0  0  0  0  0  0  0  0  0  0  0
  -20.4708  -27.7931   23.8647 C   0  0  0  0  0  0  0  0  0  0  0  0
  -22.3869   -8.7846   21.2144 C   0  0  0  0  0  0  0  0  0  0  0  0
  -24.6824  -10.3430   20.9947 C   0  0  0  0  0  0  0  0  0  0  0  0
  -27.7533  -15.5079   22.1773 C   0  0  0  0  0  0  0  0  0  0  0  0
  -18.3460  -28.5148   22.2072 C   0  0  0  0  0  0  0  0  0  0  0  0
  -19.1982  -27.2703   24.0946 C   0  0  0  0  0  0  0  0  0  0  0  0
  -28.9426  -16.0292   21.6697 C   0  0  0  0  0  0  0  0  0  0  0  0
  -16.2512  -25.3274   24.9606 C   0  0  0  0  0  0  0  0  0  0  0  0
  -16.1495  -23.9618   25.2257 C   0  0  0  0  0  0  0  0  0  0  0  0
  -27.6832  -17.3533   20.0950 C   0  0  0  0  0  0  0  0  0  0  0  0
  -29.1568  -22.4167   23.5289 C   0  0  0  0  0  0  0  0  0  0  0  0
  -27.8897  -24.4591   23.7737 C   0  0  0  0  0  0  0  0  0  0  0  0
  -28.7868  -23.8454   21.6161 C   0  0  0  0  0  0  0  0  0  0  0  0
  -17.1320  -23.4709   23.0737 C   0  0  0  0  0  0  0  0  0  0  0  0
  -20.6810  -28.6768   22.8061 C   0  0  0  0  0  0  0  0  0  0  0  0
  -22.5387  -30.3995   23.1043 C   0  0  0  0  0  0  0  0  0  0  0  0
  -22.3414   -9.9756   20.4728 C   0  0  0  0  0  0  0  0  0  0  0  0
  -26.5185  -15.8979   21.6393 C   0  0  0  0  0  0  0  0  0  0  0  0
  -23.5044  -10.7600   20.3519 C   0  0  0  0  0  0  0  0  0  0  0  0
  -26.4796  -16.8375   20.5992 C   0  0  0  0  0  0  0  0  0  0  0  0
  -28.4354  -23.3021   24.3298 C   0  0  0  0  0  0  0  0  0  0  0  0
  -29.3326  -22.6884   22.1721 C   0  0  0  0  0  0  0  0  0  0  0  0
  -28.0654  -24.7308   22.4169 C   0  0  0  0  0  0  0  0  0  0  0  0
  -18.1358  -27.6311   23.2659 C   0  0  0  0  0  0  0  0  0  0  0  0
  -28.9079  -16.9498   20.6265 C   0  0  0  0  0  0  0  0  0  0  0  0
  -16.7932  -25.7648   23.7520 C   0  0  0  0  0  0  0  0  0  0  0  0
  -16.5899  -23.0335   24.2823 C   0  0  0  0  0  0  0  0  0  0  0  0
  -17.2336  -24.8365   22.8086 C   0  0  0  0  0  0  0  0  0  0  0  0
  -21.9959  -29.2161   22.5688 C   0  0  0  0  0  0  0  0  0  0  0  0
  -23.8052  -30.4656   22.5771 C   0  0  0  0  0  0  0  0  0  0  0  0
  -31.0820  -20.8286   19.5483 C   0  0  0  0  0  0  0  0  0  0  0  0
  -31.2840  -20.0428   20.6083 C   0  0  0  0  0  0  0  0  0  0  0  0
  -30.2854  -21.9846   20.0056 C   0  0  0  0  0  0  0  0  0  0  0  0
  -21.9506  -31.3536   23.9985 C   0  0  0  0  0  0  0  0  0  0  0  0
  -24.1420  -14.3943   20.1575 C   0  0  0  0  0  0  0  0  0  0  0  0
  -22.6866  -17.2838   20.3927 C   0  0  0  0  0  0  0  0  0  0  0  0
  -22.9980  -20.6666   20.7193 C   0  0  0  0  0  0  0  0  0  0  0  0
  -27.5938  -26.3256   20.5247 C   0  0  0  0  0  0  0  0  0  0  0  0
  -21.0593  -10.3442   19.7691 C   0  0  0  0  0  0  0  0  0  0  0  0
  -25.2433  -15.3465   22.2158 C   0  0  0  0  0  0  0  0  0  0  0  0
  -25.1788  -17.3041   20.0003 C   0  0  0  0  0  0  0  0  0  0  0  0
  -30.6585  -20.5798   21.8493 C   0  0  0  0  0  0  0  0  0  0  0  0
  -21.0118  -11.8001   19.3128 C   0  0  0  0  0  0  0  0  0  0  0  0
  -26.3364  -29.1354   18.7355 C   0  0  0  0  0  0  0  0  0  0  0  0
  -22.3150  -12.1852   18.6199 C   0  0  0  0  0  0  0  0  0  0  0  0
  -25.1336  -29.5864   19.5675 C   0  0  0  0  0  0  0  0  0  0  0  0
  -26.4756  -27.6142   18.7180 C   0  0  0  0  0  0  0  0  0  0  0  0
  -25.2965  -27.4286   20.8731 C   0  0  0  0  0  0  0  0  0  0  0  0
  -23.5066  -12.0598   19.5770 C   0  0  1  0  0  0  0  0  0  0  0  0
  -24.0667  -15.4255   21.2479 C   0  0  1  0  0  0  0  0  0  0  0  0
  -25.1531  -28.9560   20.9738 C   0  0  2  0  0  0  0  0  0  0  0  0
  -28.2489  -23.0118   25.7810 C   0  0  0  0  0  0  0  0  0  0  0  0
  -21.6316  -22.7677   20.8430 C   0  0  0  0  0  0  0  0  0  0  0  0
  -22.2145  -17.1511   17.3811 C   0  0  0  0  0  0  0  0  0  0  0  0
  -21.7339  -19.6079   17.4186 C   0  0  0  0  0  0  0  0  0  0  0  0
  -20.2836  -18.0355   18.7018 C   0  0  0  0  0  0  0  0  0  0  0  0
  -24.0075  -21.3017   23.4279 C   0  0  0  0  0  0  0  0  0  0  0  0
  -32.0401  -18.7553   20.6267 C   0  0  0  0  0  0  0  0  0  0  0  0
  -31.1661  -17.5760   21.0318 C   0  0  0  0  0  0  0  0  0  1  0  0
  -22.6221  -18.5216   19.5309 C   0  0  1  0  0  0  0  0  0  0  0  0
  -22.3044  -21.6581   21.6360 C   0  0  2  0  0  0  0  0  0  0  0  0
  -21.7383  -18.3190   18.2679 C   0  0  0  0  0  0  0  0  0  0  0  0
  -22.8478  -28.5766   21.7631 N   0  0  0  0  0  0  0  0  0  0  0  0
  -23.9387  -29.3610   21.7883 N   0  0  0  0  0  0  0  0  0  0  0  0
  -30.0514  -21.8062   21.3748 N   0  0  0  0  0  0  0  0  0  0  0  0
  -23.9594  -16.7313   20.5940 N   0  0  0  0  0  0  0  0  0  0  0  0
  -26.4911  -27.0881   20.0847 N   0  0  0  0  0  0  0  0  0  0  0  0
  -24.8065  -31.3603   22.7158 N   0  0  0  0  0  0  0  0  0  0  0  0
  -20.6401  -31.1328   24.4436 N   0  0  0  0  0  0  0  0  0  0  0  0
  -27.5121  -25.9067   21.8523 N   0  0  0  0  0  0  0  0  0  0  0  0
  -23.5494  -13.1888   20.4814 N   0  0  0  0  0  0  0  0  0  0  0  0
  -22.1785  -19.6036   20.4033 N   0  0  0  0  0  0  0  0  0  0  0  0
  -23.2882  -22.2771   22.5687 N   0  3  0  0  0  0  0  0  0  0  0  0
  -29.9278  -22.8954   19.2764 O   0  0  0  0  0  0  0  0  0  0  0  0
  -22.5631  -32.3804   24.3780 O   0  0  0  0  0  0  0  0  0  0  0  0
  -24.6953  -14.6725   19.1001 O   0  0  0  0  0  0  0  0  0  0  0  0
  -21.6469  -16.8282   20.8755 O   0  0  0  0  0  0  0  0  0  0  0  0
  -24.1501  -20.8215   20.3204 O   0  0  0  0  0  0  0  0  0  0  0  0
  -28.5534  -26.0867   19.7870 O   0  0  0  0  0  0  0  0  0  0  0  0
  -16.8941  -27.1209   23.4906 O   0  0  0  0  0  0  0  0  0  0  0  0
  -30.0673  -17.4597   20.1288 O   0  0  0  0  0  0  0  0  0  1  0  0
  -16.4936  -21.7221   24.5376 F   0  0  0  0  0  0  0  0  0  0  0  0
  -17.7563  -25.2507   21.6462 F   0  0  0  0  0  0  0  0  0  0  0  0
  1  2  1  0  0  0  0
  1  5  2  0  0  0  0
  2  6  2  0  0  0  0
  3  8  2  0  0  0  0
  3 18  1  0  0  0  0
  4  9  1  0  0  0  0
  4 18  2  0  0  0  0
  5 20  1  0  0  0  0
  6 22  1  0  0  0  0
  7 10  2  0  0  0  0
  7 21  1  0  0  0  0
  8 27  1  0  0  0  0
  9 27  2  0  0  0  0
 10 28  1  0  0  0  0
 11 12  2  0  0  0  0
 11 29  1  0  0  0  0
 12 30  1  0  0  0  0
 13 23  1  0  0  0  0
 13 28  2  0  0  0  0
 14 24  2  0  0  0  0
 14 25  1  0  0  0  0
 15 24  1  0  0  0  0
 15 26  2  0  0  0  0
 16 25  2  0  0  0  0
 16 26  1  0  0  0  0
 17 30  2  0  0  0  0
 17 31  1  0  0  0  0
 18 32  1  0  0  0  0
 19 32  1  0  0  0  0
 19 33  2  0  0  0  0
 19 37  1  0  0  0  0
 20 22  2  0  0  0  0
 20 42  1  0  0  0  0
 21 23  2  0  0  0  0
 21 43  1  0  0  0  0
 22 52  1  0  0  0  0
 23 44  1  0  0  0  0
 24 55  1  0  0  0  0
 25 68  1  0  0  0  0
 26 73  1  0  0  0  0
 27 83  1  0  0  0  0
 28 84  1  0  0  0  0
 29 31  2  0  0  0  0
 29 83  1  0  0  0  0
 30 85  1  0  0  0  0
 31 86  1  0  0  0  0
 32 66  2  0  0  0  0
 33 67  1  0  0  0  0
 33 71  1  0  0  0  0
 34 35  2  0  0  0  0
 34 36  1  0  0  0  0
 35 45  1  0  0  0  0
 35 61  1  0  0  0  0
 36 68  1  0  0  0  0
 36 77  2  0  0  0  0
 37 72  1  0  0  0  0
 37 78  2  0  0  0  0
 38 53  1  0  0  0  0
 38 74  1  0  0  0  0
 38 79  2  0  0  0  0
 39 63  1  0  0  0  0
 39 69  1  0  0  0  0
 39 80  2  0  0  0  0
 40 64  1  0  0  0  0
 40 75  1  0  0  0  0
 40 81  2  0  0  0  0
 41 70  1  0  0  0  0
 41 73  1  0  0  0  0
 41 82  2  0  0  0  0
 42 46  1  0  0  0  0
 43 53  1  0  0  0  0
 44 69  1  0  0  0  0
 45 68  1  0  0  0  0
 46 48  1  0  0  0  0
 47 49  1  0  0  0  0
 47 50  1  0  0  0  0
 48 52  1  0  0  0  0
 49 54  1  0  0  0  0
 50 70  1  0  0  0  0
 51 54  1  0  0  0  0
 51 70  1  0  0  0  0
 52 74  1  0  0  0  0
 53 69  1  0  0  0  0
 54 67  1  0  0  0  0
 56 64  1  0  0  0  0
 57 65  1  0  0  0  0
 58 65  1  0  0  0  0
 59 65  1  0  0  0  0
 60 76  1  0  0  0  0
 61 62  1  0  0  0  0
 62 84  1  0  0  0  0
 63 65  1  0  0  0  0
 63 75  1  0  0  0  0
 64 76  1  0  0  0  0
 66 67  1  0  0  0  0
M  CHG  1  76   1
M  ISO  4  41 100  62 101  73 100  84 101
M  END
> <Batch ID>
0071

> <Smiles>
CNC(C)C(=O)NC(C(=O)N1Cc2cc([101O:1][101CH2:1]C=C3CC(=O)N(c4cc(C)cc([100NH:0][100C:0](=O)N5CCCC(n6nc(-c7ccc(Oc8ccc(F)cc8F)cc7)c(C(N)=O)c6N)C5)c4)C3)ccc2CC1C(=O)NC1CCCc2ccccc21)C(C)(C)C

> <Shape>
0.217

> <Color>
0.088

> <Negative vol penalty>
0.000

$$$$

  -OEChem-04042323353D

 86 95  0     1  0  0  0  0  0999 V2000
  -30.7137  -20.2762   23.7756 C   0  0  0  0  0  0  0  0  0  0  0  0
  -29.3251  -20.3264   23.7268 C   0  0  0  0  0  0  0  0  0  0  0  0
  -24.2138  -29.0886   22.4856 C   0  0  0  0  0  0  0  0  0  0  0  0
  -25.4627  -30.7602   21.2678 C   0  0  0  0  0  0  0  0  0  0  0  0
  -31.3882  -19.1931   23.2161 C   0  0  0  0  0  0  0  0  0  0  0  0
  -28.6102  -19.2879   23.1292 C   0  0  0  0  0  0  0  0  0  0  0  0
  -23.7094  -19.4240   23.5377 C   0  0  0  0  0  0  0  0  0  0  0  0
  -25.0903  -19.8085   17.4431 C   0  0  0  0  0  0  0  0  0  0  0  0
  -26.3056  -19.3952   16.8972 C   0  0  0  0  0  0  0  0  0  0  0  0
  -23.5763  -30.0942   23.2122 C   0  0  0  0  0  0  0  0  0  0  0  0
  -24.8251  -31.7659   21.9943 C   0  0  0  0  0  0  0  0  0  0  0  0
  -22.9203  -20.3397   22.8430 C   0  0  0  0  0  0  0  0  0  0  0  0
  -23.7908  -34.7593   23.7773 C   0  0  0  0  0  0  0  0  0  0  0  0
  -24.5776  -35.7981   24.2748 C   0  0  0  0  0  0  0  0  0  0  0  0
  -26.2745  -20.9750   19.1964 C   0  0  0  0  0  0  0  0  0  0  0  0
  -22.2756  -18.6029   21.2980 C   0  0  0  0  0  0  0  0  0  0  0  0
  -25.8658  -34.2075   25.5584 C   0  0  0  0  0  0  0  0  0  0  0  0
  -25.1571  -29.4216   21.5135 C   0  0  0  0  0  0  0  0  0  0  0  0
  -27.4898  -20.5618   18.6505 C   0  0  0  0  0  0  0  0  0  0  0  0
  -25.3934  -27.8137   19.5471 C   0  0  0  0  0  0  0  0  0  0  0  0
  -30.6810  -18.1473   22.6005 C   0  0  0  0  0  0  0  0  0  0  0  0
  -23.7962  -18.0911   23.1106 C   0  0  0  0  0  0  0  0  0  0  0  0
  -29.2717  -18.1745   22.5801 C   0  0  0  0  0  0  0  0  0  0  0  0
  -23.0644  -17.6716   21.9905 C   0  0  0  0  0  0  0  0  0  0  0  0
  -25.0748  -20.5984   18.5927 C   0  0  0  0  0  0  0  0  0  0  0  0
  -27.5053  -19.7719   17.5009 C   0  0  0  0  0  0  0  0  0  0  0  0
  -23.8819  -31.4328   22.9665 C   0  0  0  0  0  0  0  0  0  0  0  0
  -22.2055  -19.9299   21.7213 C   0  0  0  0  0  0  0  0  0  0  0  0
  -24.0414  -33.4446   24.1705 C   0  0  0  0  0  0  0  0  0  0  0  0
  -25.6152  -35.5221   25.1653 C   0  0  0  0  0  0  0  0  0  0  0  0
  -25.0789  -33.1687   25.0610 C   0  0  0  0  0  0  0  0  0  0  0  0
  -25.8164  -28.3832   20.7630 C   0  0  0  0  0  0  0  0  0  0  0  0
  -26.3565  -26.8801   19.2517 C   0  0  0  0  0  0  0  0  0  0  0  0
  -23.5730  -21.7613   20.2169 C   0  0  0  0  0  0  0  0  0  0  0  0
  -28.7497  -20.9808   19.3167 C   0  0  0  0  0  0  0  0  0  0  0  0
  -24.2335  -28.1028   18.7554 C   0  0  0  0  0  0  0  0  0  0  0  0
  -26.1459  -16.2140   22.0815 C   0  0  0  0  0  0  0  0  0  0  0  0
  -23.8428  -13.9320   22.1848 C   0  0  0  0  0  0  0  0  0  0  0  0
  -20.5176  -13.1667   22.1203 C   0  0  0  0  0  0  0  0  0  0  0  0
  -29.7600  -22.7587   20.7103 C   0  0  0  0  0  0  0  0  0  0  0  0
  -31.4612  -16.9953   22.0178 C   0  0  0  0  0  0  0  0  0  0  0  0
  -24.6308  -17.1095   23.8867 C   0  0  0  0  0  0  0  0  0  0  0  0
  -23.1077  -16.2472   21.5031 C   0  0  0  0  0  0  0  0  0  0  0  0
  -30.6504  -16.1710   21.0230 C   0  0  0  0  0  0  0  0  0  0  0  0
  -30.8926  -26.0467   21.3455 C   0  0  0  0  0  0  0  0  0  0  0  0
  -29.3006  -15.8103   21.6251 C   0  0  0  0  0  0  0  0  0  0  0  0
  -29.6409  -26.9051   21.1434 C   0  0  0  0  0  0  0  0  0  0  0  0
  -30.5632  -24.7108   22.0103 C   0  0  0  0  0  0  0  0  0  0  0  0
  -28.2557  -24.7920   21.1576 C   0  0  0  0  0  0  0  0  0  0  0  0
  -22.5035  -20.6875   18.7580 C   0  0  0  0  0  0  0  0  0  0  0  0
  -28.4744  -17.0713   21.9082 C   0  0  1  0  0  0  0  0  0  0  0  0
  -25.0507  -15.8977   23.0603 C   0  0  1  0  0  0  0  0  0  0  0  0
  -28.5247  -26.1180   20.4278 C   0  0  1  0  0  0  0  0  0  0  0  0
  -22.0588  -21.5404   19.9775 C   0  0  2  0  0  0  0  0  0  1  0  0
  -21.2731  -22.8012   19.6632 C   0  0  0  0  0  0  0  0  0  0  0  0
  -18.9444  -11.2127   22.1848 C   0  0  0  0  0  0  0  0  0  0  0  0
  -24.5213  -13.2929   19.2794 C   0  0  0  0  0  0  0  0  0  0  0  0
  -22.3515  -12.0544   19.1181 C   0  0  0  0  0  0  0  0  0  0  0  0
  -24.1057  -11.2902   20.7185 C   0  0  0  0  0  0  0  0  0  0  0  0
  -19.2413  -14.1281   24.6114 C   0  0  0  0  0  0  0  0  0  0  0  0
  -22.8140  -13.4066   21.2129 C   0  0  1  0  0  0  0  0  0  0  0  0
  -19.6740  -12.2658   23.0042 C   0  0  2  0  0  0  0  0  0  0  0  0
  -23.4486  -12.5384   20.0900 C   0  0  0  0  0  0  0  0  0  0  0  0
  -26.9593  -27.8554   21.2096 N   0  0  0  0  0  0  0  0  0  0  0  0
  -27.2625  -26.9444   20.2692 N   0  0  0  0  0  0  0  0  0  0  0  0
  -23.8763  -21.0054   19.1302 N   0  0  0  0  0  0  0  0  0  0  0  0
  -23.9429  -15.3264   22.2917 N   0  0  0  0  0  0  0  0  0  0  0  0
  -29.5051  -24.0240   21.2673 N   0  0  0  0  0  0  0  0  0  0  0  0
  -28.7252  -19.3421   16.9326 N   0  0  0  0  0  0  0  0  0  0  0  0
  -26.5084  -26.0186   18.2235 N   0  0  0  0  0  0  0  0  0  0  0  0
  -23.3473  -29.0913   19.2047 N   0  0  0  0  0  0  0  0  0  0  0  0
  -28.6999  -22.2051   19.9837 N   0  0  0  0  0  0  0  0  0  0  0  0
  -27.2980  -16.7047   22.6656 N   0  0  0  0  0  0  0  0  0  0  0  0
  -21.8141  -12.7093   22.0143 N   0  0  0  0  0  0  0  0  0  0  0  0
  -18.6613  -13.0690   23.7460 N   0  3  0  0  0  0  0  0  0  0  0  0
  -24.2514  -22.3475   21.0295 O   0  0  0  0  0  0  0  0  0  0  0  0
  -29.7231  -20.2331   19.2795 O   0  0  0  0  0  0  0  0  0  0  0  0
  -23.9817  -27.4910   17.6897 O   0  0  0  0  0  0  0  0  0  0  0  0
  -25.9599  -16.0253   20.8850 O   0  0  0  0  0  0  0  0  0  0  0  0
  -24.5273  -13.1346   22.8307 O   0  0  0  0  0  0  0  0  0  0  0  0
  -20.0702  -14.1732   21.5752 O   0  0  0  0  0  0  0  0  0  0  0  0
  -30.8498  -22.1876   20.8179 O   0  0  0  0  0  0  0  0  0  0  0  0
  -23.2598  -32.4144   23.6751 O   0  0  0  0  0  0  0  0  0  0  0  0
  -21.4351  -20.8218   21.0410 O   0  0  0  0  0  0  0  0  0  1  0  0
  -26.3717  -36.5196   25.6417 F   0  0  0  0  0  0  0  0  0  0  0  0
  -25.3252  -31.9076   25.4414 F   0  0  0  0  0  0  0  0  0  0  0  0
  1  2  1  0  0  0  0
  1  5  2  0  0  0  0
  2  6  2  0  0  0  0
  3 10  2  0  0  0  0
  3 18  1  0  0  0  0
  4 11  1  0  0  0  0
  4 18  2  0  0  0  0
  5 21  1  0  0  0  0
  6 23  1  0  0  0  0
  7 12  2  0  0  0  0
  7 22  1  0  0  0  0
  8  9  2  0  0  0  0
  8 25  1  0  0  0  0
  9 26  1  0  0  0  0
 10 27  1  0  0  0  0
 11 27  2  0  0  0  0
 12 28  1  0  0  0  0
 13 14  2  0  0  0  0
 13 29  1  0  0  0  0
 14 30  1  0  0  0  0
 15 19  1  0  0  0  0
 15 25  2  0  0  0  0
 16 24  1  0  0  0  0
 16 28  2  0  0  0  0
 17 30  2  0  0  0  0
 17 31  1  0  0  0  0
 18 32  1  0  0  0  0
 19 26  2  0  0  0  0
 19 35  1  0  0  0  0
 20 32  1  0  0  0  0
 20 33  2  0  0  0  0
 20 36  1  0  0  0  0
 21 23  2  0  0  0  0
 21 41  1  0  0  0  0
 22 24  2  0  0  0  0
 22 42  1  0  0  0  0
 23 51  1  0  0  0  0
 24 43  1  0  0  0  0
 25 66  1  0  0  0  0
 26 69  1  0  0  0  0
 27 83  1  0  0  0  0
 28 84  1  0  0  0  0
 29 31  2  0  0  0  0
 29 83  1  0  0  0  0
 30 85  1  0  0  0  0
 31 86  1  0  0  0  0
 32 64  2  0  0  0  0
 33 65  1  0  0  0  0
 33 70  1  0  0  0  0
 34 54  1  0  0  0  0
 34 66  1  0  0  0  0
 34 76  2  0  0  0  0
 35 72  1  0  0  0  0
 35 77  2  0  0  0  0
 36 71  1  0  0  0  0
 36 78  2  0  0  0  0
 37 52  1  0  0  0  0
 37 73  1  0  0  0  0
 37 79  2  0  0  0  0
 38 61  1  0  0  0  0
 38 67  1  0  0  0  0
 38 80  2  0  0  0  0
 39 62  1  0  0  0  0
 39 74  1  0  0  0  0
 39 81  2  0  0  0  0
 40 68  1  0  0  0  0
 40 72  1  0  0  0  0
 40 82  2  0  0  0  0
 41 44  1  0  0  0  0
 42 52  1  0  0  0  0
 43 67  1  0  0  0  0
 44 46  1  0  0  0  0
 45 47  1  0  0  0  0
 45 48  1  0  0  0  0
 46 51  1  0  0  0  0
 47 53  1  0  0  0  0
 48 68  1  0  0  0  0
 49 53  1  0  0  0  0
 49 68  1  0  0  0  0
 50 54  1  0  0  0  0
 50 66  1  0  0  0  0
 51 73  1  0  0  0  0
 52 67  1  0  0  0  0
 53 65  1  0  0  0  0
 54 55  1  0  0  0  0
 54 84  1  0  0  0  0
 56 62  1  0  0  0  0
 57 63  1  0  0  0  0
 58 63  1  0  0  0  0
 59 63  1  0  0  0  0
 60 75  1  0  0  0  0
 61 63  1  0  0  0  0
 61 74  1  0  0  0  0
 62 75  1  0  0  0  0
 64 65  1  0  0  0  0
M  CHG  1  75   1
M  ISO  4  40 100  54 101  72 100  84 101
M  END
> <Batch ID>
0071

> <Smiles>
CNC(C)C(=O)NC(C(=O)N1Cc2cc([101O:1][101C:1]3(C)CN(c4ccc(N)c(C(=O)[100NH:0][100C:0](=O)N5CCCC(n6nc(-c7ccc(Oc8ccc(F)cc8F)cc7)c(C(N)=O)c6N)C5)c4)C3=O)ccc2CC1C(=O)NC1CCCc2ccccc21)C(C)(C)C

> <Shape>
0.225

> <Color>
0.061

> <Negative vol penalty>
0.000

$$$$

  -OEChem-04042323353D

 91100  0     1  0  0  0  0  0999 V2000
  -24.2630  -36.3613   16.1582 C   0  0  0  0  0  0  0  0  0  0  0  0
  -24.8455  -35.0986   16.1173 C   0  0  0  0  0  0  0  0  0  0  0  0
  -24.5118   -8.6953   20.1695 C   0  0  0  0  0  0  0  0  0  0  0  0
  -22.9448  -10.3748   20.9185 C   0  0  0  0  0  0  0  0  0  0  0  0
  -24.2165  -37.0676   17.3594 C   0  0  0  0  0  0  0  0  0  0  0  0
  -25.3828  -34.5419   17.2774 C   0  0  0  0  0  0  0  0  0  0  0  0
  -25.4013  -28.6242   18.8543 C   0  0  0  0  0  0  0  0  0  0  0  0
  -23.7469   -7.7060   20.7873 C   0  0  0  0  0  0  0  0  0  0  0  0
  -22.1798   -9.3855   21.5363 C   0  0  0  0  0  0  0  0  0  0  0  0
  -26.3728  -27.6295   18.7527 C   0  0  0  0  0  0  0  0  0  0  0  0
  -20.9068   -5.9879   20.1432 C   0  0  0  0  0  0  0  0  0  0  0  0
  -20.6550   -4.8195   19.4241 C   0  0  0  0  0  0  0  0  0  0  0  0
  -27.0351  -28.0519   21.0336 C   0  0  0  0  0  0  0  0  0  0  0  0
  -27.8660  -19.7061   19.6252 C   0  0  0  0  0  0  0  0  0  0  0  0
  -26.6406  -21.3311   18.3234 C   0  0  0  0  0  0  0  0  0  0  0  0
  -21.7605   -3.5257   21.1390 C   0  0  0  0  0  0  0  0  0  0  0  0
  -24.1108  -10.0297   20.2351 C   0  0  0  0  0  0  0  0  0  0  0  0
  -24.7752  -11.5241   18.2773 C   0  0  0  0  0  0  0  0  0  0  0  0
  -24.7448  -36.5153   18.5369 C   0  0  0  0  0  0  0  0  0  0  0  0
  -25.2464  -29.3489   20.0448 C   0  0  0  0  0  0  0  0  0  0  0  0
  -25.3445  -35.2421   18.4952 C   0  0  0  0  0  0  0  0  0  0  0  0
  -26.0591  -29.0535   21.1485 C   0  0  0  0  0  0  0  0  0  0  0  0
  -26.3897  -18.9735   17.8586 C   0  0  0  0  0  0  0  0  0  0  0  0
  -27.5412  -21.0336   19.3462 C   0  0  0  0  0  0  0  0  0  0  0  0
  -27.2903  -18.6760   18.8814 C   0  0  0  0  0  0  0  0  0  0  0  0
  -22.5808   -8.0511   21.4706 C   0  0  0  0  0  0  0  0  0  0  0  0
  -27.1919  -27.3451   19.8415 C   0  0  0  0  0  0  0  0  0  0  0  0
  -21.5855   -5.9252   21.3602 C   0  0  0  0  0  0  0  0  0  0  0  0
  -21.0818   -3.5885   19.9220 C   0  0  0  0  0  0  0  0  0  0  0  0
  -26.0648  -20.3010   17.5796 C   0  0  0  0  0  0  0  0  0  0  0  0
  -22.0123   -4.6941   21.8582 C   0  0  0  0  0  0  0  0  0  0  0  0
  -24.9009  -11.0522   19.5976 C   0  0  0  0  0  0  0  0  0  0  0  0
  -25.7493  -12.4855   18.1620 C   0  0  0  0  0  0  0  0  0  0  0  0
  -29.0522  -21.9481   21.1662 C   0  0  0  0  0  0  0  0  0  0  0  0
  -23.8597  -11.1287   17.2471 C   0  0  0  0  0  0  0  0  0  0  0  0
  -25.5227  -32.4087   20.8602 C   0  0  0  0  0  0  0  0  0  0  0  0
  -24.3820  -31.3499   23.7063 C   0  0  0  0  0  0  0  0  0  0  0  0
  -23.9691  -28.7471   25.8746 C   0  0  0  0  0  0  0  0  0  0  0  0
  -28.5115  -16.8855   20.1654 C   0  0  0  0  0  0  0  0  0  0  0  0
  -24.7137  -37.3364   19.8015 C   0  0  0  0  0  0  0  0  0  0  0  0
  -24.1758  -30.4005   20.1468 C   0  0  0  0  0  0  0  0  0  0  0  0
  -25.9195  -29.7888   22.4555 C   0  0  0  0  0  0  0  0  0  0  0  0
  -24.9701  -36.5190   21.0650 C   0  0  0  0  0  0  0  0  0  0  0  0
  -29.5918  -13.6668   21.2380 C   0  0  0  0  0  0  0  0  0  0  0  0
  -26.1694  -35.5968   20.8699 C   0  0  0  0  0  0  0  0  0  0  0  0
  -28.4574  -12.7385   20.7982 C   0  0  0  0  0  0  0  0  0  0  0  0
  -29.0655  -15.0206   21.7114 C   0  0  0  0  0  0  0  0  0  0  0  0
  -27.7847  -23.4800   19.8871 C   0  0  0  0  0  0  0  0  0  0  0  0
  -27.0439  -14.7792   20.3244 C   0  0  0  0  0  0  0  0  0  0  0  0
  -25.9159  -34.5942   19.7377 C   0  0  1  0  0  0  0  0  0  0  0  0
  -24.4499  -31.4280   21.2407 C   0  0  1  0  0  0  0  0  0  0  0  0
  -28.8958  -24.2551   20.5845 C   0  0  2  0  0  0  0  0  0  0  0  0
  -27.5294  -13.4267   19.7780 C   0  0  2  0  0  0  0  0  0  0  0  0
  -29.2806  -23.3394   21.7637 C   0  0  0  0  0  0  0  0  0  0  0  0
  -28.3735  -23.4828   22.9939 C   0  0  0  0  0  0  0  0  0  0  0  0
  -30.7434  -23.5267   22.1701 C   0  0  0  0  0  0  0  0  0  0  0  0
  -23.0329  -28.1976   28.1371 C   0  0  0  0  0  0  0  0  0  0  0  0
  -26.7964  -32.6711   25.0235 C   0  0  0  0  0  0  0  0  0  0  0  0
  -26.3317  -31.3140   27.0755 C   0  0  0  0  0  0  0  0  0  0  0  0
  -24.6435  -32.9608   26.2626 C   0  0  0  0  0  0  0  0  0  0  0  0
  -22.0361  -26.8177   24.7344 C   0  0  0  0  0  0  0  0  0  0  0  0
  -28.4787  -25.6748   20.9416 C   0  0  0  0  0  0  0  0  0  1  0  0
  -25.0022  -30.8151   24.9744 C   0  0  1  0  0  0  0  0  0  0  0  0
  -22.7543  -28.2595   26.6434 C   0  0  2  0  0  0  0  0  0  0  0  0
  -25.7584  -17.8878   17.0485 C   0  0  0  0  0  0  0  0  0  0  0  0
  -25.6976  -31.9275   25.8089 C   0  0  0  0  0  0  0  0  0  0  0  0
  -25.8779  -11.6634   20.2728 N   0  0  0  0  0  0  0  0  0  0  0  0
  -26.3751  -12.5292   19.3731 N   0  0  0  0  0  0  0  0  0  0  0  0
  -28.1307  -22.0880   20.1075 N   0  0  0  0  0  0  0  0  0  0  0  0
  -24.8625  -30.8125   22.5037 N   0  0  0  0  0  0  0  0  0  0  0  0
  -28.1977  -15.6148   20.6923 N   0  0  0  0  0  0  0  0  0  0  0  0
  -26.1231  -13.2894   17.1439 N   0  0  0  0  0  0  0  0  0  0  0  0
  -22.9234  -10.1261   17.5340 N   0  0  0  0  0  0  0  0  0  0  0  0
  -27.6330  -17.3339   19.1797 N   0  0  0  0  0  0  0  0  0  0  0  0
  -25.0541  -33.5246   20.1933 N   0  0  0  0  0  0  0  0  0  0  0  0
  -23.9388  -30.1124   25.6841 N   0  0  0  0  0  0  0  0  0  0  0  0
  -22.3613  -26.8981   26.1817 N   0  3  0  0  0  0  0  0  0  0  0  0
  -29.5640  -20.9347   21.6220 O   0  0  0  0  0  0  0  0  0  0  0  0
  -23.8824  -11.6376   16.1008 O   0  0  0  0  0  0  0  0  0  0  0  0
  -26.6891  -32.1714   21.1515 O   0  0  0  0  0  0  0  0  0  0  0  0
  -23.4985  -32.2076   23.7802 O   0  0  0  0  0  0  0  0  0  0  0  0
  -24.8579  -27.9928   25.4854 O   0  0  0  0  0  0  0  0  0  0  0  0
  -29.5031  -17.5166   20.5402 O   0  0  0  0  0  0  0  0  0  0  0  0
  -21.8340   -7.0859   22.0734 O   0  0  0  0  0  0  0  0  0  0  0  0
  -28.1414  -26.3751   19.7449 O   0  0  0  0  0  0  0  0  0  1  0  0
  -20.8386   -2.4664   19.2321 F   0  0  0  0  0  0  0  0  0  0  0  0
  -25.1993  -20.5975   16.5999 F   0  0  0  0  0  0  0  0  0  0  0  0
  -22.6638   -4.6275   23.0273 F   0  0  0  0  0  0  0  0  0  0  0  0
  -26.1535  -16.6343   17.4163 F   0  0  0  0  0  0  0  0  0  0  0  0
  -24.3961  -17.8723   17.1279 F   0  0  0  0  0  0  0  0  0  0  0  0
  -26.0493  -17.9912   15.7202 F   0  0  0  0  0  0  0  0  0  0  0  0
  1  2  1  0  0  0  0
  1  5  2  0  0  0  0
  2  6  2  0  0  0  0
  3  8  2  0  0  0  0
  3 17  1  0  0  0  0
  4  9  1  0  0  0  0
  4 17  2  0  0  0  0
  5 19  1  0  0  0  0
  6 21  1  0  0  0  0
  7 10  2  0  0  0  0
  7 20  1  0  0  0  0
  8 26  1  0  0  0  0
  9 26  2  0  0  0  0
 10 27  1  0  0  0  0
 11 12  2  0  0  0  0
 11 28  1  0  0  0  0
 12 29  1  0  0  0  0
 13 22  1  0  0  0  0
 13 27  2  0  0  0  0
 14 24  2  0  0  0  0
 14 25  1  0  0  0  0
 15 24  1  0  0  0  0
 15 30  2  0  0  0  0
 16 29  2  0  0  0  0
 16 31  1  0  0  0  0
 17 32  1  0  0  0  0
 18 32  1  0  0  0  0
 18 33  2  0  0  0  0
 18 35  1  0  0  0  0
 19 21  2  0  0  0  0
 19 40  1  0  0  0  0
 20 22  2  0  0  0  0
 20 41  1  0  0  0  0
 21 50  1  0  0  0  0
 22 42  1  0  0  0  0
 23 25  2  0  0  0  0
 23 30  1  0  0  0  0
 23 65  1  0  0  0  0
 24 69  1  0  0  0  0
 25 74  1  0  0  0  0
 26 84  1  0  0  0  0
 27 85  1  0  0  0  0
 28 31  2  0  0  0  0
 28 84  1  0  0  0  0
 29 86  1  0  0  0  0
 30 87  1  0  0  0  0
 31 88  1  0  0  0  0
 32 67  2  0  0  0  0
 33 68  1  0  0  0  0
 33 72  1  0  0  0  0
 34 54  1  0  0  0  0
 34 69  1  0  0  0  0
 34 78  2  0  0  0  0
 35 73  1  0  0  0  0
 35 79  2  0  0  0  0
 36 51  1  0  0  0  0
 36 75  1  0  0  0  0
 36 80  2  0  0  0  0
 37 63  1  0  0  0  0
 37 70  1  0  0  0  0
 37 81  2  0  0  0  0
 38 64  1  0  0  0  0
 38 76  1  0  0  0  0
 38 82  2  0  0  0  0
 39 71  1  0  0  0  0
 39 74  1  0  0  0  0
 39 83  2  0  0  0  0
 40 43  1  0  0  0  0
 41 51  1  0  0  0  0
 42 70  1  0  0  0  0
 43 45  1  0  0  0  0
 44 46  1  0  0  0  0
 44 47  1  0  0  0  0
 45 50  1  0  0  0  0
 46 53  1  0  0  0  0
 47 71  1  0  0  0  0
 48 52  1  0  0  0  0
 48 69  1  0  0  0  0
 49 53  1  0  0  0  0
 49 71  1  0  0  0  0
 50 75  1  0  0  0  0
 51 70  1  0  0  0  0
 52 54  1  0  0  0  0
 52 62  1  0  0  0  0
 53 68  1  0  0  0  0
 54 55  1  0  0  0  0
 54 56  1  0  0  0  0
 57 64  1  0  0  0  0
 58 66  1  0  0  0  0
 59 66  1  0  0  0  0
 60 66  1  0  0  0  0
 61 77  1  0  0  0  0
 62 85  1  0  0  0  0
 63 66  1  0  0  0  0
 63 76  1  0  0  0  0
 64 77  1  0  0  0  0
 65 89  1  0  0  0  0
 65 90  1  0  0  0  0
 65 91  1  0  0  0  0
 67 68  1  0  0  0  0
M  CHG  1  77   1
M  ISO  4  39 100  62 101  74 100  85 101
M  END
> <Batch ID>
0071

> <Smiles>
CNC(C)C(=O)NC(C(=O)N1Cc2cc([101O:1][101CH2:1]C3CN(c4cc(F)c(C(F)(F)F)c([100NH:0][100C:0](=O)N5CCCC(n6nc(-c7ccc(Oc8ccc(F)cc8F)cc7)c(C(N)=O)c6N)C5)c4)C(=O)C3(C)C)ccc2CC1C(=O)NC1CCCc2ccccc21)C(C)(C)C

> <Shape>
0.255

> <Color>
0.129

> <Negative vol penalty>
0.000

$$$$

  -OEChem-04042323353D

 85 93  0     1  0  0  0  0  0999 V2000
  -24.6071  -36.0748   15.5212 C   0  0  0  0  0  0  0  0  0  0  0  0
  -25.1223  -34.7868   15.6255 C   0  0  0  0  0  0  0  0  0  0  0  0
  -24.5695  -10.1725   22.7942 C   0  0  0  0  0  0  0  0  0  0  0  0
  -24.5670  -11.8427   24.5399 C   0  0  0  0  0  0  0  0  0  0  0  0
  -29.9303  -21.5326   20.7290 C   0  0  0  0  0  0  0  0  0  0  0  0
  -24.5790  -36.9059   16.6404 C   0  0  0  0  0  0  0  0  0  0  0  0
  -25.6107  -34.3293   16.8488 C   0  0  0  0  0  0  0  0  0  0  0  0
  -25.2897  -28.6188   19.0380 C   0  0  0  0  0  0  0  0  0  0  0  0
  -29.9114  -20.1432   20.6076 C   0  0  0  0  0  0  0  0  0  0  0  0
  -24.1671   -9.2072   23.7171 C   0  0  0  0  0  0  0  0  0  0  0  0
  -24.1646  -10.8773   25.4629 C   0  0  0  0  0  0  0  0  0  0  0  0
  -26.2086  -27.5705   19.0622 C   0  0  0  0  0  0  0  0  0  0  0  0
  -21.3005   -9.3123   26.3392 C   0  0  0  0  0  0  0  0  0  0  0  0
  -20.2757   -9.6502   27.2230 C   0  0  0  0  0  0  0  0  0  0  0  0
  -27.5214  -21.5810   20.5507 C   0  0  0  0  0  0  0  0  0  0  0  0
  -26.8559  -28.1976   21.2998 C   0  0  0  0  0  0  0  0  0  0  0  0
  -21.7603   -9.2684   29.0905 C   0  0  0  0  0  0  0  0  0  0  0  0
  -24.7694  -11.4903   23.2056 C   0  0  0  0  0  0  0  0  0  0  0  0
  -28.7353  -22.2516   20.7006 C   0  0  0  0  0  0  0  0  0  0  0  0
  -24.3568  -13.3096   21.4656 C   0  0  0  0  0  0  0  0  0  0  0  0
  -25.0585  -36.4550   17.8803 C   0  0  0  0  0  0  0  0  0  0  0  0
  -25.1546  -29.4725   20.1422 C   0  0  0  0  0  0  0  0  0  0  0  0
  -25.5902  -35.1556   17.9853 C   0  0  0  0  0  0  0  0  0  0  0  0
  -25.9328  -29.2544   21.2880 C   0  0  0  0  0  0  0  0  0  0  0  0
  -28.6975  -19.4727   20.4577 C   0  0  0  0  0  0  0  0  0  0  0  0
  -27.5025  -20.1916   20.4292 C   0  0  0  0  0  0  0  0  0  0  0  0
  -23.9647   -9.5596   25.0515 C   0  0  0  0  0  0  0  0  0  0  0  0
  -26.9939  -27.3615   20.1921 C   0  0  0  0  0  0  0  0  0  0  0  0
  -22.5552   -8.9524   26.8310 C   0  0  0  0  0  0  0  0  0  0  0  0
  -20.5055   -9.6283   28.5987 C   0  0  0  0  0  0  0  0  0  0  0  0
  -22.7851   -8.9305   28.2067 C   0  0  0  0  0  0  0  0  0  0  0  0
  -25.1856  -12.4878   22.2528 C   0  0  0  0  0  0  0  0  0  0  0  0
  -25.2297  -14.0771   20.7338 C   0  0  0  0  0  0  0  0  0  0  0  0
  -28.7559  -23.7247   20.8296 C   0  0  0  0  0  0  0  0  0  0  0  0
  -22.9259  -13.3736   21.4018 C   0  0  0  0  0  0  0  0  0  0  0  0
  -25.5800  -32.5832   20.6379 C   0  0  0  0  0  0  0  0  0  0  0  0
  -24.3395  -31.8915   23.5542 C   0  0  0  0  0  0  0  0  0  0  0  0
  -30.1742  -25.7201   20.4434 C   0  0  0  0  0  0  0  0  0  0  0  0
  -23.7545  -29.5575   25.9743 C   0  0  0  0  0  0  0  0  0  0  0  0
  -29.8125  -17.2162   20.3502 C   0  0  0  0  0  0  0  0  0  0  0  0
  -25.0508  -37.4060   19.0509 C   0  0  0  0  0  0  0  0  0  0  0  0
  -24.1399  -30.5823   20.1104 C   0  0  0  0  0  0  0  0  0  0  0  0
  -25.8117  -30.1302   22.5074 C   0  0  0  0  0  0  0  0  0  0  0  0
  -25.2434  -36.7150   20.3984 C   0  0  0  0  0  0  0  0  0  0  0  0
  -30.2391  -13.6889   20.1194 C   0  0  0  0  0  0  0  0  0  0  0  0
  -26.3949  -35.7171   20.3269 C   0  0  0  0  0  0  0  0  0  0  0  0
  -28.8942  -13.1296   20.5891 C   0  0  0  0  0  0  0  0  0  0  0  0
  -30.6382  -14.9385   20.9024 C   0  0  0  0  0  0  0  0  0  0  0  0
  -28.2795  -15.4410   21.4057 C   0  0  0  0  0  0  0  0  0  0  0  0
  -26.1066  -34.6145   19.3009 C   0  0  1  0  0  0  0  0  0  0  0  0
  -24.4507  -31.7045   21.0961 C   0  0  1  0  0  0  0  0  0  0  0  0
  -27.8043  -14.2193   20.6023 C   0  0  2  0  0  0  0  0  0  0  0  0
  -22.7546  -29.2992   28.2614 C   0  0  0  0  0  0  0  0  0  0  0  0
  -26.7994  -33.2195   24.7770 C   0  0  0  0  0  0  0  0  0  0  0  0
  -26.2307  -32.1129   26.9496 C   0  0  0  0  0  0  0  0  0  0  0  0
  -24.6455  -33.7485   25.9324 C   0  0  0  0  0  0  0  0  0  0  0  0
  -32.4709  -25.6958   19.4613 C   0  0  0  0  0  0  0  0  0  0  0  0
  -21.7401  -27.6196   25.0016 C   0  0  0  0  0  0  0  0  0  0  0  0
  -29.0633  -26.5241   21.0121 C   0  0  0  0  0  0  0  0  0  1  0  0
  -24.9102  -31.4630   24.8845 C   0  0  1  0  0  0  0  0  0  0  0  0
  -22.5034  -29.2168   26.7637 C   0  0  2  0  0  0  0  0  0  0  0  0
  -25.6503  -32.6205   25.6123 C   0  0  0  0  0  0  0  0  0  0  0  0
  -26.4851  -12.7120   22.0408 N   0  0  0  0  0  0  0  0  0  0  0  0
  -26.4796  -13.6834   21.1121 N   0  0  0  0  0  0  0  0  0  0  0  0
  -24.8099  -31.2059   22.4253 N   0  0  0  0  0  0  0  0  0  0  0  0
  -29.5593  -15.9282   20.8674 N   0  0  0  0  0  0  0  0  0  0  0  0
  -26.2612  -19.5333   20.2794 N   0  0  0  0  0  0  0  0  0  0  0  0
  -25.0424  -15.0435   19.8100 N   0  0  0  0  0  0  0  0  0  0  0  0
  -22.1815  -12.5145   22.2216 N   0  0  0  0  0  0  0  0  0  0  0  0
  -28.7030  -18.0608   20.3376 N   0  0  0  0  0  0  0  0  0  0  0  0
  -29.9543  -24.4005   20.3897 N   0  0  0  0  0  0  0  0  0  0  0  0
  -25.1820  -33.6447   19.8477 N   0  0  0  0  0  0  0  0  0  0  0  0
  -23.7998  -30.8947   25.6410 N   0  0  0  0  0  0  0  0  0  0  0  0
  -31.2880  -26.3387   20.0417 N   0  3  0  0  0  0  0  0  0  0  0  0
  -22.0460  -27.8361   26.4392 N   0  3  0  0  0  0  0  0  0  0  0  0
  -27.8159  -24.3458   21.3042 O   0  0  0  0  0  0  0  0  0  0  0  0
  -22.3253  -14.1576   20.6283 O   0  0  0  0  0  0  0  0  0  0  0  0
  -26.7274  -32.3188   20.9774 O   0  0  0  0  0  0  0  0  0  0  0  0
  -23.5017  -32.7962   23.5188 O   0  0  0  0  0  0  0  0  0  0  0  0
  -24.6081  -28.7217   25.6855 O   0  0  0  0  0  0  0  0  0  0  0  0
  -30.9245  -17.5369   19.9228 O   0  0  0  0  0  0  0  0  0  0  0  0
  -23.5719   -8.6179   25.9523 O   0  0  0  0  0  0  0  0  0  0  0  0
  -27.8920  -26.3395   20.2181 O   0  0  0  0  0  0  0  0  0  1  0  0
  -19.5217   -9.9544   29.4472 F   0  0  0  0  0  0  0  0  0  0  0  0
  -23.9887   -8.5867   28.6850 F   0  0  0  0  0  0  0  0  0  0  0  0
  1  2  1  0  0  0  0
  1  6  2  0  0  0  0
  2  7  2  0  0  0  0
  3 10  2  0  0  0  0
  3 18  1  0  0  0  0
  4 11  1  0  0  0  0
  4 18  2  0  0  0  0
  5  9  2  0  0  0  0
  5 19  1  0  0  0  0
  6 21  1  0  0  0  0
  7 23  1  0  0  0  0
  8 12  2  0  0  0  0
  8 22  1  0  0  0  0
  9 25  1  0  0  0  0
 10 27  1  0  0  0  0
 11 27  2  0  0  0  0
 12 28  1  0  0  0  0
 13 14  2  0  0  0  0
 13 29  1  0  0  0  0
 14 30  1  0  0  0  0
 15 19  2  0  0  0  0
 15 26  1  0  0  0  0
 16 24  1  0  0  0  0
 16 28  2  0  0  0  0
 17 30  2  0  0  0  0
 17 31  1  0  0  0  0
 18 32  1  0  0  0  0
 19 34  1  0  0  0  0
 20 32  1  0  0  0  0
 20 33  2  0  0  0  0
 20 35  1  0  0  0  0
 21 23  2  0  0  0  0
 21 41  1  0  0  0  0
 22 24  2  0  0  0  0
 22 42  1  0  0  0  0
 23 50  1  0  0  0  0
 24 43  1  0  0  0  0
 25 26  2  0  0  0  0
 25 70  1  0  0  0  0
 26 67  1  0  0  0  0
 27 82  1  0  0  0  0
 28 83  1  0  0  0  0
 29 31  2  0  0  0  0
 29 82  1  0  0  0  0
 30 84  1  0  0  0  0
 31 85  1  0  0  0  0
 32 63  2  0  0  0  0
 33 64  1  0  0  0  0
 33 68  1  0  0  0  0
 34 71  1  0  0  0  0
 34 76  2  0  0  0  0
 35 69  1  0  0  0  0
 35 77  2  0  0  0  0
 36 51  1  0  0  0  0
 36 72  1  0  0  0  0
 36 78  2  0  0  0  0
 37 60  1  0  0  0  0
 37 65  1  0  0  0  0
 37 79  2  0  0  0  0
 38 59  1  0  0  0  0
 38 71  1  0  0  0  0
 38 74  2  0  0  0  0
 39 61  1  0  0  0  0
 39 73  1  0  0  0  0
 39 80  2  0  0  0  0
 40 66  1  0  0  0  0
 40 70  1  0  0  0  0
 40 81  2  0  0  0  0
 41 44  1  0  0  0  0
 42 51  1  0  0  0  0
 43 65  1  0  0  0  0
 44 46  1  0  0  0  0
 45 47  1  0  0  0  0
 45 48  1  0  0  0  0
 46 50  1  0  0  0  0
 47 52  1  0  0  0  0
 48 66  1  0  0  0  0
 49 52  1  0  0  0  0
 49 66  1  0  0  0  0
 50 72  1  0  0  0  0
 51 65  1  0  0  0  0
 52 64  1  0  0  0  0
 53 61  1  0  0  0  0
 54 62  1  0  0  0  0
 55 62  1  0  0  0  0
 56 62  1  0  0  0  0
 57 74  1  0  0  0  0
 58 75  1  0  0  0  0
 59 83  1  0  0  0  0
 60 62  1  0  0  0  0
 60 73  1  0  0  0  0
 61 75  1  0  0  0  0
 63 64  1  0  0  0  0
M  CHG  2  74   1  75   1
M  ISO  4  40 100  59 101  70 100  83 101
M  END
> <Batch ID>
0071

> <Smiles>
CN=C(NC(=O)c1ccc([100NH:0][100C:0](=O)N2CCCC(n3nc(-c4ccc(Oc5ccc(F)cc5F)cc4)c(C(N)=O)c3N)C2)c(N)c1)[101CH2:1][101O:1]c1ccc2c(c1)CN(C(=O)C(NC(=O)C(C)NC)C(C)(C)C)C(C(=O)NC1CCCc3ccccc31)C2

> <Shape>
0.262

> <Color>
0.134

> <Negative vol penalty>
0.000

$$$$

  -OEChem-04042323353D

 87 96  0     1  0  0  0  0  0999 V2000
  -30.5217  -31.2364   22.3381 C   0  0  0  0  0  0  0  0  0  0  0  0
  -30.6137  -29.9528   22.8666 C   0  0  0  0  0  0  0  0  0  0  0  0
  -23.0724   -9.8808   19.9357 C   0  0  0  0  0  0  0  0  0  0  0  0
  -23.8346   -9.8752   22.2283 C   0  0  0  0  0  0  0  0  0  0  0  0
  -29.9026  -31.4387   21.1053 C   0  0  0  0  0  0  0  0  0  0  0  0
  -30.0856  -28.8708   22.1631 C   0  0  0  0  0  0  0  0  0  0  0  0
  -33.2155  -24.8906   22.0847 C   0  0  0  0  0  0  0  0  0  0  0  0
  -32.6921  -17.4413   23.4516 C   0  0  0  0  0  0  0  0  0  0  0  0
  -32.0793  -16.5716   22.5495 C   0  0  0  0  0  0  0  0  0  0  0  0
  -22.3261   -8.7282   20.1810 C   0  0  0  0  0  0  0  0  0  0  0  0
  -23.0884   -8.7226   22.4737 C   0  0  0  0  0  0  0  0  0  0  0  0
  -33.2750  -24.1046   23.2347 C   0  0  0  0  0  0  0  0  0  0  0  0
  -19.8590   -7.9293   23.0758 C   0  0  0  0  0  0  0  0  0  0  0  0
  -19.1032   -7.8856   24.2473 C   0  0  0  0  0  0  0  0  0  0  0  0
  -31.8007  -22.4968   22.2047 C   0  0  0  0  0  0  0  0  0  0  0  0
  -30.5291  -18.3188   24.0749 C   0  0  0  0  0  0  0  0  0  0  0  0
  -20.3410   -5.9419   24.9733 C   0  0  0  0  0  0  0  0  0  0  0  0
  -23.8267  -10.4543   20.9594 C   0  0  0  0  0  0  0  0  0  0  0  0
  -24.1741  -12.9792   20.8509 C   0  0  0  0  0  0  0  0  0  0  0  0
  -29.3752  -30.3574   20.3818 C   0  0  0  0  0  0  0  0  0  0  0  0
  -32.4382  -24.4902   20.9884 C   0  0  0  0  0  0  0  0  0  0  0  0
  -29.4577  -29.0590   20.9201 C   0  0  0  0  0  0  0  0  0  0  0  0
  -31.7351  -23.2782   21.0411 C   0  0  0  0  0  0  0  0  0  0  0  0
  -31.9169  -18.3149   24.2144 C   0  0  0  0  0  0  0  0  0  0  0  0
  -30.6915  -16.5755   22.4101 C   0  0  0  0  0  0  0  0  0  0  0  0
  -29.9163  -17.4491   23.1728 C   0  0  0  0  0  0  0  0  0  0  0  0
  -22.3341   -8.1491   21.4500 C   0  0  0  0  0  0  0  0  0  0  0  0
  -32.5652  -22.9089   23.2959 C   0  0  0  0  0  0  0  0  0  0  0  0
  -20.8558   -6.9793   22.8530 C   0  0  0  0  0  0  0  0  0  0  0  0
  -19.3442   -6.8919   25.1961 C   0  0  0  0  0  0  0  0  0  0  0  0
  -21.0968   -5.9856   23.8018 C   0  0  0  0  0  0  0  0  0  0  0  0
  -24.5982  -11.6446   20.7064 C   0  0  0  0  0  0  0  0  0  0  0  0
  -25.2676  -13.7279   20.4900 C   0  0  0  0  0  0  0  0  0  0  0  0
  -32.8496  -20.6013   26.8100 C   0  0  0  0  0  0  0  0  0  0  0  0
  -31.9743  -19.6184   26.2378 C   0  0  0  0  0  0  0  0  0  0  0  0
  -22.9052  -13.4959   21.2735 C   0  0  0  0  0  0  0  0  0  0  0  0
  -29.9274  -25.6981   19.4584 C   0  0  0  0  0  0  0  0  0  0  0  0
  -30.4578  -23.2176   17.4365 C   0  0  0  0  0  0  0  0  0  0  0  0
  -31.3261  -19.7273   17.7214 C   0  0  0  0  0  0  0  0  0  0  0  0
  -30.7363  -14.7603   20.6639 C   0  0  0  0  0  0  0  0  0  0  0  0
  -28.6731  -30.6314   19.0754 C   0  0  0  0  0  0  0  0  0  0  0  0
  -32.4059  -25.3362   19.7451 C   0  0  0  0  0  0  0  0  0  0  0  0
  -30.9021  -22.7937   19.8835 C   0  0  0  0  0  0  0  0  0  0  0  0
  -28.4718  -29.3841   18.2188 C   0  0  0  0  0  0  0  0  0  0  0  0
  -29.6140  -12.3602   18.2854 C   0  0  0  0  0  0  0  0  0  0  0  0
  -27.9312  -28.2364   19.0658 C   0  0  0  0  0  0  0  0  0  0  0  0
  -28.1741  -12.0698   18.7151 C   0  0  0  0  0  0  0  0  0  0  0  0
  -30.5308  -12.5813   19.4872 C   0  0  0  0  0  0  0  0  0  0  0  0
  -28.6270  -13.3035   20.8738 C   0  0  0  0  0  0  0  0  0  0  0  0
  -33.8996  -19.6747   24.9104 C   0  0  0  0  0  0  0  0  0  0  0  0
  -28.9190  -27.8567   20.1755 C   0  0  1  0  0  0  0  0  0  0  0  0
  -31.1726  -25.0847   18.8831 C   0  0  1  0  0  0  0  0  0  0  0  0
  -27.6525  -13.1380   19.6962 C   0  0  2  0  0  0  0  0  0  0  0  0
  -34.0256  -20.8560   25.8910 C   0  0  2  0  0  0  0  0  0  0  0  0
  -35.3429  -20.8243   26.6573 C   0  0  0  0  0  0  0  0  0  0  0  0
  -32.5210  -18.2075   16.1215 C   0  0  0  0  0  0  0  0  0  0  0  0
  -27.6507  -22.4703   16.5026 C   0  0  0  0  0  0  0  0  0  0  0  0
  -28.4361  -20.1053   16.2614 C   0  0  0  0  0  0  0  0  0  0  0  0
  -29.4727  -21.9085   14.8842 C   0  0  0  0  0  0  0  0  0  0  0  0
  -33.3513  -18.9926   19.7506 C   0  0  0  0  0  0  0  0  0  0  0  0
  -33.8233  -22.1960   25.1840 C   0  0  0  0  0  0  0  0  0  1  0  0
  -29.9891  -21.7849   17.3561 C   0  0  1  0  0  0  0  0  0  0  0  0
  -32.6532  -19.0881   17.3543 C   0  0  2  0  0  0  0  0  0  0  0  0
  -28.8894  -21.5808   16.2760 C   0  0  0  0  0  0  0  0  0  0  0  0
  -25.8624  -11.5479   20.2864 N   0  0  0  0  0  0  0  0  0  0  0  0
  -26.2421  -12.8312   20.1637 N   0  0  0  0  0  0  0  0  0  0  0  0
  -32.5219  -19.1728   25.1044 N   0  0  0  0  0  0  0  0  0  0  0  0
  -30.8974  -23.6591   18.6925 N   0  0  0  0  0  0  0  0  0  0  0  0
  -29.9751  -13.6092   20.3700 N   0  0  0  0  0  0  0  0  0  0  0  0
  -28.5090  -17.4699   23.0476 N   0  0  0  0  0  0  0  0  0  0  0  0
  -25.4809  -15.0592   20.4230 N   0  0  0  0  0  0  0  0  0  0  0  0
  -21.8916  -12.5875   21.6076 N   0  0  0  0  0  0  0  0  0  0  0  0
  -30.0919  -15.6830   21.4873 N   0  0  0  0  0  0  0  0  0  0  0  0
  -30.0049  -27.0662   19.6368 N   0  0  0  0  0  0  0  0  0  0  0  0
  -31.1852  -20.9750   17.1515 N   0  0  0  0  0  0  0  0  0  0  0  0
  -30.8586  -19.3487   26.8989 N   0  3  0  0  0  0  0  0  0  0  0  0
  -33.1528  -18.2489   18.4799 N   0  3  0  0  0  0  0  0  0  0  0  0
  -32.6440  -21.1683   27.8738 O   0  0  0  0  0  0  0  0  0  0  0  0
  -22.6718  -14.7268   21.3369 O   0  0  0  0  0  0  0  0  0  0  0  0
  -28.9669  -24.9834   19.7197 O   0  0  0  0  0  0  0  0  0  0  0  0
  -30.4413  -23.9172   16.4206 O   0  0  0  0  0  0  0  0  0  0  0  0
  -30.4958  -19.1736   18.4386 O   0  0  0  0  0  0  0  0  0  0  0  0
  -31.8653  -14.9287   20.1959 O   0  0  0  0  0  0  0  0  0  0  0  0
  -21.6058   -7.0245   21.6898 O   0  0  0  0  0  0  0  0  0  0  0  0
  -32.6210  -22.1401   24.4174 O   0  0  0  0  0  0  0  0  0  1  0  0
  -18.6193   -6.8510   26.3217 F   0  0  0  0  0  0  0  0  0  0  0  0
  -22.0538   -5.0709   23.5939 F   0  0  0  0  0  0  0  0  0  0  0  0
  1  2  1  0  0  0  0
  1  5  2  0  0  0  0
  2  6  2  0  0  0  0
  3 10  2  0  0  0  0
  3 18  1  0  0  0  0
  4 11  1  0  0  0  0
  4 18  2  0  0  0  0
  5 20  1  0  0  0  0
  6 22  1  0  0  0  0
  7 12  2  0  0  0  0
  7 21  1  0  0  0  0
  8  9  2  0  0  0  0
  8 24  1  0  0  0  0
  9 25  1  0  0  0  0
 10 27  1  0  0  0  0
 11 27  2  0  0  0  0
 12 28  1  0  0  0  0
 13 14  2  0  0  0  0
 13 29  1  0  0  0  0
 14 30  1  0  0  0  0
 15 23  1  0  0  0  0
 15 28  2  0  0  0  0
 16 24  2  0  0  0  0
 16 26  1  0  0  0  0
 17 30  2  0  0  0  0
 17 31  1  0  0  0  0
 18 32  1  0  0  0  0
 19 32  1  0  0  0  0
 19 33  2  0  0  0  0
 19 36  1  0  0  0  0
 20 22  2  0  0  0  0
 20 41  1  0  0  0  0
 21 23  2  0  0  0  0
 21 42  1  0  0  0  0
 22 51  1  0  0  0  0
 23 43  1  0  0  0  0
 24 67  1  0  0  0  0
 25 26  2  0  0  0  0
 25 73  1  0  0  0  0
 26 70  1  0  0  0  0
 27 84  1  0  0  0  0
 28 85  1  0  0  0  0
 29 31  2  0  0  0  0
 29 84  1  0  0  0  0
 30 86  1  0  0  0  0
 31 87  1  0  0  0  0
 32 65  2  0  0  0  0
 33 66  1  0  0  0  0
 33 71  1  0  0  0  0
 34 35  1  0  0  0  0
 34 54  1  0  0  0  0
 34 78  2  0  0  0  0
 35 67  1  0  0  0  0
 35 76  2  0  0  0  0
 36 72  1  0  0  0  0
 36 79  2  0  0  0  0
 37 52  1  0  0  0  0
 37 74  1  0  0  0  0
 37 80  2  0  0  0  0
 38 62  1  0  0  0  0
 38 68  1  0  0  0  0
 38 81  2  0  0  0  0
 39 63  1  0  0  0  0
 39 75  1  0  0  0  0
 39 82  2  0  0  0  0
 40 69  1  0  0  0  0
 40 73  1  0  0  0  0
 40 83  2  0  0  0  0
 41 44  1  0  0  0  0
 42 52  1  0  0  0  0
 43 68  1  0  0  0  0
 44 46  1  0  0  0  0
 45 47  1  0  0  0  0
 45 48  1  0  0  0  0
 46 51  1  0  0  0  0
 47 53  1  0  0  0  0
 48 69  1  0  0  0  0
 49 53  1  0  0  0  0
 49 69  1  0  0  0  0
 50 54  1  0  0  0  0
 50 67  1  0  0  0  0
 51 74  1  0  0  0  0
 52 68  1  0  0  0  0
 53 66  1  0  0  0  0
 54 55  1  0  0  0  0
 54 61  1  0  0  0  0
 56 63  1  0  0  0  0
 57 64  1  0  0  0  0
 58 64  1  0  0  0  0
 59 64  1  0  0  0  0
 60 77  1  0  0  0  0
 61 85  1  0  0  0  0
 62 64  1  0  0  0  0
 62 75  1  0  0  0  0
 63 77  1  0  0  0  0
 65 66  1  0  0  0  0
M  CHG  2  76   1  77   1
M  ISO  4  40 100  61 101  73 100  85 101
M  END
> <Batch ID>
0071

> <Smiles>
CNC(C)C(=O)NC(C(=O)N1Cc2cc([101O:1][101CH2:1]C3(C)CN(c4ccc([100NH:0][100C:0](=O)N5CCCC(n6nc(-c7ccc(Oc8ccc(F)cc8F)cc7)c(C(N)=O)c6N)C5)c(N)c4)C(=N)C3=O)ccc2CC1C(=O)NC1CCCc2ccccc21)C(C)(C)C

> <Shape>
0.239

> <Color>
0.178

> <Negative vol penalty>
0.000

$$$$

  -OEChem-04042323353D

 89 98  0     1  0  0  0  0  0999 V2000
  -20.7936  -36.3311   17.5107 C   0  0  0  0  0  0  0  0  0  0  0  0
  -21.0434  -35.0156   17.1333 C   0  0  0  0  0  0  0  0  0  0  0  0
  -24.1235   -8.5240   20.9274 C   0  0  0  0  0  0  0  0  0  0  0  0
  -23.2750  -10.7430   20.4882 C   0  0  0  0  0  0  0  0  0  0  0  0
  -21.6788  -36.9910   18.3621 C   0  0  0  0  0  0  0  0  0  0  0  0
  -22.1793  -34.3595   17.6062 C   0  0  0  0  0  0  0  0  0  0  0  0
  -24.4761  -27.8492   19.5186 C   0  0  0  0  0  0  0  0  0  0  0  0
  -28.6657  -20.0952   18.8005 C   0  0  0  0  0  0  0  0  0  0  0  0
  -28.6403  -18.7298   19.0844 C   0  0  0  0  0  0  0  0  0  0  0  0
  -22.9403   -8.2032   21.5928 C   0  0  0  0  0  0  0  0  0  0  0  0
  -22.0918  -10.4223   21.1535 C   0  0  0  0  0  0  0  0  0  0  0  0
  -25.5139  -26.9546   19.2611 C   0  0  0  0  0  0  0  0  0  0  0  0
  -21.5591   -8.7617   24.6267 C   0  0  0  0  0  0  0  0  0  0  0  0
  -21.6631   -8.0924   25.8460 C   0  0  0  0  0  0  0  0  0  0  0  0
  -26.9312  -28.1681   20.7901 C   0  0  0  0  0  0  0  0  0  0  0  0
  -30.9844  -20.1918   19.4722 C   0  0  0  0  0  0  0  0  0  0  0  0
  -20.3915   -6.2477   24.9418 C   0  0  0  0  0  0  0  0  0  0  0  0
  -24.2909   -9.7939   20.3752 C   0  0  0  0  0  0  0  0  0  0  0  0
  -26.0469   -9.4941   18.5492 C   0  0  0  0  0  0  0  0  0  0  0  0
  -22.8211  -36.3395   18.8534 C   0  0  0  0  0  0  0  0  0  0  0  0
  -24.6618  -28.9182   20.4070 C   0  0  0  0  0  0  0  0  0  0  0  0
  -23.0814  -35.0117   18.4639 C   0  0  0  0  0  0  0  0  0  0  0  0
  -25.8933  -29.0734   21.0591 C   0  0  0  0  0  0  0  0  0  0  0  0
  -30.9591  -18.8264   19.7561 C   0  0  0  0  0  0  0  0  0  0  0  0
  -29.8378  -20.8262   18.9944 C   0  0  0  0  0  0  0  0  0  0  0  0
  -29.7870  -18.0953   19.5621 C   0  0  0  0  0  0  0  0  0  0  0  0
  -21.9244   -9.1523   21.7058 C   0  0  0  0  0  0  0  0  0  0  0  0
  -26.7426  -27.1156   19.8947 C   0  0  0  0  0  0  0  0  0  0  0  0
  -20.8713   -8.1741   23.5649 C   0  0  0  0  0  0  0  0  0  0  0  0
  -21.0793   -6.8354   26.0036 C   0  0  0  0  0  0  0  0  0  0  0  0
  -20.2875   -6.9171   23.7225 C   0  0  0  0  0  0  0  0  0  0  0  0
  -25.5132  -10.1261   19.6883 C   0  0  0  0  0  0  0  0  0  0  0  0
  -27.2104  -10.1769   18.2911 C   0  0  0  0  0  0  0  0  0  0  0  0
  -28.7529  -23.0405   18.8133 C   0  0  0  0  0  0  0  0  0  0  0  0
  -28.7255  -24.3540   18.5356 C   0  0  0  0  0  0  0  0  0  0  0  0
  -31.0118  -24.0756   17.5926 C   0  0  0  0  0  0  0  0  0  0  0  0
  -25.5366   -8.3887   17.7920 C   0  0  0  0  0  0  0  0  0  0  0  0
  -24.5756  -32.0856   20.1545 C   0  0  0  0  0  0  0  0  0  0  0  0
  -24.9372  -31.9626   23.3757 C   0  0  0  0  0  0  0  0  0  0  0  0
  -26.0063  -30.2173   26.1066 C   0  0  0  0  0  0  0  0  0  0  0  0
  -28.6537  -15.8413   19.7011 C   0  0  0  0  0  0  0  0  0  0  0  0
  -23.7737  -37.1093   19.7335 C   0  0  0  0  0  0  0  0  0  0  0  0
  -23.5238  -29.8589   20.6943 C   0  0  0  0  0  0  0  0  0  0  0  0
  -26.1374  -30.1926   22.0370 C   0  0  0  0  0  0  0  0  0  0  0  0
  -29.9453  -25.0627   18.0267 C   0  0  0  0  0  0  0  0  0  0  0  0
  -31.1775  -22.8026   18.3980 C   0  0  0  0  0  0  0  0  0  0  0  0
  -24.7576  -36.2203   20.4898 C   0  0  0  0  0  0  0  0  0  0  0  0
  -30.1793  -12.6551   21.1994 C   0  0  0  0  0  0  0  0  0  0  0  0
  -25.3683  -35.1827   19.5531 C   0  0  0  0  0  0  0  0  0  0  0  0
  -29.5759  -11.6172   20.2560 C   0  0  0  0  0  0  0  0  0  0  0  0
  -30.2366  -14.0421   20.5717 C   0  0  0  0  0  0  0  0  0  0  0  0
  -27.8679  -13.4980   19.9805 C   0  0  0  0  0  0  0  0  0  0  0  0
  -24.2897  -34.2581   18.9758 C   0  0  1  0  0  0  0  0  0  0  0  0
  -23.9867  -31.2119   21.2257 C   0  0  1  0  0  0  0  0  0  0  0  0
  -28.4013  -12.1687   19.4238 C   0  0  2  0  0  0  0  0  0  0  0  0
  -26.2047  -30.3916   28.6021 C   0  0  0  0  0  0  0  0  0  0  0  0
  -27.3302  -33.8280   23.0528 C   0  0  0  0  0  0  0  0  0  0  0  0
  -28.0373  -33.2091   25.3733 C   0  0  0  0  0  0  0  0  0  0  0  0
  -25.8527  -34.3542   25.0007 C   0  0  0  0  0  0  0  0  0  0  0  0
  -24.2443  -27.8768   26.5264 C   0  0  0  0  0  0  0  0  0  0  0  0
  -27.4942  -25.1879   18.7221 C   0  0  0  0  0  0  0  0  0  1  0  0
  -26.1156  -31.9339   24.3189 C   0  0  1  0  0  0  0  0  0  0  0  0
  -25.3413  -29.9264   27.4398 C   0  0  2  0  0  0  0  0  0  0  0  0
  -32.2026  -18.1725   20.2653 C   0  0  0  0  0  0  0  0  0  0  0  0
  -26.8303  -33.3112   24.4166 C   0  0  0  0  0  0  0  0  0  0  0  0
  -26.2751  -11.1329   20.1239 N   0  0  0  0  0  0  0  0  0  0  0  0
  -27.2995  -11.1387   19.2540 N   0  0  0  0  0  0  0  0  0  0  0  0
  -29.8636  -22.2182   18.7044 N   0  0  0  0  0  0  0  0  0  0  0  0
  -24.9958  -31.0900   22.2798 N   0  0  0  0  0  0  0  0  0  0  0  0
  -28.9340  -14.5025   20.0690 N   0  0  0  0  0  0  0  0  0  0  0  0
  -28.1556  -10.0424   17.3368 N   0  0  0  0  0  0  0  0  0  0  0  0
  -24.6796   -8.6551   16.7155 N   0  0  0  0  0  0  0  0  0  0  0  0
  -29.7415  -16.7069   19.8431 N   0  0  0  0  0  0  0  0  0  0  0  0
  -23.8929  -33.2705   19.9564 N   0  0  0  0  0  0  0  0  0  0  0  0
  -25.6078  -31.4326   25.5914 N   0  0  0  0  0  0  0  0  0  0  0  0
  -25.0996  -28.4635   27.5899 N   0  3  0  0  0  0  0  0  0  0  0  0
  -31.7965  -24.3558   16.6845 O   0  0  0  0  0  0  0  0  0  0  0  0
  -25.8187   -7.1990   18.0722 O   0  0  0  0  0  0  0  0  0  0  0  0
  -25.5763  -31.7129   19.5532 O   0  0  0  0  0  0  0  0  0  0  0  0
  -23.9962  -32.7259   23.6068 O   0  0  0  0  0  0  0  0  0  0  0  0
  -26.8028  -29.4454   25.5770 O   0  0  0  0  0  0  0  0  0  0  0  0
  -27.5440  -16.1797   19.2841 O   0  0  0  0  0  0  0  0  0  0  0  0
  -20.7696   -8.8396   22.3547 O   0  0  0  0  0  0  0  0  0  0  0  0
  -27.7575  -26.2442   19.6447 O   0  0  0  0  0  0  0  0  0  1  0  0
  -21.1806   -6.1921   27.1741 F   0  0  0  0  0  0  0  0  0  0  0  0
  -19.6265   -6.3470   22.7057 F   0  0  0  0  0  0  0  0  0  0  0  0
  -33.2554  -19.0312   20.3950 F   0  0  0  0  0  0  0  0  0  0  0  0
  -32.0519  -17.6013   21.4956 F   0  0  0  0  0  0  0  0  0  0  0  0
  -32.6403  -17.1737   19.4462 F   0  0  0  0  0  0  0  0  0  0  0  0
  1  2  1  0  0  0  0
  1  5  2  0  0  0  0
  2  6  2  0  0  0  0
  3 10  2  0  0  0  0
  3 18  1  0  0  0  0
  4 11  1  0  0  0  0
  4 18  2  0  0  0  0
  5 20  1  0  0  0  0
  6 22  1  0  0  0  0
  7 12  2  0  0  0  0
  7 21  1  0  0  0  0
  8  9  2  0  0  0  0
  8 25  1  0  0  0  0
  9 26  1  0  0  0  0
 10 27  1  0  0  0  0
 11 27  2  0  0  0  0
 12 28  1  0  0  0  0
 13 14  2  0  0  0  0
 13 29  1  0  0  0  0
 14 30  1  0  0  0  0
 15 23  1  0  0  0  0
 15 28  2  0  0  0  0
 16 24  1  0  0  0  0
 16 25  2  0  0  0  0
 17 30  2  0  0  0  0
 17 31  1  0  0  0  0
 18 32  1  0  0  0  0
 19 32  1  0  0  0  0
 19 33  2  0  0  0  0
 19 37  1  0  0  0  0
 20 22  2  0  0  0  0
 20 42  1  0  0  0  0
 21 23  2  0  0  0  0
 21 43  1  0  0  0  0
 22 53  1  0  0  0  0
 23 44  1  0  0  0  0
 24 26  2  0  0  0  0
 24 64  1  0  0  0  0
 25 68  1  0  0  0  0
 26 73  1  0  0  0  0
 27 83  1  0  0  0  0
 28 84  1  0  0  0  0
 29 31  2  0  0  0  0
 29 83  1  0  0  0  0
 30 85  1  0  0  0  0
 31 86  1  0  0  0  0
 32 66  2  0  0  0  0
 33 67  1  0  0  0  0
 33 71  1  0  0  0  0
 34 35  2  0  0  0  0
 34 68  1  0  0  0  0
 35 45  1  0  0  0  0
 35 61  1  0  0  0  0
 36 45  1  0  0  0  0
 36 46  1  0  0  0  0
 36 77  2  0  0  0  0
 37 72  1  0  0  0  0
 37 78  2  0  0  0  0
 38 54  1  0  0  0  0
 38 74  1  0  0  0  0
 38 79  2  0  0  0  0
 39 62  1  0  0  0  0
 39 69  1  0  0  0  0
 39 80  2  0  0  0  0
 40 63  1  0  0  0  0
 40 75  1  0  0  0  0
 40 81  2  0  0  0  0
 41 70  1  0  0  0  0
 41 73  1  0  0  0  0
 41 82  2  0  0  0  0
 42 47  1  0  0  0  0
 43 54  1  0  0  0  0
 44 69  1  0  0  0  0
 46 68  1  0  0  0  0
 47 49  1  0  0  0  0
 48 50  1  0  0  0  0
 48 51  1  0  0  0  0
 49 53  1  0  0  0  0
 50 55  1  0  0  0  0
 51 70  1  0  0  0  0
 52 55  1  0  0  0  0
 52 70  1  0  0  0  0
 53 74  1  0  0  0  0
 54 69  1  0  0  0  0
 55 67  1  0  0  0  0
 56 63  1  0  0  0  0
 57 65  1  0  0  0  0
 58 65  1  0  0  0  0
 59 65  1  0  0  0  0
 60 76  1  0  0  0  0
 61 84  1  0  0  0  0
 62 65  1  0  0  0  0
 62 75  1  0  0  0  0
 63 76  1  0  0  0  0
 64 87  1  0  0  0  0
 64 88  1  0  0  0  0
 64 89  1  0  0  0  0
 66 67  1  0  0  0  0
M  CHG  1  76   1
M  ISO  4  41 100  61 101  73 100  84 101
M  END
> <Batch ID>
0071

> <Smiles>
CNC(C)C(=O)NC(C(=O)N1Cc2cc([101O:1][101CH2:1]C3=CN(c4ccc([100NH:0][100C:0](=O)N5CCCC(n6nc(-c7ccc(Oc8ccc(F)cc8F)cc7)c(C(N)=O)c6N)C5)c(C(F)(F)F)c4)CC(=O)C3)ccc2CC1C(=O)NC1CCCc2ccccc21)C(C)(C)C

> <Shape>
0.293

> <Color>
0.093

> <Negative vol penalty>
0.000

$$$$

  -OEChem-04042323353D

 84 92  0     1  0  0  0  0  0999 V2000
  -25.6933  -35.8663   22.1297 C   0  0  0  0  0  0  0  0  0  0  0  0
  -26.3025  -34.6159   22.1056 C   0  0  0  0  0  0  0  0  0  0  0  0
  -21.1593  -12.3173   17.9477 C   0  0  0  0  0  0  0  0  0  0  0  0
  -22.7335  -12.7711   16.1720 C   0  0  0  0  0  0  0  0  0  0  0  0
  -24.3751  -35.9900   22.5667 C   0  0  0  0  0  0  0  0  0  0  0  0
  -25.5941  -33.4884   22.5198 C   0  0  0  0  0  0  0  0  0  0  0  0
  -26.1931  -29.5576   19.3837 C   0  0  0  0  0  0  0  0  0  0  0  0
  -20.3717  -11.5823   17.0617 C   0  0  0  0  0  0  0  0  0  0  0  0
  -21.9459  -12.0360   15.2859 C   0  0  0  0  0  0  0  0  0  0  0  0
  -27.3830  -28.8381   19.4846 C   0  0  0  0  0  0  0  0  0  0  0  0
  -21.3858   -8.7824   14.5643 C   0  0  0  0  0  0  0  0  0  0  0  0
  -22.0329   -7.8808   13.7193 C   0  0  0  0  0  0  0  0  0  0  0  0
  -28.9046  -20.6801   19.7092 C   0  0  0  0  0  0  0  0  0  0  0  0
  -31.2716  -20.2020   19.6357 C   0  0  0  0  0  0  0  0  0  0  0  0
  -26.2471  -27.1532   20.7846 C   0  0  0  0  0  0  0  0  0  0  0  0
  -29.6885  -18.4129   19.9961 C   0  0  0  0  0  0  0  0  0  0  0  0
  -21.1844   -9.0734   11.7971 C   0  0  0  0  0  0  0  0  0  0  0  0
  -22.3402  -12.9117   17.5028 C   0  0  0  0  0  0  0  0  0  0  0  0
  -30.2213  -21.1171   19.5646 C   0  0  0  0  0  0  0  0  0  0  0  0
  -24.2026  -13.1900   19.2238 C   0  0  0  0  0  0  0  0  0  0  0  0
  -23.6471  -34.8621   22.9772 C   0  0  0  0  0  0  0  0  0  0  0  0
  -25.0217  -29.0849   19.9928 C   0  0  0  0  0  0  0  0  0  0  0  0
  -24.2654  -33.5973   22.9640 C   0  0  0  0  0  0  0  0  0  0  0  0
  -25.0430  -27.8673   20.6878 C   0  0  0  0  0  0  0  0  0  0  0  0
  -28.6382  -19.3280   19.9250 C   0  0  0  0  0  0  0  0  0  0  0  0
  -20.7650  -11.4416   15.7308 C   0  0  0  0  0  0  0  0  0  0  0  0
  -27.4109  -27.6372   20.1875 C   0  0  0  0  0  0  0  0  0  0  0  0
  -20.6380   -9.8295   14.0258 C   0  0  0  0  0  0  0  0  0  0  0  0
  -21.9322   -8.0263   12.3358 C   0  0  0  0  0  0  0  0  0  0  0  0
  -31.0052  -18.8498   19.8515 C   0  0  0  0  0  0  0  0  0  0  0  0
  -20.5373   -9.9750   12.6422 C   0  0  0  0  0  0  0  0  0  0  0  0
  -23.1539  -13.6716   18.4175 C   0  0  0  0  0  0  0  0  0  0  0  0
  -24.6501  -14.2971   19.9024 C   0  0  0  0  0  0  0  0  0  0  0  0
  -30.5057  -22.5569   19.3374 C   0  0  0  0  0  0  0  0  0  0  0  0
  -24.7254  -11.8608   19.3482 C   0  0  0  0  0  0  0  0  0  0  0  0
  -23.0816  -30.1673   22.2661 C   0  0  0  0  0  0  0  0  0  0  0  0
  -21.3023  -27.5859   21.4338 C   0  0  0  0  0  0  0  0  0  0  0  0
  -29.6557  -24.8362   19.7589 C   0  0  0  0  0  0  0  0  0  0  0  0
  -21.1899  -24.4702   20.0458 C   0  0  0  0  0  0  0  0  0  0  0  0
  -26.1430  -19.6598   20.0274 C   0  0  0  0  0  0  0  0  0  0  0  0
  -22.2401  -35.0520   23.4863 C   0  0  0  0  0  0  0  0  0  0  0  0
  -23.7400  -29.8594   19.8520 C   0  0  0  0  0  0  0  0  0  0  0  0
  -23.8081  -27.3062   21.3425 C   0  0  0  0  0  0  0  0  0  0  0  0
  -21.4367  -33.7558   23.5540 C   0  0  0  0  0  0  0  0  0  0  0  0
  -22.6679  -18.9370   20.3070 C   0  0  0  0  0  0  0  0  0  0  0  0
  -22.2623  -32.6493   24.2027 C   0  0  0  0  0  0  0  0  0  0  0  0
  -22.5708  -17.4631   19.9067 C   0  0  0  0  0  0  0  0  0  0  0  0
  -23.7184  -19.6803   19.4837 C   0  0  0  0  0  0  0  0  0  0  0  0
  -24.9534  -17.5885   19.0733 C   0  0  0  0  0  0  0  0  0  0  0  0
  -23.5218  -32.3472   23.3819 C   0  0  1  0  0  0  0  0  0  0  0  0
  -22.7265  -29.5415   20.9471 C   0  0  1  0  0  0  0  0  0  0  0  0
  -23.9540  -16.7833   19.9198 C   0  0  2  0  0  0  0  0  0  0  0  0
  -19.6009  -22.5948   19.5407 C   0  0  0  0  0  0  0  0  0  0  0  0
  -21.3207  -26.7810   24.3769 C   0  0  0  0  0  0  0  0  0  0  0  0
  -20.5762  -24.4933   23.6839 C   0  0  0  0  0  0  0  0  0  0  0  0
  -19.1237  -26.4684   23.2236 C   0  0  0  0  0  0  0  0  0  0  0  0
  -21.6917  -24.6739   17.1362 C   0  0  0  0  0  0  0  0  0  0  0  0
  -28.4627  -25.5147   20.3987 C   0  0  0  0  0  0  0  0  0  1  0  0
  -21.2383  -26.1440   21.8762 C   0  0  1  0  0  0  0  0  0  0  0  0
  -20.2589  -23.8604   19.0134 C   0  0  2  0  0  0  0  0  0  0  0  0
  -20.5886  -25.9829   23.2796 C   0  0  0  0  0  0  0  0  0  0  0  0
  -22.9474  -14.9825   18.5688 N   0  0  0  0  0  0  0  0  0  0  0  0
  -23.8724  -15.3340   19.4781 N   0  0  0  0  0  0  0  0  0  0  0  0
  -22.5808  -28.1035   21.1822 N   0  0  0  0  0  0  0  0  0  0  0  0
  -25.0036  -18.9809   19.5463 N   0  0  0  0  0  0  0  0  0  0  0  0
  -25.6291  -14.4750   20.8148 N   0  0  0  0  0  0  0  0  0  0  0  0
  -24.1493  -10.8414   18.5780 N   0  0  0  0  0  0  0  0  0  0  0  0
  -27.3007  -18.8837   20.0718 N   0  0  0  0  0  0  0  0  0  0  0  0
  -29.5581  -23.4463   19.8413 N   0  0  0  0  0  0  0  0  0  0  0  0
  -23.1903  -31.5442   22.2244 N   0  0  0  0  0  0  0  0  0  0  0  0
  -20.5499  -25.4208   20.8125 N   0  0  0  0  0  0  0  0  0  0  0  0
  -21.0129  -23.5170   17.7746 N   0  3  0  0  0  0  0  0  0  0  0  0
  -31.5410  -22.8780   18.7603 O   0  0  0  0  0  0  0  0  0  0  0  0
  -25.6645  -11.5821   20.1318 O   0  0  0  0  0  0  0  0  0  0  0  0
  -23.2436  -29.4539   23.2492 O   0  0  0  0  0  0  0  0  0  0  0  0
  -20.2560  -28.2272   21.3090 O   0  0  0  0  0  0  0  0  0  0  0  0
  -30.5758  -25.4613   19.2390 O   0  0  0  0  0  0  0  0  0  0  0  0
  -22.3663  -24.1341   20.1629 O   0  0  0  0  0  0  0  0  0  0  0  0
  -26.0893  -20.8346   20.4001 O   0  0  0  0  0  0  0  0  0  0  0  0
  -19.9968  -10.7242   14.8660 O   0  0  0  0  0  0  0  0  0  0  0  0
  -28.5711  -26.9333   20.2881 O   0  0  0  0  0  0  0  0  0  1  0  0
  -22.5548   -7.1613   11.5244 F   0  0  0  0  0  0  0  0  0  0  0  0
  -32.0139  -17.9715   19.9228 F   0  0  0  0  0  0  0  0  0  0  0  0
  -19.8213  -10.9796   12.1189 F   0  0  0  0  0  0  0  0  0  0  0  0
  1  2  1  0  0  0  0
  1  5  2  0  0  0  0
  2  6  2  0  0  0  0
  3  8  2  0  0  0  0
  3 18  1  0  0  0  0
  4  9  1  0  0  0  0
  4 18  2  0  0  0  0
  5 21  1  0  0  0  0
  6 23  1  0  0  0  0
  7 10  2  0  0  0  0
  7 22  1  0  0  0  0
  8 26  1  0  0  0  0
  9 26  2  0  0  0  0
 10 27  1  0  0  0  0
 11 12  2  0  0  0  0
 11 28  1  0  0  0  0
 12 29  1  0  0  0  0
 13 19  2  0  0  0  0
 13 25  1  0  0  0  0
 14 19  1  0  0  0  0
 14 30  2  0  0  0  0
 15 24  1  0  0  0  0
 15 27  2  0  0  0  0
 16 25  2  0  0  0  0
 16 30  1  0  0  0  0
 17 29  2  0  0  0  0
 17 31  1  0  0  0  0
 18 32  1  0  0  0  0
 19 34  1  0  0  0  0
 20 32  1  0  0  0  0
 20 33  2  0  0  0  0
 20 35  1  0  0  0  0
 21 23  2  0  0  0  0
 21 41  1  0  0  0  0
 22 24  2  0  0  0  0
 22 42  1  0  0  0  0
 23 50  1  0  0  0  0
 24 43  1  0  0  0  0
 25 68  1  0  0  0  0
 26 80  1  0  0  0  0
 27 81  1  0  0  0  0
 28 31  2  0  0  0  0
 28 80  1  0  0  0  0
 29 82  1  0  0  0  0
 30 83  1  0  0  0  0
 31 84  1  0  0  0  0
 32 62  2  0  0  0  0
 33 63  1  0  0  0  0
 33 66  1  0  0  0  0
 34 69  1  0  0  0  0
 34 73  2  0  0  0  0
 35 67  1  0  0  0  0
 35 74  2  0  0  0  0
 36 51  1  0  0  0  0
 36 70  1  0  0  0  0
 36 75  2  0  0  0  0
 37 59  1  0  0  0  0
 37 64  1  0  0  0  0
 37 76  2  0  0  0  0
 38 58  1  0  0  0  0
 38 69  1  0  0  0  0
 38 77  2  0  0  0  0
 39 60  1  0  0  0  0
 39 71  1  0  0  0  0
 39 78  2  0  0  0  0
 40 65  1  0  0  0  0
 40 68  1  0  0  0  0
 40 79  2  0  0  0  0
 41 44  1  0  0  0  0
 42 51  1  0  0  0  0
 43 64  1  0  0  0  0
 44 46  1  0  0  0  0
 45 47  1  0  0  0  0
 45 48  1  0  0  0  0
 46 50  1  0  0  0  0
 47 52  1  0  0  0  0
 48 65  1  0  0  0  0
 49 52  1  0  0  0  0
 49 65  1  0  0  0  0
 50 70  1  0  0  0  0
 51 64  1  0  0  0  0
 52 63  1  0  0  0  0
 53 60  1  0  0  0  0
 54 61  1  0  0  0  0
 55 61  1  0  0  0  0
 56 61  1  0  0  0  0
 57 72  1  0  0  0  0
 58 81  1  0  0  0  0
 59 61  1  0  0  0  0
 59 71  1  0  0  0  0
 60 72  1  0  0  0  0
 62 63  1  0  0  0  0
M  CHG  1  72   1
M  ISO  4  40 100  58 101  68 100  81 101
M  END
> <Batch ID>
0071

> <Smiles>
CNC(C)C(=O)NC(C(=O)N1Cc2cc([101O:1][101CH2:1]C(=O)NC(=O)c3cc(F)cc([100NH:0][100C:0](=O)N4CCCC(n5nc(-c6ccc(Oc7ccc(F)cc7F)cc6)c(C(N)=O)c5N)C4)c3)ccc2CC1C(=O)NC1CCCc2ccccc21)C(C)(C)C

> <Shape>
0.204

> <Color>
0.100

> <Negative vol penalty>
0.000

$$$$

  -OEChem-04042323353D

 89 98  0     1  0  0  0  0  0999 V2000
  -30.7008  -33.0084   28.6925 C   0  0  0  0  0  0  0  0  0  0  0  0
  -30.9389  -32.0901   27.6749 C   0  0  0  0  0  0  0  0  0  0  0  0
  -24.3633   -9.5797   19.8641 C   0  0  0  0  0  0  0  0  0  0  0  0
  -24.5874   -9.8513   22.2543 C   0  0  0  0  0  0  0  0  0  0  0  0
  -29.4178  -33.1443   29.2210 C   0  0  0  0  0  0  0  0  0  0  0  0
  -29.8943  -31.3063   27.1861 C   0  0  0  0  0  0  0  0  0  0  0  0
  -29.0992  -29.4157   21.4155 C   0  0  0  0  0  0  0  0  0  0  0  0
  -24.1242   -8.2170   20.0414 C   0  0  0  0  0  0  0  0  0  0  0  0
  -24.3482   -8.4886   22.4316 C   0  0  0  0  0  0  0  0  0  0  0  0
  -29.3857  -28.2108   20.7753 C   0  0  0  0  0  0  0  0  0  0  0  0
  -21.6812   -6.4134   22.4669 C   0  0  0  0  0  0  0  0  0  0  0  0
  -20.7935   -6.0386   23.4754 C   0  0  0  0  0  0  0  0  0  0  0  0
  -25.9248  -20.8246   22.9070 C   0  0  0  0  0  0  0  0  0  0  0  0
  -27.1127  -27.4868   21.1335 C   0  0  0  0  0  0  0  0  0  0  0  0
  -28.2204  -20.0322   21.5341 C   0  0  0  0  0  0  0  0  0  0  0  0
  -22.5488   -4.7734   24.5503 C   0  0  0  0  0  0  0  0  0  0  0  0
  -24.5950  -10.3969   20.9706 C   0  0  0  0  0  0  0  0  0  0  0  0
  -26.6557  -21.7586   22.1728 C   0  0  0  0  0  0  0  0  0  0  0  0
  -23.8883  -12.8390   20.7602 C   0  0  0  0  0  0  0  0  0  0  0  0
  -28.3549  -32.3687   28.7317 C   0  0  0  0  0  0  0  0  0  0  0  0
  -27.8180  -29.6612   21.9300 C   0  0  0  0  0  0  0  0  0  0  0  0
  -28.5962  -31.4311   27.7094 C   0  0  0  0  0  0  0  0  0  0  0  0
  -26.8117  -28.6967   21.7775 C   0  0  0  0  0  0  0  0  0  0  0  0
  -27.8034  -21.3624   21.4863 C   0  0  0  0  0  0  0  0  0  0  0  0
  -27.4896  -19.0981   22.2684 C   0  0  0  0  0  0  0  0  0  0  0  0
  -24.1166   -7.6714   21.3251 C   0  0  0  0  0  0  0  0  0  0  0  0
  -28.3932  -27.2450   20.6368 C   0  0  0  0  0  0  0  0  0  0  0  0
  -23.0027   -5.9682   22.5001 C   0  0  0  0  0  0  0  0  0  0  0  0
  -21.2273   -5.2187   24.5171 C   0  0  0  0  0  0  0  0  0  0  0  0
  -26.3418  -19.4943   22.9549 C   0  0  0  0  0  0  0  0  0  0  0  0
  -23.4365   -5.1482   23.5417 C   0  0  0  0  0  0  0  0  0  0  0  0
  -24.8427  -11.8045   20.7881 C   0  0  0  0  0  0  0  0  0  0  0  0
  -24.6253  -13.9809   20.5622 C   0  0  0  0  0  0  0  0  0  0  0  0
  -29.1948  -23.4650   21.2229 C   0  0  0  0  0  0  0  0  0  0  0  0
  -26.2024  -23.1345   22.1394 C   0  0  0  0  0  0  0  0  0  0  0  0
  -22.4629  -12.7735   20.9008 C   0  0  0  0  0  0  0  0  0  0  0  0
  -26.6318  -30.2118   24.8272 C   0  0  0  0  0  0  0  0  0  0  0  0
  -23.8839  -30.7191   23.1797 C   0  0  0  0  0  0  0  0  0  0  0  0
  -22.0495  -30.1483   20.3591 C   0  0  0  0  0  0  0  0  0  0  0  0
  -29.0320  -17.1913   21.6927 C   0  0  0  0  0  0  0  0  0  0  0  0
  -26.9951  -32.5175   29.3670 C   0  0  0  0  0  0  0  0  0  0  0  0
  -27.5177  -30.9769   22.5943 C   0  0  0  0  0  0  0  0  0  0  0  0
  -25.4147  -28.9196   22.2943 C   0  0  0  0  0  0  0  0  0  0  0  0
  -25.8653  -31.9153   28.5356 C   0  0  0  0  0  0  0  0  0  0  0  0
  -29.4931  -14.5841   19.3121 C   0  0  0  0  0  0  0  0  0  0  0  0
  -26.2485  -30.5237   28.0425 C   0  0  0  0  0  0  0  0  0  0  0  0
  -28.2458  -13.7136   19.4816 C   0  0  0  0  0  0  0  0  0  0  0  0
  -29.9788  -15.1453   20.6474 C   0  0  0  0  0  0  0  0  0  0  0  0
  -28.8369  -22.1179   19.3171 C   0  0  0  0  0  0  0  0  0  0  0  0
  -27.7121  -14.9857   21.5992 C   0  0  0  0  0  0  0  0  0  0  0  0
  -27.4838  -30.5805   27.1356 C   0  0  1  0  0  0  0  0  0  0  0  0
  -29.9888  -24.0639   20.0711 C   0  0  1  0  0  0  0  0  0  0  0  0
  -26.3183  -30.9113   23.5349 C   0  0  1  0  0  0  0  0  0  0  0  0
  -29.2856  -23.4922   18.8392 C   0  0  1  0  0  0  0  0  0  0  0  0
  -27.1476  -14.4506   20.2730 C   0  0  2  0  0  0  0  0  0  0  0  0
  -30.1758  -23.4204   17.6083 C   0  0  0  0  0  0  0  0  0  0  0  0
  -19.8255  -30.6646   19.3176 C   0  0  0  0  0  0  0  0  0  0  0  0
  -22.5523  -28.6804   25.0183 C   0  0  0  0  0  0  0  0  0  0  0  0
  -20.6690  -28.5327   23.3754 C   0  0  0  0  0  0  0  0  0  0  0  0
  -21.1608  -30.6966   24.5149 C   0  0  0  0  0  0  0  0  0  0  0  0
  -23.3129  -31.5348   18.0700 C   0  0  0  0  0  0  0  0  0  0  0  0
  -30.0092  -25.5827   20.1064 C   0  0  0  0  0  0  0  0  0  1  0  0
  -22.7344  -29.8525   22.7251 C   0  0  1  0  0  0  0  0  0  0  0  0
  -21.2796  -31.0897   19.4506 C   0  0  2  0  0  0  0  0  0  0  0  0
  -21.8059  -29.4353   23.9003 C   0  0  0  0  0  0  0  0  0  0  0  0
  -26.0908  -12.2498   20.6210 N   0  0  0  0  0  0  0  0  0  0  0  0
  -25.9257  -13.5767   20.4861 N   0  0  0  0  0  0  0  0  0  0  0  0
  -28.5665  -22.3030   20.7310 N   0  0  0  0  0  0  0  0  0  0  0  0
  -25.1721  -30.2194   22.9419 N   0  0  0  0  0  0  0  0  0  0  0  0
  -28.8862  -15.8332   21.3388 N   0  0  0  0  0  0  0  0  0  0  0  0
  -24.2815  -15.2813   20.4473 N   0  0  0  0  0  0  0  0  0  0  0  0
  -25.3496  -23.5445   21.1876 N   0  0  0  0  0  0  0  0  0  0  0  0
  -21.8679  -11.5200   21.0983 N   0  0  0  0  0  0  0  0  0  0  0  0
  -27.9156  -17.7476   22.3163 N   0  0  0  0  0  0  0  0  0  0  0  0
  -27.1200  -31.0462   25.8146 N   0  0  0  0  0  0  0  0  0  0  0  0
  -22.0598  -30.5928   21.6643 N   0  0  0  0  0  0  0  0  0  0  0  0
  -26.6294  -24.0118   23.0610 N   0  3  0  0  0  0  0  0  0  0  0  0
  -21.8892  -31.1112   18.0908 N   0  3  0  0  0  0  0  0  0  0  0  0
  -29.2030  -23.9296   22.3538 O   0  0  0  0  0  0  0  0  0  0  0  0
  -21.7369  -13.7944   20.8363 O   0  0  0  0  0  0  0  0  0  0  0  0
  -26.4432  -29.0047   24.9220 O   0  0  0  0  0  0  0  0  0  0  0  0
  -23.6476  -31.8029   23.7194 O   0  0  0  0  0  0  0  0  0  0  0  0
  -22.5848  -29.1195   19.9524 O   0  0  0  0  0  0  0  0  0  0  0  0
  -30.0604  -17.8222   21.4354 O   0  0  0  0  0  0  0  0  0  0  0  0
  -23.8830   -6.3418   21.4985 O   0  0  0  0  0  0  0  0  0  0  0  0
  -28.6704  -26.0678   20.0129 O   0  0  0  0  0  0  0  0  0  1  0  0
  -20.3751   -4.8601   25.4864 F   0  0  0  0  0  0  0  0  0  0  0  0
  -25.6317  -18.6054   23.6639 F   0  0  0  0  0  0  0  0  0  0  0  0
  -24.7052   -4.7183   23.5796 F   0  0  0  0  0  0  0  0  0  0  0  0
  1  2  1  0  0  0  0
  1  5  2  0  0  0  0
  2  6  2  0  0  0  0
  3  8  2  0  0  0  0
  3 17  1  0  0  0  0
  4  9  1  0  0  0  0
  4 17  2  0  0  0  0
  5 20  1  0  0  0  0
  6 22  1  0  0  0  0
  7 10  2  0  0  0  0
  7 21  1  0  0  0  0
  8 26  1  0  0  0  0
  9 26  2  0  0  0  0
 10 27  1  0  0  0  0
 11 12  2  0  0  0  0
 11 28  1  0  0  0  0
 12 29  1  0  0  0  0
 13 18  1  0  0  0  0
 13 30  2  0  0  0  0
 14 23  1  0  0  0  0
 14 27  2  0  0  0  0
 15 24  1  0  0  0  0
 15 25  2  0  0  0  0
 16 29  2  0  0  0  0
 16 31  1  0  0  0  0
 17 32  1  0  0  0  0
 18 24  2  0  0  0  0
 18 35  1  0  0  0  0
 19 32  1  0  0  0  0
 19 33  2  0  0  0  0
 19 36  1  0  0  0  0
 20 22  2  0  0  0  0
 20 41  1  0  0  0  0
 21 23  2  0  0  0  0
 21 42  1  0  0  0  0
 22 51  1  0  0  0  0
 23 43  1  0  0  0  0
 24 68  1  0  0  0  0
 25 30  1  0  0  0  0
 25 74  1  0  0  0  0
 26 85  1  0  0  0  0
 27 86  1  0  0  0  0
 28 31  2  0  0  0  0
 28 85  1  0  0  0  0
 29 87  1  0  0  0  0
 30 88  1  0  0  0  0
 31 89  1  0  0  0  0
 32 66  2  0  0  0  0
 33 67  1  0  0  0  0
 33 71  1  0  0  0  0
 34 52  1  0  0  0  0
 34 68  1  0  0  0  0
 34 79  2  0  0  0  0
 35 72  1  0  0  0  0
 35 77  2  0  0  0  0
 36 73  1  0  0  0  0
 36 80  2  0  0  0  0
 37 53  1  0  0  0  0
 37 75  1  0  0  0  0
 37 81  2  0  0  0  0
 38 63  1  0  0  0  0
 38 69  1  0  0  0  0
 38 82  2  0  0  0  0
 39 64  1  0  0  0  0
 39 76  1  0  0  0  0
 39 83  2  0  0  0  0
 40 70  1  0  0  0  0
 40 74  1  0  0  0  0
 40 84  2  0  0  0  0
 41 44  1  0  0  0  0
 42 53  1  0  0  0  0
 43 69  1  0  0  0  0
 44 46  1  0  0  0  0
 45 47  1  0  0  0  0
 45 48  1  0  0  0  0
 46 51  1  0  0  0  0
 47 55  1  0  0  0  0
 48 70  1  0  0  0  0
 49 54  1  0  0  0  0
 49 68  1  0  0  0  0
 50 55  1  0  0  0  0
 50 70  1  0  0  0  0
 51 75  1  0  0  0  0
 52 54  1  0  0  0  0
 52 62  1  0  0  0  0
 53 69  1  0  0  0  0
 54 56  1  0  0  0  0
 55 67  1  0  0  0  0
 57 64  1  0  0  0  0
 58 65  1  0  0  0  0
 59 65  1  0  0  0  0
 60 65  1  0  0  0  0
 61 78  1  0  0  0  0
 62 86  1  0  0  0  0
 63 65  1  0  0  0  0
 63 76  1  0  0  0  0
 64 78  1  0  0  0  0
 66 67  1  0  0  0  0
M  CHG  2  77   1  78   1
M  ISO  4  40 100  62 101  74 100  86 101
M  END
> <Batch ID>
0071

> <Smiles>
CNC(C)C(=O)NC(C(=O)N1Cc2cc([101O:1][101CH2:1]C3C(=O)N(c4cc([100NH:0][100C:0](=O)N5CCCC(n6nc(-c7ccc(Oc8ccc(F)cc8F)cc7)c(C(N)=O)c6N)C5)c(F)cc4C(=N)N)CC3C)ccc2CC1C(=O)NC1CCCc2ccccc21)C(C)(C)C

> <Shape>
0.315

> <Color>
0.097

> <Negative vol penalty>
0.000

$$$$

  -OEChem-04042323353D

 90 99  0     1  0  0  0  0  0999 V2000
  -20.8197  -33.1919   25.3209 C   0  0  0  0  0  0  0  0  0  0  0  0
  -22.0599  -32.7104   24.9144 C   0  0  0  0  0  0  0  0  0  0  0  0
  -24.2068  -12.6246   20.0710 C   0  0  0  0  0  0  0  0  0  0  0  0
  -26.0128  -13.3118   21.5213 C   0  0  0  0  0  0  0  0  0  0  0  0
  -19.7002  -32.3624   25.2695 C   0  0  0  0  0  0  0  0  0  0  0  0
  -22.1817  -31.3986   24.4573 C   0  0  0  0  0  0  0  0  0  0  0  0
  -25.9336  -29.3636   20.0655 C   0  0  0  0  0  0  0  0  0  0  0  0
  -24.6234  -11.2980   20.1808 C   0  0  0  0  0  0  0  0  0  0  0  0
  -26.4293  -11.9851   21.6311 C   0  0  0  0  0  0  0  0  0  0  0  0
  -27.1760  -28.7327   20.1113 C   0  0  0  0  0  0  0  0  0  0  0  0
  -24.3718   -8.7862   22.4304 C   0  0  0  0  0  0  0  0  0  0  0  0
  -23.3947   -7.8164   22.6543 C   0  0  0  0  0  0  0  0  0  0  0  0
  -26.0872  -26.5883   19.9222 C   0  0  0  0  0  0  0  0  0  0  0  0
  -29.9572  -22.6136   24.5126 C   0  0  0  0  0  0  0  0  0  0  0  0
  -29.2764  -22.2978   22.2161 C   0  0  0  0  0  0  0  0  0  0  0  0
  -24.0159   -6.7151   20.5956 C   0  0  0  0  0  0  0  0  0  0  0  0
  -24.9016  -13.6316   20.7412 C   0  0  0  0  0  0  0  0  0  0  0  0
  -23.2225  -15.5349   20.9971 C   0  0  0  0  0  0  0  0  0  0  0  0
  -19.8064  -31.0429   24.8025 C   0  0  0  0  0  0  0  0  0  0  0  0
  -24.7560  -28.6098   19.9586 C   0  0  0  0  0  0  0  0  0  0  0  0
  -21.0628  -30.5503   24.4009 C   0  0  0  0  0  0  0  0  0  0  0  0
  -24.8313  -27.2123   19.8727 C   0  0  0  0  0  0  0  0  0  0  0  0
  -29.3723  -21.3942   24.8537 C   0  0  0  0  0  0  0  0  0  0  0  0
  -28.7395  -20.6265   23.8760 C   0  0  0  0  0  0  0  0  0  0  0  0
  -29.9092  -23.0655   23.1938 C   0  0  0  0  0  0  0  0  0  0  0  0
  -28.6915  -21.0783   22.5572 C   0  0  0  0  0  0  0  0  0  0  0  0
  -25.7346  -10.9782   20.9609 C   0  0  0  0  0  0  0  0  0  0  0  0
  -27.2528  -27.3447   20.0426 C   0  0  0  0  0  0  0  0  0  0  0  0
  -25.1710   -8.7205   21.2890 C   0  0  0  0  0  0  0  0  0  0  0  0
  -23.2167   -6.7808   21.7370 C   0  0  0  0  0  0  0  0  0  0  0  0
  -24.9930   -7.6849   20.3716 C   0  0  0  0  0  0  0  0  0  0  0  0
  -24.4721  -15.0022   20.6277 C   0  0  0  0  0  0  0  0  0  0  0  0
  -23.3148  -16.8708   20.6915 C   0  0  0  0  0  0  0  0  0  0  0  0
  -31.6052  -26.8453   22.2210 C   0  0  0  0  0  0  0  0  0  0  0  0
  -31.8750  -28.1379   22.4603 C   0  0  0  0  0  0  0  0  0  0  0  0
  -22.0804  -14.8807   21.5657 C   0  0  0  0  0  0  0  0  0  0  0  0
  -22.1811  -28.2013   21.7771 C   0  0  0  0  0  0  0  0  0  0  0  0
  -21.1306  -26.4931   19.2274 C   0  0  0  0  0  0  0  0  0  0  0  0
  -22.5194  -24.1100   16.9017 C   0  0  0  0  0  0  0  0  0  0  0  0
  -27.9282  -20.6361   20.1975 C   0  0  0  0  0  0  0  0  0  0  0  0
  -18.5772  -30.1690   24.8098 C   0  0  0  0  0  0  0  0  0  0  0  0
  -23.4253  -29.3069   19.8835 C   0  0  0  0  0  0  0  0  0  0  0  0
  -23.5980  -26.3585   19.7368 C   0  0  0  0  0  0  0  0  0  0  0  0
  -32.4818  -25.7536   22.7793 C   0  0  0  0  0  0  0  0  0  0  0  0
  -18.7204  -28.9091   23.9598 C   0  0  0  0  0  0  0  0  0  0  0  0
  -25.5171  -19.8819   17.6886 C   0  0  0  0  0  0  0  0  0  0  0  0
  -20.0552  -28.2256   24.2392 C   0  0  0  0  0  0  0  0  0  0  0  0
  -24.8576  -18.5968   18.1942 C   0  0  0  0  0  0  0  0  0  0  0  0
  -31.6635  -24.7625   23.6077 C   0  0  0  0  0  0  0  0  0  0  0  0
  -27.0116  -19.9142   18.0035 C   0  0  0  0  0  0  0  0  0  0  0  0
  -29.6248  -25.3211   22.2644 C   0  0  0  0  0  0  0  0  0  0  0  0
  -26.6949  -18.3964   19.9179 C   0  0  0  0  0  0  0  0  0  0  0  0
  -21.2305  -29.1410   23.8757 C   0  0  1  0  0  0  0  0  0  0  0  0
  -30.4371  -26.3145   21.4102 C   0  0  1  0  0  0  0  0  0  0  0  0
  -22.2585  -28.4128   20.2915 C   0  0  1  0  0  0  0  0  0  0  0  0
  -25.1766  -18.3471   19.6813 C   0  0  2  0  0  0  0  0  0  0  0  0
  -29.4371  -20.9338   26.2733 C   0  0  0  0  0  0  0  0  0  0  0  0
  -21.8665  -23.5632   14.5411 C   0  0  0  0  0  0  0  0  0  0  0  0
  -26.6035  -19.2980   23.9492 C   0  0  0  0  0  0  0  0  0  0  0  0
  -28.7969  -18.1321   23.5482 C   0  0  0  0  0  0  0  0  0  0  0  0
  -19.4429  -24.2982   20.5096 C   0  0  0  0  0  0  0  0  0  0  0  0
  -20.0639  -22.8021   18.6006 C   0  0  0  0  0  0  0  0  0  0  0  0
  -18.7772  -24.8962   18.1742 C   0  0  0  0  0  0  0  0  0  0  0  0
  -25.2573  -24.6241   15.9024 C   0  0  0  0  0  0  0  0  0  0  0  0
  -29.4980  -27.3760   20.8262 C   0  0  0  0  0  0  0  0  0  1  0  0
  -21.2228  -25.0492   18.7967 C   0  0  1  0  0  0  0  0  0  0  0  0
  -22.8203  -24.3436   15.4322 C   0  0  2  0  0  0  0  0  0  0  0  0
  -28.1124  -19.3192   24.2475 C   0  0  0  0  0  0  0  0  0  0  0  0
  -19.8968  -24.2735   19.0364 C   0  0  0  0  0  0  0  0  0  0  0  0
  -25.2977  -15.9244   20.1256 N   0  0  0  0  0  0  0  0  0  0  0  0
  -24.5653  -17.0500   20.1774 N   0  0  0  0  0  0  0  0  0  0  0  0
  -30.4972  -24.2896   22.8519 N   0  0  2  0  0  0  0  0  0  0  0  0
  -22.3199  -27.0865   19.6740 N   0  0  0  0  0  0  0  0  0  0  0  0
  -27.2371  -19.6744   19.4305 N   0  0  0  0  0  0  0  0  0  0  0  0
  -22.4475  -17.8979   20.8151 N   0  0  0  0  0  0  0  0  0  0  0  0
  -22.1550  -13.5037   21.8160 N   0  0  0  0  0  0  0  0  0  0  0  0
  -28.0538  -20.3143   21.5485 N   0  0  0  0  0  0  0  0  0  0  0  0
  -21.4358  -29.1553   22.4432 N   0  0  0  0  0  0  0  0  0  0  0  0
  -21.6625  -25.0654   17.4057 N   0  0  0  0  0  0  0  0  0  0  0  0
  -24.2132  -23.9193   15.1148 N   0  3  0  0  0  0  0  0  0  0  0  0
  -21.0192  -15.4958   21.8284 O   0  0  0  0  0  0  0  0  0  0  0  0
  -22.7540  -27.2426   22.2815 O   0  0  0  0  0  0  0  0  0  0  0  0
  -20.0450  -27.0753   19.1630 O   0  0  0  0  0  0  0  0  0  0  0  0
  -22.9939  -23.1714   17.5377 O   0  0  0  0  0  0  0  0  0  0  0  0
  -28.3520  -21.6817   19.6984 O   0  0  0  0  0  0  0  0  0  0  0  0
  -26.1412   -9.6837   21.0684 O   0  0  0  0  0  0  0  0  0  0  0  0
  -28.4642  -26.7263   20.0877 O   0  0  0  0  0  0  0  0  0  1  0  0
  -22.2793   -5.8487   21.9530 F   0  0  0  0  0  0  0  0  0  0  0  0
  -25.7586   -7.6159   19.2739 F   0  0  0  0  0  0  0  0  0  0  0  0
  -28.2139  -19.0452   25.5983 F   0  0  0  0  0  0  0  0  0  0  0  0
  1  2  1  0  0  0  0
  1  5  2  0  0  0  0
  2  6  2  0  0  0  0
  3  8  2  0  0  0  0
  3 17  1  0  0  0  0
  4  9  1  0  0  0  0
  4 17  2  0  0  0  0
  5 19  1  0  0  0  0
  6 21  1  0  0  0  0
  7 10  2  0  0  0  0
  7 20  1  0  0  0  0
  8 27  1  0  0  0  0
  9 27  2  0  0  0  0
 10 28  1  0  0  0  0
 11 12  2  0  0  0  0
 11 29  1  0  0  0  0
 12 30  1  0  0  0  0
 13 22  1  0  0  0  0
 13 28  2  0  0  0  0
 14 23  2  0  0  0  0
 14 25  1  0  0  0  0
 15 25  2  0  0  0  0
 15 26  1  0  0  0  0
 16 30  2  0  0  0  0
 16 31  1  0  0  0  0
 17 32  1  0  0  0  0
 18 32  1  0  0  0  0
 18 33  2  0  0  0  0
 18 36  1  0  0  0  0
 19 21  2  0  0  0  0
 19 41  1  0  0  0  0
 20 22  2  0  0  0  0
 20 42  1  0  0  0  0
 21 53  1  0  0  0  0
 22 43  1  0  0  0  0
 23 24  1  0  0  0  0
 23 57  1  0  0  0  0
 24 26  2  0  0  0  0
 24 68  1  0  0  0  0
 25 72  1  0  0  0  0
 26 77  1  0  0  0  0
 27 86  1  0  0  0  0
 28 87  1  0  0  0  0
 29 31  2  0  0  0  0
 29 86  1  0  0  0  0
 30 88  1  0  0  0  0
 31 89  1  0  0  0  0
 32 70  2  0  0  0  0
 33 71  1  0  0  0  0
 33 75  1  0  0  0  0
 34 35  2  0  0  0  0
 34 44  1  0  0  0  0
 34 54  1  0  0  0  0
 36 76  1  0  0  0  0
 36 81  2  0  0  0  0
 37 55  1  0  0  0  0
 37 78  1  0  0  0  0
 37 82  2  0  0  0  0
 38 66  1  0  0  0  0
 38 73  1  0  0  0  0
 38 83  2  0  0  0  0
 39 67  1  0  0  0  0
 39 79  1  0  0  0  0
 39 84  2  0  0  0  0
 40 74  1  0  0  0  0
 40 77  1  0  0  0  0
 40 85  2  0  0  0  0
 41 45  1  0  0  0  0
 42 55  1  0  0  0  0
 43 73  1  0  0  0  0
 44 49  1  0  0  0  0
 45 47  1  0  0  0  0
 46 48  1  0  0  0  0
 46 50  1  0  0  0  0
 47 53  1  0  0  0  0
 48 56  1  0  0  0  0
 49 72  1  0  0  0  0
 50 74  1  0  0  0  0
 51 54  1  0  0  0  0
 51 72  1  0  0  0  0
 52 56  1  0  0  0  0
 52 74  1  0  0  0  0
 53 78  1  0  0  0  0
 54 65  1  0  0  0  0
 55 73  1  0  0  0  0
 56 71  1  0  0  0  0
 58 67  1  0  0  0  0
 59 68  1  0  0  0  0
 60 68  1  0  0  0  0
 61 69  1  0  0  0  0
 62 69  1  0  0  0  0
 63 69  1  0  0  0  0
 64 80  1  0  0  0  0
 65 87  1  0  0  0  0
 66 69  1  0  0  0  0
 66 79  1  0  0  0  0
 67 80  1  0  0  0  0
 68 90  1  0  0  0  0
 70 71  1  0  0  0  0
M  CHG  1  80   1
M  ISO  4  40 100  65 101  77 100  87 101
M  END
> <Batch ID>
0071

> <Smiles>
C=C1CCN(c2cc(C)c(C(C)(C)F)c([100NH:0][100C:0](=O)N3CCCC(n4nc(-c5ccc(Oc6ccc(F)cc6F)cc5)c(C(N)=O)c4N)C3)c2)CC1[101CH2:1][101O:1]c1ccc2c(c1)CN(C(=O)C(NC(=O)C(C)NC)C(C)(C)C)C(C(=O)NC1CCCc3ccccc31)C2

> <Shape>
0.199

> <Color>
0.099

> <Negative vol penalty>
0.000

$$$$

  -OEChem-04042323353D

 88 97  0     1  0  0  0  0  0999 V2000
  -17.6327  -13.2278   23.7208 C   0  0  0  0  0  0  0  0  0  0  0  0
  -18.9449  -13.6247   23.9573 C   0  0  0  0  0  0  0  0  0  0  0  0
  -23.0003   -9.8940   19.9808 C   0  0  0  0  0  0  0  0  0  0  0  0
  -23.7254   -9.9445   22.2849 C   0  0  0  0  0  0  0  0  0  0  0  0
  -16.6401  -14.1870   23.5246 C   0  0  0  0  0  0  0  0  0  0  0  0
  -19.2655  -14.9812   23.9967 C   0  0  0  0  0  0  0  0  0  0  0  0
  -23.4648  -17.6699   27.5524 C   0  0  0  0  0  0  0  0  0  0  0  0
  -22.2336   -8.7596   20.2470 C   0  0  0  0  0  0  0  0  0  0  0  0
  -22.9586   -8.8101   22.5511 C   0  0  0  0  0  0  0  0  0  0  0  0
  -24.7778  -18.0728   27.3126 C   0  0  0  0  0  0  0  0  0  0  0  0
  -23.2023   -5.4712   22.0787 C   0  0  0  0  0  0  0  0  0  0  0  0
  -23.7896   -4.4538   22.8307 C   0  0  0  0  0  0  0  0  0  0  0  0
  -24.0008  -20.3094   26.8510 C   0  0  0  0  0  0  0  0  0  0  0  0
  -31.6164  -19.3361   22.7703 C   0  0  0  0  0  0  0  0  0  0  0  0
  -29.8133  -17.7295   22.7021 C   0  0  0  0  0  0  0  0  0  0  0  0
  -31.8886  -17.2655   21.5554 C   0  0  0  0  0  0  0  0  0  0  0  0
  -22.0656   -4.6968   24.5059 C   0  0  0  0  0  0  0  0  0  0  0  0
  -23.7463  -10.4864   20.9998 C   0  0  0  0  0  0  0  0  0  0  0  0
  -24.1321  -13.0020   20.8242 C   0  0  0  0  0  0  0  0  0  0  0  0
  -16.9469  -15.5561   23.5713 C   0  0  0  0  0  0  0  0  0  0  0  0
  -22.4070  -18.5826   27.4324 C   0  0  0  0  0  0  0  0  0  0  0  0
  -18.2763  -15.9596   23.7997 C   0  0  0  0  0  0  0  0  0  0  0  0
  -22.6755  -19.9162   27.0923 C   0  0  0  0  0  0  0  0  0  0  0  0
  -30.3236  -18.9552   23.1298 C   0  0  0  0  0  0  0  0  0  0  0  0
  -32.3989  -18.4912   21.9830 C   0  0  0  0  0  0  0  0  0  0  0  0
  -30.5958  -16.8846   21.9149 C   0  0  0  0  0  0  0  0  0  0  0  0
  -22.2127   -8.2177   21.5321 C   0  0  0  0  0  0  0  0  0  0  0  0
  -25.0457  -19.3920   26.9590 C   0  0  0  0  0  0  0  0  0  0  0  0
  -22.0467   -6.1015   22.5403 C   0  0  0  0  0  0  0  0  0  0  0  0
  -23.2213   -4.0666   24.0443 C   0  0  0  0  0  0  0  0  0  0  0  0
  -21.4784   -5.7143   23.7538 C   0  0  0  0  0  0  0  0  0  0  0  0
  -24.5390  -11.6579   20.7254 C   0  0  0  0  0  0  0  0  0  0  0  0
  -25.2420  -13.7244   20.4600 C   0  0  0  0  0  0  0  0  0  0  0  0
  -28.8410  -21.6030   25.1779 C   0  0  0  0  0  0  0  0  0  0  0  0
  -27.8470  -20.7130   25.1371 C   0  0  0  0  0  0  0  0  0  0  0  0
  -29.9614  -21.0443   24.3952 C   0  0  0  0  0  0  0  0  0  0  0  0
  -22.8642  -13.5486   21.2107 C   0  0  0  0  0  0  0  0  0  0  0  0
  -19.8276  -18.7970   25.5873 C   0  0  0  0  0  0  0  0  0  0  0  0
  -19.1420  -21.3198   27.5077 C   0  0  0  0  0  0  0  0  0  0  0  0
  -34.3706  -20.0520   21.9556 C   0  0  0  0  0  0  0  0  0  0  0  0
  -20.2809  -23.7483   29.6177 C   0  0  0  0  0  0  0  0  0  0  0  0
  -30.7216  -14.6844   20.6945 C   0  0  0  0  0  0  0  0  0  0  0  0
  -15.8488  -16.5555   23.3064 C   0  0  0  0  0  0  0  0  0  0  0  0
  -20.9990  -18.1387   27.7205 C   0  0  0  0  0  0  0  0  0  0  0  0
  -21.5776  -20.9399   26.9700 C   0  0  0  0  0  0  0  0  0  0  0  0
  -28.1936  -19.5003   24.3440 C   0  0  0  0  0  0  0  0  0  0  0  0
  -16.2024  -17.9770   23.7360 C   0  0  0  0  0  0  0  0  0  0  0  0
  -29.6031  -12.2321   18.3681 C   0  0  0  0  0  0  0  0  0  0  0  0
  -17.6027  -18.3466   23.2572 C   0  0  0  0  0  0  0  0  0  0  0  0
  -28.1524  -11.9746   18.7821 C   0  0  0  0  0  0  0  0  0  0  0  0
  -30.5036  -12.4751   19.5780 C   0  0  0  0  0  0  0  0  0  0  0  0
  -28.5883  -13.2642   20.9115 C   0  0  0  0  0  0  0  0  0  0  0  0
  -18.6588  -17.4219   23.8745 C   0  0  1  0  0  0  0  0  0  0  0  0
  -19.9464  -19.0289   27.0671 C   0  0  1  0  0  0  0  0  0  0  0  0
  -27.6306  -13.0782   19.7232 C   0  0  2  0  0  0  0  0  0  0  0  0
  -35.7598  -20.0822   21.3692 C   0  0  0  0  0  0  0  0  0  0  0  0
  -19.4881  -25.6851   31.0026 C   0  0  0  0  0  0  0  0  0  0  0  0
  -18.8476  -23.0035   24.9802 C   0  0  0  0  0  0  0  0  0  0  0  0
  -19.0057  -25.0524   26.4104 C   0  0  0  0  0  0  0  0  0  0  0  0
  -17.1236  -23.4480   26.7364 C   0  0  0  0  0  0  0  0  0  0  0  0
  -21.2411  -22.4996   32.1232 C   0  0  0  0  0  0  0  0  0  0  0  0
  -26.5172  -20.8454   25.7851 C   0  0  0  0  0  0  0  0  0  1  0  0
  -19.4500  -22.7975   27.4823 C   0  0  1  0  0  0  0  0  0  0  0  0
  -19.8041  -24.1976   30.9872 C   0  0  2  0  0  0  0  0  0  0  0  0
  -18.6274  -23.5558   26.4027 C   0  0  0  0  0  0  0  0  0  0  0  0
  -25.8083  -11.5312   20.3293 N   0  0  0  0  0  0  0  0  0  0  0  0
  -26.2085  -12.8050   20.1759 N   0  0  0  0  0  0  0  0  0  0  0  0
  -29.5446  -19.7967   23.9145 N   0  0  0  0  0  0  0  0  0  0  0  0
  -20.2169  -20.4556   27.2554 N   0  0  0  0  0  0  0  0  0  0  0  0
  -29.9487  -13.5361   20.4214 N   0  0  0  0  0  0  0  0  0  0  0  0
  -25.4757  -15.0501   20.3581 N   0  0  0  0  0  0  0  0  0  0  0  0
  -21.8322  -12.6646   21.5540 N   0  0  0  0  0  0  0  0  0  0  0  0
  -33.6924  -18.8716   21.6238 N   0  0  0  0  0  0  0  0  0  0  0  0
  -30.0775  -15.6396   21.4801 N   0  0  0  0  0  0  0  0  0  0  0  0
  -18.9285  -17.8056   25.2436 N   0  0  0  0  0  0  0  0  0  0  0  0
  -19.2405  -23.2816   28.8425 N   0  0  0  0  0  0  0  0  0  0  0  0
  -20.8504  -23.9287   32.0138 N   0  3  0  0  0  0  0  0  0  0  0  0
  -31.0287  -21.6135   24.2337 O   0  0  0  0  0  0  0  0  0  0  0  0
  -22.6477  -14.7839   21.2346 O   0  0  0  0  0  0  0  0  0  0  0  0
  -20.5006  -19.4689   24.8145 O   0  0  0  0  0  0  0  0  0  0  0  0
  -17.9917  -20.9459   27.7498 O   0  0  0  0  0  0  0  0  0  0  0  0
  -33.9549  -20.9853   22.6345 O   0  0  0  0  0  0  0  0  0  0  0  0
  -21.4579  -23.8091   29.2692 O   0  0  0  0  0  0  0  0  0  0  0  0
  -31.8604  -14.8232   20.2406 O   0  0  0  0  0  0  0  0  0  0  0  0
  -21.4644   -7.1109   21.7922 O   0  0  0  0  0  0  0  0  0  0  0  0
  -26.3263  -19.7877   26.7238 O   0  0  0  0  0  0  0  0  0  1  0  0
  -23.7845   -3.0885   24.7656 F   0  0  0  0  0  0  0  0  0  0  0  0
  -20.3676   -6.3153   24.2019 F   0  0  0  0  0  0  0  0  0  0  0  0
  1  2  1  0  0  0  0
  1  5  2  0  0  0  0
  2  6  2  0  0  0  0
  3  8  2  0  0  0  0
  3 18  1  0  0  0  0
  4  9  1  0  0  0  0
  4 18  2  0  0  0  0
  5 20  1  0  0  0  0
  6 22  1  0  0  0  0
  7 10  2  0  0  0  0
  7 21  1  0  0  0  0
  8 27  1  0  0  0  0
  9 27  2  0  0  0  0
 10 28  1  0  0  0  0
 11 12  2  0  0  0  0
 11 29  1  0  0  0  0
 12 30  1  0  0  0  0
 13 23  1  0  0  0  0
 13 28  2  0  0  0  0
 14 24  1  0  0  0  0
 14 25  2  0  0  0  0
 15 24  2  0  0  0  0
 15 26  1  0  0  0  0
 16 25  1  0  0  0  0
 16 26  2  0  0  0  0
 17 30  2  0  0  0  0
 17 31  1  0  0  0  0
 18 32  1  0  0  0  0
 19 32  1  0  0  0  0
 19 33  2  0  0  0  0
 19 37  1  0  0  0  0
 20 22  2  0  0  0  0
 20 43  1  0  0  0  0
 21 23  2  0  0  0  0
 21 44  1  0  0  0  0
 22 53  1  0  0  0  0
 23 45  1  0  0  0  0
 24 68  1  0  0  0  0
 25 73  1  0  0  0  0
 26 74  1  0  0  0  0
 27 85  1  0  0  0  0
 28 86  1  0  0  0  0
 29 31  2  0  0  0  0
 29 85  1  0  0  0  0
 30 87  1  0  0  0  0
 31 88  1  0  0  0  0
 32 66  2  0  0  0  0
 33 67  1  0  0  0  0
 33 71  1  0  0  0  0
 34 35  2  0  0  0  0
 34 36  1  0  0  0  0
 35 46  1  0  0  0  0
 35 62  1  0  0  0  0
 36 68  1  0  0  0  0
 36 78  2  0  0  0  0
 37 72  1  0  0  0  0
 37 79  2  0  0  0  0
 38 54  1  0  0  0  0
 38 75  1  0  0  0  0
 38 80  2  0  0  0  0
 39 63  1  0  0  0  0
 39 69  1  0  0  0  0
 39 81  2  0  0  0  0
 40 56  1  0  0  0  0
 40 73  1  0  0  0  0
 40 82  2  0  0  0  0
 41 64  1  0  0  0  0
 41 76  1  0  0  0  0
 41 83  2  0  0  0  0
 42 70  1  0  0  0  0
 42 74  1  0  0  0  0
 42 84  2  0  0  0  0
 43 47  1  0  0  0  0
 44 54  1  0  0  0  0
 45 69  1  0  0  0  0
 46 68  1  0  0  0  0
 47 49  1  0  0  0  0
 48 50  1  0  0  0  0
 48 51  1  0  0  0  0
 49 53  1  0  0  0  0
 50 55  1  0  0  0  0
 51 70  1  0  0  0  0
 52 55  1  0  0  0  0
 52 70  1  0  0  0  0
 53 75  1  0  0  0  0
 54 69  1  0  0  0  0
 55 67  1  0  0  0  0
 57 64  1  0  0  0  0
 58 65  1  0  0  0  0
 59 65  1  0  0  0  0
 60 65  1  0  0  0  0
 61 77  1  0  0  0  0
 62 86  1  0  0  0  0
 63 65  1  0  0  0  0
 63 76  1  0  0  0  0
 64 77  1  0  0  0  0
 66 67  1  0  0  0  0
M  CHG  1  77   1
M  ISO  4  42 100  62 101  74 100  86 101
M  END
> <Batch ID>
0071

> <Smiles>
CNC(C)C(=O)NC(C(=O)N1Cc2cc([101O:1][101CH2:1]C3=CC(=O)N(c4cc(NC(C)=O)cc([100NH:0][100C:0](=O)N5CCCC(n6nc(-c7ccc(Oc8ccc(F)cc8F)cc7)c(C(N)=O)c6N)C5)c4)C3)ccc2CC1C(=O)NC1CCCc2ccccc21)C(C)(C)C

> <Shape>
0.172

> <Color>
0.189

> <Negative vol penalty>
0.000

$$$$

  -OEChem-04042323353D

 85 93  0     1  0  0  0  0  0999 V2000
  -36.1551  -34.1355   19.5908 C   0  0  0  0  0  0  0  0  0  0  0  0
  -35.3353  -33.0191   19.7209 C   0  0  0  0  0  0  0  0  0  0  0  0
  -23.9362   -9.6435   21.5636 C   0  0  0  0  0  0  0  0  0  0  0  0
  -24.4989  -10.7909   23.6140 C   0  0  0  0  0  0  0  0  0  0  0  0
  -31.1736  -20.1152   21.2198 C   0  0  0  0  0  0  0  0  0  0  0  0
  -36.0466  -35.1883   20.4984 C   0  0  0  0  0  0  0  0  0  0  0  0
  -34.4072  -32.9543   20.7596 C   0  0  0  0  0  0  0  0  0  0  0  0
  -29.8750  -31.3052   19.2152 C   0  0  0  0  0  0  0  0  0  0  0  0
  -30.8757  -18.8213   20.7925 C   0  0  0  0  0  0  0  0  0  0  0  0
  -23.4662   -8.5567   22.3008 C   0  0  0  0  0  0  0  0  0  0  0  0
  -24.0287   -9.7041   24.3512 C   0  0  0  0  0  0  0  0  0  0  0  0
  -29.7321  -29.9334   19.0116 C   0  0  0  0  0  0  0  0  0  0  0  0
  -20.6856   -7.7458   24.0454 C   0  0  0  0  0  0  0  0  0  0  0  0
  -19.4661   -7.1846   23.6669 C   0  0  0  0  0  0  0  0  0  0  0  0
  -28.8149  -20.5769   21.4663 C   0  0  0  0  0  0  0  0  0  0  0  0
  -28.6605  -29.7319   21.1634 C   0  0  0  0  0  0  0  0  0  0  0  0
  -20.5625   -5.0682   23.2722 C   0  0  0  0  0  0  0  0  0  0  0  0
  -24.4526  -10.7606   22.2202 C   0  0  0  0  0  0  0  0  0  0  0  0
  -30.1432  -20.9930   21.5567 C   0  0  0  0  0  0  0  0  0  0  0  0
  -24.2023  -13.0051   21.0339 C   0  0  0  0  0  0  0  0  0  0  0  0
  -35.1100  -35.1406   21.5430 C   0  0  0  0  0  0  0  0  0  0  0  0
  -29.4208  -31.9000   20.4011 C   0  0  0  0  0  0  0  0  0  0  0  0
  -34.2870  -34.0069   21.6829 C   0  0  0  0  0  0  0  0  0  0  0  0
  -28.7965  -31.1118   21.3785 C   0  0  0  0  0  0  0  0  0  0  0  0
  -29.5474  -18.4051   20.7021 C   0  0  0  0  0  0  0  0  0  0  0  0
  -23.5124   -8.5870   23.6945 C   0  0  0  0  0  0  0  0  0  0  0  0
  -29.1274  -29.1460   19.9871 C   0  0  0  0  0  0  0  0  0  0  0  0
  -21.8437   -6.9683   24.0373 C   0  0  0  0  0  0  0  0  0  0  0  0
  -19.4045   -5.8458   23.2803 C   0  0  0  0  0  0  0  0  0  0  0  0
  -28.5170  -19.2829   21.0390 C   0  0  0  0  0  0  0  0  0  0  0  0
  -21.7821   -5.6295   23.6507 C   0  0  0  0  0  0  0  0  0  0  0  0
  -24.9389  -11.8834   21.4593 C   0  0  0  0  0  0  0  0  0  0  0  0
  -25.1129  -13.7761   20.3536 C   0  0  0  0  0  0  0  0  0  0  0  0
  -29.5066  -25.6320   20.5786 C   0  0  0  0  0  0  0  0  0  0  0  0
  -29.5845  -26.9601   20.6824 C   0  0  0  0  0  0  0  0  0  1  0  0
  -30.4578  -22.3636   22.0095 C   0  0  0  0  0  0  0  0  0  0  0  0
  -22.8186  -13.3219   21.2358 C   0  0  0  0  0  0  0  0  0  0  0  0
  -30.1825  -24.7889   21.5844 C   0  0  0  0  0  0  0  0  0  0  0  0
  -30.7993  -33.4858   22.7862 C   0  0  0  0  0  0  0  0  0  0  0  0
  -27.7337  -33.9119   23.7572 C   0  0  0  0  0  0  0  0  0  0  0  0
  -24.5000  -32.8221   23.7051 C   0  0  0  0  0  0  0  0  0  0  0  0
  -30.1538  -16.0964   19.8967 C   0  0  0  0  0  0  0  0  0  0  0  0
  -35.0621  -36.2821   22.5276 C   0  0  0  0  0  0  0  0  0  0  0  0
  -29.5584  -33.3853   20.5939 C   0  0  0  0  0  0  0  0  0  0  0  0
  -28.2736  -31.7049   22.6604 C   0  0  0  0  0  0  0  0  0  0  0  0
  -33.7945  -36.3001   23.3780 C   0  0  0  0  0  0  0  0  0  0  0  0
  -29.8162  -12.7238   18.8065 C   0  0  0  0  0  0  0  0  0  0  0  0
  -33.4965  -34.9064   23.9216 C   0  0  0  0  0  0  0  0  0  0  0  0
  -28.4566  -12.2968   19.3645 C   0  0  0  0  0  0  0  0  0  0  0  0
  -30.5594  -13.6481   19.7693 C   0  0  0  0  0  0  0  0  0  0  0  0
  -28.4376  -14.3937   20.7750 C   0  0  0  0  0  0  0  0  0  0  0  0
  -33.2509  -33.9105   22.7817 C   0  0  1  0  0  0  0  0  0  0  0  0
  -29.5224  -33.8033   22.0607 C   0  0  1  0  0  0  0  0  0  0  0  0
  -27.6237  -13.5139   19.8121 C   0  0  2  0  0  0  0  0  0  0  0  0
  -22.2268  -33.3544   24.6251 C   0  0  0  0  0  0  0  0  0  0  0  0
  -28.5635  -32.7696   26.4621 C   0  0  0  0  0  0  0  0  0  0  0  0
  -26.1381  -32.4411   26.9892 C   0  0  0  0  0  0  0  0  0  0  0  0
  -27.0256  -34.7377   26.5883 C   0  0  0  0  0  0  0  0  0  0  0  0
  -23.3720  -33.2267   20.9990 C   0  0  0  0  0  0  0  0  0  0  0  0
  -26.7754  -33.1478   24.6385 C   0  0  1  0  0  0  0  0  0  0  0  0
  -23.1931  -33.5571   23.4684 C   0  0  2  0  0  0  0  0  0  0  0  0
  -27.1371  -33.2622   26.1463 C   0  0  0  0  0  0  0  0  0  0  0  0
  -26.2188  -11.9333   21.0807 N   0  0  0  0  0  0  0  0  0  0  0  0
  -26.2936  -13.0956   20.4103 N   0  0  0  0  0  0  0  0  0  0  0  0
  -28.4373  -33.1609   22.8050 N   0  0  0  0  0  0  0  0  0  0  0  0
  -29.7105  -14.7804   20.1464 N   0  0  0  0  0  0  0  0  0  0  0  0
  -25.0109  -14.9628   19.7183 N   0  0  0  0  0  0  0  0  0  0  0  0
  -22.0250  -12.4198   21.9575 N   0  0  0  0  0  0  0  0  0  0  0  0
  -29.2483  -17.0899   20.2679 N   0  0  0  0  0  0  0  0  0  0  0  0
  -29.9784  -23.3917   21.2946 N   0  0  0  0  0  0  0  0  0  0  0  0
  -31.9200  -34.0812   22.2394 N   0  0  0  0  0  0  0  0  0  0  0  0
  -25.4401  -33.6324   24.3059 N   0  0  0  0  0  0  0  0  0  0  0  0
  -31.2048  -22.4986   23.1050 N   0  3  0  0  0  0  0  0  0  0  0  0
  -22.5419  -33.0670   22.2206 N   0  3  0  0  0  0  0  0  0  0  0  0
  -22.2974  -14.3658   20.7754 O   0  0  0  0  0  0  0  0  0  0  0  0
  -30.8321  -25.1821   22.5387 O   0  0  0  0  0  0  0  0  0  0  0  0
  -30.7697  -32.7560   23.7702 O   0  0  0  0  0  0  0  0  0  0  0  0
  -27.8483  -35.1314   23.9033 O   0  0  0  0  0  0  0  0  0  0  0  0
  -24.6689  -31.6456   23.3920 O   0  0  0  0  0  0  0  0  0  0  0  0
  -31.2439  -16.3243   19.3661 O   0  0  0  0  0  0  0  0  0  0  0  0
  -23.0535   -7.5267   24.4142 O   0  0  0  0  0  0  0  0  0  0  0  0
  -28.9872  -27.8067   19.7912 O   0  0  0  0  0  0  0  0  0  1  0  0
  -18.2331   -5.3065   22.9183 F   0  0  0  0  0  0  0  0  0  0  0  0
  -27.2368  -18.8941   20.9545 F   0  0  0  0  0  0  0  0  0  0  0  0
  -22.8911   -4.8772   23.6421 F   0  0  0  0  0  0  0  0  0  0  0  0
  1  2  1  0  0  0  0
  1  6  2  0  0  0  0
  2  7  2  0  0  0  0
  3 10  2  0  0  0  0
  3 18  1  0  0  0  0
  4 11  1  0  0  0  0
  4 18  2  0  0  0  0
  5  9  2  0  0  0  0
  5 19  1  0  0  0  0
  6 21  1  0  0  0  0
  7 23  1  0  0  0  0
  8 12  2  0  0  0  0
  8 22  1  0  0  0  0
  9 25  1  0  0  0  0
 10 26  1  0  0  0  0
 11 26  2  0  0  0  0
 12 27  1  0  0  0  0
 13 14  2  0  0  0  0
 13 28  1  0  0  0  0
 14 29  1  0  0  0  0
 15 19  2  0  0  0  0
 15 30  1  0  0  0  0
 16 24  1  0  0  0  0
 16 27  2  0  0  0  0
 17 29  2  0  0  0  0
 17 31  1  0  0  0  0
 18 32  1  0  0  0  0
 19 36  1  0  0  0  0
 20 32  1  0  0  0  0
 20 33  2  0  0  0  0
 20 37  1  0  0  0  0
 21 23  2  0  0  0  0
 21 43  1  0  0  0  0
 22 24  2  0  0  0  0
 22 44  1  0  0  0  0
 23 52  1  0  0  0  0
 24 45  1  0  0  0  0
 25 30  2  0  0  0  0
 25 69  1  0  0  0  0
 26 81  1  0  0  0  0
 27 82  1  0  0  0  0
 28 31  2  0  0  0  0
 28 81  1  0  0  0  0
 29 83  1  0  0  0  0
 30 84  1  0  0  0  0
 31 85  1  0  0  0  0
 32 63  2  0  0  0  0
 33 64  1  0  0  0  0
 33 67  1  0  0  0  0
 34 35  2  0  0  0  0
 34 38  1  0  0  0  0
 35 82  1  0  0  0  0
 36 70  1  0  0  0  0
 36 73  2  0  0  0  0
 37 68  1  0  0  0  0
 37 75  2  0  0  0  0
 38 70  1  0  0  0  0
 38 76  2  0  0  0  0
 39 53  1  0  0  0  0
 39 71  1  0  0  0  0
 39 77  2  0  0  0  0
 40 60  1  0  0  0  0
 40 65  1  0  0  0  0
 40 78  2  0  0  0  0
 41 61  1  0  0  0  0
 41 72  1  0  0  0  0
 41 79  2  0  0  0  0
 42 66  1  0  0  0  0
 42 69  1  0  0  0  0
 42 80  2  0  0  0  0
 43 46  1  0  0  0  0
 44 53  1  0  0  0  0
 45 65  1  0  0  0  0
 46 48  1  0  0  0  0
 47 49  1  0  0  0  0
 47 50  1  0  0  0  0
 48 52  1  0  0  0  0
 49 54  1  0  0  0  0
 50 66  1  0  0  0  0
 51 54  1  0  0  0  0
 51 66  1  0  0  0  0
 52 71  1  0  0  0  0
 53 65  1  0  0  0  0
 54 64  1  0  0  0  0
 55 61  1  0  0  0  0
 56 62  1  0  0  0  0
 57 62  1  0  0  0  0
 58 62  1  0  0  0  0
 59 74  1  0  0  0  0
 60 62  1  0  0  0  0
 60 72  1  0  0  0  0
 61 74  1  0  0  0  0
 63 64  1  0  0  0  0
M  CHG  2  73   1  74   1
M  ISO  4  35 101  42 100  69 100  82 101
M  END
> <Batch ID>
0071

> <Smiles>
CNC(C)C(=O)NC(C(=O)N1Cc2cc([101O:1][101CH:1]=CC(=O)NC(=N)c3ccc([100NH:0][100C:0](=O)N4CCCC(n5nc(-c6ccc(Oc7ccc(F)cc7F)cc6)c(C(N)=O)c5N)C4)c(F)c3)ccc2CC1C(=O)NC1CCCc2ccccc21)C(C)(C)C

> <Shape>
0.244

> <Color>
0.128

> <Negative vol penalty>
0.000

$$$$

  -OEChem-04042323353D

 84 93  0     1  0  0  0  0  0999 V2000
  -28.1274  -24.1677   17.5916 C   0  0  0  0  0  0  0  0  0  0  0  0
  -26.9084  -24.4841   18.1826 C   0  0  0  0  0  0  0  0  0  0  0  0
  -16.0186  -22.0912   24.0060 C   0  0  0  0  0  0  0  0  0  0  0  0
  -26.8869  -21.3811   22.1631 C   0  0  0  0  0  0  0  0  0  0  0  0
  -27.0678  -18.9749   22.2846 C   0  0  0  0  0  0  0  0  0  0  0  0
  -29.3143  -24.6460   18.1452 C   0  0  0  0  0  0  0  0  0  0  0  0
  -26.8757  -25.2782   19.3284 C   0  0  0  0  0  0  0  0  0  0  0  0
  -23.3051  -28.8625   19.1067 C   0  0  0  0  0  0  0  0  0  0  0  0
  -16.2560  -23.3344   23.4197 C   0  0  0  0  0  0  0  0  0  0  0  0
  -16.9500  -21.0628   23.8619 C   0  0  0  0  0  0  0  0  0  0  0  0
  -27.8579  -21.4036   21.1621 C   0  0  0  0  0  0  0  0  0  0  0  0
  -28.0389  -18.9974   21.2835 C   0  0  0  0  0  0  0  0  0  0  0  0
  -21.9906  -28.4677   19.3515 C   0  0  0  0  0  0  0  0  0  0  0  0
  -28.1377  -19.2825   17.9175 C   0  0  0  0  0  0  0  0  0  0  0  0
  -28.0288  -18.3456   16.8900 C   0  0  0  0  0  0  0  0  0  0  0  0
  -22.1663  -29.3029   21.6077 C   0  0  0  0  0  0  0  0  0  0  0  0
  -18.3560  -22.5208   22.5449 C   0  0  0  0  0  0  0  0  0  0  0  0
  -30.1943  -17.4497   17.4772 C   0  0  0  0  0  0  0  0  0  0  0  0
  -26.4918  -20.1668   22.7244 C   0  0  0  0  0  0  0  0  0  0  0  0
  -25.5497  -20.7737   25.0161 C   0  0  0  0  0  0  0  0  0  0  0  0
  -29.2955  -25.4543   19.2928 C   0  0  0  0  0  0  0  0  0  0  0  0
  -24.0650  -29.4716   20.1156 C   0  0  0  0  0  0  0  0  0  0  0  0
  -28.0635  -25.7667   19.8987 C   0  0  0  0  0  0  0  0  0  0  0  0
  -23.4894  -29.7068   21.3724 C   0  0  0  0  0  0  0  0  0  0  0  0
  -17.4246  -23.5492   22.6891 C   0  0  0  0  0  0  0  0  0  0  0  0
  -18.1186  -21.2776   23.1313 C   0  0  0  0  0  0  0  0  0  0  0  0
  -28.4339  -20.2118   20.7222 C   0  0  0  0  0  0  0  0  0  0  0  0
  -21.4219  -28.6853   20.6030 C   0  0  0  0  0  0  0  0  0  0  0  0
  -29.2750  -19.3031   18.7249 C   0  0  0  0  0  0  0  0  0  0  0  0
  -29.0570  -17.4292   16.6698 C   0  0  0  0  0  0  0  0  0  0  0  0
  -30.3033  -18.3867   18.5048 C   0  0  0  0  0  0  0  0  0  0  0  0
  -25.4892  -20.1429   23.7590 C   0  0  0  0  0  0  0  0  0  0  0  0
  -24.3601  -20.4486   25.6209 C   0  0  0  0  0  0  0  0  0  0  0  0
  -18.7484  -25.1583   21.3636 C   0  0  0  0  0  0  0  0  0  0  0  0
  -18.6643  -26.4295   20.9478 C   0  0  0  0  0  0  0  0  0  0  0  0
  -17.4151  -26.9886   21.4420 C   0  0  0  0  0  0  0  0  0  0  0  0
  -16.9444  -28.2256   21.2544 C   0  0  0  0  0  0  0  0  0  0  0  0
  -26.5882  -21.5813   25.5861 C   0  0  0  0  0  0  0  0  0  0  0  0
  -26.7465  -28.7379   21.6567 C   0  0  0  0  0  0  0  0  0  0  0  0
  -26.3592  -31.6931   22.9369 C   0  0  0  0  0  0  0  0  0  0  0  0
  -24.2442  -34.2485   23.7391 C   0  0  0  0  0  0  0  0  0  0  0  0
  -18.9811  -18.9397   23.5009 C   0  0  0  0  0  0  0  0  0  0  0  0
  -30.6072  -25.9087   19.8822 C   0  0  0  0  0  0  0  0  0  0  0  0
  -25.4729  -29.9158   19.8274 C   0  0  0  0  0  0  0  0  0  0  0  0
  -24.2561  -30.3753   22.4832 C   0  0  0  0  0  0  0  0  0  0  0  0
  -16.7122  -25.8971   22.2324 C   0  0  0  0  0  0  0  0  0  0  0  0
  -30.4620  -27.0540   20.8810 C   0  0  0  0  0  0  0  0  0  0  0  0
  -21.0157  -17.0219   25.7053 C   0  0  0  0  0  0  0  0  0  0  0  0
  -29.3274  -26.7681   21.8597 C   0  0  0  0  0  0  0  0  0  0  0  0
  -22.3979  -17.6659   25.5754 C   0  0  0  0  0  0  0  0  0  0  0  0
  -20.2714  -17.0026   24.3714 C   0  0  0  0  0  0  0  0  0  0  0  0
  -21.5523  -18.9476   23.5681 C   0  0  0  0  0  0  0  0  0  0  0  0
  -27.9853  -26.6458   21.1280 C   0  0  1  0  0  0  0  0  0  0  0  0
  -26.3229  -30.0616   21.0858 C   0  0  1  0  0  0  0  0  0  0  0  0
  -22.3141  -19.0486   24.8997 C   0  0  2  0  0  0  0  0  0  0  0  0
  -24.2134  -36.5172   24.8112 C   0  0  0  0  0  0  0  0  0  0  0  0
  -26.5790  -30.3931   25.6885 C   0  0  0  0  0  0  0  0  0  0  0  0
  -25.6109  -32.4806   26.6751 C   0  0  0  0  0  0  0  0  0  0  0  0
  -27.7896  -32.5699   25.4634 C   0  0  0  0  0  0  0  0  0  0  0  0
  -23.2757  -35.5363   21.2567 C   0  0  0  0  0  0  0  0  0  0  0  0
  -19.6537  -27.1691   20.1232 C   0  0  0  0  0  0  0  0  0  1  0  0
  -25.6532  -32.2484   24.1502 C   0  0  1  0  0  0  0  0  0  0  0  0
  -24.3396  -35.7456   23.5068 C   0  0  2  0  0  0  0  0  0  0  0  0
  -26.3941  -31.9086   25.4742 C   0  0  0  0  0  0  0  0  0  0  0  0
  -24.3514  -19.4680   23.5749 N   0  0  0  0  0  0  0  0  0  0  0  0
  -23.6859  -19.6728   24.7244 N   0  0  0  0  0  0  0  0  0  0  0  0
  -17.6581  -24.7722   22.1129 N   0  0  0  0  0  0  0  0  0  0  0  0
  -25.6312  -30.7857   22.1543 N   0  0  0  0  0  0  0  0  0  0  0  0
  -20.2279  -18.3471   23.7924 N   0  0  0  0  0  0  0  0  0  0  0  0
  -23.8356  -20.7534   26.8268 N   0  0  0  0  0  0  0  0  0  0  0  0
  -27.5922  -20.9496   26.3325 N   0  0  0  0  0  0  0  0  0  0  0  0
  -19.0638  -20.2323   22.9842 N   0  0  0  0  0  0  0  0  0  0  0  0
  -27.4770  -27.9560   20.7823 N   0  0  0  0  0  0  0  0  0  0  0  0
  -25.4879  -33.6775   23.9078 N   0  0  0  0  0  0  0  0  0  0  0  0
  -23.2574  -36.1971   22.5871 N   0  3  0  0  0  0  0  0  0  0  0  0
  -26.6156  -22.8282   25.4516 O   0  0  0  0  0  0  0  0  0  0  0  0
  -26.4351  -28.4480   22.8059 O   0  0  0  0  0  0  0  0  0  0  0  0
  -27.5115  -32.0567   22.6885 O   0  0  0  0  0  0  0  0  0  0  0  0
  -23.1733  -33.6464   23.7717 O   0  0  0  0  0  0  0  0  0  0  0  0
  -17.9174  -18.3548   23.7206 O   0  0  0  0  0  0  0  0  0  0  0  0
  -29.3813  -20.2334   19.7452 O   0  0  0  0  0  0  0  0  0  0  0  0
  -20.1393  -28.3003   20.8448 O   0  0  0  0  0  0  0  0  0  1  0  0
  -28.9516  -16.5285   15.6840 F   0  0  0  0  0  0  0  0  0  0  0  0
  -31.3977  -18.4009   19.2779 F   0  0  0  0  0  0  0  0  0  0  0  0
  1  2  1  0  0  0  0
  1  6  2  0  0  0  0
  2  7  2  0  0  0  0
  3  9  2  0  0  0  0
  3 10  1  0  0  0  0
  4 11  2  0  0  0  0
  4 19  1  0  0  0  0
  5 12  1  0  0  0  0
  5 19  2  0  0  0  0
  6 21  1  0  0  0  0
  7 23  1  0  0  0  0
  8 13  2  0  0  0  0
  8 22  1  0  0  0  0
  9 25  1  0  0  0  0
 10 26  2  0  0  0  0
 11 27  1  0  0  0  0
 12 27  2  0  0  0  0
 13 28  1  0  0  0  0
 14 15  2  0  0  0  0
 14 29  1  0  0  0  0
 15 30  1  0  0  0  0
 16 24  1  0  0  0  0
 16 28  2  0  0  0  0
 17 25  2  0  0  0  0
 17 26  1  0  0  0  0
 18 30  2  0  0  0  0
 18 31  1  0  0  0  0
 19 32  1  0  0  0  0
 20 32  1  0  0  0  0
 20 33  2  0  0  0  0
 20 38  1  0  0  0  0
 21 23  2  0  0  0  0
 21 43  1  0  0  0  0
 22 24  2  0  0  0  0
 22 44  1  0  0  0  0
 23 53  1  0  0  0  0
 24 45  1  0  0  0  0
 25 67  1  0  0  0  0
 26 72  1  0  0  0  0
 27 81  1  0  0  0  0
 28 82  1  0  0  0  0
 29 31  2  0  0  0  0
 29 81  1  0  0  0  0
 30 83  1  0  0  0  0
 31 84  1  0  0  0  0
 32 65  2  0  0  0  0
 33 66  1  0  0  0  0
 33 70  1  0  0  0  0
 34 35  2  0  0  0  0
 34 67  1  0  0  0  0
 35 36  1  0  0  0  0
 35 61  1  0  0  0  0
 36 37  2  0  0  0  0
 36 46  1  0  0  0  0
 38 71  1  0  0  0  0
 38 76  2  0  0  0  0
 39 54  1  0  0  0  0
 39 73  1  0  0  0  0
 39 77  2  0  0  0  0
 40 62  1  0  0  0  0
 40 68  1  0  0  0  0
 40 78  2  0  0  0  0
 41 63  1  0  0  0  0
 41 74  1  0  0  0  0
 41 79  2  0  0  0  0
 42 69  1  0  0  0  0
 42 72  1  0  0  0  0
 42 80  2  0  0  0  0
 43 47  1  0  0  0  0
 44 54  1  0  0  0  0
 45 68  1  0  0  0  0
 46 67  1  0  0  0  0
 47 49  1  0  0  0  0
 48 50  1  0  0  0  0
 48 51  1  0  0  0  0
 49 53  1  0  0  0  0
 50 55  1  0  0  0  0
 51 69  1  0  0  0  0
 52 55  1  0  0  0  0
 52 69  1  0  0  0  0
 53 73  1  0  0  0  0
 54 68  1  0  0  0  0
 55 66  1  0  0  0  0
 56 63  1  0  0  0  0
 57 64  1  0  0  0  0
 58 64  1  0  0  0  0
 59 64  1  0  0  0  0
 60 75  1  0  0  0  0
 61 82  1  0  0  0  0
 62 64  1  0  0  0  0
 62 74  1  0  0  0  0
 63 75  1  0  0  0  0
 65 66  1  0  0  0  0
M  CHG  1  75   1
M  ISO  4  42 100  61 101  72 100  82 101
M  END
> <Batch ID>
0071

> <Smiles>
C=C1CN(c2cccc([100NH:0][100C:0](=O)N3CCCC(n4nc(-c5ccc(Oc6ccc(F)cc6F)cc5)c(C(N)=O)c4N)C3)c2)C=C1[101CH2:1][101O:1]c1ccc2c(c1)CN(C(=O)C(NC(=O)C(C)NC)C(C)(C)C)C(C(=O)NC1CCCc3ccccc31)C2

> <Shape>
0.236

> <Color>
0.069

> <Negative vol penalty>
0.000

$$$$

  -OEChem-04042323353D

 84 92  0     1  0  0  0  0  0999 V2000
  -21.0548   -4.5949   29.0128 C   0  0  0  0  0  0  0  0  0  0  0  0
  -22.3758   -4.5216   29.4429 C   0  0  0  0  0  0  0  0  0  0  0  0
  -23.1900   -9.8196   19.9311 C   0  0  0  0  0  0  0  0  0  0  0  0
  -23.5686   -9.9994   22.3105 C   0  0  0  0  0  0  0  0  0  0  0  0
  -20.5872   -5.7543   28.3956 C   0  0  0  0  0  0  0  0  0  0  0  0
  -23.2303   -5.6074   29.2551 C   0  0  0  0  0  0  0  0  0  0  0  0
  -28.7898   -8.9310   32.3148 C   0  0  0  0  0  0  0  0  0  0  0  0
  -22.4239   -8.6728   20.1397 C   0  0  0  0  0  0  0  0  0  0  0  0
  -22.8025   -8.8526   22.5191 C   0  0  0  0  0  0  0  0  0  0  0  0
  -30.0739   -9.3824   32.0129 C   0  0  0  0  0  0  0  0  0  0  0  0
  -21.2457   -5.7683   23.6473 C   0  0  0  0  0  0  0  0  0  0  0  0
  -21.7423   -4.8083   24.5290 C   0  0  0  0  0  0  0  0  0  0  0  0
  -31.4283  -12.2024   26.4641 C   0  0  0  0  0  0  0  0  0  0  0  0
  -29.1344  -11.3630   31.0060 C   0  0  0  0  0  0  0  0  0  0  0  0
  -32.6577  -12.1059   23.9617 C   0  0  0  0  0  0  0  0  0  0  0  0
  -23.7008   -4.5449   23.1390 C   0  0  0  0  0  0  0  0  0  0  0  0
  -23.7624  -10.4829   21.0166 C   0  0  0  0  0  0  0  0  0  0  0  0
  -32.7719  -11.8425   26.3606 C   0  0  0  0  0  0  0  0  0  0  0  0
  -24.1007  -12.9997   20.7735 C   0  0  0  0  0  0  0  0  0  0  0  0
  -21.4337   -6.8585   28.2088 C   0  0  0  0  0  0  0  0  0  0  0  0
  -27.6660   -9.6883   31.9542 C   0  0  0  0  0  0  0  0  0  0  0  0
  -22.7739   -6.7822   28.6336 C   0  0  0  0  0  0  0  0  0  0  0  0
  -27.8373  -10.9202   31.3067 C   0  0  0  0  0  0  0  0  0  0  0  0
  -31.3140  -12.4657   24.0652 C   0  0  0  0  0  0  0  0  0  0  0  0
  -22.2302   -8.1893   21.4336 C   0  0  0  0  0  0  0  0  0  0  0  0
  -30.2463  -10.5971   31.3558 C   0  0  0  0  0  0  0  0  0  0  0  0
  -21.9765   -6.1166   22.5114 C   0  0  0  0  0  0  0  0  0  0  0  0
  -22.9699   -4.1966   24.2748 C   0  0  0  0  0  0  0  0  0  0  0  0
  -30.6993  -12.5139   25.3163 C   0  0  0  0  0  0  0  0  0  0  0  0
  -33.3866  -11.7943   25.1094 C   0  0  0  0  0  0  0  0  0  0  0  0
  -23.2041   -5.5049   22.2573 C   0  0  0  0  0  0  0  0  0  0  0  0
  -24.5544  -11.6673   20.8017 C   0  0  0  0  0  0  0  0  0  0  0  0
  -25.2318  -13.7426   20.5382 C   0  0  0  0  0  0  0  0  0  0  0  0
  -33.5412  -11.5132   27.5773 C   0  0  0  0  0  0  0  0  0  0  0  0
  -22.7755  -13.5194   20.9446 C   0  0  0  0  0  0  0  0  0  0  0  0
  -25.1593   -9.2188   30.0569 C   0  0  0  0  0  0  0  0  0  0  0  0
  -24.1849  -12.0552   31.2929 C   0  0  0  0  0  0  0  0  0  0  0  0
  -25.0265  -15.0118   32.7751 C   0  0  0  0  0  0  0  0  0  0  0  0
  -31.0365  -12.7825   21.5814 C   0  0  0  0  0  0  0  0  0  0  0  0
  -20.8960   -8.0728   27.4941 C   0  0  0  0  0  0  0  0  0  0  0  0
  -26.2887   -9.2002   32.3108 C   0  0  0  0  0  0  0  0  0  0  0  0
  -26.6644  -11.7806   30.9161 C   0  0  0  0  0  0  0  0  0  0  0  0
  -21.7630   -9.3168   27.6701 C   0  0  0  0  0  0  0  0  0  0  0  0
  -29.5235  -13.4647   18.4314 C   0  0  0  0  0  0  0  0  0  0  0  0
  -23.2335   -8.9787   27.4462 C   0  0  0  0  0  0  0  0  0  0  0  0
  -28.0355  -13.2084   18.6809 C   0  0  0  0  0  0  0  0  0  0  0  0
  -30.4049  -12.4796   19.1972 C   0  0  0  0  0  0  0  0  0  0  0  0
  -28.6454  -12.1375   20.8873 C   0  0  0  0  0  0  0  0  0  0  0  0
  -23.7246   -7.9482   28.4701 C   0  0  1  0  0  0  0  0  0  0  0  0
  -25.1948   -9.8083   31.4385 C   0  0  1  0  0  0  0  0  0  0  0  0
  -27.7193  -13.1460   20.1881 C   0  0  2  0  0  0  0  0  0  0  0  0
  -24.0170  -17.1436   33.6315 C   0  0  0  0  0  0  0  0  0  0  0  0
  -23.8605  -13.0502   28.4267 C   0  0  0  0  0  0  0  0  0  0  0  0
  -23.7864  -15.3877   29.3205 C   0  0  0  0  0  0  0  0  0  0  0  0
  -22.0317  -13.7439   29.9851 C   0  0  0  0  0  0  0  0  0  0  0  0
  -25.9786  -14.4925   35.5288 C   0  0  0  0  0  0  0  0  0  0  0  0
  -33.5413  -10.6117   29.8759 C   0  0  0  0  0  0  0  0  0  0  0  0
  -32.4976  -10.0494   30.8195 C   0  0  0  0  0  0  0  0  0  1  0  0
  -24.3700  -13.5054   30.9166 C   0  0  1  0  0  0  0  0  0  0  0  0
  -24.4558  -15.7309   33.9841 C   0  0  2  0  0  0  0  0  0  0  0  0
  -23.5344  -13.9049   29.6677 C   0  0  0  0  0  0  0  0  0  0  0  0
  -25.8709  -11.5665   20.6004 N   0  0  0  0  0  0  0  0  0  0  0  0
  -26.2543  -12.8449   20.4432 N   0  0  0  0  0  0  0  0  0  0  0  0
  -25.3376  -11.2571   31.2810 N   0  0  0  0  0  0  0  0  0  0  0  0
  -30.0513  -12.4777   20.6185 N   0  0  0  0  0  0  0  0  0  0  0  0
  -25.4415  -15.0695   20.4053 N   0  0  0  0  0  0  0  0  0  0  0  0
  -34.8502  -11.7650   27.5801 N   0  0  0  0  0  0  0  0  0  0  0  0
  -21.7290  -12.6169   21.1786 N   0  0  0  0  0  0  0  0  0  0  0  0
  -30.5760  -12.7818   22.8977 N   0  0  0  0  0  0  0  0  0  0  0  0
  -23.9724   -8.5827   29.7469 N   0  0  0  0  0  0  0  0  0  0  0  0
  -24.0627  -14.2802   32.1139 N   0  0  0  0  0  0  0  0  0  0  0  0
  -32.8894  -10.9767   28.6158 N   0  3  0  0  0  0  0  0  0  0  0  0
  -25.4757  -15.8122   35.0676 N   0  3  0  0  0  0  0  0  0  0  0  0
  -22.5241  -14.7464   20.8753 O   0  0  0  0  0  0  0  0  0  0  0  0
  -26.1359   -9.3338   29.3257 O   0  0  0  0  0  0  0  0  0  0  0  0
  -23.0602  -11.6472   31.5935 O   0  0  0  0  0  0  0  0  0  0  0  0
  -26.2083  -15.0941   32.4477 O   0  0  0  0  0  0  0  0  0  0  0  0
  -32.1965  -13.0528   21.2600 O   0  0  0  0  0  0  0  0  0  0  0  0
  -21.4825   -7.0704   21.6375 O   0  0  0  0  0  0  0  0  0  0  0  0
  -31.4985  -11.0397   31.0594 O   0  0  0  0  0  0  0  0  0  1  0  0
  -23.4474   -3.2758   25.1224 F   0  0  0  0  0  0  0  0  0  0  0  0
  -29.4082  -12.8582   25.4276 F   0  0  0  0  0  0  0  0  0  0  0  0
  -34.6773  -11.4494   24.9998 F   0  0  0  0  0  0  0  0  0  0  0  0
  -23.9113   -5.8362   21.1683 F   0  0  0  0  0  0  0  0  0  0  0  0
  1  2  1  0  0  0  0
  1  5  2  0  0  0  0
  2  6  2  0  0  0  0
  3  8  2  0  0  0  0
  3 17  1  0  0  0  0
  4  9  1  0  0  0  0
  4 17  2  0  0  0  0
  5 20  1  0  0  0  0
  6 22  1  0  0  0  0
  7 10  2  0  0  0  0
  7 21  1  0  0  0  0
  8 25  1  0  0  0  0
  9 25  2  0  0  0  0
 10 26  1  0  0  0  0
 11 12  2  0  0  0  0
 11 27  1  0  0  0  0
 12 28  1  0  0  0  0
 13 18  1  0  0  0  0
 13 29  2  0  0  0  0
 14 23  1  0  0  0  0
 14 26  2  0  0  0  0
 15 24  2  0  0  0  0
 15 30  1  0  0  0  0
 16 28  2  0  0  0  0
 16 31  1  0  0  0  0
 17 32  1  0  0  0  0
 18 30  2  0  0  0  0
 18 34  1  0  0  0  0
 19 32  1  0  0  0  0
 19 33  2  0  0  0  0
 19 35  1  0  0  0  0
 20 22  2  0  0  0  0
 20 40  1  0  0  0  0
 21 23  2  0  0  0  0
 21 41  1  0  0  0  0
 22 49  1  0  0  0  0
 23 42  1  0  0  0  0
 24 29  1  0  0  0  0
 24 69  1  0  0  0  0
 25 79  1  0  0  0  0
 26 80  1  0  0  0  0
 27 31  2  0  0  0  0
 27 79  1  0  0  0  0
 28 81  1  0  0  0  0
 29 82  1  0  0  0  0
 30 83  1  0  0  0  0
 31 84  1  0  0  0  0
 32 62  2  0  0  0  0
 33 63  1  0  0  0  0
 33 66  1  0  0  0  0
 34 67  1  0  0  0  0
 34 72  2  0  0  0  0
 35 68  1  0  0  0  0
 35 74  2  0  0  0  0
 36 50  1  0  0  0  0
 36 70  1  0  0  0  0
 36 75  2  0  0  0  0
 37 59  1  0  0  0  0
 37 64  1  0  0  0  0
 37 76  2  0  0  0  0
 38 60  1  0  0  0  0
 38 71  1  0  0  0  0
 38 77  2  0  0  0  0
 39 65  1  0  0  0  0
 39 69  1  0  0  0  0
 39 78  2  0  0  0  0
 40 43  1  0  0  0  0
 41 50  1  0  0  0  0
 42 64  1  0  0  0  0
 43 45  1  0  0  0  0
 44 46  1  0  0  0  0
 44 47  1  0  0  0  0
 45 49  1  0  0  0  0
 46 51  1  0  0  0  0
 47 65  1  0  0  0  0
 48 51  1  0  0  0  0
 48 65  1  0  0  0  0
 49 70  1  0  0  0  0
 50 64  1  0  0  0  0
 51 63  1  0  0  0  0
 52 60  1  0  0  0  0
 53 61  1  0  0  0  0
 54 61  1  0  0  0  0
 55 61  1  0  0  0  0
 56 73  1  0  0  0  0
 57 58  1  0  0  0  0
 57 72  1  0  0  0  0
 58 80  1  0  0  0  0
 59 61  1  0  0  0  0
 59 71  1  0  0  0  0
 60 73  1  0  0  0  0
 62 63  1  0  0  0  0
M  CHG  2  72   1  73   1
M  ISO  4  39 100  58 101  69 100  80 101
M  END
> <Batch ID>
0071

> <Smiles>
CNC(C)C(=O)NC(C(=O)N1Cc2cc([101O:1][101CH2:1]CNC(=N)c3cc(F)c([100NH:0][100C:0](=O)N4CCCC(n5nc(-c6ccc(Oc7ccc(F)cc7F)cc6)c(C(N)=O)c5N)C4)cc3F)ccc2CC1C(=O)NC1CCCc2ccccc21)C(C)(C)C

> <Shape>
0.138

> <Color>
0.178

> <Negative vol penalty>
0.000

$$$$

  -OEChem-04042323353D

 87 96  0     1  0  0  0  0  0999 V2000
  -27.7215  -37.7522   18.9118 C   0  0  0  0  0  0  0  0  0  0  0  0
  -28.2176  -36.4575   18.7978 C   0  0  0  0  0  0  0  0  0  0  0  0
  -24.3666   -9.0083   21.3504 C   0  0  0  0  0  0  0  0  0  0  0  0
  -23.9266  -10.5480   23.1595 C   0  0  0  0  0  0  0  0  0  0  0  0
  -26.8284  -38.0677   19.9350 C   0  0  0  0  0  0  0  0  0  0  0  0
  -27.8217  -35.4778   19.7077 C   0  0  0  0  0  0  0  0  0  0  0  0
  -26.9691  -29.5218   18.5652 C   0  0  0  0  0  0  0  0  0  0  0  0
  -25.6002  -21.8134   19.8741 C   0  0  0  0  0  0  0  0  0  0  0  0
  -24.5837  -20.8833   19.6565 C   0  0  0  0  0  0  0  0  0  0  0  0
  -24.1826   -7.9336   22.2203 C   0  0  0  0  0  0  0  0  0  0  0  0
  -23.7426   -9.4733   24.0294 C   0  0  0  0  0  0  0  0  0  0  0  0
  -27.7770  -28.4033   18.7652 C   0  0  0  0  0  0  0  0  0  0  0  0
  -21.5876   -6.2668   23.6062 C   0  0  0  0  0  0  0  0  0  0  0  0
  -20.8084   -5.1988   23.1614 C   0  0  0  0  0  0  0  0  0  0  0  0
  -26.6568  -27.9759   20.8585 C   0  0  0  0  0  0  0  0  0  0  0  0
  -27.2440  -20.0477   19.7423 C   0  0  0  0  0  0  0  0  0  0  0  0
  -22.6911   -3.7101   23.4376 C   0  0  0  0  0  0  0  0  0  0  0  0
  -24.2387  -10.3156   21.8200 C   0  0  0  0  0  0  0  0  0  0  0  0
  -23.4483  -12.0651   20.1401 C   0  0  0  0  0  0  0  0  0  0  0  0
  -26.4139  -37.0890   20.8520 C   0  0  0  0  0  0  0  0  0  0  0  0
  -26.0047  -29.8826   19.5172 C   0  0  0  0  0  0  0  0  0  0  0  0
  -26.9233  -35.7808   20.7448 C   0  0  0  0  0  0  0  0  0  0  0  0
  -25.8362  -29.0979   20.6670 C   0  0  0  0  0  0  0  0  0  0  0  0
  -26.9304  -21.3956   19.9170 C   0  0  0  0  0  0  0  0  0  0  0  0
  -24.8973  -19.5355   19.4818 C   0  0  0  0  0  0  0  0  0  0  0  0
  -26.2275  -19.1176   19.5247 C   0  0  0  0  0  0  0  0  0  0  0  0
  -23.8705   -8.1661   23.5598 C   0  0  0  0  0  0  0  0  0  0  0  0
  -27.6229  -27.6318   19.9133 C   0  0  0  0  0  0  0  0  0  0  0  0
  -22.9186   -6.0565   23.9667 C   0  0  0  0  0  0  0  0  0  0  0  0
  -21.3601   -3.9205   23.0771 C   0  0  0  0  0  0  0  0  0  0  0  0
  -23.4703   -4.7781   23.8824 C   0  0  0  0  0  0  0  0  0  0  0  0
  -24.4292  -11.4262   20.9221 C   0  0  0  0  0  0  0  0  0  0  0  0
  -24.1316  -13.0498   19.4693 C   0  0  0  0  0  0  0  0  0  0  0  0
  -30.1105  -23.1972   21.0223 C   0  0  0  0  0  0  0  0  0  0  0  0
  -29.1787  -22.0318   20.7808 C   0  0  0  0  0  0  0  0  0  0  0  0
  -22.0449  -11.7928   20.0299 C   0  0  0  0  0  0  0  0  0  0  0  0
  -25.5211  -32.4198   21.3699 C   0  0  0  0  0  0  0  0  0  0  0  0
  -22.7681  -30.8706   22.1068 C   0  0  0  0  0  0  0  0  0  0  0  0
  -21.0680  -27.9179   22.3008 C   0  0  0  0  0  0  0  0  0  0  0  0
  -27.8477  -17.1950   19.3665 C   0  0  0  0  0  0  0  0  0  0  0  0
  -25.4835  -37.4890   21.9696 C   0  0  0  0  0  0  0  0  0  0  0  0
  -25.1230  -31.0766   19.2739 C   0  0  0  0  0  0  0  0  0  0  0  0
  -24.8016  -29.4310   21.7097 C   0  0  0  0  0  0  0  0  0  0  0  0
  -24.8238  -36.3022   22.6671 C   0  0  0  0  0  0  0  0  0  0  0  0
  -29.1035  -13.8823   19.0117 C   0  0  0  0  0  0  0  0  0  0  0  0
  -25.8577  -35.2255   22.9813 C   0  0  0  0  0  0  0  0  0  0  0  0
  -27.9187  -13.0006   19.4127 C   0  0  0  0  0  0  0  0  0  0  0  0
  -29.1763  -15.1530   19.8565 C   0  0  0  0  0  0  0  0  0  0  0  0
  -26.7544  -15.0615   20.2983 C   0  0  0  0  0  0  0  0  0  0  0  0
  -27.7577  -23.7525   19.7662 C   0  0  0  0  0  0  0  0  0  0  0  0
  -26.4984  -34.6844   21.6975 C   0  0  1  0  0  0  0  0  0  0  0  0
  -24.5227  -31.6472   20.5551 C   0  0  1  0  0  0  0  0  0  0  0  0
  -26.6016  -13.8008   19.4316 C   0  0  2  0  0  0  0  0  0  0  0  0
  -29.0644  -24.3770   19.2903 C   0  0  1  0  0  0  0  0  0  0  0  0
  -31.1263  -23.0408   22.1196 C   0  0  0  0  0  0  0  0  0  0  0  0
  -18.8471  -26.9642   22.9758 C   0  0  0  0  0  0  0  0  0  0  0  0
  -23.5426  -31.1526   25.0446 C   0  0  0  0  0  0  0  0  0  0  0  0
  -21.8380  -29.4019   25.5900 C   0  0  0  0  0  0  0  0  0  0  0  0
  -21.1229  -31.5584   24.5601 C   0  0  0  0  0  0  0  0  0  0  0  0
  -20.5407  -26.9082   19.5693 C   0  0  0  0  0  0  0  0  0  0  0  0
  -28.8692  -25.8505   18.9491 C   0  0  0  0  0  0  0  0  0  1  0  0
  -22.3562  -29.8604   23.1502 C   0  0  1  0  0  0  0  0  0  0  0  0
  -19.6794  -27.5224   21.8319 C   0  0  2  0  0  0  0  0  0  0  0  0
  -22.2359  -30.4879   24.5677 C   0  0  0  0  0  0  0  0  0  0  0  0
  -25.6432  -11.9600   20.7636 N   0  0  0  0  0  0  0  0  0  0  0  0
  -30.0728  -24.2884   20.3414 N   0  0  0  0  0  0  0  0  0  0  0  0
  -25.4298  -12.9447   19.8743 N   0  0  0  0  0  0  0  0  0  0  0  0
  -27.9798  -22.3564   20.1385 N   0  0  0  0  0  0  0  0  0  0  0  0
  -23.9680  -30.6117   21.4293 N   0  0  0  0  0  0  0  0  0  0  0  0
  -27.8947  -15.8610   19.8237 N   0  0  0  0  0  0  0  0  0  0  0  0
  -23.8515  -18.6103   19.2649 N   0  0  0  0  0  0  0  0  0  0  0  0
  -23.7427  -13.9865   18.5785 N   0  0  0  0  0  0  0  0  0  0  0  0
  -21.5059  -10.7454   20.7893 N   0  0  0  0  0  0  0  0  0  0  0  0
  -26.5702  -17.7540   19.3493 N   0  0  0  0  0  0  0  0  0  0  0  0
  -25.6032  -33.7585   21.0373 N   0  0  0  0  0  0  0  0  0  0  0  0
  -21.1258  -29.2474   22.6617 N   0  0  0  0  0  0  0  0  0  0  0  0
  -19.7686  -26.4849   20.7658 N   0  3  0  0  0  0  0  0  0  0  0  0
  -29.5512  -20.9499   21.2146 O   0  0  0  0  0  0  0  0  0  0  0  0
  -21.2943  -12.4481   19.2679 O   0  0  0  0  0  0  0  0  0  0  0  0
  -26.1680  -31.8444   22.2371 O   0  0  0  0  0  0  0  0  0  0  0  0
  -22.0480  -31.8496   21.8954 O   0  0  0  0  0  0  0  0  0  0  0  0
  -22.0065  -27.1256   22.3463 O   0  0  0  0  0  0  0  0  0  0  0  0
  -28.8619  -17.7883   18.9904 O   0  0  0  0  0  0  0  0  0  0  0  0
  -23.6907   -7.1176   24.4089 O   0  0  0  0  0  0  0  0  0  0  0  0
  -28.4106  -26.5399   20.1113 O   0  0  0  0  0  0  0  0  0  1  0  0
  -20.6113   -2.8947   22.6514 F   0  0  0  0  0  0  0  0  0  0  0  0
  -24.7481   -4.5697   24.2284 F   0  0  0  0  0  0  0  0  0  0  0  0
  1  2  1  0  0  0  0
  1  5  2  0  0  0  0
  2  6  2  0  0  0  0
  3 10  2  0  0  0  0
  3 18  1  0  0  0  0
  4 11  1  0  0  0  0
  4 18  2  0  0  0  0
  5 20  1  0  0  0  0
  6 22  1  0  0  0  0
  7 12  2  0  0  0  0
  7 21  1  0  0  0  0
  8  9  2  0  0  0  0
  8 24  1  0  0  0  0
  9 25  1  0  0  0  0
 10 27  1  0  0  0  0
 11 27  2  0  0  0  0
 12 28  1  0  0  0  0
 13 14  2  0  0  0  0
 13 29  1  0  0  0  0
 14 30  1  0  0  0  0
 15 23  1  0  0  0  0
 15 28  2  0  0  0  0
 16 24  2  0  0  0  0
 16 26  1  0  0  0  0
 17 30  2  0  0  0  0
 17 31  1  0  0  0  0
 18 32  1  0  0  0  0
 19 32  1  0  0  0  0
 19 33  2  0  0  0  0
 19 36  1  0  0  0  0
 20 22  2  0  0  0  0
 20 41  1  0  0  0  0
 21 23  2  0  0  0  0
 21 42  1  0  0  0  0
 22 51  1  0  0  0  0
 23 43  1  0  0  0  0
 24 68  1  0  0  0  0
 25 26  2  0  0  0  0
 25 71  1  0  0  0  0
 26 74  1  0  0  0  0
 27 84  1  0  0  0  0
 28 85  1  0  0  0  0
 29 31  2  0  0  0  0
 29 84  1  0  0  0  0
 30 86  1  0  0  0  0
 31 87  1  0  0  0  0
 32 65  2  0  0  0  0
 33 67  1  0  0  0  0
 33 72  1  0  0  0  0
 34 35  1  0  0  0  0
 34 55  1  0  0  0  0
 34 66  2  0  0  0  0
 35 68  1  0  0  0  0
 35 78  2  0  0  0  0
 36 73  1  0  0  0  0
 36 79  2  0  0  0  0
 37 52  1  0  0  0  0
 37 75  1  0  0  0  0
 37 80  2  0  0  0  0
 38 62  1  0  0  0  0
 38 69  1  0  0  0  0
 38 81  2  0  0  0  0
 39 63  1  0  0  0  0
 39 76  1  0  0  0  0
 39 82  2  0  0  0  0
 40 70  1  0  0  0  0
 40 74  1  0  0  0  0
 40 83  2  0  0  0  0
 41 44  1  0  0  0  0
 42 52  1  0  0  0  0
 43 69  1  0  0  0  0
 44 46  1  0  0  0  0
 45 47  1  0  0  0  0
 45 48  1  0  0  0  0
 46 51  1  0  0  0  0
 47 53  1  0  0  0  0
 48 70  1  0  0  0  0
 49 53  1  0  0  0  0
 49 70  1  0  0  0  0
 50 54  1  0  0  0  0
 50 68  1  0  0  0  0
 51 75  1  0  0  0  0
 52 69  1  0  0  0  0
 53 67  1  0  0  0  0
 54 61  1  0  0  0  0
 54 66  1  0  0  0  0
 56 63  1  0  0  0  0
 57 64  1  0  0  0  0
 58 64  1  0  0  0  0
 59 64  1  0  0  0  0
 60 77  1  0  0  0  0
 61 85  1  0  0  0  0
 62 64  1  0  0  0  0
 62 76  1  0  0  0  0
 63 77  1  0  0  0  0
 65 67  1  0  0  0  0
M  CHG  1  77   1
M  ISO  4  40 100  61 101  74 100  85 101
M  END
> <Batch ID>
0071

> <Smiles>
CNC(C)C(=O)NC(C(=O)N1Cc2cc([101O:1][101CH2:1]C3CN(c4ccc(N)c([100NH:0][100C:0](=O)N5CCCC(n6nc(-c7ccc(Oc8ccc(F)cc8F)cc7)c(C(N)=O)c6N)C5)c4)C(=O)C(C)=N3)ccc2CC1C(=O)NC1CCCc2ccccc21)C(C)(C)C

> <Shape>
0.301

> <Color>
0.098

> <Negative vol penalty>
0.000

$$$$

  -OEChem-04042323353D

 85 93  0     1  0  0  0  0  0999 V2000
  -28.0455  -18.7122   14.3617 C   0  0  0  0  0  0  0  0  0  0  0  0
  -28.4450  -18.3603   15.6470 C   0  0  0  0  0  0  0  0  0  0  0  0
  -24.7276  -30.8019   21.0718 C   0  0  0  0  0  0  0  0  0  0  0  0
  -25.0581  -29.5280   23.0979 C   0  0  0  0  0  0  0  0  0  0  0  0
  -26.6904  -18.8657   14.0717 C   0  0  0  0  0  0  0  0  0  0  0  0
  -27.4897  -18.1627   16.6433 C   0  0  0  0  0  0  0  0  0  0  0  0
  -28.3830  -14.0058   19.3943 C   0  0  0  0  0  0  0  0  0  0  0  0
  -24.0215  -31.7651   21.7926 C   0  0  0  0  0  0  0  0  0  0  0  0
  -24.3521  -30.4912   23.8187 C   0  0  0  0  0  0  0  0  0  0  0  0
  -29.3741  -14.0897   20.3713 C   0  0  0  0  0  0  0  0  0  0  0  0
  -22.4426  -34.7395   23.1618 C   0  0  0  0  0  0  0  0  0  0  0  0
  -22.7374  -36.0802   22.9140 C   0  0  0  0  0  0  0  0  0  0  0  0
  -30.7701  -20.4663   21.0341 C   0  0  0  0  0  0  0  0  0  0  0  0
  -27.6767  -14.3926   22.0584 C   0  0  0  0  0  0  0  0  0  0  0  0
  -28.2581  -19.8788   19.9723 C   0  0  0  0  0  0  0  0  0  0  0  0
  -25.0252  -35.7025   23.5924 C   0  0  0  0  0  0  0  0  0  0  0  0
  -25.2458  -29.6834   21.7245 C   0  0  0  0  0  0  0  0  0  0  0  0
  -30.3318  -19.1436   20.9705 C   0  0  0  0  0  0  0  0  0  0  0  0
  -27.3605  -28.6559   20.7344 C   0  0  0  0  0  0  0  0  0  0  0  0
  -25.7174  -18.6604   15.0626 C   0  0  0  0  0  0  0  0  0  0  0  0
  -27.0296  -14.1258   19.7412 C   0  0  0  0  0  0  0  0  0  0  0  0
  -26.1204  -18.3148   16.3666 C   0  0  0  0  0  0  0  0  0  0  0  0
  -26.6703  -14.3074   21.0843 C   0  0  0  0  0  0  0  0  0  0  0  0
  -28.6964  -21.2015   20.0360 C   0  0  0  0  0  0  0  0  0  0  0  0
  -23.8339  -31.6097   23.1660 C   0  0  0  0  0  0  0  0  0  0  0  0
  -29.0212  -14.2860   21.7032 C   0  0  0  0  0  0  0  0  0  0  0  0
  -23.4392  -33.8804   23.6249 C   0  0  0  0  0  0  0  0  0  0  0  0
  -24.0287  -36.5617   23.1293 C   0  0  0  0  0  0  0  0  0  0  0  0
  -29.9523  -21.4952   20.5669 C   0  0  0  0  0  0  0  0  0  0  0  0
  -29.0759  -18.8498   20.4396 C   0  0  0  0  0  0  0  0  0  0  0  0
  -24.7305  -34.3619   23.8402 C   0  0  0  0  0  0  0  0  0  0  0  0
  -25.9748  -28.6878   20.9804 C   0  0  0  0  0  0  0  0  0  0  0  0
  -27.5508  -27.5181   19.9890 C   0  0  0  0  0  0  0  0  0  0  0  0
  -31.1996  -18.0564   21.4659 C   0  0  0  0  0  0  0  0  0  0  0  0
  -28.3842  -29.5727   21.1433 C   0  0  0  0  0  0  0  0  0  0  0  0
  -24.6974  -16.1571   19.0072 C   0  0  0  0  0  0  0  0  0  0  0  0
  -22.8745  -14.0625   20.6840 C   0  0  0  0  0  0  0  0  0  0  0  0
  -22.7105  -11.6311   23.0732 C   0  0  0  0  0  0  0  0  0  0  0  0
  -26.5906  -22.1225   19.0046 C   0  0  0  0  0  0  0  0  0  0  0  0
  -24.2673  -18.8841   14.7134 C   0  0  0  0  0  0  0  0  0  0  0  0
  -25.9713  -14.0064   18.6790 C   0  0  0  0  0  0  0  0  0  0  0  0
  -25.2306  -14.4221   21.5116 C   0  0  0  0  0  0  0  0  0  0  0  0
  -23.2971  -18.2904   15.7315 C   0  0  0  0  0  0  0  0  0  0  0  0
  -24.2056  -24.4494   17.7498 C   0  0  0  0  0  0  0  0  0  0  0  0
  -23.7285  -18.6464   17.1507 C   0  0  0  0  0  0  0  0  0  0  0  0
  -24.5672  -25.7569   18.4581 C   0  0  0  0  0  0  0  0  0  0  0  0
  -24.3971  -23.2386   18.6614 C   0  0  0  0  0  0  0  0  0  0  0  0
  -26.0840  -24.4422   19.9937 C   0  0  0  0  0  0  0  0  0  0  0  0
  -25.1126  -18.0676   17.4681 C   0  0  1  0  0  0  0  0  0  0  0  0
  -24.6498  -14.6569   19.0764 C   0  0  1  0  0  0  0  0  0  0  0  0
  -25.9691  -25.6839   19.0945 C   0  0  2  0  0  0  0  0  0  0  0  0
  -21.0770  -10.1347   24.2521 C   0  0  0  0  0  0  0  0  0  0  0  0
  -32.3312  -13.8429   22.4615 C   0  0  0  0  0  0  0  0  0  0  0  0
  -21.9248  -16.4263   22.3633 C   0  0  0  0  0  0  0  0  0  0  0  0
  -21.0840  -14.7915   24.0629 C   0  0  0  0  0  0  0  0  0  0  0  0
  -20.1328  -14.7907   21.7569 C   0  0  0  0  0  0  0  0  0  0  0  0
  -24.0543   -9.1881   22.0805 C   0  0  0  0  0  0  0  0  0  0  0  0
  -31.5149  -16.1792   23.0387 C   0  0  0  0  0  0  0  0  0  0  0  0
  -22.4744  -13.9143   22.1321 C   0  0  1  0  0  0  0  0  0  0  0  0
  -22.0377  -10.2703   23.0810 C   0  0  2  0  0  0  0  0  0  0  0  0
  -31.2510  -14.8968   22.2604 C   0  0  2  0  0  0  0  0  0  1  0  0
  -21.4313  -14.9805   22.5708 C   0  0  0  0  0  0  0  0  0  0  0  0
  -25.3303  -27.6526   20.4352 N   0  0  0  0  0  0  0  0  0  0  0  0
  -26.3155  -26.9596   19.8393 N   0  0  0  0  0  0  0  0  0  0  0  0
  -24.2328  -14.3052   20.4353 N   0  0  0  0  0  0  0  0  0  0  0  0
  -25.7490  -23.2334   19.2246 N   0  0  0  0  0  0  0  0  0  0  0  0
  -28.6526  -26.9509   19.4534 N   0  0  0  0  0  0  0  0  0  0  0  0
  -32.3933  -17.8958   20.8948 N   0  0  0  0  0  0  0  0  0  0  0  0
  -28.0152  -30.6898   21.9050 N   0  0  0  0  0  0  0  0  0  0  0  0
  -27.8637  -22.2447   19.5604 N   0  0  0  0  0  0  0  0  0  0  0  0
  -25.0146  -16.6528   17.7569 N   0  0  0  0  0  0  0  0  0  0  0  0
  -22.0235  -12.5360   22.2920 N   0  0  0  0  0  0  0  0  0  0  0  0
  -30.7460  -17.2848   22.4607 N   0  3  0  0  0  0  0  0  0  0  0  0
  -23.0578   -9.1886   23.1823 N   0  3  0  0  0  0  0  0  0  0  0  0
  -29.5881  -29.4150   20.8282 O   0  0  0  0  0  0  0  0  0  0  0  0
  -24.4623  -16.8161   20.0132 O   0  0  0  0  0  0  0  0  0  0  0  0
  -22.0147  -13.9593   19.8055 O   0  0  0  0  0  0  0  0  0  0  0  0
  -23.7404  -11.8686   23.7005 O   0  0  0  0  0  0  0  0  0  0  0  0
  -26.2192  -21.1472   18.3467 O   0  0  0  0  0  0  0  0  0  0  0  0
  -23.1452  -32.5495   23.8697 O   0  0  0  0  0  0  0  0  0  0  0  0
  -29.9865  -14.3689   22.6587 O   0  0  0  0  0  0  0  0  0  1  0  0
  -24.3119  -37.8488   22.8899 F   0  0  0  0  0  0  0  0  0  0  0  0
  -30.3837  -22.7631   20.6332 F   0  0  0  0  0  0  0  0  0  0  0  0
  -28.6458  -17.5819   20.3744 F   0  0  0  0  0  0  0  0  0  0  0  0
  -25.6923  -33.5410   24.2839 F   0  0  0  0  0  0  0  0  0  0  0  0
  1  2  1  0  0  0  0
  1  5  2  0  0  0  0
  2  6  2  0  0  0  0
  3  8  2  0  0  0  0
  3 17  1  0  0  0  0
  4  9  1  0  0  0  0
  4 17  2  0  0  0  0
  5 20  1  0  0  0  0
  6 22  1  0  0  0  0
  7 10  2  0  0  0  0
  7 21  1  0  0  0  0
  8 25  1  0  0  0  0
  9 25  2  0  0  0  0
 10 26  1  0  0  0  0
 11 12  2  0  0  0  0
 11 27  1  0  0  0  0
 12 28  1  0  0  0  0
 13 18  1  0  0  0  0
 13 29  2  0  0  0  0
 14 23  1  0  0  0  0
 14 26  2  0  0  0  0
 15 24  2  0  0  0  0
 15 30  1  0  0  0  0
 16 28  2  0  0  0  0
 16 31  1  0  0  0  0
 17 32  1  0  0  0  0
 18 30  2  0  0  0  0
 18 34  1  0  0  0  0
 19 32  1  0  0  0  0
 19 33  2  0  0  0  0
 19 35  1  0  0  0  0
 20 22  2  0  0  0  0
 20 40  1  0  0  0  0
 21 23  2  0  0  0  0
 21 41  1  0  0  0  0
 22 49  1  0  0  0  0
 23 42  1  0  0  0  0
 24 29  1  0  0  0  0
 24 70  1  0  0  0  0
 25 80  1  0  0  0  0
 26 81  1  0  0  0  0
 27 31  2  0  0  0  0
 27 80  1  0  0  0  0
 28 82  1  0  0  0  0
 29 83  1  0  0  0  0
 30 84  1  0  0  0  0
 31 85  1  0  0  0  0
 32 63  2  0  0  0  0
 33 64  1  0  0  0  0
 33 67  1  0  0  0  0
 34 68  1  0  0  0  0
 34 73  2  0  0  0  0
 35 69  1  0  0  0  0
 35 75  2  0  0  0  0
 36 50  1  0  0  0  0
 36 71  1  0  0  0  0
 36 76  2  0  0  0  0
 37 59  1  0  0  0  0
 37 65  1  0  0  0  0
 37 77  2  0  0  0  0
 38 60  1  0  0  0  0
 38 72  1  0  0  0  0
 38 78  2  0  0  0  0
 39 66  1  0  0  0  0
 39 70  1  0  0  0  0
 39 79  2  0  0  0  0
 40 43  1  0  0  0  0
 41 50  1  0  0  0  0
 42 65  1  0  0  0  0
 43 45  1  0  0  0  0
 44 46  1  0  0  0  0
 44 47  1  0  0  0  0
 45 49  1  0  0  0  0
 46 51  1  0  0  0  0
 47 66  1  0  0  0  0
 48 51  1  0  0  0  0
 48 66  1  0  0  0  0
 49 71  1  0  0  0  0
 50 65  1  0  0  0  0
 51 64  1  0  0  0  0
 52 60  1  0  0  0  0
 53 61  1  0  0  0  0
 54 62  1  0  0  0  0
 55 62  1  0  0  0  0
 56 62  1  0  0  0  0
 57 74  1  0  0  0  0
 58 61  1  0  0  0  0
 58 73  1  0  0  0  0
 59 62  1  0  0  0  0
 59 72  1  0  0  0  0
 60 74  1  0  0  0  0
 61 81  1  0  0  0  0
 63 64  1  0  0  0  0
M  CHG  2  73   1  74   1
M  ISO  4  39 100  61 101  70 100  81 101
M  END
> <Batch ID>
0071

> <Smiles>
CNC(C)C(=O)NC(C(=O)N1Cc2cc([101O:1][101CH:1](C)CNC(=N)c3cc(F)c([100NH:0][100C:0](=O)N4CCCC(n5nc(-c6ccc(Oc7ccc(F)cc7F)cc6)c(C(N)=O)c5N)C4)cc3F)ccc2CC1C(=O)NC1CCCc2ccccc21)C(C)(C)C

> <Shape>
0.259

> <Color>
0.063

> <Negative vol penalty>
0.000

$$$$

  -OEChem-04042323353D

 88 97  0     1  0  0  0  0  0999 V2000
  -24.1088  -34.8107   15.5750 C   0  0  0  0  0  0  0  0  0  0  0  0
  -24.5941  -33.5090   15.6490 C   0  0  0  0  0  0  0  0  0  0  0  0
  -23.1448  -10.0030   21.6407 C   0  0  0  0  0  0  0  0  0  0  0  0
  -23.7839  -11.2087   23.6344 C   0  0  0  0  0  0  0  0  0  0  0  0
  -24.2282  -35.6614   16.6731 C   0  0  0  0  0  0  0  0  0  0  0  0
  -25.2000  -33.0576   16.8209 C   0  0  0  0  0  0  0  0  0  0  0  0
  -24.9526  -27.3987   19.1495 C   0  0  0  0  0  0  0  0  0  0  0  0
  -32.0881  -18.9889   19.2901 C   0  0  0  0  0  0  0  0  0  0  0  0
  -31.6459  -17.6843   19.5093 C   0  0  0  0  0  0  0  0  0  0  0  0
  -22.4185   -9.1015   22.4187 C   0  0  0  0  0  0  0  0  0  0  0  0
  -23.0575  -10.3072   24.4124 C   0  0  0  0  0  0  0  0  0  0  0  0
  -25.8372  -26.3225   19.0950 C   0  0  0  0  0  0  0  0  0  0  0  0
  -23.0590   -6.4210   24.3756 C   0  0  0  0  0  0  0  0  0  0  0  0
  -23.2008   -5.0623   24.0941 C   0  0  0  0  0  0  0  0  0  0  0  0
  -26.7443  -26.9675   21.2352 C   0  0  0  0  0  0  0  0  0  0  0  0
  -29.5131  -18.5337   20.2622 C   0  0  0  0  0  0  0  0  0  0  0  0
  -20.8343   -4.9113   23.6310 C   0  0  0  0  0  0  0  0  0  0  0  0
  -23.8276  -11.0566   22.2486 C   0  0  0  0  0  0  0  0  0  0  0  0
  -24.1109  -13.1852   20.8715 C   0  0  0  0  0  0  0  0  0  0  0  0
  -24.8272  -35.2172   17.8624 C   0  0  0  0  0  0  0  0  0  0  0  0
  -24.9646  -28.2752   20.2441 C   0  0  0  0  0  0  0  0  0  0  0  0
  -25.3287  -33.9036   17.9356 C   0  0  0  0  0  0  0  0  0  0  0  0
  -25.8570  -28.0526   21.3024 C   0  0  0  0  0  0  0  0  0  0  0  0
  -31.2429  -20.0659   19.5571 C   0  0  0  0  0  0  0  0  0  0  0  0
  -29.9554  -19.8383   20.0431 C   0  0  0  0  0  0  0  0  0  0  0  0
  -30.3584  -17.4567   19.9953 C   0  0  0  0  0  0  0  0  0  0  0  0
  -22.3748   -9.2536   23.8045 C   0  0  0  0  0  0  0  0  0  0  0  0
  -26.7352  -26.1084   20.1366 C   0  0  0  0  0  0  0  0  0  0  0  0
  -21.8049   -7.0250   24.2849 C   0  0  0  0  0  0  0  0  0  0  0  0
  -22.0885   -4.3074   23.7217 C   0  0  0  0  0  0  0  0  0  0  0  0
  -20.6926   -6.2701   23.9126 C   0  0  0  0  0  0  0  0  0  0  0  0
  -24.5785  -11.9879   21.4455 C   0  0  0  0  0  0  0  0  0  0  0  0
  -25.2011  -13.6987   20.2125 C   0  0  0  0  0  0  0  0  0  0  0  0
  -28.6523  -21.8418   19.4358 C   0  0  0  0  0  0  0  0  0  0  0  0
  -27.8253  -22.7213   20.0145 C   0  0  0  0  0  0  0  0  0  0  0  0
  -22.8077  -13.7801   20.9289 C   0  0  0  0  0  0  0  0  0  0  0  0
  -25.5335  -31.3791   20.6260 C   0  0  0  0  0  0  0  0  0  0  0  0
  -24.6004  -30.7775   23.6739 C   0  0  0  0  0  0  0  0  0  0  0  0
  -25.7507  -22.3892   23.0521 C   0  0  0  0  0  0  0  0  0  0  0  0
  -24.2157  -28.5054   26.1910 C   0  0  0  0  0  0  0  0  0  0  0  0
  -30.6225  -14.9514   20.0053 C   0  0  0  0  0  0  0  0  0  0  0  0
  -24.9761  -36.1880   19.0069 C   0  0  0  0  0  0  0  0  0  0  0  0
  -23.9858  -29.4159   20.3002 C   0  0  0  0  0  0  0  0  0  0  0  0
  -25.8963  -28.9527   22.5094 C   0  0  0  0  0  0  0  0  0  0  0  0
  -25.2948  -35.5147   20.3393 C   0  0  0  0  0  0  0  0  0  0  0  0
  -29.6946  -11.6194   19.1604 C   0  0  0  0  0  0  0  0  0  0  0  0
  -26.4016  -34.4799   20.1633 C   0  0  0  0  0  0  0  0  0  0  0  0
  -28.2424  -11.5167   19.6324 C   0  0  0  0  0  0  0  0  0  0  0  0
  -30.5398  -12.4699   20.1070 C   0  0  0  0  0  0  0  0  0  0  0  0
  -28.5280  -21.1044   21.6463 C   0  0  0  0  0  0  0  0  0  0  0  0
  -28.5457  -13.7015   20.8658 C   0  0  0  0  0  0  0  0  0  0  0  0
  -25.9700  -33.3693   19.1979 C   0  0  1  0  0  0  0  0  0  0  0  0
  -27.6716  -22.3839   21.4733 C   0  0  2  0  0  0  0  0  0  0  0  0
  -24.4358  -30.5446   21.2227 C   0  0  1  0  0  0  0  0  0  0  0  0
  -27.6402  -12.9081   19.9096 C   0  0  2  0  0  0  0  0  0  0  0  0
  -31.7422  -21.4527   19.3130 C   0  0  0  0  0  0  0  0  0  0  0  0
  -24.2914  -22.0937   23.1588 C   0  0  0  0  0  0  0  0  0  0  0  0
  -23.4655  -28.3185   28.5784 C   0  0  0  0  0  0  0  0  0  0  0  0
  -27.2177  -32.0481   24.5933 C   0  0  0  0  0  0  0  0  0  0  0  0
  -26.8583  -30.9978   26.8374 C   0  0  0  0  0  0  0  0  0  0  0  0
  -25.2201  -32.6648   25.9657 C   0  0  0  0  0  0  0  0  0  0  0  0
  -22.0505  -26.6156   25.4842 C   0  0  0  0  0  0  0  0  0  0  0  0
  -27.1696  -23.8962   19.3795 C   0  0  0  0  0  0  0  0  0  1  0  0
  -25.3007  -30.3543   24.9425 C   0  0  1  0  0  0  0  0  0  0  0  0
  -23.0493  -28.2181   27.1192 C   0  0  2  0  0  0  0  0  0  0  0  0
  -26.1500  -31.5002   25.5612 C   0  0  0  0  0  0  0  0  0  0  0  0
  -25.8655  -11.7544   21.1748 N   0  0  0  0  0  0  0  0  0  0  0  0
  -26.2158  -12.8121   20.4234 N   0  0  0  0  0  0  0  0  0  0  0  0
  -29.1117  -20.8863   20.3117 N   0  0  0  0  0  0  0  0  0  0  0  0
  -24.9237  -30.0579   22.5148 N   0  0  0  0  0  0  0  0  0  0  0  0
  -29.9099  -13.7748   20.3195 N   0  0  0  0  0  0  0  0  0  0  0  0
  -25.3812  -14.8176   19.4790 N   0  0  0  0  0  0  0  0  0  0  0  0
  -21.8030  -13.1198   21.6493 N   0  0  0  0  0  0  0  0  0  0  0  0
  -29.9101  -16.1311   20.2181 N   0  0  0  0  0  0  0  0  0  0  0  0
  -25.0827  -32.4388   19.8622 N   0  0  0  0  0  0  0  0  0  0  0  0
  -26.2887  -22.1626   21.7945 N   0  0  0  0  0  0  0  0  0  0  0  0
  -24.2636  -29.8345   25.8273 N   0  0  0  0  0  0  0  0  0  0  0  0
  -22.5185  -26.8471   26.8750 N   0  3  0  0  0  0  0  0  0  0  0  0
  -22.5376  -14.8567   20.3446 O   0  0  0  0  0  0  0  0  0  0  0  0
  -26.7029  -31.0845   20.8437 O   0  0  0  0  0  0  0  0  0  0  0  0
  -23.7909  -31.7075   23.7114 O   0  0  0  0  0  0  0  0  0  0  0  0
  -26.3580  -22.7969   24.0353 O   0  0  0  0  0  0  0  0  0  0  0  0
  -25.0075  -27.6382   25.8282 O   0  0  0  0  0  0  0  0  0  0  0  0
  -31.7697  -14.9140   19.5532 O   0  0  0  0  0  0  0  0  0  0  0  0
  -21.6659   -8.3742   24.5640 O   0  0  0  0  0  0  0  0  0  0  0  0
  -27.6001  -25.0591   20.0856 O   0  0  0  0  0  0  0  0  0  1  0  0
  -22.2250   -3.0030   23.4499 F   0  0  0  0  0  0  0  0  0  0  0  0
  -19.4854   -6.8450   23.8226 F   0  0  0  0  0  0  0  0  0  0  0  0
  1  2  1  0  0  0  0
  1  5  2  0  0  0  0
  2  6  2  0  0  0  0
  3 10  2  0  0  0  0
  3 18  1  0  0  0  0
  4 11  1  0  0  0  0
  4 18  2  0  0  0  0
  5 20  1  0  0  0  0
  6 22  1  0  0  0  0
  7 12  2  0  0  0  0
  7 21  1  0  0  0  0
  8  9  2  0  0  0  0
  8 24  1  0  0  0  0
  9 26  1  0  0  0  0
 10 27  1  0  0  0  0
 11 27  2  0  0  0  0
 12 28  1  0  0  0  0
 13 14  2  0  0  0  0
 13 29  1  0  0  0  0
 14 30  1  0  0  0  0
 15 23  1  0  0  0  0
 15 28  2  0  0  0  0
 16 25  1  0  0  0  0
 16 26  2  0  0  0  0
 17 30  2  0  0  0  0
 17 31  1  0  0  0  0
 18 32  1  0  0  0  0
 19 32  1  0  0  0  0
 19 33  2  0  0  0  0
 19 36  1  0  0  0  0
 20 22  2  0  0  0  0
 20 42  1  0  0  0  0
 21 23  2  0  0  0  0
 21 43  1  0  0  0  0
 22 52  1  0  0  0  0
 23 44  1  0  0  0  0
 24 25  2  0  0  0  0
 24 56  1  0  0  0  0
 25 69  1  0  0  0  0
 26 74  1  0  0  0  0
 27 85  1  0  0  0  0
 28 86  1  0  0  0  0
 29 31  2  0  0  0  0
 29 85  1  0  0  0  0
 30 87  1  0  0  0  0
 31 88  1  0  0  0  0
 32 67  2  0  0  0  0
 33 68  1  0  0  0  0
 33 72  1  0  0  0  0
 34 35  2  0  0  0  0
 34 69  1  0  0  0  0
 35 53  1  0  0  0  0
 35 63  1  0  0  0  0
 36 73  1  0  0  0  0
 36 79  2  0  0  0  0
 37 54  1  0  0  0  0
 37 75  1  0  0  0  0
 37 80  2  0  0  0  0
 38 64  1  0  0  0  0
 38 70  1  0  0  0  0
 38 81  2  0  0  0  0
 39 57  1  0  0  0  0
 39 76  1  0  0  0  0
 39 82  2  0  0  0  0
 40 65  1  0  0  0  0
 40 77  1  0  0  0  0
 40 83  2  0  0  0  0
 41 71  1  0  0  0  0
 41 74  1  0  0  0  0
 41 84  2  0  0  0  0
 42 45  1  0  0  0  0
 43 54  1  0  0  0  0
 44 70  1  0  0  0  0
 45 47  1  0  0  0  0
 46 48  1  0  0  0  0
 46 49  1  0  0  0  0
 47 52  1  0  0  0  0
 48 55  1  0  0  0  0
 49 71  1  0  0  0  0
 50 53  1  0  0  0  0
 50 69  1  0  0  0  0
 51 55  1  0  0  0  0
 51 71  1  0  0  0  0
 52 75  1  0  0  0  0
 53 76  1  0  0  0  0
 54 70  1  0  0  0  0
 55 68  1  0  0  0  0
 58 65  1  0  0  0  0
 59 66  1  0  0  0  0
 60 66  1  0  0  0  0
 61 66  1  0  0  0  0
 62 78  1  0  0  0  0
 63 86  1  0  0  0  0
 64 66  1  0  0  0  0
 64 77  1  0  0  0  0
 65 78  1  0  0  0  0
 67 68  1  0  0  0  0
M  CHG  1  78   1
M  ISO  4  41 100  63 101  74 100  86 101
M  END
> <Batch ID>
0071

> <Smiles>
CNC(C)C(=O)NC(C(=O)N1Cc2cc([101O:1][101CH2:1]C3=CN(c4cc([100NH:0][100C:0](=O)N5CCCC(n6nc(-c7ccc(Oc8ccc(F)cc8F)cc7)c(C(N)=O)c6N)C5)ccc4C)CC3NC(C)=O)ccc2CC1C(=O)NC1CCCc2ccccc21)C(C)(C)C

> <Shape>
0.294

> <Color>
0.173

> <Negative vol penalty>
0.000

$$$$

  -OEChem-04042323353D

 86 94  0     1  0  0  0  0  0999 V2000
  -19.3546  -30.4860   26.3936 C   0  0  0  0  0  0  0  0  0  0  0  0
  -20.3772  -29.5475   26.2993 C   0  0  0  0  0  0  0  0  0  0  0  0
  -22.9720  -10.0280   19.9184 C   0  0  0  0  0  0  0  0  0  0  0  0
  -23.9165   -9.7421   22.1236 C   0  0  0  0  0  0  0  0  0  0  0  0
  -32.2428  -17.8327   24.4400 C   0  0  0  0  0  0  0  0  0  0  0  0
  -18.6233  -30.8349   25.2590 C   0  0  0  0  0  0  0  0  0  0  0  0
  -20.6684  -28.9565   25.0703 C   0  0  0  0  0  0  0  0  0  0  0  0
  -26.1837  -27.2682   23.0119 C   0  0  0  0  0  0  0  0  0  0  0  0
  -22.2271   -8.8606   20.0861 C   0  0  0  0  0  0  0  0  0  0  0  0
  -23.1716   -8.5748   22.2914 C   0  0  0  0  0  0  0  0  0  0  0  0
  -26.8360  -26.0365   22.9793 C   0  0  0  0  0  0  0  0  0  0  0  0
  -23.3468   -5.3448   21.3078 C   0  0  0  0  0  0  0  0  0  0  0  0
  -32.8000  -16.6435   23.9702 C   0  0  0  0  0  0  0  0  0  0  0  0
  -23.9974   -4.2319   21.8404 C   0  0  0  0  0  0  0  0  0  0  0  0
  -26.0893  -25.7079   20.7091 C   0  0  0  0  0  0  0  0  0  0  0  0
  -22.4449   -4.2103   23.6915 C   0  0  0  0  0  0  0  0  0  0  0  0
  -23.8167  -10.4687   20.9371 C   0  0  0  0  0  0  0  0  0  0  0  0
  -31.0072  -18.2629   23.9562 C   0  0  0  0  0  0  0  0  0  0  0  0
  -24.2001  -12.9855   21.1001 C   0  0  0  0  0  0  0  0  0  0  0  0
  -18.9121  -30.2551   24.0136 C   0  0  0  0  0  0  0  0  0  0  0  0
  -25.4689  -27.7249   21.8952 C   0  0  0  0  0  0  0  0  0  0  0  0
  -19.9394  -29.2970   23.9182 C   0  0  0  0  0  0  0  0  0  0  0  0
  -25.4309  -26.9470   20.7292 C   0  0  0  0  0  0  0  0  0  0  0  0
  -30.8863  -16.3146   22.5326 C   0  0  0  0  0  0  0  0  0  0  0  0
  -22.3269   -8.1341   21.2726 C   0  0  0  0  0  0  0  0  0  0  0  0
  -26.7865  -25.2548   21.8288 C   0  0  0  0  0  0  0  0  0  0  0  0
  -22.2453   -5.8906   21.9671 C   0  0  0  0  0  0  0  0  0  0  0  0
  -23.5464   -3.6646   23.0323 C   0  0  0  0  0  0  0  0  0  0  0  0
  -32.1218  -15.8844   23.0165 C   0  0  0  0  0  0  0  0  0  0  0  0
  -21.7944   -5.3233   23.1589 C   0  0  0  0  0  0  0  0  0  0  0  0
  -30.3290  -17.5039   23.0025 C   0  0  0  0  0  0  0  0  0  0  0  0
  -24.5868  -11.6742   20.7643 C   0  0  0  0  0  0  0  0  0  0  0  0
  -25.2743  -13.7627   20.7416 C   0  0  0  0  0  0  0  0  0  0  0  0
  -30.4203  -19.5226   24.4555 C   0  0  0  0  0  0  0  0  0  0  0  0
  -22.9790  -13.4587   21.6839 C   0  0  0  0  0  0  0  0  0  0  0  0
  -22.4277  -28.4498   21.3214 C   0  0  0  0  0  0  0  0  0  0  0  0
  -28.7917  -22.3086   22.7713 C   0  0  0  0  0  0  0  0  0  0  0  0
  -23.6064  -29.4290   18.4623 C   0  0  0  0  0  0  0  0  0  0  0  0
  -26.0697  -29.1982   16.1117 C   0  0  0  0  0  0  0  0  0  0  0  0
  -30.7571  -14.7207   20.5860 C   0  0  0  0  0  0  0  0  0  0  0  0
  -18.0631  -30.6289   22.8244 C   0  0  0  0  0  0  0  0  0  0  0  0
  -24.7930  -29.0679   21.9372 C   0  0  0  0  0  0  0  0  0  0  0  0
  -24.6942  -27.4011   19.4966 C   0  0  0  0  0  0  0  0  0  0  0  0
  -18.6818  -30.2337   21.4860 C   0  0  0  0  0  0  0  0  0  0  0  0
  -29.4031  -12.6315   18.0407 C   0  0  0  0  0  0  0  0  0  0  0  0
  -19.2011  -28.8005   21.5404 C   0  0  0  0  0  0  0  0  0  0  0  0
  -27.9976  -12.3041   18.5500 C   0  0  0  0  0  0  0  0  0  0  0  0
  -30.4178  -12.6997   19.1806 C   0  0  0  0  0  0  0  0  0  0  0  0
  -28.6454  -13.2671   20.7949 C   0  0  0  0  0  0  0  0  0  0  0  0
  -20.3016  -28.6522   22.5979 C   0  0  1  0  0  0  0  0  0  0  0  0
  -23.6650  -29.2013   20.9188 C   0  0  1  0  0  0  0  0  0  0  0  0
  -27.5763  -13.2517   19.6902 C   0  0  2  0  0  0  0  0  0  0  0  0
  -26.7383  -30.0929   13.8645 C   0  0  0  0  0  0  0  0  0  0  0  0
  -21.5278  -27.6345   17.1322 C   0  0  0  0  0  0  0  0  0  0  0  0
  -22.8313  -27.8210   15.0028 C   0  0  0  0  0  0  0  0  0  0  0  0
  -21.8371  -29.8616   16.0373 C   0  0  0  0  0  0  0  0  0  0  0  0
  -28.5669  -30.3647   17.1899 C   0  0  0  0  0  0  0  0  0  0  0  0
  -29.5749  -21.7863   23.9471 C   0  0  0  0  0  0  0  0  0  0  0  0
  -28.1203  -23.6525   22.9730 C   0  0  0  0  0  0  0  0  0  1  0  0
  -23.8446  -28.7740   17.1232 C   0  0  1  0  0  0  0  0  0  0  0  0
  -26.8581  -30.2632   15.3709 C   0  0  2  0  0  0  0  0  0  0  0  0
  -22.5225  -28.5130   16.3476 C   0  0  0  0  0  0  0  0  0  0  0  0
  -25.8110  -11.6177   20.2332 N   0  0  0  0  0  0  0  0  0  0  0  0
  -26.2028  -12.9032   20.2324 N   0  0  0  0  0  0  0  0  0  0  0  0
  -24.0439  -28.7187   19.5892 N   0  0  0  0  0  0  0  0  0  0  0  0
  -29.9539  -13.6194   20.2216 N   0  0  0  0  0  0  0  0  0  0  0  0
  -25.5057  -15.0906   20.8154 N   0  0  0  0  0  0  0  0  0  0  0  0
  -21.9793  -12.5254   21.9903 N   0  0  0  0  0  0  0  0  0  0  0  0
  -30.1981  -15.5438   21.5631 N   0  0  0  0  0  0  0  0  0  0  0  0
  -30.1664  -20.5109   23.5793 N   0  0  0  0  0  0  0  0  0  0  0  0
  -21.5537  -29.1820   22.1020 N   0  0  0  0  0  0  0  0  0  0  0  0
  -24.7944  -29.6256   16.4155 N   0  0  0  0  0  0  0  0  0  0  0  0
  -30.1694  -19.6249   25.7608 N   0  3  0  0  0  0  0  0  0  0  0  0
  -28.3004  -30.1898   15.7389 N   0  3  0  0  0  0  0  0  0  0  0  0
  -22.7739  -14.6751   21.9115 O   0  0  0  0  0  0  0  0  0  0  0  0
  -22.2764  -27.2918   20.9500 O   0  0  0  0  0  0  0  0  0  0  0  0
  -28.6978  -21.6901   21.7120 O   0  0  0  0  0  0  0  0  0  0  0  0
  -23.0588  -30.5335   18.5064 O   0  0  0  0  0  0  0  0  0  0  0  0
  -26.5371  -28.0960   16.3896 O   0  0  0  0  0  0  0  0  0  0  0  0
  -31.8475  -14.9342   20.0500 O   0  0  0  0  0  0  0  0  0  0  0  0
  -21.6001   -6.9951   21.4366 O   0  0  0  0  0  0  0  0  0  0  0  0
  -27.4218  -24.0519   21.7945 O   0  0  0  0  0  0  0  0  0  1  0  0
  -24.1703   -2.5948   23.5428 F   0  0  0  0  0  0  0  0  0  0  0  0
  -32.6671  -14.7430   22.5723 F   0  0  0  0  0  0  0  0  0  0  0  0
  -20.7360   -5.8424   23.7962 F   0  0  0  0  0  0  0  0  0  0  0  0
  -29.1409  -17.9198   22.5375 F   0  0  0  0  0  0  0  0  0  0  0  0
  1  2  1  0  0  0  0
  1  6  2  0  0  0  0
  2  7  2  0  0  0  0
  3  9  2  0  0  0  0
  3 17  1  0  0  0  0
  4 10  1  0  0  0  0
  4 17  2  0  0  0  0
  5 13  2  0  0  0  0
  5 18  1  0  0  0  0
  6 20  1  0  0  0  0
  7 22  1  0  0  0  0
  8 11  2  0  0  0  0
  8 21  1  0  0  0  0
  9 25  1  0  0  0  0
 10 25  2  0  0  0  0
 11 26  1  0  0  0  0
 12 14  2  0  0  0  0
 12 27  1  0  0  0  0
 13 29  1  0  0  0  0
 14 28  1  0  0  0  0
 15 23  1  0  0  0  0
 15 26  2  0  0  0  0
 16 28  2  0  0  0  0
 16 30  1  0  0  0  0
 17 32  1  0  0  0  0
 18 31  2  0  0  0  0
 18 34  1  0  0  0  0
 19 32  1  0  0  0  0
 19 33  2  0  0  0  0
 19 35  1  0  0  0  0
 20 22  2  0  0  0  0
 20 41  1  0  0  0  0
 21 23  2  0  0  0  0
 21 42  1  0  0  0  0
 22 50  1  0  0  0  0
 23 43  1  0  0  0  0
 24 29  2  0  0  0  0
 24 31  1  0  0  0  0
 24 69  1  0  0  0  0
 25 81  1  0  0  0  0
 26 82  1  0  0  0  0
 27 30  2  0  0  0  0
 27 81  1  0  0  0  0
 28 83  1  0  0  0  0
 29 84  1  0  0  0  0
 30 85  1  0  0  0  0
 31 86  1  0  0  0  0
 32 63  2  0  0  0  0
 33 64  1  0  0  0  0
 33 67  1  0  0  0  0
 34 70  1  0  0  0  0
 34 73  2  0  0  0  0
 35 68  1  0  0  0  0
 35 75  2  0  0  0  0
 36 51  1  0  0  0  0
 36 71  1  0  0  0  0
 36 76  2  0  0  0  0
 37 58  1  0  0  0  0
 37 59  1  0  0  0  0
 37 77  2  0  0  0  0
 38 60  1  0  0  0  0
 38 65  1  0  0  0  0
 38 78  2  0  0  0  0
 39 61  1  0  0  0  0
 39 72  1  0  0  0  0
 39 79  2  0  0  0  0
 40 66  1  0  0  0  0
 40 69  1  0  0  0  0
 40 80  2  0  0  0  0
 41 44  1  0  0  0  0
 42 51  1  0  0  0  0
 43 65  1  0  0  0  0
 44 46  1  0  0  0  0
 45 47  1  0  0  0  0
 45 48  1  0  0  0  0
 46 50  1  0  0  0  0
 47 52  1  0  0  0  0
 48 66  1  0  0  0  0
 49 52  1  0  0  0  0
 49 66  1  0  0  0  0
 50 71  1  0  0  0  0
 51 65  1  0  0  0  0
 52 64  1  0  0  0  0
 53 61  1  0  0  0  0
 54 62  1  0  0  0  0
 55 62  1  0  0  0  0
 56 62  1  0  0  0  0
 57 74  1  0  0  0  0
 58 70  1  0  0  0  0
 59 82  1  0  0  0  0
 60 62  1  0  0  0  0
 60 72  1  0  0  0  0
 61 74  1  0  0  0  0
 63 64  1  0  0  0  0
M  CHG  2  73   1  74   1
M  ISO  4  40 100  59 101  69 100  82 101
M  END
> <Batch ID>
0071

> <Smiles>
CNC(C)C(=O)NC(C(=O)N1Cc2cc([101O:1][101CH2:1]C(=O)CNC(=N)c3ccc(F)c([100NH:0][100C:0](=O)N4CCCC(n5nc(-c6ccc(Oc7ccc(F)cc7F)cc6)c(C(N)=O)c5N)C4)c3F)ccc2CC1C(=O)NC1CCCc2ccccc21)C(C)(C)C

> <Shape>
0.272

> <Color>
0.199

> <Negative vol penalty>
0.000

$$$$

  -OEChem-04042323353D

 85 93  0     1  0  0  0  0  0999 V2000
  -20.8897  -23.4663   20.2135 C   0  0  0  0  0  0  0  0  0  0  0  0
  -22.2288  -23.1465   20.0141 C   0  0  0  0  0  0  0  0  0  0  0  0
  -22.6921  -29.5931   19.6882 C   0  0  0  0  0  0  0  0  0  0  0  0
  -22.7168  -28.4262   21.8036 C   0  0  0  0  0  0  0  0  0  0  0  0
  -20.0991  -22.6683   21.0394 C   0  0  0  0  0  0  0  0  0  0  0  0
  -22.7785  -22.0290   20.6414 C   0  0  0  0  0  0  0  0  0  0  0  0
  -27.0960  -18.3044   18.4070 C   0  0  0  0  0  0  0  0  0  0  0  0
  -21.3695  -29.9741   19.9138 C   0  0  0  0  0  0  0  0  0  0  0  0
  -21.3941  -28.8073   22.0292 C   0  0  0  0  0  0  0  0  0  0  0  0
  -28.4739  -18.2383   18.6089 C   0  0  0  0  0  0  0  0  0  0  0  0
  -18.3159  -27.8390   21.0203 C   0  0  0  0  0  0  0  0  0  0  0  0
  -17.4328  -26.8672   21.4907 C   0  0  0  0  0  0  0  0  0  0  0  0
  -31.3117  -22.1636   21.5684 C   0  0  0  0  0  0  0  0  0  0  0  0
  -32.8120  -22.4653   23.4378 C   0  0  0  0  0  0  0  0  0  0  0  0
  -28.1398  -16.5432   20.2924 C   0  0  0  0  0  0  0  0  0  0  0  0
  -31.5140  -24.3306   22.6175 C   0  0  0  0  0  0  0  0  0  0  0  0
  -17.0244  -28.1950   23.4674 C   0  0  0  0  0  0  0  0  0  0  0  0
  -23.3658  -28.8191   20.6330 C   0  0  0  0  0  0  0  0  0  0  0  0
  -32.2445  -21.6425   22.4650 C   0  0  0  0  0  0  0  0  0  0  0  0
  -25.8945  -29.1255   20.7735 C   0  0  0  0  0  0  0  0  0  0  0  0
  -20.6369  -21.5350   21.6695 C   0  0  0  0  0  0  0  0  0  0  0  0
  -26.2274  -17.4969   19.1553 C   0  0  0  0  0  0  0  0  0  0  0  0
  -21.9947  -21.2159   21.4776 C   0  0  0  0  0  0  0  0  0  0  0  0
  -26.7514  -16.5991   20.0963 C   0  0  0  0  0  0  0  0  0  0  0  0
  -30.9465  -23.5077   21.6446 C   0  0  0  0  0  0  0  0  0  0  0  0
  -20.7205  -29.5812   21.0843 C   0  0  0  0  0  0  0  0  0  0  0  0
  -28.9958  -17.3597   19.5537 C   0  0  0  0  0  0  0  0  0  0  0  0
  -18.5534  -28.9888   21.7736 C   0  0  0  0  0  0  0  0  0  0  0  0
  -16.7870  -27.0452   22.7142 C   0  0  0  0  0  0  0  0  0  0  0  0
  -32.4468  -23.8094   23.5141 C   0  0  0  0  0  0  0  0  0  0  0  0
  -17.9076  -29.1668   22.9970 C   0  0  0  0  0  0  0  0  0  0  0  0
  -24.7320  -28.4247   20.4003 C   0  0  0  0  0  0  0  0  0  0  0  0
  -26.9280  -28.3382   20.3281 C   0  0  0  0  0  0  0  0  0  0  0  0
  -32.6357  -20.2122   22.3826 C   0  0  0  0  0  0  0  0  0  0  0  0
  -26.0282  -30.3764   21.4615 C   0  0  0  0  0  0  0  0  0  0  0  0
  -23.8766  -18.0463   21.2231 C   0  0  0  0  0  0  0  0  0  0  0  0
  -23.4978  -14.8293   21.0502 C   0  0  0  0  0  0  0  0  0  0  0  0
  -32.8643  -18.3042   20.8292 C   0  0  0  0  0  0  0  0  0  0  0  0
  -24.8782  -11.7815   20.3776 C   0  0  0  0  0  0  0  0  0  0  0  0
  -29.3406  -23.3583   19.7093 C   0  0  0  0  0  0  0  0  0  0  0  0
  -19.7552  -20.7297   22.5908 C   0  0  0  0  0  0  0  0  0  0  0  0
  -24.7454  -17.5610   18.9066 C   0  0  0  0  0  0  0  0  0  0  0  0
  -25.8631  -15.6961   20.9111 C   0  0  0  0  0  0  0  0  0  0  0  0
  -20.3185  -19.3498   22.9207 C   0  0  0  0  0  0  0  0  0  0  0  0
  -26.9131  -24.2972   17.2798 C   0  0  0  0  0  0  0  0  0  0  0  0
  -21.7948  -19.4503   23.2910 C   0  0  0  0  0  0  0  0  0  0  0  0
  -26.2249  -25.5124   17.9058 C   0  0  0  0  0  0  0  0  0  0  0  0
  -27.2770  -23.2484   18.3293 C   0  0  0  0  0  0  0  0  0  0  0  0
  -27.3709  -24.9676   20.0913 C   0  0  0  0  0  0  0  0  0  0  0  0
  -22.6210  -19.9977   22.1209 C   0  0  1  0  0  0  0  0  0  0  0  0
  -23.9192  -17.0623   20.0882 C   0  0  1  0  0  0  0  0  0  0  0  0
  -27.0436  -26.0800   19.0818 C   0  0  2  0  0  0  0  0  0  0  0  0
  -24.3328   -9.3321   20.3622 C   0  0  0  0  0  0  0  0  0  0  0  0
  -23.7005  -14.7675   24.0941 C   0  0  0  0  0  0  0  0  0  0  0  0
  -24.1043  -12.3010   23.9476 C   0  0  0  0  0  0  0  0  0  0  0  0
  -21.9503  -13.2609   23.1343 C   0  0  0  0  0  0  0  0  0  0  0  0
  -25.4071  -11.5635   17.4738 C   0  0  0  0  0  0  0  0  0  0  0  0
  -32.6136  -17.9807   19.3643 C   0  0  0  0  0  0  0  0  0  0  0  0
  -31.1577  -18.1530   18.9597 C   0  0  0  0  0  0  0  0  0  1  0  0
  -24.0615  -13.6447   21.7973 C   0  0  1  0  0  0  0  0  0  0  0  0
  -24.3830  -10.6132   19.5443 C   0  0  2  0  0  0  0  0  0  0  0  0
  -23.4710  -13.5118   23.2295 C   0  0  0  0  0  0  0  0  0  0  0  0
  -25.0010  -27.2802   19.7664 N   0  0  0  0  0  0  0  0  0  0  0  0
  -26.3444  -27.2559   19.7378 N   0  0  0  0  0  0  0  0  0  0  0  0
  -24.4205  -15.8003   20.6360 N   0  0  0  0  0  0  0  0  0  0  0  0
  -28.0554  -23.8576   19.4100 N   0  0  0  0  0  0  0  0  0  0  0  0
  -28.2699  -28.4729   20.3876 N   0  0  0  0  0  0  0  0  0  0  0  0
  -24.8638  -31.0540   21.8480 N   0  0  0  0  0  0  0  0  0  0  0  0
  -29.9988  -24.0375   20.7341 N   0  0  0  0  0  0  0  0  0  0  0  0
  -32.5196  -19.6262   21.1232 N   0  0  0  0  0  0  0  0  0  0  0  0
  -22.8469  -18.9634   21.1342 N   0  0  0  0  0  0  0  0  0  0  0  0
  -23.8353  -12.4808   20.9473 N   0  0  0  0  0  0  0  0  0  0  0  0
  -25.2830  -10.3909   18.3775 N   0  3  0  0  0  0  0  0  0  0  0  0
  -33.0529  -19.6476   23.3902 O   0  0  0  0  0  0  0  0  0  0  0  0
  -27.1468  -30.8862   21.7110 O   0  0  0  0  0  0  0  0  0  0  0  0
  -24.7151  -17.9775   22.1141 O   0  0  0  0  0  0  0  0  0  0  0  0
  -22.2845  -14.8873   20.8356 O   0  0  0  0  0  0  0  0  0  0  0  0
  -33.3111  -17.4904   21.6328 O   0  0  0  0  0  0  0  0  0  0  0  0
  -26.0710  -12.0450   20.5128 O   0  0  0  0  0  0  0  0  0  0  0  0
  -29.8329  -22.4162   19.0831 O   0  0  0  0  0  0  0  0  0  0  0  0
  -19.4299  -29.9531   21.3049 O   0  0  0  0  0  0  0  0  0  0  0  0
  -30.3403  -17.2936   19.7532 O   0  0  0  0  0  0  0  0  0  1  0  0
  -15.9378  -26.1126   23.1650 F   0  0  0  0  0  0  0  0  0  0  0  0
  -32.9939  -24.6003   24.4464 F   0  0  0  0  0  0  0  0  0  0  0  0
  -18.1308  -30.2699   23.7245 F   0  0  0  0  0  0  0  0  0  0  0  0
  1  2  1  0  0  0  0
  1  5  2  0  0  0  0
  2  6  2  0  0  0  0
  3  8  2  0  0  0  0
  3 18  1  0  0  0  0
  4  9  1  0  0  0  0
  4 18  2  0  0  0  0
  5 21  1  0  0  0  0
  6 23  1  0  0  0  0
  7 10  2  0  0  0  0
  7 22  1  0  0  0  0
  8 26  1  0  0  0  0
  9 26  2  0  0  0  0
 10 27  1  0  0  0  0
 11 12  2  0  0  0  0
 11 28  1  0  0  0  0
 12 29  1  0  0  0  0
 13 19  2  0  0  0  0
 13 25  1  0  0  0  0
 14 19  1  0  0  0  0
 14 30  2  0  0  0  0
 15 24  1  0  0  0  0
 15 27  2  0  0  0  0
 16 25  2  0  0  0  0
 16 30  1  0  0  0  0
 17 29  2  0  0  0  0
 17 31  1  0  0  0  0
 18 32  1  0  0  0  0
 19 34  1  0  0  0  0
 20 32  1  0  0  0  0
 20 33  2  0  0  0  0
 20 35  1  0  0  0  0
 21 23  2  0  0  0  0
 21 41  1  0  0  0  0
 22 24  2  0  0  0  0
 22 42  1  0  0  0  0
 23 50  1  0  0  0  0
 24 43  1  0  0  0  0
 25 69  1  0  0  0  0
 26 81  1  0  0  0  0
 27 82  1  0  0  0  0
 28 31  2  0  0  0  0
 28 81  1  0  0  0  0
 29 83  1  0  0  0  0
 30 84  1  0  0  0  0
 31 85  1  0  0  0  0
 32 63  2  0  0  0  0
 33 64  1  0  0  0  0
 33 67  1  0  0  0  0
 34 70  1  0  0  0  0
 34 74  2  0  0  0  0
 35 68  1  0  0  0  0
 35 75  2  0  0  0  0
 36 51  1  0  0  0  0
 36 71  1  0  0  0  0
 36 76  2  0  0  0  0
 37 60  1  0  0  0  0
 37 65  1  0  0  0  0
 37 77  2  0  0  0  0
 38 58  1  0  0  0  0
 38 70  1  0  0  0  0
 38 78  2  0  0  0  0
 39 61  1  0  0  0  0
 39 72  1  0  0  0  0
 39 79  2  0  0  0  0
 40 66  1  0  0  0  0
 40 69  1  0  0  0  0
 40 80  2  0  0  0  0
 41 44  1  0  0  0  0
 42 51  1  0  0  0  0
 43 65  1  0  0  0  0
 44 46  1  0  0  0  0
 45 47  1  0  0  0  0
 45 48  1  0  0  0  0
 46 50  1  0  0  0  0
 47 52  1  0  0  0  0
 48 66  1  0  0  0  0
 49 52  1  0  0  0  0
 49 66  1  0  0  0  0
 50 71  1  0  0  0  0
 51 65  1  0  0  0  0
 52 64  1  0  0  0  0
 53 61  1  0  0  0  0
 54 62  1  0  0  0  0
 55 62  1  0  0  0  0
 56 62  1  0  0  0  0
 57 73  1  0  0  0  0
 58 59  1  0  0  0  0
 59 82  1  0  0  0  0
 60 62  1  0  0  0  0
 60 72  1  0  0  0  0
 61 73  1  0  0  0  0
 63 64  1  0  0  0  0
M  CHG  1  73   1
M  ISO  4  40 100  59 101  69 100  82 101
M  END
> <Batch ID>
0071

> <Smiles>
CNC(C)C(=O)NC(C(=O)N1Cc2cc([101O:1][101CH2:1]CC(=O)NC(=O)c3cc(F)cc([100NH:0][100C:0](=O)N4CCCC(n5nc(-c6ccc(Oc7ccc(F)cc7F)cc6)c(C(N)=O)c5N)C4)c3)ccc2CC1C(=O)NC1CCCc2ccccc21)C(C)(C)C

> <Shape>
0.214

> <Color>
0.074

> <Negative vol penalty>
0.000

$$$$

  -OEChem-04042323353D

 84 92  0     1  0  0  0  0  0999 V2000
  -25.9743  -31.4384   28.8307 C   0  0  0  0  0  0  0  0  0  0  0  0
  -27.0872  -30.6490   28.5590 C   0  0  0  0  0  0  0  0  0  0  0  0
  -23.0760   -9.8675   19.9412 C   0  0  0  0  0  0  0  0  0  0  0  0
  -23.8344   -9.8759   22.2351 C   0  0  0  0  0  0  0  0  0  0  0  0
  -30.4637  -18.3429   24.0429 C   0  0  0  0  0  0  0  0  0  0  0  0
  -24.8202  -30.8575   29.3545 C   0  0  0  0  0  0  0  0  0  0  0  0
  -27.0470  -29.2784   28.8122 C   0  0  0  0  0  0  0  0  0  0  0  0
  -29.7877  -24.8560   25.5816 C   0  0  0  0  0  0  0  0  0  0  0  0
  -29.8775  -17.4581   23.1379 C   0  0  0  0  0  0  0  0  0  0  0  0
  -22.3317   -8.7147   20.1914 C   0  0  0  0  0  0  0  0  0  0  0  0
  -23.0901   -8.7230   22.4853 C   0  0  0  0  0  0  0  0  0  0  0  0
  -30.9791  -24.1570   25.7710 C   0  0  0  0  0  0  0  0  0  0  0  0
  -19.8614   -7.9261   23.0863 C   0  0  0  0  0  0  0  0  0  0  0  0
  -19.1037   -7.8870   24.2567 C   0  0  0  0  0  0  0  0  0  0  0  0
  -29.7551  -22.3709   26.8344 C   0  0  0  0  0  0  0  0  0  0  0  0
  -32.0624  -16.6098   22.5519 C   0  0  0  0  0  0  0  0  0  0  0  0
  -20.3443   -5.9499   24.9952 C   0  0  0  0  0  0  0  0  0  0  0  0
  -23.8273  -10.4481   20.9630 C   0  0  0  0  0  0  0  0  0  0  0  0
  -31.8493  -18.3613   24.2023 C   0  0  0  0  0  0  0  0  0  0  0  0
  -24.1696  -12.9731   20.8416 C   0  0  0  0  0  0  0  0  0  0  0  0
  -24.7624  -29.4775   29.6051 C   0  0  0  0  0  0  0  0  0  0  0  0
  -28.5704  -24.3216   26.0277 C   0  0  0  0  0  0  0  0  0  0  0  0
  -25.8914  -28.6787   29.3411 C   0  0  0  0  0  0  0  0  0  0  0  0
  -28.5494  -23.0638   26.6471 C   0  0  0  0  0  0  0  0  0  0  0  0
  -30.6768  -16.5915   22.3925 C   0  0  0  0  0  0  0  0  0  0  0  0
  -22.3388   -8.1424   21.4635 C   0  0  0  0  0  0  0  0  0  0  0  0
  -30.9633  -22.9156   26.4001 C   0  0  0  0  0  0  0  0  0  0  0  0
  -20.8606   -6.9770   22.8702 C   0  0  0  0  0  0  0  0  0  0  0  0
  -19.3452   -6.8990   25.2112 C   0  0  0  0  0  0  0  0  0  0  0  0
  -32.6487  -17.4947   23.4569 C   0  0  0  0  0  0  0  0  0  0  0  0
  -21.1020   -5.9889   23.8247 C   0  0  0  0  0  0  0  0  0  0  0  0
  -24.5968  -11.6387   20.7050 C   0  0  0  0  0  0  0  0  0  0  0  0
  -25.2622  -13.7222   20.4785 C   0  0  0  0  0  0  0  0  0  0  0  0
  -32.4670  -19.2996   25.1608 C   0  0  0  0  0  0  0  0  0  0  0  0
  -22.8990  -13.4894   21.2593 C   0  0  0  0  0  0  0  0  0  0  0  0
  -26.3635  -25.2192   28.1319 C   0  0  0  0  0  0  0  0  0  0  0  0
  -24.7588  -22.6574   26.9552 C   0  0  0  0  0  0  0  0  0  0  0  0
  -24.8863  -19.6324   25.3805 C   0  0  0  0  0  0  0  0  0  0  0  0
  -30.7284  -14.7670   20.6561 C   0  0  0  0  0  0  0  0  0  0  0  0
  -23.5091  -28.9025   30.2160 C   0  0  0  0  0  0  0  0  0  0  0  0
  -27.2907  -25.0760   25.7919 C   0  0  0  0  0  0  0  0  0  0  0  0
  -27.2664  -22.4371   27.1262 C   0  0  0  0  0  0  0  0  0  0  0  0
  -23.4191  -27.3827   30.1047 C   0  0  0  0  0  0  0  0  0  0  0  0
  -29.6151  -12.3518   18.2887 C   0  0  0  0  0  0  0  0  0  0  0  0
  -24.7419  -26.7386   30.5076 C   0  0  0  0  0  0  0  0  0  0  0  0
  -28.1752  -12.0608   18.7175 C   0  0  0  0  0  0  0  0  0  0  0  0
  -30.5295  -12.5813   19.4907 C   0  0  0  0  0  0  0  0  0  0  0  0
  -28.6218  -13.3070   20.8703 C   0  0  0  0  0  0  0  0  0  0  0  0
  -25.8779  -27.1842   29.5789 C   0  0  1  0  0  0  0  0  0  0  0  0
  -26.1726  -24.6692   26.7467 C   0  0  1  0  0  0  0  0  0  0  0  0
  -27.6497  -13.1331   19.6920 C   0  0  2  0  0  0  0  0  0  0  0  0
  -23.4151  -17.7587   24.5915 C   0  0  0  0  0  0  0  0  0  0  0  0
  -35.3814  -21.4673   24.9366 C   0  0  0  0  0  0  0  0  0  0  0  0
  -24.4773  -21.6716   29.8291 C   0  0  0  0  0  0  0  0  0  0  0  0
  -23.8773  -19.4161   28.9229 C   0  0  0  0  0  0  0  0  0  0  0  0
  -22.4294  -21.3848   28.4225 C   0  0  0  0  0  0  0  0  0  0  0  0
  -25.6978  -20.0272   22.5619 C   0  0  0  0  0  0  0  0  0  0  0  0
  -33.1599  -22.4348   25.6257 C   0  0  0  0  0  0  0  0  0  1  0  0
  -24.6871  -21.1897   27.3013 C   0  0  1  0  0  0  0  0  0  0  0  0
  -24.0913  -19.0683   24.2167 C   0  0  2  0  0  0  0  0  0  0  0  0
  -34.0195  -21.1803   25.5469 C   0  0  1  0  0  0  0  0  0  0  0  0
  -23.8923  -20.9280   28.6118 C   0  0  0  0  0  0  0  0  0  0  0  0
  -25.8619  -11.5424   20.2876 N   0  0  0  0  0  0  0  0  0  0  0  0
  -26.2391  -12.8258   20.1587 N   0  0  0  0  0  0  0  0  0  0  0  0
  -26.0423  -23.2166   26.8783 N   0  0  0  0  0  0  0  0  0  0  0  0
  -29.9701  -13.6128   20.3671 N   0  0  0  0  0  0  0  0  0  0  0  0
  -25.4728  -15.0536   20.4048 N   0  0  0  0  0  0  0  0  0  0  0  0
  -32.1222  -19.2034   26.4448 N   0  0  0  0  0  0  0  0  0  0  0  0
  -21.8867  -12.5806   21.5965 N   0  0  0  0  0  0  0  0  0  0  0  0
  -30.0807  -15.6927   21.4735 N   0  0  0  0  0  0  0  0  0  0  0  0
  -25.8113  -26.4717   28.3210 N   0  0  0  0  0  0  0  0  0  0  0  0
  -24.1397  -20.5197   26.1266 N   0  0  0  0  0  0  0  0  0  0  0  0
  -33.3373  -20.1978   24.6922 N   0  3  0  0  0  0  0  0  0  0  0  0
  -24.9857  -18.8187   23.0511 N   0  3  0  0  0  0  0  0  0  0  0  0
  -22.6629  -14.7201   21.3157 O   0  0  0  0  0  0  0  0  0  0  0  0
  -26.9659  -24.5557   28.9677 O   0  0  0  0  0  0  0  0  0  0  0  0
  -23.7150  -23.2829   26.7534 O   0  0  0  0  0  0  0  0  0  0  0  0
  -26.0516  -19.3146   25.6073 O   0  0  0  0  0  0  0  0  0  0  0  0
  -31.8578  -14.9353   20.1891 O   0  0  0  0  0  0  0  0  0  0  0  0
  -21.6125   -7.0176   21.7081 O   0  0  0  0  0  0  0  0  0  0  0  0
  -32.1248  -22.2316   26.5868 O   0  0  0  0  0  0  0  0  0  1  0  0
  -18.6185   -6.8625   26.3358 F   0  0  0  0  0  0  0  0  0  0  0  0
  -33.9812  -17.5062   23.6018 F   0  0  0  0  0  0  0  0  0  0  0  0
  -22.0613   -5.0752   23.6233 F   0  0  0  0  0  0  0  0  0  0  0  0
  1  2  1  0  0  0  0
  1  6  2  0  0  0  0
  2  7  2  0  0  0  0
  3 10  2  0  0  0  0
  3 18  1  0  0  0  0
  4 11  1  0  0  0  0
  4 18  2  0  0  0  0
  5  9  2  0  0  0  0
  5 19  1  0  0  0  0
  6 21  1  0  0  0  0
  7 23  1  0  0  0  0
  8 12  2  0  0  0  0
  8 22  1  0  0  0  0
  9 25  1  0  0  0  0
 10 26  1  0  0  0  0
 11 26  2  0  0  0  0
 12 27  1  0  0  0  0
 13 14  2  0  0  0  0
 13 28  1  0  0  0  0
 14 29  1  0  0  0  0
 15 24  1  0  0  0  0
 15 27  2  0  0  0  0
 16 25  2  0  0  0  0
 16 30  1  0  0  0  0
 17 29  2  0  0  0  0
 17 31  1  0  0  0  0
 18 32  1  0  0  0  0
 19 30  2  0  0  0  0
 19 34  1  0  0  0  0
 20 32  1  0  0  0  0
 20 33  2  0  0  0  0
 20 35  1  0  0  0  0
 21 23  2  0  0  0  0
 21 40  1  0  0  0  0
 22 24  2  0  0  0  0
 22 41  1  0  0  0  0
 23 49  1  0  0  0  0
 24 42  1  0  0  0  0
 25 70  1  0  0  0  0
 26 80  1  0  0  0  0
 27 81  1  0  0  0  0
 28 31  2  0  0  0  0
 28 80  1  0  0  0  0
 29 82  1  0  0  0  0
 30 83  1  0  0  0  0
 31 84  1  0  0  0  0
 32 63  2  0  0  0  0
 33 64  1  0  0  0  0
 33 67  1  0  0  0  0
 34 68  1  0  0  0  0
 34 73  2  0  0  0  0
 35 69  1  0  0  0  0
 35 75  2  0  0  0  0
 36 50  1  0  0  0  0
 36 71  1  0  0  0  0
 36 76  2  0  0  0  0
 37 59  1  0  0  0  0
 37 65  1  0  0  0  0
 37 77  2  0  0  0  0
 38 60  1  0  0  0  0
 38 72  1  0  0  0  0
 38 78  2  0  0  0  0
 39 66  1  0  0  0  0
 39 70  1  0  0  0  0
 39 79  2  0  0  0  0
 40 43  1  0  0  0  0
 41 50  1  0  0  0  0
 42 65  1  0  0  0  0
 43 45  1  0  0  0  0
 44 46  1  0  0  0  0
 44 47  1  0  0  0  0
 45 49  1  0  0  0  0
 46 51  1  0  0  0  0
 47 66  1  0  0  0  0
 48 51  1  0  0  0  0
 48 66  1  0  0  0  0
 49 71  1  0  0  0  0
 50 65  1  0  0  0  0
 51 64  1  0  0  0  0
 52 60  1  0  0  0  0
 53 61  1  0  0  0  0
 54 62  1  0  0  0  0
 55 62  1  0  0  0  0
 56 62  1  0  0  0  0
 57 74  1  0  0  0  0
 58 61  1  0  0  0  0
 58 81  1  0  0  0  0
 59 62  1  0  0  0  0
 59 72  1  0  0  0  0
 60 74  1  0  0  0  0
 61 73  1  0  0  0  0
 63 64  1  0  0  0  0
M  CHG  2  73   1  74   1
M  ISO  4  39 100  58 101  70 100  81 101
M  END
> <Batch ID>
0071

> <Smiles>
CNC(C)C(=O)NC(C(=O)N1Cc2cc([101O:1][101CH2:1]C(C)NC(=N)c3ccc([100NH:0][100C:0](=O)N4CCCC(n5nc(-c6ccc(Oc7ccc(F)cc7F)cc6)c(C(N)=O)c5N)C4)cc3F)ccc2CC1C(=O)NC1CCCc2ccccc21)C(C)(C)C

> <Shape>
0.167

> <Color>
0.187

> <Negative vol penalty>
0.000

$$$$

  -OEChem-04042323353D

 83 91  0     1  0  0  0  0  0999 V2000
  -18.4675  -31.6214   22.9236 C   0  0  0  0  0  0  0  0  0  0  0  0
  -19.8558  -31.5414   22.8813 C   0  0  0  0  0  0  0  0  0  0  0  0
  -28.0184  -12.7004   22.4147 C   0  0  0  0  0  0  0  0  0  0  0  0
  -26.8059  -12.9691   20.3424 C   0  0  0  0  0  0  0  0  0  0  0  0
  -17.7008  -30.4595   22.8469 C   0  0  0  0  0  0  0  0  0  0  0  0
  -20.4781  -30.2991   22.7634 C   0  0  0  0  0  0  0  0  0  0  0  0
  -25.6579  -29.0481   19.7450 C   0  0  0  0  0  0  0  0  0  0  0  0
  -27.4924  -11.4163   22.5560 C   0  0  0  0  0  0  0  0  0  0  0  0
  -26.2799  -11.6850   20.4836 C   0  0  0  0  0  0  0  0  0  0  0  0
  -26.9776  -28.8979   20.1688 C   0  0  0  0  0  0  0  0  0  0  0  0
  -23.8200  -10.1807   22.2491 C   0  0  0  0  0  0  0  0  0  0  0  0
  -22.4571  -10.0084   22.0073 C   0  0  0  0  0  0  0  0  0  0  0  0
  -26.6690  -26.5073   20.2627 C   0  0  0  0  0  0  0  0  0  0  0  0
  -29.0662  -23.5314   19.4922 C   0  0  0  0  0  0  0  0  0  0  0  0
  -30.7036  -24.1242   17.8176 C   0  0  0  0  0  0  0  0  0  0  0  0
  -29.5256  -22.0204   17.6639 C   0  0  0  0  0  0  0  0  0  0  0  0
  -22.9685   -8.4426   20.2399 C   0  0  0  0  0  0  0  0  0  0  0  0
  -27.6751  -13.4768   21.3079 C   0  0  0  0  0  0  0  0  0  0  0  0
  -29.4116  -15.1668   20.5101 C   0  0  0  0  0  0  0  0  0  0  0  0
  -18.3138  -29.2032   22.7183 C   0  0  0  0  0  0  0  0  0  0  0  0
  -24.8292  -27.9280   19.5871 C   0  0  0  0  0  0  0  0  0  0  0  0
  -19.7189  -29.1192   22.6863 C   0  0  0  0  0  0  0  0  0  0  0  0
  -25.3400  -26.6457   19.8343 C   0  0  0  0  0  0  0  0  0  0  0  0
  -30.0047  -24.4302   18.9853 C   0  0  0  0  0  0  0  0  0  0  0  0
  -28.8267  -22.3265   18.8315 C   0  0  0  0  0  0  0  0  0  0  0  0
  -26.6232  -10.9086   21.5904 C   0  0  0  0  0  0  0  0  0  0  0  0
  -27.4825  -27.6276   20.4305 C   0  0  0  0  0  0  0  0  0  0  0  0
  -24.7572   -9.4840   21.4861 C   0  0  0  0  0  0  0  0  0  0  0  0
  -22.0313   -9.1394   21.0028 C   0  0  0  0  0  0  0  0  0  0  0  0
  -30.4641  -22.9192   17.1569 C   0  0  0  0  0  0  0  0  0  0  0  0
  -24.3314   -8.6149   20.4816 C   0  0  0  0  0  0  0  0  0  0  0  0
  -28.2177  -14.8036   21.1618 C   0  0  0  0  0  0  0  0  0  0  0  0
  -29.4766  -16.5318   20.6481 C   0  0  0  0  0  0  0  0  0  0  0  0
  -30.3756  -14.3438   19.8399 C   0  0  0  0  0  0  0  0  0  0  0  0
  -22.1214  -26.9347   20.9231 C   0  0  0  0  0  0  0  0  0  0  0  0
  -22.3192  -24.6086   18.6709 C   0  0  0  0  0  0  0  0  0  0  0  0
  -31.1423  -26.6564   19.2921 C   0  0  0  0  0  0  0  0  0  0  0  0
  -24.2797  -22.7782   16.5607 C   0  0  0  0  0  0  0  0  0  0  0  0
  -27.0943  -21.5620   20.4931 C   0  0  0  0  0  0  0  0  0  0  0  0
  -17.4445  -27.9711   22.6867 C   0  0  0  0  0  0  0  0  0  0  0  0
  -23.4160  -28.1048   19.1035 C   0  0  0  0  0  0  0  0  0  0  0  0
  -24.4975  -25.4094   19.6605 C   0  0  0  0  0  0  0  0  0  0  0  0
  -18.1713  -26.7256   22.1859 C   0  0  0  0  0  0  0  0  0  0  0  0
  -26.7329  -19.6886   23.4992 C   0  0  0  0  0  0  0  0  0  0  0  0
  -19.5321  -26.5933   22.8624 C   0  0  0  0  0  0  0  0  0  0  0  0
  -27.1852  -18.2806   23.1054 C   0  0  0  0  0  0  0  0  0  0  0  0
  -25.9724  -20.3773   22.3673 C   0  0  0  0  0  0  0  0  0  0  0  0
  -27.1242  -18.9972   20.6827 C   0  0  0  0  0  0  0  0  0  0  0  0
  -20.4302  -27.7921   22.5341 C   0  0  1  0  0  0  0  0  0  0  0  0
  -22.5079  -26.9353   19.4711 C   0  0  1  0  0  0  0  0  0  0  0  0
  -27.9508  -18.2880   21.7678 C   0  0  2  0  0  0  0  0  0  0  0  0
  -24.1618  -20.9250   14.8728 C   0  0  0  0  0  0  0  0  0  0  0  0
  -22.0432  -22.5738   20.9278 C   0  0  0  0  0  0  0  0  0  0  0  0
  -22.8726  -20.8156   19.3502 C   0  0  0  0  0  0  0  0  0  0  0  0
  -20.7451  -22.0232   18.8623 C   0  0  0  0  0  0  0  0  0  0  0  0
  -25.2922  -24.5269   14.3982 C   0  0  0  0  0  0  0  0  0  0  0  0
  -31.0897  -27.8054   20.2925 C   0  0  0  0  0  0  0  0  0  0  0  0
  -29.7145  -28.4478   20.3930 C   0  0  0  0  0  0  0  0  0  1  0  0
  -22.9474  -23.2376   18.6023 C   0  0  1  0  0  0  0  0  0  0  0  0
  -24.1260  -22.4296   15.0912 C   0  0  2  0  0  0  0  0  0  0  0  0
  -22.1676  -22.1858   19.4409 C   0  0  0  0  0  0  0  0  0  0  0  0
  -27.5710  -15.8532   21.6757 N   0  0  0  0  0  0  0  0  0  0  0  0
  -28.3613  -16.8893   21.3471 N   0  0  0  0  0  0  0  0  0  0  0  0
  -23.1201  -25.6348   19.1917 N   0  0  0  0  0  0  0  0  0  0  0  0
  -26.7605  -20.3498   21.1332 N   0  0  0  0  0  0  0  0  0  0  0  0
  -30.3784  -17.4491   20.2386 N   0  0  0  0  0  0  0  0  0  0  0  0
  -30.1544  -12.9607   19.7908 N   0  0  0  0  0  0  0  0  0  0  0  0
  -30.2483  -25.6527   19.6553 N   0  0  0  0  0  0  0  0  0  0  0  0
  -27.8736  -21.4130   19.3463 N   0  0  0  0  0  0  0  0  0  0  0  0
  -20.9799  -27.6619   21.2017 N   0  0  0  0  0  0  0  0  0  0  0  0
  -23.0573  -22.9094   17.1851 N   0  0  0  0  0  0  0  0  0  0  0  0
  -25.2243  -23.0464   14.2949 N   0  3  0  0  0  0  0  0  0  0  0  0
  -31.4109  -14.8190   19.3148 O   0  0  0  0  0  0  0  0  0  0  0  0
  -22.8072  -26.3188   21.7306 O   0  0  0  0  0  0  0  0  0  0  0  0
  -21.1630  -24.7647   18.2704 O   0  0  0  0  0  0  0  0  0  0  0  0
  -31.8903  -26.6707   18.3202 O   0  0  0  0  0  0  0  0  0  0  0  0
  -25.3747  -22.9165   17.1015 O   0  0  0  0  0  0  0  0  0  0  0  0
  -26.7395  -22.6537   20.9451 O   0  0  0  0  0  0  0  0  0  0  0  0
  -26.1099   -9.6555   21.7278 O   0  0  0  0  0  0  0  0  0  0  0  0
  -28.7701  -27.4782   20.8449 O   0  0  0  0  0  0  0  0  0  1  0  0
  -20.7225   -8.9729   20.7718 F   0  0  0  0  0  0  0  0  0  0  0  0
  -31.1358  -22.6248   16.0360 F   0  0  0  0  0  0  0  0  0  0  0  0
  -25.2270   -7.9419   19.7462 F   0  0  0  0  0  0  0  0  0  0  0  0
  1  2  1  0  0  0  0
  1  5  2  0  0  0  0
  2  6  2  0  0  0  0
  3  8  2  0  0  0  0
  3 18  1  0  0  0  0
  4  9  1  0  0  0  0
  4 18  2  0  0  0  0
  5 20  1  0  0  0  0
  6 22  1  0  0  0  0
  7 10  2  0  0  0  0
  7 21  1  0  0  0  0
  8 26  1  0  0  0  0
  9 26  2  0  0  0  0
 10 27  1  0  0  0  0
 11 12  2  0  0  0  0
 11 28  1  0  0  0  0
 12 29  1  0  0  0  0
 13 23  1  0  0  0  0
 13 27  2  0  0  0  0
 14 24  2  0  0  0  0
 14 25  1  0  0  0  0
 15 24  1  0  0  0  0
 15 30  2  0  0  0  0
 16 25  2  0  0  0  0
 16 30  1  0  0  0  0
 17 29  2  0  0  0  0
 17 31  1  0  0  0  0
 18 32  1  0  0  0  0
 19 32  1  0  0  0  0
 19 33  2  0  0  0  0
 19 34  1  0  0  0  0
 20 22  2  0  0  0  0
 20 40  1  0  0  0  0
 21 23  2  0  0  0  0
 21 41  1  0  0  0  0
 22 49  1  0  0  0  0
 23 42  1  0  0  0  0
 24 68  1  0  0  0  0
 25 69  1  0  0  0  0
 26 79  1  0  0  0  0
 27 80  1  0  0  0  0
 28 31  2  0  0  0  0
 28 79  1  0  0  0  0
 29 81  1  0  0  0  0
 30 82  1  0  0  0  0
 31 83  1  0  0  0  0
 32 62  2  0  0  0  0
 33 63  1  0  0  0  0
 33 66  1  0  0  0  0
 34 67  1  0  0  0  0
 34 73  2  0  0  0  0
 35 50  1  0  0  0  0
 35 70  1  0  0  0  0
 35 74  2  0  0  0  0
 36 59  1  0  0  0  0
 36 64  1  0  0  0  0
 36 75  2  0  0  0  0
 37 57  1  0  0  0  0
 37 68  1  0  0  0  0
 37 76  2  0  0  0  0
 38 60  1  0  0  0  0
 38 71  1  0  0  0  0
 38 77  2  0  0  0  0
 39 65  1  0  0  0  0
 39 69  1  0  0  0  0
 39 78  2  0  0  0  0
 40 43  1  0  0  0  0
 41 50  1  0  0  0  0
 42 64  1  0  0  0  0
 43 45  1  0  0  0  0
 44 46  1  0  0  0  0
 44 47  1  0  0  0  0
 45 49  1  0  0  0  0
 46 51  1  0  0  0  0
 47 65  1  0  0  0  0
 48 51  1  0  0  0  0
 48 65  1  0  0  0  0
 49 70  1  0  0  0  0
 50 64  1  0  0  0  0
 51 63  1  0  0  0  0
 52 60  1  0  0  0  0
 53 61  1  0  0  0  0
 54 61  1  0  0  0  0
 55 61  1  0  0  0  0
 56 72  1  0  0  0  0
 57 58  1  0  0  0  0
 58 80  1  0  0  0  0
 59 61  1  0  0  0  0
 59 71  1  0  0  0  0
 60 72  1  0  0  0  0
 62 63  1  0  0  0  0
M  CHG  1  72   1
M  ISO  4  39 100  58 101  69 100  80 101
M  END
> <Batch ID>
0071

> <Smiles>
CNC(C)C(=O)NC(C(=O)N1Cc2cc([101O:1][101CH2:1]CC(=O)Nc3cc(F)cc([100NH:0][100C:0](=O)N4CCCC(n5nc(-c6ccc(Oc7ccc(F)cc7F)cc6)c(C(N)=O)c5N)C4)c3)ccc2CC1C(=O)NC1CCCc2ccccc21)C(C)(C)C

> <Shape>
0.268

> <Color>
0.082

> <Negative vol penalty>
0.000

$$$$

  -OEChem-04042323353D

 88 97  0     1  0  0  0  0  0999 V2000
  -27.3252  -37.6458   24.2060 C   0  0  0  0  0  0  0  0  0  0  0  0
  -28.1643  -36.5922   23.8579 C   0  0  0  0  0  0  0  0  0  0  0  0
  -24.7338   -9.0071   21.4564 C   0  0  0  0  0  0  0  0  0  0  0  0
  -23.1873  -10.8410   21.1697 C   0  0  0  0  0  0  0  0  0  0  0  0
  -26.1566  -37.3967   24.9245 C   0  0  0  0  0  0  0  0  0  0  0  0
  -27.8358  -35.2888   24.2291 C   0  0  0  0  0  0  0  0  0  0  0  0
  -28.4251  -28.5205   21.9576 C   0  0  0  0  0  0  0  0  0  0  0  0
  -23.8845   -8.4393   22.4061 C   0  0  0  0  0  0  0  0  0  0  0  0
  -22.3379  -10.2731   22.1193 C   0  0  0  0  0  0  0  0  0  0  0  0
  -28.8664  -27.2723   22.3947 C   0  0  0  0  0  0  0  0  0  0  0  0
  -21.0306   -6.6262   22.4284 C   0  0  0  0  0  0  0  0  0  0  0  0
  -20.7842   -5.2561   22.3409 C   0  0  0  0  0  0  0  0  0  0  0  0
  -26.1342  -20.6219   20.8993 C   0  0  0  0  0  0  0  0  0  0  0  0
  -25.7799  -18.4473   19.9082 C   0  0  0  0  0  0  0  0  0  0  0  0
  -26.7820  -26.9521   23.5658 C   0  0  0  0  0  0  0  0  0  0  0  0
  -27.9459  -19.0261   20.8084 C   0  0  0  0  0  0  0  0  0  0  0  0
  -21.7046   -4.9493   24.5535 C   0  0  0  0  0  0  0  0  0  0  0  0
  -24.3852  -10.2080   20.8382 C   0  0  0  0  0  0  0  0  0  0  0  0
  -25.2941  -19.7041   20.2689 C   0  0  0  0  0  0  0  0  0  0  0  0
  -25.2546  -10.5717   18.4677 C   0  0  0  0  0  0  0  0  0  0  0  0
  -25.8086  -36.0885   25.2963 C   0  0  0  0  0  0  0  0  0  0  0  0
  -27.1611  -28.9993   22.3310 C   0  0  0  0  0  0  0  0  0  0  0  0
  -26.6621  -35.0221   24.9544 C   0  0  0  0  0  0  0  0  0  0  0  0
  -26.3259  -28.2056   23.1301 C   0  0  0  0  0  0  0  0  0  0  0  0
  -27.4601  -20.2829   21.1691 C   0  0  0  0  0  0  0  0  0  0  0  0
  -27.1058  -18.1082   20.1780 C   0  0  0  0  0  0  0  0  0  0  0  0
  -22.6866   -9.0723   22.7375 C   0  0  0  0  0  0  0  0  0  0  0  0
  -28.0460  -26.4891   23.2012 C   0  0  0  0  0  0  0  0  0  0  0  0
  -21.6141   -7.1579   23.5784 C   0  0  0  0  0  0  0  0  0  0  0  0
  -21.1211   -4.4176   23.4035 C   0  0  0  0  0  0  0  0  0  0  0  0
  -21.9511   -6.3194   24.6410 C   0  0  0  0  0  0  0  0  0  0  0  0
  -25.2624  -10.7953   19.8576 C   0  0  0  0  0  0  0  0  0  0  0  0
  -26.2739  -11.3574   17.9878 C   0  0  0  0  0  0  0  0  0  0  0  0
  -27.9800  -22.5227   22.2378 C   0  0  0  0  0  0  0  0  0  0  0  0
  -23.6003  -21.1155   19.1942 C   0  0  0  0  0  0  0  0  0  0  0  0
  -23.9115  -20.0582   19.9879 C   0  0  0  0  0  0  0  0  0  0  0  0
  -24.4022   -9.7292   17.6807 C   0  0  0  0  0  0  0  0  0  0  0  0
  -26.1093  -31.4982   23.9903 C   0  0  0  0  0  0  0  0  0  0  0  0
  -23.2042  -30.4134   23.0387 C   0  0  0  0  0  0  0  0  0  0  0  0
  -21.2965  -27.7905   21.9766 C   0  0  0  0  0  0  0  0  0  0  0  0
  -28.8882  -16.3361   20.0084 C   0  0  0  0  0  0  0  0  0  0  0  0
  -24.5592  -35.8740   26.1133 C   0  0  0  0  0  0  0  0  0  0  0  0
  -26.6891  -30.3365   21.8293 C   0  0  0  0  0  0  0  0  0  0  0  0
  -24.9521  -28.6651   23.5422 C   0  0  0  0  0  0  0  0  0  0  0  0
  -24.0933  -34.4206   26.1437 C   0  0  0  0  0  0  0  0  0  0  0  0
  -30.4834  -13.2359   19.2863 C   0  0  0  0  0  0  0  0  0  0  0  0
  -25.2686  -33.4889   26.4219 C   0  0  0  0  0  0  0  0  0  0  0  0
  -29.3242  -12.2390   19.2183 C   0  0  0  0  0  0  0  0  0  0  0  0
  -30.3348  -22.2409   22.4369 C   0  0  0  0  0  0  0  0  0  0  0  0
  -30.2587  -14.2941   20.3649 C   0  0  0  0  0  0  0  0  0  0  0  0
  -29.6898  -20.8963   22.1665 C   0  0  0  0  0  0  0  0  0  0  0  0
  -27.8167  -14.0068   20.2129 C   0  0  0  0  0  0  0  0  0  0  0  0
  -26.3274  -33.5916   25.3173 C   0  0  1  0  0  0  0  0  0  0  0  0
  -29.1844  -23.0736   22.9839 C   0  0  1  0  0  0  0  0  0  0  0  0
  -25.5892  -30.9448   22.6939 C   0  0  1  0  0  0  0  0  0  0  0  0
  -27.9673  -12.9598   19.0972 C   0  0  2  0  0  0  0  0  0  0  0  0
  -18.9481  -27.2033   21.3150 C   0  0  0  0  0  0  0  0  0  0  0  0
  -22.3755  -30.4293   25.9752 C   0  0  0  0  0  0  0  0  0  0  0  0
  -20.4320  -28.9747   25.3625 C   0  0  0  0  0  0  0  0  0  0  0  0
  -20.6278  -31.2650   24.3935 C   0  0  0  0  0  0  0  0  0  0  0  0
  -22.1372  -27.0071   19.2493 C   0  0  0  0  0  0  0  0  0  0  0  0
  -22.7860  -19.2604   20.6247 C   0  0  0  0  0  0  0  0  0  0  0  0
  -29.3782  -24.5645   22.7805 C   0  0  0  0  0  0  0  0  0  1  0  0
  -22.1899  -29.4441   23.5959 C   0  0  1  0  0  0  0  0  0  0  0  0
  -20.3140  -27.6601   20.8267 C   0  0  2  0  0  0  0  0  0  0  0  0
  -21.4329  -30.0201   24.8258 C   0  0  0  0  0  0  0  0  0  0  0  0
  -26.2114  -11.6555   20.2361 N   0  0  0  0  0  0  0  0  0  0  0  0
  -26.8096  -11.9793   19.0770 N   0  0  0  0  0  0  0  0  0  0  0  0
  -28.3203  -21.2214   21.8142 N   0  0  0  0  0  0  0  0  0  0  0  0
  -24.5383  -29.9824   23.0314 N   0  0  0  0  0  0  0  0  0  0  0  0
  -28.9557  -14.9378   20.1840 N   0  0  0  0  0  0  0  0  0  0  0  0
  -26.7553  -11.5699   16.7446 N   0  0  0  0  0  0  0  0  0  0  0  0
  -23.4062   -8.9902   18.3335 N   0  0  0  0  0  0  0  0  0  0  0  0
  -27.5993  -16.8311   19.8130 N   0  0  0  0  0  0  0  0  0  0  0  0
  -25.9066  -32.8564   24.1439 N   0  0  0  0  0  0  0  0  0  0  0  0
  -21.3244  -29.0733   22.4815 N   0  0  0  0  0  0  0  0  0  0  0  0
  -22.8160  -19.2903   22.1132 N   0  3  0  0  0  0  0  0  0  0  0  0
  -20.8118  -26.6705   19.8298 N   0  3  0  0  0  0  0  0  0  0  0  0
  -26.9262  -23.1320   22.1251 O   0  0  0  0  0  0  0  0  0  0  0  0
  -24.5310   -9.6219   16.4376 O   0  0  0  0  0  0  0  0  0  0  0  0
  -26.6529  -30.7481   24.7926 O   0  0  0  0  0  0  0  0  0  0  0  0
  -22.8257  -31.5097   22.6186 O   0  0  0  0  0  0  0  0  0  0  0  0
  -21.9690  -26.8478   22.3884 O   0  0  0  0  0  0  0  0  0  0  0  0
  -29.9020  -17.0391   20.0025 O   0  0  0  0  0  0  0  0  0  0  0  0
  -21.8575   -8.5184   23.6640 O   0  0  0  0  0  0  0  0  0  0  0  0
  -28.4746  -25.2707   23.6297 O   0  0  0  0  0  0  0  0  0  1  0  0
  -20.8829   -3.1022   23.3200 F   0  0  0  0  0  0  0  0  0  0  0  0
  -22.5108   -6.8245   25.7488 F   0  0  0  0  0  0  0  0  0  0  0  0
  1  2  1  0  0  0  0
  1  5  2  0  0  0  0
  2  6  2  0  0  0  0
  3  8  2  0  0  0  0
  3 18  1  0  0  0  0
  4  9  1  0  0  0  0
  4 18  2  0  0  0  0
  5 21  1  0  0  0  0
  6 23  1  0  0  0  0
  7 10  2  0  0  0  0
  7 22  1  0  0  0  0
  8 27  1  0  0  0  0
  9 27  2  0  0  0  0
 10 28  1  0  0  0  0
 11 12  2  0  0  0  0
 11 29  1  0  0  0  0
 12 30  1  0  0  0  0
 13 19  2  0  0  0  0
 13 25  1  0  0  0  0
 14 19  1  0  0  0  0
 14 26  2  0  0  0  0
 15 24  1  0  0  0  0
 15 28  2  0  0  0  0
 16 25  2  0  0  0  0
 16 26  1  0  0  0  0
 17 30  2  0  0  0  0
 17 31  1  0  0  0  0
 18 32  1  0  0  0  0
 19 36  1  0  0  0  0
 20 32  1  0  0  0  0
 20 33  2  0  0  0  0
 20 37  1  0  0  0  0
 21 23  2  0  0  0  0
 21 42  1  0  0  0  0
 22 24  2  0  0  0  0
 22 43  1  0  0  0  0
 23 53  1  0  0  0  0
 24 44  1  0  0  0  0
 25 69  1  0  0  0  0
 26 74  1  0  0  0  0
 27 85  1  0  0  0  0
 28 86  1  0  0  0  0
 29 31  2  0  0  0  0
 29 85  1  0  0  0  0
 30 87  1  0  0  0  0
 31 88  1  0  0  0  0
 32 67  2  0  0  0  0
 33 68  1  0  0  0  0
 33 72  1  0  0  0  0
 34 54  1  0  0  0  0
 34 69  1  0  0  0  0
 34 79  2  0  0  0  0
 35 36  2  0  0  0  0
 36 62  1  0  0  0  0
 37 73  1  0  0  0  0
 37 80  2  0  0  0  0
 38 55  1  0  0  0  0
 38 75  1  0  0  0  0
 38 81  2  0  0  0  0
 39 64  1  0  0  0  0
 39 70  1  0  0  0  0
 39 82  2  0  0  0  0
 40 65  1  0  0  0  0
 40 76  1  0  0  0  0
 40 83  2  0  0  0  0
 41 71  1  0  0  0  0
 41 74  1  0  0  0  0
 41 84  2  0  0  0  0
 42 45  1  0  0  0  0
 43 55  1  0  0  0  0
 44 70  1  0  0  0  0
 45 47  1  0  0  0  0
 46 48  1  0  0  0  0
 46 50  1  0  0  0  0
 47 53  1  0  0  0  0
 48 56  1  0  0  0  0
 49 51  1  0  0  0  0
 49 54  1  0  0  0  0
 50 71  1  0  0  0  0
 51 69  1  0  0  0  0
 52 56  1  0  0  0  0
 52 71  1  0  0  0  0
 53 75  1  0  0  0  0
 54 63  1  0  0  0  0
 55 70  1  0  0  0  0
 56 68  1  0  0  0  0
 57 65  1  0  0  0  0
 58 66  1  0  0  0  0
 59 66  1  0  0  0  0
 60 66  1  0  0  0  0
 61 78  1  0  0  0  0
 62 77  1  0  0  0  0
 63 86  1  0  0  0  0
 64 66  1  0  0  0  0
 64 76  1  0  0  0  0
 65 78  1  0  0  0  0
 67 68  1  0  0  0  0
M  CHG  2  77   1  78   1
M  ISO  4  41 100  63 101  74 100  86 101
M  END
> <Batch ID>
0071

> <Smiles>
C=C(CN)c1cc([100NH:0][100C:0](=O)N2CCCC(n3nc(-c4ccc(Oc5ccc(F)cc5F)cc4)c(C(N)=O)c3N)C2)cc(N2CCC([101CH2:1][101O:1]c3ccc4c(c3)CN(C(=O)C(NC(=O)C(C)NC)C(C)(C)C)C(C(=O)NC3CCCc5ccccc53)C4)C2=O)c1

> <Shape>
0.292

> <Color>
0.079

> <Negative vol penalty>
0.000

$$$$
